#------------------------------------------------------------------------------
#$Date: 2019-11-08 02:39:44 +0200 (Fri, 08 Nov 2019) $
#$Revision: 224823 $
#$URL: file:///home/coder/svn-repositories/cod/cif/7/05/80/7058082.cif $
#------------------------------------------------------------------------------
#
# This file is available in the Crystallography Open Database (COD),
# http://www.crystallography.net/
#
# All data on this site have been placed in the public domain by the
# contributors.
#
data_7058082
loop_
_publ_author_name
'Meerakrishna, Ramakrishnan Suseela'
'Shanmugam, Ponnusamy'
_publ_section_title
;
 Synthesis of blue-red emissive amido-substituted di(het)aryl and
 tri(het)aryl amine derivatives via chemoselective N-mono and
 N,N-diarylation of (het) aryl amino amides using benzyne/arynes
;
_journal_issue                   6
_journal_name_full               'New Journal of Chemistry'
_journal_page_first              2550
_journal_paper_doi               10.1039/C8NJ05823G
_journal_volume                  43
_journal_year                    2019
_chemical_formula_moiety         'C19 H16 N2 O'
_chemical_formula_sum            'C19 H16 N2 O'
_chemical_formula_weight         288.34
_chemical_name_systematic        2-(diphenylamino)benzamide
_space_group_crystal_system      triclinic
_space_group_IT_number           2
_space_group_name_Hall           '-P 1'
_space_group_name_H-M_alt        'P -1'
_symmetry_space_group_name_Hall  '-P 1'
_symmetry_space_group_name_H-M   'P -1'
_atom_sites_solution_hydrogens   mixed
_audit_creation_method           SHELXL-2014/7
_audit_update_record
;
2018-01-05 deposited with the CCDC.
2019-01-07 downloaded from the CCDC.
;
_cell_angle_alpha                84.328(3)
_cell_angle_beta                 88.471(3)
_cell_angle_gamma                61.065(3)
_cell_formula_units_Z            2
_cell_length_a                   9.1292(7)
_cell_length_b                   9.3744(7)
_cell_length_c                   10.0457(6)
_cell_measurement_reflns_used    6244
_cell_measurement_temperature    296(2)
_cell_measurement_theta_max      31.23
_cell_measurement_theta_min      2.49
_cell_volume                     748.50(9)
_computing_cell_refinement       'APEX2/SAINT (Bruker, 2004)'
_computing_data_collection       'APEX2 (Bruker, 2004)'
_computing_data_reduction        'SAINT/XPREP (Bruker, 2004)'
_computing_molecular_graphics
'ORTEP3 (Farrugia, 1997) and Mercury (Bruno et al., 2002)'
_computing_publication_material  'SHELXL-2014/7 (Sheldrick, 2014)'
_computing_structure_refinement  'SHELXL-2014/7 (Sheldrick, 2014)'
_computing_structure_solution    'SHELXT-2014/4 (Sheldrick, 2014)'
_diffrn_ambient_temperature      296(2)
_diffrn_measured_fraction_theta_full 0.992
_diffrn_measured_fraction_theta_max 0.988
_diffrn_measurement_device_type  'Bruker axs kappa apex2 CCD Diffractometer'
_diffrn_measurement_method       '\w and \f scan'
_diffrn_radiation_monochromator  graphite
_diffrn_radiation_source         'fine-focus sealed tube'
_diffrn_radiation_type           MoK\a
_diffrn_radiation_wavelength     0.71073
_diffrn_reflns_av_R_equivalents  0.0351
_diffrn_reflns_av_unetI/netI     0.0231
_diffrn_reflns_Laue_measured_fraction_full 0.992
_diffrn_reflns_Laue_measured_fraction_max 0.988
_diffrn_reflns_limit_h_max       11
_diffrn_reflns_limit_h_min       -11
_diffrn_reflns_limit_k_max       11
_diffrn_reflns_limit_k_min       -11
_diffrn_reflns_limit_l_max       12
_diffrn_reflns_limit_l_min       -12
_diffrn_reflns_number            21188
_diffrn_reflns_point_group_measured_fraction_full 0.992
_diffrn_reflns_point_group_measured_fraction_max 0.988
_diffrn_reflns_theta_full        25.242
_diffrn_reflns_theta_max         25.999
_diffrn_reflns_theta_min         2.495
_exptl_absorpt_coefficient_mu    0.080
_exptl_absorpt_correction_T_max  0.7462
_exptl_absorpt_correction_T_min  0.7122
_exptl_absorpt_correction_type   multi-scan
_exptl_absorpt_process_details   'SADABS (Bruker, 2004)'
_exptl_crystal_colour            yellow
_exptl_crystal_density_diffrn    1.279
_exptl_crystal_description       block
_exptl_crystal_F_000             304
_exptl_crystal_recrystallization_method
'Re-crystallisation from solvent: Ethyl acetate and hexane'
_exptl_crystal_size_max          0.150
_exptl_crystal_size_mid          0.150
_exptl_crystal_size_min          0.100
_refine_diff_density_max         0.230
_refine_diff_density_min         -0.184
_refine_diff_density_rms         0.032
_refine_ls_extinction_coef       0.034(4)
_refine_ls_extinction_expression Fc^*^=kFc[1+0.001xFc^2^\l^3^/sin(2\q)]^-1/4^
_refine_ls_extinction_method     'SHELXL-2014/7 (Sheldrick 2014'
_refine_ls_goodness_of_fit_ref   1.044
_refine_ls_hydrogen_treatment    mixed
_refine_ls_matrix_type           full
_refine_ls_number_parameters     208
_refine_ls_number_reflns         2919
_refine_ls_number_restraints     0
_refine_ls_restrained_S_all      1.044
_refine_ls_R_factor_all          0.0624
_refine_ls_R_factor_gt           0.0394
_refine_ls_shift/su_max          0.000
_refine_ls_shift/su_mean         0.000
_refine_ls_structure_factor_coef Fsqd
_refine_ls_weighting_details
'w=1/[\s^2^(Fo^2^)+(0.0436P)^2^+0.2271P] where P=(Fo^2^+2Fc^2^)/3'
_refine_ls_weighting_scheme      calc
_refine_ls_wR_factor_gt          0.0925
_refine_ls_wR_factor_ref         0.1126
_reflns_Friedel_coverage         0.000
_reflns_number_gt                2089
_reflns_number_total             2919
_reflns_threshold_expression     'I > 2\s(I)'
_cod_data_source_file            c8nj05823g2.cif
_cod_data_source_block           MK2
_cod_depositor_comments          'Adding full bibliography for 7058082.cif.'
_cod_database_code               7058082
_shelx_shelxl_version_number     2014/7
_shelx_space_group_comment
;
The symmetry employed for this shelxl refinement is uniquely defined
by the following loop, which should always be used as a source of
symmetry information in preference to the above space-group names.
They are only intended as comments.
;
_shelx_estimated_absorpt_t_min   0.988
_shelx_estimated_absorpt_t_max   0.992
_shelx_res_file
;

    MK2.res created by SHELXL-2014/7

TITL MK2_a.res in P-1
CELL  0.71073   9.1292   9.3744  10.0457   84.328   88.471   61.065
ZERR     2.00   0.0007   0.0007   0.0006    0.003    0.003    0.003
LATT   1

SFAC  C    H    N    O
UNIT  38   32   4    2
MERG   2
OMIT    -3.00  52.00
EQIV $1 -x+2, -y, -z
HTAB N1 O1_$1
HTAB N1 N2
FMAP   2
PLAN   20
SIZE     0.10   0.15   0.15
ACTA

BOND   $H
CONF
L.S.  10
TEMP    23.00
WGHT    0.043600    0.227100
EXTI    0.034272
FVAR       1.09494
C1    1    0.974095    0.172608    0.307135    11.00000    0.03139    0.03335 =
         0.03549   -0.00288    0.00254   -0.01781
C2    1    1.107137    0.077939    0.397310    11.00000    0.03413    0.03399 =
         0.04472   -0.00114    0.00024   -0.01353
AFIX  43
H2    2    1.188554   -0.025022    0.376546    11.00000   -1.20000
AFIX   0
C3    1    1.121895    0.131823    0.515919    11.00000    0.04143    0.04611 =
         0.04591    0.00465   -0.01276   -0.02057
AFIX  43
H3    2    1.211965    0.065905    0.574348    11.00000   -1.20000
AFIX   0
C4    1    1.002669    0.283744    0.547574    11.00000    0.06180    0.05259 =
         0.04440   -0.01151   -0.01210   -0.02490
AFIX  43
H4    2    1.012192    0.321870    0.627169    11.00000   -1.20000
AFIX   0
C5    1    0.869402    0.379032    0.461189    11.00000    0.04873    0.04041 =
         0.04965   -0.01442   -0.00660   -0.01180
AFIX  43
H5    2    0.788757    0.481607    0.483372    11.00000   -1.20000
AFIX   0
C6    1    0.852392    0.325884    0.341890    11.00000    0.03062    0.03347 =
         0.03795   -0.00377   -0.00212   -0.01466
C7    1    0.684832    0.592136    0.218059    11.00000    0.03801    0.03720 =
         0.03315   -0.00231   -0.00436   -0.01820
C8    1    0.817003    0.604533    0.157897    11.00000    0.04141    0.05655 =
         0.05056   -0.00317   -0.00126   -0.02665
AFIX  43
H8    2    0.916081    0.510192    0.143631    11.00000   -1.20000
AFIX   0
C9    1    0.802202    0.756302    0.119068    11.00000    0.06732    0.07885 =
         0.06210    0.01264   -0.00895   -0.05290
AFIX  43
H9    2    0.892063    0.763703    0.079924    11.00000   -1.20000
AFIX   0
C10   1    0.655892    0.896498    0.137746    11.00000    0.08577    0.05294 =
         0.08072    0.01918   -0.02294   -0.04293
AFIX  43
H10   2    0.646263    0.998694    0.111497    11.00000   -1.20000
AFIX   0
C11   1    0.525112    0.884495    0.195027    11.00000    0.06778    0.03735 =
         0.09375    0.00249   -0.00485   -0.01824
AFIX  43
H11   2    0.425229    0.979359    0.206304    11.00000   -1.20000
AFIX   0
C12   1    0.538031    0.734315    0.236613    11.00000    0.04810    0.03739 =
         0.06505   -0.00361    0.00731   -0.01609
AFIX  43
H12   2    0.448075    0.728446    0.277175    11.00000   -1.20000
AFIX   0
C13   1    0.566334    0.404688    0.270970    11.00000    0.03053    0.03274 =
         0.03683   -0.00981    0.00332   -0.01306
C14   1    0.437417    0.478338    0.175137    11.00000    0.04393    0.06234 =
         0.03991    0.00102   -0.00385   -0.02943
AFIX  43
H14   2    0.438510    0.552462    0.106910    11.00000   -1.20000
AFIX   0
C15   1    0.307875    0.441905    0.180843    11.00000    0.04573    0.07905 =
         0.05386   -0.00490   -0.00946   -0.03459
AFIX  43
H15   2    0.222263    0.491986    0.116186    11.00000   -1.20000
AFIX   0
C16   1    0.303313    0.333218    0.280148    11.00000    0.04371    0.05883 =
         0.07204   -0.01211    0.00452   -0.03159
AFIX  43
H16   2    0.215717    0.309011    0.282995    11.00000   -1.20000
AFIX   0
C17   1    0.429263    0.260758    0.375064    11.00000    0.04766    0.04186 =
         0.06835    0.00030    0.00741   -0.02241
AFIX  43
H17   2    0.427303    0.186464    0.442699    11.00000   -1.20000
AFIX   0
C18   1    0.559674    0.296622    0.371727    11.00000    0.03577    0.03553 =
         0.05016   -0.00037   -0.00096   -0.01240
AFIX  43
H18   2    0.643525    0.247572    0.437857    11.00000   -1.20000
AFIX   0
C19   1    0.979916    0.099243    0.179010    11.00000    0.03850    0.03581 =
         0.03939   -0.00797    0.00423   -0.01512
N1    3    0.864701    0.185167    0.083902    11.00000    0.04800    0.04686 =
         0.03810   -0.01478   -0.00410   -0.01036
N2    3    0.705643    0.433012    0.259005    11.00000    0.02927    0.03109 =
         0.04258   -0.00302   -0.00329   -0.01249
O1    4    1.094594   -0.037925    0.163404    11.00000    0.07259    0.05629 =
         0.05827   -0.02561   -0.01246    0.00641
H1B   2    0.869830    0.138439    0.006193    11.00000    0.05815
H1A   2    0.779374    0.286389    0.098344    11.00000    0.06829
HKLF    4

REM  MK2_a.res in P-1
REM R1 =  0.0394 for    2089 Fo > 4sig(Fo)  and  0.0624 for all    2919 data
REM    208 parameters refined using      0 restraints

END

WGHT      0.0425      0.2296

REM Highest difference peak  0.230,  deepest hole -0.184,  1-sigma level  0.032
Q1    1   1.1083  0.0431  0.1231  11.00000  0.05    0.23
Q2    1   1.0006 -0.0206  0.1722  11.00000  0.05    0.23
Q3    1   0.9526  0.2595  0.3013  11.00000  0.05    0.17
Q4    1   0.4277  0.6139  0.1403  11.00000  0.05    0.16
Q5    1   0.9513  0.1374  0.2520  11.00000  0.05    0.16
Q6    1   0.6925  0.5224  0.2352  11.00000  0.05    0.15
Q7    1   0.8896  0.2104  0.3326  11.00000  0.05    0.14
Q8    1   1.1251 -0.0767  0.1775  11.00000  0.05    0.13
Q9    1   0.7379  0.4477  0.5037  11.00000  0.05    0.13
Q10   1   0.3500  0.3232  0.2072  11.00000  0.05    0.13
Q11   1   0.7648  0.5906  0.2213  11.00000  0.05    0.13
Q12   1   0.8685  0.1027  0.1408  11.00000  0.05    0.12
Q13   1   0.8053  0.6914  0.1811  11.00000  0.05    0.12
Q14   1   1.0840  0.0843  0.4803  11.00000  0.05    0.12
Q15   1   0.7043  0.8194  0.0793  11.00000  0.05    0.12
Q16   1   0.8898  0.3722  0.3751  11.00000  0.05    0.12
Q17   1   0.7810  0.3842  0.2960  11.00000  0.05    0.12
Q18   1   0.9681  0.3552  0.4785  11.00000  0.05    0.11
Q19   1   0.4141  0.2604  0.2945  11.00000  0.05    0.11
Q20   1   0.5399  0.3875  0.3381  11.00000  0.05    0.11
;
_shelx_res_checksum              23806
_shelx_hkl_file
;
  -1   0   0   96.29    2.90
  -1   0   0   94.89    3.50
  -1   0   0   77.99    2.40
  -1   0   0   85.99    2.70
  -1   0   0   70.99    3.00
  -1   0   0   90.79    3.60
  -1   0   0   96.89    2.90
   1   0   0   97.19    2.80
   1   0   0   91.39    2.40
   1   0   0   92.19    2.80
   1   0   0   72.19    2.70
   1   0   0   93.69    3.20
   1   0   0   80.89    3.50
  -2   0   0  533.55   17.40
  -2   0   0  544.65   13.90
  -2   0   0  529.15   13.70
  -2   0   0  543.85   14.00
  -2   0   0  540.75   16.00
  -2   0   0  539.55   17.00
  -2   0   0  527.15   13.60
  -2   0   0  549.35   13.80
   2   0   0  552.14   13.70
   2   0   0  535.75   13.70
   2   0   0  540.75   17.50
   2   0   0  547.75   15.90
   2   0   0  538.85   12.80
   2   0   0  546.25   13.70
   2   0   0  550.14   17.00
   2   0   0  528.55   13.80
  -3   0   0  235.78    7.70
  -3   0   0  242.28    9.50
  -3   0   0  225.18    7.50
  -3   0   0  232.88    8.80
  -3   0   0  226.08    7.40
  -3   0   0  232.88    9.70
  -3   0   0  228.88    6.50
  -3   0   0  229.68    7.60
   3   0   0  231.68    9.80
   3   0   0  222.38    7.60
   3   0   0  217.88    9.20
   3   0   0  229.18    7.40
   3   0   0  220.68    7.50
   3   0   0  241.18    8.70
   3   0   0  238.48    7.40
   3   0   0  221.58    6.40
  -4   0   0  101.89    5.10
  -4   0   0   96.79    4.80
  -4   0   0   98.39    4.90
  -4   0   0  105.79    6.40
  -4   0   0   94.29    5.80
  -4   0   0   99.79    3.40
   4   0   0  130.39    6.10
   4   0   0   99.39    6.90
   4   0   0   96.79    4.80
   4   0   0  104.79    6.50
   4   0   0  106.09    5.00
   4   0   0   97.89    5.00
  -5   0   0  121.29    4.00
  -5   0   0  136.19    7.60
  -5   0   0  132.99    6.50
  -5   0   0  124.69    6.30
   5   0   0  121.59    6.40
   5   0   0  129.89    8.10
   5   0   0  131.49    8.40
   5   0   0  133.49    6.40
  -6   0   0   57.49    4.50
  -6   0   0   56.49    4.90
  -6   0   0   56.79    5.30
   6   0   0   54.69    6.40
   6   0   0   60.49    4.80
   6   0   0   60.99    4.90
   6   0   0   54.59    7.10
  -7   0   0  500.75   17.30
  -7   0   0  530.25   20.70
  -7   0   0  507.85   17.30
   7   0   0  502.65   17.10
   7   0   0  483.15   22.10
   7   0   0  516.95   17.80
   7   0   0  513.95   21.60
  -8   0   0   39.10    5.80
  -8   0   0   37.00    5.20
   8   0   0   31.80    5.10
   8   0   0   37.30    6.50
   8   0   0   36.70    5.20
   8   0   0   27.40    6.70
  -9   0   0   82.99    7.00
  -9   0   0   78.69    7.10
   9   0   0   84.89   10.50
   9   0   0   81.49    9.60
   9   0   0   79.69    7.90
   9   0   0   89.09    6.90
 -10   0   0    2.50    3.80
 -10   0   0    3.10    3.60
  10   0   0   -3.10    6.20
  10   0   0    0.10    3.40
  10   0   0    5.80    4.10
 -11   0   0   -1.20    4.10
  11   0   0  -13.00    6.60
  11   0   0    3.10    3.60
  10  -1   0    1.80    3.20
  10  -1   0   -5.10    6.80
  10  -1   0    6.90    4.60
 -10   1   0    1.90    4.10
   9  -1   0   16.70    4.80
   9  -1   0   10.10    5.00
   9  -1   0    8.10    3.30
   9  -1   0   14.00    5.70
  -9   1   0    8.90    3.50
  -9   1   0   11.10    4.50
   8  -1   0   18.10    4.30
   8  -1   0   21.90    4.70
   8  -1   0   11.10    6.20
  -8   1   0   18.80    4.50
  -8   1   0   15.60    4.20
   7  -1   0   52.49    8.00
   7  -1   0   52.69    5.40
   7  -1   0   60.89    5.90
  -7   1   0   49.70    5.10
  -7   1   0   43.20    5.80
   6  -1   0    7.00    3.40
   6  -1   0    4.10    2.30
   6  -1   0   -1.00    2.60
   6  -1   0    5.20    2.60
  -6   1   0    6.30    2.80
  -6   1   0    1.60    1.80
  -6   1   0    5.00    1.10
  -6   1   0    8.90    3.10
   5  -1   0    0.70    1.90
   5  -1   0   -0.80    2.10
   5  -1   0   -3.30    1.70
   5  -1   0   -0.10    2.10
  -5   1   0    2.90    2.10
  -5   1   0    1.20    2.20
  -5   1   0    0.10    1.30
  -5   1   0    0.00    0.90
   4  -1   0   87.19    4.80
   4  -1   0   92.59    4.80
   4  -1   0   90.79    5.90
   4  -1   0   85.99    4.90
   4  -1   0   91.09    7.20
  -4   1   0   90.79    5.90
  -4   1   0   96.19    4.00
  -4   1   0   91.29    4.00
  -4   1   0   93.89    6.30
  -4   1   0   82.69    5.00
  -4   1   0   95.39    5.30
  -4   1   0   95.69    5.20
   3  -1   0  279.37   10.60
   3  -1   0  279.07    9.00
   3  -1   0  270.27    8.40
   3  -1   0  272.87    9.10
   3  -1   0  276.27   11.90
   3  -1   0  263.27   10.30
   3  -1   0  273.57    8.80
   3  -1   0  283.77    9.10
  -3   1   0  269.07   11.50
  -3   1   0  268.97    9.00
  -3   1   0  285.87    9.20
  -3   1   0  263.47   10.70
  -3   1   0  269.27    9.00
  -3   1   0  279.07    9.10
  -3   1   0  283.77    8.70
  -3   1   0  275.37    7.80
  -3   1   0  286.27   10.80
   2  -1   0   63.39    2.80
   2  -1   0   65.99    3.30
   2  -1   0   65.29    3.70
   2  -1   0   62.99    3.10
   2  -1   0   66.39    3.30
   2  -1   0   68.29    3.30
   2  -1   0   69.69    3.90
   2  -1   0   61.29    4.30
  -2   1   0   66.69    3.90
  -2   1   0   66.39    4.50
  -2   1   0   63.59    3.00
  -2   1   0   59.49    3.20
  -2   1   0   64.49    3.20
  -2   1   0   66.19    3.20
  -2   1   0   61.79    3.60
  -2   1   0   64.79    3.20
   1  -1   0 3788.42   96.49
   1  -1   0 3705.03   92.19
   1  -1   0 3737.93  103.49
   1  -1   0 3650.63   82.79
   1  -1   0 3660.33   82.69
   1  -1   0 3664.83  147.39
   1  -1   0 3559.64   82.59
   1  -1   0 3658.13   82.69
  -1   1   0 3692.73  103.39
  -1   1   0 3703.63   82.69
  -1   1   0 3730.03   92.29
  -1   1   0 3734.53  100.89
  -1   1   0 3566.54   82.79
  -1   1   0 3592.64   82.79
  -1   1   0 3703.43   96.59
  -1   1   0 3627.84   82.59
   0  -1   0  274.67   14.20
   0  -1   0  337.57    8.30
   0  -1   0  312.07    8.30
   0  -1   0  304.67    9.20
   0  -1   0  335.87    9.40
   0   1   0  336.97    8.10
   0   1   0  341.07   10.10
   0   1   0  339.67    9.40
   0   1   0  350.16    8.40
   0   1   0  346.37    8.10
   0   1   0  336.77   14.40
  -1  -1   0  896.91   22.40
  -1  -1   0  767.72   22.40
  -1  -1   0  888.31   24.80
  -1  -1   0  900.01   20.20
  -1  -1   0  883.91   20.10
   1   1   0  787.02   24.70
   1   1   0  940.11   35.70
   1   1   0  890.21   19.80
   1   1   0  900.21   19.90
   1   1   0  738.63   20.00
  -2  -1   0 4021.30   88.29
  -2  -1   0 3825.42  103.79
  -2  -1   0 3924.61   97.69
  -2  -1   0 3971.80   87.79
  -2  -1   0 3907.51   88.19
  -2  -1   0 3935.11   87.89
  -2  -1   0 3998.90  108.79
   2   1   0 3926.01  108.69
   2   1   0 3887.51  109.89
   2   1   0 3557.74  102.59
   2   1   0 3909.41   88.09
   2   1   0 3956.20   87.79
   2   1   0 3873.91   87.79
   2   1   0 4069.09   88.29
  -3  -1   0   73.09    3.50
  -3  -1   0   75.79    3.70
  -3  -1   0   67.69    4.40
  -3  -1   0   70.89    3.60
  -3  -1   0   68.89    3.40
  -3  -1   0   69.49    2.70
  -3  -1   0   73.29    3.40
  -3  -1   0   70.89    4.60
   3   1   0   76.89    4.80
   3   1   0   72.59    3.30
   3   1   0   70.19    3.50
   3   1   0   66.29    4.30
   3   1   0   71.39    3.50
   3   1   0   75.39    3.80
   3   1   0   71.99    3.30
  -4  -1   0   80.99    4.30
  -4  -1   0   78.19    5.60
  -4  -1   0   73.79    4.10
  -4  -1   0   75.69    3.90
  -4  -1   0   81.19    4.70
  -4  -1   0   78.39    4.40
  -4  -1   0   79.59    2.90
  -4  -1   0   73.89    5.30
   4   1   0   76.29    4.20
   4   1   0   76.29    5.50
   4   1   0   72.99    4.30
   4   1   0   76.59    4.20
   4   1   0   80.89    5.50
   4   1   0   77.39    4.00
   4   1   0   86.09    4.00
  -5  -1   0    3.70    1.50
  -5  -1   0    5.00    2.00
  -5  -1   0    3.80    0.60
  -5  -1   0    3.60    2.00
  -5  -1   0    6.50    2.10
  -5  -1   0    4.60    0.60
   5   1   0    4.40    2.00
   5   1   0    3.90    1.20
   5   1   0    5.10    2.60
   5   1   0    2.40    1.30
   5   1   0    3.10    1.90
   5   1   0    2.90    1.90
  -6  -1   0    5.50    2.40
  -6  -1   0    4.50    1.80
  -6  -1   0    4.10    2.30
   6   1   0    4.70    2.50
   6   1   0    2.90    1.30
   6   1   0   -0.80    1.90
   6   1   0    3.30    2.30
   6   1   0    1.40    1.60
  -7  -1   0  217.58    9.70
  -7  -1   0  217.98   11.40
  -7  -1   0  223.98    9.90
   7   1   0  226.98   13.00
   7   1   0  245.28   10.70
   7   1   0  211.78    9.60
   7   1   0  214.78   12.60
  -8  -1   0  567.44   18.90
  -8  -1   0  547.25   21.60
  -8  -1   0  562.94   18.80
   8   1   0  548.75   24.00
   8   1   0  535.45   19.10
   8   1   0  495.05   18.00
   8   1   0  550.04   24.20
  -9  -1   0   75.69    6.70
  -9  -1   0   80.99    6.60
   9   1   0   76.89    7.50
   9   1   0   66.19    6.10
   9   1   0   69.79    9.40
   9   1   0   80.69    9.50
 -10  -1   0    9.30    3.50
 -10  -1   0   13.00    4.10
  10   1   0    4.70    4.10
  10   1   0   11.60    3.60
  10   1   0    7.30    5.30
  10   1   0    9.60    5.20
 -11  -1   0   -0.90    2.90
  11   1   0   -3.40    4.90
  11   1   0    1.70    4.10
  11   1   0   -8.20    4.50
  10  -2   0   -1.60    5.80
   9  -2   0   -2.80    3.10
   9  -2   0    2.60    4.00
   9  -2   0  -12.10    5.60
   9  -2   0    2.80    2.90
  -9   2   0    0.80    3.70
  -9   2   0    2.90    4.10
   8  -2   0   13.60    3.90
   8  -2   0   15.10    5.70
   8  -2   0   15.20    4.30
   8  -2   0    9.50    6.60
  -8   2   0   16.60    4.00
  -8   2   0   14.50    4.40
   7  -2   0   89.19    7.10
   7  -2   0   93.49   11.90
   7  -2   0   98.79    7.70
   7  -2   0  115.99   12.50
  -7   2   0   87.29    7.40
  -7   2   0   90.49    7.00
   6  -2   0  174.08    9.10
   6  -2   0  188.78    9.10
   6  -2   0  183.48   13.50
   6  -2   0  191.78   15.70
  -6   2   0  181.68    9.30
  -6   2   0  192.68    9.80
  -6   2   0  187.48    7.50
   5  -2   0  164.18   10.90
   5  -2   0  168.18   13.70
   5  -2   0  185.88    8.70
   5  -2   0  169.38    8.10
  -5   2   0  167.48    7.10
  -5   2   0  165.78    8.20
  -5   2   0  179.38    8.50
  -5   2   0  163.18    6.50
  -5   2   0  164.08    9.80
   4  -2   0  271.77    9.30
   4  -2   0  271.47   10.00
   4  -2   0  253.97   10.00
   4  -2   0  270.37   17.20
   4  -2   0  271.47   13.40
  -4   2   0  268.77   12.20
  -4   2   0  296.07   10.70
  -4   2   0  280.47    9.80
  -4   2   0  278.77   11.70
  -4   2   0  266.07   10.20
  -4   2   0  278.87    8.70
   3  -2   0  511.45   15.40
   3  -2   0  568.44   15.90
   3  -2   0  545.85   20.30
   3  -2   0  535.45   16.00
   3  -2   0  540.85   27.00
   3  -2   0  543.65   15.70
  -3   2   0  531.25   16.30
  -3   2   0  549.74   15.70
  -3   2   0  550.04   18.20
  -3   2   0  544.15   18.90
  -3   2   0  536.45   15.80
  -3   2   0  538.15   16.00
   2  -2   0  268.27    8.80
   2  -2   0  273.87    8.90
   2  -2   0  278.57    9.30
   2  -2   0  282.97   10.50
   2  -2   0  272.77   11.40
   2  -2   0  270.67    8.70
   2  -2   0  264.57   15.00
   2  -2   0  274.57    8.90
  -2   2   0  285.87    8.80
  -2   2   0  270.77    9.70
  -2   2   0  262.67   11.20
  -2   2   0  283.27    8.90
  -2   2   0  263.37    9.00
  -2   2   0  271.27   10.70
  -2   2   0  273.07    9.20
  -2   2   0  280.37    9.50
   1  -2   0   18.20    1.90
   1  -2   0   19.30    1.80
   1  -2   0   22.00    2.70
   1  -2   0   15.20    2.70
   1  -2   0   14.70    1.80
   1  -2   0   16.10    1.90
   1  -2   0   15.00    1.90
   1  -2   0   17.30    1.70
  -1   2   0   17.90    1.70
  -1   2   0   15.30    1.90
  -1   2   0   12.50    2.10
  -1   2   0   21.50    2.20
  -1   2   0   13.40    1.90
  -1   2   0   20.00    2.40
  -1   2   0   19.60    2.00
  -1   2   0   15.10    2.60
   0  -2   0   78.19    3.20
   0  -2   0   79.79    3.30
   0  -2   0   83.79    4.30
   0  -2   0   84.99    5.90
   0  -2   0   85.09    3.50
   0  -2   0   76.39    3.40
   0  -2   0   77.89    3.90
   0  -2   0   87.69    3.80
   0   2   0   79.39    3.40
   0   2   0   81.09    5.70
   0   2   0   77.29    4.00
   0   2   0   80.09    3.20
   0   2   0   83.59    3.50
   0   2   0   82.99    3.20
   0   2   0   83.89    4.30
  -1  -2   0   41.20    2.60
  -1  -2   0   49.60    2.20
  -1  -2   0   42.50    2.20
  -1  -2   0   41.30    2.60
  -1  -2   0   45.00    2.40
  -1  -2   0   44.90    2.40
   1   2   0   44.70    2.20
   1   2   0   41.80    2.30
   1   2   0   41.90    2.70
   1   2   0   42.20    2.10
   1   2   0   44.50    2.50
   1   2   0   41.60    2.60
   1   2   0   44.40    4.00
  -2  -2   0  456.35   11.80
  -2  -2   0  458.65   12.20
  -2  -2   0  460.55   21.30
  -2  -2   0  456.85   12.30
  -2  -2   0  471.75   12.60
  -2  -2   0  460.65   11.80
  -2  -2   0  460.65   13.50
  -2  -2   0  465.75   15.30
   2   2   0  455.05   12.20
   2   2   0  470.15   11.80
   2   2   0  471.15   21.40
   2   2   0  443.96   15.20
   2   2   0  446.36   12.30
   2   2   0  471.15   13.60
   2   2   0  456.15   11.70
  -3  -2   0   18.40    1.70
  -3  -2   0   19.10    2.50
  -3  -2   0   21.10    1.70
  -3  -2   0   19.60    2.30
  -3  -2   0   18.40    1.80
  -3  -2   0   16.70    2.00
   3   2   0   14.80    2.60
   3   2   0   19.90    1.40
   3   2   0   19.60    2.30
   3   2   0   18.70    1.90
   3   2   0   18.10    1.60
   3   2   0   17.40    2.20
   3   2   0   21.30    2.10
  -4  -2   0  116.99    6.90
  -4  -2   0  110.59    4.80
  -4  -2   0  115.89    5.10
  -4  -2   0  112.99    4.60
  -4  -2   0  113.19    5.00
  -4  -2   0  115.99    5.40
  -4  -2   0  119.09    5.30
   4   2   0  107.99    5.40
   4   2   0  114.79    5.20
   4   2   0  113.99    6.40
   4   2   0  117.39    4.90
   4   2   0  119.09    4.80
   4   2   0  119.19    7.00
   4   2   0  113.69    4.90
  -5  -2   0  265.07    9.70
  -5  -2   0  271.97    9.30
  -5  -2   0  276.47    8.50
  -5  -2   0  266.17    9.40
  -5  -2   0  275.27   10.30
   5   2   0  278.67   10.00
   5   2   0  266.97    9.70
   5   2   0  268.07    9.80
   5   2   0  264.67   12.90
   5   2   0  279.87   12.20
   5   2   0  270.27    9.20
  -6  -2   0   64.39    4.40
  -6  -2   0   73.19    3.00
  -6  -2   0   68.89    5.10
  -6  -2   0   66.19    4.60
   6   2   0   81.29    6.90
   6   2   0   68.79    4.80
   6   2   0   70.49    6.70
   6   2   0   79.79    5.50
  -7  -2   0   59.39    5.40
  -7  -2   0   59.39    5.20
  -7  -2   0   60.49    4.70
   7   2   0   66.39    5.40
   7   2   0   61.89    5.10
   7   2   0   56.79    3.70
   7   2   0   52.69    6.20
   7   2   0   62.99    7.60
  -8  -2   0    3.90    2.90
  -8  -2   0    1.40    2.00
  -8  -2   0    4.30    2.30
   8   2   0   -2.40    3.40
   8   2   0    0.10    3.10
   8   2   0    2.60    1.50
   8   2   0   -2.60    2.70
   8   2   0    3.70    3.30
  -9  -2   0   10.80    3.90
  -9  -2   0   10.00    3.90
  -9  -2   0   11.50    3.70
   9   2   0    9.80    4.30
   9   2   0    6.30    4.00
   9   2   0    8.20    3.90
   9   2   0   11.90    3.70
 -10  -2   0   20.30    5.00
 -10  -2   0   17.10    4.20
  10   2   0    6.30    5.60
  10   2   0   20.90    5.20
  10   2   0    8.50    3.80
  10   2   0   17.70    6.50
 -11  -2   0    9.80    4.80
  11   2   0   -1.30    5.60
  11   2   0    8.90    6.80
  11   2   0   10.40    4.60
  11   2   0   12.50    4.20
  12   2   0   -7.20    3.60
  12   2   0  -17.20    6.80
   9  -3   0    4.30    4.70
   9  -3   0   -4.50    5.30
  -9   3   0   -2.40    2.40
   8  -3   0   20.50    4.40
   8  -3   0   19.30    6.80
   8  -3   0   23.00    6.80
   8  -3   0   21.80    4.70
  -8   3   0   21.70    4.80
  -8   3   0   19.70    5.40
   7  -3   0   -1.40    2.80
   7  -3   0   -3.10    5.10
   7  -3   0    0.30    3.50
   7  -3   0    0.80    2.90
  -7   3   0    8.20    3.90
  -7   3   0    1.20    2.50
   6  -3   0    1.10    3.80
   6  -3   0   -0.50    3.40
   6  -3   0    6.50    2.70
   6  -3   0    3.70    2.60
  -6   3   0    4.50    1.80
  -6   3   0    5.00    2.60
  -6   3   0    6.00    3.50
  -6   3   0    0.70    2.00
   5  -3   0   93.49   10.00
   5  -3   0   91.19    6.10
   5  -3   0   94.39    6.40
   5  -3   0   97.19    5.30
   5  -3   0   90.19   10.50
  -5   3   0   92.79    4.90
  -5   3   0   91.89    6.90
  -5   3   0   88.79    6.70
  -5   3   0   95.79    6.10
   4  -3   0    1.80    2.10
   4  -3   0   -1.20    3.10
   4  -3   0   -3.60    1.60
   4  -3   0   -0.70    1.00
   4  -3   0   -1.80    2.20
  -4   3   0   -0.70    1.40
  -4   3   0   -0.50    1.00
  -4   3   0    0.20    1.50
  -4   3   0   -1.30    1.60
  -4   3   0   -0.80    1.50
   3  -3   0   69.69    8.00
   3  -3   0   75.29    4.50
   3  -3   0   65.99    6.30
   3  -3   0   67.89    4.60
   3  -3   0   72.19    4.60
  -3   3   0   63.59    4.50
  -3   3   0   62.39    4.70
  -3   3   0   68.29    5.00
  -3   3   0   70.59    4.80
   2  -3   0   14.20    2.20
   2  -3   0   13.20    3.40
   2  -3   0   11.80    2.70
   2  -3   0   17.30    2.70
   2  -3   0   14.80    2.60
   2  -3   0   14.50    2.20
  -2   3   0   16.40    2.60
  -2   3   0   19.10    2.70
  -2   3   0   11.40    2.20
  -2   3   0   11.60    1.90
  -2   3   0   13.00    2.50
   1  -3   0   29.10    4.30
   1  -3   0   32.30    3.00
   1  -3   0   33.10    2.90
   1  -3   0   32.30    2.60
   1  -3   0   32.90    3.60
   1  -3   0   34.00    2.90
   1  -3   0   31.10    2.50
   1  -3   0   32.20    3.20
  -1   3   0   31.00    2.70
  -1   3   0   30.30    3.30
  -1   3   0   33.00    2.60
  -1   3   0   34.00    4.30
  -1   3   0   27.90    2.70
  -1   3   0   32.90    4.10
  -1   3   0   31.60    2.50
   0  -3   0   22.20    2.30
   0  -3   0   21.60    2.30
   0  -3   0   23.00    2.00
   0  -3   0   20.60    3.50
   0  -3   0   23.20    2.70
   0  -3   0   23.70    2.00
   0  -3   0   21.80    2.30
   0  -3   0   22.60    2.40
   0   3   0   21.60    3.80
   0   3   0   17.90    1.80
   0   3   0   19.70    2.50
   0   3   0   21.00    2.20
   0   3   0   20.30    2.70
   0   3   0   19.30    2.40
   0   3   0   23.20    2.30
  -1  -3   0   51.69    5.50
  -1  -3   0   57.99    3.20
  -1  -3   0   59.49    3.30
  -1  -3   0   60.19    3.10
  -1  -3   0   63.39    3.20
  -1  -3   0   59.49    3.90
   1   3   0   66.29    5.90
   1   3   0   62.59    3.60
   1   3   0   59.39    3.60
   1   3   0   59.89    3.60
   1   3   0   60.19    2.90
   1   3   0   63.39    3.00
   1   3   0   59.89    3.50
   1   3   0   62.09    3.90
  -2  -3   0   19.40    1.70
  -2  -3   0   21.20    2.00
  -2  -3   0   19.90    1.80
  -2  -3   0   19.40    2.20
  -2  -3   0   21.50    2.20
  -2  -3   0   20.70    2.40
  -2  -3   0   22.00    4.30
   2   3   0   11.00    3.20
   2   3   0   21.30    2.40
   2   3   0   22.00    2.00
   2   3   0   21.30    2.10
   2   3   0   20.20    2.40
   2   3   0   22.50    2.00
  -3  -3   0    1.40    1.00
  -3  -3   0    2.00    1.10
  -3  -3   0    0.80    0.60
  -3  -3   0    2.10    1.40
  -3  -3   0    0.40    1.10
  -3  -3   0   -0.30    1.30
  -3  -3   0    0.50    1.10
   3   3   0   -0.10    1.00
   3   3   0    0.00    1.40
   3   3   0    0.60    1.50
   3   3   0    1.60    1.40
   3   3   0    0.10    0.90
   3   3   0    2.80    1.40
   3   3   0   -0.20    1.70
  -4  -3   0  335.57   11.10
  -4  -3   0  342.17   10.90
  -4  -3   0  320.67   10.20
  -4  -3   0  327.27   10.30
  -4  -3   0  328.17   10.70
  -4  -3   0  337.77   10.20
  -4  -3   0  319.37   13.60
   4   3   0  334.47   10.10
   4   3   0  330.87   10.70
   4   3   0  332.77   10.90
   4   3   0  325.07   13.90
   4   3   0  333.37   11.20
   4   3   0  322.47   10.00
   4   3   0  336.37   18.10
   4   3   0  335.07   10.10
  -5  -3   0  426.66   13.00
  -5  -3   0  412.96   13.00
  -5  -3   0  423.76   13.70
  -5  -3   0  430.66   13.80
  -5  -3   0  458.85   13.70
   5   3   0  436.66   16.80
   5   3   0  456.05   13.90
   5   3   0  442.06   13.60
   5   3   0  462.15   13.10
   5   3   0  415.56   17.60
   5   3   0  418.96   13.90
  -6  -3   0    7.00    2.30
  -6  -3   0    5.90    2.00
  -6  -3   0    7.40    2.00
  -6  -3   0    6.90    1.40
   6   3   0    6.20    2.50
   6   3   0    6.70    2.50
   6   3   0    5.70    1.50
   6   3   0    6.30    2.80
   6   3   0    5.70    2.30
  -7  -3   0   -0.80    1.80
  -7  -3   0    0.70    0.90
  -7  -3   0    0.60    1.70
  -7  -3   0    0.10    1.60
   7   3   0    2.60    2.30
   7   3   0    0.60    2.30
   7   3   0    0.50    3.10
   7   3   0   -2.00    1.40
  -8  -3   0    4.90    2.30
  -8  -3   0    3.80    2.50
  -8  -3   0    7.20    3.30
  -8  -3   0    2.90    0.60
   8   3   0    1.80    2.80
   8   3   0    5.10    3.40
   8   3   0   -0.10    1.50
   8   3   0    1.70    2.20
   8   3   0    1.20    2.50
  -9  -3   0   -1.60    2.70
  -9  -3   0    4.10    3.60
  -9  -3   0   -0.50    2.50
   9   3   0   -0.70    2.30
   9   3   0   -3.10    2.50
   9   3   0   -2.40    3.60
   9   3   0   -2.50    3.40
 -10  -3   0   -2.80    1.70
 -10  -3   0   -3.00    3.00
  10   3   0    0.20    4.80
  10   3   0    1.40    3.00
  10   3   0    0.00    4.40
  10   3   0   -1.90    3.00
 -11  -3   0    2.50    4.20
 -11  -3   0    3.50    3.80
  11   3   0    1.60    4.30
  11   3   0   -2.00    5.00
  11   3   0    0.70    3.80
  11   3   0    3.10    2.60
 -12  -3   0    0.80    4.60
  12   3   0    0.70    4.90
  12   3   0   -7.70    5.60
  12   3   0    2.70    4.60
   8  -4   0    1.60    3.60
   8  -4   0   -5.40    4.70
   8  -4   0    7.10    3.60
   8  -4   0    1.60    4.50
  -8   4   0    3.50    4.20
  -8   4   0    2.40    3.40
   7  -4   0    8.00    5.30
   7  -4   0   14.10    4.40
   7  -4   0   13.50    4.50
   7  -4   0    3.80    5.10
  -7   4   0    9.30    3.70
  -7   4   0    7.30    4.20
   6  -4   0   43.60    8.80
   6  -4   0   63.99    6.70
   6  -4   0   61.29   10.20
   6  -4   0   63.89    6.50
  -6   4   0   60.79    6.30
  -6   4   0   47.50    6.30
  -6   4   0   52.19    4.40
   5  -4   0   32.10    4.60
   5  -4   0   28.70    4.60
   5  -4   0   24.20    6.30
   5  -4   0   29.40    6.60
  -5   4   0   20.70    4.10
  -5   4   0   30.20    4.70
  -5   4   0   25.50    3.30
  -5   4   0   25.50    4.10
   4  -4   0   52.89    5.30
   4  -4   0   52.59    5.10
   4  -4   0   54.79    8.60
   4  -4   0   51.29    7.10
  -4   4   0   56.09    5.30
  -4   4   0   51.09    5.60
  -4   4   0   55.39    5.60
  -4   4   0   52.29    4.90
   3  -4   0    7.80    2.30
   3  -4   0    4.40    2.30
   3  -4   0    7.60    3.90
   3  -4   0    6.40    3.30
  -3   4   0    7.30    2.70
  -3   4   0    6.00    2.40
  -3   4   0    7.10    2.10
  -3   4   0    5.90    2.20
   2  -4   0   12.70    2.40
   2  -4   0   11.70    2.60
   2  -4   0    8.50    2.80
   2  -4   0   13.90    3.90
  -2   4   0   14.20    2.70
  -2   4   0   14.10    3.20
  -2   4   0   12.20    2.90
  -2   4   0   10.40    2.00
   1  -4   0   64.09    7.40
   1  -4   0   63.09    4.00
   1  -4   0   65.29    4.00
   1  -4   0   57.09    5.10
  -1   4   0   58.99    5.00
  -1   4   0   60.29    4.30
  -1   4   0   65.39    4.30
   0  -4   0  132.79    7.40
   0  -4   0  141.19    6.20
   0  -4   0  131.69    5.60
   0  -4   0  146.29    6.00
   0  -4   0  127.49   10.30
   0  -4   0  142.09    7.10
   0  -4   0  132.99    6.60
   0   4   0  138.59    7.60
   0   4   0  133.79    6.10
   0   4   0  141.49    5.80
   0   4   0  124.09    6.30
   0   4   0  134.69    7.30
   0   4   0  127.29    9.70
  -1  -4   0  332.77   12.40
  -1  -4   0  336.67   18.60
  -1  -4   0  329.67   10.20
  -1  -4   0  326.87   10.70
  -1  -4   0  324.97   10.20
  -1  -4   0  352.66   10.80
  -1  -4   0  327.77   11.30
   1   4   0  333.27   12.00
   1   4   0  330.37   12.50
   1   4   0  337.57   12.70
   1   4   0  351.16   10.30
   1   4   0  329.07   10.80
   1   4   0  337.27   11.10
   1   4   0  360.66   18.80
   1   4   0  340.07   10.20
  -2  -4   0  171.78    7.60
  -2  -4   0  158.78    6.00
  -2  -4   0  166.58    7.70
  -2  -4   0  175.18    6.80
  -2  -4   0  132.59   11.50
  -2  -4   0  177.28    6.70
  -2  -4   0  164.28    6.30
   2   4   0  186.28   11.90
   2   4   0  165.18    6.20
   2   4   0  164.18    8.00
   2   4   0  175.28    7.00
   2   4   0  160.28    6.80
   2   4   0  167.48    7.80
   2   4   0  169.28    6.10
  -3  -4   0   21.80    2.90
  -3  -4   0   29.20    3.40
  -3  -4   0   34.00    6.50
  -3  -4   0   27.90    2.50
  -3  -4   0   23.60    2.80
  -3  -4   0   24.70    2.60
  -3  -4   0   28.20    2.70
   3   4   0   26.40    2.30
   3   4   0   18.00    2.90
   3   4   0   27.50    2.30
   3   4   0   19.60    3.00
   3   4   0   27.80    3.30
   3   4   0   26.30    3.10
   3   4   0   16.10    3.90
  -4  -4   0    3.40    1.80
  -4  -4   0    1.40    1.10
  -4  -4   0    0.90    0.70
  -4  -4   0    1.80    1.40
   4   4   0   -0.30    1.20
   4   4   0   -0.10    1.30
   4   4   0    1.20    1.50
   4   4   0    9.30    1.70
  -5  -4   0  139.99    6.80
  -5  -4   0  136.99    6.30
  -5  -4   0  141.29    6.20
  -5  -4   0  143.29    6.80
  -5  -4   0  156.28    5.70
   5   4   0  146.99    7.10
   5   4   0  143.59    9.30
   5   4   0  145.49    7.00
   5   4   0  145.99    6.80
  -6  -4   0  102.79    5.70
  -6  -4   0  108.09    5.70
  -6  -4   0  105.19    5.60
  -6  -4   0  104.19    5.10
   6   4   0  102.89    8.20
   6   4   0  108.89    6.40
   6   4   0  108.39    7.60
   6   4   0   99.39    6.40
   6   4   0  107.59    4.90
  -7  -4   0   -0.90    1.10
  -7  -4   0   -2.30    2.00
  -7  -4   0    1.80    1.60
  -7  -4   0    2.80    1.70
   7   4   0   -1.00    1.60
   7   4   0    3.70    3.00
   7   4   0   -0.30    1.10
   7   4   0   -1.70    2.20
   7   4   0   -0.10    2.30
  -8  -4   0   48.30    5.00
  -8  -4   0   42.10    3.30
  -8  -4   0   46.50    4.40
  -8  -4   0   50.99    5.40
   8   4   0   46.50    6.40
   8   4   0   38.90    5.20
   8   4   0   51.39    5.60
   8   4   0   33.30    6.40
  -9  -4   0    0.60    2.10
  -9  -4   0   -1.20    2.20
  -9  -4   0    1.40    2.50
   9   4   0   -0.60    2.30
   9   4   0    0.90    3.50
   9   4   0   -0.70    3.00
   9   4   0   -4.50    3.00
 -10  -4   0    5.40    3.80
 -10  -4   0   -1.10    2.50
 -10  -4   0    5.10    2.70
  10   4   0    1.50    3.50
  10   4   0    4.50    4.60
  10   4   0    7.50    3.90
  10   4   0   -0.10    3.70
 -11  -4   0    0.80    2.60
 -11  -4   0    6.60    4.30
  11   4   0    1.90    3.60
  11   4   0   -3.60    3.10
  11   4   0    5.00    4.00
  11   4   0   -2.30    5.50
 -12  -4   0   -2.20    2.80
  12   4   0   -2.70    5.40
  12   4   0    5.20    4.70
  12   4   0   -9.60    5.40
  13   4   0   -6.40    5.10
   7  -5   0   -5.80    6.30
   7  -5   0    4.40    5.80
   7  -5   0    0.80    2.70
   7  -5   0    3.60    3.10
  -7   5   0   -1.10    3.90
  -7   5   0    1.30    3.70
   6  -5   0   -2.60    2.90
   6  -5   0   -3.50    5.70
   6  -5   0   -0.90    2.40
   6  -5   0   -3.60    3.50
  -6   5   0   -1.90    2.30
  -6   5   0   -2.00    3.50
   5  -5   0   -2.70    4.60
   5  -5   0    4.80    3.40
   5  -5   0    3.00    4.40
   5  -5   0    4.50    2.60
  -5   5   0    1.40    1.90
  -5   5   0    8.70    3.80
  -5   5   0   -0.50    2.90
  -5   5   0    0.70    3.40
   4  -5   0   92.69    6.90
   4  -5   0   99.69   10.80
   4  -5   0   99.09   11.80
   4  -5   0   87.49    6.60
  -4   5   0   98.49    7.20
  -4   5   0   91.59    7.20
  -4   5   0   92.89    7.40
   3  -5   0   24.50    5.70
   3  -5   0   15.80    4.90
   3  -5   0   22.50    3.70
   3  -5   0   31.50    4.50
  -3   5   0   20.90    4.10
  -3   5   0   32.50    4.70
  -3   5   0   22.90    4.40
  -3   5   0   18.70    3.00
   2  -5   0   90.19    5.60
   2  -5   0   94.19   10.20
   2  -5   0   88.59    6.00
   2  -5   0   97.69    7.80
  -2   5   0   85.29    6.30
  -2   5   0   98.49    5.50
  -2   5   0   85.79    6.40
  -2   5   0   86.79    6.60
   1  -5   0   48.70    4.30
   1  -5   0   52.89    7.50
   1  -5   0   43.10    3.80
   1  -5   0   41.80    5.70
  -1   5   0   54.49    5.50
  -1   5   0   43.20    4.60
  -1   5   0   45.50    4.50
   0  -5   0   53.19    3.80
   0  -5   0   56.89    7.60
   0  -5   0   49.40    4.10
   0  -5   0   54.49    5.40
   0   5   0   63.69    5.30
   0   5   0   61.09    4.80
   0   5   0   54.39    4.40
   0   5   0   53.49    3.80
  -1  -5   0    2.30    1.40
  -1  -5   0    4.80    2.00
  -1  -5   0    5.70    1.60
   1   5   0    2.60    1.80
   1   5   0    4.60    1.60
   1   5   0    2.40    2.20
   1   5   0    5.00    1.80
  -2  -5   0  711.03   21.10
  -2  -5   0  696.83   19.20
  -2  -5   0  713.43   19.30
   2   5   0  703.43   20.40
   2   5   0  701.43   20.30
   2   5   0  710.43   23.50
   2   5   0  710.93   23.50
   2   5   0  686.33   23.00
  -3  -5   0  110.09    5.20
  -3  -5   0  125.69   12.10
  -3  -5   0  104.69    5.20
  -3  -5   0  109.79    6.60
   3   5   0  107.09    6.10
   3   5   0  100.29    6.50
   3   5   0   94.69    6.60
  -4  -5   0   55.19    3.80
  -4  -5   0   48.00    7.30
  -4  -5   0   56.79    2.80
  -4  -5   0   52.19    4.00
   4   5   0   62.09    5.80
   4   5   0   57.39    5.20
   4   5   0   50.39    4.50
   4   5   0   50.09    4.30
  -5  -5   0   13.30    2.50
  -5  -5   0   20.60    3.10
  -5  -5   0   17.10    1.70
   5   5   0    8.90    2.30
   5   5   0   15.30    3.10
   5   5   0   12.30    3.40
   5   5   0   15.90    3.30
  -6  -5   0   -0.30    0.90
  -6  -5   0    2.60    1.90
  -6  -5   0    2.50    2.20
   6   5   0   -0.80    2.30
   6   5   0    1.00    2.20
   6   5   0   -2.60    2.30
  -7  -5   0   26.30    2.90
  -7  -5   0   24.40    3.50
  -7  -5   0   27.90    4.20
   7   5   0   27.40    4.50
   7   5   0   24.90    4.40
   7   5   0   23.40    4.20
   7   5   0   24.40    5.00
  -8  -5   0   30.10    4.30
  -8  -5   0   27.40    3.70
  -8  -5   0   37.20    4.70
  -8  -5   0   38.20    3.80
   8   5   0   40.00    5.60
   8   5   0   23.80    4.80
   8   5   0   33.20    4.80
   8   5   0   29.50    6.60
  -9  -5   0   57.49    5.10
  -9  -5   0   58.19    5.60
  -9  -5   0   67.59    6.30
   9   5   0   60.59    5.90
   9   5   0   63.59    7.10
   9   5   0   58.49    7.20
   9   5   0   47.10    7.70
 -10  -5   0    5.20    2.80
 -10  -5   0    1.00    3.40
 -10  -5   0    4.60    3.20
  10   5   0    3.70    4.00
  10   5   0    2.20    2.80
  10   5   0    1.30    3.40
  10   5   0    6.00    4.50
 -11  -5   0   -2.50    3.50
 -11  -5   0   -5.40    2.80
  11   5   0    2.60    5.00
  11   5   0   -4.60    5.20
  11   5   0   -1.10    3.60
  11   5   0   -2.60    2.40
 -12  -5   0   -0.40    4.40
  12   5   0   -4.40    4.70
  12   5   0   -1.00    2.70
  12   5   0  -12.30    5.30
  13   5   0   -6.20    6.10
   7  -6   0    2.50    3.90
   6  -6   0    8.40    5.70
   6  -6   0    4.90    5.70
   6  -6   0   24.20    5.20
   6  -6   0   18.20    5.30
  -6   6   0   12.50    5.20
  -6   6   0   16.30    4.80
   5  -6   0    7.30    4.00
   5  -6   0    0.10    4.50
   5  -6   0    3.00    4.60
   5  -6   0    4.70    2.90
  -5   6   0   12.00    4.70
  -5   6   0   11.00    4.50
   4  -6   0    0.10    3.90
   4  -6   0    5.60    3.50
   4  -6   0    8.00    3.00
   4  -6   0   -0.70    5.00
  -4   6   0    0.50    2.50
  -4   6   0    3.50    2.70
  -4   6   0    0.70    2.90
   3  -6   0  108.59    9.90
   3  -6   0  106.79    7.50
   3  -6   0   97.29    7.50
   3  -6   0  108.69   12.70
  -3   6   0  103.89    8.60
  -3   6   0  102.69    8.10
  -3   6   0  100.39    7.90
   2  -6   0   16.10    4.90
   2  -6   0   22.80    4.20
   2  -6   0   13.10    5.10
   2  -6   0   28.10    4.40
  -2   6   0   17.40    2.90
  -2   6   0   31.50    5.10
  -2   6   0   22.50    4.10
  -2   6   0   18.40    4.30
   1  -6   0   17.80    3.20
   1  -6   0    8.20    4.30
   1  -6   0   15.20    2.90
   1  -6   0   16.80    4.40
  -1   6   0   12.90    2.20
  -1   6   0   16.50    3.90
  -1   6   0   10.20    3.40
  -1   6   0   10.50    3.20
   0  -6   0  158.18    9.40
   0  -6   0  178.58   14.40
   0  -6   0  164.88    7.90
   0  -6   0  163.08    7.70
   0   6   0  170.88   10.20
   0   6   0  166.58    7.70
   0   6   0  174.28    8.90
   0   6   0  173.58    8.60
  -1  -6   0  301.87   10.90
  -1  -6   0  294.07   10.70
  -1  -6   0  287.77   20.20
   1   6   0  296.07   13.60
   1   6   0  318.17   12.30
   1   6   0  307.47   12.10
   1   6   0  297.67   11.70
  -2  -6   0   27.90    3.50
  -2  -6   0   25.10    2.90
  -2  -6   0   21.30    6.70
  -2  -6   0   25.50    3.40
   2   6   0   16.10    3.80
   2   6   0   23.70    3.70
   2   6   0   19.20    3.60
   2   6   0   24.50    3.50
  -3  -6   0  148.89    6.90
  -3  -6   0  146.59    6.70
  -3  -6   0  148.79   15.20
  -3  -6   0  142.69    6.30
   3   6   0  142.29    7.40
   3   6   0  142.99    8.50
   3   6   0  141.69    7.90
   3   6   0  145.09    8.70
  -4  -6   0   14.90    2.60
  -4  -6   0   19.90    2.90
  -4  -6   0   17.30    5.40
  -4  -6   0   25.20    3.10
   4   6   0   20.60    3.70
   4   6   0   13.90    3.40
   4   6   0   17.20    3.20
   4   6   0   21.40    3.60
  -5  -6   0    0.40    0.80
  -5  -6   0    1.50    1.50
  -5  -6   0    4.10    2.20
   5   6   0    1.00    1.80
   5   6   0    2.50    2.40
   5   6   0    2.80    2.60
   5   6   0   -0.20    2.00
  -6  -6   0   87.89    3.80
  -6  -6   0   88.29    5.40
  -6  -6   0   91.59    6.00
   6   6   0   82.49    6.20
   6   6   0   83.59    5.90
   6   6   0   86.49    6.50
   6   6   0   89.59    8.00
  -7  -6   0   -0.50    2.60
  -7  -6   0   -0.70    0.90
  -7  -6   0   -0.10    2.20
   7   6   0   -4.00    3.00
   7   6   0    1.30    2.20
   7   6   0   -1.30    2.20
   7   6   0   -1.40    1.80
  -8  -6   0   15.10    3.50
  -8  -6   0   16.70    2.60
  -8  -6   0   17.40    3.70
   8   6   0   14.40    4.10
   8   6   0   12.60    4.20
   8   6   0   18.80    5.20
   8   6   0   20.80    4.50
  -9  -6   0    1.10    2.30
  -9  -6   0   -4.80    2.20
  -9  -6   0   -0.60    1.50
   9   6   0   -0.10    2.90
   9   6   0    1.00    3.00
   9   6   0   -3.00    1.90
   9   6   0    0.80    3.30
 -10  -6   0    7.00    3.60
 -10  -6   0   -0.30    3.30
  10   6   0    1.60    3.40
  10   6   0    2.00    3.50
  10   6   0    3.20    5.00
  10   6   0    7.60    4.50
 -11  -6   0   12.40    4.00
 -11  -6   0   12.00    3.90
  11   6   0    6.00    4.40
  11   6   0    9.00    6.60
  11   6   0    9.70    4.40
  11   6   0    2.80    4.40
 -12  -6   0   -5.90    4.00
  12   6   0    0.50    4.90
  12   6   0    0.10    5.00
  12   6   0    0.20    3.10
  13   6   0   -6.50    5.60
   6  -7   0    6.00    4.00
   6  -7   0    3.50    4.50
  -6   7   0   10.30    4.60
   5  -7   0    2.40    3.70
   5  -7   0    9.50    4.60
   5  -7   0    3.30    5.10
   5  -7   0   -2.00    6.10
  -5   7   0   -2.30    3.50
  -5   7   0   -0.90    2.70
   4  -7   0   17.10    5.70
   4  -7   0   31.30    5.40
   4  -7   0   14.00    6.40
   4  -7   0   22.10    5.20
  -4   7   0   26.10    6.20
  -4   7   0   24.30    5.80
  -4   7   0   23.20    5.30
   3  -7   0   12.30    5.80
   3  -7   0   -1.90    3.90
   3  -7   0    1.60    3.20
   3  -7   0    2.50    2.50
  -3   7   0   -4.00    1.80
  -3   7   0   -1.80    3.00
  -3   7   0    1.30    3.60
   2  -7   0    8.80    3.10
   2  -7   0    8.20    3.80
   2  -7   0   17.80    3.90
   2  -7   0    4.40    3.70
  -2   7   0   -1.50    2.90
  -2   7   0    4.30    3.60
  -2   7   0    6.40    3.60
   1  -7   0  224.98   10.50
   1  -7   0  234.38   18.70
   1  -7   0  274.27   14.70
   1  -7   0  249.58   11.00
  -1   7   0  261.77   14.20
  -1   7   0  249.78   12.10
  -1   7   0  248.58   12.30
  -1   7   0  235.78    9.90
   0  -7   0   80.59    5.70
   0  -7   0   80.89    6.20
   0  -7   0   83.59   12.20
   0   7   0   65.99    6.30
   0   7   0   75.89    7.50
   0   7   0   77.69    6.30
   0   7   0   76.49    5.20
  -2  -7   0  171.78   16.40
  -2  -7   0  107.39    6.40
  -2  -7   0  124.39    6.60
   2   7   0  121.39    7.50
   2   7   0  121.49    7.40
   2   7   0  127.09    7.80
   2   7   0  123.09    9.30
  -3  -7   0  145.79    6.40
  -3  -7   0  147.29    7.10
  -3  -7   0  153.28    7.30
  -3  -7   0  143.09   15.20
  -3  -7   0  155.78    7.80
   3   7   0  153.88    8.70
   3   7   0  148.99    8.20
   3   7   0  162.68   10.40
   3   7   0  142.99    8.80
  -4  -7   0    8.70    2.40
  -4  -7   0    6.90    2.60
  -4  -7   0    3.50    2.50
  -4  -7   0    5.70    4.50
  -4  -7   0    7.30    1.70
   4   7   0    5.20    2.50
   4   7   0   10.70    3.00
   4   7   0    7.30    2.90
   4   7   0    6.60    2.90
  -5  -7   0   33.90    2.60
  -5  -7   0   39.50    3.80
  -5  -7   0   28.40    7.80
  -5  -7   0   38.80    4.00
   5   7   0   32.40    4.90
   5   7   0   34.20    4.70
   5   7   0   30.70    4.70
   5   7   0   39.20    5.30
  -6  -7   0    3.50    0.90
  -6  -7   0    1.90    2.00
  -6  -7   0    3.10    2.50
   6   7   0    7.10    3.70
   6   7   0   -0.50    2.70
   6   7   0    6.90    3.30
  -7  -7   0  191.88    9.00
  -7  -7   0  167.18    5.90
  -7  -7   0  161.18    8.50
   7   7   0  159.48    9.90
   7   7   0  184.58   10.00
   7   7   0  165.38   12.60
   7   7   0  179.28   10.30
  -8  -7   0   47.90    5.80
  -8  -7   0   54.09    5.60
  -8  -7   0   42.90    3.00
   8   7   0   50.59    6.40
   8   7   0   48.00    5.90
   8   7   0   46.90    7.40
   8   7   0   49.30    6.20
  -9  -7   0   11.20    4.10
  -9  -7   0   15.20    3.60
   9   7   0   12.00    4.00
   9   7   0   19.90    4.40
   9   7   0   14.30    5.10
   9   7   0   12.60    4.30
 -10  -7   0    0.70    2.20
 -10  -7   0   -4.30    3.00
  10   7   0    2.20    3.00
  10   7   0   -1.90    3.30
  10   7   0    5.20    3.60
  10   7   0   -5.10    3.00
 -11  -7   0    0.30    2.60
 -11  -7   0    0.20    3.50
  11   7   0    0.20    2.80
  11   7   0    7.60    6.40
  11   7   0    1.20    3.80
  11   7   0    0.20    3.60
 -12  -7   0   -3.60    3.60
  12   7   0    7.50    4.80
  12   7   0    2.80    4.50
  12   7   0   -4.80    6.10
   5  -8   0   -5.70    2.80
   5  -8   0    2.30    4.30
  -5   8   0   -7.20    4.10
   4  -8   0   -2.70    2.20
   4  -8   0   -1.90    3.80
   4  -8   0   -6.20    5.10
   4  -8   0    4.00    5.30
  -4   8   0   -2.70    3.80
  -4   8   0    0.70    3.10
   3  -8   0   65.79    7.80
   3  -8   0   51.79    8.20
   3  -8   0   40.10   10.30
   3  -8   0   71.69    7.50
  -3   8   0   46.50    7.50
  -3   8   0   53.09    7.80
  -3   8   0   62.49    8.50
   2  -8   0   11.20    6.40
   2  -8   0   19.10    4.20
   2  -8   0   24.70    5.70
   2  -8   0   14.60    3.90
  -2   8   0   19.70    5.20
  -2   8   0   18.80    4.60
  -2   8   0   11.60    5.30
   1  -8   0   59.09    5.80
   1  -8   0   37.10    8.10
   1  -8   0   44.80    6.00
   1  -8   0   47.60    7.10
  -1   8   0   43.60    6.60
  -1   8   0   37.10    6.80
  -1   8   0   54.49    7.50
   0  -8   0   -1.60    1.90
   0  -8   0    0.70    2.90
   0  -8   0   11.20    6.60
   0   8   0    0.40    1.50
   0   8   0   -1.30    3.20
   0   8   0   -5.30    3.20
   0   8   0    1.10    2.40
  -2  -8   0   26.10   11.80
  -2  -8   0    2.60    2.20
  -2  -8   0    0.80    1.90
   2   8   0    1.20    2.20
   2   8   0    3.60    2.60
   2   8   0   -0.70    2.40
   2   8   0   -2.70    2.70
  -3  -8   0    3.70    1.90
  -3  -8   0    8.70   11.00
  -3  -8   0    3.90    2.20
  -3  -8   0    1.50    2.50
   3   8   0    5.60    3.90
   3   8   0    6.50    2.60
   3   8   0    1.10    3.10
   3   8   0    1.80    2.30
  -4  -8   0  -11.20    6.70
  -4  -8   0   -2.00    1.20
  -4  -8   0    2.60    2.00
  -4  -8   0    0.20    1.70
  -4  -8   0   -2.20    2.50
   4   8   0    3.20    3.40
   4   8   0    0.10    2.10
   4   8   0    1.90    2.40
  -5  -8   0  113.39   14.00
  -5  -8   0  104.89    6.70
  -5  -8   0  114.69    6.80
  -5  -8   0  113.19    5.40
   5   8   0  127.09    9.30
   5   8   0  109.49    7.50
   5   8   0  106.89    8.90
   5   8   0  125.99    8.70
  -6  -8   0   15.40    3.20
  -6  -8   0   18.10    1.90
  -6  -8   0   24.20    4.50
   6   8   0   20.60    4.80
   6   8   0   16.50    3.90
   6   8   0   16.40    3.90
   6   8   0   20.70    4.60
  -7  -8   0   51.59    5.50
  -7  -8   0   61.69    5.60
   7   8   0   53.39    6.60
   7   8   0   45.00    7.00
   7   8   0   51.69    6.80
   7   8   0   63.69    6.90
  -8  -8   0    7.30    3.20
  -8  -8   0    8.70    3.80
   8   8   0    1.50    3.60
   8   8   0    6.20    3.80
   8   8   0    5.00    3.00
  -9  -8   0    0.10    3.00
  -9  -8   0   -2.70    3.20
   9   8   0    5.40    3.10
   9   8   0    0.60    3.30
   9   8   0    0.40    3.30
   9   8   0   -1.60    3.30
 -10  -8   0    1.10    3.40
 -10  -8   0   -3.40    3.10
  10   8   0    4.30    5.30
  10   8   0    5.70    3.70
  10   8   0    3.10    3.70
  10   8   0    2.10    3.00
 -11  -8   0   -0.80    2.80
 -11  -8   0    2.10    3.80
  11   8   0   -1.40    3.80
  11   8   0    0.80    3.00
  11   8   0    4.20    6.30
  11   8   0    6.70    4.00
 -12  -8   0   25.60    6.30
  12   8   0    1.50    7.20
  12   8   0   22.40    6.20
  12   8   0   18.40    5.80
   4  -9   0   10.90    5.10
  -4   9   0   16.00    6.50
   3  -9   0   16.90    4.90
   3  -9   0   14.50    4.50
   3  -9   0   18.30    6.00
  -3   9   0    0.50    5.00
  -3   9   0   10.20    5.30
  -3   9   0   19.50    5.70
   2  -9   0   52.39    6.70
   2  -9   0   30.70   10.20
   2  -9   0   33.00    5.70
  -2   9   0   45.80    8.10
  -2   9   0   38.80    6.50
  -2   9   0   46.10    7.50
   1  -9   0   -4.60    6.10
   1  -9   0   -2.20    2.20
   1  -9   0   -0.80    3.50
  -1   9   0   -6.70    3.70
  -1   9   0   -3.70    3.20
  -1   9   0   -3.80    3.50
   0  -9   0   16.40   10.70
   0  -9   0    8.70    3.90
   0  -9   0    8.10    3.20
   0   9   0   -2.70    4.10
   0   9   0    5.30    3.30
   0   9   0   -0.40    3.60
  -1  -9   0   17.30    4.40
  -1  -9   0    0.50    9.20
  -1  -9   0   13.30    3.60
   1   9   0   13.20    4.00
   1   9   0   14.60    4.70
   1   9   0   16.70    4.40
  -2  -9   0   18.10    4.10
  -2  -9   0   17.70   13.80
  -2  -9   0   11.10    3.80
   2   9   0   13.40    3.30
   2   9   0   18.60    4.40
   2   9   0   16.30    4.70
   2   9   0   18.30    4.50
  -3  -9   0   24.30   11.10
  -3  -9   0    2.90    2.20
  -3  -9   0    2.80    2.90
  -3  -9   0    1.10    2.30
   3   9   0   -1.10    2.30
   3   9   0    3.00    2.40
   3   9   0    0.60    2.90
   3   9   0   -2.10    3.80
  -4  -9   0   96.79    7.10
  -4  -9   0   86.49    7.10
  -4  -9   0   82.69   14.30
  -4  -9   0   88.49    5.60
   4   9   0   82.19    8.80
   4   9   0   79.99    7.10
   4   9   0   74.89    7.60
   4   9   0   94.49    8.40
  -5  -9   0  199.88   10.40
  -5  -9   0  212.58   10.30
  -5  -9   0  200.48   19.50
   5   9   0  207.98   11.20
   5   9   0  195.68   13.60
   5   9   0  202.38   12.90
   5   9   0  194.68   11.30
  -6  -9   0   77.99    6.40
  -6  -9   0   85.49   16.30
  -6  -9   0   75.09    6.10
   6   9   0   92.49    9.00
   6   9   0   71.39    7.20
   6   9   0   80.49    8.90
   6   9   0   88.99    7.40
  -7  -9   0   27.80    4.70
  -7  -9   0   19.70    4.30
   7   9   0   21.20    5.20
   7   9   0   20.80    5.20
   7   9   0   17.20    5.40
  -8  -9   0    8.70    3.30
  -8  -9   0    4.00    2.60
   8   9   0    8.30    3.70
   8   9   0    8.40    4.10
   8   9   0   -1.80    3.20
  -9  -9   0   20.50    4.40
  -9  -9   0   11.70    3.50
   9   9   0   27.60    5.50
   9   9   0   23.10    4.90
   9   9   0   26.90    5.80
   9   9   0    5.60    5.10
 -10  -9   0   -1.70    2.40
 -10  -9   0   -2.10    3.50
  10   9   0    1.50    5.60
  10   9   0   -1.40    3.70
  10   9   0    2.50    2.90
  10   9   0    3.40    4.40
 -11  -9   0   -5.60    3.30
 -11  -9   0   -2.70    3.90
  11   9   0    0.00    3.20
  11   9   0    0.80    3.20
  11   9   0   -3.40    3.90
  11   9   0   -4.30    5.80
 -12  -9   0   17.90    5.90
  12   9   0   25.70    7.10
  12   9   0   19.50    8.90
   3 -10   0    1.50    4.40
  -3  10   0    2.40    5.90
   2 -10   0   -1.90    3.00
   2 -10   0  -24.40   11.90
   2 -10   0    3.30    3.40
  -2  10   0    1.60    4.60
  -2  10   0    4.80    3.90
  -2  10   0   -5.00    4.80
   1 -10   0    4.50    4.20
   1 -10   0  -30.30   13.90
   1 -10   0   -4.40    3.60
  -1  10   0   -1.20    3.60
  -1  10   0    4.10    3.80
  -1  10   0    6.60    3.90
  -1 -10   0    2.80    3.60
  -1 -10   0    3.00    2.90
  -1 -10   0   -9.00   15.60
   1  10   0    3.80    4.10
   1  10   0    3.60    3.40
   1  10   0   -0.90    5.00
  -2 -10   0    2.00    3.70
  -2 -10   0  -13.40   15.10
  -2 -10   0    7.20    3.80
   2  10   0    3.50    5.10
   2  10   0   -3.20    3.60
   2  10   0    2.20    3.90
  -3 -10   0  -16.80   13.10
  -3 -10   0    7.80    3.70
  -3 -10   0   -1.00    3.20
   3  10   0    3.10    2.50
   3  10   0    4.00    3.90
   3  10   0    5.30    5.20
   3  10   0   -0.20    3.80
  -4 -10   0   14.90    9.60
  -4 -10   0   13.00    3.50
  -4 -10   0   14.70    4.40
   4  10   0   10.70    3.60
   4  10   0   18.20    4.50
   4  10   0   11.40    4.80
   4  10   0   13.20    5.00
  -5 -10   0   24.50    9.80
  -5 -10   0   16.30    4.00
  -5 -10   0   22.90    4.80
   5  10   0   13.20    5.20
   5  10   0   14.60    4.40
   5  10   0   12.00    4.80
   5  10   0   13.90    4.30
  -6 -10   0   -2.20    2.70
  -6 -10   0    4.00    3.60
  -6 -10   0    2.70    6.50
   6  10   0   -7.10    3.60
   6  10   0    1.10    3.50
   6  10   0   -3.10    2.20
   6  10   0   -2.10    2.40
  -7 -10   0   -0.30    3.10
  -7 -10   0   -0.60    3.50
   7  10   0    0.10    2.70
   7  10   0    2.70    4.30
   7  10   0   -5.30    3.10
   7  10   0   -3.50    3.50
  -8 -10   0    0.30    2.70
  -8 -10   0   -0.30    2.10
   8  10   0   -0.70    2.80
   8  10   0    0.10    3.60
   8  10   0   -4.10    3.30
  -9 -10   0    5.00    2.90
  -9 -10   0   -0.30    2.70
   9  10   0    0.80    3.10
   9  10   0    1.50    4.70
   9  10   0    4.00    4.40
 -10 -10   0   22.20    5.80
 -10 -10   0   25.80    5.70
  10  10   0   18.10    7.20
  10  10   0   31.10    6.80
  10  10   0   19.90    5.90
 -11 -10   0    7.50    4.10
 -11 -10   0    6.10    4.40
  11  10   0    1.60    3.70
  11  10   0    4.60    6.90
  11  10   0    3.00    4.00
   1 -11   0    2.00    5.30
   1 -11   0    1.80    4.60
  -1  11   0  -13.40    5.60
  -1  11   0    1.70    3.90
  -1 -11   0   -0.50    2.90
  -1 -11   0    4.70    4.30
  -1 -11   0  -15.00   20.10
   1  11   0    4.30    4.80
   1  11   0   -3.90    3.40
   1  11   0    2.70    4.50
  -2 -11   0   14.20    4.90
  -2 -11   0   56.29   24.20
  -2 -11   0   25.50    5.80
   2  11   0   13.50    6.00
   2  11   0   14.00    5.70
   2  11   0   13.00    5.70
  -4 -11   0    2.60    4.00
  -4 -11   0   -0.20    2.30
  -4 -11   0  -26.30   10.80
   4  11   0   -2.70    3.70
   4  11   0   -8.40    4.20
   4  11   0   -1.40    2.70
  -5 -11   0    2.00    8.10
  -5 -11   0    6.20    4.30
  -5 -11   0    9.70    4.40
   5  11   0    8.00    4.10
   5  11   0    8.70    5.20
   5  11   0    4.50    4.70
   5  11   0    7.90    4.30
  -6 -11   0   -2.40    2.30
  -6 -11   0    0.90    2.90
  -6 -11   0  -15.00    9.20
   6  11   0    1.40    4.10
   6  11   0   -1.50    3.60
   6  11   0   -5.00    3.70
   6  11   0   -3.40    3.40
  -7 -11   0    2.20    3.90
  -7 -11   0    8.50    4.30
   7  11   0    4.30    3.80
   7  11   0   -2.00    5.20
   7  11   0   10.60    5.20
   7  11   0    7.70    4.70
  -8 -11   0    8.40    3.70
  -8 -11   0    4.90    3.90
   8  11   0    2.90    5.00
   8  11   0    2.10    4.40
   8  11   0    2.00    3.40
  -9 -11   0    3.40    4.40
  -9 -11   0    5.70    3.30
   9  11   0   -1.10    3.10
   9  11   0   -1.70    2.90
   9  11   0    0.70    4.50
 -10 -11   0    1.70    4.40
 -10 -11   0   -5.20    3.10
  10  11   0    3.70    4.80
  10  11   0    1.00    3.60
  10  11   0   -3.30    5.90
 -11 -11   0    1.40    5.30
  11  11   0    4.10    4.10
  11  11   0   -1.80    4.90
  11  11   0   -2.90    3.50
  -1 -12   0    3.00    5.00
  -1 -12   0    2.70    4.60
   1  12   0   -4.20    6.80
   1  12   0    3.00    4.40
   1  12   0    5.90    5.80
  -2 -12   0    5.60    4.80
  -2 -12   0    3.30    4.60
   2  12   0   -4.50    4.80
   2  12   0    1.50    3.90
   2  12   0  -11.70    6.30
  -3 -12   0   -1.90    3.80
  -3 -12   0   18.70   17.70
  -3 -12   0   -3.90    4.00
   3  12   0   -1.70    6.60
   3  12   0   -6.00    3.90
   3  12   0   -0.90    3.80
  -4 -12   0   19.80    5.60
  -4 -12   0   33.50   13.60
  -4 -12   0    9.70    3.80
   4  12   0   19.30    5.90
   4  12   0    0.40    6.90
  -5 -12   0   -1.40    4.10
  -5 -12   0   -2.50    3.80
  -5 -12   0    5.30   11.40
   5  12   0   -5.60    3.70
   5  12   0    2.80    3.60
   5  12   0   -4.00    4.80
  -6 -12   0    3.10    4.30
  -6 -12   0    4.50    4.60
  -6 -12   0    9.80   11.70
   6  12   0    2.40    4.90
   6  12   0   12.50    5.80
   6  12   0    5.00    4.00
  -7 -12   0    3.20    4.30
  -7 -12   0    2.00    4.30
   7  12   0   -1.10    4.80
   7  12   0   -2.60    4.80
   7  12   0    0.10    4.10
   7  12   0    7.80    4.60
  -8 -12   0    3.60    3.90
  -8 -12   0    0.80    3.10
   8  12   0   -5.10    4.30
   8  12   0   12.50    5.70
  -9 -12   0   12.00    5.30
  -9 -12   0    1.90    4.10
   9  12   0   -3.10    5.40
   9  12   0    3.80    5.90
   9  12   0    5.70    5.10
  10  12   0    0.90    6.30
  10  12   0   15.70    6.90
  10  12   0   -1.00    3.60
   3  13   0   -1.30    6.20
  -4 -13   0   -0.50    3.70
  -4 -13   0    2.30    5.00
   4  13   0   10.10    7.10
  -5 -13   0    5.10    4.10
  -5 -13   0    2.10    5.00
  -5 -13   0    5.60    9.80
   5  13   0    3.50    4.90
   5  13   0   -1.30    3.80
  -6 -13   0   -5.70    4.10
  -6 -13   0   -1.90    4.70
  -6 -13   0   22.20   11.00
   6  13   0   12.90    6.70
   6  13   0    7.10    4.50
  -7 -13   0   -3.10    4.30
  -7 -13   0    7.10    5.70
   7  13   0    7.50    5.20
   7  13   0    7.30    5.80
  -8 -13   0   13.80    5.70
   8  13   0   14.10    6.50
  -9 -13   0   11.40    4.70
   9  13   0   20.60    7.40
   9  13   0   -9.00    6.00
   9  13  -1   -7.10    3.40
   8  13  -1   -7.90    4.10
   8  13  -1    0.70    5.20
   7  13  -1   16.80    6.70
  -7 -13   1   -1.20    4.30
   6  13  -1   20.20    6.70
   6  13  -1    7.80    7.70
  -6 -13   1    8.90    5.50
   5  13  -1   22.10    7.30
   5  13  -1   24.30    7.40
  -5 -13   1   64.99   18.10
  -5 -13   1   23.90    6.50
  -4 -13   1    2.10    3.90
  -3 -13   1    6.00    5.30
  10  12  -1    9.50    7.50
   9  12  -1    2.50    4.00
   9  12  -1   12.30    6.30
   9  12  -1   18.40    6.70
  -9 -12   1   14.30    5.70
   8  12  -1   -6.30    5.70
   8  12  -1   -1.20    3.00
   8  12  -1    2.20    4.80
  -8 -12   1   -3.10    4.20
  -8 -12   1   -3.30    3.50
   7  12  -1   -0.90    4.80
   7  12  -1   -2.10    4.00
   7  12  -1   -6.90    5.50
   7  12  -1   -2.00    3.80
  -7 -12   1   -3.00    2.60
  -7 -12   1    1.00    3.60
   6  12  -1    1.70    4.10
   6  12  -1   10.00    5.00
   6  12  -1    0.30    6.10
   6  12  -1   -0.20    4.70
  -6 -12   1   -2.30    3.50
  -6 -12   1   -0.80    2.90
   5  12  -1   -4.10    3.90
   5  12  -1    4.30    5.40
   5  12  -1   -2.00    4.30
  -5 -12   1   19.80   11.20
  -5 -12   1    0.30    3.00
  -5 -12   1    4.20    3.40
   4  12  -1    1.70    6.70
   4  12  -1    7.90    4.50
   4  12  -1   15.50    5.60
  -4 -12   1    1.80    3.80
  -4 -12   1    6.90   11.80
  -4 -12   1    5.40    4.50
   3  12  -1   19.90    6.60
   3  12  -1   14.70    6.20
   3  12  -1   -1.20    4.90
  -3 -12   1  -21.90   13.70
  -3 -12   1   17.70    5.40
  -3 -12   1   14.90    4.70
   2  12  -1    0.20    6.70
   2  12  -1    1.90    3.90
   2  12  -1    1.30    4.20
  -2 -12   1    1.40    3.60
  -2 -12   1   -4.20   13.40
  -2 -12   1    6.90    4.90
   1  12  -1    1.00    4.10
   1  12  -1   -0.50    5.30
  -1 -12   1   -0.80    3.60
  -1 -12   1    0.70    3.50
  11  11  -1   -1.70    5.50
  10  11  -1   20.70    5.80
  10  11  -1    4.70    5.00
 -10 -11   1   10.00    5.10
   9  11  -1    1.80    4.20
   9  11  -1   -1.10    4.50
   9  11  -1   -1.40    4.30
   9  11  -1   -5.50    3.20
  -9 -11   1    2.00    3.30
  -9 -11   1   -0.60    3.60
   8  11  -1   -2.10    5.20
   8  11  -1    2.00    4.80
   8  11  -1    9.60    4.40
  -8 -11   1   13.00    4.90
  -8 -11   1    7.50    3.90
   7  11  -1   -5.30    3.10
   7  11  -1    0.70    4.00
   7  11  -1    1.20    3.90
   7  11  -1   -2.00    3.90
  -7 -11   1    1.00    4.00
  -7 -11   1    3.50    3.80
   6  11  -1    1.60    5.10
   6  11  -1    6.60    4.30
   6  11  -1   -2.30    3.30
   6  11  -1   13.90    5.70
  -6 -11   1   -2.40    3.30
  -6 -11   1    3.50    4.10
   5  11  -1   -4.60    3.80
   5  11  -1   -1.20    3.10
   5  11  -1   -5.30    4.80
   5  11  -1   -0.90    3.70
  -5 -11   1    2.50    2.90
  -5 -11   1   -2.60    2.50
  -5 -11   1  -13.30    6.60
   4  11  -1   10.00    4.90
   4  11  -1    6.70    3.70
   4  11  -1   -0.10    4.10
   4  11  -1    4.40    4.40
  -4 -11   1    3.50    3.20
  -4 -11   1   10.40    3.60
  -4 -11   1  -24.80   11.60
   3  11  -1   34.10    6.50
   3  11  -1   22.50    7.40
   3  11  -1   36.40    7.30
  -3 -11   1   25.80    5.10
  -3 -11   1   35.50    5.90
   2  11  -1    1.00    3.20
   2  11  -1   -0.30    5.40
   2  11  -1    3.20    4.20
  -2 -11   1   -3.50    3.40
  -2 -11   1    2.90   16.40
  -2 -11   1    1.30    3.00
   1  11  -1   -3.10    4.00
   1  11  -1   -9.80    3.10
   1  11  -1   -0.30    4.30
  -1 -11   1  -26.50   15.10
  -1 -11   1    0.30    4.10
  -1 -11   1   -3.60    2.40
   0  11  -1    8.00    4.40
   0  11  -1   11.80    5.30
   0  11  -1   -2.00    6.30
   0 -11   1    7.50    3.80
   0 -11   1   14.40   21.40
   0 -11   1   11.00    4.50
  -1  11  -1   -1.70    3.90
  -1  11  -1    4.00    7.10
   1 -11   1    6.20    5.00
   1 -11   1   -3.10    4.70
  11  10  -1   -0.10    4.80
  11  10  -1    5.10    5.10
 -11 -10   1    0.70    4.30
  10  10  -1    4.90    4.60
  10  10  -1   20.10    4.70
  10  10  -1   13.20    5.20
  10  10  -1    5.90    4.90
 -10 -10   1    7.40    3.30
 -10 -10   1    4.80    3.40
   9  10  -1    0.50    3.70
   9  10  -1   -3.20    2.80
   9  10  -1    6.60    3.80
  -9 -10   1   -1.80    2.10
  -9 -10   1   -6.30    3.10
   8  10  -1   -0.10    3.80
   8  10  -1    1.10    3.90
   8  10  -1   -6.20    3.80
   8  10  -1    1.80    4.20
  -8 -10   1   -4.30    3.30
  -8 -10   1   -2.10    2.00
   7  10  -1   -1.50    3.40
   7  10  -1    1.20    4.70
   7  10  -1    0.00    3.80
   7  10  -1    9.60    4.20
  -7 -10   1    1.70    3.20
  -7 -10   1    9.50    4.00
   6  10  -1   23.60    6.50
   6  10  -1   25.40    5.70
   6  10  -1   21.60    5.90
   6  10  -1   24.30    5.30
  -6 -10   1   19.80    4.60
  -6 -10   1   19.30    4.30
   5  10  -1   10.50    4.90
   5  10  -1    9.70    4.30
   5  10  -1    3.90    4.90
   5  10  -1    5.50    4.00
  -5 -10   1    4.40    3.10
  -5 -10   1    6.90    2.90
  -5 -10   1   11.10    4.00
  -5 -10   1   19.00    8.30
   4  10  -1   -0.20    2.40
   4  10  -1    0.10    2.60
   4  10  -1   -9.70    3.40
   4  10  -1    1.00    2.80
  -4 -10   1   -3.00    3.10
  -4 -10   1    8.10    9.10
  -4 -10   1    1.80    2.30
  -4 -10   1   -1.80    2.70
   3  10  -1    1.10    2.80
   3  10  -1    6.00    3.40
   3  10  -1    7.70    3.60
   3  10  -1    0.70    3.40
  -3 -10   1   20.20    4.70
  -3 -10   1    0.80    7.90
  -3 -10   1    1.80    3.10
   2  10  -1    3.10    4.20
   2  10  -1   12.70    4.40
   2  10  -1   -1.70    3.00
  -2 -10   1    1.10    2.60
  -2 -10   1  -15.30   13.30
  -2 -10   1    2.50    3.50
   1  10  -1   23.90    6.30
   1  10  -1   38.80    7.20
   1  10  -1   32.50    6.90
  -1 -10   1   34.40    6.00
  -1 -10   1   34.30    6.10
   0  10  -1    0.20    4.30
   0  10  -1   -3.80    3.60
   0  10  -1   -5.20    4.40
   0 -10   1   -5.60    3.30
   0 -10   1   -2.10    3.40
  -1  10  -1   -7.00    4.80
  -1  10  -1    2.50    3.50
  -1  10  -1    3.70    4.50
   1 -10   1    2.90    4.40
   1 -10   1  -24.00   16.50
   1 -10   1    0.70    4.00
  -2  10  -1   14.90    6.10
  -2  10  -1   13.50    5.50
  -2  10  -1    4.20    6.40
   2 -10   1    9.60    5.00
   2 -10   1  -31.30   17.20
   2 -10   1   21.00    5.40
  -3  10  -1   14.10    6.50
  12   9  -1   19.20    5.50
  12   9  -1   -3.50    6.50
  12   9  -1    1.10    3.60
 -12  -9   1    3.20    4.80
  11   9  -1    7.50    4.90
  11   9  -1   -9.20    5.20
  11   9  -1   16.10    5.40
 -11  -9   1   -1.60    2.60
  10   9  -1    5.50    4.30
  10   9  -1   -2.80    5.10
  10   9  -1   -1.80    3.60
  10   9  -1   13.00    4.40
 -10  -9   1    9.90    4.60
 -10  -9   1    1.70    3.50
   9   9  -1    5.80    4.20
   9   9  -1   -3.30    2.00
   9   9  -1    8.30    4.40
  -9  -9   1    3.40    3.70
  -9  -9   1   -4.40    2.40
   8   9  -1   -1.40    3.20
   8   9  -1    1.80    3.10
   8   9  -1    5.70    3.40
   8   9  -1    0.50    3.90
  -8  -9   1   -4.40    2.80
  -8  -9   1   -1.10    1.80
   7   9  -1    8.20    3.90
   7   9  -1    8.80    3.70
   7   9  -1    4.00    2.70
   7   9  -1   -1.30    2.50
  -7  -9   1    3.70    2.60
  -7  -9   1    3.50    2.90
   6   9  -1   -2.20    3.00
   6   9  -1   -0.10    2.50
   6   9  -1   -4.30    2.10
   6   9  -1   -1.80    3.00
  -6  -9   1    1.40    2.40
  -6  -9   1   -1.00    1.90
   5   9  -1   30.40    5.40
   5   9  -1   26.70    6.10
   5   9  -1   36.00    6.00
   5   9  -1   20.60    5.10
  -5  -9   1   35.30    5.00
  -5  -9   1   33.80    4.70
  -5  -9   1   34.70    5.50
  -5  -9   1   28.30   11.40
   4   9  -1    0.00    2.50
   4   9  -1   -1.20    2.90
   4   9  -1    0.60    2.50
   4   9  -1    0.60    3.90
  -4  -9   1    1.60    2.10
  -4  -9   1   -9.80    7.90
  -4  -9   1   -0.80    2.90
  -4  -9   1    3.40    2.40
   3   9  -1   49.99    6.30
   3   9  -1   38.40    6.40
   3   9  -1   37.20    6.10
   3   9  -1   34.70    6.90
  -3  -9   1   42.20    4.40
  -3  -9   1   33.80    4.80
  -3  -9   1   40.10    5.30
  -3  -9   1   60.29   14.50
   2   9  -1   20.60    5.50
   2   9  -1   23.00    4.80
   2   9  -1   10.70    4.30
   2   9  -1   15.80    3.80
  -2  -9   1   13.90   10.30
  -2  -9   1   13.80    4.10
  -2  -9   1   12.50    3.60
   1   9  -1   10.60    3.90
   1   9  -1    1.00    2.10
   1   9  -1    5.80    3.20
   1   9  -1    6.40    3.90
  -1  -9   1    3.80    3.30
  -1  -9   1    1.70    2.40
  -1  -9   1   -4.90   13.00
   0   9  -1    7.60    5.00
   0   9  -1    7.80    4.40
   0   9  -1    5.20    3.80
   0  -9   1    8.50    4.00
   0  -9   1    2.70    3.50
   0  -9   1    5.20   13.60
  -1   9  -1    1.50    4.50
  -1   9  -1    0.10    3.40
  -1   9  -1    0.80    2.90
   1  -9   1    5.00    3.90
   1  -9   1    2.50    3.70
  -2   9  -1    1.10    4.80
  -2   9  -1    6.00    4.00
  -2   9  -1    1.30    3.60
   2  -9   1   -7.10   12.00
   2  -9   1    8.00    3.70
   2  -9   1   14.40    5.10
  -3   9  -1   20.30    5.40
  -3   9  -1   -2.30    4.70
   3  -9   1    3.90    4.90
   3  -9   1    8.20    4.90
  -4   9  -1    5.60    5.90
   4  -9   1    3.00    4.80
  12   8  -1   -5.00    6.40
  12   8  -1    3.90    4.50
  12   8  -1    6.60    5.20
 -12  -8   1    5.40    4.70
  11   8  -1   -0.70    2.40
  11   8  -1   13.70    5.00
  11   8  -1   -2.30    4.10
 -11  -8   1   -1.40    3.50
  10   8  -1    4.30    3.70
  10   8  -1    1.00    3.70
  10   8  -1    1.30    2.70
  10   8  -1   -0.90    3.30
 -10  -8   1   -1.80    2.00
 -10  -8   1   -3.40    1.90
   9   8  -1    2.10    4.50
   9   8  -1    7.10    4.00
   9   8  -1    6.70    3.60
   9   8  -1    6.00    2.70
  -9  -8   1    4.30    2.80
  -9  -8   1    1.00    2.10
   8   8  -1   11.40    4.20
   8   8  -1   12.60    4.30
   8   8  -1   19.90    4.60
   8   8  -1    8.30    3.90
  -8  -8   1   11.50    4.10
  -8  -8   1   20.10    4.20
   7   8  -1   43.40    6.90
   7   8  -1   56.89    6.90
   7   8  -1   46.60    6.60
   7   8  -1   59.29    5.90
  -7  -8   1   57.89    6.10
  -7  -8   1   48.10    5.30
   6   8  -1   18.70    5.10
   6   8  -1   16.80    4.20
   6   8  -1   15.20    4.90
   6   8  -1   11.10    4.10
  -6  -8   1   11.20    3.70
  -6  -8   1   13.10    3.50
   5   8  -1   63.19    6.40
   5   8  -1   60.39    6.00
   5   8  -1   68.99    8.00
   5   8  -1   61.99    6.90
  -5  -8   1   53.49    3.10
  -5  -8   1   64.39    5.20
  -5  -8   1   70.99   12.80
  -5  -8   1   72.59    5.80
  -5  -8   1   52.49    5.00
   4   8  -1   13.80    3.80
   4   8  -1   17.90    4.40
   4   8  -1   10.20    3.10
   4   8  -1   14.20    4.10
  -4  -8   1   14.00    6.80
  -4  -8   1   13.40    3.80
  -4  -8   1   12.40    3.20
  -4  -8   1   14.20    2.30
  -4  -8   1   14.50    3.10
   3   8  -1   -2.60    2.60
   3   8  -1    2.00    2.70
   3   8  -1    1.20    3.10
   3   8  -1    2.50    2.60
  -3  -8   1   -7.30    7.40
  -3  -8   1    5.60    2.50
  -3  -8   1    5.60    2.40
  -3  -8   1    3.80    2.20
   2   8  -1    2.50    3.70
   2   8  -1    4.10    2.40
   2   8  -1   -0.50    3.20
   2   8  -1    0.00    3.00
  -2  -8   1   -1.80    1.90
  -2  -8   1    8.60   10.20
  -2  -8   1    4.30    2.20
   0   8  -1   13.40    4.00
   0   8  -1   10.80    3.70
   0   8  -1    9.30    4.70
   0   8  -1   12.50    2.90
   0  -8   1   12.10    3.40
   0  -8   1    7.00    2.80
   0  -8   1   12.40    7.50
  -1   8  -1   52.79    7.00
  -1   8  -1   37.30    5.80
  -1   8  -1   36.30    6.80
   1  -8   1   43.60    5.70
   1  -8   1   48.70    6.30
   1  -8   1   19.70    8.90
  -2   8  -1   10.30    4.80
  -2   8  -1    1.60    4.00
  -2   8  -1   19.20    4.60
   2  -8   1   14.10    3.80
   2  -8   1   13.80    7.10
   2  -8   1   18.40    5.20
   2  -8   1   11.20    3.50
  -3   8  -1    2.80    4.10
  -3   8  -1   -0.90    4.00
  -3   8  -1   -0.90    3.80
   3  -8   1   -7.30    4.40
   3  -8   1   -1.00    3.80
   3  -8   1    6.30    3.30
   3  -8   1   -8.60    6.80
  -4   8  -1   -2.00    4.40
  -4   8  -1   11.20    4.70
  -4   8  -1    5.90    3.90
   4  -8   1    4.80    5.00
   4  -8   1    7.60    3.80
   4  -8   1   16.30    5.40
  -5   8  -1    8.80    6.00
   5  -8   1   20.40    6.60
   5  -8   1   18.30    5.70
  13   7  -1   18.30    7.50
  12   7  -1    5.60    7.00
  12   7  -1   14.30    5.70
  12   7  -1   21.30    6.30
 -12  -7   1   12.00    5.00
  11   7  -1    1.00    3.00
  11   7  -1    3.40    3.00
  11   7  -1    0.90    4.10
  11   7  -1    8.50    4.60
 -11  -7   1   -0.60    3.50
  10   7  -1   -0.40    3.30
  10   7  -1    6.50    4.10
  10   7  -1   -1.70    2.30
  10   7  -1    6.00    5.80
 -10  -7   1    0.10    2.90
 -10  -7   1   -2.40    2.00
   9   7  -1   10.80    4.20
   9   7  -1    3.80    3.50
   9   7  -1    6.70    3.40
   9   7  -1   11.00    4.00
  -9  -7   1    0.40    2.30
  -9  -7   1   -0.30    2.70
   8   7  -1   62.79    8.20
   8   7  -1   49.99    6.30
   8   7  -1   61.69    6.40
  -8  -7   1   63.39    6.20
  -8  -7   1   62.79    5.80
   7   7  -1   17.50    5.20
   7   7  -1   19.70    3.80
   7   7  -1   15.90    4.20
   7   7  -1   12.70    4.10
  -7  -7   1   21.30    3.80
  -7  -7   1   22.00    3.70
   6   7  -1  461.05   16.60
   6   7  -1  466.15   21.70
   6   7  -1  469.95   19.10
   6   7  -1  501.65   17.80
  -6  -7   1  476.55   15.60
  -6  -7   1  442.96   15.50
   5   7  -1  469.05   17.00
   5   7  -1  457.05   20.40
   5   7  -1  474.55   16.50
   5   7  -1  431.96   18.40
  -5  -7   1  462.15   12.70
  -5  -7   1  480.65   15.60
  -5  -7   1  475.85   15.10
  -5  -7   1  445.76   12.70
  -5  -7   1  473.75   15.60
   4   7  -1    1.70    1.80
   4   7  -1    2.00    2.70
   4   7  -1    2.00    2.10
  -4  -7   1    2.70    1.80
  -4  -7   1    2.30    3.90
  -4  -7   1   -0.40    2.10
  -4  -7   1    3.50    1.30
  -4  -7   1    5.90    2.30
   3   7  -1   71.49    7.30
   3   7  -1   72.69    6.20
   3   7  -1   68.69    5.60
   3   7  -1   62.19    6.10
  -3  -7   1   71.19   10.70
  -3  -7   1   71.69    4.40
  -3  -7   1   67.39    4.70
  -3  -7   1   69.09    5.40
  -3  -7   1   72.19    5.20
   1   7  -1   44.70    4.80
   1   7  -1   32.50    4.60
   1   7  -1   35.70    5.30
   1   7  -1   26.50    5.30
  -1  -7   1   40.50    5.00
  -1  -7   1   42.10    4.20
   0   7  -1   60.49    5.10
   0   7  -1   58.49    6.20
   0   7  -1   48.70    6.80
   0   7  -1   52.59    6.40
   0  -7   1   53.29   10.50
   0  -7   1   56.69    5.60
   0  -7   1   60.29    5.70
  -1   7  -1    1.20    2.20
  -1   7  -1    2.20    2.30
  -1   7  -1    2.80    1.80
  -1   7  -1   -0.50    2.30
   1  -7   1    3.20    3.00
   1  -7   1   -0.30    2.60
   1  -7   1    3.00    2.20
  -2   7  -1  139.79    9.90
  -2   7  -1  124.09    8.60
  -2   7  -1  134.29   10.00
   2  -7   1  142.09   14.40
   2  -7   1  131.19   10.70
   2  -7   1  135.39    8.30
   2  -7   1  135.69    8.90
  -3   7  -1    0.10    3.20
  -3   7  -1   -3.80    2.00
  -3   7  -1   -4.90    3.00
   3  -7   1    2.60    2.70
   3  -7   1   -3.30    4.50
   3  -7   1   -2.00    3.80
   3  -7   1    4.10    3.50
  -4   7  -1   -5.20    3.10
  -4   7  -1    6.60    4.60
  -4   7  -1    0.00    3.60
   4  -7   1   -2.10    2.50
   4  -7   1    3.10    5.40
   4  -7   1    3.80    3.90
  -5   7  -1    1.00    3.40
  -5   7  -1    4.50    4.50
   5  -7   1    0.50    6.10
   5  -7   1    3.90    3.50
   5  -7   1   -0.60    2.50
  -6   7  -1   -0.40    3.60
  -6   7  -1    5.20    5.80
   6  -7   1    0.90    3.70
   6  -7   1    1.50    3.40
  13   6  -1    0.50    6.70
  12   6  -1   -8.20    3.60
  12   6  -1    4.00    5.30
  12   6  -1   -9.30    5.10
 -12  -6   1   -7.30    3.40
  11   6  -1   -2.50    4.00
  11   6  -1   -4.70    3.10
  11   6  -1    2.00    3.10
  11   6  -1   -4.30    4.90
 -11  -6   1   -0.80    2.40
  10   6  -1   31.80    6.00
  10   6  -1   16.90    5.80
  10   6  -1   27.60    5.70
  10   6  -1   28.50    5.40
 -10  -6   1   25.50    4.30
 -10  -6   1   22.80    4.80
   9   6  -1   15.60    4.10
   9   6  -1   25.20    4.90
   9   6  -1   20.40    4.90
   9   6  -1   16.30    5.90
  -9  -6   1   18.40    3.70
  -9  -6   1   17.00    4.10
   8   6  -1   25.30    4.70
   8   6  -1   14.70    4.40
   8   6  -1   16.50    4.40
   8   6  -1   18.80    5.30
  -8  -6   1   13.40    3.40
  -8  -6   1   28.40    4.70
   7   6  -1   83.19    6.90
   7   6  -1   97.09    9.10
   7   6  -1   85.79    6.50
   7   6  -1   86.09    6.60
  -7  -6   1   89.59    4.20
  -7  -6   1  100.79    6.60
  -7  -6   1   92.09    6.10
   6   6  -1  160.08    8.40
   6   6  -1  136.99   10.30
   6   6  -1  172.48    9.00
   6   6  -1  156.58    9.20
  -6  -6   1  152.58    7.20
  -6  -6   1  160.78    7.90
   5   6  -1   12.50    3.40
   5   6  -1   11.40    2.90
   5   6  -1    9.50    3.00
   5   6  -1   10.00    2.60
  -5  -6   1    7.40    2.60
  -5  -6   1    7.40    2.70
  -5  -6   1    9.00    2.20
   4   6  -1   12.60    2.80
   4   6  -1   16.40    3.50
   4   6  -1   16.10    3.00
   4   6  -1   13.30    3.50
  -4  -6   1   25.30    3.40
  -4  -6   1   20.80    1.60
  -4  -6   1   21.10    3.10
  -4  -6   1   18.90    5.40
  -4  -6   1   18.90    3.10
   3   6  -1  126.19    8.50
   3   6  -1  128.09    8.10
   3   6  -1  128.29    7.00
   3   6  -1  126.49    7.10
  -3  -6   1  123.69    6.50
  -3  -6   1  138.39    5.60
  -3  -6   1  137.49    6.20
  -3  -6   1  128.39    6.20
  -3  -6   1  146.69   12.60
   2   6  -1  106.19    6.90
   2   6  -1  107.99    6.30
   2   6  -1   93.89    6.10
   2   6  -1   94.29    7.10
  -2  -6   1   84.69   13.40
  -2  -6   1   97.49    5.80
  -2  -6   1   96.29    5.30
  -2  -6   1   97.29    5.20
   1   6  -1   28.90    4.00
   1   6  -1   35.10    5.10
   1   6  -1   30.00    3.80
   1   6  -1   33.50    4.50
  -1  -6   1   31.30    3.80
  -1  -6   1   30.90    8.00
  -1  -6   1   31.30    3.80
   0   6  -1   47.20    4.50
   0   6  -1   49.40    4.60
   0   6  -1   48.30    5.60
   0   6  -1   58.69    6.40
   0  -6   1   49.30    4.20
   0  -6   1   51.49    4.30
   0  -6   1   50.59    9.10
  -1   6  -1  109.69    7.50
  -1   6  -1  102.89    7.90
  -1   6  -1  109.59    7.30
   1  -6   1  109.79    8.50
   1  -6   1  109.49   11.10
   1  -6   1  117.59    7.10
   1  -6   1  114.19    7.00
  -2   6  -1  359.26   16.30
  -2   6  -1  354.26   14.70
  -2   6  -1  360.76   15.40
  -2   6  -1  340.07   14.50
   2  -6   1  356.96   17.60
   2  -6   1  384.86   23.40
   2  -6   1  358.66   13.90
   2  -6   1  343.47   13.50
  -3   6  -1    3.90    3.40
  -3   6  -1    1.00    3.20
  -3   6  -1   11.90    4.10
   3  -6   1    9.80    3.10
   3  -6   1    9.10    4.70
   3  -6   1    6.40    5.00
   3  -6   1   13.90    3.40
  -4   6  -1    1.60    3.20
  -4   6  -1   -0.30    3.50
  -4   6  -1    9.40    4.00
   4  -6   1    2.20    2.70
   4  -6   1    8.40    3.30
   4  -6   1    2.70    4.30
   4  -6   1    1.00    5.00
  -5   6  -1   22.90    5.20
  -5   6  -1   16.50    4.60
  -5   6  -1   34.50    6.20
   5  -6   1   19.30    6.30
   5  -6   1   25.00    6.80
   5  -6   1   29.00    5.70
   5  -6   1   34.40    6.10
  -6   6  -1   -1.20    3.90
  -6   6  -1    0.40    2.90
   6  -6   1   -7.20    3.70
   6  -6   1    2.20    3.20
   6  -6   1    0.10    2.90
  -7   6  -1   13.40    5.90
   7  -6   1    1.30    4.40
   7  -6   1   11.80    4.70
  13   5  -1   -4.90    6.80
  12   5  -1   -2.10    6.00
  12   5  -1   -0.70    3.40
  12   5  -1    1.40    4.50
 -12  -5   1    1.40    4.10
  11   5  -1    6.30    4.20
  11   5  -1   -0.20    3.90
  11   5  -1   -1.00    3.70
 -11  -5   1   -6.70    3.00
  10   5  -1   -0.60    3.10
  10   5  -1    1.80    5.00
  10   5  -1    1.80    3.10
  10   5  -1    1.70    3.30
 -10  -5   1   -2.30    2.70
 -10  -5   1   -0.30    2.10
   9   5  -1  116.59    7.70
   9   5  -1  135.19   11.00
   9   5  -1  117.19    8.80
   9   5  -1  120.29   11.40
  -9  -5   1  134.69    8.40
  -9  -5   1  121.99    7.70
   8   5  -1   19.30    4.90
   8   5  -1   14.90    4.00
   8   5  -1   13.90    4.50
   8   5  -1   19.50    4.00
  -8  -5   1   17.10    3.80
  -8  -5   1   20.10    3.40
   7   5  -1   11.80    4.30
   7   5  -1   12.50    3.90
   7   5  -1   15.70    3.30
   7   5  -1   19.90    3.60
  -7  -5   1   23.60    3.50
  -7  -5   1   21.10    3.40
   6   5  -1   -3.20    2.00
   6   5  -1    1.10    2.10
   6   5  -1    1.00    1.90
   6   5  -1    2.00    2.20
  -6  -5   1    4.90    2.30
  -6  -5   1    3.90    2.00
   5   5  -1    0.50    1.60
   5   5  -1    1.30    2.00
   5   5  -1    4.20    2.10
  -5  -5   1    6.30    2.40
  -5  -5   1    0.70    1.90
   4   5  -1   33.50    4.30
   4   5  -1   26.80    3.80
   4   5  -1   33.30    3.60
   4   5  -1   28.30    3.50
   4   5  -1   28.10    3.00
  -4  -5   1   28.40    3.70
  -4  -5   1   29.00    3.30
  -4  -5   1   29.70    2.90
  -4  -5   1   29.60    1.10
  -4  -5   1   31.80    2.80
   3   5  -1   89.69    6.30
   3   5  -1   83.69    5.00
   3   5  -1   89.09    4.50
   3   5  -1   78.89    5.10
   3   5  -1   85.99    6.00
  -3  -5   1   92.79    3.80
  -3  -5   1   98.89    5.20
  -3  -5   1   95.19    4.80
  -3  -5   1   92.39    4.80
  -3  -5   1   71.69    8.70
  -3  -5   1   90.29    5.00
   2   5  -1    3.50    2.30
   2   5  -1    3.10    1.70
   2   5  -1    2.10    1.40
   2   5  -1    3.30    1.70
  -2  -5   1    0.60    1.20
  -2  -5   1    3.50    1.50
  -2  -5   1    1.60    1.30
   1   5  -1  331.77   13.20
   1   5  -1  343.77   13.90
   1   5  -1  332.47   11.80
   1   5  -1  349.47   12.20
  -1  -5   1  325.37   10.90
  -1  -5   1  340.17   21.40
  -1  -5   1  337.57   11.90
  -1  -5   1  315.97   10.80
   0   5  -1   26.70    3.70
   0   5  -1   24.60    3.60
   0   5  -1   16.40    3.20
   0  -5   1   20.00    4.80
   0  -5   1   22.00    3.10
   0  -5   1   24.00    3.20
  -1   5  -1   11.90    3.00
  -1   5  -1   12.90    3.10
  -1   5  -1   13.80    3.20
   1  -5   1    9.90    2.70
   1  -5   1   15.20    3.90
   1  -5   1   11.00    3.30
   1  -5   1   11.30    2.80
  -2   5  -1   49.80    5.50
  -2   5  -1   40.70    5.10
  -2   5  -1   38.80    4.90
   2  -5   1   32.00    4.30
   2  -5   1   46.80    5.90
   2  -5   1   43.30    4.60
   2  -5   1   36.50    7.00
  -3   5  -1   56.99    6.10
  -3   5  -1   52.29    5.90
  -3   5  -1   53.29    5.80
   3  -5   1   54.59    7.10
   3  -5   1   51.39    5.40
   3  -5   1   42.10    7.80
   3  -5   1   49.90    4.80
  -4   5  -1    1.90    3.00
  -4   5  -1   -2.70    2.80
  -4   5  -1    0.60    2.50
   4  -5   1    0.10    3.40
   4  -5   1   -2.10    1.70
   4  -5   1    0.90    3.30
   4  -5   1    3.10    2.40
  -5   5  -1    7.50    3.40
  -5   5  -1   13.80    3.80
  -5   5  -1    5.30    3.50
  -5   5  -1    8.80    2.40
   5  -5   1    7.10    4.40
   5  -5   1    5.10    3.00
   5  -5   1    3.20    5.50
   5  -5   1   11.60    3.90
  -6   5  -1   14.60    5.00
  -6   5  -1   19.00    4.80
   6  -5   1   16.60    4.30
   6  -5   1   19.90    4.30
   6  -5   1    9.50    5.00
   6  -5   1    7.30    6.60
  -7   5  -1   14.10    5.40
  -7   5  -1    8.80    5.00
   7  -5   1   13.00    4.60
   7  -5   1   21.40    5.50
   7  -5   1   -4.10    6.40
   8  -5   1    4.90    4.60
  12   4  -1   13.10    4.70
  12   4  -1    3.00    6.10
  12   4  -1    5.80    7.10
 -12  -4   1    9.60    4.40
  11   4  -1    3.40    4.90
  11   4  -1    2.70    3.80
  11   4  -1   -2.60    4.00
 -11  -4   1    1.50    3.80
  10   4  -1   21.00    5.30
  10   4  -1   32.40    5.50
  10   4  -1   20.30    4.90
  10   4  -1   26.00    7.00
 -10  -4   1   24.20    4.40
 -10  -4   1   21.40    4.50
   9   4  -1    2.20    3.10
   9   4  -1    3.80    3.60
   9   4  -1    3.50    2.70
   9   4  -1    5.80    4.40
  -9  -4   1    1.10    2.20
  -9  -4   1    4.10    2.90
   8   4  -1   32.40    6.10
   8   4  -1   49.30    5.20
   8   4  -1   33.10    5.70
   8   4  -1   38.10    5.30
  -8  -4   1   45.00    3.30
  -8  -4   1   43.70    5.10
  -8  -4   1   44.00    4.20
   7   4  -1   18.90    4.60
   7   4  -1   20.60    4.10
   7   4  -1   13.20    3.00
   7   4  -1   18.70    2.30
   7   4  -1   14.20    3.20
  -7  -4   1   17.40    2.30
  -7  -4   1   20.00    3.20
  -7  -4   1   23.90    3.50
   6   4  -1    3.00    1.60
   6   4  -1   -0.30    1.60
   6   4  -1    0.30    1.60
   6   4  -1    0.70    0.70
   6   4  -1    2.20    2.00
   6   4  -1   -2.90    1.40
  -6  -4   1   -0.50    1.10
  -6  -4   1    0.90    1.80
  -6  -4   1    1.00    1.50
  -6  -4   1    2.00    1.10
   5   4  -1   11.10    1.90
   5   4  -1   12.00    3.40
   5   4  -1   11.90    2.40
   5   4  -1    8.70    2.10
   5   4  -1   12.40    2.30
  -5  -4   1    9.90    2.20
  -5  -4   1   12.10    2.20
  -5  -4   1   12.40    2.20
  -5  -4   1   12.00    2.40
   4   4  -1  170.88    7.10
   4   4  -1  161.08    6.30
   4   4  -1  175.28    9.60
   4   4  -1  165.58    7.70
   4   4  -1  149.79    7.10
  -4  -4   1  160.68    6.30
  -4  -4   1  155.08    6.50
  -4  -4   1  169.38    7.20
  -4  -4   1  168.68    7.50
  -4  -4   1  163.48    6.80
   3   4  -1  143.89    7.00
   3   4  -1  131.69    6.10
   3   4  -1  134.69    6.00
   3   4  -1  128.99    7.80
   3   4  -1  141.09    5.50
  -3  -4   1  129.99    6.70
  -3  -4   1  144.59    5.70
  -3  -4   1  138.49    4.20
  -3  -4   1  140.39   10.40
  -3  -4   1  153.78    6.40
  -3  -4   1  143.79    7.60
  -3  -4   1  136.69    5.60
   2   4  -1  383.16   12.00
   2   4  -1  376.06   13.90
   2   4  -1  398.56   12.40
   2   4  -1  383.66   14.70
   2   4  -1  394.56   11.30
   2   4  -1  392.56   11.30
   2   4  -1  358.46   20.70
  -2  -4   1  405.86   20.90
  -2  -4   1  403.66   11.70
  -2  -4   1  418.26   12.20
  -2  -4   1  387.56   11.30
  -2  -4   1  386.86   13.70
  -2  -4   1  388.56   11.90
  -2  -4   1  369.06   11.30
   1   4  -1 1165.68   30.30
   1   4  -1 1207.68   29.60
   1   4  -1 1218.88   37.20
   1   4  -1 1188.18   30.60
   1   4  -1 1166.48   29.50
   1   4  -1 1189.78   36.40
   1   4  -1 1163.88   34.50
   1   4  -1 1242.28   52.89
  -1  -4   1 1190.28   30.30
  -1  -4   1 1188.48   29.60
  -1  -4   1 1184.88   29.50
  -1  -4   1 1226.98   33.60
  -1  -4   1 1188.48   34.30
  -1  -4   1 1225.08   30.20
   0   4  -1   56.49    3.60
   0   4  -1   57.39    5.80
   0   4  -1   56.79    4.00
   0   4  -1   51.09    4.00
   0   4  -1   55.59    4.80
   0  -4   1   53.09    5.00
   0  -4   1   57.99    3.80
   0  -4   1   51.69    3.70
   0  -4   1   46.30    3.50
   0  -4   1   60.49    3.70
  -1   4  -1    6.10    2.30
  -1   4  -1    5.40    1.80
  -1   4  -1    3.20    2.00
  -1   4  -1    2.60    1.90
  -1   4  -1    1.20    1.80
   1  -4   1    2.20    1.40
   1  -4   1   -0.60    2.10
   1  -4   1    5.70    2.20
   1  -4   1    3.60    1.90
  -2   4  -1   47.60    4.60
  -2   4  -1   46.20    4.50
  -2   4  -1   38.40    3.90
  -2   4  -1   48.60    4.70
   2  -4   1   46.00    6.50
   2  -4   1   46.40    6.10
   2  -4   1   43.30    4.10
   2  -4   1   35.40    3.50
  -3   4  -1  349.77   13.20
  -3   4  -1  326.47   15.00
  -3   4  -1  330.57   13.00
  -3   4  -1  337.57   13.80
  -3   4  -1  360.76   14.00
   3  -4   1  331.47   12.40
   3  -4   1  334.77   16.40
   3  -4   1  328.57   12.30
   3  -4   1  364.46   20.60
  -4   4  -1  184.98    9.60
  -4   4  -1  178.28   10.80
  -4   4  -1  169.68    9.10
  -4   4  -1  171.08    9.30
   4  -4   1  184.18    9.20
   4  -4   1  184.68   14.40
   4  -4   1  199.58    9.60
   4  -4   1  172.28   12.60
  -5   4  -1   45.50    6.10
  -5   4  -1   44.70    3.60
  -5   4  -1   48.10    5.50
  -5   4  -1   38.80    5.40
   5  -4   1   49.90    5.20
   5  -4   1   45.50    5.00
   5  -4   1   37.30    6.70
   5  -4   1   45.60    8.20
  -6   4  -1    1.20    2.60
  -6   4  -1    1.90    3.20
   6  -4   1   -1.40    3.70
   6  -4   1    0.50    2.10
   6  -4   1    1.10    3.70
   6  -4   1    1.20    3.00
  -7   4  -1    0.50    3.70
  -7   4  -1   -0.70    3.60
   7  -4   1    5.90    4.40
   7  -4   1    2.40    3.90
   7  -4   1    3.10    4.90
   7  -4   1    1.90    2.90
  -8   4  -1    2.70    3.50
  -8   4  -1   -1.80    2.70
   8  -4   1   -3.90    3.40
   8  -4   1    4.40    3.40
   8  -4   1    1.00    5.80
  12   3  -1   -6.00    5.40
  12   3  -1   -0.40    4.40
  12   3  -1    1.10    5.30
 -12  -3   1   -3.50    3.90
  11   3  -1   88.79    8.10
  11   3  -1   93.99   12.60
  11   3  -1   67.89   11.00
 -11  -3   1   88.09    7.70
  10   3  -1   36.40    6.00
  10   3  -1   25.40    6.00
  10   3  -1   28.80    5.20
  10   3  -1   22.90    5.90
 -10  -3   1   29.90    5.50
 -10  -3   1   34.00    5.00
   9   3  -1    1.90    3.10
   9   3  -1    2.90    3.30
   9   3  -1    4.80    3.20
   9   3  -1    5.20    4.40
  -9  -3   1    5.30    2.90
  -9  -3   1    0.70    3.00
   8   3  -1   -5.70    2.00
   8   3  -1   -1.00    3.50
   8   3  -1    0.40    1.70
   8   3  -1    0.40    2.30
   8   3  -1   -1.40    2.50
  -8  -3   1    1.60    2.70
  -8  -3   1   -0.90    1.50
   7   3  -1   11.30    3.90
   7   3  -1   15.20    2.90
   7   3  -1   15.90    3.60
   7   3  -1    7.50    3.60
  -7  -3   1   13.00    2.80
  -7  -3   1   14.30    3.10
  -7  -3   1   14.30    2.70
  -7  -3   1   15.70    1.40
   6   3  -1    0.40    2.50
   6   3  -1   -4.40    1.90
   6   3  -1    0.30    1.40
   6   3  -1    1.20    1.00
   6   3  -1    0.30    1.80
  -6  -3   1    1.20    0.90
  -6  -3   1    1.70    2.10
  -6  -3   1    0.40    1.30
  -6  -3   1   -1.60    1.60
  -6  -3   1    1.20    1.20
   5   3  -1    1.20    0.80
   5   3  -1    3.00    1.30
   5   3  -1    3.70    1.50
   5   3  -1    0.60    2.00
   5   3  -1    3.30    2.20
   5   3  -1    4.60    1.80
   5   3  -1    0.60    1.80
  -5  -3   1    1.50    1.70
  -5  -3   1    1.60    1.10
  -5  -3   1    0.50    1.40
  -5  -3   1    1.00    1.00
  -5  -3   1    2.30    1.70
   4   3  -1 1721.73   40.40
   4   3  -1 1739.93   52.19
   4   3  -1 1670.63   41.10
   4   3  -1 1682.63   45.20
   4   3  -1 1740.53   41.60
   4   3  -1 1677.33   44.80
  -4  -3   1 1692.83   45.00
  -4  -3   1 1687.63   44.90
  -4  -3   1 1688.43   40.60
  -4  -3   1 1702.53   41.40
  -4  -3   1 1714.83   41.20
  -4  -3   1 1681.63   40.40
   3   3  -1  290.57    8.50
   3   3  -1  265.77    9.00
   3   3  -1  279.27   15.50
   3   3  -1  283.97   10.00
   3   3  -1  279.07   11.80
   3   3  -1  272.17    8.30
   3   3  -1  282.37    9.00
  -3  -3   1  296.77    9.20
  -3  -3   1  284.07    9.80
  -3  -3   1  280.57    8.60
  -3  -3   1  284.87   11.60
  -3  -3   1  279.77    9.10
  -3  -3   1  276.37    8.40
   2   3  -1  765.62   22.70
   2   3  -1  786.52   24.90
   2   3  -1  763.22   20.10
   2   3  -1  784.02   19.30
   2   3  -1  715.83   35.10
   2   3  -1  793.72   19.40
   2   3  -1  781.42   20.10
  -2  -3   1  801.82   20.00
  -2  -3   1  795.62   20.80
  -2  -3   1  779.62   22.50
  -2  -3   1  772.52   19.30
  -2  -3   1  785.32   24.70
  -2  -3   1  791.22   35.10
  -2  -3   1  789.32   20.00
  -2  -3   1  764.32   19.40
   1   3  -1   61.59    3.10
   1   3  -1   62.99    5.80
   1   3  -1   63.99    3.10
   1   3  -1   60.79    3.40
   1   3  -1   65.29    4.20
   1   3  -1   69.59    3.60
  -1  -3   1   64.29    3.90
  -1  -3   1   59.09    3.20
  -1  -3   1   62.99    3.30
  -1  -3   1   67.79    3.60
  -1  -3   1   63.29    3.10
  -1  -3   1   63.49    3.10
   0   3  -1  234.38    8.80
   0   3  -1  244.78   13.20
   0   3  -1  244.18    8.20
   0   3  -1  240.88    9.40
   0   3  -1  245.28    7.80
   0   3  -1  237.38    7.80
   0   3  -1  253.77   10.00
   0   3  -1  235.08    8.30
   0  -3   1  239.18    8.70
   0  -3   1  250.87   13.50
   0  -3   1  232.48    9.80
   0  -3   1  236.68    7.80
   0  -3   1  248.98    8.20
   0  -3   1  240.58    8.00
   0  -3   1  247.98    9.20
   0  -3   1  236.68    7.70
  -1   3  -1    3.30    1.50
  -1   3  -1    2.10    1.20
  -1   3  -1    1.00    1.40
  -1   3  -1    3.00    1.30
  -1   3  -1    1.40    1.60
  -1   3  -1    0.70    1.10
  -1   3  -1    0.90    1.50
  -1   3  -1    3.50    1.70
   1  -3   1    2.00    1.40
   1  -3   1    2.70    1.80
   1  -3   1    4.50    1.60
   1  -3   1    0.50    1.10
   1  -3   1    2.00    1.50
   1  -3   1    1.20    1.20
   1  -3   1    1.80    1.90
   1  -3   1    0.80    1.50
  -2   3  -1  272.37   11.20
  -2   3  -1  257.47    9.60
  -2   3  -1  246.28    9.50
  -2   3  -1  266.57   10.50
   2  -3   1  251.47   14.90
   2  -3   1  262.47    9.40
   2  -3   1  262.07    9.30
   2  -3   1  253.17   11.80
   2  -3   1  273.77   10.00
  -3   3  -1   21.90    3.20
  -3   3  -1   25.90    3.70
  -3   3  -1   23.20    3.50
  -3   3  -1   30.80    4.50
  -3   3  -1   27.70    3.70
   3  -3   1   28.50    3.70
   3  -3   1   21.50    4.00
   3  -3   1   26.70    5.10
   3  -3   1   29.30    3.10
   3  -3   1   24.30    3.30
  -4   3  -1   45.40    4.40
  -4   3  -1   34.90    4.50
  -4   3  -1   34.90    4.50
  -4   3  -1   44.40    5.50
   4  -3   1   35.60    4.40
   4  -3   1   29.40    5.10
   4  -3   1   35.30    6.20
   4  -3   1   39.20    4.70
  -5   3  -1   11.10    2.00
  -5   3  -1   17.00    3.50
  -5   3  -1   14.90    3.30
  -5   3  -1   13.60    3.00
  -5   3  -1   14.50    3.80
   5  -3   1   10.90    3.00
   5  -3   1   11.10    5.20
   5  -3   1   10.50    2.90
   5  -3   1    9.80    3.90
  -6   3  -1   25.70    4.60
  -6   3  -1   28.20    3.80
  -6   3  -1   32.70    2.90
  -6   3  -1   34.10    5.70
  -6   3  -1   27.70    5.30
   6  -3   1   24.10    5.80
   6  -3   1   18.10    6.30
   6  -3   1   33.50    5.10
   6  -3   1   26.00    4.40
  -7   3  -1    0.40    2.50
  -7   3  -1    3.30    2.80
   7  -3   1    6.10    3.80
   7  -3   1   -6.60    4.90
   7  -3   1    8.40    4.40
   7  -3   1   11.30    4.10
  -8   3  -1    5.70    4.40
  -8   3  -1    2.60    3.60
   8  -3   1    4.30    3.30
   8  -3   1   -2.30    6.20
   8  -3   1    5.10    4.00
   8  -3   1   -0.30    3.60
  -9   3  -1   -1.60    4.10
  -9   3  -1    0.90    4.20
   9  -3   1   -5.30    5.10
   9  -3   1   -5.50    4.00
   9  -3   1    3.20    4.20
  12   2  -1    3.40    8.20
  12   2  -1  -12.10    5.20
  11   2  -1   14.30    5.10
  11   2  -1   -8.60    4.70
  11   2  -1    7.90    5.50
 -11  -2   1    4.80    4.10
  10   2  -1   17.30    4.90
  10   2  -1   18.50    4.60
  10   2  -1   12.60    5.80
  10   2  -1   17.60    5.70
 -10  -2   1   13.20    4.40
 -10  -2   1   15.00    4.10
   9   2  -1   65.59    6.20
   9   2  -1   61.69    6.00
   9   2  -1   75.09    9.60
   9   2  -1   53.59    8.40
  -9  -2   1   52.19    6.10
  -9  -2   1   65.19    5.90
   8   2  -1    0.30    1.70
   8   2  -1    1.50    2.90
   8   2  -1    0.40    2.70
   8   2  -1   -3.60    2.20
   8   2  -1    3.90    3.60
  -8  -2   1   -2.60    2.40
  -8  -2   1   -2.10    1.50
   7   2  -1    1.60    1.50
   7   2  -1   -0.30    2.20
   7   2  -1    2.50    2.50
   7   2  -1   -4.00    2.50
   7   2  -1    6.60    2.50
  -7  -2   1    0.60    1.90
  -7  -2   1    2.50    2.30
   6   2  -1  102.79    8.20
   6   2  -1  114.09    8.40
   6   2  -1  117.09    6.20
   6   2  -1   97.39    6.00
   6   2  -1   99.19    5.70
  -6  -2   1   95.29    5.40
  -6  -2   1  103.49    5.40
  -6  -2   1  106.19    6.10
  -6  -2   1  105.89    6.10
   5   2  -1  210.78    7.70
   5   2  -1  182.88    7.30
   5   2  -1  168.48    7.50
   5   2  -1  181.48   10.00
   5   2  -1  187.98    7.00
   5   2  -1  184.08   10.00
  -5  -2   1  180.68    5.70
  -5  -2   1  183.08    7.20
  -5  -2   1  186.78    7.60
  -5  -2   1  186.08    7.70
  -5  -2   1  180.68    7.00
   4   2  -1   79.19    6.00
   4   2  -1   80.99    3.80
   4   2  -1   84.09    4.30
   4   2  -1   83.59    4.50
   4   2  -1   84.39    3.70
   4   2  -1   82.19    5.60
   4   2  -1   81.69    3.80
   4   2  -1   84.59    4.00
  -4  -2   1   88.09    5.90
  -4  -2   1   84.19    4.50
  -4  -2   1   81.89    3.90
  -4  -2   1   84.99    4.10
  -4  -2   1   85.39    4.10
  -4  -2   1   77.49    4.20
  -4  -2   1   88.69    3.60
   3   2  -1 4583.44  128.49
   3   2  -1 4620.44  103.59
   3   2  -1 4547.25  103.79
   3   2  -1 4488.95  102.99
   3   2  -1 4666.43  103.09
   3   2  -1 4543.65  115.19
   3   2  -1 4403.66  120.89
  -3  -2   1 4772.72  103.89
  -3  -2   1 4594.44  103.69
  -3  -2   1 4564.14  115.09
  -3  -2   1 4608.34  128.29
  -3  -2   1 4586.34  103.19
  -3  -2   1 4500.35  102.99
   2   2  -1 9237.38  211.38
   2   2  -1 9282.97  244.88
   2   2  -1 9595.74  211.58
   2   2  -1 9573.74  215.08
   2   2  -1 9452.45  213.98
   2   2  -1 9493.65  260.47
   2   2  -1 9697.93  383.86
  -2  -2   1 9455.55  260.27
  -2  -2   1 9999.00  215.58
  -2  -2   1 8982.90  241.38
  -2  -2   1 9712.03  211.58
  -2  -2   1 9183.88  214.38
  -2  -2   1 9591.94  211.48
   1   2  -1 5312.07  117.79
   1   2  -1 4941.41  210.68
   1   2  -1 5093.19  138.19
   1   2  -1 5334.67  118.39
   1   2  -1 5309.67  117.79
   1   2  -1 5132.89  132.69
   1   2  -1 5233.28  145.49
   1   2  -1 5272.57  118.29
  -1  -2   1 5269.87  118.19
  -1  -2   1 5278.37  118.19
  -1  -2   1 5358.26  117.79
  -1  -2   1 5118.59  132.59
  -1  -2   1 5260.67  117.89
  -1  -2   1 5633.54  215.88
  -1  -2   1 5493.85  140.19
   0   2  -1    2.10    1.10
   0   2  -1    3.90    1.40
   0   2  -1    1.80    1.10
   0   2  -1    2.30    1.00
   0   2  -1    3.10    0.90
   0   2  -1    9.10    1.40
   0   2  -1    2.90    1.50
   0   2  -1    2.00    0.80
   0  -2   1    2.80    1.00
   0  -2   1    2.60    1.20
   0  -2   1    2.20    0.90
   0  -2   1    1.30    1.40
   0  -2   1    3.90    1.20
   0  -2   1    0.90    0.80
   0  -2   1    3.50    1.20
   0  -2   1    2.60    1.00
  -1   2  -1  122.19    4.70
  -1   2  -1  118.99    5.00
  -1   2  -1  113.59    4.70
  -1   2  -1  116.89    5.50
  -1   2  -1  115.89    7.20
  -1   2  -1  129.09    4.70
  -1   2  -1  111.59    6.00
  -1   2  -1  117.69    5.40
   1  -2   1  125.89    5.50
   1  -2   1  109.89    6.00
   1  -2   1  117.69    5.20
   1  -2   1  112.59    4.70
   1  -2   1  117.49    4.80
   1  -2   1  111.59    4.60
   1  -2   1  116.19    7.30
   1  -2   1  118.79    4.70
  -2   2  -1  426.06   12.50
  -2   2  -1  444.06   15.00
  -2   2  -1  420.86   14.60
  -2   2  -1  435.36   12.50
  -2   2  -1  444.26   13.80
  -2   2  -1  415.36   12.70
  -2   2  -1  425.76   15.90
  -2   2  -1  410.96   12.70
   2  -2   1  418.16   14.50
   2  -2   1  425.36   12.60
   2  -2   1  421.26   13.40
   2  -2   1  423.76   12.50
   2  -2   1  419.46   20.50
   2  -2   1  408.36   15.80
   2  -2   1  429.56   12.60
   2  -2   1  440.16   12.70
  -3   2  -1  219.98    8.50
  -3   2  -1  194.48    8.10
  -3   2  -1  219.38    9.50
  -3   2  -1  195.78    9.60
  -3   2  -1  201.28    8.20
   3  -2   1  201.98   12.50
   3  -2   1  192.48    7.80
   3  -2   1  209.48    8.10
   3  -2   1  215.48   10.50
   3  -2   1  207.58    7.90
  -4   2  -1  275.07   10.20
  -4   2  -1  262.67    8.20
  -4   2  -1  283.67   10.90
  -4   2  -1  279.87   10.70
  -4   2  -1  267.57   12.30
   4  -2   1  272.87   10.20
   4  -2   1  287.97   14.00
   4  -2   1  280.07   16.60
   4  -2   1  256.47   10.20
  -5   2  -1  236.28    9.50
  -5   2  -1  241.98   10.40
  -5   2  -1  231.78    7.60
  -5   2  -1  245.78   10.60
  -5   2  -1  217.78   11.80
   5  -2   1  237.08   10.20
   5  -2   1  246.98   14.00
   5  -2   1  245.28   16.20
   5  -2   1  232.58    9.90
  -6   2  -1  201.48   11.90
  -6   2  -1  217.98   10.40
  -6   2  -1  212.28    8.90
  -6   2  -1  207.68   10.60
   6  -2   1  240.58   15.00
   6  -2   1  198.88   10.10
   6  -2   1  209.18   10.20
   6  -2   1  214.08   16.00
  -7   2  -1    6.00    3.00
  -7   2  -1   10.20    4.00
  -7   2  -1    7.50    4.10
   7  -2   1    8.70    3.10
   7  -2   1    9.70    4.60
   7  -2   1   10.20    4.00
   7  -2   1    5.80    3.70
  -8   2  -1    8.10    3.90
  -8   2  -1    5.00    3.00
   8  -2   1    3.20    2.70
   8  -2   1    5.70    4.00
   8  -2   1    5.70    5.00
   8  -2   1    0.30    3.40
  -9   2  -1    9.80    4.60
  -9   2  -1   -1.10    3.60
   9  -2   1   -9.60    6.10
   9  -2   1    2.70    3.00
   9  -2   1    0.00    3.40
  10  -2   1   -1.30    6.00
  11   1  -1   -6.30    4.00
  11   1  -1    3.90    4.50
  11   1  -1   -0.90    5.40
 -11  -1   1    2.90    4.30
  10   1  -1   12.00    4.70
  10   1  -1   -0.30    4.60
  10   1  -1    6.30    3.60
  10   1  -1    3.90    6.10
 -10  -1   1   12.10    4.50
   9   1  -1    2.90    4.30
   9   1  -1   13.30    5.80
   9   1  -1   15.00    3.90
   9   1  -1   25.20    5.10
  -9  -1   1   20.40    4.60
  -9  -1   1   11.20    3.10
   8   1  -1   -1.30    2.70
   8   1  -1    2.30    2.60
   8   1  -1   -1.90    3.90
   8   1  -1    0.10    2.70
  -8  -1   1    3.60    2.80
  -8  -1   1    2.80    2.10
   7   1  -1   22.70    3.90
   7   1  -1   21.50    3.50
   7   1  -1   17.50    4.50
   7   1  -1   18.80    2.70
   7   1  -1   19.90    4.80
  -7  -1   1   20.60    3.40
  -7  -1   1   25.20    3.80
   6   1  -1  134.09    6.60
   6   1  -1  138.29    7.20
   6   1  -1  139.19    9.80
   6   1  -1  159.28    9.80
   6   1  -1  143.49    6.10
  -6  -1   1  146.69    7.00
  -6  -1   1  136.39    6.70
   5   1  -1   17.60    2.30
   5   1  -1   16.00    3.60
   5   1  -1   18.50    2.70
   5   1  -1   20.60    2.50
   5   1  -1   19.80    3.00
   5   1  -1   14.60    2.90
   5   1  -1   16.50    2.40
  -5  -1   1   15.00    2.70
  -5  -1   1   17.00    2.70
  -5  -1   1   15.10    2.20
  -5  -1   1   20.80    2.80
   4   1  -1    1.00    1.10
   4   1  -1    0.60    0.90
   4   1  -1   -1.00    0.80
   4   1  -1    2.30    0.90
   4   1  -1    0.90    1.30
   4   1  -1    1.20    1.50
   4   1  -1    3.40    1.40
   4   1  -1    1.00    1.50
  -4  -1   1    0.50    1.40
  -4  -1   1    3.30    1.50
  -4  -1   1    1.60    1.30
  -4  -1   1    2.30    1.40
  -4  -1   1    0.60    1.30
  -4  -1   1    1.20    1.10
   3   1  -1  913.11   22.30
   3   1  -1  912.71   28.50
   3   1  -1  893.11   22.40
   3   1  -1  901.61   22.00
   3   1  -1  903.41   28.80
   3   1  -1  908.11   23.20
   3   1  -1  895.61   22.00
   3   1  -1  926.51   25.40
  -3  -1   1  897.41   23.10
  -3  -1   1  918.11   28.30
  -3  -1   1  919.41   22.00
  -3  -1   1  902.01   22.40
  -3  -1   1  884.91   22.00
  -3  -1   1  918.21   22.50
   2   1  -1 1809.92   46.10
   2   1  -1 1825.22   41.70
   2   1  -1 1705.73   51.99
   2   1  -1 1844.92   41.40
   2   1  -1 1878.21   47.90
   2   1  -1 1721.73   41.70
   2   1  -1 1850.11   41.40
  -2  -1   1 1852.51   41.40
  -2  -1   1 1831.02   46.00
  -2  -1   1 1828.72   52.09
  -2  -1   1 1813.22   41.50
  -2  -1   1 1848.42   41.70
   1   1  -1  660.93   15.30
   1   1  -1  639.24   19.50
   1   1  -1  649.54   15.00
   1   1  -1  662.13   15.10
   1   1  -1  654.73   17.40
  -1  -1   1  645.34   17.30
  -1  -1   1  607.94   15.00
  -1  -1   1  659.83   15.30
  -1  -1   1  635.54   15.10
  -1  -1   1  650.03   15.30
   0   1  -1 1122.29   29.00
   0   1  -1 1126.89   32.00
   0   1  -1 1102.39   29.50
   0   1  -1 1110.89   25.40
   0   1  -1 1123.09   25.60
   0   1  -1 1122.19   25.40
   0   1  -1 1107.19   25.60
   0   1  -1  950.30   44.70
   0  -1   1 1138.09   29.60
   0  -1   1 1121.09   44.90
   0  -1   1 1102.39   25.60
   0  -1   1 1116.09   28.90
   0  -1   1 1104.59   25.40
   0  -1   1 1090.29   25.40
   0  -1   1 1131.29   25.60
  -1   1  -1   24.30    1.90
  -1   1  -1   23.20    1.80
  -1   1  -1   24.20    2.30
  -1   1  -1   26.20    2.00
  -1   1  -1   25.70    2.00
  -1   1  -1   24.80    1.90
  -1   1  -1   23.10    1.80
  -1   1  -1   18.60    2.10
   1  -1   1   24.10    1.70
   1  -1   1   20.80    1.60
   1  -1   1   21.20    1.80
   1  -1   1   22.50    2.30
   1  -1   1   24.50    1.80
   1  -1   1   21.20    1.70
   1  -1   1   26.60    2.80
   1  -1   1   28.10    1.80
  -2   1  -1  337.17   10.00
  -2   1  -1  339.37   10.00
  -2   1  -1  338.07   10.10
  -2   1  -1  333.57   11.60
  -2   1  -1  335.37   12.60
  -2   1  -1  367.66   12.20
  -2   1  -1  338.37   10.00
  -2   1  -1  340.47   10.60
   2  -1   1  341.97   11.60
   2  -1   1  349.17   10.00
   2  -1   1  325.37   16.00
   2  -1   1  334.37    9.90
   2  -1   1  340.87   10.00
   2  -1   1  340.87   10.10
   2  -1   1  348.87   10.40
   2  -1   1  329.67   12.70
  -3   1  -1   -1.00    0.80
  -3   1  -1   -0.60    0.90
  -3   1  -1    0.50    0.60
  -3   1  -1   -2.20    1.40
  -3   1  -1    0.00    1.50
  -3   1  -1   -0.20    0.90
  -3   1  -1    0.30    1.30
  -3   1  -1    0.00    1.10
  -3   1  -1   -0.10    1.40
   3  -1   1    0.10    1.40
   3  -1   1   -1.10    1.30
   3  -1   1    2.20    1.80
   3  -1   1    0.40    1.10
   3  -1   1    0.50    1.20
   3  -1   1   -0.90    0.80
  -4   1  -1  128.89    7.50
  -4   1  -1  126.89    6.20
  -4   1  -1  133.99    6.30
  -4   1  -1  129.49    5.60
  -4   1  -1  125.29    4.30
  -4   1  -1  134.19    7.70
   4  -1   1  134.79    6.40
   4  -1   1  127.39    8.00
   4  -1   1  120.19    6.30
  -5   1  -1   11.10    3.30
  -5   1  -1   18.50    3.00
  -5   1  -1   17.70    3.30
  -5   1  -1   14.80    2.00
   5  -1   1   11.00    2.40
   5  -1   1   11.10    2.60
   5  -1   1   12.50    3.60
  -6   1  -1   55.99    5.60
  -6   1  -1   67.19    6.70
  -6   1  -1   58.39    3.80
  -6   1  -1   64.29    5.30
   6  -1   1   63.09    5.10
   6  -1   1   63.49    5.80
   6  -1   1   47.90    7.10
  -7   1  -1  384.76   12.20
  -7   1  -1  372.56   17.60
  -7   1  -1  402.06   15.60
  -7   1  -1  394.36   15.30
   7  -1   1  400.76   19.80
   7  -1   1  376.16   14.70
   7  -1   1  399.86   15.60
  -8   1  -1    4.30    3.30
  -8   1  -1    3.30    3.00
  -8   1  -1    7.00    3.80
   8  -1   1    7.80    4.20
   8  -1   1    6.50    4.40
   8  -1   1    6.60    3.80
   8  -1   1    2.70    2.50
  -9   1  -1   10.70    4.60
  -9   1  -1    9.00    4.30
   9  -1   1   15.80    5.40
   9  -1   1   19.80    4.90
   9  -1   1   19.90    5.20
   9  -1   1   16.10    6.20
 -10   1  -1   14.00    5.00
 -10   1  -1    8.40    3.80
  10  -1   1   11.20    4.90
  10  -1   1   -4.00    6.90
  10  -1   1    4.00    3.50
  11   0  -1    2.90    3.50
  11   0  -1   -8.70    7.40
 -11   0   1   -2.80    2.70
  10   0  -1   -1.00    6.40
  10   0  -1    5.40    4.00
  10   0  -1   -3.50    3.80
 -10   0   1   -2.30    2.90
   9   0  -1   81.19    7.00
   9   0  -1   78.79   10.10
   9   0  -1   67.39    7.40
   9   0  -1   66.39    8.80
  -9   0   1   68.19    7.80
  -9   0   1   58.69    5.90
   8   0  -1   76.19    5.90
   8   0  -1   71.39    8.40
   8   0  -1   71.99    9.00
   8   0  -1   69.79    6.10
  -8   0   1   71.29    6.40
  -8   0   1   74.39    6.20
   7   0  -1  430.26   15.00
   7   0  -1  424.36   20.20
   7   0  -1  405.86   18.70
   7   0  -1  421.26   15.40
  -7   0   1  428.26   15.00
  -7   0   1  444.76   15.50
   6   0  -1   13.30    2.60
   6   0  -1   15.90    4.00
   6   0  -1   10.40    2.80
   6   0  -1   13.80    3.50
  -6   0   1   15.70    3.00
  -6   0   1   15.50    3.00
   5   0  -1    0.60    2.00
   5   0  -1    2.40    1.70
   5   0  -1    4.40    1.70
   5   0  -1    4.70    2.20
   5   0  -1    1.90    1.50
  -5   0   1    3.70    1.60
  -5   0   1    1.70    1.40
  -5   0   1    2.40    1.60
   4   0  -1  180.28    6.70
   4   0  -1  177.88    6.90
   4   0  -1  181.38    9.60
   4   0  -1  179.78    8.80
   4   0  -1  181.78    7.80
   4   0  -1  171.98    6.50
   4   0  -1  187.48    6.30
  -4   0   1  175.88    8.60
  -4   0   1  185.28    7.00
  -4   0   1  174.38    6.80
  -4   0   1  184.28    6.90
   3   0  -1    3.60    1.20
   3   0  -1    2.60    0.90
   3   0  -1    5.20    1.20
   3   0  -1    3.60    1.30
   3   0  -1    3.10    1.50
   3   0  -1    2.50    1.50
   3   0  -1    4.40    1.30
   3   0  -1    2.60    1.00
  -3   0   1    4.80    1.50
  -3   0   1    2.90    1.10
  -3   0   1    4.10    1.30
  -3   0   1    2.80    1.20
  -3   0   1    0.70    0.80
  -3   0   1    1.90    1.30
   2   0  -1  531.65   13.40
   2   0  -1  538.85   17.70
   2   0  -1  526.35   13.50
   2   0  -1  549.54   13.30
   2   0  -1  528.95   16.90
   2   0  -1  543.85   15.80
   2   0  -1  544.75   13.30
   2   0  -1  529.75   13.40
  -2   0   1  540.15   13.50
  -2   0   1  532.85   13.30
  -2   0   1  537.65   17.60
  -2   0   1  532.85   13.30
  -2   0   1  544.45   16.90
  -2   0   1  519.15   13.40
   1   0  -1 2292.47   51.59
   1   0  -1 2303.47   51.69
   1   0  -1 2330.87   51.99
   1   0  -1 2240.38   51.59
   1   0  -1 2322.87   51.49
   1   0  -1 2275.37   65.29
   1   0  -1 2317.87   63.89
  -1   0   1 2286.47   51.69
  -1   0   1 2369.76   51.59
  -1   0   1 2343.57   63.89
  -1   0   1 2290.77   51.59
  -1   0  -1  488.45   14.70
  -1   0  -1  483.15   11.90
  -1   0  -1  476.65   11.90
  -1   0  -1  484.15   13.80
  -1   0  -1  493.35   14.90
  -1   0  -1  483.95   11.80
  -1   0  -1  491.45   11.80
   1   0   1  475.65   14.60
   1   0   1  485.55   13.80
   1   0   1  470.05   11.80
   1   0   1  497.65   11.80
   1   0   1  474.25   11.90
   1   0   1  489.05   11.90
  -2   0  -1  385.16   10.40
  -2   0  -1  371.16   12.70
  -2   0  -1  379.16   10.30
  -2   0  -1  375.26   10.40
  -2   0  -1  362.86   11.90
  -2   0  -1  369.26   10.20
  -2   0  -1  382.06   12.90
   2   0   1  368.26   10.30
   2   0   1  363.66   12.70
   2   0   1  369.86   12.80
   2   0   1  378.36   11.90
   2   0   1  377.16   10.40
   2   0   1  379.96   10.20
   2   0   1  385.66   10.20
  -3   0  -1    7.00    1.70
  -3   0  -1    7.70    1.70
  -3   0  -1    6.40    1.70
  -3   0  -1    8.00    1.50
  -3   0  -1    5.20    1.50
  -3   0  -1    9.50    1.90
  -3   0  -1    6.40    1.10
  -3   0  -1    7.90    1.80
   3   0   1    9.20    2.00
   3   0   1    6.80    1.50
   3   0   1    8.20    1.60
   3   0   1    5.70    1.30
   3   0   1    6.90    1.80
   3   0   1    7.10    1.50
   3   0   1    4.90    1.60
  -4   0  -1   56.59    4.00
  -4   0  -1   54.19    2.90
  -4   0  -1   58.29    4.10
  -4   0  -1   58.89    4.60
  -4   0  -1   49.99    3.60
  -4   0  -1   54.99    5.10
   4   0   1   59.19    3.90
   4   0   1   54.49    3.70
   4   0   1   60.59    3.80
   4   0   1   60.59    4.90
   4   0   1   58.99    5.50
  -5   0  -1    0.30    0.80
  -5   0  -1    2.50    1.60
  -5   0  -1    0.20    1.40
  -5   0  -1    0.20    1.90
   5   0   1   -1.30    1.70
   5   0   1   -0.50    1.30
   5   0   1    1.60    2.20
   5   0   1    1.00    2.30
  -6   0  -1   12.40    3.00
  -6   0  -1   11.30    2.60
  -6   0  -1   12.40    1.60
  -6   0  -1   11.50    3.20
   6   0   1   14.90    3.50
   6   0   1   12.80    3.80
   6   0   1   13.60    3.00
   6   0   1   17.50    4.00
  -7   0  -1   27.60    4.30
  -7   0  -1   26.00    4.70
  -7   0  -1   32.60    4.90
  -7   0  -1   27.20    2.20
   7   0   1   26.60    4.50
   7   0   1   27.60    4.30
   7   0   1   25.10    5.30
   7   0   1   30.00    5.60
  -8   0  -1   -0.50    2.30
  -8   0  -1    5.30    3.10
  -8   0  -1   -1.00    3.10
   8   0   1   -1.50    1.90
   8   0   1   -2.60    4.20
   8   0   1   -0.50    3.00
  -9   0  -1    6.90    3.30
  -9   0  -1   -0.40    2.50
  -9   0  -1    5.80    3.10
   9   0   1   -3.10    5.30
   9   0   1    0.70    2.70
   9   0   1    4.70    3.60
 -10   0  -1    7.60    4.50
 -10   0  -1    6.60    4.30
  10   0   1    2.70    4.90
  10   0   1    8.60    4.40
  10   0   1    6.90    4.40
 -11   0  -1   -0.60    5.00
  11   0   1    1.70    3.50
  11   0   1  -18.60    6.40
  10  -1  -1  -10.70    6.40
  10  -1  -1    2.30    3.30
  10  -1  -1    7.10    4.70
 -10   1   1   11.20    4.80
   9  -1  -1   33.50    5.80
   9  -1  -1   33.70    8.90
   9  -1  -1   28.90    7.60
   9  -1  -1   34.60    5.50
  -9   1   1   37.70    6.10
  -9   1   1   31.00    5.20
   8  -1  -1   -1.10    3.00
   8  -1  -1   -2.20    3.60
   8  -1  -1    2.90    2.80
   8  -1  -1    4.10    4.20
  -8   1   1   -0.10    2.60
  -8   1   1    1.40    2.80
   7  -1  -1   50.79    6.60
   7  -1  -1   81.19    6.20
   7  -1  -1   73.99    9.90
   7  -1  -1   65.69    5.70
  -7   1   1   64.89    6.00
  -7   1   1   65.39    5.70
   6  -1  -1    2.70    2.60
   6  -1  -1    0.90    2.20
   6  -1  -1    1.60    3.00
   6  -1  -1   -0.60    1.70
  -6   1   1    2.70    2.30
  -6   1   1    1.30    1.80
   5  -1  -1    9.60    2.70
   5  -1  -1   10.30    3.30
   5  -1  -1   10.70    2.50
   5  -1  -1   16.00    3.00
  -5   1   1    8.40    2.10
  -5   1   1    9.00    2.50
   4  -1  -1    2.40    2.60
   4  -1  -1    1.10    1.20
   4  -1  -1    2.70    1.50
   4  -1  -1    0.90    1.50
   4  -1  -1    1.30    0.50
   4  -1  -1    0.30    1.30
  -4   1   1    1.00    1.00
  -4   1   1    3.20    1.60
  -4   1   1   -0.30    1.10
  -4   1   1    1.10    1.40
  -4   1   1    1.80    1.40
   3  -1  -1  114.39    6.00
   3  -1  -1  109.89    4.80
   3  -1  -1  106.19    6.70
   3  -1  -1  109.09    4.80
   3  -1  -1  112.79    4.70
   3  -1  -1  115.59    4.90
   3  -1  -1  117.49    5.70
   3  -1  -1  113.89    4.00
  -3   1   1  106.79    6.50
  -3   1   1  113.89    5.00
  -3   1   1  111.39    4.90
  -3   1   1  111.19    4.50
  -3   1   1  124.99    5.90
  -3   1   1  105.59    4.90
  -3   1   1  115.69    4.90
   2  -1  -1  221.48    6.80
   2  -1  -1  216.98    7.80
   2  -1  -1  219.68    8.30
   2  -1  -1  214.78    6.80
   2  -1  -1  217.78    6.80
   2  -1  -1  220.68    6.80
   2  -1  -1  219.68    6.80
   2  -1  -1  209.38    9.10
  -2   1   1  226.08    6.90
  -2   1   1  229.18    7.90
  -2   1   1  213.08    6.80
  -2   1   1  215.18    6.90
  -2   1   1  221.58    9.10
  -2   1   1  224.18    6.70
  -2   1   1  224.48    6.90
  -2   1   1  212.48    6.80
   1  -1  -1  306.27    8.00
   1  -1  -1  291.17    7.80
   1  -1  -1  302.87    8.10
   1  -1  -1  310.67    8.00
   1  -1  -1  293.07    9.00
   1  -1  -1  294.47   14.80
   1  -1  -1  311.37    8.90
   1  -1  -1  295.87   10.50
  -1   1   1  305.87    8.00
  -1   1   1  297.67    8.00
  -1   1   1  303.87    7.90
  -1   1   1  298.87    9.00
  -1   1   1  289.17    8.00
  -1   1   1  307.37   10.50
   0  -1  -1  298.47    9.50
   0  -1  -1  310.17   14.30
   0  -1  -1  297.87    7.60
   0  -1  -1  318.97    7.80
   0  -1  -1  301.87    7.80
   0  -1  -1  294.77    7.60
   0   1   1  317.37   14.30
   0   1   1  321.77    7.60
   0   1   1  320.97    7.90
   0   1   1  312.17    9.60
   0   1   1  317.37    7.70
   0   1   1  317.67    7.80
  -1  -1  -1 1069.49   30.30
  -1  -1  -1 1096.09   24.70
  -1  -1  -1 1064.59   28.30
  -1  -1  -1 1011.50   24.30
  -1  -1  -1 1060.29   24.30
  -1  -1  -1  889.71   43.20
  -1  -1  -1 1081.49   24.60
   1   1   1 1048.50   24.60
   1   1   1 1061.39   30.30
   1   1   1 1076.29   24.30
   1   1   1 1061.99   24.40
   1   1   1 1135.79   43.50
   1   1   1 1091.39   24.70
  -2  -1  -1   72.19    3.40
  -2  -1  -1   75.19    3.40
  -2  -1  -1   74.49    3.20
  -2  -1  -1   75.79    3.00
  -2  -1  -1   70.29    3.30
  -2  -1  -1   75.49    4.20
  -2  -1  -1   74.39    3.20
   2   1   1   73.29    3.10
   2   1   1   73.69    3.50
   2   1   1   74.29    3.30
   2   1   1   68.09    3.30
   2   1   1   77.09    3.30
   2   1   1   81.99    4.40
   2   1   1   81.59    5.00
   2   1   1   77.19    3.00
  -3  -1  -1   19.20    1.90
  -3  -1  -1   28.60    3.40
  -3  -1  -1   21.90    2.30
  -3  -1  -1   15.90    2.10
  -3  -1  -1   20.10    2.00
  -3  -1  -1   19.10    2.30
  -3  -1  -1   17.90    2.10
   3   1   1   22.60    1.90
   3   1   1   20.40    2.10
   3   1   1   22.10    2.10
   3   1   1   20.90    2.00
   3   1   1   21.60    2.80
   3   1   1   18.40    2.30
   3   1   1   16.00    2.50
  -4  -1  -1   77.09    4.40
  -4  -1  -1   77.69    4.40
  -4  -1  -1   73.39    4.20
  -4  -1  -1   76.59    4.60
  -4  -1  -1   76.89    4.30
  -4  -1  -1   82.49    5.90
  -4  -1  -1   79.49    5.30
   4   1   1   77.79    4.30
   4   1   1   82.59    4.60
   4   1   1   65.29    4.10
   4   1   1   76.09    5.20
   4   1   1   79.29    4.20
   4   1   1   78.19    6.00
   4   1   1   81.29    4.30
  -5  -1  -1   28.00    3.40
  -5  -1  -1   25.60    3.20
  -5  -1  -1   27.60    3.20
   5   1   1   27.70    3.70
   5   1   1   22.70    3.80
   5   1   1   26.00    1.80
   5   1   1   17.10    3.60
   5   1   1   23.20    3.10
  -6  -1  -1   99.99    6.50
  -6  -1  -1   85.39    3.80
  -6  -1  -1   93.49    6.00
  -6  -1  -1   84.89    5.40
   6   1   1   98.79    8.10
   6   1   1   91.69    6.10
   6   1   1   94.49    7.30
   6   1   1   96.39    6.00
  -7  -1  -1  242.38   10.50
  -7  -1  -1  226.38   10.10
  -7  -1  -1  211.18    7.00
  -7  -1  -1  240.08   12.00
   7   1   1  227.88   13.30
   7   1   1  216.28   10.20
   7   1   1  219.68   10.20
   7   1   1  211.08   12.70
  -8  -1  -1   16.60    3.60
  -8  -1  -1   20.50    4.10
  -8  -1  -1   20.40    4.40
   8   1   1   21.10    4.30
   8   1   1   30.00    6.10
   8   1   1   17.60    3.70
   8   1   1   22.80    5.90
  -9  -1  -1   10.20    3.20
  -9  -1  -1    8.60    4.20
  -9  -1  -1    9.20    3.40
   9   1   1   10.10    3.50
   9   1   1    5.60    5.00
   9   1   1    7.60    4.40
   9   1   1   16.70    4.50
 -10  -1  -1   -2.60    2.00
 -10  -1  -1    4.80    3.20
 -10  -1  -1   -2.90    3.90
  10   1   1   -0.10    2.60
  10   1   1    0.60    3.60
  10   1   1   -2.40    5.60
 -11  -1  -1    1.90    3.30
  11   1   1    8.30    5.70
  11   1   1    5.00    5.00
  11   1   1    7.40    4.60
  10  -2  -1    0.60    6.20
  10  -2  -1    8.80    5.50
   9  -2  -1    8.60    4.10
   9  -2  -1    6.60    5.20
   9  -2  -1    5.60    7.00
  -9   2   1    6.60    3.50
   8  -2  -1   68.89    6.70
   8  -2  -1   85.79   10.90
   8  -2  -1   71.59    7.40
   8  -2  -1   99.09   13.40
  -8   2   1   65.19    6.40
  -8   2   1   71.39    7.40
   7  -2  -1   93.59   10.40
   7  -2  -1  103.09   12.70
   7  -2  -1   98.99    7.10
   7  -2  -1   94.99    7.50
  -7   2   1   90.39    7.30
  -7   2   1   99.19    7.50
   6  -2  -1    0.60    3.10
   6  -2  -1   -1.00    1.70
   6  -2  -1   -1.60    2.90
   6  -2  -1    1.50    1.90
  -6   2   1    0.30    1.70
  -6   2   1    0.60    2.40
   5  -2  -1    4.80    1.10
   5  -2  -1    3.70    2.90
   5  -2  -1    9.60    2.70
   5  -2  -1    3.90    3.10
   5  -2  -1    3.60    2.10
  -5   2   1    7.50    2.50
  -5   2   1    6.50    2.30
  -5   2   1    5.30    1.80
  -5   2   1    7.40    2.30
   4  -2  -1   20.30    2.90
   4  -2  -1   18.40    2.70
   4  -2  -1   20.30    2.00
   4  -2  -1   21.30    3.00
   4  -2  -1   17.80    3.80
   4  -2  -1   13.00    4.00
  -4   2   1   17.40    2.20
  -4   2   1   21.10    3.10
  -4   2   1   19.40    3.20
  -4   2   1   19.10    2.90
  -4   2   1   18.70    2.40
  -4   2   1   23.50    3.10
   3  -2  -1   45.70    2.90
   3  -2  -1   44.70    3.40
   3  -2  -1   41.50    3.30
   3  -2  -1   47.90    3.40
   3  -2  -1   42.30    3.50
   3  -2  -1   41.90    6.20
   3  -2  -1   36.40    4.40
  -3   2   1   39.90    3.30
  -3   2   1   41.10    3.30
  -3   2   1   43.80    3.50
  -3   2   1   41.40    3.50
  -3   2   1   48.00    3.00
  -3   2   1   42.30    3.20
   2  -2  -1   -0.40    0.80
   2  -2  -1    0.10    1.30
   2  -2  -1   -0.90    1.00
   2  -2  -1    1.10    1.00
   2  -2  -1   -0.50    0.70
   2  -2  -1    0.40    1.40
   2  -2  -1   -0.20    1.80
   2  -2  -1   -0.30    0.70
  -2   2   1   -0.40    0.70
  -2   2   1    0.50    0.80
  -2   2   1    0.00    1.20
  -2   2   1    0.10    1.10
  -2   2   1   -0.80    1.10
  -2   2   1    0.70    1.30
  -2   2   1    1.30    1.30
   1  -2  -1 4081.89   91.09
   1  -2  -1 3989.80  162.98
   1  -2  -1 3895.61   90.69
   1  -2  -1 4020.00   91.19
   1  -2  -1 3967.00   90.79
   1  -2  -1 4055.79  113.89
   1  -2  -1 4060.09  101.89
  -1   2   1 3933.91   91.09
  -1   2   1 4059.99   90.79
  -1   2   1 3933.01   91.19
  -1   2   1 4020.10  111.59
  -1   2   1 4081.19  113.89
  -1   2   1 4018.10  162.88
  -1   2   1 4066.39  101.99
  -1   2   1 4057.89   90.79
   0  -2  -1 2725.93   61.29
   0  -2  -1 2761.42   61.69
   0  -2  -1 2707.03  110.09
   0  -2  -1 2715.83   76.29
   0  -2  -1 2701.23   61.49
   0  -2  -1 2766.92   69.39
   0  -2  -1 2704.83   75.49
   0  -2  -1 2683.93   61.19
   0   2   1 2681.93   61.59
   0   2   1 2790.92  110.19
   0   2   1 2683.73   61.69
   0   2   1 2712.03   61.19
   0   2   1 2753.92   61.29
   0   2   1 2736.13   69.39
   0   2   1 2357.06   74.09
   0   2   1 2729.13   76.39
  -1  -2  -1 1362.06   52.69
  -1  -2  -1 1246.38   29.10
  -1  -2  -1 1229.38   29.10
  -1  -2  -1 1282.07   33.40
  -1  -2  -1 1281.47   35.70
  -1  -2  -1 1249.77   29.60
  -1  -2  -1 1260.27   29.50
   1   2   1 1128.19   33.20
   1   2   1 1286.57   52.49
   1   2   1 1259.77   35.70
   1   2   1 1261.87   29.10
   1   2   1 1248.28   29.10
   1   2   1 1173.58   29.50
   1   2   1 1232.98   35.40
   1   2   1 1251.07   29.60
  -2  -2  -1 1056.29   42.70
  -2  -2  -1  982.50   27.10
  -2  -2  -1  997.00   29.90
  -2  -2  -1  988.30   27.10
  -2  -2  -1 1011.80   24.50
  -2  -2  -1  988.30   24.20
  -2  -2  -1  978.70   23.80
  -2  -2  -1  924.61   23.80
   2   2   1 1013.20   24.40
   2   2   1 1007.30   23.80
   2   2   1 1001.90   30.00
   2   2   1 1016.70   24.40
   2   2   1  982.80   23.80
  -3  -2  -1  114.09    4.90
  -3  -2  -1  125.89    5.10
  -3  -2  -1  115.19    4.60
  -3  -2  -1  114.89    4.80
  -3  -2  -1  125.59    5.20
  -3  -2  -1  121.29    4.80
  -3  -2  -1  119.39    6.50
   3   2   1  113.09    5.00
   3   2   1  115.29    5.30
   3   2   1  116.89    5.00
   3   2   1  131.39    8.20
   3   2   1  113.69    4.70
   3   2   1  111.29    4.50
   3   2   1  117.09    4.70
   3   2   1  124.99    6.50
  -4  -2  -1   44.50    3.40
  -4  -2  -1   48.00    3.40
  -4  -2  -1   45.30    3.50
  -4  -2  -1   50.79    3.40
  -4  -2  -1   49.00    3.50
  -4  -2  -1   46.00    3.10
  -4  -2  -1   39.90    4.10
   4   2   1   49.40    3.40
   4   2   1   47.00    5.30
   4   2   1   49.50    3.20
   4   2   1   45.50    3.40
   4   2   1   44.90    4.40
   4   2   1   42.70    2.90
   4   2   1   41.90    3.90
   4   2   1   46.00    3.40
  -5  -2  -1  665.03   18.90
  -5  -2  -1  627.64   18.30
  -5  -2  -1  685.23   18.60
  -5  -2  -1  653.53   22.70
  -5  -2  -1  678.53   20.80
   5   2   1  668.33   20.50
   5   2   1  649.64   18.80
   5   2   1  654.73   22.80
   5   2   1  650.33   19.10
   5   2   1  628.64   23.80
  -6  -2  -1  299.87   10.90
  -6  -2  -1  279.67    9.70
  -6  -2  -1  269.37   10.50
  -6  -2  -1  303.27   12.10
   6   2   1  303.17   11.40
   6   2   1  298.07   13.70
   6   2   1  301.67   11.30
   6   2   1  307.37   14.90
  -7  -2  -1   50.69    3.20
  -7  -2  -1   56.79    5.10
  -7  -2  -1   57.89    5.20
  -7  -2  -1   52.99    4.70
   7   2   1   59.49    5.50
   7   2   1   51.09    3.10
   7   2   1   48.90    5.90
   7   2   1   46.40    6.80
   7   2   1   50.19    4.90
  -8  -2  -1    8.90    3.00
  -8  -2  -1    7.50    3.50
  -8  -2  -1   13.60    3.80
  -8  -2  -1    6.20    0.90
   8   2   1   11.30    4.10
   8   2   1   10.90    1.90
   8   2   1    2.50    2.40
   8   2   1   10.40    4.00
   8   2   1    4.40    3.20
  -9  -2  -1   -4.50    1.80
  -9  -2  -1    2.50    3.30
  -9  -2  -1   -0.20    2.00
   9   2   1   -1.40    3.00
   9   2   1   -4.80    2.50
   9   2   1   -1.70    2.20
   9   2   1    1.20    3.10
 -10  -2  -1   -0.50    3.40
 -10  -2  -1   -3.50    3.00
 -10  -2  -1   -1.30    2.30
  10   2   1   -1.40    2.00
  10   2   1   -4.40    3.00
  10   2   1   -1.00    2.30
  10   2   1   -2.40    4.60
 -11  -2  -1   -3.00    3.10
 -11  -2  -1    1.70    4.50
  11   2   1   -0.90    3.40
  11   2   1   -6.80    5.60
  11   2   1    1.30    4.10
  11   2   1    2.80    4.50
  12   2   1   -5.40    7.40
   9  -3  -1    0.80    4.90
   9  -3  -1    9.90    4.90
   9  -3  -1  -13.60    6.60
  -9   3   1    1.90    4.10
   8  -3  -1    2.70    3.20
   8  -3  -1   -1.10    3.80
   8  -3  -1    6.10    3.20
   8  -3  -1   -1.10    4.50
  -8   3   1    2.40    3.50
  -8   3   1    4.80    3.40
   7  -3  -1   53.09    6.40
   7  -3  -1   41.10    7.70
   7  -3  -1   47.20    9.10
   7  -3  -1   40.10    5.90
  -7   3   1   47.70    6.10
  -7   3   1   52.99    6.70
   6  -3  -1    2.30    4.90
   6  -3  -1   -2.70    1.60
   6  -3  -1    0.70    3.40
   6  -3  -1   -0.90    1.90
  -6   3   1    1.10    1.60
  -6   3   1    0.30    2.00
  -6   3   1    0.80    2.00
   5  -3  -1    1.20    2.30
   5  -3  -1    0.10    1.50
   5  -3  -1    2.60    4.40
   5  -3  -1   -1.60    2.80
   5  -3  -1    0.70    1.10
  -5   3   1   -0.30    1.60
  -5   3   1    2.50    2.00
  -5   3   1   -1.30    1.70
  -5   3   1    2.10    2.00
  -5   3   1   -0.40    1.20
   4  -3  -1   25.90    3.60
   4  -3  -1   22.20    2.60
   4  -3  -1   24.50    3.40
   4  -3  -1   24.60    5.50
   4  -3  -1   28.30    5.40
  -4   3   1   29.30    3.30
  -4   3   1   20.20    2.70
  -4   3   1   25.20    3.20
  -4   3   1   28.80    4.00
  -4   3   1   24.80    3.80
   3  -3  -1   12.40    2.00
   3  -3  -1   13.60    2.50
   3  -3  -1   17.10    4.10
   3  -3  -1   15.30    2.60
   3  -3  -1    8.80    3.30
  -3   3   1   12.20    1.90
  -3   3   1   16.30    3.00
  -3   3   1   11.70    2.40
  -3   3   1   12.60    2.70
  -3   3   1   13.10    2.60
   2  -3  -1  103.29    9.40
   2  -3  -1  102.19    5.30
   2  -3  -1  107.49    5.30
   2  -3  -1   99.59    5.10
   2  -3  -1  100.09    4.80
   2  -3  -1  108.79    7.30
  -2   3   1  103.19    4.40
  -2   3   1  100.89    5.70
  -2   3   1  104.99    5.30
  -2   3   1  103.39    4.90
  -2   3   1   95.89    5.10
   1  -3  -1   85.79    5.30
   1  -3  -1   63.29    4.50
   1  -3  -1   74.39    4.10
   1  -3  -1   71.99    3.80
   1  -3  -1   73.79    3.70
   1  -3  -1   66.99    3.50
   1  -3  -1   68.99    4.30
   1  -3  -1   64.29    6.60
  -1   3   1   68.49    5.00
  -1   3   1   67.69    3.60
  -1   3   1   63.79    4.10
  -1   3   1   68.99    4.70
  -1   3   1   69.59    2.70
  -1   3   1   68.19    3.60
  -1   3   1   67.09    6.80
  -1   3   1   67.59    3.80
   0  -3  -1  820.22   25.70
   0  -3  -1  823.22   21.00
   0  -3  -1  822.42   20.70
   0  -3  -1  840.62   21.30
   0  -3  -1  832.62   24.00
   0  -3  -1  804.62   37.30
   0  -3  -1  809.22   20.70
   0   3   1  838.72   20.70
   0   3   1  833.52   23.50
   0   3   1  844.62   37.60
   0   3   1  825.32   25.80
   0   3   1  816.32   21.30
   0   3   1  838.92   21.30
   0   3   1  826.92   20.70
   0   3   1  840.02   24.30
  -1  -3  -1  149.09    5.20
  -1  -3  -1  139.59    5.20
  -1  -3  -1  137.69    5.30
  -1  -3  -1  148.89    5.60
  -1  -3  -1  143.99    6.40
  -1  -3  -1  143.29    9.70
  -1  -3  -1  141.69    5.70
  -1  -3  -1  139.99    5.80
   1   3   1  149.49    6.80
   1   3   1  151.28    9.50
   1   3   1  141.79    5.00
   1   3   1  145.49    5.60
   1   3   1  144.89    5.70
   1   3   1  145.99    5.90
   1   3   1  144.99    5.00
   1   3   1  149.49    5.90
  -2  -3  -1   -0.20    0.90
  -2  -3  -1    1.20    1.10
  -2  -3  -1   -0.90    0.80
  -2  -3  -1    0.00    0.80
  -2  -3  -1    1.00    0.90
  -2  -3  -1    0.30    1.10
  -2  -3  -1   -0.50    2.10
   2   3   1   -0.90    0.70
   2   3   1    5.50    1.80
   2   3   1    0.70    0.80
   2   3   1    1.00    1.00
   2   3   1    2.80    1.50
   2   3   1    1.30    1.70
   2   3   1    0.10    1.20
  -3  -3  -1   31.30    2.60
  -3  -3  -1   34.80    4.50
  -3  -3  -1   31.10    2.60
  -3  -3  -1   30.30    3.10
  -3  -3  -1   30.80    2.70
  -3  -3  -1   33.90    3.50
  -3  -3  -1   29.10    2.50
  -3  -3  -1   31.50    2.20
   3   3   1   27.70    2.90
   3   3   1   30.20    2.30
   3   3   1   34.80    3.50
   3   3   1   28.20    2.90
   3   3   1   30.80    2.20
  -4  -3  -1 1107.49   35.00
  -4  -3  -1 1103.79   28.00
  -4  -3  -1 1056.49   30.30
  -4  -3  -1 1094.79   27.40
  -4  -3  -1 1069.09   27.20
  -4  -3  -1 1072.49   28.20
  -4  -3  -1 1095.39   30.50
   4   3   1 1058.59   33.20
   4   3   1 1061.99   28.10
   4   3   1 1138.79   48.50
   4   3   1 1079.49   27.20
   4   3   1 1115.99   30.40
   4   3   1 1062.19   34.90
   4   3   1 1127.09   27.30
   4   3   1 1079.49   28.00
  -5  -3  -1    6.50    1.70
  -5  -3  -1    5.80    1.80
  -5  -3  -1    6.60    1.80
   5   3   1    9.80    3.20
   5   3   1    6.00    2.40
   5   3   1    4.70    2.10
   5   3   1    4.40    2.30
   5   3   1    5.90    1.40
  -6  -3  -1    9.50    2.30
  -6  -3  -1    5.40    2.00
  -6  -3  -1    6.90    2.50
  -6  -3  -1    7.30    1.80
   6   3   1    8.40    3.70
   6   3   1    7.30    2.20
   6   3   1    9.90    2.50
   6   3   1    7.40    1.80
   6   3   1    9.70    2.80
  -7  -3  -1  411.56   14.20
  -7  -3  -1  410.86   14.50
  -7  -3  -1  423.06   15.60
  -7  -3  -1  419.46   13.40
   7   3   1  415.96   19.60
   7   3   1  401.46   15.00
   7   3   1  405.16   14.60
   7   3   1  427.06   17.90
  -8  -3  -1    6.70    3.10
  -8  -3  -1   10.30    3.10
  -8  -3  -1    6.90    3.50
   8   3   1    5.30    3.60
   8   3   1   10.00    4.80
   8   3   1    7.60    3.00
   8   3   1   11.90    2.00
   8   3   1    6.40    3.40
  -9  -3  -1    7.40    3.70
  -9  -3  -1   17.10    4.10
  -9  -3  -1   12.00    3.80
   9   3   1   12.50    5.60
   9   3   1   13.80    4.40
   9   3   1   17.60    4.40
   9   3   1    5.50    3.50
 -10  -3  -1   -2.90    3.30
 -10  -3  -1   -0.10    3.00
 -10  -3  -1   -3.90    2.90
  10   3   1  -10.10    3.90
  10   3   1    0.50    2.50
  10   3   1    1.50    3.40
  10   3   1   -1.50    3.30
 -11  -3  -1   11.80    3.80
 -11  -3  -1   11.90    4.20
 -11  -3  -1    5.50    4.10
  11   3   1   22.50    5.60
  11   3   1   -0.90    5.40
  11   3   1   15.30    5.40
  11   3   1   12.80    6.40
 -12  -3  -1   12.50    5.70
  12   3   1   10.00    4.50
  12   3   1   -7.40    5.90
  12   3   1   -1.40    6.80
   8  -4  -1   25.00    5.90
   8  -4  -1   14.00    6.90
   8  -4  -1   18.90    7.10
  -8   4   1   21.80    5.00
   7  -4  -1   11.10    4.00
   7  -4  -1    2.70    4.80
   7  -4  -1   10.00    3.70
   7  -4  -1   13.10    6.00
  -7   4   1   16.20    4.60
  -7   4   1   11.50    4.60
   6  -4  -1   26.20    7.60
   6  -4  -1   38.50    5.30
   6  -4  -1   23.10    6.60
   6  -4  -1   27.00    4.80
  -6   4   1   28.60    5.20
  -6   4   1   30.10    5.50
  -6   4   1   38.30    4.10
   5  -4  -1   57.99    5.60
   5  -4  -1   64.49    5.60
   5  -4  -1   68.69   10.50
   5  -4  -1   71.59    8.70
  -5   4   1   68.89    6.40
  -5   4   1   69.69    6.40
  -5   4   1   67.59    4.90
  -5   4   1   70.69    5.90
   4  -4  -1  118.59    6.90
   4  -4  -1  119.49    6.90
   4  -4  -1  116.59    9.60
   4  -4  -1  128.89   13.00
  -4   4   1  119.69    7.40
  -4   4   1  114.19    7.40
  -4   4   1  119.69    6.20
  -4   4   1  123.79    6.40
  -4   4   1  120.29    7.60
   3  -4  -1   39.60    7.30
   3  -4  -1   28.80    3.90
   3  -4  -1   29.30    3.20
   3  -4  -1   30.50    5.20
  -3   4   1   32.90    4.20
  -3   4   1   27.90    4.00
  -3   4   1   37.60    3.90
  -3   4   1   31.90    2.80
   2  -4  -1   -1.10    1.50
   2  -4  -1    0.50    2.60
   2  -4  -1   -1.10    1.70
   2  -4  -1   -0.80    1.10
  -2   4   1    2.40    1.70
  -2   4   1   -1.20    1.70
  -2   4   1   -1.40    1.80
  -2   4   1    0.00    0.80
   1  -4  -1  399.56   15.40
   1  -4  -1  391.96   12.20
   1  -4  -1  389.56   14.00
   1  -4  -1  383.96   12.10
   1  -4  -1  399.76   12.70
   1  -4  -1  390.66   21.90
  -1   4   1  389.86   11.80
  -1   4   1  401.36   12.90
  -1   4   1  366.46   12.60
  -1   4   1  379.26   11.70
  -1   4   1  401.06   12.20
  -1   4   1  410.86   14.70
   0  -4  -1  329.17   12.40
   0  -4  -1  328.57   12.90
   0  -4  -1  328.57   19.00
   0  -4  -1  339.67   10.50
   0  -4  -1  344.47   11.00
   0  -4  -1  332.57   10.40
   0   4   1  320.87   10.90
   0   4   1  349.67   13.20
   0   4   1  329.17   10.30
   0   4   1  334.37   20.30
   0   4   1  349.07   13.00
   0   4   1  323.37   11.00
   0   4   1  340.87   10.70
  -1  -4  -1    2.50    1.40
  -1  -4  -1    4.50    1.40
  -1  -4  -1    2.80    2.40
  -1  -4  -1    4.40    1.70
  -1  -4  -1    2.20    1.20
  -1  -4  -1    4.70    1.10
  -1  -4  -1    3.10    1.70
  -1  -4  -1    2.60    1.50
   1   4   1    4.30    1.50
   1   4   1    3.30    1.50
   1   4   1    3.30    1.60
   1   4   1    3.30    1.20
   1   4   1    7.20    2.10
   1   4   1    1.40    2.10
   1   4   1    5.40    1.90
   1   4   1    4.10    1.20
  -2  -4  -1   92.39    4.60
  -2  -4  -1   98.39    4.80
  -2  -4  -1   74.09    8.10
  -2  -4  -1   91.69    4.50
  -2  -4  -1   96.59    4.50
  -2  -4  -1   98.99    5.60
  -2  -4  -1  100.49    5.30
   2   4   1   86.29    5.20
   2   4   1   97.19    4.40
   2   4   1   93.19    4.80
   2   4   1   96.99    4.50
   2   4   1   98.49    4.90
   2   4   1   95.09    8.00
   2   4   1   93.99    5.70
   2   4   1   94.19    4.90
  -3  -4  -1  752.32   34.30
  -3  -4  -1  693.13   19.30
  -3  -4  -1  699.53   19.50
  -3  -4  -1  698.23   23.40
  -3  -4  -1  698.53   18.60
  -3  -4  -1  694.93   18.60
  -3  -4  -1  698.13   21.70
   3   4   1  670.33   23.40
   3   4   1  706.33   18.60
   3   4   1  714.23   18.50
   3   4   1  707.03   19.40
   3   4   1  714.63   33.70
   3   4   1  707.53   22.00
   3   4   1  667.33   19.50
  -4  -4  -1   48.80    3.30
  -4  -4  -1   53.49    3.10
  -4  -4  -1   48.00    3.70
  -4  -4  -1   51.99    4.30
  -4  -4  -1   44.80    6.90
  -4  -4  -1   57.29    4.00
   4   4   1   56.19    5.50
   4   4   1   54.29    4.10
   4   4   1   59.29    4.40
  -5  -4  -1  121.49    5.90
  -5  -4  -1  125.29    6.20
  -5  -4  -1  126.49    5.60
  -5  -4  -1  117.99    6.40
   5   4   1  123.69    6.30
   5   4   1  121.99    8.70
   5   4   1  132.39    6.70
   5   4   1  122.49    6.80
  -6  -4  -1    0.50    1.60
  -6  -4  -1    1.40    1.50
  -6  -4  -1    4.80    1.80
  -6  -4  -1    5.10    2.00
   6   4   1   -0.30    1.50
   6   4   1    3.00    2.40
   6   4   1   -0.50    2.00
   6   4   1    3.50    1.30
   6   4   1    1.60    1.90
  -7  -4  -1    0.10    1.40
  -7  -4  -1    1.60    1.60
  -7  -4  -1    0.00    2.40
  -7  -4  -1    0.10    1.50
   7   4   1   -0.90    2.50
   7   4   1   -1.10    1.70
   7   4   1    2.40    2.70
   7   4   1   -2.00    2.00
  -8  -4  -1    5.50    2.40
  -8  -4  -1    2.60    2.40
  -8  -4  -1    7.50    2.00
  -8  -4  -1    1.60    1.90
   8   4   1    3.00    3.40
   8   4   1    1.20    2.90
   8   4   1    1.30    2.90
   8   4   1    2.60    2.50
  -9  -4  -1    3.50    3.40
  -9  -4  -1   10.40    3.20
  -9  -4  -1    8.30    3.70
   9   4   1    5.60    3.80
   9   4   1   10.20    4.20
   9   4   1    3.90    2.80
   9   4   1    1.70    3.40
 -10  -4  -1   10.20    3.90
 -10  -4  -1    7.00    3.90
 -10  -4  -1    6.50    3.50
  10   4   1    1.60    4.20
  10   4   1   10.30    4.90
  10   4   1   10.80    4.30
  10   4   1   12.80    4.90
 -11  -4  -1    4.30    4.20
 -11  -4  -1   10.70    4.70
 -11  -4  -1   10.30    4.70
  11   4   1   13.80    4.20
  11   4   1    3.90    4.70
  11   4   1   12.50    6.00
  11   4   1   15.10    4.60
 -12  -4  -1   30.70    6.30
  12   4   1   19.40    6.20
  12   4   1    6.70    6.00
  12   4   1   12.30    5.60
  12   4   1   18.20    5.80
  13   4   1  -21.20    6.20
   7  -5  -1   -4.90    3.40
   7  -5  -1   -3.70    4.70
   7  -5  -1   -1.70    4.60
  -7   5   1   -3.60    3.10
   6  -5  -1   11.80    4.10
   6  -5  -1    5.00    5.00
   6  -5  -1   18.60    4.30
   6  -5  -1   -1.90    6.00
  -6   5   1   16.30    4.90
  -6   5   1   12.20    4.70
   5  -5  -1   -1.10    1.70
   5  -5  -1   -0.50    3.00
   5  -5  -1    0.60    3.80
   5  -5  -1    0.00    3.10
  -5   5   1   -2.10    2.00
  -5   5   1   -0.20    1.60
  -5   5   1    3.10    2.60
  -5   5   1    0.20    2.30
   4  -5  -1   20.90    6.20
   4  -5  -1   24.80    5.60
   4  -5  -1   39.50    5.40
   4  -5  -1   32.60    4.40
  -4   5   1   29.30    4.70
  -4   5   1   27.50    4.50
  -4   5   1   36.50    5.40
   3  -5  -1   74.09   10.30
   3  -5  -1   72.49    7.60
   3  -5  -1   66.19    5.20
   3  -5  -1   64.29    5.40
  -3   5   1   65.59    6.30
  -3   5   1   72.89    5.80
  -3   5   1   66.29    6.00
  -3   5   1   62.79    3.70
   2  -5  -1    5.20    3.60
   2  -5  -1    1.60    2.30
   2  -5  -1    4.70    2.00
   2  -5  -1    1.60    2.00
  -2   5   1    4.00    1.00
  -2   5   1    0.50    2.30
  -2   5   1    3.30    2.40
  -2   5   1    3.10    2.00
   1  -5  -1  106.39    5.90
   1  -5  -1   96.59    7.50
   1  -5  -1   92.19    5.50
   1  -5  -1   94.39   10.20
  -1   5   1   92.99    7.00
  -1   5   1   98.59    4.00
  -1   5   1   91.69    6.00
  -1   5   1  102.29    6.10
  -1   5   1   99.29    4.00
   0  -5  -1  269.97   17.60
   0  -5  -1  280.37   12.10
   0  -5  -1  269.07    9.70
   0  -5  -1  294.57   10.00
   0   5   1  284.97   10.60
   0   5   1  284.17   12.40
   0   5   1  282.97    9.60
   0   5   1  275.77   10.60
  -1  -5  -1 1035.10   26.60
  -1  -5  -1 1055.49   48.40
  -1  -5  -1 1017.60   26.60
  -1  -5  -1 1004.50   32.30
   1   5   1 1039.00   31.00
   1   5   1 1022.50   31.60
   1   5   1 1045.20   32.80
   1   5   1 1011.10   27.60
   1   5   1 1038.70   27.90
  -2  -5  -1    7.70    3.40
  -2  -5  -1   12.20    2.40
  -2  -5  -1    8.60    2.20
  -2  -5  -1   10.90    2.00
   2   5   1    9.70    2.20
   2   5   1    9.90    2.30
   2   5   1   13.40    3.20
   2   5   1   11.50    2.30
   2   5   1   13.70    2.80
  -3  -5  -1  118.09   11.80
  -3  -5  -1  129.69    7.20
  -3  -5  -1  122.59    5.90
  -3  -5  -1  135.29    5.80
   3   5   1  133.89    6.80
   3   5   1  124.49    7.70
   3   5   1  120.99    6.20
   3   5   1  129.69    7.30
  -4  -5  -1   36.00    3.40
  -4  -5  -1   22.90    5.60
  -4  -5  -1   31.90    3.00
  -4  -5  -1   23.90    2.30
   4   5   1   36.20    4.70
   4   5   1   34.00    3.50
   4   5   1   28.00    3.50
   4   5   1   23.10    3.60
  -5  -5  -1   31.10    2.70
  -5  -5  -1   35.30    3.80
  -5  -5  -1   30.50    3.10
   5   5   1   37.10    4.00
   5   5   1   26.70    4.60
   5   5   1   31.90    4.20
  -6  -5  -1    6.50    2.20
  -6  -5  -1    6.50    2.00
  -6  -5  -1    8.70    1.80
   6   5   1    5.10    2.30
   6   5   1    4.40    2.40
   6   5   1    4.50    2.30
   6   5   1    4.40    2.90
  -7  -5  -1    0.20    2.50
  -7  -5  -1    3.00    1.90
   7   5   1    2.60    2.40
   7   5   1    0.80    2.00
   7   5   1    2.90    2.20
   7   5   1    0.20    2.60
  -8  -5  -1   54.79    5.50
  -8  -5  -1   64.49    4.90
  -8  -5  -1   58.69    5.90
   8   5   1   63.29    6.40
   8   5   1   43.60    7.00
   8   5   1   58.89    6.50
   8   5   1   65.49    6.00
  -9  -5  -1   12.00    3.90
  -9  -5  -1   21.00    3.70
  -9  -5  -1   17.90    4.50
   9   5   1   18.50    4.10
   9   5   1   17.00    5.20
   9   5   1   14.00    4.50
   9   5   1   20.30    4.80
 -10  -5  -1    1.30    3.00
 -10  -5  -1    7.50    4.00
 -10  -5  -1    7.00    3.50
  10   5   1    3.80    4.30
  10   5   1    5.20    4.00
  10   5   1    9.70    4.40
  10   5   1   11.40    5.20
 -11  -5  -1    0.50    2.60
 -11  -5  -1   -1.20    3.60
  11   5   1   -1.50    4.10
  11   5   1    1.10    4.00
  11   5   1   -2.30    3.50
  11   5   1   -3.30    4.00
 -12  -5  -1    5.80    4.90
 -12  -5  -1   -0.30    2.90
  12   5   1    2.00    4.40
  12   5   1    0.70    4.90
  12   5   1   -3.90    4.50
  12   5   1   -5.30    4.60
  13   5   1  -16.90    5.50
   7  -6  -1   16.60    7.70
   6  -6  -1   14.20    6.70
   6  -6  -1   22.80    5.30
   6  -6  -1   22.90    5.60
   6  -6  -1   16.60    6.60
  -6   6   1   20.10    5.60
   5  -6  -1   -1.20    4.20
   5  -6  -1    0.80    3.30
   5  -6  -1    0.40    2.10
   5  -6  -1   -3.00    4.00
  -5   6   1    2.60    2.30
  -5   6   1    2.70    2.70
  -5   6   1   -0.70    3.70
   4  -6  -1    8.10    3.30
   4  -6  -1    5.80    4.50
   4  -6  -1    4.60    3.30
   4  -6  -1   11.30    5.50
  -4   6   1    4.80    3.40
  -4   6   1    4.50    2.60
  -4   6   1    8.50    3.80
   3  -6  -1    4.30    2.50
   3  -6  -1    8.60    4.00
   3  -6  -1   10.50    3.10
   3  -6  -1    5.80    4.70
  -3   6   1   10.30    3.80
  -3   6   1    4.20    2.70
  -3   6   1    6.90    3.50
   2  -6  -1   45.20    5.00
   2  -6  -1   54.59    9.50
   2  -6  -1   50.39    4.80
   2  -6  -1   58.19    6.90
  -2   6   1   52.29    2.40
  -2   6   1   57.99    5.40
  -2   6   1   49.50    2.30
  -2   6   1   57.09    5.40
  -2   6   1   46.10    6.20
   1  -6  -1  100.79    7.80
   1  -6  -1  108.79    6.60
   1  -6  -1   82.49    5.80
   1  -6  -1   84.89   10.30
  -1   6   1   92.79    4.00
  -1   6   1  104.69    7.00
  -1   6   1  105.19    8.30
  -1   6   1   97.19    6.90
  -1   6   1   84.39    3.90
   0  -6  -1   41.60    5.40
   0  -6  -1   42.80    3.80
   0  -6  -1   38.00    4.40
   0  -6  -1   42.50    7.10
   0   6   1   31.20    4.40
   0   6   1   37.60    4.70
   0   6   1   55.49    6.30
   0   6   1   35.60    2.80
  -1  -6  -1   52.79    8.60
  -1  -6  -1   50.69    4.00
  -1  -6  -1   53.89    4.10
   1   6   1   52.19    6.10
   1   6   1   66.49    5.30
   1   6   1   57.29    4.80
   1   6   1   51.79    4.00
  -2  -6  -1   25.30    3.20
  -2  -6  -1   28.00    3.70
  -2  -6  -1   17.80    5.20
   2   6   1   28.90    4.30
   2   6   1   21.50    4.20
   2   6   1   23.30    1.90
   2   6   1   27.30    3.60
   2   6   1   25.30    3.70
  -3  -6  -1   94.39    6.20
  -3  -6  -1   87.29    5.30
  -3  -6  -1   75.69   12.10
  -3  -6  -1   85.09    5.10
   3   6   1   87.39    6.00
   3   6   1   84.39    6.30
   3   6   1   92.49    6.90
   3   6   1   89.39    5.60
   3   6   1   98.09    6.10
  -4  -6  -1   28.80    7.60
  -4  -6  -1   27.00    3.60
  -4  -6  -1   20.10    3.10
   4   6   1   23.50    3.90
   4   6   1   24.40    4.10
   4   6   1   21.10    3.80
   4   6   1   24.60    3.90
  -5  -6  -1   21.30    3.10
  -5  -6  -1   26.10    2.40
  -5  -6  -1   22.70    3.70
  -5  -6  -1   24.00    5.70
   5   6   1   25.40    4.10
   5   6   1   26.20    4.60
   5   6   1   21.50    4.10
  -6  -6  -1   61.09    5.20
  -6  -6  -1   60.59    5.00
  -6  -6  -1   60.59    3.70
   6   6   1   69.29    5.70
   6   6   1   57.09    5.10
   6   6   1   68.19    7.50
  -7  -6  -1    3.00    2.80
  -7  -6  -1    0.60    2.40
  -7  -6  -1    1.60    1.50
   7   6   1    0.80    2.20
   7   6   1    3.10    3.90
   7   6   1   -3.20    2.70
   7   6   1    1.60    2.10
  -8  -6  -1   13.90    3.10
  -8  -6  -1    8.50    3.60
  -8  -6  -1   11.50    2.70
   8   6   1   11.60    3.50
   8   6   1   10.60    4.10
   8   6   1    7.00    3.60
   8   6   1   14.00    3.70
  -9  -6  -1   57.09    5.00
  -9  -6  -1   53.09    6.50
  -9  -6  -1   62.09    6.30
   9   6   1   47.90    6.70
   9   6   1   52.19    8.00
   9   6   1   64.89    7.40
   9   6   1   69.69    7.30
 -10  -6  -1   10.50    3.50
 -10  -6  -1    5.10    2.70
 -10  -6  -1    5.30    2.90
  10   6   1   -0.90    3.60
  10   6   1    0.90    2.70
  10   6   1    2.20    2.90
  10   6   1    3.30    3.60
 -11  -6  -1    8.80    4.10
 -11  -6  -1    0.50    4.00
  11   6   1    6.20    4.60
  11   6   1    4.00    4.10
  11   6   1    1.50    4.40
  11   6   1    6.90    4.40
 -12  -6  -1   -0.80    3.30
 -12  -6  -1    0.40    4.20
  12   6   1    2.30    4.30
  12   6   1   -5.50    4.60
  12   6   1   -3.50    4.20
  12   6   1   -2.90    4.30
   6  -7  -1   -6.00    5.10
   6  -7  -1   -4.20    4.70
   6  -7  -1    2.00    4.70
  -6   7   1    3.80    4.90
   5  -7  -1   -0.90    4.50
   5  -7  -1   -0.40    3.30
   5  -7  -1   -6.40    5.40
   5  -7  -1   -0.30    3.80
  -5   7   1   -1.40    2.60
  -5   7   1    4.70    4.30
   4  -7  -1   10.70    6.30
   4  -7  -1   10.70    4.10
   4  -7  -1   18.70    5.90
   4  -7  -1   13.20    4.40
  -4   7   1   12.50    4.70
  -4   7   1    4.70    4.50
  -4   7   1   14.20    4.40
   3  -7  -1   -2.40    4.50
   3  -7  -1    1.80    2.70
   3  -7  -1   -3.80    2.70
   3  -7  -1   -0.90    4.00
  -3   7   1    2.10    2.80
  -3   7   1    1.20    3.00
  -3   7   1   -4.80    3.20
   2  -7  -1    0.00    3.80
   2  -7  -1   -1.40    2.70
   2  -7  -1    2.10    2.30
   2  -7  -1    2.20    2.10
  -2   7   1   -4.40    2.80
  -2   7   1    2.30    3.30
  -2   7   1    2.60    3.30
   1  -7  -1   14.20    3.30
   1  -7  -1   16.60    4.70
   1  -7  -1    8.40    5.30
   1  -7  -1   15.50    3.80
  -1   7   1   14.10    4.20
  -1   7   1   22.10    4.50
  -1   7   1    7.90    4.40
   0  -7  -1  174.18    8.50
   0  -7  -1  184.88    9.00
   0  -7  -1  185.48   16.00
   0  -7  -1  181.28   11.00
   0   7   1  194.78   10.10
   0   7   1  165.18    7.20
   0   7   1  179.08    9.60
   0   7   1  184.08   11.30
  -1  -7  -1  238.58   10.00
  -1  -7  -1  227.58    9.90
   1   7   1  226.08   10.60
   1   7   1  219.98   12.30
   1   7   1  223.68    9.50
   1   7   1  222.68   10.70
  -2  -7  -1    1.60    2.30
  -2  -7  -1    1.70    1.80
   2   7   1    1.80    3.00
   2   7   1    3.50    2.30
   2   7   1    1.20    2.50
   2   7   1   -0.40    1.00
   2   7   1    2.00    1.50
  -3  -7  -1    4.70    6.20
  -3  -7  -1   -0.60    1.30
  -3  -7  -1    0.80    2.30
   3   7   1    4.50    3.20
   3   7   1    0.10    1.90
   3   7   1    1.00    1.80
   3   7   1   -2.30    2.30
  -4  -7  -1   22.50    9.00
  -4  -7  -1   11.00    2.50
  -4  -7  -1   13.80    2.80
   4   7   1    6.70    2.60
   4   7   1   14.20    3.30
   4   7   1   10.70    3.30
   4   7   1   17.80    3.60
  -5  -7  -1    2.60    3.90
  -5  -7  -1    0.00    1.20
  -5  -7  -1    2.10    2.40
  -5  -7  -1    3.30    2.40
   5   7   1    2.10    2.60
   5   7   1    1.90    2.00
   5   7   1    0.10    2.20
   5   7   1    0.80    2.50
  -6  -7  -1  398.66   14.00
  -6  -7  -1  396.36   26.20
  -6  -7  -1  409.36   13.20
  -6  -7  -1  408.86   14.40
   6   7   1  389.46   15.40
   6   7   1  409.96   15.80
   6   7   1  416.56   19.40
  -7  -7  -1   -0.90    1.60
  -7  -7  -1   -0.40    2.10
  -7  -7  -1    0.30    1.40
   7   7   1    0.50    2.30
   7   7   1    2.30    3.70
   7   7   1   -2.00    2.90
  -8  -7  -1    0.70    2.40
  -8  -7  -1    3.80    2.00
  -8  -7  -1    8.10    3.20
   8   7   1    1.80    3.00
   8   7   1   -1.30    3.10
   8   7   1    4.60    2.60
   8   7   1   -1.10    3.00
  -9  -7  -1   24.60    4.30
  -9  -7  -1   19.30    3.20
  -9  -7  -1   25.00    4.50
   9   7   1   21.50    4.50
   9   7   1   24.20    5.20
   9   7   1   25.80    6.20
   9   7   1   29.20    5.70
 -10  -7  -1   -1.20    2.40
 -10  -7  -1    3.70    3.40
  10   7   1    8.20    3.60
  10   7   1    6.60    3.50
  10   7   1   -1.70    3.50
  10   7   1    1.40    3.90
 -11  -7  -1    0.40    3.50
 -11  -7  -1    2.20    3.90
  11   7   1    9.80    5.00
  11   7   1    2.90    3.10
  11   7   1    3.60    4.80
  11   7   1    6.40    4.20
 -12  -7  -1    8.10    4.40
 -12  -7  -1    2.80    4.50
  12   7   1    8.40    5.20
  12   7   1   -3.90    6.70
  12   7   1    2.50    5.10
   5  -8  -1   -4.30    6.40
   5  -8  -1   -5.00    5.20
   4  -8  -1    4.50    3.60
   4  -8  -1   -0.70    5.40
   4  -8  -1   -1.10    5.70
   4  -8  -1    0.70    2.80
  -4   8   1    4.90    3.50
  -4   8   1    7.20    4.70
   3  -8  -1    7.10    3.70
   3  -8  -1   -6.50    4.20
   3  -8  -1    5.70    3.20
   3  -8  -1   -5.20    4.70
  -3   8   1    1.90    3.00
  -3   8   1    1.80    4.40
  -3   8   1    2.40    3.10
   2  -8  -1   -2.50    4.40
   2  -8  -1   -0.40    4.10
   2  -8  -1    3.70    3.50
   2  -8  -1    1.30    2.40
  -2   8   1    2.40    4.00
  -2   8   1    4.10    3.80
  -2   8   1    7.40    4.10
   1  -8  -1    7.70    2.80
   1  -8  -1   11.20    3.90
   1  -8  -1    9.00    5.60
   1  -8  -1    6.20    3.30
  -1   8   1   14.00    4.30
  -1   8   1   21.40    4.70
  -1   8   1   10.00    4.00
   0  -8  -1   14.30    6.60
   0  -8  -1   22.70    4.00
   0  -8  -1   24.60    4.50
   0   8   1   11.50    3.70
   0   8   1   18.50    4.30
   0   8   1    9.10    4.70
  -1  -8  -1   13.20    3.20
  -1  -8  -1   11.30    3.00
   1   8   1    8.90    3.30
   1   8   1    8.70    3.40
   1   8   1   13.80    4.20
   1   8   1    9.50    2.30
  -2  -8  -1    1.60    1.90
  -2  -8  -1   -3.40    2.10
  -2  -8  -1    6.60    6.50
   2   8   1    1.70    2.20
   2   8   1   -1.20    1.20
   2   8   1   -1.20    1.60
   2   8   1   -1.30    2.90
   2   8   1    1.40    3.60
   3   8   1   10.10    3.80
  -4  -8  -1   22.70    3.80
  -4  -8  -1   19.40    3.80
  -4  -8  -1   41.50   10.80
   4   8   1   23.30    4.40
   4   8   1   23.30    4.40
   4   8   1   20.90    4.80
  -5  -8  -1   16.40    8.80
  -5  -8  -1   13.20    3.50
  -5  -8  -1   18.70    3.60
   5   8   1   14.60    4.00
   5   8   1   11.60    3.50
   5   8   1   14.70    4.70
   5   8   1   13.50    4.10
  -6  -8  -1   56.59    3.90
  -6  -8  -1   60.49    5.70
  -6  -8  -1   59.29    5.90
  -6  -8  -1   62.79   12.30
   6   8   1   61.79    7.00
   6   8   1   53.89    6.40
   6   8   1   47.30    6.90
  -7  -8  -1   -0.30    1.10
  -7  -8  -1    1.70    2.30
  -7  -8  -1    4.40    2.40
   7   8   1    0.20    3.30
   7   8   1   -0.40    3.50
   7   8   1   -1.00    3.40
  -8  -8  -1  162.38    9.60
  -8  -8  -1  150.18    8.90
   8   8   1  140.09    9.80
   8   8   1  139.99   10.20
   8   8   1  162.58   10.20
   8   8   1  142.59   12.90
  -9  -8  -1    1.40    2.60
  -9  -8  -1    0.40    2.90
   9   8   1    6.80    4.20
   9   8   1    4.20    3.80
   9   8   1    2.30    3.90
   9   8   1    5.00    2.80
 -10  -8  -1   -3.80    2.00
 -10  -8  -1   -1.20    3.40
  10   8   1   -3.50    2.40
  10   8   1    0.90    4.00
  10   8   1    5.10    3.10
  10   8   1   -0.50    3.60
 -11  -8  -1    6.80    4.00
 -11  -8  -1   13.70    5.20
  11   8   1   16.90    7.30
  11   8   1   13.80    4.60
  11   8   1    6.10    4.80
  11   8   1   12.30    4.20
 -12  -8  -1    0.50    4.40
 -12  -8  -1   -0.40    2.90
  12   8   1   -4.30    6.40
  12   8   1    6.70    5.00
  12   8   1    4.20    5.30
   4  -9  -1   -5.00    6.20
   4  -9  -1    3.00    5.00
   3  -9  -1   -3.50    4.90
   3  -9  -1   -3.00    2.50
   3  -9  -1   -2.60    5.30
   3  -9  -1    2.20    2.80
  -3   9   1  -13.20    4.50
  -3   9   1    4.30    4.50
  -3   9   1   -2.20    4.10
   2  -9  -1   12.60    8.80
   2  -9  -1   51.19    7.00
   2  -9  -1   36.70    7.80
   2  -9  -1   33.30    5.50
  -2   9   1   36.10    7.10
  -2   9   1   26.30    7.10
  -2   9   1   33.40    7.00
   1  -9  -1    0.70    2.60
   1  -9  -1    1.90    3.50
   1  -9  -1   -3.50    3.90
  -1   9   1   -2.10    3.80
  -1   9   1   -6.10    4.00
  -1   9   1    0.60    2.60
   0  -9  -1   78.39    7.10
   0  -9  -1   38.10   10.10
   0  -9  -1   82.69    7.50
   0   9   1   60.69    7.90
   0   9   1   71.89    8.60
   0   9   1   64.59    9.10
  -1  -9  -1    3.80   10.40
  -1  -9  -1    1.30    2.50
  -1  -9  -1   -1.00    2.20
   1   9   1    3.30    3.60
   1   9   1   -0.70    2.40
   1   9   1    7.20    3.40
  -2  -9  -1   32.80    4.80
  -2  -9  -1   33.30    4.80
  -2  -9  -1   34.60   12.40
   2   9   1   24.60    5.40
   2   9   1   32.50    4.20
   2   9   1   28.90    5.20
   2   9   1   21.10    5.40
  -3  -9  -1    5.10    3.40
  -3  -9  -1    1.40    2.30
   3   9   1    6.40    4.80
   3   9   1    0.50    2.20
   3   9   1    7.30    3.20
   3   9   1    3.20    3.70
   4   9   1   16.10    5.60
  -5  -9  -1   -6.30    6.50
  -5  -9  -1    4.10    2.60
  -5  -9  -1   -1.70    1.70
   5   9   1   -4.00    3.70
   5   9   1   -0.10    2.60
   5   9   1   -2.40    2.20
   5   9   1    0.60    2.30
  -6  -9  -1    3.60    2.70
  -6  -9  -1    3.90    3.30
  -6  -9  -1  -11.10    8.10
  -6  -9  -1    2.10    1.60
   6   9   1   -1.30    2.40
   6   9   1    2.10    3.40
   6   9   1    1.60    4.10
   6   9   1   -2.00    3.60
  -7  -9  -1   -0.60    2.30
  -7  -9  -1   -1.40    2.70
   7   9   1   -2.10    3.40
   7   9   1    2.60    3.80
   7   9   1    2.50    2.80
  -8  -9  -1    3.10    2.50
  -8  -9  -1    2.40    2.70
   8   9   1    7.50    4.20
   8   9   1    2.90    3.50
   8   9   1    8.20    4.30
  -9  -9  -1   38.00    5.60
  -9  -9  -1   35.40    6.20
   9   9   1   27.20    5.60
   9   9   1   47.30    6.00
   9   9   1   36.10    8.20
   9   9   1   36.00    6.10
 -10  -9  -1   -3.60    3.60
 -10  -9  -1    2.10    2.90
  10   9   1   -0.20    4.00
  10   9   1    4.70    5.60
  10   9   1   -0.40    3.20
 -11  -9  -1    1.00    3.80
 -11  -9  -1    0.30    3.20
  11   9   1    6.90    3.90
  11   9   1   -0.50    4.40
  11   9   1    9.60    5.00
 -12  -9  -1    4.20    4.50
 -12  -9  -1    4.20    5.10
  12   9   1    6.90    5.80
  12   9   1    4.00    4.10
  12   9   1   -4.40    6.80
   3 -10  -1    0.40    7.90
   2 -10  -1    3.10    4.80
   2 -10  -1   -7.80    7.10
   2 -10  -1    9.90    3.90
  -2  10   1   11.80    5.60
  -2  10   1    4.10    5.00
  -2  10   1   -2.60    5.20
   1 -10  -1    1.10    2.70
   1 -10  -1    0.90    3.70
   1 -10  -1   -4.50    7.60
  -1  10   1   -0.40    4.50
  -1  10   1  -10.90    4.40
  -1  10   1   -4.20    2.60
  -1 -10  -1   24.30    4.60
  -1 -10  -1   29.70    5.10
  -1 -10  -1   27.40   15.10
   1  10   1   14.20    6.30
   1  10   1   24.40    5.40
   1  10   1   21.40    4.90
  -2 -10  -1    5.20    3.70
  -2 -10  -1   -0.90    2.40
  -2 -10  -1   -2.10   12.10
   2  10   1    4.70    4.30
   2  10   1    4.70    3.60
   2  10   1   -0.70    3.60
  -3 -10  -1   16.50    4.00
  -3 -10  -1   21.40    4.80
  -3 -10  -1    2.30   16.00
   3  10   1   10.20    4.80
   3  10   1   25.80    5.40
   3  10   1    5.90    5.30
  -4 -10  -1   -1.60    9.60
  -4 -10  -1    1.70    3.50
  -4 -10  -1    1.10    3.20
   4  10   1    0.80    2.80
   4  10   1   -1.40    3.30
   4  10   1    0.60    2.60
  -5 -10  -1   16.10    4.00
  -5 -10  -1   12.60    3.60
  -5 -10  -1   21.60    9.20
   5  10   1   14.90    4.60
   5  10   1   13.40    4.10
   5  10   1    9.10    4.70
   5  10   1   11.80    4.30
  -6 -10  -1   -0.20    3.20
  -6 -10  -1    7.60    6.90
  -6 -10  -1    4.00    2.60
   6  10   1   -2.70    3.00
   6  10   1   -6.00    4.00
   6  10   1    1.30    3.90
   6  10   1    3.70    4.10
  -7 -10  -1    3.00    3.70
  -7 -10  -1    0.60    2.30
  -7 -10  -1    3.40    7.40
   7  10   1    3.80    4.10
   7  10   1    7.00    4.60
  -8 -10  -1   15.20    4.10
  -8 -10  -1   10.10    3.80
   8  10   1   22.30    5.80
   8  10   1    5.10    4.00
   8  10   1   12.30    5.00
  -9 -10  -1    4.70    3.10
  -9 -10  -1    0.50    3.90
   9  10   1    7.70    4.00
   9  10   1    3.10    5.10
   9  10   1    1.50    3.20
 -10 -10  -1   16.20    4.80
 -10 -10  -1   10.10    4.80
  10  10   1   10.30    5.20
  10  10   1   -4.50    2.90
  10  10   1    3.80    4.70
 -11 -10  -1    2.30    4.40
 -11 -10  -1   -3.00    3.80
  11  10   1    4.50    4.30
  11  10   1    2.00    4.80
  11  10   1  -12.00    5.00
  12  10   1   16.70    6.30
   1 -11  -1  -26.20   20.80
   1 -11  -1    8.90    4.00
  -1  11   1    2.30    3.60
  -1  11   1  -19.70    5.10
   0 -11  -1    8.30    4.80
   0 -11  -1    5.20    5.00
   0 -11  -1    3.50   22.80
   0  11   1   18.60    6.00
   0  11   1  -11.50    5.30
   0  11   1   11.30    4.90
  -1 -11  -1    5.30    4.20
  -1 -11  -1  -15.00   20.30
  -1 -11  -1    1.00    4.00
   1  11   1    0.10    3.30
   1  11   1   -2.20    2.80
   1  11   1   -9.70    4.90
  -3 -11  -1   76.89   23.80
  -3 -11  -1    3.00    2.90
  -3 -11  -1   -1.80    3.40
   3  11   1  -11.30    4.50
   3  11   1    0.90    3.20
   3  11   1    0.20    4.30
  -4 -11  -1   10.20    4.60
  -4 -11  -1    6.90   16.20
  -4 -11  -1    9.20    4.20
   4  11   1    2.30    3.40
   4  11   1    8.40    5.00
  -5 -11  -1   18.30    5.20
  -5 -11  -1   24.30   10.70
  -5 -11  -1   19.30    5.00
   5  11   1    9.80    6.20
   5  11   1   18.10    5.20
   5  11   1    3.60    3.70
   5  11   1   17.80    5.80
  -6 -11  -1   70.49    6.80
  -6 -11  -1   68.39    6.90
  -6 -11  -1   92.89   17.80
   6  11   1   62.79   10.10
   6  11   1   81.39    9.40
   6  11   1   78.49    9.50
   6  11   1   83.59    8.40
  -7 -11  -1   11.70    3.90
  -7 -11  -1  -17.70   10.50
  -7 -11  -1   12.90    4.90
   7  11   1   15.40    5.70
   7  11   1   11.90    4.80
   7  11   1   13.00    5.40
  -8 -11  -1    9.50    4.30
  -8 -11  -1    0.90    4.20
   8  11   1   10.00    4.40
   8  11   1    3.60    5.30
   8  11   1    8.30    4.30
  -9 -11  -1    5.90    3.60
  -9 -11  -1    5.80    4.00
   9  11   1    9.80    5.70
   9  11   1   12.00    5.80
   9  11   1    2.20    5.50
 -10 -11  -1   -3.20    4.00
 -10 -11  -1   -5.80    2.10
  10  11   1   -3.10    3.40
  10  11   1    2.40    5.10
  10  11   1    3.30    3.60
 -11 -11  -1   -1.70    4.00
 -11 -11  -1   -2.20    4.60
  11  11   1  -10.20    6.10
  11  11   1    4.10    4.50
  11  11   1    1.70    4.90
  12  11   1    8.40    6.20
   0 -12  -1    2.30    3.60
   0  12   1   -0.70    4.40
  -1 -12  -1   -1.60    4.80
  -1 -12  -1    0.90    4.70
   1  12   1  -11.00    4.30
   1  12   1    8.40    5.90
  -2 -12  -1   12.00    5.60
  -2 -12  -1   12.40    5.30
  -2 -12  -1   -3.20   24.00
   2  12   1    4.20    7.80
   2  12   1    9.30    5.90
   2  12   1    9.20    5.00
  -3 -12  -1    5.00    3.60
  -3 -12  -1    1.90    4.40
   3  12   1    3.50    5.00
   3  12   1   10.80    4.80
   3  12   1  -10.80    5.70
  -4 -12  -1   -3.70    2.60
  -4 -12  -1  -25.00   14.50
  -4 -12  -1    3.40    4.10
   4  12   1    3.00    5.20
   4  12   1   -2.70    4.50
  -5 -12  -1   -0.40   11.30
  -5 -12  -1   -3.80    3.50
  -5 -12  -1    1.90    4.50
   5  12   1    2.10    3.60
   5  12   1   -8.80    5.70
   5  12   1    1.50    5.00
  -6 -12  -1    4.70    4.10
  -6 -12  -1    3.60    8.70
  -6 -12  -1   -3.00    3.80
   6  12   1   -3.30    4.20
   6  12   1    5.40    5.20
   6  12   1    3.20    5.10
  -7 -12  -1   -0.40    2.90
  -7 -12  -1    2.20    4.50
  -7 -12  -1    2.40   11.80
   7  12   1   -5.70    3.70
   7  12   1    4.90    5.40
   7  12   1    6.90    5.20
  -8 -12  -1   21.30    6.00
  -8 -12  -1   29.70    6.00
   8  12   1   14.40    6.40
   8  12   1   24.70    7.40
   8  12   1   18.50    5.60
  -9 -12  -1    4.70    3.50
  -9 -12  -1   17.00    5.20
   9  12   1    9.70    6.00
   9  12   1   12.50    5.30
   9  12   1    7.90    5.80
 -10 -12  -1    4.20    4.10
 -10 -12  -1   -2.60    3.80
  10  12   1    5.30    6.10
  10  12   1   -3.60    5.90
  10  12   1   -0.90    4.70
 -11 -12  -1   -5.20    4.50
  11  12   1   -4.40    5.60
  -3 -13  -1    0.30    5.10
   3  13   1    8.40    5.50
  -4 -13  -1   -0.80    4.80
  -4 -13  -1   -0.30    5.00
   4  13   1   -1.70    4.30
  -5 -13  -1    6.30    4.30
  -5 -13  -1   -1.60    3.50
   5  13   1    3.90    5.80
   5  13   1    6.30    5.10
  -6 -13  -1   31.30   14.40
  -6 -13  -1   -0.90    4.90
  -6 -13  -1    4.50    5.10
   6  13   1   17.70    6.80
   6  13   1    8.00    6.90
  -7 -13  -1   12.30    5.70
  -7 -13  -1   14.10    6.10
   7  13   1   14.60    6.40
   7  13   1   22.30    7.30
  -8 -13  -1    2.50    3.70
  -8 -13  -1   -0.40    3.60
   8  13   1    3.40    5.40
  -9 -13  -1   13.00    4.60
   9  13   1    1.30    6.00
   9  13   1    8.30    6.50
   8  13  -2   -1.70    5.90
   6  13  -2   29.40    7.40
   5  13  -2    9.30    6.40
  -4 -13   2    2.20    3.50
  10  12  -2   -3.50    6.00
   9  12  -2   -6.50    3.90
   9  12  -2    1.60    4.00
   9  12  -2   -2.00    5.70
  -9 -12   2    2.10    5.30
   8  12  -2  -10.60    5.00
   8  12  -2   -9.60    5.00
   8  12  -2    1.80    4.60
  -8 -12   2    0.60    3.30
   7  12  -2   -1.30    5.60
   7  12  -2    6.60    6.10
   7  12  -2    1.70    4.60
   7  12  -2   13.10    6.00
  -7 -12   2   16.80    5.40
  -7 -12   2    3.10    3.20
   6  12  -2    1.80    4.00
   6  12  -2    1.40    4.30
   6  12  -2   -6.20    5.60
   6  12  -2    0.00    5.00
  -6 -12   2   -5.10    3.50
  -6 -12   2   -0.60    4.10
   5  12  -2    9.70    5.90
   5  12  -2    6.60    3.90
   5  12  -2   -6.90    4.30
  -5 -12   2   -5.00    3.20
  -5 -12   2    2.60    4.50
   4  12  -2   12.70    5.70
   4  12  -2   11.40    6.30
   4  12  -2   -0.70    6.30
  -4 -12   2   10.50    4.70
  -4 -12   2  -24.20   12.10
  -4 -12   2    7.60    4.00
   3  12  -2    4.20    3.90
   3  12  -2    3.30    4.30
   3  12  -2   -0.30    4.90
  -3 -12   2   -1.30    9.80
  -3 -12   2   -3.60    3.70
  -3 -12   2   -1.00    4.50
   2  12  -2   -1.30    3.90
   2  12  -2   -1.00    4.70
  -2 -12   2   -4.30    4.00
  -2 -12   2   15.70   10.60
  -2 -12   2    0.60    4.50
   1  12  -2   -0.90    4.10
  10  11  -2    6.40    5.40
  10  11  -2    1.40    4.50
 -10 -11   2   -0.90    3.90
   9  11  -2  -11.40    4.10
   9  11  -2   -0.10    3.80
   9  11  -2    3.10    3.60
  -9 -11   2   -2.00    3.90
   8  11  -2   -5.10    4.90
   8  11  -2   -0.70    4.30
   8  11  -2    4.90    4.40
  -8 -11   2    2.70    3.30
  -8 -11   2   -0.80    3.20
   7  11  -2   18.10    6.90
   7  11  -2   25.20    5.50
   7  11  -2   25.40    7.00
   7  11  -2   32.80    6.80
  -7 -11   2   46.70    6.80
  -7 -11   2   34.60    5.80
   6  11  -2    2.50    3.90
   6  11  -2   -6.10    5.00
   6  11  -2   -2.50    4.00
   6  11  -2   -1.00    3.50
  -6 -11   2    3.20    4.00
  -6 -11   2    0.60    2.50
  -6 -11   2   -1.10    3.30
   5  11  -2    2.20    3.70
   5  11  -2   -1.10    3.90
   5  11  -2   -5.30    4.70
   5  11  -2   -0.50    2.80
  -5 -11   2    2.70    3.00
  -5 -11   2   -7.60    2.60
  -5 -11   2    0.50    3.90
   4  11  -2   -0.20    2.80
   4  11  -2    3.20    4.30
   4  11  -2    3.20    5.60
   4  11  -2    2.80    3.30
  -4 -11   2    3.30    3.90
  -4 -11   2   -0.20    2.70
  -4 -11   2    0.40    2.40
   3  11  -2   10.10    4.30
   3  11  -2    5.40    5.70
   3  11  -2    6.30    4.20
  -3 -11   2    4.10    3.20
  -3 -11   2  -15.00   10.90
  -3 -11   2    5.40    4.30
   2  11  -2   -1.00    4.30
   2  11  -2    4.50    4.50
   2  11  -2    6.00    6.20
  -2 -11   2    2.40    3.00
  -2 -11   2   14.00   10.50
  -2 -11   2    0.70    2.90
   1  11  -2    3.90    5.00
   1  11  -2    5.40    6.20
   1  11  -2    6.90    4.40
  -1 -11   2    3.90    3.40
  -1 -11   2    7.90    3.90
   0  11  -2    2.50    6.60
   0  11  -2    6.20    6.20
   0  11  -2    1.10    4.60
   0 -11   2    3.70    3.70
   0 -11   2   -1.50    4.40
  -1  11  -2  -14.00    6.10
   1 -11   2    1.50    5.50
  11  10  -2   -3.30    4.40
  11  10  -2    0.70    4.40
 -11 -10   2    1.50    4.60
  10  10  -2    4.10    4.50
  10  10  -2    9.90    4.30
 -10 -10   2   11.20    4.10
   9  10  -2    5.90    4.30
   9  10  -2    1.60    4.70
   9  10  -2    7.90    5.50
   9  10  -2   17.40    5.20
  -9 -10   2   13.40    4.00
   8  10  -2    3.60    3.80
   8  10  -2   -1.30    3.10
   8  10  -2   -0.70    4.10
  -8 -10   2    0.70    2.30
  -8 -10   2    3.70    3.00
   7  10  -2   -3.60    3.10
   7  10  -2   -1.50    3.10
   7  10  -2   -4.30    3.30
   7  10  -2    0.40    2.50
  -7 -10   2   -0.30    2.20
  -7 -10   2   -1.30    3.00
   6  10  -2   -0.50    3.50
   6  10  -2   -4.00    2.40
   6  10  -2    1.10    2.40
   6  10  -2   -2.40    2.20
  -6 -10   2   -0.60    3.00
  -6 -10   2   -4.90    2.70
  -6 -10   2    3.50    3.30
   5  10  -2   12.90    4.20
   5  10  -2   17.40    5.50
   5  10  -2   17.00    5.20
   5  10  -2    7.30    4.40
  -5 -10   2   14.90    4.10
  -5 -10   2   13.90    3.60
  -5 -10   2   18.10    4.70
   4  10  -2    3.00    3.30
   4  10  -2    4.20    3.30
   4  10  -2    0.90    3.50
   4  10  -2    2.10    3.80
  -4 -10   2    9.80    7.60
  -4 -10   2   11.00    4.00
  -4 -10   2    4.00    2.80
  -4 -10   2    5.60    3.20
   3  10  -2    1.90    3.70
   3  10  -2   -3.90    4.10
   3  10  -2    2.10    2.80
   3  10  -2   -0.90    2.70
  -3 -10   2   -2.20    2.30
  -3 -10   2    1.40    2.70
  -3 -10   2   -0.80    2.90
  -3 -10   2    1.70    8.20
   2  10  -2    6.30    4.40
   2  10  -2    8.20    4.30
   2  10  -2    9.20    5.70
   2  10  -2    9.30    3.50
  -2 -10   2   10.00    9.60
  -2 -10   2    3.70    3.10
  -2 -10   2    3.40    2.90
   0  10  -2    5.50    3.50
   0  10  -2   -6.80    2.60
   0  10  -2    4.50    4.80
   0 -10   2    1.70   15.80
   0 -10   2    2.40    4.10
   0 -10   2   -6.50    3.30
  -1  10  -2   29.70    7.10
  -1  10  -2   16.30    5.70
  -1  10  -2   15.20    5.30
   1 -10   2   44.40   20.70
   1 -10   2   33.10    6.70
   1 -10   2   23.40    5.30
  -2  10  -2    4.30    4.40
  -2  10  -2    0.60    5.70
  -2  10  -2   -0.50    3.10
   2 -10   2    6.40    4.20
   2 -10   2    8.90    4.30
  12   9  -2    5.40    3.40
  11   9  -2   -1.30    5.60
  11   9  -2    5.80    4.30
  11   9  -2   -2.30    2.70
 -11  -9   2    1.50    3.00
  10   9  -2   38.00    6.40
  10   9  -2   27.00    7.10
  10   9  -2   40.80    6.90
 -10  -9   2   24.70    5.30
   9   9  -2    1.90    3.10
   9   9  -2    1.10    4.40
   9   9  -2   -5.20    3.70
   9   9  -2    0.20    3.50
  -9  -9   2    4.20    2.90
  -9  -9   2   -3.20    2.60
   8   9  -2   -4.10    3.30
   8   9  -2    0.20    2.40
   8   9  -2   -2.80    3.40
   8   9  -2   -1.80    2.50
  -8  -9   2    1.80    2.80
  -8  -9   2    4.90    2.90
   7   9  -2   -0.20    2.40
   7   9  -2    3.70    3.50
   7   9  -2    1.20    4.10
   7   9  -2    4.40    3.50
  -7  -9   2    4.10    3.50
  -7  -9   2   -1.30    2.40
   6   9  -2   45.10    6.50
   6   9  -2   64.69    8.50
   6   9  -2   66.99    6.90
   6   9  -2   65.29    8.10
  -6  -9   2   65.59    6.10
  -6  -9   2   63.29    5.40
  -6  -9   2   70.19    6.70
   5   9  -2    0.80    3.00
   5   9  -2    1.50    3.20
   5   9  -2   -0.40    3.50
   5   9  -2    7.60    4.70
  -5  -9   2    8.80    3.10
  -5  -9   2    2.60    2.50
  -5  -9   2    8.20    3.30
   4   9  -2   62.49    6.30
   4   9  -2   46.70    6.60
   4   9  -2   48.20    7.00
   4   9  -2   49.20    7.80
  -4  -9   2   61.29    5.40
  -4  -9   2   59.39   12.20
  -4  -9   2   52.79    5.10
  -4  -9   2   55.49    5.50
   3   9  -2    1.60    3.50
   3   9  -2    1.70    3.40
   3   9  -2    0.70    2.60
   3   9  -2    0.90    2.90
  -3  -9   2   -4.70    2.50
  -3  -9   2    3.40    2.40
  -3  -9   2   10.90    8.30
   2   9  -2    6.30    3.90
   2   9  -2    8.40    3.20
   2   9  -2   12.50    4.70
   2   9  -2    6.80    4.60
  -2  -9   2    8.10    3.60
  -2  -9   2   13.90    3.70
  -2  -9   2    6.60    9.50
   1   9  -2    2.60    2.60
   1   9  -2    6.60    3.90
   1   9  -2    0.20    3.00
   1   9  -2    1.80    4.30
  -1  -9   2    4.10    3.40
  -1  -9   2  -11.00   10.90
  -1  -9   2    3.50    3.30
   0   9  -2   -2.60    3.50
   0   9  -2   -0.10    3.20
   0   9  -2    3.20    4.00
   0  -9   2  -15.00   11.70
   0  -9   2   -1.50    2.20
   0  -9   2   -0.90    3.40
  -2   9  -2    2.40    3.20
  -2   9  -2   -0.10    3.00
  -2   9  -2   -3.80    4.00
   2  -9   2  -25.20   13.50
   2  -9   2    3.10    3.10
   2  -9   2    1.20    4.00
  -3   9  -2   -0.10    3.80
  -3   9  -2   -6.70    4.00
  -3   9  -2    4.50    4.90
   3  -9   2   -2.90    4.00
   3  -9   2    2.60    4.20
  -4   9  -2   -5.10    5.40
  13   8  -2   20.40    7.70
  12   8  -2   17.10    5.40
  12   8  -2   24.20    6.50
  12   8  -2    8.20    7.90
 -12  -8   2   20.90    5.80
  11   8  -2    0.90    4.40
  11   8  -2    2.80    5.00
  11   8  -2    5.10    4.70
 -11  -8   2    1.00    3.60
  10   8  -2    6.40    4.30
  10   8  -2   -1.10    4.70
  10   8  -2    4.80    4.00
 -10  -8   2    2.90    3.20
   9   8  -2   -2.80    1.90
   9   8  -2   -1.40    2.70
   9   8  -2   -0.50    3.30
   9   8  -2   -5.20    3.00
  -9  -8   2    4.30    3.00
  -9  -8   2   -0.60    2.90
   8   8  -2    1.10    2.90
   8   8  -2   -1.60    3.70
   8   8  -2    1.50    3.00
   8   8  -2    3.90    3.50
  -8  -8   2    4.90    3.20
  -8  -8   2    4.20    2.80
   7   8  -2   43.90    7.30
   7   8  -2   46.60    6.20
   7   8  -2   40.00    5.80
  -7  -8   2   54.29    5.80
  -7  -8   2   47.70    4.60
   6   8  -2    8.30    4.30
   6   8  -2    6.40    2.90
   6   8  -2   11.00    4.10
   6   8  -2   10.30    3.40
  -6  -8   2    0.60    2.10
  -6  -8   2   12.10    3.70
  -6  -8   2   10.30    2.70
   5   8  -2  256.67   12.70
   5   8  -2  245.58   15.00
   5   8  -2  263.87   11.90
   5   8  -2  250.07   14.40
  -5  -8   2  255.37   10.80
  -5  -8   2  264.27   11.00
  -5  -8   2  259.27   11.10
   4   8  -2    7.60    2.90
   4   8  -2    1.40    2.70
   4   8  -2    0.80    2.70
   4   8  -2    1.50    2.40
  -4  -8   2    1.60    2.90
  -4  -8   2    0.60    2.20
  -4  -8   2    0.70    4.60
  -4  -8   2    1.60    2.50
   3   8  -2   -0.50    2.20
   3   8  -2    2.20    2.30
   3   8  -2    0.30    2.10
   3   8  -2    0.70    2.30
  -3  -8   2    0.90    2.10
  -3  -8   2   -9.80    5.00
  -3  -8   2    0.30    1.60
   2   8  -2    9.20    3.20
   2   8  -2    9.70    3.30
   2   8  -2    3.10    3.80
   2   8  -2   11.30    4.20
  -2  -8   2   45.20   11.60
  -2  -8   2    8.20    3.40
  -2  -8   2   11.20    2.90
   0   8  -2    0.60    2.00
   0   8  -2    1.70    3.20
   0   8  -2   -1.20    2.30
   0   8  -2   -3.20    3.30
   0  -8   2    4.90   10.20
   0  -8   2    0.80    3.10
   0  -8   2   -3.90    1.60
  -1   8  -2   51.59    7.20
  -1   8  -2   41.30    7.30
  -1   8  -2   44.30    6.60
  -1   8  -2   50.59    5.70
   1  -8   2   55.39    5.80
   1  -8   2   45.90   12.80
   1  -8   2   50.19    6.50
  -2   8  -2  106.89   10.80
  -2   8  -2  114.79   10.10
  -2   8  -2  103.19    9.30
   2  -8   2  103.39    8.00
   2  -8   2   89.49   15.80
   2  -8   2  103.69    8.60
  -3   8  -2   22.00    5.70
  -3   8  -2    6.60    5.00
  -3   8  -2   12.10    5.10
   3  -8   2   17.80    5.10
   3  -8   2   17.20    5.10
   3  -8   2   -0.80    8.60
  -4   8  -2   11.80    5.50
  -4   8  -2   13.00    4.50
  -4   8  -2   11.40    5.50
   4  -8   2    9.60    5.00
   4  -8   2   19.60    7.70
   4  -8   2   16.50    5.60
  -5   8  -2    0.40    4.40
   5  -8   2   -3.30    3.30
   5  -8   2    1.10    4.30
  13   7  -2   27.20    8.50
  12   7  -2   15.20    8.20
  12   7  -2   19.50    5.30
  12   7  -2   25.30    6.90
 -12  -7   2   10.40    5.10
  11   7  -2   10.40    4.80
  11   7  -2   10.80    4.90
  11   7  -2    5.00    5.10
 -11  -7   2    0.20    3.60
  10   7  -2   17.50    4.70
  10   7  -2   15.80    4.80
  10   7  -2   17.40    6.90
  10   7  -2    5.20    3.40
 -10  -7   2   12.50    3.70
   9   7  -2    1.40    2.70
   9   7  -2   -4.40    3.50
   9   7  -2    0.10    3.10
   9   7  -2    0.60    2.80
  -9  -7   2   -3.80    2.20
  -9  -7   2    0.20    2.90
   8   7  -2   -3.40    2.70
   8   7  -2   -1.10    2.50
   8   7  -2    1.50    2.40
   8   7  -2   -2.20    2.60
  -8  -7   2    4.80    3.10
  -8  -7   2   -0.90    2.20
   7   7  -2   56.59    6.60
   7   7  -2   57.89    7.70
   7   7  -2   62.99    6.10
   7   7  -2   67.49    6.80
  -7  -7   2   63.69    4.90
  -7  -7   2   71.69    6.00
   6   7  -2   17.70    4.00
   6   7  -2   13.80    3.80
   6   7  -2    7.20    4.30
   6   7  -2    9.80    3.60
  -6  -7   2   13.90    3.10
  -6  -7   2   11.40    3.30
  -6  -7   2    4.00    3.30
   5   7  -2   45.80    5.00
   5   7  -2   58.99    6.90
   5   7  -2   47.50    4.80
   5   7  -2   54.09    7.10
  -5  -7   2   61.99    5.30
  -5  -7   2   59.19    4.50
  -5  -7   2   54.89    5.20
   4   7  -2   13.80    3.70
   4   7  -2   10.50    3.20
   4   7  -2   10.30    3.10
  -4  -7   2   13.30    3.40
  -4  -7   2    8.90    5.20
  -4  -7   2    6.80    2.90
  -4  -7   2   13.00    2.70
  -4  -7   2   16.10    1.60
   3   7  -2   21.80    4.00
   3   7  -2    9.20    3.10
   3   7  -2   14.20    3.30
   3   7  -2   12.50    3.50
  -3  -7   2   11.60    6.60
  -3  -7   2   14.40    2.30
  -3  -7   2   10.80    3.20
  -3  -7   2   19.00    3.40
   2   7  -2    3.20    3.30
   2   7  -2   -1.70    2.60
   2   7  -2    1.60    2.70
   2   7  -2    1.50    2.10
  -2  -7   2   -0.60    2.30
  -2  -7   2   10.30    7.00
  -2  -7   2    3.90    2.50
   1   7  -2    5.70    2.60
   1   7  -2    4.00    2.40
   1   7  -2    0.40    2.90
   1   7  -2    0.60    2.20
  -1  -7   2    0.00    1.80
  -1  -7   2    2.40    2.00
  -1  -7   2   -0.20    7.80
   0   7  -2    1.60    2.30
   0   7  -2    4.40    3.30
   0   7  -2   -1.30    1.90
   0   7  -2    2.00    2.10
   0  -7   2   -2.30    2.40
   0  -7   2    3.40    2.80
  -2   7  -2    0.60    2.50
  -2   7  -2   -1.00    2.30
  -2   7  -2    0.60    3.40
   2  -7   2    3.00    3.40
   2  -7   2   -3.10    4.40
   2  -7   2   -1.00    2.10
   2  -7   2   -0.90    2.70
  -3   7  -2   23.70    5.20
  -3   7  -2   23.70    5.20
  -3   7  -2   14.30    4.80
   3  -7   2   12.30    5.90
   3  -7   2   19.50    4.40
   3  -7   2   26.90    5.00
   3  -7   2   17.60    6.20
  -4   7  -2    0.60    2.60
  -4   7  -2   -7.70    2.80
  -4   7  -2    4.60    4.40
   4  -7   2    1.40    5.60
   4  -7   2   -8.20    5.30
   4  -7   2    2.50    3.00
   4  -7   2   -2.90    2.30
  -5   7  -2   -2.30    3.80
  -5   7  -2   -0.30    3.10
   5  -7   2    0.40    2.90
   5  -7   2    6.70    5.10
   5  -7   2    1.50    4.30
  -6   7  -2   -4.30    3.30
   6  -7   2   -2.60    4.40
   6  -7   2    0.20    3.80
  13   6  -2    7.50    7.20
  12   6  -2   13.90    5.60
  12   6  -2    9.60    7.40
  12   6  -2   12.70    6.30
 -12  -6   2    4.50    4.70
  11   6  -2    6.30    5.00
  11   6  -2   -2.00    3.50
  11   6  -2    0.00    3.30
 -11  -6   2   -4.20    2.90
  10   6  -2   -0.80    4.40
  10   6  -2    1.70    2.90
  10   6  -2    3.80    3.30
  10   6  -2   -2.30    3.00
 -10  -6   2    1.30    2.60
 -10  -6   2   -2.40    2.90
 -10  -6   2   -2.00    2.60
   9   6  -2    2.30    2.90
   9   6  -2    7.10    3.20
   9   6  -2    6.90    4.20
   9   6  -2    9.60    3.00
  -9  -6   2    8.00    3.10
  -9  -6   2    3.20    2.90
  -9  -6   2    5.10    2.40
   8   6  -2    4.10    2.90
   8   6  -2   -1.20    2.30
   8   6  -2    2.40    3.00
   8   6  -2   -3.20    2.80
   8   6  -2    2.50    3.00
  -8  -6   2    0.20    2.00
  -8  -6   2   -0.20    1.70
  -8  -6   2   -2.50    1.90
   7   6  -2   15.30    3.70
   7   6  -2   10.60    3.20
   7   6  -2   11.00    4.20
   7   6  -2   12.40    3.60
  -7  -6   2   18.80    3.00
  -7  -6   2   15.90    2.60
  -7  -6   2   14.60    3.00
   6   6  -2    1.80    2.50
   6   6  -2   -0.50    1.60
   6   6  -2    2.10    2.50
  -6  -6   2    6.10    2.40
  -6  -6   2    3.30    2.50
   5   6  -2  152.18    8.30
   5   6  -2  168.78   11.10
   5   6  -2  160.68    9.30
   5   6  -2  161.18    8.00
  -5  -6   2  148.69    7.50
  -5  -6   2  167.68    7.60
  -5  -6   2  139.89    6.70
   4   6  -2    2.10    2.10
   4   6  -2    7.50    2.40
   4   6  -2    0.50    2.10
   4   6  -2    1.90    2.40
  -4  -6   2    4.80    2.10
  -4  -6   2    2.10    0.40
  -4  -6   2    5.00    2.20
  -4  -6   2    1.60    2.00
   3   6  -2    5.50    2.70
   3   6  -2   -0.90    1.70
   3   6  -2    1.60    2.10
   3   6  -2   -0.50    1.30
  -3  -6   2   -0.50    1.30
  -3  -6   2   -0.40    1.60
  -3  -6   2    4.10    2.90
  -3  -6   2    2.10    1.00
   2   6  -2  119.49    8.00
   2   6  -2  117.69    6.90
   2   6  -2  106.29    6.60
   2   6  -2  113.09    7.80
  -2  -6   2  122.19    6.20
  -2  -6   2  129.89   12.70
  -2  -6   2  122.89    6.50
  -2  -6   2  105.09    5.60
   1   6  -2   39.00    5.40
   1   6  -2   35.40    4.70
   1   6  -2   41.50    4.80
   1   6  -2   51.89    4.80
  -1  -6   2   46.40    4.30
  -1  -6   2   48.80    9.60
  -1  -6   2   41.70    4.30
   0   6  -2   20.90    3.80
   0   6  -2   22.20    4.00
   0   6  -2   19.90    4.30
   0  -6   2   15.70    2.90
   0  -6   2   16.90    3.10
  -1   6  -2  639.74   23.90
  -1   6  -2  664.93   21.90
  -1   6  -2  658.83   21.30
   1  -6   2  636.84   20.10
   1  -6   2  613.24   34.30
   1  -6   2  674.83   20.50
  -2   6  -2   60.89    6.60
  -2   6  -2   55.09    6.30
  -2   6  -2   63.99    5.90
   2  -6   2   66.69    6.20
   2  -6   2   64.69    5.60
   2  -6   2   73.39    8.90
  -3   6  -2   30.60    5.70
  -3   6  -2   30.80    5.50
  -3   6  -2   28.80    5.30
   3  -6   2   31.80    4.90
   3  -6   2   25.90    6.30
   3  -6   2   26.30    6.30
   3  -6   2   31.80    5.30
  -4   6  -2   -1.80    3.20
  -4   6  -2   -1.00    2.70
  -4   6  -2   -0.90    3.50
   4  -6   2   -1.10    4.60
   4  -6   2   -6.60    2.90
   4  -6   2    1.20    2.60
   4  -6   2   -0.70    3.00
  -5   6  -2    1.30    4.20
  -5   6  -2    1.90    3.90
  -5   6  -2   -0.50    3.30
   5  -6   2    1.10    3.40
   5  -6   2    6.20    4.60
   5  -6   2   -4.90    3.00
  -6   6  -2   -2.20    4.00
  -6   6  -2    2.70    4.80
   6  -6   2   -1.40    4.70
   6  -6   2   -2.90    2.20
   6  -6   2   -1.20    3.80
  -7   6  -2    1.30    5.40
   7  -6   2    5.00    4.90
  12   5  -2   -0.20    4.30
  12   5  -2  -11.20    5.40
  12   5  -2   -2.10    3.40
 -12  -5   2    1.10    4.00
  11   5  -2   -0.70    5.50
  11   5  -2   -2.30    3.40
  11   5  -2    7.40    4.20
 -11  -5   2   -4.40    3.00
  10   5  -2    3.30    4.30
  10   5  -2   -2.10    1.80
  10   5  -2    1.70    4.00
  10   5  -2    3.70    2.90
 -10  -5   2   -5.00    2.60
 -10  -5   2   -1.40    1.70
   9   5  -2    4.50    3.50
   9   5  -2    6.80    3.50
   9   5  -2    8.60    3.70
   9   5  -2    6.90    3.10
  -9  -5   2    7.60    3.30
  -9  -5   2    8.10    3.00
   8   5  -2   -4.00    1.10
   8   5  -2   -1.00    1.80
   8   5  -2   -0.10    2.40
   8   5  -2   -3.90    2.00
  -8  -5   2    1.20    2.10
  -8  -5   2   -1.10    2.30
   7   5  -2    0.70    2.20
   7   5  -2    2.50    1.80
   7   5  -2    3.20    2.40
   7   5  -2    1.60    2.10
  -7  -5   2    2.80    1.70
  -7  -5   2   -0.40    1.80
  -7  -5   2    2.00    2.50
   6   5  -2  185.38    9.40
   6   5  -2  193.08    8.80
   6   5  -2  210.78   12.80
   6   5  -2  211.28    9.50
  -6  -5   2  208.38    8.60
  -6  -5   2  195.48    8.10
  -6  -5   2  197.48    6.90
   5   5  -2   16.20    3.10
   5   5  -2   16.30    2.80
   5   5  -2   14.00    2.50
   5   5  -2   15.10    3.50
   5   5  -2   13.50    2.70
  -5  -5   2   18.10    3.20
  -5  -5   2   16.40    2.70
  -5  -5   2   18.50    3.00
  -5  -5   2   16.00    2.80
   4   5  -2  209.28   10.10
   4   5  -2  219.58    8.80
   4   5  -2  214.48   11.50
   4   5  -2  195.48    8.70
   4   5  -2  222.98    8.10
  -4  -5   2  199.88    7.70
  -4  -5   2  226.88    8.30
  -4  -5   2  223.68    8.90
  -4  -5   2  225.48    8.90
   3   5  -2   51.49    4.30
   3   5  -2   44.50    3.90
   3   5  -2   53.29    3.40
   3   5  -2   56.89    5.20
   3   5  -2   42.00    5.00
  -3  -5   2   47.70    3.70
  -3  -5   2   40.30    3.60
  -3  -5   2   45.00    3.60
  -3  -5   2   48.60    2.30
  -3  -5   2   46.40    3.30
   2   5  -2    1.60    1.50
   2   5  -2    0.40    1.70
   2   5  -2    1.50    1.20
   2   5  -2    1.10    1.30
   2   5  -2   -0.50    1.20
  -2  -5   2    0.70    1.70
  -2  -5   2    0.80    1.10
  -2  -5   2   -1.10    3.10
  -2  -5   2   -0.10    1.40
  -2  -5   2    1.80    1.70
   1   5  -2  145.99    8.40
   1   5  -2  137.79    7.20
   1   5  -2  148.49    7.20
  -1  -5   2  132.89    6.60
  -1  -5   2  148.39    6.70
  -1  -5   2  143.69    6.30
  -1  -5   2  136.19   12.80
   0   5  -2   50.09    4.50
   0   5  -2   48.60    5.00
   0   5  -2   56.69    4.60
   0   5  -2   50.19    4.50
   0  -5   2   39.60    7.30
   0  -5   2   52.29    4.00
   0  -5   2   54.79    4.30
  -1   5  -2    3.70    2.30
  -1   5  -2    0.40    1.60
  -1   5  -2    0.70    1.70
  -1   5  -2    2.70    1.80
   1  -5   2    3.40    3.20
   1  -5   2    5.90    2.50
   1  -5   2    2.40    2.20
   1  -5   2    2.90    3.10
  -2   5  -2   11.70    3.10
  -2   5  -2   15.60    3.40
  -2   5  -2   15.10    3.70
  -2   5  -2    9.70    3.60
   2  -5   2    6.80    4.10
   2  -5   2   16.50    3.50
   2  -5   2   13.50    3.00
   2  -5   2    6.40    4.10
  -3   5  -2   45.10    5.70
  -3   5  -2   49.30    6.00
  -3   5  -2   36.70    5.70
  -3   5  -2   39.90    5.70
   3  -5   2   45.70    8.30
   3  -5   2   31.90    5.70
   3  -5   2   55.09    5.70
   3  -5   2   55.89    5.70
  -4   5  -2    2.60    3.10
  -4   5  -2    0.50    3.20
  -4   5  -2    2.40    2.60
  -4   5  -2    1.60    2.60
   4  -5   2   -0.40    3.10
   4  -5   2   -0.10    4.50
   4  -5   2    0.40    2.10
   4  -5   2    3.00    2.40
  -5   5  -2    5.30    3.80
  -5   5  -2    0.70    2.50
  -5   5  -2    1.00    2.80
   5  -5   2    1.00    3.50
   5  -5   2   -1.80    3.60
   5  -5   2   -2.00    3.00
   5  -5   2   -0.60    3.20
  -6   5  -2    3.80    4.20
  -6   5  -2    1.20    3.70
   6  -5   2   -0.80    2.60
   6  -5   2    7.20    4.20
   6  -5   2   -1.50    5.60
  -7   5  -2    6.00    4.70
  -7   5  -2    3.30    4.50
   7  -5   2   -1.40    3.70
   7  -5   2  -10.50    5.80
   7  -5   2   -2.10    2.70
  -8   5  -2    5.80    5.70
   8  -5   2    2.80    4.80
  12   4  -2   12.00    7.70
  12   4  -2   23.10    8.00
  12   4  -2   28.00    6.20
 -12  -4   2   19.40    5.80
  11   4  -2   14.00    6.50
  11   4  -2   17.70    6.40
  11   4  -2   10.50    4.40
 -11  -4   2   14.00    4.70
  10   4  -2    8.90    3.40
  10   4  -2    2.30    3.20
  10   4  -2    4.40    4.20
  10   4  -2   13.20    5.00
 -10  -4   2    6.80    3.60
   9   4  -2   27.90    6.30
   9   4  -2   26.70    4.50
   9   4  -2   24.90    5.90
   9   4  -2   33.60    5.30
  -9  -4   2   27.20    4.20
  -9  -4   2   32.40    4.40
   8   4  -2    6.30    3.50
   8   4  -2    7.30    3.40
   8   4  -2   10.60    3.50
   8   4  -2    7.40    2.40
  -8  -4   2    4.10    2.70
  -8  -4   2    9.40    2.40
   7   4  -2    2.70    2.00
   7   4  -2    0.80    1.00
   7   4  -2    3.30    3.30
   7   4  -2    0.30    2.90
   7   4  -2   -1.10    1.80
  -7  -4   2   -1.20    1.60
  -7  -4   2   -1.90    1.90
  -7  -4   2    1.40    1.10
   6   4  -2   93.59    6.00
   6   4  -2   97.29    5.20
   6   4  -2  101.59    8.20
   6   4  -2   99.99    5.70
   6   4  -2   93.09    5.50
   6   4  -2   92.59    3.80
  -6  -4   2   90.09    4.70
  -6  -4   2   99.09    5.80
  -6  -4   2   95.59    5.20
  -6  -4   2   89.29    5.40
  -6  -4   2   96.39    5.10
   5   4  -2  988.70   34.50
   5   4  -2 1027.10   26.40
   5   4  -2 1018.30   25.50
   5   4  -2  975.20   28.80
   5   4  -2  963.40   26.60
  -5  -4   2  987.20   25.40
  -5  -4   2  965.40   25.60
  -5  -4   2  988.20   24.60
  -5  -4   2  999.90   28.60
   4   4  -2 1869.11   45.30
   4   4  -2 1916.31   44.50
   4   4  -2 1858.71   50.89
   4   4  -2 1845.92   45.80
   4   4  -2 1859.21   57.59
  -4  -4   2 1862.21   44.30
  -4  -4   2 1899.31   50.59
  -4  -4   2 1886.21   45.50
  -4  -4   2 1818.22   44.50
  -4  -4   2 1842.92   47.50
   3   4  -2  789.42   27.20
   3   4  -2  819.22   20.50
   3   4  -2  764.42   21.40
   3   4  -2  829.92   24.60
  -3  -4   2  767.52   23.90
  -3  -4   2  783.62   21.90
  -3  -4   2  807.92   21.30
  -3  -4   2  789.52   20.50
  -3  -4   2  787.42   20.30
   1   4  -2   31.40    2.90
   1   4  -2   39.10    2.80
   1   4  -2   38.00    3.50
   1   4  -2   42.00    4.30
   1   4  -2   30.70    2.80
   1   4  -2   36.90    5.60
  -1  -4   2   43.20    3.20
  -1  -4   2   33.90    2.90
  -1  -4   2   38.40    3.00
  -1  -4   2   40.60    3.00
   0   4  -2  197.48    8.10
   0   4  -2  182.38    7.80
   0   4  -2  171.28    8.80
   0   4  -2  201.08   12.30
   0   4  -2  183.58    8.30
   0   4  -2  192.18    7.50
   0  -4   2  188.58    7.30
   0  -4   2  227.38   14.30
   0  -4   2  171.08    7.00
   0  -4   2  200.38    7.70
  -1   4  -2    5.90    2.40
  -1   4  -2    6.30    2.30
  -1   4  -2    6.30    2.20
  -1   4  -2    8.00    2.20
  -1   4  -2    6.00    2.00
   1  -4   2    7.40    2.60
   1  -4   2    3.90    2.60
   1  -4   2    5.90    2.20
   1  -4   2    7.40    2.00
  -2   4  -2  120.89    7.00
  -2   4  -2  118.19    9.30
  -2   4  -2  102.39    7.00
  -2   4  -2  117.69    6.60
  -2   4  -2  122.39    7.60
   2  -4   2  113.69    6.40
   2  -4   2  118.89    9.50
   2  -4   2  125.69    8.50
   2  -4   2  114.09    6.40
  -3   4  -2  325.97   13.80
  -3   4  -2  323.87   12.70
  -3   4  -2  318.77   14.60
  -3   4  -2  331.67   13.00
   3  -4   2  341.17   19.30
   3  -4   2  310.07   15.60
   3  -4   2  323.57   12.20
   3  -4   2  324.67   12.20
  -4   4  -2  185.28    9.80
  -4   4  -2  179.38    9.40
  -4   4  -2  165.18    9.50
  -4   4  -2  163.88   10.90
   4  -4   2  177.88   12.70
   4  -4   2  177.28   13.30
   4  -4   2  156.18    8.60
   4  -4   2  165.38    8.70
  -5   4  -2   31.10    5.10
  -5   4  -2   33.20    4.60
  -5   4  -2   30.70    5.30
  -5   4  -2   28.20    6.10
  -5   4  -2   26.90    3.00
   5  -4   2   29.30    5.90
   5  -4   2   29.50    4.70
   5  -4   2   32.80    5.30
   5  -4   2   33.50    7.00
  -6   4  -2   46.00    6.40
  -6   4  -2   47.40    6.50
  -6   4  -2   39.70    6.80
  -6   4  -2   35.30    5.00
   6  -4   2   29.70    6.50
   6  -4   2   64.09    6.30
   6  -4   2   49.70    6.70
   6  -4   2   38.30    8.10
  -7   4  -2   18.40    5.70
  -7   4  -2   25.70    6.10
   7  -4   2   13.40    7.00
   7  -4   2   23.60    4.90
   7  -4   2   21.60    5.30
  -8   4  -2    3.10    3.60
  -8   4  -2    0.50    3.40
   8  -4   2   17.90    5.60
   8  -4   2    2.30    5.90
   8  -4   2    1.10    4.50
  -9   4  -2   -2.60    4.30
   9  -4   2    0.40    3.60
  12   3  -2   15.10    5.50
  12   3  -2    0.70    5.00
  12   3  -2   17.30    7.00
 -12  -3   2   16.90    4.80
  11   3  -2    9.20    6.60
  11   3  -2    7.60    6.10
  11   3  -2    6.50    3.30
 -11  -3   2   12.60    4.60
  10   3  -2   -2.40    4.40
  10   3  -2    2.50    3.80
  10   3  -2    9.80    4.00
 -10  -3   2   -0.90    3.00
   9   3  -2   10.80    4.30
   9   3  -2    5.70    4.70
   9   3  -2   10.00    3.80
   9   3  -2   15.20    3.90
  -9  -3   2    5.60    3.30
  -9  -3   2   12.90    3.50
   8   3  -2   20.40    4.10
   8   3  -2   32.70    4.50
   8   3  -2   23.90    5.70
   8   3  -2   32.80    4.10
   8   3  -2   30.10    6.10
  -8  -3   2   22.80    3.90
  -8  -3   2   26.70    3.90
   7   3  -2    7.40    3.10
   7   3  -2    8.10    2.60
   7   3  -2    7.00    1.90
   7   3  -2    3.50    2.70
   7   3  -2    7.20    2.70
  -7  -3   2    8.00    2.40
  -7  -3   2    6.90    2.60
   6   3  -2    4.30    2.40
   6   3  -2    8.60    2.10
   6   3  -2   10.80    1.70
   6   3  -2    7.70    3.30
   6   3  -2    8.70    1.70
   6   3  -2    6.90    2.00
   6   3  -2    5.10    1.80
  -6  -3   2    8.90    2.10
  -6  -3   2    7.80    1.30
  -6  -3   2   10.40    2.70
  -6  -3   2    8.40    2.00
   5   3  -2   11.70    1.50
   5   3  -2   14.10    3.20
   5   3  -2    9.90    1.70
   5   3  -2   14.50    2.40
   5   3  -2   12.40    1.90
   5   3  -2   16.60    2.50
  -5  -3   2   12.80    2.20
  -5  -3   2   14.60    2.30
  -5  -3   2   12.90    2.20
  -5  -3   2   13.40    1.80
   4   3  -2  587.04   17.00
   4   3  -2  594.84   22.40
   4   3  -2  621.14   16.70
   4   3  -2  622.64   16.90
   4   3  -2  616.94   18.50
   4   3  -2  616.24   16.20
  -4  -3   2  619.64   18.10
  -4  -3   2  623.34   16.00
  -4  -3   2  614.54   16.10
  -4  -3   2  609.64   18.20
  -4  -3   2  632.94   16.50
  -4  -3   2  602.64   16.80
   3   3  -2  367.96   10.40
   3   3  -2  367.46   11.30
   3   3  -2  359.96   10.90
   3   3  -2  377.56   12.70
   3   3  -2  369.26   14.80
   3   3  -2  379.16   19.90
   3   3  -2  391.36   10.50
  -3  -3   2  361.76   10.60
  -3  -3   2  384.76   11.10
  -3  -3   2  388.76   11.20
  -3  -3   2  372.66   12.40
  -3  -3   2  387.96   14.70
  -3  -3   2  370.36   10.40
   2   3  -2 1102.49   27.80
   2   3  -2 1128.69   27.70
   2   3  -2 1100.69   27.00
   2   3  -2 1091.79   34.90
   2   3  -2 1203.68   49.30
   2   3  -2 1124.79   29.90
   2   3  -2 1139.19   27.10
   2   3  -2 1124.99   31.70
  -2  -3   2 1112.39   27.50
  -2  -3   2 1136.09   27.00
  -2  -3   2 1139.09   31.50
  -2  -3   2 1072.69   27.00
  -2  -3   2 1115.19   27.60
  -2  -3   2 1150.48   29.90
   1   3  -2   62.29    3.20
   1   3  -2   45.50    5.80
   1   3  -2   65.49    3.60
   1   3  -2   69.69    3.30
   1   3  -2   64.09    3.70
   1   3  -2   64.59    4.50
   1   3  -2   55.29    3.10
  -1  -3   2   69.99    4.40
  -1  -3   2   68.69    6.20
  -1  -3   2   67.89    3.30
  -1  -3   2   64.59    3.50
  -1  -3   2   65.29    3.40
  -1  -3   2   65.99    3.30
  -1  -3   2   65.89    3.20
   0   3  -2  152.38    7.90
   0   3  -2  157.38    6.70
   0   3  -2  157.88    5.90
   0   3  -2  156.18    9.60
   0   3  -2  168.38    6.10
   0   3  -2  158.78    6.40
   0   3  -2  158.78    6.30
   0   3  -2  160.08    7.40
   0  -3   2  155.18    5.80
   0  -3   2  154.38    6.00
   0  -3   2  158.08    6.50
   0  -3   2  162.08    6.20
   0  -3   2  150.48    6.00
   0  -3   2  160.88    7.20
  -1   3  -2  196.98    7.90
  -1   3  -2  216.98   12.00
  -1   3  -2  218.88    7.80
  -1   3  -2  212.08    8.20
  -1   3  -2  226.58    9.40
  -1   3  -2  215.58    9.10
   1  -3   2  204.18    7.60
   1  -3   2  209.18   10.20
   1  -3   2  219.98    7.90
   1  -3   2  219.38    7.80
   1  -3   2  212.28    8.90
   1  -3   2  227.58    9.10
  -2   3  -2    0.50    1.20
  -2   3  -2   -1.50    0.80
  -2   3  -2    0.10    1.70
  -2   3  -2    1.10    1.70
   2  -3   2   -0.90    1.70
   2  -3   2    0.10    1.40
   2  -3   2   -0.50    1.10
   2  -3   2    0.20    1.20
  -3   3  -2   32.50    4.00
  -3   3  -2   32.40    4.10
  -3   3  -2   39.60    4.20
  -3   3  -2   29.10    3.80
   3  -3   2   35.60    3.50
   3  -3   2   31.50    5.10
   3  -3   2   28.40    5.00
   3  -3   2   32.70    4.00
  -4   3  -2  249.38   10.70
  -4   3  -2  250.17   12.80
  -4   3  -2  248.98   10.90
  -4   3  -2  258.67   11.10
   4  -3   2  248.48   10.40
   4  -3   2  253.77   13.50
   4  -3   2  235.88   15.20
   4  -3   2  242.48   10.20
  -5   3  -2  396.06   11.30
  -5   3  -2  380.76   17.60
  -5   3  -2  392.46   15.40
  -5   3  -2  386.76   15.00
  -5   3  -2  364.96   15.00
   5  -3   2  397.46   22.60
   5  -3   2  395.56   14.90
   5  -3   2  395.56   15.00
   5  -3   2  409.86   19.70
  -6   3  -2   -3.00    2.80
  -6   3  -2   -1.50    2.90
  -6   3  -2    1.00    2.10
  -6   3  -2   -3.40    3.10
   6  -3   2    2.70    3.00
   6  -3   2    2.30    3.60
   6  -3   2    2.70    2.50
   6  -3   2    0.30    2.60
  -7   3  -2    4.50    3.20
  -7   3  -2    8.20    3.40
  -7   3  -2    4.50    3.40
   7  -3   2    4.30    3.60
   7  -3   2    9.20    4.10
   7  -3   2   10.50    5.20
   7  -3   2    8.30    3.90
  -8   3  -2    6.20    4.10
  -8   3  -2   -0.10    2.80
   8  -3   2    1.10    2.60
   8  -3   2    7.40    3.50
   8  -3   2   -5.40    6.00
  -9   3  -2    6.00    4.10
  -9   3  -2    8.10    5.20
   9  -3   2    4.50    3.70
   9  -3   2    9.50    4.00
   9  -3   2   -7.70    7.00
  12   2  -2  -19.60    5.60
  11   2  -2   19.60    7.70
  11   2  -2    2.50    5.90
  11   2  -2   25.50    5.10
 -11  -2   2   20.40    5.20
  10   2  -2   42.70    6.50
  10   2  -2   36.30    7.70
  10   2  -2   45.10    8.20
 -10  -2   2   46.80    6.20
   9   2  -2   51.29    5.40
   9   2  -2   55.29    5.60
   9   2  -2   53.89    8.60
   9   2  -2   53.29    8.30
  -9  -2   2   45.20    5.70
  -9  -2   2   41.40    5.20
   8   2  -2    1.70    2.50
   8   2  -2    3.10    4.20
   8   2  -2    1.10    3.30
   8   2  -2    0.90    1.90
   8   2  -2    1.10    2.00
  -8  -2   2    0.30    2.10
  -8  -2   2    2.60    2.70
   7   2  -2    1.40    2.30
   7   2  -2    1.00    3.30
   7   2  -2   -0.20    1.60
   7   2  -2   -1.30    1.70
   7   2  -2   -1.30    1.30
  -7  -2   2    0.90    1.90
  -7  -2   2    2.30    2.30
   6   2  -2   -0.50    1.20
   6   2  -2    2.10    1.70
   6   2  -2   -0.70    1.80
   6   2  -2   -0.30    1.00
   6   2  -2    1.30    1.40
   6   2  -2   -0.40    1.60
   6   2  -2   -0.50    1.40
  -6  -2   2   -1.50    1.10
  -6  -2   2    3.30    1.70
  -6  -2   2   -0.30    1.20
   5   2  -2  426.56   12.80
   5   2  -2  421.06   13.20
   5   2  -2  416.96   12.10
   5   2  -2  439.86   17.80
   5   2  -2  403.76   17.30
   5   2  -2  437.76   12.50
   5   2  -2  433.06   13.80
  -5  -2   2  417.06   13.00
  -5  -2   2  422.46   12.40
  -5  -2   2  425.66   12.60
   4   2  -2  699.53   18.80
   4   2  -2  713.03   19.70
   4   2  -2  719.03   18.10
   4   2  -2  693.53   18.50
   4   2  -2  718.83   18.10
   4   2  -2  713.83   20.30
   4   2  -2  713.03   24.80
  -4  -2   2  704.73   24.30
  -4  -2   2  714.53   18.80
  -4  -2   2  705.13   19.40
  -4  -2   2  704.73   18.10
  -4  -2   2  695.73   18.20
  -4  -2   2  717.93   18.80
   3   2  -2  908.31   22.60
   3   2  -2  943.91   23.00
   3   2  -2  916.71   22.20
   3   2  -2  917.51   29.70
   3   2  -2  914.51   25.30
   3   2  -2  909.01   22.20
   3   2  -2  920.01   25.00
  -3  -2   2  927.91   22.20
  -3  -2   2  930.31   22.40
  -3  -2   2  904.61   22.70
  -3  -2   2  927.71   22.70
  -3  -2   2  929.61   29.40
  -3  -2   2  931.01   22.80
  -3  -2   2  931.11   25.10
   2   2  -2  642.14   15.60
   2   2  -2  625.84   17.10
   2   2  -2  625.84   15.90
   2   2  -2  640.24   15.60
   2   2  -2  644.04   16.10
   2   2  -2  640.54   18.50
   2   2  -2  627.14   21.00
  -2  -2   2  640.74   15.90
  -2  -2   2  639.04   16.00
  -2  -2   2  645.14   15.70
  -2  -2   2  629.24   15.50
  -2  -2   2  649.14   18.30
   1   2  -2    1.00    0.80
   1   2  -2    2.20    1.00
   1   2  -2    0.90    0.80
   1   2  -2    1.90    1.10
   1   2  -2    2.30    0.90
   1   2  -2    2.50    0.70
   1   2  -2    2.90    1.40
  -1  -2   2    1.70    0.80
  -1  -2   2    2.10    0.70
  -1  -2   2    1.20    0.80
  -1  -2   2    3.00    0.90
  -1  -2   2    1.60    0.80
  -1  -2   2    1.00    0.70
   0   2  -2  154.68    5.60
   0   2  -2  166.48    8.70
   0   2  -2  158.68    5.30
   0   2  -2  152.08    6.00
   0   2  -2  148.59    5.20
   0   2  -2  154.88    7.00
   0   2  -2  155.88    6.70
   0   2  -2  155.78    5.50
   0  -2   2  150.78    5.90
   0  -2   2  159.58    5.40
   0  -2   2  155.78    5.40
   0  -2   2  153.58    6.40
   0  -2   2  153.68    5.30
   0  -2   2  156.88    5.20
   0  -2   2  167.28    8.70
  -1   2  -2    2.30    1.10
  -1   2  -2    2.30    1.30
  -1   2  -2    1.80    1.10
  -1   2  -2    1.90    1.00
  -1   2  -2    2.50    1.10
  -1   2  -2    1.30    1.30
  -1   2  -2    3.10    1.10
  -1   2  -2    1.80    1.40
   1  -2   2    2.30    1.50
   1  -2   2    2.10    1.10
   1  -2   2    1.70    0.90
   1  -2   2    2.10    1.30
   1  -2   2    3.60    1.40
   1  -2   2    1.40    0.80
   1  -2   2    2.90    1.20
   1  -2   2    2.40    1.20
  -2   2  -2   36.30    3.00
  -2   2  -2   34.30    3.50
  -2   2  -2   40.10    3.50
  -2   2  -2   31.80    3.10
  -2   2  -2   32.60    2.80
   2  -2   2   35.00    2.80
   2  -2   2   34.80    2.80
   2  -2   2   29.70    2.70
   2  -2   2   33.10    4.50
   2  -2   2   29.00    2.70
   2  -2   2   29.40    3.80
  -3   2  -2  416.66   15.80
  -3   2  -2  411.96   13.30
  -3   2  -2  420.86   13.50
  -3   2  -2  409.26   14.10
  -3   2  -2  391.16   15.30
   3  -2   2  410.86   13.10
   3  -2   2  394.76   16.50
   3  -2   2  406.06   20.00
   3  -2   2  404.86   12.90
  -4   2  -2  120.79    6.90
  -4   2  -2  130.99    7.20
  -4   2  -2  114.49    7.60
  -4   2  -2  131.69    6.80
   4  -2   2  133.99    9.70
   4  -2   2  127.09    6.80
   4  -2   2  139.09    9.60
   4  -2   2  131.79    7.00
  -5   2  -2   -0.60    0.70
  -5   2  -2    1.80    2.40
  -5   2  -2   -3.20    1.20
  -5   2  -2   -1.90    2.30
  -5   2  -2    0.50    1.50
   5  -2   2   -0.80    2.60
   5  -2   2    4.00    2.80
   5  -2   2   -0.10    1.80
   5  -2   2   -1.70    2.10
  -6   2  -2   29.50    5.40
  -6   2  -2   27.70    4.60
  -6   2  -2   35.60    5.50
  -6   2  -2   39.80    4.20
   6  -2   2   28.10    6.50
   6  -2   2   33.90    4.70
   6  -2   2   37.20    6.60
   6  -2   2   38.40    5.40
  -7   2  -2   25.20    5.50
  -7   2  -2   19.90    4.80
  -7   2  -2   18.00    4.60
   7  -2   2   17.40    4.90
   7  -2   2   20.50    4.70
   7  -2   2   18.00    5.50
   7  -2   2   18.10    4.10
  -8   2  -2   -2.60    2.10
  -8   2  -2    0.00    3.30
  -8   2  -2   -1.90    3.70
   8  -2   2    6.60    3.90
   8  -2   2   -7.50    2.80
   8  -2   2    0.40    5.90
  -9   2  -2   -0.30    4.00
  -9   2  -2    9.60    4.90
   9  -2   2    1.90    4.00
   9  -2   2    2.70    4.10
   9  -2   2   -2.50    4.80
 -10   2  -2    6.00    3.90
  10  -2   2   12.50    5.30
  11   1  -2   -5.40    4.60
  11   1  -2   -5.40    5.20
  11   1  -2   -2.00    3.80
 -11  -1   2   -1.40    2.90
  10   1  -2    1.90    4.90
  10   1  -2   12.10    4.40
  10   1  -2    3.40    4.40
 -10  -1   2    3.90    2.80
   9   1  -2   16.30    6.40
   9   1  -2    9.90    3.50
   9   1  -2   13.80    5.20
   9   1  -2   11.60    4.00
  -9  -1   2   16.40    3.80
  -9  -1   2    7.70    3.20
   8   1  -2   30.40    4.40
   8   1  -2   28.50    6.10
   8   1  -2   44.20    5.40
   8   1  -2   36.90    6.30
  -8  -1   2   44.80    4.80
  -8  -1   2   37.70    5.00
   7   1  -2   62.69    5.40
   7   1  -2   75.19    7.80
   7   1  -2   69.89    4.80
   7   1  -2   70.19    8.60
   7   1  -2   68.09    5.10
  -7  -1   2   58.59    5.10
  -7  -1   2   68.39    5.10
   6   1  -2   10.20    3.70
   6   1  -2    6.10    1.90
   6   1  -2    6.80    1.90
   6   1  -2    4.20    1.90
   6   1  -2    6.90    2.00
   6   1  -2    4.60    2.30
  -6  -1   2    4.30    2.00
  -6  -1   2    7.60    2.00
  -6  -1   2    3.30    2.10
   5   1  -2  338.47   10.80
   5   1  -2  339.07   10.60
   5   1  -2  320.57   14.80
   5   1  -2  329.37   11.10
   5   1  -2  345.17   10.80
   5   1  -2  346.87   14.70
   5   1  -2  340.87   12.30
  -5  -1   2  319.07   10.60
  -5  -1   2  334.37   10.60
  -5  -1   2  346.07   11.10
   4   1  -2   15.80    2.80
   4   1  -2   16.80    1.10
   4   1  -2   14.70    2.00
   4   1  -2   13.80    2.10
   4   1  -2   13.30    1.80
   4   1  -2   18.20    1.90
   4   1  -2   15.80    2.20
   4   1  -2   13.50    2.80
   4   1  -2   16.80    2.30
  -4  -1   2   15.80    2.00
  -4  -1   2   17.10    2.00
  -4  -1   2   15.00    2.10
  -4  -1   2   19.70    2.30
  -4  -1   2   17.40    2.70
   3   1  -2   10.10    1.30
   3   1  -2    9.00    1.10
   3   1  -2    8.50    1.40
   3   1  -2    9.50    1.50
   3   1  -2    9.40    1.40
   3   1  -2    7.40    1.90
   3   1  -2    4.80    1.80
   3   1  -2    7.70    1.20
  -3  -1   2    8.70    1.50
  -3  -1   2    9.60    1.20
  -3  -1   2    8.00    1.90
  -3  -1   2    9.10    1.30
   2   1  -2  492.65   12.10
   2   1  -2  505.15   12.40
   2   1  -2  532.65   12.60
   2   1  -2  493.55   16.80
   2   1  -2  497.05   14.20
   2   1  -2  507.45   12.10
  -2  -1   2  494.15   12.40
  -2  -1   2  501.05   12.30
  -2  -1   2  507.35   13.10
  -2  -1   2  497.95   12.20
   1   1  -2   63.89    2.30
   1   1  -2   64.99    3.20
   1   1  -2   65.29    2.30
   1   1  -2   63.99    2.10
   1   1  -2   64.99    2.60
   1   1  -2   60.69    2.10
  -1  -1   2   64.09    2.20
  -1  -1   2   64.69    2.20
   0   1  -2  466.45   11.60
   0   1  -2  472.65   14.00
   0   1  -2  467.75   11.70
   0   1  -2  473.45   13.80
   0   1  -2  472.45   20.10
   0   1  -2  510.65   11.90
   0   1  -2  461.65   11.80
   0  -1   2  458.15   11.50
   0  -1   2  484.45   13.80
   0  -1   2  469.25   11.80
   0  -1   2  458.65   11.60
   0  -1   2  478.85   11.70
  -1   1  -2   18.30    1.80
  -1   1  -2   16.70    1.70
  -1   1  -2   13.40    1.80
  -1   1  -2   15.80    2.30
  -1   1  -2   18.20    1.60
  -1   1  -2   13.50    1.90
  -1   1  -2   19.40    1.80
  -1   1  -2   16.30    1.50
   1  -1   2   14.20    2.00
   1  -1   2   16.00    1.70
   1  -1   2   16.00    1.50
   1  -1   2   18.90    1.80
   1  -1   2   16.70    1.70
   1  -1   2   14.80    1.40
  -2   1  -2  723.83   18.70
  -2   1  -2  705.73   18.60
  -2   1  -2  712.03   20.60
  -2   1  -2  720.13   23.30
  -2   1  -2  694.93   18.70
  -2   1  -2  710.93   21.80
  -2   1  -2  729.53   18.60
   2  -1   2  700.13   18.60
   2  -1   2  705.43   29.90
   2  -1   2  729.73   21.70
   2  -1   2  729.73   18.60
   2  -1   2  690.33   18.50
   2  -1   2  700.13   23.20
   2  -1   2  729.23   18.60
  -3   1  -2  970.70   30.60
  -3   1  -2  924.71   28.80
  -3   1  -2  932.11   24.90
  -3   1  -2  946.71   24.90
  -3   1  -2  929.11   26.70
  -3   1  -2 1006.40   32.40
  -3   1  -2  972.20   25.00
   3  -1   2  922.91   24.60
   3  -1   2  968.00   24.70
   3  -1   2  942.41   40.60
   3  -1   2  937.31   24.80
   3  -1   2  966.70   31.10
  -4   1  -2    2.20    1.70
  -4   1  -2    3.10    1.40
  -4   1  -2    3.10    1.60
  -4   1  -2    2.90    2.10
  -4   1  -2    2.20    0.60
   4  -1   2    2.10    1.90
   4  -1   2    3.30    1.80
   4  -1   2   -0.80    1.70
   4  -1   2    2.20    1.50
  -5   1  -2   30.50    4.50
  -5   1  -2   34.40    3.40
  -5   1  -2   37.00    3.80
  -5   1  -2   41.20    4.40
   5  -1   2   33.20    4.40
   5  -1   2   35.10    3.80
   5  -1   2   31.80    4.90
  -6   1  -2    1.10    2.00
  -6   1  -2    3.50    2.80
  -6   1  -2   -1.50    1.30
  -6   1  -2    0.40    2.00
   6  -1   2    0.30    2.50
   6  -1   2    1.40    2.10
   6  -1   2    2.30    3.10
   6  -1   2    0.60    2.20
  -7   1  -2    7.10    4.20
  -7   1  -2   13.20    4.00
  -7   1  -2   15.30    4.20
  -7   1  -2    9.90    2.20
   7  -1   2   11.20    3.80
   7  -1   2    2.50    3.30
   7  -1   2   13.20    4.70
   7  -1   2   10.90    3.40
  -8   1  -2    7.50    4.10
  -8   1  -2    9.10    4.00
  -8   1  -2    9.40    4.80
   8  -1   2    8.10    4.00
   8  -1   2    2.20    2.70
   8  -1   2    7.70    4.80
   8  -1   2    4.10    3.00
  -9   1  -2   -1.90    4.50
  -9   1  -2    6.80    4.30
  -9   1  -2    3.10    2.90
   9  -1   2    6.30    3.40
   9  -1   2    7.30    3.50
   9  -1   2   -2.00    6.00
 -10   1  -2   33.70    7.20
 -10   1  -2   43.00    7.00
  10  -1   2   29.80    9.50
  10  -1   2   43.80    7.20
  10  -1   2   28.80    6.60
  11  -1   2   -0.70    3.50
  11   0  -2   -1.10    8.30
 -11   0   2   -2.20    4.00
  10   0  -2   -1.40    3.50
  10   0  -2   -7.30    3.90
  10   0  -2    4.10    6.40
 -10   0   2    2.30    3.50
   9   0  -2    6.00    5.80
   9   0  -2    2.70    3.60
   9   0  -2   -6.00    4.00
  -9   0   2    3.50    3.30
   8   0  -2  218.28   15.60
   8   0  -2  218.18   13.20
   8   0  -2  190.88    9.50
   8   0  -2  200.48   10.10
  -8   0   2  209.98   10.10
  -8   0   2  199.68   10.30
   7   0  -2   60.99    7.50
   7   0  -2   58.49    5.00
   7   0  -2   51.99    5.30
   7   0  -2   45.10    7.40
  -7   0   2   49.90    4.60
  -7   0   2   44.80    4.80
   6   0  -2   67.69    7.10
   6   0  -2   70.29    4.80
   6   0  -2   80.89    5.50
   6   0  -2   73.69    6.80
  -6   0   2   72.49    5.20
  -6   0   2   72.99    5.20
  -6   0   2   80.39    5.20
   5   0  -2  164.68    6.60
   5   0  -2  150.28    9.60
   5   0  -2  152.08    8.80
   5   0  -2  152.68    6.60
   5   0  -2  168.18    6.70
   5   0  -2  156.08    7.00
  -5   0   2  154.48    6.80
  -5   0   2  167.08    6.90
  -5   0   2  158.88    6.70
   4   0  -2  277.77    9.30
   4   0  -2  290.07    9.00
   4   0  -2  276.07    9.10
   4   0  -2  270.97   11.70
   4   0  -2  284.57   10.90
   4   0  -2  285.07   12.90
   4   0  -2  280.17    9.00
  -4   0   2  279.47    9.00
  -4   0   2  291.37    9.20
  -4   0   2  283.37    9.20
  -4   0   2  297.57   11.80
   3   0  -2  114.89    5.40
   3   0  -2  103.09    5.80
   3   0  -2  111.69    4.70
   3   0  -2  109.39    4.40
   3   0  -2  103.39    6.40
   3   0  -2  106.89    4.10
   3   0  -2  108.09    4.20
   3   0  -2  116.49    4.20
  -3   0   2  110.69    4.30
  -3   0   2  113.19    4.40
  -3   0   2  110.09    5.70
  -3   0   2  109.09    4.40
  -3   0   2  111.79    4.30
   2   0  -2   78.99    2.80
   2   0  -2   76.29    2.80
   2   0  -2   69.19    4.70
   2   0  -2   68.19    4.00
   2   0  -2   78.09    2.80
   2   0  -2   80.79    3.50
   2   0  -2   76.09    2.90
  -2   0   2   79.09    2.90
  -2   0   2   77.19    2.90
  -2   0   2   75.89    2.90
  -2   0   2   82.49    4.20
   1   0  -2  990.50   22.20
   1   0  -2  993.20   23.50
   1   0  -2 1001.00   22.10
   1   0  -2 1010.10   22.20
   1   0  -2  985.80   22.10
  -1   0   2 1002.90   24.00
  -1   0   2  917.41   22.20
  -1   0   2 1014.60   22.20
   0   0  -2 3623.44   81.79
   0   0  -2 3758.32   95.09
   0   0  -2 3586.54   82.59
   0   0  -2 3601.74   81.39
   0   0  -2 3543.65   80.89
   0   0  -2 3635.14   82.99
   0   0   2 3576.14   82.69
   0   0   2 3772.92   82.19
  -1   0  -2 4345.97   96.39
  -1   0  -2 4353.66   96.49
  -1   0  -2 3918.41   96.29
  -1   0  -2 4385.76  120.19
  -1   0  -2 4493.45  112.79
  -1   0  -2 4163.48   97.29
  -1   0  -2 4297.17   96.49
   1   0   2 4363.06   96.29
   1   0   2 4300.47  120.19
   1   0   2 4245.48   96.39
   1   0   2 4286.97   96.49
   1   0   2 4335.17   96.39
   1   0   2 4433.56  112.69
  -2   0  -2    0.90    1.20
  -2   0  -2   -0.50    0.70
  -2   0  -2    0.40    0.90
  -2   0  -2    0.40    0.80
  -2   0  -2    0.80    1.10
  -2   0  -2    1.00    1.10
  -2   0  -2   -0.10    0.70
   2   0   2   -0.90    1.10
   2   0   2    0.60    0.90
   2   0   2    0.60    1.00
   2   0   2    1.60    1.40
   2   0   2    0.20    0.60
   2   0   2    0.20    1.10
  -3   0  -2  910.21   23.70
  -3   0  -2  933.11   29.60
  -3   0  -2  930.71   29.20
  -3   0  -2  896.81   27.50
  -3   0  -2  945.01   24.00
  -3   0  -2  939.61   23.80
  -3   0  -2  919.61   23.60
   3   0   2  928.91   23.80
   3   0   2  926.81   23.50
   3   0   2  941.71   27.50
   3   0   2  924.21   29.30
   3   0   2  902.31   23.80
   3   0   2  946.81   23.50
  -4   0  -2  497.55   15.40
  -4   0  -2  526.05   15.80
  -4   0  -2  528.85   18.00
  -4   0  -2  536.25   15.70
   4   0   2  534.35   15.60
   4   0   2  516.35   19.30
   4   0   2  538.05   15.80
  -5   0  -2    0.60    1.90
  -5   0  -2    0.00    1.00
  -5   0  -2    1.20    2.00
  -5   0  -2   -0.80    1.30
   5   0   2   -0.40    1.90
   5   0   2    1.10    2.10
   5   0   2    0.30    1.50
  -6   0  -2    8.60    3.10
  -6   0  -2    6.10    1.70
  -6   0  -2    6.40    2.60
  -6   0  -2    6.90    2.40
   6   0   2    7.40    3.10
   6   0   2    9.40    2.70
   6   0   2   11.70    2.90
  -7   0  -2   13.20    3.40
  -7   0  -2   13.50    3.40
  -7   0  -2   10.60    3.50
  -7   0  -2    9.70    2.20
   7   0   2    8.80    3.70
   7   0   2    8.10    3.50
   7   0   2    9.70    4.80
  -8   0  -2   91.99    8.30
  -8   0  -2   82.99    7.60
  -8   0  -2  101.29    7.90
   8   0   2   79.09    6.70
   8   0   2   82.99   10.70
   8   0   2  102.19    7.60
  -9   0  -2   -4.20    3.10
  -9   0  -2    4.90    3.80
  -9   0  -2   -2.90    2.20
   9   0   2    1.10    3.50
   9   0   2    2.00    4.00
   9   0   2   -5.70    5.00
 -10   0  -2    5.40    4.50
 -10   0  -2    8.50    3.70
 -10   0  -2    8.10    5.10
  10   0   2    1.80    6.40
  10   0   2    5.90    3.60
  10   0   2    8.80    3.50
 -11   0  -2    0.60    3.20
  11   0   2    3.70    4.60
  11   0   2   -1.70    4.50
  11   0   2  -17.00    6.80
  11  -1  -2    4.20    5.50
  10  -1  -2    6.00    4.80
  10  -1  -2  -11.30    6.80
  10  -1  -2    4.50    4.10
 -10   1   2   -3.00    3.60
   9  -1  -2   -5.10    3.70
   9  -1  -2    1.00    3.40
   9  -1  -2   -5.40    3.20
  -9   1   2    2.60    3.00
   8  -1  -2   72.29    6.30
   8  -1  -2   77.89    8.60
   8  -1  -2   78.39    7.10
   8  -1  -2   85.09   10.20
  -8   1   2   77.29    6.40
  -8   1   2   82.39    6.80
   7  -1  -2   27.70    6.40
   7  -1  -2   34.90    4.60
   7  -1  -2   27.60    5.00
   7  -1  -2   40.00    5.20
  -7   1   2   33.50    4.80
  -7   1   2   33.00    4.70
   6  -1  -2   62.19    4.80
   6  -1  -2   64.09    6.20
   6  -1  -2   57.59    5.20
   6  -1  -2   63.99    8.40
  -6   1   2   65.59    5.10
  -6   1   2   67.69    5.00
   5  -1  -2    7.20    2.30
   5  -1  -2   11.40    2.40
   5  -1  -2   11.80    4.00
   5  -1  -2    8.40    2.70
   5  -1  -2    9.30    2.10
  -5   1   2   12.20    2.70
  -5   1   2   11.20    2.60
  -5   1   2   11.80    2.70
  -5   1   2    8.00    2.40
   4  -1  -2    1.10    1.40
   4  -1  -2    3.00    2.20
   4  -1  -2    3.00    1.40
   4  -1  -2    2.40    1.70
   4  -1  -2    1.90    1.30
   4  -1  -2    2.70    0.60
  -4   1   2    3.70    1.40
  -4   1   2    1.90    1.50
  -4   1   2    3.10    1.50
  -4   1   2    6.10    1.90
  -4   1   2    2.30    1.60
   3  -1  -2  134.59    5.30
   3  -1  -2  135.59    6.70
   3  -1  -2  121.09    7.60
   3  -1  -2  134.89    5.20
   3  -1  -2  126.69    4.70
   3  -1  -2  132.99    5.10
   3  -1  -2  128.89    5.00
   3  -1  -2  122.59    6.10
  -3   1   2  131.59    6.10
  -3   1   2  128.29    5.20
  -3   1   2  128.69    5.20
  -3   1   2  134.39    5.50
  -3   1   2  128.09    5.20
  -3   1   2  128.89    5.20
   2  -1  -2   -0.20    1.10
   2  -1  -2    2.30    1.00
   2  -1  -2    0.50    0.80
   2  -1  -2    1.50    0.80
   2  -1  -2    1.70    0.90
   2  -1  -2    0.60    0.70
   2  -1  -2    0.80    0.80
  -2   1   2   -1.40    0.80
  -2   1   2    2.20    0.90
  -2   1   2    0.00    0.80
  -2   1   2    0.60    0.80
  -2   1   2   -0.80    0.80
  -2   1   2    1.50    0.80
  -2   1   2   -0.50    0.70
   1  -1  -2 4363.76   99.69
   1  -1  -2 4354.86  100.49
   1  -1  -2 4038.30  100.59
   1  -1  -2 4968.00  124.99
   1  -1  -2 4430.56  123.89
   1  -1  -2 4577.54  101.19
  -1   1   2 4445.16   98.89
  -1   1   2 3863.01   98.79
  -1   1   2 4550.14  101.29
  -1   1   2 4439.86  100.19
  -1   1   2 4507.65  100.19
  -1   1   2 4540.05  124.69
  -1   1   2 4513.55   99.19
   0  -1  -2 6630.04  144.49
   0  -1  -2 6392.96  259.77
   0  -1  -2 6350.66  145.09
   0  -1  -2 6456.55  144.89
   0  -1  -2 6414.06  180.88
   0  -1  -2 6607.64  145.29
   0   1   2 5445.36  144.39
   0   1   2 6687.83  145.29
   0   1   2 6442.16  145.49
   0   1   2 6413.76  260.87
   0   1   2 6554.24  144.39
  -1  -1  -2  353.06   10.50
  -1  -1  -2  353.76    9.30
  -1  -1  -2  358.86    9.00
  -1  -1  -2  355.06    9.10
  -1  -1  -2  359.86   11.00
  -1  -1  -2  363.46   11.90
  -1  -1  -2  346.57    9.30
  -1  -1  -2  362.76   16.00
   1   1   2  356.76    9.00
   1   1   2  347.27    9.00
   1   1   2  356.06    9.30
   1   1   2  354.56   16.00
   1   1   2  342.47    9.20
  -2  -1  -2 2996.00  116.59
  -2  -1  -2 2933.21   77.19
  -2  -1  -2 2923.61   66.09
  -2  -1  -2 2956.40   66.49
  -2  -1  -2 2926.01   66.19
  -2  -1  -2 2895.41   81.59
  -2  -1  -2 3018.00   66.59
  -2  -1  -2 2873.31   82.09
   2   1   2 2847.62   66.39
   2   1   2 2934.21   81.59
   2   1   2 2806.22   81.99
   2   1   2 2968.10   66.09
   2   1   2 2951.20   65.99
   2   1   2 2588.44  116.49
   2   1   2 2966.70   77.09
   2   1   2 2886.81   66.39
  -3  -1  -2   68.39    4.10
  -3  -1  -2   73.69    3.80
  -3  -1  -2   79.59    5.50
  -3  -1  -2   69.99    3.80
  -3  -1  -2   66.89    3.50
  -3  -1  -2   70.49    3.80
  -3  -1  -2   68.99    4.20
   3   1   2   69.79    3.90
   3   1   2   66.29    5.20
   3   1   2   68.49    4.30
   3   1   2   64.19    3.70
   3   1   2   69.49    5.00
   3   1   2   63.69    3.30
   3   1   2   71.59    3.70
   3   1   2   67.39    3.70
  -4  -1  -2  382.16   11.90
  -4  -1  -2  385.46   12.50
  -4  -1  -2  400.46   12.10
  -4  -1  -2  380.36   14.40
   4   1   2  397.36   12.40
   4   1   2  395.36   11.90
   4   1   2  394.26   14.70
   4   1   2  396.76   15.70
   4   1   2  393.36   13.60
   4   1   2  382.56    9.00
   4   1   2  375.96   12.30
  -5  -1  -2  208.08    9.70
  -5  -1  -2  220.88    8.60
  -5  -1  -2  205.68    8.40
   5   1   2  206.38    8.60
   5   1   2  209.98   11.00
   5   1   2  232.38    9.10
   5   1   2  209.88   10.30
  -6  -1  -2  262.47   10.60
  -6  -1  -2  262.37    9.40
  -6  -1  -2  269.47   10.80
  -6  -1  -2  281.07   12.20
   6   1   2  289.67   13.80
   6   1   2  270.47   11.00
   6   1   2  263.97   10.90
   6   1   2  264.77   13.90
  -7  -1  -2  207.28   11.00
  -7  -1  -2  194.08    9.80
  -7  -1  -2  192.78    9.50
  -7  -1  -2  193.28    7.60
   7   1   2  198.28   10.00
   7   1   2  211.48   12.80
   7   1   2  207.48   13.00
   7   1   2  211.78   10.10
  -8  -1  -2  332.87   14.10
  -8  -1  -2  333.27   14.00
  -8  -1  -2  321.97   15.70
   8   1   2  320.47   17.70
   8   1   2  317.07   13.80
   8   1   2  343.17   18.00
   8   1   2  317.47   13.80
  -9  -1  -2   10.70    4.60
  -9  -1  -2    7.50    3.80
  -9  -1  -2    7.80    3.80
   9   1   2   11.30    4.20
   9   1   2    6.70    5.10
   9   1   2    4.80    3.80
 -10  -1  -2   -1.00    2.90
 -10  -1  -2    5.60    3.30
 -10  -1  -2    4.80    4.00
  10   1   2    4.60    4.10
  10   1   2    3.90    4.10
  10   1   2   -3.50    3.50
 -11  -1  -2   -1.80    4.50
 -11  -1  -2   -0.80    3.10
 -11  -1  -2    3.60    4.30
  11   1   2    1.70    3.50
  11   1   2  -16.80    5.50
  11   1   2    2.20    4.30
  10  -2  -2    5.80    5.70
   9  -2  -2   -5.50    4.30
   9  -2  -2    2.20    3.70
   9  -2  -2    1.90    3.70
  -9   2   2    0.20    3.30
   8  -2  -2   10.10    3.50
   8  -2  -2    2.30    4.60
   8  -2  -2    3.40    4.60
   8  -2  -2    3.70    3.70
  -8   2   2    4.60    2.60
   7  -2  -2   76.09    9.60
   7  -2  -2   77.39    6.20
   7  -2  -2   88.29   12.50
   7  -2  -2   75.39    6.70
   7  -2  -2   74.19    7.00
  -7   2   2   75.29    6.70
  -7   2   2   84.09    6.80
   6  -2  -2   28.20    6.40
   6  -2  -2   24.10    6.30
   6  -2  -2   24.60    4.10
   6  -2  -2   20.30    3.90
   6  -2  -2   28.40    4.10
  -6   2   2   22.60    4.00
  -6   2   2   34.10    4.50
   5  -2  -2   15.70    1.60
   5  -2  -2   15.20    4.10
   5  -2  -2   13.60    2.90
   5  -2  -2   12.40    2.60
   5  -2  -2   14.20    2.70
   5  -2  -2    9.20    4.30
  -5   2   2    3.10    2.20
  -5   2   2   12.90    2.40
  -5   2   2   13.70    3.10
  -5   2   2   13.90    2.70
   4  -2  -2  146.19    6.70
   4  -2  -2  132.59   12.30
   4  -2  -2  146.79    5.70
   4  -2  -2  144.69    7.10
   4  -2  -2  127.39    8.90
   4  -2  -2  143.29    6.40
   4  -2  -2  148.79    6.70
  -4   2   2  138.89    6.70
  -4   2   2  142.39    6.70
  -4   2   2  143.79    6.60
  -4   2   2  141.89    6.30
  -4   2   2  137.59    7.00
   3  -2  -2  104.39    9.50
   3  -2  -2  103.29    4.80
   3  -2  -2   99.39    4.60
   3  -2  -2   96.69    6.80
   3  -2  -2  101.39    4.60
   3  -2  -2   86.79    4.50
   3  -2  -2   93.99    4.90
  -3   2   2   95.09    4.90
  -3   2   2   98.39    4.80
  -3   2   2   95.19    4.80
  -3   2   2  102.39    4.70
  -3   2   2  101.79    5.00
   2  -2  -2  605.94   17.30
   2  -2  -2  556.14   28.90
   2  -2  -2  590.54   17.50
   2  -2  -2  591.64   15.60
   2  -2  -2  600.84   15.80
   2  -2  -2  578.74   20.40
   2  -2  -2  599.34   15.60
   2  -2  -2  561.44   15.30
  -2   2   2  596.94   20.40
  -2   2   2  588.64   15.80
  -2   2   2  575.04   15.40
  -2   2   2  593.24   15.50
  -2   2   2  576.04   17.40
  -2   2   2  591.14   15.90
  -2   2   2  584.04   15.80
   1  -2  -2  389.36   10.50
   1  -2  -2  389.66   10.60
   1  -2  -2  401.96   11.40
   1  -2  -2  392.76   10.90
   1  -2  -2  406.96   10.70
   1  -2  -2  403.76   12.50
   1  -2  -2  389.66   13.80
   1  -2  -2  392.06   20.40
  -1   2   2  390.26   10.90
  -1   2   2  381.86   10.80
  -1   2   2  389.46   13.80
  -1   2   2  402.16   10.60
  -1   2   2  381.46   10.50
   0  -2  -2 1001.90   23.60
   0  -2  -2 1012.00   23.90
   0  -2  -2  995.70   23.70
   0  -2  -2 1014.00   24.10
   0  -2  -2 1003.10   28.20
   0  -2  -2 1018.80   27.80
   0  -2  -2 1006.10   43.70
   0  -2  -2 1007.70   29.50
   0   2   2  980.90   29.50
   0   2   2 1001.20   24.10
   0   2   2  980.70   24.00
   0   2   2 1018.20   43.70
   0   2   2  999.40   24.40
   0   2   2 1001.70   23.60
   0   2   2  998.60   23.70
  -1  -2  -2 2774.42  113.39
  -1  -2  -2 2769.52   63.09
  -1  -2  -2 2826.42   63.69
  -1  -2  -2 2689.33   78.89
  -1  -2  -2 2784.32   63.09
  -1  -2  -2 2816.82   77.69
  -1  -2  -2 2790.62   63.49
   1   2   2 2860.11   63.69
   1   2   2 2801.12   62.99
   1   2   2 2786.22   63.09
   1   2   2 2736.93   78.29
   1   2   2 2810.22   77.59
   1   2   2 2854.11  113.49
   1   2   2 2706.53   63.49
  -2  -2  -2    8.60    1.30
  -2  -2  -2   10.30    1.60
  -2  -2  -2    8.50    1.60
  -2  -2  -2   10.50    1.80
  -2  -2  -2   11.60    1.70
  -2  -2  -2   13.20    1.60
   2   2   2   11.00    1.40
   2   2   2    9.50    2.10
   2   2   2    9.80    1.90
   2   2   2   10.60    1.60
   2   2   2   15.80    1.70
   2   2   2   13.60    1.00
   2   2   2   12.50    1.70
  -3  -2  -2    1.90    1.40
  -3  -2  -2    1.90    1.20
  -3  -2  -2    0.90    0.80
  -3  -2  -2   -0.80    0.80
  -3  -2  -2    1.90    1.00
  -3  -2  -2    2.20    1.20
  -3  -2  -2    1.30    1.40
  -3  -2  -2    1.70    1.50
   3   2   2   -0.50    0.90
   3   2   2    0.60    1.50
   3   2   2    1.50    0.90
   3   2   2    1.30    1.20
   3   2   2   -1.30    1.60
   3   2   2    0.20    1.00
   3   2   2    3.50    2.20
   3   2   2    3.30    1.10
  -4  -2  -2    4.70    1.90
  -4  -2  -2    6.20    1.80
  -4  -2  -2    5.70    1.90
  -4  -2  -2    6.00    1.50
  -4  -2  -2    5.40    1.50
  -4  -2  -2    4.60    1.60
   4   2   2    6.70    1.80
   4   2   2    5.30    1.40
   4   2   2    5.80    2.70
   4   2   2    4.50    1.40
   4   2   2    6.90    1.90
   4   2   2    4.70    1.70
   4   2   2   10.10    2.70
   4   2   2    2.80    1.60
  -5  -2  -2   11.50    2.60
  -5  -2  -2   12.60    2.50
  -5  -2  -2   10.70    2.40
   5   2   2    9.50    2.60
   5   2   2   10.20    2.70
   5   2   2   10.20    2.90
   5   2   2    7.60    2.60
   5   2   2   13.90    3.10
  -6  -2  -2    0.10    1.30
  -6  -2  -2   -2.50    1.90
  -6  -2  -2    1.00    2.00
   6   2   2    0.10    2.20
   6   2   2   -1.50    1.40
   6   2   2   -3.00    2.10
   6   2   2   -1.30    2.00
  -7  -2  -2  254.67   10.90
  -7  -2  -2  247.18   10.50
  -7  -2  -2  252.27   11.80
   7   2   2  246.28   11.00
   7   2   2  230.28   13.70
   7   2   2  234.68   10.90
   7   2   2  247.78    7.00
   7   2   2  270.87   13.50
  -8  -2  -2   34.40    4.90
  -8  -2  -2   25.30    5.20
  -8  -2  -2   26.60    4.40
  -8  -2  -2   26.50    2.70
   8   2   2   29.10    6.30
   8   2   2   29.80    5.10
   8   2   2   25.70    4.90
   8   2   2   31.90    6.00
  -9  -2  -2   21.90    4.80
  -9  -2  -2   23.70    4.80
  -9  -2  -2   16.70    4.70
   9   2   2   21.80    5.10
   9   2   2    9.10    4.40
   9   2   2   13.60    4.30
   9   2   2    6.50    5.00
 -10  -2  -2   22.00    4.90
 -10  -2  -2   26.90    5.70
 -10  -2  -2   19.10    5.10
  10   2   2   12.60    6.10
  10   2   2   12.20    3.90
  10   2   2   20.20    5.30
  10   2   2   14.40    6.50
 -11  -2  -2    8.60    5.20
 -11  -2  -2   10.40    4.50
 -11  -2  -2    6.30    4.80
  11   2   2    6.80    3.60
  11   2   2   -0.60    4.10
  11   2   2   -5.50    5.70
  12   2   2   -5.10    3.70
  12   2   2   -3.60    4.90
   9  -3  -2    3.70    4.90
   9  -3  -2  -11.40    6.70
   9  -3  -2   11.70    4.70
  -9   3   2    5.20    4.40
   8  -3  -2    7.50    3.80
   8  -3  -2    5.90    5.40
   8  -3  -2    0.40    6.30
  -8   3   2    5.10    3.80
   7  -3  -2   28.00    7.30
   7  -3  -2   27.30    4.60
   7  -3  -2   26.20    4.50
   7  -3  -2   18.50    6.00
  -7   3   2   37.60    5.70
  -7   3   2   23.60    4.50
   6  -3  -2   25.50    4.10
   6  -3  -2   17.80    6.10
   6  -3  -2   28.00    6.20
   6  -3  -2   32.10    4.80
  -6   3   2   17.80    3.70
  -6   3   2   32.80    4.70
  -6   3   2   30.50    4.00
   5  -3  -2    0.20    2.10
   5  -3  -2    0.70    1.70
   5  -3  -2    1.10    3.50
   5  -3  -2    1.30    3.00
  -5   3   2    0.80    2.20
  -5   3   2    3.40    2.40
  -5   3   2    1.90    1.50
  -5   3   2    1.80    1.80
   4  -3  -2    5.70    2.30
   4  -3  -2    4.40    1.40
   4  -3  -2    2.80    3.40
   4  -3  -2    9.40    3.90
   4  -3  -2    2.00    1.80
  -4   3   2    5.40    1.50
  -4   3   2    5.60    1.90
  -4   3   2    8.10    1.90
  -4   3   2    1.80    1.90
   3  -3  -2  448.86   14.10
   3  -3  -2  456.25   18.80
   3  -3  -2  474.15   26.60
   3  -3  -2  491.55   15.20
   3  -3  -2  473.05   14.50
   3  -3  -2  449.26   13.80
  -3   3   2  471.65   14.70
  -3   3   2  463.25   14.60
  -3   3   2  450.55   14.00
  -3   3   2  434.06   14.30
  -3   3   2  482.05   14.30
   2  -3  -2  426.86   12.90
   2  -3  -2  421.36   16.70
   2  -3  -2  411.26   12.50
   2  -3  -2  411.86   12.20
   2  -3  -2  428.76   14.00
   2  -3  -2  443.66   23.90
  -2   3   2  411.96   12.90
  -2   3   2  420.96   12.50
  -2   3   2  407.26   12.90
   1  -3  -2  522.65   14.70
   1  -3  -2  528.65   14.50
   1  -3  -2  516.25   14.20
   1  -3  -2  520.05   26.80
   1  -3  -2  503.45   14.10
   1  -3  -2  509.25   18.30
   1  -3  -2  535.75   16.70
  -1   3   2  517.05   14.70
  -1   3   2  529.85   14.20
  -1   3   2  535.25   18.30
  -1   3   2  523.95   26.60
  -1   3   2  539.75   14.30
  -1   3   2  510.55   14.70
   0  -3  -2    5.10    0.60
   0  -3  -2    4.90    1.60
   0  -3  -2    5.00    1.50
   0  -3  -2    6.10    1.40
   0  -3  -2    3.30    2.30
   0  -3  -2    5.00    1.80
   0  -3  -2    4.90    1.30
   0  -3  -2    7.10    1.40
   0   3   2    5.80    1.40
   0   3   2    3.40    1.40
   0   3   2    2.40    2.00
   0   3   2    7.60    1.70
   0   3   2    5.60    1.40
   0   3   2    7.20    1.40
   0   3   2    5.20    1.30
  -1  -3  -2   23.80    2.10
  -1  -3  -2   20.00    2.00
  -1  -3  -2   20.20    2.00
  -1  -3  -2   22.70    2.70
  -1  -3  -2   24.10    3.90
  -1  -3  -2   23.10    2.20
  -1  -3  -2   26.40    2.10
  -1  -3  -2   25.80    2.10
   1   3   2   21.40    4.10
   1   3   2   24.10    1.80
   1   3   2   24.20    1.80
   1   3   2   25.40    2.10
   1   3   2   21.40    2.00
   1   3   2   23.70    2.20
   1   3   2   24.20    2.40
   1   3   2   26.80    2.40
  -2  -3  -2   91.89    4.40
  -2  -3  -2   81.69    3.70
  -2  -3  -2   86.69    4.20
  -2  -3  -2   91.49    5.10
  -2  -3  -2   75.29    7.30
  -2  -3  -2   94.59    4.00
  -2  -3  -2   91.79    4.90
   2   3   2   88.59    4.50
   2   3   2   91.59    5.20
   2   3   2   95.39    7.20
   2   3   2   88.59    4.20
   2   3   2   91.19    3.90
   2   3   2   90.19    3.80
   2   3   2   84.39    3.30
  -3  -3  -2  160.58    6.50
  -3  -3  -2  168.08   11.50
  -3  -3  -2  155.98    5.90
  -3  -3  -2  162.28    6.60
  -3  -3  -2  180.18    7.70
  -3  -3  -2  159.78    6.60
  -3  -3  -2  169.28    8.10
  -3  -3  -2  172.68    6.10
   3   3   2  166.98    6.00
   3   3   2  155.58    6.60
   3   3   2  169.98   10.90
   3   3   2  167.08    8.40
   3   3   2  153.78    5.90
   3   3   2  170.48    6.00
   3   3   2  160.48    6.40
  -4  -3  -2   57.99    3.80
  -4  -3  -2   58.29    4.00
  -4  -3  -2   60.69    3.60
  -4  -3  -2   54.89    4.10
   4   3   2   58.29    3.70
   4   3   2   53.89    4.00
   4   3   2   61.49    4.40
   4   3   2   55.39    5.10
   4   3   2   60.59    3.80
   4   3   2   55.19    3.70
  -5  -3  -2   53.09    4.10
  -5  -3  -2   49.99    4.00
  -5  -3  -2   44.80    3.80
  -5  -3  -2   48.50    4.10
   5   3   2   51.89    6.00
   5   3   2   35.20    7.00
   5   3   2   49.00    4.10
   5   3   2   57.29    4.30
   5   3   2   45.90    3.50
   5   3   2   43.90    4.30
  -6  -3  -2  268.87   10.60
  -6  -3  -2  269.57   10.40
  -6  -3  -2  282.27   11.50
  -6  -3  -2  258.47   10.20
   6   3   2  280.07   10.90
   6   3   2  293.17   12.50
   6   3   2  274.87   14.10
   6   3   2  300.17   11.50
  -7  -3  -2   15.10    3.00
  -7  -3  -2   11.00    2.80
  -7  -3  -2   13.90    3.40
  -7  -3  -2    9.30    2.30
   7   3   2   11.20    3.90
   7   3   2    8.80    2.70
   7   3   2   10.50    3.50
   7   3   2    6.30    3.20
  -8  -3  -2   25.40    4.60
  -8  -3  -2   24.40    4.40
  -8  -3  -2   30.60    4.60
   8   3   2   22.40    4.70
   8   3   2   26.40    2.30
   8   3   2   18.00    5.70
   8   3   2   23.90    4.40
   8   3   2   29.40    5.30
  -9  -3  -2   25.60    4.70
  -9  -3  -2   23.80    4.90
  -9  -3  -2   23.60    4.90
   9   3   2   24.10    5.60
   9   3   2   25.00    6.60
   9   3   2   19.20    4.80
   9   3   2   31.50    5.70
 -10  -3  -2   -3.80    3.10
 -10  -3  -2    2.60    3.40
 -10  -3  -2   -1.70    2.20
  10   3   2    1.30    2.70
  10   3   2   -3.40    4.20
  10   3   2    0.20    2.60
  10   3   2    1.00    3.90
 -11  -3  -2    7.70    4.50
 -11  -3  -2    8.20    4.10
 -11  -3  -2    8.10    4.40
  11   3   2    7.60    4.90
  11   3   2    5.50    4.70
  11   3   2    2.80    6.30
  11   3   2    3.60    3.80
 -12  -3  -2   -1.40    4.50
 -12  -3  -2    0.60    4.20
 -12  -3  -2    1.00    4.00
  12   3   2   -0.10    3.20
  12   3   2   -4.60    4.40
  12   3   2   -5.00    4.40
   9  -4  -2    5.10    6.00
   8  -4  -2   13.40    4.70
   8  -4  -2   14.50    6.90
   8  -4  -2   10.20    8.30
  -8   4   2   17.50    4.60
   7  -4  -2    5.10    4.20
   7  -4  -2   -1.80    4.20
   7  -4  -2    4.90    3.80
  -7   4   2    5.50    3.50
   6  -4  -2   -1.20    2.70
   6  -4  -2   -0.50    5.20
   6  -4  -2    0.50    2.40
   6  -4  -2    1.20    4.00
  -6   4   2    2.20    1.90
  -6   4   2   -0.20    2.80
  -6   4   2    0.60    2.80
   5  -4  -2   60.69   10.70
   5  -4  -2   54.19    5.60
   5  -4  -2   53.99    7.80
   5  -4  -2   52.39    5.10
  -5   4   2   55.69    4.70
  -5   4   2   66.79    5.70
  -5   4   2   55.39    5.80
   4  -4  -2   -1.40    3.60
   4  -4  -2   -1.40    2.20
   4  -4  -2    1.90    2.30
   4  -4  -2   -2.70    1.50
  -4   4   2   -1.40    1.40
  -4   4   2    0.80    2.30
  -4   4   2    1.00    1.00
  -4   4   2   -0.20    1.50
   3  -4  -2   26.30    3.60
   3  -4  -2   29.10    3.10
   3  -4  -2   34.40    5.50
   3  -4  -2   20.90    5.20
  -3   4   2   25.30    3.90
  -3   4   2   27.10    3.90
  -3   4   2   28.30    1.70
   2  -4  -2   45.90    5.80
   2  -4  -2   45.20    3.80
   2  -4  -2   48.50    3.50
   2  -4  -2   49.70    7.20
   2  -4  -2   49.70    4.00
  -2   4   2   45.40    4.20
  -2   4   2   43.90    3.80
  -2   4   2   47.40    4.30
  -2   4   2   45.40    4.70
   1  -4  -2    4.20    1.70
   1  -4  -2    1.90    1.60
   1  -4  -2    1.60    1.30
   1  -4  -2   -1.80    2.10
   1  -4  -2    1.40    1.60
   1  -4  -2    1.00    1.10
  -1   4   2    0.80    1.70
  -1   4   2    2.30    2.10
  -1   4   2    1.20    1.70
  -1   4   2    1.00    1.10
   0  -4  -2  571.54   18.70
   0  -4  -2  583.24   29.30
   0  -4  -2  578.84   15.70
   0  -4  -2  573.34   19.30
   0  -4  -2  568.04   15.80
   0  -4  -2  563.84   16.30
   0   4   2  580.14   19.50
   0   4   2  543.25   16.40
   0   4   2  581.64   19.20
   0   4   2  558.74   16.40
   0   4   2  585.84   15.70
  -1  -4  -2  196.48    8.90
  -1  -4  -2  197.08    7.90
  -1  -4  -2  206.98    7.50
  -1  -4  -2  206.98   13.30
  -1  -4  -2  202.78    7.10
  -1  -4  -2  207.28    7.70
  -1  -4  -2  191.38    7.00
   1   4   2  192.48    9.00
   1   4   2  201.88    7.50
   1   4   2  197.58    6.90
   1   4   2  198.88    7.70
   1   4   2  198.98    6.50
   1   4   2  192.78    7.70
   1   4   2  201.48    8.10
  -2  -4  -2  170.28    6.30
  -2  -4  -2  169.98    6.70
  -2  -4  -2  168.58    6.40
  -2  -4  -2  181.98    7.80
  -2  -4  -2  162.08   11.70
  -2  -4  -2  166.78    6.80
  -2  -4  -2  165.98    8.20
   2   4   2  167.18    7.00
   2   4   2  177.28    6.40
   2   4   2  176.88    7.80
   2   4   2  174.98    6.60
   2   4   2  183.38   12.20
   2   4   2  162.58    6.20
  -3  -4  -2   28.60    2.50
  -3  -4  -2   26.70    3.10
  -3  -4  -2   24.00    3.20
  -3  -4  -2   29.60    2.50
  -3  -4  -2   33.90    3.30
   3   4   2   25.30    4.70
   3   4   2   21.40    3.30
   3   4   2   29.20    2.90
   3   4   2   25.90    2.70
  -4  -4  -2  198.88    7.60
  -4  -4  -2  192.78    7.30
  -4  -4  -2  186.38    8.60
  -4  -4  -2  200.98   13.80
  -4  -4  -2  194.98    7.70
   4   4   2  180.08    7.90
   4   4   2  179.38    7.90
   4   4   2  188.68    9.80
   4   4   2  184.78    7.50
  -5  -4  -2   -2.50    1.60
  -5  -4  -2   -0.80    1.10
  -5  -4  -2   -1.80    1.60
  -5  -4  -2    0.00    1.60
   5   4   2   -0.90    1.10
   5   4   2    0.90    2.20
   5   4   2   -1.20    1.60
   5   4   2    0.70    2.10
  -6  -4  -2   12.50    2.40
  -6  -4  -2    9.80    2.70
  -6  -4  -2   12.40    2.90
   6   4   2    5.80    2.40
   6   4   2   10.40    3.10
   6   4   2    7.80    3.60
   6   4   2    8.10    2.60
  -7  -4  -2   10.00    3.30
  -7  -4  -2   16.90    3.20
   7   4   2   12.80    4.10
   7   4   2   14.90    3.30
   7   4   2   11.60    3.10
   7   4   2   20.20    4.20
  -8  -4  -2    1.40    2.00
  -8  -4  -2    0.30    2.10
  -8  -4  -2    0.50    2.00
   8   4   2   -3.10    2.70
   8   4   2   -2.50    2.30
   8   4   2    0.40    3.00
   8   4   2    0.00    2.10
  -9  -4  -2   -2.50    1.70
  -9  -4  -2    3.50    2.80
  -9  -4  -2    1.60    2.60
   9   4   2    0.70    3.30
   9   4   2   -0.50    3.40
   9   4   2    1.90    3.60
   9   4   2   -0.60    3.20
 -10  -4  -2   -1.50    2.80
 -10  -4  -2   -0.90    3.10
 -10  -4  -2   -1.90    2.40
  10   4   2   -3.10    3.30
  10   4   2   -9.70    4.10
  10   4   2   -2.90    3.00
  10   4   2    3.20    4.40
 -11  -4  -2    2.50    4.00
 -11  -4  -2   -2.00    3.60
 -11  -4  -2   -3.40    3.20
  11   4   2    3.40    3.10
  11   4   2   -5.00    5.30
  11   4   2   -0.40    4.80
  11   4   2    5.60    4.40
 -12  -4  -2    0.00    3.10
 -12  -4  -2   -0.50    3.90
 -12  -4  -2   -0.80    4.70
  12   4   2    3.50    4.40
  12   4   2   -3.70    4.50
  12   4   2   -6.90    4.00
  12   4   2    5.60    6.30
  13   4   2  -12.30    6.60
   8  -5  -2    4.40    6.20
   7  -5  -2   17.60    7.50
   7  -5  -2   20.10    7.40
   7  -5  -2   28.20    5.90
  -7   5   2   19.50    5.50
   6  -5  -2    8.00    3.90
   6  -5  -2    5.20    5.50
   6  -5  -2    5.60    6.70
   6  -5  -2    9.30    3.30
  -6   5   2    8.40    2.90
  -6   5   2    9.40    4.10
  -6   5   2    5.70    3.70
   5  -5  -2   -1.50    2.70
   5  -5  -2    0.90    2.50
   5  -5  -2    4.60    4.90
   5  -5  -2   -2.80    3.40
  -5   5   2    0.70    2.70
  -5   5   2    2.70    2.20
  -5   5   2   -1.90    2.60
   4  -5  -2   17.90    3.60
   4  -5  -2   36.80    4.70
   4  -5  -2   22.00    5.40
   4  -5  -2   14.30    5.30
  -4   5   2   23.00    3.70
  -4   5   2   22.80    4.60
  -4   5   2   22.00    4.10
   3  -5  -2   79.09   10.30
   3  -5  -2   66.59    5.00
   3  -5  -2   80.89    8.80
   3  -5  -2   68.69    5.60
  -3   5   2   73.89    5.70
  -3   5   2   75.69    6.10
  -3   5   2   73.59    6.50
   2  -5  -2   24.60    3.50
   2  -5  -2   20.70    3.20
   2  -5  -2   23.70    4.70
   2  -5  -2   14.10    5.00
  -2   5   2   22.20    3.80
  -2   5   2   20.30    3.40
  -2   5   2   17.80    3.60
   1  -5  -2   10.30    3.20
   1  -5  -2    6.30    3.20
   1  -5  -2    6.80    2.10
   1  -5  -2    8.30    2.30
  -1   5   2   11.80    3.30
  -1   5   2    9.80    2.60
  -1   5   2    5.50    2.40
   0  -5  -2   -0.50    1.90
   0  -5  -2   -1.90    1.30
   0  -5  -2    1.60    1.70
   0  -5  -2   -0.70    1.80
   0   5   2    1.10    1.70
   0   5   2   -0.80    1.10
   0   5   2    1.20    1.50
   0   5   2   -1.10    2.30
  -1  -5  -2   12.20    2.40
  -1  -5  -2    9.90    3.80
  -1  -5  -2   20.60    2.90
  -1  -5  -2   13.40    2.20
  -1  -5  -2   13.40    2.40
   1   5   2   11.00    2.40
   1   5   2   17.10    2.40
   1   5   2   11.00    1.70
   1   5   2   13.60    1.90
   1   5   2   13.10    2.50
   1   5   2   14.00    2.90
   1   5   2    8.00    2.50
  -2  -5  -2   79.79    4.70
  -2  -5  -2   84.09    4.50
  -2  -5  -2   82.29    5.00
  -2  -5  -2   84.59    8.90
  -2  -5  -2   90.79    5.10
   2   5   2   89.29    3.60
   2   5   2   89.09    4.90
   2   5   2   81.89    6.50
   2   5   2   87.79    5.40
   2   5   2   89.99    5.40
   2   5   2   91.09    4.60
   2   5   2   91.59    5.60
  -3  -5  -2  400.66   12.40
  -3  -5  -2  398.76   12.40
  -3  -5  -2  417.56   15.40
  -3  -5  -2  403.96   24.30
   3   5   2  404.06   15.40
   3   5   2  377.76   13.10
   3   5   2  390.56   13.40
   3   5   2  401.46   13.40
  -4  -5  -2 1149.29   29.80
  -4  -5  -2 1336.87   54.59
  -4  -5  -2 1137.99   29.70
  -4  -5  -2 1109.09   32.90
   4   5   2 1113.39   37.30
   4   5   2 1117.89   30.70
   4   5   2 1160.28   31.10
  -5  -5  -2   11.40    4.20
  -5  -5  -2   14.50    2.70
  -5  -5  -2   17.30    2.70
  -5  -5  -2   16.60    2.50
   5   5   2   15.70    3.60
   5   5   2   13.60    3.30
   5   5   2   19.70    3.30
   5   5   2   13.40    2.40
  -6  -5  -2   56.99    4.90
  -6  -5  -2   61.39    4.30
  -6  -5  -2   71.59    5.10
   6   5   2   53.89    6.40
   6   5   2   67.99    5.40
   6   5   2   58.39    5.00
   6   5   2   56.79    5.50
  -7  -5  -2    6.50    2.10
  -7  -5  -2    5.00    2.20
  -7  -5  -2    7.90    3.00
   7   5   2    1.30    3.60
   7   5   2    1.80    2.20
   7   5   2    1.10    3.00
   7   5   2    1.70    2.10
  -8  -5  -2   18.60    4.30
  -8  -5  -2   19.60    3.60
  -8  -5  -2   16.50    3.90
   8   5   2   23.30    4.40
   8   5   2   17.00    3.90
   8   5   2   13.40    4.40
   8   5   2   21.50    4.40
  -9  -5  -2   -0.20    2.20
  -9  -5  -2    7.80    3.00
  -9  -5  -2    7.90    3.20
   9   5   2    0.60    3.00
   9   5   2    0.00    3.40
   9   5   2    3.50    3.70
   9   5   2    5.00    4.10
 -10  -5  -2    2.20    3.30
 -10  -5  -2   -4.80    2.70
 -10  -5  -2   -2.30    3.30
  10   5   2   -6.00    3.30
  10   5   2    7.90    5.70
  10   5   2    5.00    3.90
  10   5   2    5.40    4.10
 -11  -5  -2    3.70    4.10
 -11  -5  -2    2.10    3.60
 -11  -5  -2   13.30    4.70
  11   5   2    4.20    4.40
  11   5   2   12.70    5.10
  11   5   2   12.00    5.60
  11   5   2    5.60    6.60
 -12  -5  -2   -0.70    4.20
 -12  -5  -2    1.20    3.40
  12   5   2    7.10    5.10
  12   5   2   -4.40    4.10
  12   5   2   -6.10    5.00
  12   5   2   -2.80    4.20
   7  -6  -2   -4.40    5.40
   7  -6  -2    8.40    6.80
   6  -6  -2    0.70    2.70
   6  -6  -2   -0.80    4.80
   6  -6  -2   -1.70    6.70
  -6   6   2   -3.00    2.90
   5  -6  -2    7.70    3.40
   5  -6  -2    8.40    5.70
   5  -6  -2    1.50    4.40
   5  -6  -2    3.30    3.70
  -5   6   2    4.10    3.90
  -5   6   2    5.30    2.70
  -5   6   2    7.50    3.60
   4  -6  -2    9.90    5.80
   4  -6  -2    2.00    5.00
   4  -6  -2    4.00    2.60
   4  -6  -2    8.00    2.80
  -4   6   2    8.20    3.70
  -4   6   2    8.20    3.00
  -4   6   2   12.20    3.50
   3  -6  -2   80.29   12.10
   3  -6  -2   65.19    8.60
   3  -6  -2   80.99    6.60
   3  -6  -2   76.09    6.20
  -3   6   2   66.59    7.20
  -3   6   2   76.59    6.80
  -3   6   2   71.89    6.80
   2  -6  -2   10.10    4.30
   2  -6  -2    4.90    2.70
   2  -6  -2    7.90    4.80
   2  -6  -2    3.90    2.60
  -2   6   2   16.80    4.00
  -2   6   2    6.70    3.30
  -2   6   2    4.20    3.10
   1  -6  -2   28.40    6.30
   1  -6  -2   39.00    4.20
   1  -6  -2   37.00    4.40
   1  -6  -2   28.90    4.90
  -1   6   2   33.20    4.60
  -1   6   2   32.80    5.20
  -1   6   2   30.80    4.40
   0  -6  -2  161.68   14.40
   0  -6  -2  162.18    7.60
   0  -6  -2  145.89    7.10
   0  -6  -2  155.68    9.10
   0   6   2  152.18    7.90
   0   6   2  150.58    9.30
   0   6   2  166.88    8.60
  -1  -6  -2    2.10    2.00
  -1  -6  -2   -2.30    0.90
  -1  -6  -2   -1.20    1.70
  -1  -6  -2    1.00    2.40
   1   6   2   -1.80    2.00
   1   6   2    3.00    1.30
   1   6   2    0.60    2.80
   1   6   2    0.10    1.10
   1   6   2    0.00    1.90
  -2  -6  -2   15.60    2.80
  -2  -6  -2   15.90    4.60
  -2  -6  -2   17.00    3.10
  -2  -6  -2   14.70    2.20
   2   6   2   16.90    3.40
   2   6   2   11.80    2.40
   2   6   2    7.60    3.30
   2   6   2   14.50    2.70
   2   6   2   14.00    2.80
   2   6   2   14.80    1.90
  -3  -6  -2   81.39    5.60
  -3  -6  -2   73.79    4.90
  -3  -6  -2   70.09    4.60
  -3  -6  -2   66.29   10.60
   3   6   2   85.99    6.10
   3   6   2   80.69    5.60
   3   6   2   85.19    7.30
   3   6   2   72.69    4.80
  -4  -6  -2  230.58    9.30
  -4  -6  -2  227.38   17.90
  -4  -6  -2  239.08    9.10
   4   6   2  221.68   10.00
   4   6   2  249.97   10.40
   4   6   2  236.68   11.90
   4   6   2  239.38    9.30
  -5  -6  -2  240.18    9.80
  -5  -6  -2  253.97    9.90
  -5  -6  -2  295.27   19.60
  -5  -6  -2  265.57   10.00
   5   6   2  251.57   11.20
   5   6   2  248.78   10.80
   5   6   2  262.07   13.60
  -6  -6  -2   14.20    2.80
  -6  -6  -2   11.90    2.10
  -6  -6  -2    8.30    2.50
   6   6   2    7.70    2.30
   6   6   2    9.30    2.80
   6   6   2    8.90    3.00
   6   6   2    6.90    3.70
  -7  -6  -2   24.60    3.70
  -7  -6  -2   25.40    4.30
  -7  -6  -2   22.30    3.10
   7   6   2   21.10    4.00
   7   6   2   18.80    3.30
   7   6   2   22.90    4.90
   7   6   2   20.30    4.50
  -8  -6  -2   -4.30    2.50
  -8  -6  -2   -2.90    2.40
   8   6   2    2.40    4.20
   8   6   2    0.40    3.20
   8   6   2    0.30    2.40
   8   6   2   -1.80    2.00
  -9  -6  -2    7.00    3.80
  -9  -6  -2   11.50    3.00
  -9  -6  -2    5.90    3.40
   9   6   2    8.80    3.60
   9   6   2   10.50    3.60
   9   6   2    3.40    3.50
   9   6   2    7.10    5.30
 -10  -6  -2    8.10    3.10
 -10  -6  -2   13.10    3.80
 -10  -6  -2    4.90    3.20
  10   6   2    9.20    4.00
  10   6   2    5.60    4.10
  10   6   2   11.30    5.40
  10   6   2    9.40    3.80
 -11  -6  -2    7.20    3.60
 -11  -6  -2   11.80    4.70
  11   6   2   -2.10    6.10
  11   6   2   10.60    5.20
  11   6   2   18.50    5.70
  11   6   2    2.70    4.30
 -12  -6  -2   33.90    6.60
 -12  -6  -2   17.70    5.10
  12   6   2   23.40    6.00
  12   6   2    4.00    7.30
  12   6   2   20.30    6.30
  13   6   2   11.40    6.00
   6  -7  -2   -5.40    7.30
   6  -7  -2   -2.60    5.50
   5  -7  -2   12.20    7.30
   5  -7  -2    5.90    5.40
   5  -7  -2   10.10    3.70
  -5   7   2    8.40    4.50
   4  -7  -2    6.20    3.50
   4  -7  -2    6.60    3.20
   4  -7  -2   -0.90    5.20
   4  -7  -2    7.70    5.80
  -4   7   2   10.50    4.40
  -4   7   2   12.80    3.70
  -4   7   2    3.90    3.70
   3  -7  -2   26.50    7.80
   3  -7  -2   29.70    4.80
   3  -7  -2   25.10    6.60
   3  -7  -2   36.30    5.20
  -3   7   2   26.30    5.30
  -3   7   2   26.20    5.00
   2  -7  -2   62.09   11.30
   2  -7  -2   40.60    6.30
   2  -7  -2   46.20    5.50
   2  -7  -2   50.79    5.80
  -2   7   2   50.49    6.60
  -2   7   2   42.50    5.90
  -2   7   2   48.90    6.80
   1  -7  -2  241.38   10.70
   1  -7  -2  227.08   10.20
   1  -7  -2  220.98   13.20
   1  -7  -2  241.78   19.90
  -1   7   2  227.58   13.20
  -1   7   2  196.58   10.50
  -1   7   2  221.08   11.40
   0  -7  -2  107.09   13.10
   0  -7  -2  105.79    6.70
   0  -7  -2  102.39    6.80
   0  -7  -2  109.49    8.50
   0   7   2   96.29    6.90
   0   7   2  111.49    9.60
   0   7   2  117.59    7.90
  -1  -7  -2  152.18   15.00
  -1  -7  -2  143.99    7.60
  -1  -7  -2  131.19    7.30
   1   7   2  121.99    8.00
   1   7   2  141.29    8.40
   1   7   2  143.09   10.40
   1   7   2  134.79    6.00
   1   7   2  126.99    6.00
  -2  -7  -2   24.00    3.50
  -2  -7  -2   14.90    5.30
  -2  -7  -2   22.90    3.70
   2   7   2   21.60    3.80
   2   7   2   24.70    2.40
   2   7   2   22.30    3.10
   2   7   2   23.60    4.40
   2   7   2   20.70    4.30
  -3  -7  -2   14.10    2.80
  -3  -7  -2    5.30    6.10
  -3  -7  -2   12.70    2.50
  -3  -7  -2   12.40    2.60
   3   7   2   11.20    3.10
   3   7   2   14.00    1.70
   3   7   2   16.80    3.40
   3   7   2   17.20    3.30
   3   7   2   12.60    2.90
   3   7   2   13.90    3.70
  -4  -7  -2    3.20    2.00
  -4  -7  -2    3.10    1.80
  -4  -7  -2    4.30    6.40
   4   7   2   -1.10    2.40
   4   7   2    3.20    2.10
   4   7   2    2.10    2.30
   4   7   2    2.30    2.80
  -5  -7  -2   55.69   11.20
  -5  -7  -2   54.89    4.90
  -5  -7  -2   46.10    4.30
  -5  -7  -2   39.80    3.80
   5   7   2   43.20    5.20
   5   7   2   53.19    6.60
  -6  -7  -2   -2.20    4.80
  -6  -7  -2    2.20    2.70
  -6  -7  -2    0.80    1.30
  -6  -7  -2   -0.40    2.40
   6   7   2    1.10    3.10
   6   7   2   -1.10    2.80
   6   7   2   -3.20    2.60
  -7  -7  -2    3.10    1.70
  -7  -7  -2    5.80    2.90
  -7  -7  -2    2.80    2.40
   7   7   2    2.50    2.60
   7   7   2    1.90    2.10
   7   7   2    2.50    2.90
   7   7   2   -2.30    2.10
  -8  -7  -2  157.58    9.30
  -8  -7  -2  167.98    8.90
  -8  -7  -2  153.38    7.80
   8   7   2  150.48    9.60
   8   7   2  160.28    9.50
   8   7   2  173.28   10.50
   8   7   2  158.48   13.10
  -9  -7  -2   12.60    3.70
  -9  -7  -2   17.50    3.50
  -9  -7  -2   14.90    3.70
   9   7   2   16.30    3.80
   9   7   2   20.00    5.20
   9   7   2   15.70    4.90
   9   7   2   13.10    5.10
 -10  -7  -2    8.10    4.10
 -10  -7  -2    2.00    3.40
  10   7   2    7.10    6.10
  10   7   2    5.50    3.50
  10   7   2    1.60    3.10
  10   7   2    1.30    3.20
 -11  -7  -2   21.70    5.50
 -11  -7  -2   18.20    4.60
  11   7   2   16.20    5.40
  11   7   2   24.00    8.30
  11   7   2   13.30    4.60
  11   7   2   14.50    5.50
 -12  -7  -2    0.20    4.00
 -12  -7  -2    0.60    3.50
  12   7   2    0.60    5.30
  12   7   2    4.70    4.90
  12   7   2   -0.90    4.60
  13   7   2    5.70    5.50
   5  -8  -2   -5.80    4.70
   5  -8  -2    1.60    6.20
   4  -8  -2   -3.30    4.60
   4  -8  -2   -2.70    3.60
   4  -8  -2   -1.10    4.30
  -4   8   2   -2.30    3.00
  -4   8   2    5.60    3.60
   3  -8  -2    8.50    4.00
   3  -8  -2    9.70    6.90
   3  -8  -2   25.20    4.70
   3  -8  -2   12.10    6.10
  -3   8   2   17.90    4.60
  -3   8   2   25.20    5.30
   2  -8  -2    0.40    3.00
   2  -8  -2   -2.00    1.80
   2  -8  -2   -1.80    4.60
   2  -8  -2   -0.90    3.90
  -2   8   2    4.60    3.60
  -2   8   2   -9.20    3.10
  -2   8   2    4.40    3.10
   1  -8  -2    0.40    3.70
   1  -8  -2   -0.10    3.90
   1  -8  -2    3.10    2.40
   1  -8  -2    3.70    3.00
  -1   8   2    4.20    3.40
  -1   8   2   -1.90    4.10
  -1   8   2    4.90    2.90
   0  -8  -2   60.99    5.50
   0  -8  -2   66.29    5.50
   0  -8  -2   70.39    7.50
   0  -8  -2   41.90    9.40
   0   8   2   62.59    7.60
   0   8   2   53.39    5.80
   0   8   2   59.49    6.10
  -1  -8  -2   23.10    3.90
  -1  -8  -2   22.80    6.50
  -1  -8  -2   32.80    4.50
   1   8   2   26.40    2.80
   1   8   2   28.50    3.50
   1   8   2   26.10    4.70
   1   8   2   19.60    5.40
   1   8   2   28.90    4.80
  -2  -8  -2    8.30    3.10
  -2  -8  -2    6.50    2.60
  -2  -8  -2    8.40    6.00
   2   8   2    8.50    2.40
   2   8   2    6.50    1.80
   2   8   2    7.40    3.10
   2   8   2    5.20    3.30
   2   8   2   11.30    3.90
  -3  -8  -2   12.10    2.90
  -3  -8  -2   11.50    3.30
  -3  -8  -2   15.50    9.00
   3   8   2    8.40    4.30
   3   8   2    1.80    2.40
   3   8   2   10.30    3.20
   3   8   2    8.40    2.90
  -4  -8  -2    0.00    2.30
  -4  -8  -2   25.80    9.50
  -4  -8  -2    4.80    3.00
   4   8   2    6.40    3.30
   4   8   2    5.40    2.80
   4   8   2    3.70    2.60
   4   8   2    4.90    2.80
  -5  -8  -2   -0.30    1.80
  -5  -8  -2    0.90    2.00
  -5  -8  -2   -1.80    8.70
   5   8   2    5.10    2.70
   5   8   2    3.10    3.50
   5   8   2    1.60    2.80
  -6  -8  -2    6.40    2.10
  -6  -8  -2    5.40    2.40
  -6  -8  -2    7.00    2.90
  -6  -8  -2    6.00    7.60
   6   8   2   11.00    3.60
   6   8   2    6.40    3.90
   6   8   2   10.70    3.50
  -7  -8  -2  297.67   12.70
  -7  -8  -2  326.27   13.30
  -7  -8  -2  304.67   11.60
   7   8   2  287.07   16.90
   7   8   2  314.67   14.20
   7   8   2  294.37   13.90
  -8  -8  -2   31.90    4.60
  -8  -8  -2   38.10    3.70
  -8  -8  -2   30.50    5.40
   8   8   2   16.90    5.80
   8   8   2   37.90    6.30
   8   8   2   31.10    4.50
   8   8   2   33.30    5.70
  -9  -8  -2   -5.00    1.90
  -9  -8  -2   -2.30    1.90
   9   8   2   -2.10    3.00
   9   8   2   -2.90    3.40
   9   8   2    6.70    4.20
   9   8   2    6.10    2.70
 -10  -8  -2    0.70    3.30
 -10  -8  -2    3.00    3.80
  10   8   2   -5.30    2.00
  10   8   2   -7.90    4.50
  10   8   2    3.30    3.40
 -11  -8  -2    2.20    3.10
 -11  -8  -2    5.00    4.50
  11   8   2    0.60    4.40
  11   8   2   -0.10    4.30
  11   8   2    0.60    6.20
 -12  -8  -2   10.90    5.20
 -12  -8  -2    6.80    5.30
  12   8   2   12.20    5.80
  12   8   2   12.20    5.70
  12   8   2    8.40    6.40
  13   8   2   -4.50    3.70
   4  -9  -2   -8.50    5.60
   4  -9  -2   -5.00    5.80
   3  -9  -2    5.90    6.00
   3  -9  -2   12.90    5.30
   3  -9  -2    7.40    3.70
   3  -9  -2    3.50    5.90
  -3   9   2   11.50    4.90
   2  -9  -2   31.50    5.60
   2  -9  -2   29.70    5.10
   2  -9  -2   37.80    7.40
   2  -9  -2   16.00    7.40
  -2   9   2   38.10    7.00
  -2   9   2   26.10    5.50
   1  -9  -2    0.50    2.30
   1  -9  -2   -0.30    4.00
   1  -9  -2    0.70    3.90
   1  -9  -2    7.90    3.10
  -1   9   2   -6.60    4.00
  -1   9   2    0.40    3.80
  -1   9   2    4.30    4.00
   0  -9  -2   11.90    3.50
   0  -9  -2    2.50    5.70
   0  -9  -2    7.70    3.20
   0   9   2   10.50    4.20
   0   9   2    6.90    3.00
   0   9   2   10.00    4.40
   0   9   2    4.30    4.90
  -1  -9  -2   -3.80    2.20
  -1  -9  -2   -2.40    5.70
  -1  -9  -2   -2.40    1.80
   1   9   2   -1.30    2.30
   1   9   2    1.70    3.30
   1   9   2   -1.50    4.20
   1   9   2   -0.90    1.80
  -2  -9  -2   -0.30    2.70
  -2  -9  -2    3.40    2.50
  -2  -9  -2   -0.40    6.80
   2   9   2    1.60    3.60
   2   9   2    2.60    2.80
   2   9   2   -3.10    4.20
  -3  -9  -2    3.50    3.10
   3   9   2    2.10    3.30
   3   9   2    1.20    3.40
   3   9   2    0.60    3.40
  -4  -9  -2    0.60    2.80
  -4  -9  -2    0.10    3.00
   4   9   2   -4.80    1.70
   4   9   2    3.00    4.40
   4   9   2   -1.10    2.20
   4   9   2   -3.30    2.00
  -5  -9  -2  279.07   12.30
  -5  -9  -2  290.97   12.70
  -5  -9  -2  295.57   24.80
   5   9   2  285.37   15.10
   5   9   2  296.07   14.40
   5   9   2  258.67   12.90
  -6  -9  -2  -19.10    7.70
  -6  -9  -2    0.30    2.20
  -6  -9  -2   -1.00    1.60
  -6  -9  -2    0.20    2.20
   6   9   2   -2.30    2.30
   6   9   2    3.30    3.70
  -7  -9  -2   -7.80    7.40
  -7  -9  -2    3.20    2.70
  -7  -9  -2   -0.70    1.50
  -7  -9  -2   -1.30    2.60
   7   9   2    1.00    2.80
   7   9   2    0.70    3.50
   7   9   2   -1.60    2.40
  -8  -9  -2   -2.60    2.00
  -8  -9  -2   -4.10    2.70
   8   9   2    2.10    4.10
   8   9   2    2.70    4.60
   8   9   2    1.40    3.00
   8   9   2    3.30    2.30
  -9  -9  -2    8.00    4.20
  -9  -9  -2    5.80    3.70
   9   9   2   12.60    4.20
   9   9   2    0.80    4.60
   9   9   2   25.30    5.90
 -10  -9  -2   -2.30    2.50
 -10  -9  -2   -4.20    2.10
  10   9   2    2.70    4.40
  10   9   2   -0.40    4.30
  10   9   2    3.50    4.20
 -11  -9  -2    0.80    4.30
 -11  -9  -2   -2.50    3.70
  11   9   2   -1.40    6.10
  11   9   2    2.20    3.50
  11   9   2    2.00    3.40
 -12  -9  -2   28.30    6.70
 -12  -9  -2   33.90    7.10
  12   9   2   29.50    6.70
  12   9   2   38.90    7.80
  12   9   2   17.20    7.80
  13   9   2   16.30    7.00
   3 -10  -2   -1.30    3.90
   3 -10  -2    3.30    6.60
   2 -10  -2   13.70    6.00
   2 -10  -2    7.90    4.00
   2 -10  -2    0.90    7.40
  -2  10   2    4.50    5.10
   1 -10  -2    4.30    4.20
   1 -10  -2    0.40    3.60
   1 -10  -2    1.60    7.50
  -1  10   2    1.80    3.30
  -1  10   2    2.90    3.50
  -1  10   2    4.20    3.70
   0 -10  -2    1.20    3.40
   0 -10  -2   -1.20    3.40
   0  10   2   -2.70    3.70
   0  10   2    6.30    4.40
   0  10   2  -11.60    4.10
  -1 -10  -2   -0.30    3.30
  -1 -10  -2    1.40   11.10
  -1 -10  -2    3.00    3.10
   1  10   2   -0.60    2.60
   1  10   2    1.80    3.90
   1  10   2   -6.00    4.60
  -2 -10  -2    5.90   13.30
  -2 -10  -2   -3.10    3.20
  -2 -10  -2    0.90    2.40
   2  10   2    4.40    3.30
   2  10   2    6.80    4.20
   2  10   2    0.10    3.50
  -3 -10  -2   18.20    4.10
  -3 -10  -2   11.40    4.10
  -3 -10  -2   -6.50   15.90
   3  10   2   -0.30    5.00
   3  10   2   18.10    5.30
   3  10   2   19.00    5.40
  -4 -10  -2   84.09    7.00
  -4 -10  -2   73.39    6.60
  -4 -10  -2  105.19   21.50
   4  10   2   79.19    9.50
   4  10   2   75.69    7.50
   4  10   2   74.09    9.00
  -5 -10  -2   28.20   11.90
  -5 -10  -2   14.00    3.60
  -5 -10  -2   34.50    5.70
   5  10   2   29.10    5.70
   5  10   2   34.30    5.90
   5  10   2   23.80    5.10
  -6 -10  -2   84.89    7.60
  -6 -10  -2   85.49    7.10
  -6 -10  -2  103.69   17.20
   6  10   2   86.39    8.30
   6  10   2   75.29    8.80
   6  10   2   62.39    8.40
  -7 -10  -2   26.00   12.90
  -7 -10  -2   33.50    5.60
  -7 -10  -2   28.40    5.60
   7  10   2   21.60    6.00
   7  10   2   25.20    6.20
   7  10   2   30.10    6.40
  -8 -10  -2   -4.90    2.90
  -8 -10  -2    0.80    2.70
   8  10   2    1.60    3.00
   8  10   2    1.70    3.10
   8  10   2   -9.10    3.00
  -9 -10  -2    0.50    3.90
  -9 -10  -2    7.80    3.40
   9  10   2    5.40    4.60
   9  10   2    0.90    4.20
   9  10   2   -0.10    4.70
 -10 -10  -2   -1.00    3.00
 -10 -10  -2   -4.40    2.20
  10  10   2   -3.30    5.10
  10  10   2    3.90    4.50
  10  10   2   -3.20    4.10
 -11 -10  -2   -1.30    4.10
 -11 -10  -2    4.60    4.80
  11  10   2    8.90    5.40
  11  10   2   10.50    4.80
  11  10   2   -3.20    4.50
 -12 -10  -2    5.70    3.90
  12  10   2    6.20    4.40
  12  10   2   10.40    5.30
   1 -11  -2   36.90   19.10
   0 -11  -2  -15.50   19.30
   0 -11  -2    3.50    4.00
   0 -11  -2   -2.60    2.70
   0  11   2    1.40    3.30
   0  11   2   -1.60    3.00
  -1 -11  -2   -0.60    2.80
  -1 -11  -2  -13.10   12.10
  -1 -11  -2   -0.10    3.70
   1  11   2    3.60    4.40
   1  11   2   -5.90    2.30
  -4 -11  -2    7.70    3.60
  -4 -11  -2   10.30   14.50
  -4 -11  -2    4.60    2.90
   4  11   2    7.80    5.50
  -5 -11  -2   -9.10   14.00
  -5 -11  -2    9.40    3.80
  -5 -11  -2    8.00    4.20
   5  11   2   14.50    5.50
   5  11   2   11.40    5.30
  -6 -11  -2   18.40    4.50
  -6 -11  -2   20.40   10.30
  -6 -11  -2   11.50    4.40
   6  11   2   12.10    5.50
   6  11   2    4.00    3.90
   6  11   2   10.50    4.50
  -7 -11  -2    3.50    8.70
  -7 -11  -2   -2.70    3.70
  -7 -11  -2    1.30    3.70
   7  11   2   -0.70    3.20
   7  11   2    1.10    3.90
  -8 -11  -2    4.90    3.40
  -8 -11  -2   11.20    5.30
   8  11   2    3.00    4.90
   8  11   2    6.10    5.30
   8  11   2   10.50    5.50
  -9 -11  -2   -0.20    4.00
  -9 -11  -2   -1.20    3.10
   9  11   2    4.00    3.80
   9  11   2  -10.70    4.10
   9  11   2   10.50    5.70
 -10 -11  -2   -3.00    2.60
 -10 -11  -2    0.60    4.30
  10  11   2    2.80    5.20
  10  11   2   -1.50    3.50
  10  11   2   -7.50    4.90
 -11 -11  -2   -1.60    4.50
 -11 -11  -2    0.60    4.90
  11  11   2   10.70    6.00
  11  11   2    7.20    4.80
 -12 -11  -2    4.40    4.30
  12  11   2    7.40    5.20
  -1 -12  -2   11.30    5.40
  -1 -12  -2  -47.40   24.70
   1  12   2    9.40    5.70
  -2 -12  -2  -57.49   22.90
  -2 -12  -2    5.10    4.80
  -2 -12  -2   -3.60    3.80
   2  12   2   -0.30    3.50
   2  12   2    5.20    5.10
  -3 -12  -2   15.50    5.50
  -3 -12  -2  -14.60   16.60
  -3 -12  -2    7.30    4.50
   3  12   2    3.40    5.20
   3  12   2    9.10    5.10
  -4 -12  -2    8.60    4.50
  -4 -12  -2  -24.00   19.00
  -4 -12  -2    8.70    4.10
   4  12   2    8.30    5.70
  -5 -12  -2   -3.30    3.70
  -5 -12  -2   -5.00   10.10
  -5 -12  -2   -1.30    2.80
   5  12   2    9.70    5.60
   5  12   2   -0.10    4.80
  -6 -12  -2   50.19    7.70
  -6 -12  -2   27.30    5.50
  -6 -12  -2   30.00   15.10
   6  12   2   48.70    8.20
   6  12   2   29.10    7.30
  -7 -12  -2   67.49   15.90
  -7 -12  -2   42.50    7.40
  -7 -12  -2   54.99    7.90
   7  12   2   61.49    9.40
  -8 -12  -2    6.50    5.20
  -8 -12  -2   11.50    4.00
   8  12   2   -3.40    4.60
   8  12   2    8.50    5.90
   8  12   2   20.80    6.60
  -9 -12  -2    2.70    4.90
  -9 -12  -2    0.00    4.10
   9  12   2    5.50    5.70
   9  12   2    5.00    5.50
   9  12   2   -5.20    4.70
 -10 -12  -2    0.80    4.10
 -10 -12  -2   -3.30    4.00
  10  12   2   -1.40    3.80
  10  12   2   -5.30    4.20
  10  12   2   -1.00    5.30
 -11 -12  -2   -1.90    3.30
  11  12   2   -1.30    5.50
  -3 -13  -2    2.20    5.30
   3  13   2   -0.90    6.10
  -4 -13  -2    5.80    5.30
  -4 -13  -2    3.50    5.10
   4  13   2   19.40    7.40
  -5 -13  -2   16.50    5.90
  -5 -13  -2   10.90    4.80
   5  13   2   11.30    6.60
   5  13   2   19.40    7.30
  -6 -13  -2   -4.90    4.50
  -6 -13  -2   -5.80    2.80
   6  13   2   -5.20    3.70
   6  13   2    3.10    5.40
  -7 -13  -2    1.20    3.60
  -7 -13  -2   10.40    4.50
   7  13   2    5.10    4.50
  -8 -13  -2    7.80    4.30
  -8 -13  -2    3.50    4.00
   8  13   2   21.70    6.40
   8  13   2    7.20    5.00
  -9 -13  -2    2.50    4.90
   9  13   2    8.10    7.10
   9  13   2    0.30    4.40
  10  12  -3  -12.70    5.90
   9  12  -3    6.20    6.40
   9  12  -3   -6.80    5.50
   8  12  -3   -5.70    4.10
   8  12  -3   -5.00    4.90
   8  12  -3   -8.10    5.00
  -8 -12   3    2.90    4.60
   7  12  -3   -3.40    6.10
   7  12  -3    7.40    4.60
   7  12  -3   -0.10    4.90
  -7 -12   3    6.40    4.80
  -7 -12   3    1.30    4.10
   6  12  -3   -4.00    5.70
   6  12  -3    9.60    5.40
   6  12  -3    1.10    4.40
  -6 -12   3   14.30    5.20
  -6 -12   3    5.20    3.90
   5  12  -3    2.50    4.40
   5  12  -3   -1.70    4.60
   5  12  -3    7.10    4.20
  -5 -12   3    6.80    3.70
  -5 -12   3    3.00    4.50
   4  12  -3    1.20    5.80
   4  12  -3   -2.90    6.40
   4  12  -3    1.90    4.70
  -4 -12   3    1.70    4.30
  -4 -12   3    2.30    4.80
   3  12  -3    3.10    5.90
   3  12  -3    9.10    4.90
  -3 -12   3   26.10   10.30
  -3 -12   3    6.20    3.80
  -3 -12   3   17.90    5.40
   2  12  -3    3.20    5.50
  -2 -12   3    7.10    5.00
  -2 -12   3   32.10   10.00
  11  11  -3   16.00    5.40
  10  11  -3    5.50    4.30
  10  11  -3   -1.70    4.80
  10  11  -3   -7.00    4.80
 -10 -11   3   -3.20    3.90
   9  11  -3   10.50    5.50
   9  11  -3    7.60    5.00
   9  11  -3   -5.60    4.90
  -9 -11   3   15.00    5.10
   8  11  -3   15.40    6.80
   8  11  -3   23.10    7.30
   8  11  -3   25.10    6.60
  -8 -11   3   25.70    5.70
   7  11  -3    4.00    3.60
   7  11  -3   -3.80    3.80
   7  11  -3   -2.80    3.80
   7  11  -3   -3.00    4.90
  -7 -11   3    1.50    2.80
  -7 -11   3   -2.70    3.30
   6  11  -3    0.80    5.50
   6  11  -3    4.20    4.40
   6  11  -3   11.90    5.10
   6  11  -3    6.40    4.10
  -6 -11   3    2.20    3.50
  -6 -11   3    3.60    4.10
  -6 -11   3    6.10    4.40
   5  11  -3   -2.20    3.80
   5  11  -3    3.90    3.20
   5  11  -3    5.80    5.70
   5  11  -3    4.60    4.10
  -5 -11   3   -1.50    3.50
  -5 -11   3   -2.30    2.60
  -5 -11   3   -1.90    2.40
   4  11  -3   -4.20    4.70
   4  11  -3    0.40    2.90
   4  11  -3    0.80    3.00
   4  11  -3    1.40    3.30
  -4 -11   3   -3.00    2.30
  -4 -11   3    3.50    3.00
  -4 -11   3    1.90    2.70
   3  11  -3    4.20    5.70
   3  11  -3    8.10    4.10
   3  11  -3    6.00    4.50
  -3 -11   3   13.40   10.50
  -3 -11   3    2.10    4.00
  -3 -11   3    8.30    3.60
  -3 -11   3    1.60    2.70
   2  11  -3   -6.00    5.40
   2  11  -3   12.00    4.90
   2  11  -3    0.40    4.50
  -2 -11   3   17.30   10.40
  -2 -11   3   10.70    4.80
  -2 -11   3    8.20    4.50
   1  11  -3   -2.20    5.80
   1  11  -3   -0.30    4.30
   1  11  -3   -1.50    3.50
  -1 -11   3    2.40    4.60
  -1 -11   3   -1.30    2.70
  -1 -11   3    0.90    9.10
   0  11  -3   -0.60    4.90
   0  11  -3    1.20    5.80
   0  11  -3   -7.30    5.80
   0 -11   3    0.80    3.60
   0 -11   3    0.50    3.50
   1 -11   3   -0.10    5.40
  12  10  -3   19.50    6.40
  11  10  -3   -2.80    4.10
  11  10  -3    7.50    3.90
  11  10  -3    2.30    4.80
 -11 -10   3   -3.30    3.90
  10  10  -3    3.60    4.60
  10  10  -3   10.40    5.10
 -10 -10   3   -2.40    3.60
   9  10  -3   12.30    5.30
   9  10  -3    6.60    5.90
   9  10  -3    2.90    4.40
  -9 -10   3    6.30    3.40
   8  10  -3   -4.80    4.00
   8  10  -3   -4.20    3.70
  -8 -10   3   -0.60    2.50
   7  10  -3   10.00    5.10
   7  10  -3   14.00    4.60
   7  10  -3    9.40    5.30
   7  10  -3   12.70    4.00
  -7 -10   3   13.80    3.70
  -7 -10   3   14.60    4.60
  -7 -10   3   16.60    4.20
   6  10  -3   13.40    5.00
   6  10  -3   13.30    4.80
   6  10  -3   15.30    5.40
   6  10  -3   16.90    4.20
  -6 -10   3   12.60    4.30
  -6 -10   3   19.30    4.20
  -6 -10   3   16.60    3.70
   5  10  -3   -1.10    4.20
   5  10  -3    5.10    3.20
   5  10  -3    5.70    4.20
   5  10  -3   -0.70    3.00
  -5 -10   3    4.30    3.00
  -5 -10   3    1.50    2.30
  -5 -10   3   -0.50    2.50
   4  10  -3    0.40    3.50
   4  10  -3   -6.30    3.00
   4  10  -3    0.80    3.40
   4  10  -3   -3.90    3.30
  -4 -10   3    0.20    2.60
  -4 -10   3    1.70    2.40
  -4 -10   3   -0.60    3.20
   3  10  -3    5.00    3.10
   3  10  -3   -1.80    4.60
   3  10  -3   -1.40    3.50
   3  10  -3    4.80    4.10
  -3 -10   3    0.70    3.60
  -3 -10   3    2.60    3.40
  -3 -10   3   -2.10    7.70
   2  10  -3    9.50    4.80
   2  10  -3    5.30    3.40
   2  10  -3    8.40    5.80
   2  10  -3   12.20    5.20
  -2 -10   3   12.50    4.30
  -2 -10   3   12.60    4.40
  -2 -10   3  -22.00   10.10
   1  10  -3    0.80    4.30
   1  10  -3    7.70    4.10
   1  10  -3    3.80    5.60
  -1 -10   3    7.90    4.30
  -1 -10   3   14.80    4.80
   0  10  -3   35.40    7.50
   0  10  -3   32.30    6.30
   0  10  -3   25.90    6.20
   0 -10   3   28.30    5.90
   0 -10   3   50.09   13.90
   0 -10   3   43.70    7.00
  -1  10  -3   -1.70    5.20
  -1  10  -3   -1.70    3.80
  -1  10  -3   -0.80    4.10
   1 -10   3    1.80    4.10
   1 -10   3   -2.70    3.90
  -2  10  -3    0.30    3.40
  -2  10  -3   11.00    7.20
  -2  10  -3   -2.50    5.70
   2 -10   3   -3.70    4.50
  12   9  -3    4.70    5.50
  11   9  -3   15.40    5.20
  11   9  -3    8.20    7.00
  11   9  -3   17.80    5.70
 -11  -9   3   15.40    4.90
  10   9  -3   18.80    5.20
  10   9  -3   10.50    5.40
  10   9  -3   24.20    6.00
 -10  -9   3   23.30    5.20
   9   9  -3    1.30    5.00
   9   9  -3    5.70    4.30
   9   9  -3    1.70    3.70
  -9  -9   3    4.80    2.90
   8   9  -3    0.30    3.00
   8   9  -3    0.20    3.50
   8   9  -3    4.10    3.30
   8   9  -3    1.00    3.70
  -8  -9   3    3.60    3.10
  -8  -9   3    3.40    3.50
   7   9  -3    2.20    3.80
   7   9  -3    3.10    3.90
   7   9  -3    4.30    3.50
   7   9  -3   -2.40    3.30
  -7  -9   3   -1.00    1.80
  -7  -9   3   -0.20    3.40
  -7  -9   3    3.40    3.30
   6   9  -3   -5.10    3.20
   6   9  -3   -0.20    3.30
   6   9  -3    2.20    2.50
   6   9  -3    0.40    2.40
  -6  -9   3   -0.70    2.60
  -6  -9   3    2.70    3.10
  -6  -9   3   -0.80    2.60
   5   9  -3   -1.00    2.30
   5   9  -3   -1.30    2.60
   5   9  -3   -2.50    2.00
   5   9  -3    0.10    2.90
  -5  -9   3   -4.10    2.50
  -5  -9   3   -0.50    2.90
  -5  -9   3   -1.20    2.50
   4   9  -3    2.40    3.00
   4   9  -3   -4.00    2.90
   4   9  -3   -2.20    2.00
   4   9  -3    5.20    3.30
  -4  -9   3    1.70    2.60
  -4  -9   3   -0.30    3.10
  -4  -9   3    2.00    2.70
   3   9  -3   11.70    3.70
   3   9  -3    9.40    3.90
   3   9  -3   18.80    5.70
   3   9  -3   11.60    4.50
  -3  -9   3    9.20    3.20
  -3  -9   3   27.10    9.80
  -3  -9   3    9.70    3.00
   2   9  -3    5.20    3.60
   2   9  -3   10.30    4.70
   2   9  -3    5.30    3.10
   2   9  -3    3.20    3.40
  -2  -9   3    5.20    3.50
  -2  -9   3    8.00    6.70
  -2  -9   3    4.20    3.60
   1   9  -3   14.60    4.80
   1   9  -3   12.00    3.90
   1   9  -3    9.30    4.10
   1   9  -3   13.90    4.80
  -1  -9   3   13.00    3.80
  -1  -9   3   -2.30    7.90
  -1  -9   3   10.30    4.00
   0   9  -3   -1.00    2.70
   0   9  -3    3.50    3.00
   0   9  -3   -3.40    3.40
   0  -9   3    0.10   10.90
   0  -9   3   -0.50    2.30
   0  -9   3    3.70    3.80
  -2   9  -3   16.10    6.50
  -2   9  -3   16.90    5.90
  -2   9  -3    7.30    4.70
   2  -9   3    8.50    3.80
   2  -9   3   13.10    5.40
  -3   9  -3   -0.90    5.20
  -3   9  -3    6.30    5.40
  -3   9  -3    1.10    3.90
   3  -9   3    2.00    4.50
   3  -9   3   -2.20    3.00
  12   8  -3    3.00    5.40
  12   8  -3    2.00    3.50
  12   8  -3   -0.40    7.40
 -12  -8   3   -0.80    4.20
  11   8  -3   -0.80    3.90
  11   8  -3    3.70    3.80
  11   8  -3   -1.80    3.70
 -11  -8   3    3.20    3.80
  10   8  -3    0.70    4.50
  10   8  -3   10.40    4.20
  10   8  -3   13.60    4.80
 -10  -8   3    5.70    3.80
   9   8  -3    5.80    4.00
   9   8  -3   -3.20    2.60
   9   8  -3   -0.30    2.40
  -9  -8   3   -4.70    2.80
   8   8  -3    7.60    3.50
   8   8  -3   14.60    5.00
   8   8  -3    4.10    3.50
   8   8  -3   13.50    4.50
  -8  -8   3    2.40    2.20
  -8  -8   3    7.40    3.00
   7   8  -3    1.40    3.70
   7   8  -3   -1.10    2.30
   7   8  -3    2.70    3.40
   7   8  -3    0.90    2.90
  -7  -8   3    4.10    2.80
  -7  -8   3    0.70    2.40
  -7  -8   3    5.20    3.30
   6   8  -3    5.20    3.90
   6   8  -3    6.70    3.70
   6   8  -3    2.60    3.00
   6   8  -3    2.70    3.40
  -6  -8   3    6.80    3.20
  -6  -8   3    2.50    2.30
  -6  -8   3    4.60    2.70
   5   8  -3    2.70    3.50
   5   8  -3    1.90    3.30
   5   8  -3   10.80    3.70
   5   8  -3   10.70    3.80
  -5  -8   3   14.10    3.80
  -5  -8   3   12.00    2.90
  -5  -8   3    5.90    2.60
   4   8  -3    4.90    2.80
   4   8  -3    5.00    2.80
   4   8  -3    0.40    2.00
   4   8  -3    3.80    2.90
  -4  -8   3    1.00    2.00
  -4  -8   3    2.30    2.00
  -4  -8   3    5.80    3.00
   3   8  -3   48.20    7.40
   3   8  -3   50.29    6.80
   3   8  -3   59.09    6.10
   3   8  -3   57.69    6.20
  -3  -8   3   60.59   11.50
  -3  -8   3   64.09    5.10
  -3  -8   3   56.69    5.70
   2   8  -3   42.10    6.20
   2   8  -3   41.00    6.50
   2   8  -3   28.70    5.30
   2   8  -3   28.50    5.20
  -2  -8   3   32.90   10.30
  -2  -8   3   37.70    4.70
  -2  -8   3   38.70    5.20
   1   8  -3   77.29    7.90
   1   8  -3   61.59    7.40
   1   8  -3   72.09    7.30
   1   8  -3   62.59    7.70
  -1  -8   3   70.39    6.60
  -1  -8   3   89.79   14.20
  -1  -8   3   64.69    6.30
   0   8  -3   66.19    6.90
   0   8  -3   62.69    6.70
   0   8  -3   53.69    7.10
   0   8  -3   58.09    8.00
   0  -8   3   54.69    5.70
   0  -8   3   53.09    6.30
   0  -8   3   61.69   14.00
  -1   8  -3   13.50    4.50
  -1   8  -3    4.20    3.50
  -1   8  -3   22.50    5.60
   1  -8   3   12.80    4.40
   1  -8   3   18.40    4.10
   1  -8   3   -7.00   11.60
  -3   8  -3    4.60    4.70
  -3   8  -3    8.60    4.90
  -3   8  -3    1.70    3.10
   3  -8   3    4.90    3.10
   3  -8   3    3.40    4.40
  -4   8  -3    4.90    5.00
  -4   8  -3    6.50    5.40
  -4   8  -3    3.20    5.40
   4  -8   3    6.80    4.90
   4  -8   3    9.50    5.30
  12   7  -3    4.80    5.80
  12   7  -3   -9.30    6.30
  12   7  -3    3.70    3.50
 -12  -7   3    4.70    4.70
  11   7  -3   -2.00    3.80
  11   7  -3    8.10    4.90
  11   7  -3    6.20    4.20
 -11  -7   3    3.00    2.90
  10   7  -3    0.40    3.80
  10   7  -3    1.70    3.70
  10   7  -3   -1.10    3.90
 -10  -7   3   -3.00    2.70
   9   7  -3   16.70    4.20
   9   7  -3   19.60    5.30
   9   7  -3   10.20    3.90
   9   7  -3   15.30    6.40
   9   7  -3   16.20    4.20
  -9  -7   3   15.90    4.20
   8   7  -3   40.00    8.00
   8   7  -3   57.99    5.90
   8   7  -3   60.29    6.60
   8   7  -3   67.49    7.10
  -8  -7   3   60.19    5.20
  -8  -7   3   43.80    5.40
   7   7  -3   11.00    3.30
   7   7  -3    9.60    4.60
   7   7  -3   11.80    3.90
   7   7  -3   13.60    3.90
  -7  -7   3   10.40    2.90
  -7  -7   3   12.20    3.00
   6   7  -3   72.29    6.20
   6   7  -3   97.79    9.80
   6   7  -3  101.59    8.50
   6   7  -3   80.39    7.00
  -6  -7   3   90.59    5.90
  -6  -7   3   93.19    6.40
  -6  -7   3   81.69    6.30
   5   7  -3  293.17   12.60
   5   7  -3  284.57   14.20
   5   7  -3  286.97   16.30
   5   7  -3  296.37   12.20
  -5  -7   3  309.17   11.60
  -5  -7   3  278.37   12.10
  -5  -7   3  290.07   10.90
   4   7  -3    4.30    3.30
   4   7  -3    5.20    2.90
   4   7  -3    6.40    3.20
  -4  -7   3    0.20    2.50
  -4  -7   3    7.30    1.10
  -4  -7   3    1.90    2.80
  -4  -7   3    5.30    2.50
   3   7  -3    4.50    2.90
   3   7  -3    4.00    2.90
   3   7  -3    6.10    2.90
   3   7  -3    7.30    2.50
  -3  -7   3    6.90    1.60
  -3  -7   3    0.80    4.20
  -3  -7   3    7.10    2.60
  -3  -7   3    5.40    2.70
   2   7  -3    4.70    3.10
   2   7  -3    3.10    2.30
   2   7  -3    3.30    3.10
   2   7  -3    5.10    2.80
  -2  -7   3   -0.20    1.70
  -2  -7   3    0.30    2.20
  -2  -7   3   -1.20    5.10
   1   7  -3    2.00    2.10
   1   7  -3    2.10    2.40
   1   7  -3    3.80    3.40
   1   7  -3    2.50    2.30
  -1  -7   3   -1.90    2.30
  -1  -7   3    3.60    5.80
  -1  -7   3    2.60    2.20
  -1   7  -3    3.40    2.70
  -1   7  -3    8.50    3.20
  -1   7  -3    6.70    3.40
   1  -7   3    0.10    2.00
   1  -7   3    7.30    3.70
  -2   7  -3   14.30    4.60
  -2   7  -3   13.50    4.80
  -2   7  -3   13.90    4.10
   2  -7   3    5.20    7.90
   2  -7   3   10.70    3.50
   2  -7   3   10.40    3.30
  -3   7  -3    0.00    2.20
  -3   7  -3   -0.50    3.60
  -3   7  -3    0.30    3.30
   3  -7   3    1.10    3.60
   3  -7   3   -3.60    2.10
   3  -7   3   -5.00    7.50
  -4   7  -3    6.00    3.40
  -4   7  -3    0.70    3.50
  -4   7  -3    5.00    4.60
   4  -7   3    1.70    4.00
   4  -7   3    0.60    2.90
   4  -7   3   -2.60    4.80
  -5   7  -3    6.20    4.70
  -5   7  -3   -0.50    4.90
   5  -7   3    0.20    4.40
   5  -7   3   12.90    5.20
   5  -7   3   11.10    5.00
  -6   7  -3   -9.70    4.90
  12   6  -3    1.30    4.20
  12   6  -3   -3.20    4.50
  12   6  -3    8.00    5.20
 -12  -6   3    0.30    3.90
  11   6  -3    5.50    5.10
  11   6  -3    7.50    4.40
  11   6  -3    5.80    5.00
 -11  -6   3    3.50    3.50
  10   6  -3    2.90    4.10
  10   6  -3    1.40    2.50
  10   6  -3    1.00    4.60
 -10  -6   3   -3.00    2.50
 -10  -6   3   -0.70    2.80
   9   6  -3   -2.90    3.40
   9   6  -3    1.60    2.90
   9   6  -3    2.20    3.10
   9   6  -3   -5.70    3.30
  -9  -6   3   -0.60    2.10
  -9  -6   3   -0.50    2.10
  -9  -6   3   -3.50    2.40
   8   6  -3   18.00    5.70
   8   6  -3   19.30    3.80
   8   6  -3   22.70    4.10
   8   6  -3   18.90    3.80
  -8  -6   3   23.60    4.00
  -8  -6   3   22.90    3.60
  -8  -6   3   25.90    3.50
   7   6  -3   13.10    3.70
   7   6  -3   10.70    4.10
   7   6  -3    3.10    2.70
   7   6  -3   11.30    3.30
  -7  -6   3   10.30    2.10
  -7  -6   3   11.00    2.70
  -7  -6   3   12.60    3.30
   6   6  -3 1867.21   62.29
   6   6  -3 1847.72   54.29
   6   6  -3 1944.11   48.40
  -6  -6   3 1897.61   50.99
  -6  -6   3 1914.51   46.80
  -6  -6   3 1918.51   45.00
  -6  -6   3 1911.41   47.40
   5   6  -3   29.10    4.00
   5   6  -3   24.20    4.70
   5   6  -3   30.70    4.20
   5   6  -3   21.80    4.10
  -5  -6   3   30.60    3.90
  -5  -6   3   28.60    4.50
  -5  -6   3   27.30    3.50
   4   6  -3    4.80    1.90
   4   6  -3    6.20    2.80
   4   6  -3    6.00    3.10
   4   6  -3    4.30    2.10
  -4  -6   3    5.50    2.20
  -4  -6   3    5.80    2.40
  -4  -6   3    5.40    2.60
   3   6  -3   11.20    2.70
   3   6  -3   13.90    3.00
   3   6  -3   10.90    3.30
   3   6  -3   18.20    3.70
  -3  -6   3   16.40    1.80
  -3  -6   3   14.50    2.90
  -3  -6   3   14.40    2.40
   2   6  -3   19.40    3.30
   2   6  -3   14.60    3.60
   2   6  -3   13.30    3.00
   2   6  -3    9.60    2.90
  -2  -6   3   16.10    3.10
  -2  -6   3   16.80    2.90
  -2  -6   3   14.70    2.20
  -2  -6   3   17.10    4.70
   1   6  -3    1.20    2.50
   1   6  -3    0.50    1.50
   1   6  -3    0.40    1.60
   1   6  -3    0.10    2.20
  -1  -6   3   -3.60    3.10
  -1  -6   3    0.10    1.90
  -1  -6   3    0.90    1.60
   0   6  -3  161.58   10.70
   0   6  -3  169.78    8.80
   0   6  -3  173.78    9.50
   0   6  -3  165.58    9.10
   0  -6   3  174.68    8.20
   0  -6   3  163.68    8.20
   0  -6   3  226.68   17.30
  -1   6  -3  680.03   25.00
  -1   6  -3  670.63   24.20
  -1   6  -3  693.63   22.60
  -1   6  -3  668.33   21.70
   1  -6   3  564.74   35.20
   1  -6   3  680.13   20.70
   1  -6   3  679.83   21.00
  -2   6  -3   35.40    5.60
  -2   6  -3   42.90    5.70
  -2   6  -3   37.50    5.60
  -2   6  -3   40.70    5.70
   2  -6   3   41.50    5.50
   2  -6   3   45.90    5.70
  -3   6  -3  239.98   12.10
  -3   6  -3  238.78   13.50
  -3   6  -3  210.08   13.30
  -3   6  -3  228.58   12.80
   3  -6   3  238.88   11.70
   3  -6   3  230.78   11.20
   3  -6   3  228.58   14.70
   3  -6   3  216.78   18.40
  -4   6  -3   -1.40    2.40
  -4   6  -3    0.00    2.90
  -4   6  -3   -2.40    2.30
   4  -6   3    5.60    3.70
   4  -6   3    0.40    3.60
   4  -6   3   -3.60    2.10
  -5   6  -3   -0.40    3.20
  -5   6  -3   -1.70    3.70
  -5   6  -3   -3.70    3.70
   5  -6   3   -1.70    3.60
   5  -6   3    6.30    4.50
   5  -6   3   -4.70    3.30
  -6   6  -3   13.40    5.90
  -6   6  -3    6.70    5.10
   6  -6   3   13.90    5.60
   6  -6   3    8.00    5.30
   6  -6   3    2.20    4.30
  -7   6  -3   -6.40    3.60
  12   5  -3   -3.60    3.80
  12   5  -3   -7.00    5.20
  12   5  -3    0.40    6.20
 -12  -5   3   -4.10    3.70
 -12  -5   3    0.60    4.00
  11   5  -3   -2.10    5.20
  11   5  -3    0.40    5.00
  11   5  -3    1.00    3.50
 -11  -5   3   -1.70    3.00
 -11  -5   3   -0.20    3.40
  10   5  -3   -6.20    3.90
  10   5  -3    1.40    3.20
  10   5  -3    3.30    3.20
 -10  -5   3    2.20    3.30
 -10  -5   3   -3.00    2.60
   9   5  -3   13.20    5.50
   9   5  -3   13.90    5.20
   9   5  -3   12.60    3.60
   9   5  -3   13.90    3.80
  -9  -5   3   21.00    3.90
  -9  -5   3   11.50    3.10
  -9  -5   3   18.40    3.90
   8   5  -3   20.70    3.80
   8   5  -3   27.30    4.60
   8   5  -3   22.60    3.40
   8   5  -3   25.60    5.80
   8   5  -3   24.10    6.00
  -8  -5   3   32.10    4.40
  -8  -5   3   21.80    3.60
  -8  -5   3   25.40    3.60
   7   5  -3   80.19    5.70
   7   5  -3   82.29    6.10
   7   5  -3   77.59    8.30
   7   5  -3   71.79    6.00
  -7  -5   3   73.69    5.00
  -7  -5   3   79.19    4.90
  -7  -5   3   88.39    5.90
   6   5  -3   18.30    3.50
   6   5  -3   12.20    2.90
   6   5  -3   11.30    3.80
   6   5  -3   10.70    2.40
   6   5  -3   17.20    3.20
  -6  -5   3   12.50    2.30
  -6  -5   3   11.70    2.90
  -6  -5   3   13.90    2.90
  -6  -5   3   17.60    2.80
   5   5  -3   63.69    4.70
   5   5  -3   68.89    5.20
   5   5  -3   63.09    7.10
   5   5  -3   60.29    5.30
   5   5  -3   66.49    4.10
  -5  -5   3   66.19    4.90
  -5  -5   3   60.79    5.30
  -5  -5   3   64.79    3.50
  -5  -5   3   73.49    4.40
  -5  -5   3   64.39    4.50
   4   5  -3  186.98    9.60
   4   5  -3  188.08    7.20
   4   5  -3  192.28   11.30
   4   5  -3  184.48    7.90
   4   5  -3  179.48    8.30
  -4  -5   3  180.98    8.20
  -4  -5   3  185.78    6.10
  -4  -5   3  175.38    7.10
  -4  -5   3  191.48    7.60
  -4  -5   3  190.28    8.00
   3   5  -3    6.50    2.60
   3   5  -3    8.90    2.40
   3   5  -3    9.80    2.30
   3   5  -3    5.90    1.90
   3   5  -3    7.20    2.20
  -3  -5   3    8.30    2.30
  -3  -5   3    5.30    1.80
  -3  -5   3    9.80    1.20
  -3  -5   3    8.10    2.10
   2   5  -3   16.70    3.30
   2   5  -3   23.20    3.30
   2   5  -3   21.30    2.90
   2   5  -3   20.40    3.30
   2   5  -3   12.90    3.00
   2   5  -3   23.60    2.30
  -2  -5   3   21.30    3.00
  -2  -5   3   19.10    2.10
  -2  -5   3   23.50    3.30
  -2  -5   3   21.00    2.90
   1   5  -3    2.90    1.50
   1   5  -3   -1.40    1.80
   1   5  -3    2.40    1.50
   1   5  -3    0.40    1.40
  -1  -5   3   -0.10    2.60
  -1  -5   3    1.00    1.20
  -1  -5   3    2.20    1.20
  -1  -5   3    1.20    1.50
   0   5  -3   -1.40    1.20
   0   5  -3    3.20    2.00
   0   5  -3    1.10    1.90
   0   5  -3    1.50    1.90
   0  -5   3    0.00    1.40
   0  -5   3    2.30    1.90
   0  -5   3   -0.90    4.50
  -1   5  -3   36.80    4.30
  -1   5  -3   32.40    5.00
  -1   5  -3   29.30    4.10
  -1   5  -3   38.10    4.70
   1  -5   3   25.90    6.10
   1  -5   3   37.70    3.80
   1  -5   3   33.60    4.20
  -2   5  -3  942.91   31.10
  -2   5  -3  911.31   27.30
  -2   5  -3  927.71   31.40
  -2   5  -3  927.31   27.80
   2  -5   3  965.70   34.30
   2  -5   3  842.92   43.30
   2  -5   3  918.81   26.60
   2  -5   3  981.80   26.70
  -3   5  -3  214.78   11.30
  -3   5  -3  191.28   12.10
  -3   5  -3  197.58   11.30
  -3   5  -3  185.48   10.40
   3  -5   3  247.28   16.00
   3  -5   3  191.88    9.60
   3  -5   3  212.08   14.10
   3  -5   3  195.98    9.80
  -4   5  -3   13.80    4.00
  -4   5  -3   13.00    3.80
  -4   5  -3   11.60    3.80
  -4   5  -3   13.80    3.70
   4  -5   3   12.80    4.10
   4  -5   3    8.10    4.20
   4  -5   3   15.00    3.80
   4  -5   3   11.70    4.30
  -5   5  -3    1.80    3.90
  -5   5  -3    3.90    3.60
  -5   5  -3   -2.70    2.40
  -5   5  -3    0.60    2.60
   5  -5   3   -3.30    2.90
   5  -5   3    0.00    3.30
   5  -5   3   -3.80    4.40
  -6   5  -3    5.20    4.30
   6  -5   3   -2.10    3.60
   6  -5   3    3.30    4.00
   6  -5   3    3.60    4.40
  -7   5  -3   24.30    5.80
  -7   5  -3   25.60    6.40
   7  -5   3   31.80    6.70
   7  -5   3   12.30    6.30
   7  -5   3   19.80    6.00
  -8   5  -3    7.80    6.10
  12   4  -3   14.20    6.30
  12   4  -3    9.20    7.60
  12   4  -3   15.10    5.00
 -12  -4   3   18.50    6.00
 -12  -4   3   17.70    5.60
  11   4  -3    3.00    3.70
  11   4  -3    2.80    4.30
  11   4  -3    2.50    5.60
 -11  -4   3    5.20    3.60
  10   4  -3    8.90    3.30
  10   4  -3   12.40    6.10
  10   4  -3   12.80    4.70
 -10  -4   3    8.20    3.50
   9   4  -3   64.29    6.30
   9   4  -3   58.39    5.50
   9   4  -3   44.30    7.90
   9   4  -3   50.09    8.10
  -9  -4   3   43.00    4.70
  -9  -4   3   58.29    5.80
  -9  -4   3   53.79    5.50
   8   4  -3   15.00    3.60
   8   4  -3   12.80    3.20
   8   4  -3    2.10    3.00
   8   4  -3   10.50    3.90
  -8  -4   3    6.40    2.90
  -8  -4   3    9.90    3.10
  -8  -4   3   10.10    2.70
   7   4  -3    4.80    3.60
   7   4  -3    7.70    1.40
   7   4  -3    3.70    2.20
   7   4  -3    2.10    2.70
   7   4  -3    3.80    2.60
   7   4  -3    3.90    1.80
  -7  -4   3    5.20    2.20
  -7  -4   3    3.00    2.20
  -7  -4   3    5.30    2.00
  -7  -4   3    5.40    1.40
  -7  -4   3    5.30    2.50
   6   4  -3   46.00    4.00
   6   4  -3   43.60    4.40
   6   4  -3   45.70    3.60
   6   4  -3   44.80    4.00
   6   4  -3   48.50    6.00
   6   4  -3   42.80    2.30
  -6  -4   3   47.10    3.70
  -6  -4   3   47.30    4.00
  -6  -4   3   49.20    4.20
  -6  -4   3   43.10    3.40
  -6  -4   3   42.60    3.50
   5   4  -3  161.08    7.00
   5   4  -3  162.08    6.50
   5   4  -3  162.38   10.70
   5   4  -3  154.28    7.30
   5   4  -3  169.48    8.00
  -5  -4   3  172.18    7.70
  -5  -4   3  166.28    7.30
  -5  -4   3  159.78    6.70
  -5  -4   3  148.99    7.60
  -5  -4   3  166.58    6.30
  -5  -4   3  166.48    6.50
   4   4  -3  181.18    8.60
   4   4  -3  185.28   10.60
   4   4  -3  181.38    7.30
   4   4  -3  180.78    7.60
   4   4  -3  190.68    6.80
  -4  -4   3  188.08    7.00
  -4  -4   3  189.78    6.50
  -4  -4   3  191.88    6.70
  -4  -4   3  176.88    7.90
  -4  -4   3  187.48    7.50
   3   4  -3   59.49    5.80
   3   4  -3   64.49    4.20
   3   4  -3   60.09    2.40
   3   4  -3   62.39    3.50
   3   4  -3   55.89    4.50
  -3  -4   3   58.59    4.50
  -3  -4   3   60.99    3.20
  -3  -4   3   58.99    3.70
  -3  -4   3   60.09    3.50
  -3  -4   3   64.49    4.00
   2   4  -3   58.89    3.90
   2   4  -3   58.79    3.20
   2   4  -3   62.29    8.90
   2   4  -3   59.69    5.10
   2   4  -3   55.29    5.10
   2   4  -3   58.19    4.20
   2   4  -3   60.29    3.40
  -2  -4   3   63.59    3.80
  -2  -4   3   57.09    3.50
  -2  -4   3   59.19    3.10
  -2  -4   3   50.99    3.70
   1   4  -3  555.04   16.90
   1   4  -3  638.54   28.80
   1   4  -3  582.24   16.10
   1   4  -3  561.74   19.70
   1   4  -3  556.34   16.60
   1   4  -3  573.64   18.00
  -1  -4   3  583.94   28.10
  -1  -4   3  555.84   15.80
  -1  -4   3  565.24   16.00
  -1  -4   3  597.84   16.70
  -1  -4   3  590.94   17.90
  -1  -4   3  570.84   16.80
   0   4  -3  180.88    7.80
   0   4  -3  190.28    8.50
   0   4  -3  196.68    7.50
   0   4  -3  175.38    7.80
   0   4  -3  191.58    9.60
   0   4  -3  201.08   12.00
   0  -4   3  191.58   12.50
   0  -4   3  187.68    7.80
   0  -4   3  166.38    7.10
   0  -4   3  194.38    7.40
   0  -4   3  185.28    8.40
   0  -4   3  178.78    7.10
  -1   4  -3   -0.80    1.10
  -1   4  -3    0.20    1.80
  -1   4  -3    0.40    1.60
  -1   4  -3    0.10    1.40
  -1   4  -3    1.10    2.00
   1  -4   3    3.00    1.60
   1  -4   3    1.60    1.30
   1  -4   3   -3.10    3.00
   1  -4   3   -1.10    1.20
  -2   4  -3    7.50    2.40
  -2   4  -3    9.70    2.50
  -2   4  -3   10.90    2.90
  -2   4  -3   10.40    2.90
  -2   4  -3    9.10    2.50
   2  -4   3    7.40    3.30
   2  -4   3   12.70    3.00
   2  -4   3   11.00    2.10
   2  -4   3    8.40    3.10
   2  -4   3    9.40    2.30
  -3   4  -3   14.40    3.50
  -3   4  -3    5.30    2.20
  -3   4  -3    3.90    2.40
  -3   4  -3    6.30    2.60
   3  -4   3    4.90    3.00
   3  -4   3    7.40    3.30
   3  -4   3    6.90    3.10
   3  -4   3    8.60    3.30
  -4   4  -3   66.39    6.70
  -4   4  -3   43.20    5.50
  -4   4  -3   52.49    6.10
  -4   4  -3   50.79    6.10
   4  -4   3   45.30    7.10
   4  -4   3   45.80    5.70
   4  -4   3   43.80    7.40
   4  -4   3   56.29    5.80
  -5   4  -3   10.40    3.50
  -5   4  -3    4.60    2.90
  -5   4  -3    6.30    3.60
  -5   4  -3    8.10    3.70
   5  -4   3    9.10    5.60
   5  -4   3    6.70    3.00
   5  -4   3    3.80    3.10
   5  -4   3    9.80    3.90
  -6   4  -3    1.30    3.00
  -6   4  -3    1.80    3.70
  -6   4  -3   -0.40    2.10
  -6   4  -3   -3.00    2.90
   6  -4   3   -0.30    2.40
   6  -4   3   -5.10    2.70
   6  -4   3   -3.40    3.20
  -7   4  -3   22.40    5.60
  -7   4  -3   13.90    4.80
  -7   4  -3    6.90    5.00
   7  -4   3   26.70    5.90
   7  -4   3   20.10    5.30
   7  -4   3   10.40    5.50
  -8   4  -3    0.20    3.50
  -8   4  -3   -0.70    4.70
   8  -4   3   -4.40    4.60
   8  -4   3   -2.70    2.90
   8  -4   3   -1.30    4.50
  12   3  -3   -2.50    6.90
  12   3  -3   -9.70    4.70
 -12  -3   3   -8.10    3.50
  11   3  -3   26.70    7.00
  11   3  -3   16.10    4.70
  11   3  -3   18.30    6.70
 -11  -3   3   19.80    4.60
  10   3  -3    3.50    3.20
  10   3  -3    4.10    4.00
  10   3  -3    1.00    3.60
 -10  -3   3   -2.10    2.70
   9   3  -3    4.70    3.20
   9   3  -3    4.40    3.70
   9   3  -3   -2.80    3.40
   9   3  -3    0.20    2.40
  -9  -3   3    1.60    2.60
   8   3  -3   -1.50    3.20
   8   3  -3   -0.60    2.20
   8   3  -3   -1.20    1.70
   8   3  -3   -0.80    3.40
  -8  -3   3    0.30    2.20
  -8  -3   3    0.10    1.80
   7   3  -3   -0.60    1.60
   7   3  -3    3.30    1.90
   7   3  -3    1.30    2.20
   7   3  -3   -0.40    1.70
   7   3  -3    4.70    3.30
   7   3  -3    1.20    2.60
  -7  -3   3   -0.60    1.80
  -7  -3   3    2.20    1.80
  -7  -3   3    4.80    2.30
   6   3  -3    7.10    1.60
   6   3  -3    5.50    2.00
   6   3  -3    7.20    3.40
   6   3  -3    1.30    2.50
   6   3  -3    6.80    2.00
   6   3  -3    7.40    1.80
   6   3  -3    7.40    1.60
  -6  -3   3    9.70    2.20
  -6  -3   3    5.60    2.10
  -6  -3   3    6.30    1.70
  -6  -3   3    5.10    2.20
   5   3  -3  204.98    8.20
   5   3  -3  208.58    8.40
   5   3  -3  191.68    7.60
   5   3  -3  224.18    7.50
   5   3  -3  209.88   11.70
   5   3  -3  215.78    7.40
  -5  -3   3  224.08    7.80
  -5  -3   3  215.28    7.90
  -5  -3   3  214.98    8.00
  -5  -3   3  222.08    8.10
  -5  -3   3  212.88    7.30
   4   3  -3  142.39    5.80
   4   3  -3  150.98    5.00
   4   3  -3  135.09    8.60
   4   3  -3  148.49    5.40
   4   3  -3  148.79    6.80
  -4  -3   3  142.39    6.00
  -4  -3   3  148.39    5.60
  -4  -3   3  140.39    5.20
  -4  -3   3  149.88    5.80
  -4  -3   3  152.08    6.50
  -4  -3   3  136.29    6.60
   3   3  -3   94.09    5.30
   3   3  -3   81.69    3.60
   3   3  -3   81.29    3.00
   3   3  -3   82.69    6.10
   3   3  -3   83.59    3.60
   3   3  -3   90.49    4.30
   3   3  -3   82.89    4.00
  -3  -3   3   80.59    3.80
  -3  -3   3   76.89    3.90
  -3  -3   3   84.29    4.70
  -3  -3   3   89.39    4.10
  -3  -3   3   85.99    4.90
  -3  -3   3   79.99    3.50
  -3  -3   3   84.29    4.10
   2   3  -3  407.06   12.00
   2   3  -3  406.26   11.10
   2   3  -3  383.46   11.70
   2   3  -3  415.26   20.50
   2   3  -3  397.56   11.60
   2   3  -3  400.36   11.00
   2   3  -3  396.66   14.00
  -2  -3   3  401.86   11.50
  -2  -3   3  414.76   11.30
  -2  -3   3  396.06   11.10
  -2  -3   3  412.16   12.50
  -2  -3   3  401.86   10.90
  -2  -3   3  396.76   11.30
  -2  -3   3  414.26   13.90
   1   3  -3  251.27    7.90
   1   3  -3  220.18   14.00
   1   3  -3  247.18   10.20
   1   3  -3  257.87    8.40
   1   3  -3  254.47    7.90
   1   3  -3  252.37    8.80
   1   3  -3  255.47    8.60
  -1  -3   3  267.27    8.10
  -1  -3   3  263.77    8.80
  -1  -3   3  266.57    8.30
  -1  -3   3  259.57   10.10
  -1  -3   3  256.57    7.80
  -1  -3   3  261.27    8.80
  -1  -3   3  255.27    8.30
   0   3  -3    0.50    1.00
   0   3  -3    0.70    1.40
   0   3  -3    0.30    0.90
   0   3  -3    2.30    1.00
   0   3  -3    1.50    1.60
   0  -3   3    0.50    1.40
   0  -3   3    1.30    1.00
   0  -3   3    1.00    1.30
   0  -3   3    1.20    1.90
   0  -3   3    0.60    0.70
  -1   3  -3    7.70    1.90
  -1   3  -3    8.70    2.20
  -1   3  -3    8.10    2.10
  -1   3  -3    7.30    2.20
  -1   3  -3    6.70    1.80
  -1   3  -3    5.80    1.90
   1  -3   3    8.00    2.00
   1  -3   3    6.60    1.70
   1  -3   3    4.30    1.80
  -2   3  -3   20.10    3.40
  -2   3  -3   21.80    3.20
  -2   3  -3   20.90    3.40
  -2   3  -3   16.00    3.10
   2  -3   3   16.50    3.40
   2  -3   3   19.10    3.00
   2  -3   3   15.50    3.10
   2  -3   3   21.80    3.20
  -3   3  -3   14.00    3.40
  -3   3  -3   19.90    3.40
  -3   3  -3   15.70    3.20
  -3   3  -3   15.80    3.00
   3  -3   3   18.80    3.40
   3  -3   3   21.00    4.00
   3  -3   3   14.00    4.00
   3  -3   3   21.30    3.10
  -4   3  -3   -0.80    1.70
  -4   3  -3   -2.80    1.40
  -4   3  -3    2.10    2.70
  -4   3  -3   -0.50    2.70
   4  -3   3   -0.60    1.80
   4  -3   3    0.30    2.40
   4  -3   3    1.10    3.70
   4  -3   3   -0.70    1.90
  -5   3  -3    4.80    1.20
  -5   3  -3    4.00    2.50
  -5   3  -3    8.70    3.80
  -5   3  -3    1.70    3.70
  -5   3  -3    6.20    2.80
   5  -3   3    5.90    4.80
   5  -3   3    5.10    2.80
   5  -3   3   11.50    3.20
   5  -3   3    7.40    3.50
  -6   3  -3   36.40    5.00
  -6   3  -3   36.00    6.30
  -6   3  -3   38.80    5.90
  -6   3  -3   29.40    5.00
   6  -3   3   37.90    5.40
   6  -3   3   26.10    6.00
   6  -3   3   32.30    6.30
   6  -3   3   33.60    5.40
  -7   3  -3    2.30    2.80
  -7   3  -3   -0.80    2.60
  -7   3  -3   -5.10    3.10
   7  -3   3   -2.70    2.20
   7  -3   3    0.90    2.70
   7  -3   3   -1.30    3.90
  -8   3  -3   15.80    5.30
  -8   3  -3    0.70    3.80
  -8   3  -3   13.70    5.30
   8  -3   3   13.10    4.30
   8  -3   3   15.80    5.00
   8  -3   3    5.70    5.30
  -9   3  -3    4.90    5.50
  -9   3  -3   12.20    5.70
   9  -3   3    6.80    5.10
   9  -3   3    7.50    4.90
   9  -3   3    3.10    8.20
  11   2  -3    5.70    5.80
  11   2  -3   21.30    7.90
  11   2  -3   15.90    4.60
 -11  -2   3   13.80    4.60
  10   2  -3   23.60    6.30
  10   2  -3   29.00    6.90
  10   2  -3   29.10    5.40
 -10  -2   3   37.60    5.60
   9   2  -3    1.50    2.80
   9   2  -3    0.70    4.20
   9   2  -3   -0.10    4.40
  -9  -2   3    6.50    3.00
   8   2  -3    3.60    2.70
   8   2  -3    4.00    4.20
   8   2  -3    4.40    2.30
   8   2  -3    2.90    3.50
  -8  -2   3    3.30    2.20
  -8  -2   3    3.40    2.60
   7   2  -3   63.79    5.20
   7   2  -3   64.29    4.60
   7   2  -3   63.99    7.40
   7   2  -3   60.39    4.90
   7   2  -3   60.19    4.60
   7   2  -3   62.29    7.20
  -7  -2   3   74.29    5.30
  -7  -2   3   61.79    4.40
  -7  -2   3   61.29    4.90
   6   2  -3   29.50    3.70
   6   2  -3   25.70    2.70
   6   2  -3   27.50    2.90
   6   2  -3   27.00    4.60
   6   2  -3   28.00    3.40
   6   2  -3   29.40    3.00
   6   2  -3   28.50    5.30
   6   2  -3   25.00    1.80
  -6  -2   3   31.50    3.40
  -6  -2   3   25.60    3.10
  -6  -2   3   30.70    3.10
   5   2  -3  124.19    5.10
   5   2  -3  121.99    5.10
   5   2  -3  131.99    8.70
   5   2  -3  116.99    5.30
   5   2  -3  127.09    5.80
   5   2  -3  113.99    5.60
   5   2  -3  121.99    8.40
  -5  -2   3  120.49    5.40
  -5  -2   3  121.59    5.70
  -5  -2   3  123.49    5.10
  -5  -2   3  123.59    6.10
   4   2  -3  228.28    7.50
   4   2  -3  227.68    7.20
   4   2  -3  228.98    7.20
   4   2  -3  234.28    8.30
   4   2  -3  233.98    8.20
   4   2  -3  239.38   11.40
   4   2  -3  234.18    7.90
  -4  -2   3  230.18    8.10
  -4  -2   3  234.98    9.00
  -4  -2   3  238.78    7.50
  -4  -2   3  229.98    7.10
  -4  -2   3  238.38    7.80
  -4  -2   3  231.98    7.50
   3   2  -3   93.09    3.80
   3   2  -3   92.09    4.00
   3   2  -3   81.29    5.90
   3   2  -3   96.19    3.50
   3   2  -3   97.69    4.80
   3   2  -3   96.39    3.50
  -3  -2   3   89.29    3.70
  -3  -2   3   97.99    4.40
  -3  -2   3   86.19    3.30
  -3  -2   3   92.19    3.70
  -3  -2   3   91.39    4.70
   2   2  -3    0.30    0.70
   2   2  -3    0.30    0.60
   2   2  -3   -0.20    0.60
   2   2  -3   -0.40    0.80
   2   2  -3    0.50    0.50
   2   2  -3    0.10    0.80
  -2  -2   3    0.40    0.90
  -2  -2   3   -0.20    0.60
  -2  -2   3   -0.90    1.10
  -2  -2   3   -1.00    0.50
  -2  -2   3    0.20    0.70
  -2  -2   3   -1.00    0.80
   1   2  -3  280.47    8.20
   1   2  -3  286.77    9.20
   1   2  -3  289.67    7.90
   1   2  -3  283.07   10.30
   1   2  -3  286.17    7.80
   1   2  -3  279.37    8.10
  -1  -2   3  275.57    7.60
  -1  -2   3  272.47    7.80
  -1  -2   3  276.27    8.10
  -1  -2   3  289.07    9.10
  -1  -2   3  278.27    8.50
  -1  -2   3  273.07    7.90
  -1  -2   3  287.17   10.10
   0   2  -3  562.64   15.00
   0   2  -3  598.94   14.90
   0   2  -3  571.44   19.20
   0   2  -3  571.24   14.70
   0   2  -3  561.74   15.10
   0   2  -3  567.74   17.30
   0   2  -3  535.55   17.60
   0  -2   3  571.24   14.80
   0  -2   3  562.64   17.10
   0  -2   3  576.04   15.00
   0  -2   3  566.24   14.70
   0  -2   3  556.84   17.50
   0  -2   3  564.84   14.60
  -1   2  -3  128.59    7.00
  -1   2  -3  122.29    5.40
  -1   2  -3  138.99    7.10
  -1   2  -3  132.69    5.40
  -1   2  -3  120.29    5.10
  -1   2  -3  131.49    5.70
  -1   2  -3  128.29    6.60
  -1   2  -3  123.69    6.30
   1  -2   3  118.09    5.20
   1  -2   3  130.49    5.30
   1  -2   3  131.89    7.20
   1  -2   3  129.29    5.30
   1  -2   3  135.59    6.20
   1  -2   3  125.19    5.30
  -2   2  -3  248.68    8.80
  -2   2  -3  242.48   10.40
  -2   2  -3  244.78    9.00
  -2   2  -3  240.78    9.00
  -2   2  -3  249.38   10.20
   2  -2   3  264.17    9.00
   2  -2   3  238.78    8.60
   2  -2   3  240.28   11.30
   2  -2   3  259.17   12.20
   2  -2   3  247.28    8.90
  -3   2  -3    1.10    1.40
  -3   2  -3    1.50    1.40
  -3   2  -3    0.10    1.50
  -3   2  -3    2.40    1.80
   3  -2   3    2.90    2.20
   3  -2   3    2.60    2.10
   3  -2   3    0.30    1.30
   3  -2   3    1.10    1.40
  -4   2  -3    0.50    1.70
  -4   2  -3    1.00    1.60
  -4   2  -3    1.50    1.60
  -4   2  -3    1.40    1.60
   4  -2   3    4.20    3.40
   4  -2   3    2.10    1.70
   4  -2   3    2.00    2.20
   4  -2   3    1.50    2.20
  -5   2  -3   17.20    3.10
  -5   2  -3   16.70    3.90
  -5   2  -3   14.70    1.10
  -5   2  -3   10.40    3.50
  -5   2  -3   23.10    4.20
   5  -2   3   11.40    3.10
   5  -2   3   15.60    3.40
   5  -2   3   15.20    3.60
   5  -2   3   17.40    5.00
  -6   2  -3   10.00    4.20
  -6   2  -3    6.00    2.50
  -6   2  -3    8.90    3.10
  -6   2  -3    3.00    2.40
   6  -2   3    7.90    2.90
   6  -2   3    6.30    3.00
   6  -2   3    9.40    3.00
   6  -2   3    4.10    4.60
  -7   2  -3    0.70    2.40
  -7   2  -3    4.70    3.70
  -7   2  -3   -3.30    3.40
  -7   2  -3    6.20    2.50
   7  -2   3    1.70    5.00
   7  -2   3    4.80    3.50
   7  -2   3    4.80    3.70
  -8   2  -3   -0.20    4.20
  -8   2  -3    7.70    3.60
  -8   2  -3    4.80    4.00
   8  -2   3    2.00    4.00
   8  -2   3    0.90    2.70
   8  -2   3   -0.80    4.20
  -9   2  -3    9.50    4.10
  -9   2  -3   11.50    5.20
  -9   2  -3    8.60    5.80
   9  -2   3    9.70    4.20
   9  -2   3    0.00    3.90
   9  -2   3   -5.60    6.30
 -10   2  -3   -0.30    5.50
  10  -2   3    1.80    4.80
  11   1  -3   -0.50    7.00
  11   1  -3   -3.40    2.50
 -11  -1   3   -3.60    3.30
  10   1  -3    2.30    2.70
  10   1  -3    3.90    4.60
  10   1  -3   -4.90    4.20
 -10  -1   3    6.70    3.60
   9   1  -3   31.50    6.50
   9   1  -3   28.60    7.50
   9   1  -3   27.90    4.80
  -9  -1   3   27.60    4.80
   8   1  -3   19.40    3.90
   8   1  -3   20.00    3.50
   8   1  -3   22.10    5.50
   8   1  -3   11.20    4.40
  -8  -1   3   17.70    3.50
  -8  -1   3   12.10    3.30
   7   1  -3   28.10    6.20
   7   1  -3   29.00    4.80
   7   1  -3   31.30    4.10
   7   1  -3   36.20    3.80
   7   1  -3   30.60    3.90
  -7  -1   3   33.00    3.90
  -7  -1   3   38.80    4.20
  -7  -1   3   38.20    4.70
   6   1  -3    2.60    2.40
   6   1  -3    2.70    1.60
   6   1  -3    0.90    1.40
   6   1  -3    1.30    1.60
   6   1  -3    1.80    2.30
   6   1  -3    4.00    2.10
  -6  -1   3    3.20    2.00
  -6  -1   3    3.40    1.70
  -6  -1   3    2.80    1.90
   5   1  -3   16.50    3.40
   5   1  -3   23.60    2.40
   5   1  -3   19.50    4.20
   5   1  -3   20.80    2.90
   5   1  -3   23.20    2.90
   5   1  -3   22.10    1.40
   5   1  -3   20.10    2.70
   5   1  -3   24.80    2.50
  -5  -1   3   23.30    2.70
  -5  -1   3   23.20    3.00
  -5  -1   3   29.20    2.60
   4   1  -3  401.96   11.20
   4   1  -3  413.66   12.50
   4   1  -3  403.16   13.40
   4   1  -3  397.46   11.60
   4   1  -3  384.06   16.30
   4   1  -3  403.76   11.00
   4   1  -3  404.36   11.70
   4   1  -3  408.66   11.10
   4   1  -3  406.66   16.00
  -4  -1   3  390.76   15.40
  -4  -1   3  404.06   11.20
  -4  -1   3  394.46   12.40
  -4  -1   3  395.26   11.50
  -4  -1   3  382.16   10.80
   3   1  -3  174.98    5.30
   3   1  -3  179.78    5.40
   3   1  -3  178.28    5.50
   3   1  -3  181.68    5.80
   3   1  -3  189.48    6.60
   3   1  -3  181.78    8.80
  -3  -1   3  183.28    5.60
  -3  -1   3  185.58    5.80
  -3  -1   3  183.28    5.50
  -3  -1   3  177.28    6.60
   2   1  -3  434.56   10.60
   2   1  -3  439.86   15.70
   2   1  -3  436.16   13.20
   2   1  -3  436.66   10.50
   2   1  -3  435.16   10.40
   2   1  -3  432.96   10.80
  -2  -1   3  423.86   10.50
  -2  -1   3  427.06   10.10
  -2  -1   3  448.26   10.20
  -2  -1   3  435.56   12.20
   1   1  -3  176.88    4.60
   1   1  -3  168.28    4.70
   1   1  -3  177.08    6.80
   1   1  -3  161.08    6.00
   1   1  -3  174.38    4.50
   1   1  -3  140.19    4.60
  -1  -1   3  172.28    4.30
  -1  -1   3  169.88    4.60
  -1  -1   3  184.68    4.40
  -1  -1   3  178.78    6.00
   0   1  -3   -0.40    0.70
   0   1  -3   -1.20    0.90
   0   1  -3   -0.80    0.50
   0   1  -3    0.50    0.60
   0   1  -3    0.30    0.70
   0   1  -3   -0.70    0.60
   0  -1   3    1.10    0.60
   0  -1   3    1.20    1.00
   0  -1   3   -0.90    0.40
   0  -1   3   -0.50    0.50
   0  -1   3   -0.10    0.70
   0  -1   3   -0.20    0.80
  -1   1  -3  985.60   27.90
  -1   1  -3  972.00   24.30
  -1   1  -3 1010.00   24.30
  -1   1  -3  998.80   24.20
  -1   1  -3 1017.90   30.60
  -1   1  -3  974.10   24.20
  -1   1  -3  996.20   39.80
  -1   1  -3  995.50   28.60
   1  -1   3  976.10   28.40
   1  -1   3  976.00   24.00
   1  -1   3  975.30   24.10
   1  -1   3 1000.90   24.10
   1  -1   3  992.00   24.20
  -2   1  -3  423.96   12.40
  -2   1  -3  416.86   15.30
  -2   1  -3  435.66   12.60
  -2   1  -3  428.06   12.40
  -2   1  -3  403.66   14.40
  -2   1  -3  425.96   14.00
  -2   1  -3  423.36   12.30
   2  -1   3  422.86   15.30
   2  -1   3  410.16   12.20
   2  -1   3  412.46   12.10
   2  -1   3  419.76   12.20
   2  -1   3  421.86   12.10
   2  -1   3  423.66   14.40
  -3   1  -3  812.02   22.40
  -3   1  -3  859.21   22.60
  -3   1  -3  802.72   22.20
  -3   1  -3  802.82   26.10
  -3   1  -3  828.32   24.50
   3  -1   3  827.32   34.50
   3  -1   3  838.62   22.10
   3  -1   3  838.52   22.20
   3  -1   3  844.42   22.30
   3  -1   3  792.22   27.40
  -4   1  -3    1.10    1.50
  -4   1  -3    2.80    1.70
  -4   1  -3    0.60    1.30
  -4   1  -3    2.10    1.50
   4  -1   3    0.00    1.90
   4  -1   3    1.30    1.30
   4  -1   3    1.90    2.70
   4  -1   3    2.50    2.20
  -5   1  -3    1.70    1.80
  -5   1  -3    1.70    1.60
  -5   1  -3    0.30    2.10
  -5   1  -3    1.80    1.90
   5  -1   3   -0.80    1.50
   5  -1   3    1.20    2.30
   5  -1   3    0.10    1.60
   5  -1   3    0.70    2.30
  -6   1  -3    0.50    2.60
  -6   1  -3    1.00    2.10
  -6   1  -3   -2.10    1.50
  -6   1  -3   -1.00    3.10
   6  -1   3   -6.80    2.00
   6  -1   3    0.60    2.00
   6  -1   3    0.00    2.00
   6  -1   3   -5.40    3.40
  -7   1  -3    0.80    1.80
  -7   1  -3   -0.20    2.20
  -7   1  -3    1.10    2.90
  -7   1  -3   -1.80    1.90
   7  -1   3   -3.30    2.70
   7  -1   3   -0.10    4.60
   7  -1   3    1.30    2.20
   7  -1   3   -0.60    3.10
  -8   1  -3    6.30    3.80
  -8   1  -3    1.50    3.40
  -8   1  -3    3.80    2.90
   8  -1   3    5.60    3.10
   8  -1   3    3.60    5.30
   8  -1   3    4.90    3.90
  -9   1  -3    3.90    5.00
  -9   1  -3    1.80    3.00
  -9   1  -3    7.60    4.20
   9  -1   3   -3.70    5.60
   9  -1   3    8.10    3.80
   9  -1   3    1.80    3.90
 -10   1  -3   11.80    5.40
 -10   1  -3    1.50    5.80
 -10   1  -3    0.00    3.20
  10  -1   3    9.20    4.30
  10  -1   3   20.00    6.00
  10  -1   3    7.20    7.50
  10   0  -3    6.30    3.20
  10   0  -3   -2.90    4.30
 -10   0   3    4.90    3.60
   9   0  -3   12.20    5.10
   9   0  -3   14.80    4.20
   9   0  -3    8.70    4.90
  -9   0   3   20.20    4.30
   8   0  -3    3.80    3.90
   8   0  -3    0.30    4.40
   8   0  -3    6.40    2.60
   8   0  -3    4.90    2.90
  -8   0   3    1.80    2.40
  -8   0   3   -0.10    2.50
   7   0  -3   38.90    7.00
   7   0  -3   46.00    4.20
   7   0  -3   37.10    4.70
   7   0  -3   38.10    5.60
  -7   0   3   37.10    4.10
  -7   0   3   44.00    4.70
   6   0  -3   79.99    5.00
   6   0  -3   83.49    5.20
   6   0  -3   84.59    7.20
   6   0  -3   83.59    5.50
   6   0  -3   77.49    7.80
   6   0  -3   71.89    4.70
  -6   0   3   85.29    5.40
  -6   0   3   77.09    4.90
  -6   0   3   89.49    5.50
   5   0  -3  390.76   11.80
   5   0  -3  361.46   12.00
   5   0  -3  360.76   16.80
   5   0  -3  360.16   11.50
   5   0  -3  385.06   12.40
   5   0  -3  413.36   16.10
  -5   0   3  385.96   12.00
  -5   0   3  368.66   12.00
  -5   0   3  375.56   11.60
   4   0  -3   31.90    2.80
   4   0  -3   28.30    3.30
   4   0  -3   32.80    2.40
   4   0  -3   23.80    4.10
   4   0  -3   28.10    2.30
   4   0  -3   28.20    2.60
   4   0  -3   28.00    3.50
  -4   0   3   31.60    2.40
  -4   0   3   33.70    2.70
  -4   0   3   31.30    2.60
  -4   0   3   33.20    3.60
   3   0  -3   59.29    3.00
   3   0  -3   60.59    3.60
   3   0  -3   59.59    4.40
   3   0  -3   63.49    2.70
   3   0  -3   61.79    2.80
   3   0  -3   62.19    5.10
   3   0  -3   55.89    2.70
  -3   0   3   63.39    4.00
  -3   0   3   68.69    3.00
  -3   0   3   65.49    3.10
  -3   0   3   61.19    2.90
   2   0  -3  450.35   15.50
   2   0  -3  454.35   12.70
   2   0  -3  447.96   10.90
   2   0  -3  461.65   11.10
   2   0  -3  440.06   10.70
   2   0  -3  457.35   10.80
  -2   0   3  458.85   10.50
  -2   0   3  451.65   12.90
  -2   0   3  441.06   10.40
  -2   0   3  440.76   10.90
   1   0  -3  467.55   12.50
  -1   0   3  448.56   12.60
   0   0  -3 2649.63   60.79
   0   0  -3 2674.93   60.09
   0   0  -3 2717.23   60.09
   0   0  -3 2717.13   71.49
   0   0  -3 2743.03   60.09
   0   0  -3 2659.53   60.09
   0   0   3 2626.24   60.79
   0   0   3 2679.33   62.39
   0   0   3 2627.34   60.09
   0   0   3 2758.02   60.89
  -1   0  -3    2.10    0.90
  -1   0  -3    1.20    0.60
  -1   0  -3    1.00    0.70
  -1   0  -3    1.50    1.10
  -1   0  -3    0.60    0.90
  -1   0  -3    1.50    0.80
  -1   0  -3    0.80    0.80
  -1   0  -3    1.90    0.80
   1   0   3    0.20    0.80
   1   0   3    2.00    1.00
   1   0   3    1.50    1.00
   1   0   3    1.80    0.90
   1   0   3    1.40    0.70
  -2   0  -3  564.64   18.10
  -2   0  -3  582.64   15.40
  -2   0  -3  597.14   15.60
  -2   0  -3  575.24   15.30
  -2   0  -3  575.44   13.50
  -2   0  -3  573.94   15.20
  -2   0  -3  574.44   18.80
   2   0   3  579.34   15.20
   2   0   3  561.84   15.20
   2   0   3  571.94   18.70
   2   0   3  585.14   18.00
   2   0   3  563.74   15.30
   2   0   3  588.84   15.10
  -3   0  -3   31.20    3.10
  -3   0  -3   32.50    2.70
  -3   0  -3   28.30    2.70
  -3   0  -3   33.10    3.60
  -3   0  -3   30.20    3.60
   3   0   3   29.70    2.90
   3   0   3   32.50    2.90
   3   0   3   35.90    3.20
   3   0   3   35.10    4.00
   3   0   3   33.90    3.00
  -4   0  -3    3.60    1.40
  -4   0  -3    0.30    1.20
  -4   0  -3    3.50    1.80
   4   0   3    1.40    1.80
   4   0   3    3.60    2.50
   4   0   3    5.40    2.20
  -5   0  -3   79.29    5.10
  -5   0  -3   87.89    5.50
  -5   0  -3   78.89    6.00
  -5   0  -3   86.29    5.50
   5   0   3   79.29    5.70
   5   0   3   85.59    4.70
   5   0   3   79.69    5.60
   5   0   3   81.29    7.20
  -6   0  -3    0.40    1.80
  -6   0  -3    2.60    2.30
  -6   0  -3    5.00    1.70
  -6   0  -3    4.80    2.20
   6   0   3    4.50    2.30
   6   0   3    4.70    2.90
   6   0   3    0.10    2.60
   6   0   3    3.40    2.00
  -7   0  -3    1.10    2.80
  -7   0  -3   -1.70    1.30
  -7   0  -3   -2.90    2.80
  -7   0  -3   -5.00    1.90
   7   0   3   -1.40    2.70
   7   0   3    1.60    3.10
   7   0   3   -2.70    2.70
  -8   0  -3   -0.40    3.20
  -8   0  -3   -1.60    2.80
  -8   0  -3   -0.20    2.30
   8   0   3   -1.60    4.50
   8   0   3    5.20    2.80
   8   0   3   -4.10    2.90
  -9   0  -3    0.80    2.60
  -9   0  -3   -2.00    2.60
  -9   0  -3   -2.80    3.20
   9   0   3   -7.10    4.70
   9   0   3   -1.30    2.40
   9   0   3    1.20    3.70
 -10   0  -3   14.30    4.70
 -10   0  -3   17.00    5.60
 -10   0  -3    5.20    5.30
  10   0   3   19.00    5.70
  10   0   3   11.60    5.90
  10   0   3   18.90    4.70
 -11   0  -3   -0.30    4.20
 -11   0  -3    6.70    5.40
  11   0   3   -4.10    7.40
  11   0   3    0.00    4.70
  11  -1  -3    5.80    6.00
  10  -1  -3    2.90    5.70
  10  -1  -3   10.30    4.50
  10  -1  -3    9.00    5.70
 -10   1   3    2.30    3.90
   9  -1  -3   -3.30    4.20
   9  -1  -3    5.30    3.50
  -9   1   3    3.40    3.20
   8  -1  -3   41.70    6.50
   8  -1  -3   46.50    5.80
   8  -1  -3   38.60    7.50
  -8   1   3   45.90    5.70
   7  -1  -3   49.60    7.50
   7  -1  -3   59.29    5.10
   7  -1  -3   62.19    5.10
   7  -1  -3   54.09    6.60
  -7   1   3   55.59    5.30
  -7   1   3   63.09    5.60
   6  -1  -3   76.19    5.20
   6  -1  -3   71.49    4.90
   6  -1  -3   72.69    6.90
   6  -1  -3   88.89    8.60
  -6   1   3   81.49    5.60
  -6   1   3   74.39    5.40
  -6   1   3   73.19    5.20
   5  -1  -3   82.59    4.70
   5  -1  -3   90.19    6.50
   5  -1  -3   88.79    3.20
   5  -1  -3   89.79    4.90
   5  -1  -3   98.79    8.10
   5  -1  -3   97.29    5.50
  -5   1   3  105.39    6.90
  -5   1   3   98.79    5.40
  -5   1   3   96.29    5.30
  -5   1   3   95.89    5.40
   4  -1  -3  413.46   11.90
   4  -1  -3  415.16   15.20
   4  -1  -3  388.76   12.10
   4  -1  -3  395.46   17.30
   4  -1  -3  402.86   12.10
   4  -1  -3  393.86   11.90
  -4   1   3  400.96   12.20
  -4   1   3  388.56   12.00
  -4   1   3  429.86   13.20
  -4   1   3  421.96   15.00
  -4   1   3  399.46   12.20
   3  -1  -3  517.75   14.10
   3  -1  -3  518.95   13.80
   3  -1  -3  551.44   17.90
   3  -1  -3  521.35   14.00
   3  -1  -3  520.35   13.70
   3  -1  -3  523.85   19.60
  -3   1   3  514.75   14.10
  -3   1   3  516.05   14.00
  -3   1   3  533.65   13.90
  -3   1   3  548.25   15.30
  -3   1   3  499.25   13.80
   2  -1  -3   77.09    3.20
   2  -1  -3   81.39    3.00
   2  -1  -3   77.59    5.20
   2  -1  -3   79.89    3.20
   2  -1  -3   81.39    3.10
   2  -1  -3   83.99    4.40
  -2   1   3   80.19    4.10
  -2   1   3   78.09    4.10
  -2   1   3   76.69    3.20
  -2   1   3   76.29    3.10
  -2   1   3   75.89    3.00
   1  -1  -3  288.47    7.10
   1  -1  -3  286.97    7.40
   1  -1  -3  280.27    7.10
   1  -1  -3  293.47    7.20
   1  -1  -3  281.67   10.70
  -1   1   3  280.57    6.90
  -1   1   3  290.27    8.80
  -1   1   3  281.07    8.80
  -1   1   3  285.97    7.00
  -1   1   3  279.67    7.30
   0  -1  -3  151.48    8.90
   0  -1  -3  150.18    4.00
   0  -1  -3  150.28    4.00
   0  -1  -3  144.39    4.10
   0  -1  -3  148.19    4.30
   0   1   3  147.49    4.30
   0   1   3  146.19    5.30
   0   1   3  146.39    5.20
   0   1   3  147.39    3.80
   0   1   3  144.29    3.90
  -1  -1  -3 1837.72   73.79
  -1  -1  -3 1805.72   41.30
  -1  -1  -3 1806.32   41.60
  -1  -1  -3 1772.12   41.30
  -1  -1  -3 1763.62   41.60
  -1  -1  -3 1838.32   49.30
   1   1   3 1798.32   41.40
   1   1   3 1821.92   73.79
   1   1   3 1790.42   41.30
   1   1   3 1770.82   41.40
   1   1   3 1801.02   41.60
   1   1   3 1826.22   42.90
   1   1   3 1849.11   41.20
  -2  -1  -3 1860.71   44.00
  -2  -1  -3 1848.22   51.49
  -2  -1  -3 1877.11   53.59
  -2  -1  -3 1845.42   43.70
  -2  -1  -3 1944.61   55.09
  -2  -1  -3 1865.41   44.10
  -2  -1  -3 1886.81   43.70
   2   1   3 1912.11   53.59
   2   1   3 1867.51   43.90
   2   1   3 1845.72   44.00
   2   1   3 1871.11   42.40
   2   1   3 1859.51   43.70
   2   1   3 1887.51   43.50
   2   1   3 1912.11   51.39
   2   1   3 1880.31   76.09
  -3  -1  -3  483.75   17.70
  -3  -1  -3  488.15   16.00
  -3  -1  -3  469.85   13.50
  -3  -1  -3  498.45   14.00
  -3  -1  -3  492.05   13.90
  -3  -1  -3  479.65   13.50
  -3  -1  -3  476.95   15.90
   3   1   3  491.55   16.00
   3   1   3  483.15   13.40
   3   1   3  477.45   13.80
   3   1   3  427.16   21.00
   3   1   3  481.95   13.80
   3   1   3  480.95   13.30
   3   1   3  477.65   11.20
   3   1   3  472.05   15.70
  -4  -1  -3  134.29    6.30
  -4  -1  -3  122.89    6.70
  -4  -1  -3  132.59    6.10
  -4  -1  -3  123.59    6.70
  -4  -1  -3  122.49    5.70
   4   1   3  137.29    7.10
   4   1   3  130.19    6.10
   4   1   3  113.29    6.00
   4   1   3  126.49    5.70
  -5  -1  -3   96.09    6.50
  -5  -1  -3  101.69    5.70
  -5  -1  -3  100.69    5.70
   5   1   3  100.19    6.70
   5   1   3  108.69    7.60
   5   1   3  102.19    5.90
   5   1   3  104.19    6.30
  -6  -1  -3    2.90    2.50
  -6  -1  -3   -0.80    1.40
  -6  -1  -3    0.60    1.70
   6   1   3    0.00    2.20
   6   1   3   -0.20    2.70
   6   1   3    3.70    2.10
  -7  -1  -3   74.99    6.00
  -7  -1  -3   74.79    6.00
  -7  -1  -3   81.99    5.10
  -7  -1  -3   78.29    6.80
   7   1   3   78.59    6.20
   7   1   3   82.89    6.40
   7   1   3   78.59    8.40
  -8  -1  -3   24.60    4.40
  -8  -1  -3   23.40    4.90
  -8  -1  -3   14.70    2.50
  -8  -1  -3   22.30    4.30
   8   1   3   22.70    5.80
   8   1   3   26.10    4.50
   8   1   3   17.80    4.50
  -9  -1  -3    6.70    3.60
  -9  -1  -3   12.10    4.60
  -9  -1  -3   11.70    4.10
   9   1   3    9.90    4.80
   9   1   3    3.10    3.80
   9   1   3    9.80    3.50
 -10  -1  -3   41.00    6.70
 -10  -1  -3   34.50    7.50
 -10  -1  -3   23.70    5.90
  10   1   3   20.40    6.20
  10   1   3   17.80    4.70
  10   1   3   19.80    5.50
 -11  -1  -3   -4.30    2.90
 -11  -1  -3   -0.60    4.20
 -11  -1  -3   -3.20    4.40
  11   1   3    0.50    4.30
  11   1   3   -1.50    4.60
  11   1   3   -6.70    6.10
  10  -2  -3    2.90    5.30
   9  -2  -3   24.40    8.20
   9  -2  -3   28.30    5.50
   9  -2  -3   14.70    7.20
  -9   2   3   30.00    5.50
   8  -2  -3   32.50    8.40
   8  -2  -3   32.90    5.30
   8  -2  -3   31.30    8.50
  -8   2   3   31.70    5.20
   7  -2  -3   30.00    4.70
   7  -2  -3   21.00    5.80
   7  -2  -3   23.40    7.00
   7  -2  -3   19.00    4.20
   7  -2  -3   22.50    3.90
  -7   2   3   21.10    4.10
  -7   2   3   27.20    4.60
   6  -2  -3    1.90    3.30
   6  -2  -3   -0.70    1.40
   6  -2  -3    0.60    1.80
   6  -2  -3   -0.50    2.30
   6  -2  -3   -3.50    3.30
  -6   2   3    0.80    2.20
  -6   2   3   -3.10    1.50
   5  -2  -3    8.10    4.00
   5  -2  -3   16.40    3.00
   5  -2  -3   10.10    2.70
   5  -2  -3   11.50    1.50
   5  -2  -3   13.20    4.50
   5  -2  -3   14.20    2.70
   5  -2  -3   12.30    2.60
  -5   2   3   13.00    2.80
  -5   2   3   15.70    3.00
  -5   2   3   13.50    2.60
  -5   2   3   12.40    2.80
  -5   2   3   14.90    2.80
   4  -2  -3   28.10    3.20
   4  -2  -3   34.30    3.30
   4  -2  -3   25.90    2.50
   4  -2  -3   28.40    2.90
   4  -2  -3   24.60    4.30
   4  -2  -3   22.30    5.20
   4  -2  -3   26.50    2.80
  -4   2   3   27.40    3.00
  -4   2   3   32.40    3.30
  -4   2   3   28.60    3.00
  -4   2   3   31.10    3.10
  -4   2   3   30.40    3.20
   3  -2  -3   -0.20    2.10
   3  -2  -3   -1.00    1.10
   3  -2  -3   -0.20    1.00
   3  -2  -3    0.30    1.00
   3  -2  -3   -3.50    1.90
   3  -2  -3   -0.50    1.00
   3  -2  -3   -0.20    0.90
  -3   2   3    0.30    1.20
  -3   2   3   -1.00    1.20
  -3   2   3    0.50    1.30
  -3   2   3   -1.70    0.70
   2  -2  -3    9.80    1.60
   2  -2  -3   11.60    1.60
   2  -2  -3   11.80    2.00
   2  -2  -3    9.20    1.40
   2  -2  -3   14.70    1.80
   2  -2  -3   12.60    1.80
   2  -2  -3    6.20    2.30
   2  -2  -3    7.50    2.80
  -2   2   3   13.20    1.90
  -2   2   3   13.00    1.80
  -2   2   3   15.10    1.90
  -2   2   3   10.40    1.90
  -2   2   3   10.60    1.80
  -2   2   3   12.40    2.60
   1  -2  -3 1113.39   50.49
   1  -2  -3 1125.49   26.80
   1  -2  -3 1132.79   26.70
   1  -2  -3 1136.89   27.20
   1  -2  -3 1145.69   34.70
   1  -2  -3 1144.19   26.90
  -1   2   3 1132.59   27.10
  -1   2   3 1154.28   34.80
  -1   2   3 1138.19   26.70
  -1   2   3 1110.59   27.10
  -1   2   3 1129.99   28.00
  -1   2   3 1138.09   26.80
  -1   2   3 1118.39   28.50
   0  -2  -3 2750.22  112.89
   0  -2  -3 2740.13   62.09
   0  -2  -3 2757.32   62.39
   0  -2  -3 2790.62   61.89
   0  -2  -3 2703.33   61.89
   0  -2  -3 2779.22   77.59
   0   2   3 2720.53   63.89
   0   2   3 2771.02   61.69
   0   2   3 2715.83   62.29
   0   2   3 2678.93   61.79
   0   2   3 2713.83  112.69
   0   2   3 2697.33   62.19
  -1  -2  -3  473.65   12.40
  -1  -2  -3  470.25   12.00
  -1  -2  -3  474.75   12.50
  -1  -2  -3  462.55   13.90
  -1  -2  -3  458.35   12.00
  -1  -2  -3  465.05   22.30
  -1  -2  -3  497.25   15.50
   1   2   3  481.25   11.90
   1   2   3  466.85   12.80
   1   2   3  467.45   22.20
   1   2   3  465.35   12.00
   1   2   3  462.45   12.40
   1   2   3  465.15   12.30
  -2  -2  -3  488.95   13.00
  -2  -2  -3  499.55   16.90
  -2  -2  -3  476.65   12.90
  -2  -2  -3  477.25   15.50
  -2  -2  -3  487.55   14.10
  -2  -2  -3  502.25   13.40
  -2  -2  -3  485.55   13.40
  -2  -2  -3  506.95   22.90
   2   2   3  488.95   12.80
   2   2   3  484.55   13.30
   2   2   3  470.25   13.30
   2   2   3  499.65   22.70
   2   2   3  492.05   12.90
  -3  -2  -3   74.59    4.00
  -3  -2  -3   72.79    6.30
  -3  -2  -3   73.89    4.60
  -3  -2  -3   73.59    3.70
  -3  -2  -3   72.79    4.10
  -3  -2  -3   72.69    3.60
  -3  -2  -3   67.09    3.70
  -3  -2  -3   76.39    5.50
   3   2   3   80.09    6.20
   3   2   3   75.39    5.80
   3   2   3   68.79    4.00
   3   2   3   77.89    4.50
   3   2   3   70.69    3.50
   3   2   3   76.99    3.80
   3   2   3   80.89    4.30
   3   2   3   76.59    3.70
  -4  -2  -3   23.40    2.60
  -4  -2  -3   21.20    2.80
  -4  -2  -3   22.20    2.70
  -4  -2  -3   24.90    2.90
  -4  -2  -3   21.70    2.90
   4   2   3   22.50    2.40
   4   2   3   19.60    2.70
   4   2   3   26.40    3.30
   4   2   3   22.30    2.80
   4   2   3   39.50    5.20
   4   2   3   20.30    3.50
  -5  -2  -3  182.28    7.90
  -5  -2  -3  201.58    8.20
  -5  -2  -3  208.48    9.40
  -5  -2  -3  203.28    9.20
   5   2   3  201.38   12.70
   5   2   3  199.08    9.40
   5   2   3  197.38    8.70
   5   2   3  204.58   11.10
   5   2   3  199.48    8.60
  -6  -2  -3  138.19    7.00
  -6  -2  -3  129.29    6.90
  -6  -2  -3  124.69    7.70
   6   2   3  124.39    3.30
   6   2   3  133.99    9.50
   6   2   3  136.39    8.50
   6   2   3  139.89    7.70
   6   2   3  144.19   10.30
   6   2   3  135.09    7.40
  -7  -2  -3  254.47   10.90
  -7  -2  -3  252.67   12.20
  -7  -2  -3  245.48   11.00
   7   2   3  264.27   15.00
   7   2   3  239.88   12.90
   7   2   3  238.58   10.90
   7   2   3  248.78   11.50
  -8  -2  -3    6.00    3.30
  -8  -2  -3    9.00    2.10
  -8  -2  -3    9.00    3.00
  -8  -2  -3    6.20    3.70
   8   2   3    6.40    3.70
   8   2   3   15.40    4.80
   8   2   3   11.30    5.20
   8   2   3    9.80    3.90
  -9  -2  -3   30.60    5.50
  -9  -2  -3   37.40    5.90
  -9  -2  -3   29.40    5.80
   9   2   3   32.90    5.20
   9   2   3   36.80    7.00
   9   2   3   29.90    5.50
 -10  -2  -3    2.90    3.00
 -10  -2  -3    2.30    3.90
 -10  -2  -3    3.90    4.30
  10   2   3   -1.10    2.50
  10   2   3    1.30    3.80
  10   2   3   -5.50    4.30
 -11  -2  -3    3.50    3.60
 -11  -2  -3   -0.40    4.00
 -11  -2  -3   -1.60    2.70
  11   2   3    1.20    4.40
  11   2   3  -10.40    5.20
  11   2   3    2.60    4.20
 -12  -2  -3    2.70    4.90
 -12  -2  -3   -1.90    3.80
  12   2   3    2.30    5.10
   9  -3  -3   15.50    5.00
   9  -3  -3   -0.10    5.90
   9  -3  -3    3.50    5.50
  -9   3   3    9.60    4.70
   8  -3  -3   35.10    9.40
   8  -3  -3   27.30    8.30
   8  -3  -3   38.00    5.60
  -8   3   3   45.90    6.50
   7  -3  -3    2.60    6.00
   7  -3  -3    2.80    3.40
   7  -3  -3    9.00    5.50
  -7   3   3   14.30    4.00
   6  -3  -3   -1.20    2.40
   6  -3  -3   -0.90    3.40
   6  -3  -3    2.40    4.20
   6  -3  -3    3.50    2.40
  -6   3   3    3.20    2.90
  -6   3   3    8.10    2.90
  -6   3   3    0.90    1.80
   5  -3  -3   -2.00    2.50
   5  -3  -3   -0.40    1.90
   5  -3  -3   -1.30    1.50
   5  -3  -3   -3.50    3.20
  -5   3   3   -2.30    1.90
  -5   3   3   -0.30    1.50
  -5   3   3   -3.40    1.70
   4  -3  -3   -4.50    2.70
   4  -3  -3   -0.50    2.20
   4  -3  -3   -1.10    1.20
   4  -3  -3    0.70    1.20
   4  -3  -3   -0.20    1.60
   4  -3  -3   -0.30    1.10
   4  -3  -3    2.10    1.80
  -4   3   3   -1.50    0.80
  -4   3   3   -0.70    1.80
  -4   3   3   -1.30    0.90
  -4   3   3    0.70    1.50
   3  -3  -3    2.90    1.00
   3  -3  -3    3.80    2.20
   3  -3  -3    4.00    1.80
   3  -3  -3    3.00    3.20
   3  -3  -3    1.20    1.30
   3  -3  -3    3.30    1.60
   3  -3  -3    0.80    1.20
  -3   3   3   -0.30    1.60
  -3   3   3    4.00    1.70
  -3   3   3    2.70    1.80
  -3   3   3    1.50    1.60
   2  -3  -3  475.25   13.00
   2  -3  -3  426.56   13.30
   2  -3  -3  456.15   17.60
   2  -3  -3  456.85   13.00
   2  -3  -3  465.75   15.30
   2  -3  -3  439.86   13.10
   2  -3  -3  434.56   25.30
  -2   3   3  459.85   13.60
  -2   3   3  457.25   13.10
  -2   3   3  446.26   13.90
  -2   3   3  464.25   13.60
   1  -3  -3 2346.57   65.89
   1  -3  -3 2430.36   70.79
   1  -3  -3 2500.85   64.39
   1  -3  -3 2403.46   55.89
   1  -3  -3 2342.87   56.09
   1  -3  -3 2334.57  102.59
   1  -3  -3 2470.55   56.69
   1  -3  -3 2461.45   66.19
  -1   3   3 2465.85   56.09
  -1   3   3 2426.56   70.89
  -1   3   3 2434.46   56.59
  -1   3   3 2374.06   56.59
  -1   3   3 2395.36   57.79
  -1   3   3 2456.25   56.09
   0  -3  -3  688.23   18.10
   0  -3  -3  665.33   21.80
   0  -3  -3  715.83   33.60
   0  -3  -3  685.23   17.80
   0  -3  -3  694.33   17.50
   0  -3  -3  686.53   20.30
   0  -3  -3  698.93   17.60
   0  -3  -3  717.93   21.50
   0   3   3  681.83   18.10
   0   3   3  686.83   18.20
   0   3   3  673.03   33.00
   0   3   3  701.73   22.00
   0   3   3  705.03   17.60
   0   3   3  701.73   17.50
   0   3   3  694.13   18.40
  -1  -3  -3 1179.18   29.00
  -1  -3  -3 1165.58   34.00
  -1  -3  -3 1200.98   28.90
  -1  -3  -3 1204.88   34.70
  -1  -3  -3 1170.58   28.40
  -1  -3  -3 1163.48   51.89
  -1  -3  -3 1162.28   28.30
   1   3   3 1194.08   28.20
   1   3   3 1198.18   28.40
   1   3   3 1179.68   29.00
   1   3   3 1175.68   34.10
   1   3   3 1205.68   29.10
   1   3   3 1173.98   51.89
  -2  -3  -3 1069.09   26.60
  -2  -3  -3 1105.69   33.40
  -2  -3  -3 1082.19   27.50
  -2  -3  -3 1134.89   27.50
  -2  -3  -3 1124.49   48.30
  -2  -3  -3 1116.19   26.80
   2   3   3 1102.39   26.60
   2   3   3 1082.19   27.40
   2   3   3 1075.89   33.30
   2   3   3 1077.19   26.80
   2   3   3 1068.99   27.30
   2   3   3 1126.29   48.20
   2   3   3 1078.79   26.60
  -3  -3  -3  501.25   18.00
  -3  -3  -3  483.35   15.00
  -3  -3  -3  425.56   24.20
  -3  -3  -3  487.15   13.70
  -3  -3  -3  507.15   13.90
  -3  -3  -3  504.35   16.10
   3   3   3  497.35   14.50
   3   3   3  517.35   24.30
   3   3   3  494.85   14.20
   3   3   3  511.35   13.80
   3   3   3  498.15   13.80
   3   3   3  501.45   14.50
   3   3   3  490.85   17.90
  -4  -3  -3    3.60    1.90
  -4  -3  -3   -0.70    2.10
  -4  -3  -3    2.60    1.40
  -4  -3  -3    5.80    1.80
  -4  -3  -3    3.50    1.40
   4   3   3    5.90    1.90
   4   3   3    4.40    2.10
   4   3   3   -0.30    2.30
   4   3   3    3.80    1.30
   4   3   3    4.70    1.90
   4   3   3    7.10    2.40
  -5  -3  -3    3.70    1.60
  -5  -3  -3    0.80    1.70
  -5  -3  -3    5.30    2.10
   5   3   3    3.00    1.80
   5   3   3   -3.50    2.60
   5   3   3    1.50    1.70
   5   3   3    2.40    1.80
   5   3   3    5.50    2.50
  -6  -3  -3  106.79    6.40
  -6  -3  -3  105.79    6.10
  -6  -3  -3  115.79    7.00
  -6  -3  -3  111.59    6.70
   6   3   3  108.19    6.50
   6   3   3  116.29    7.30
   6   3   3  101.79    8.40
   6   3   3  105.39    6.80
  -7  -3  -3  562.54   18.00
  -7  -3  -3  548.35   17.80
  -7  -3  -3  543.45   20.10
   7   3   3  490.85   22.60
   7   3   3  540.15   18.50
   7   3   3  536.35   20.70
   7   3   3  529.35   18.30
  -8  -3  -3   50.49    5.30
  -8  -3  -3   58.89    6.00
  -8  -3  -3   50.59    6.50
   8   3   3   59.09    6.50
   8   3   3   56.19    6.30
   8   3   3   59.09    6.00
   8   3   3   60.19    7.80
  -9  -3  -3   25.20    5.20
  -9  -3  -3   16.10    4.00
  -9  -3  -3   20.40    4.80
   9   3   3   23.60    5.20
   9   3   3   11.20    4.70
   9   3   3   16.30    5.40
   9   3   3   25.80    4.90
 -10  -3  -3   27.70    5.60
 -10  -3  -3   30.60    5.40
 -10  -3  -3   37.30    6.50
  10   3   3   37.90    6.10
  10   3   3   26.90    6.50
  10   3   3   32.20    8.00
  10   3   3   40.70    6.60
 -11  -3  -3    0.90    4.00
 -11  -3  -3   -3.00    3.50
 -11  -3  -3   -4.10    3.50
  11   3   3    0.40    2.90
  11   3   3   -9.60    4.40
  11   3   3    1.00    3.10
 -12  -3  -3   -1.40    4.70
 -12  -3  -3   -3.30    4.40
 -12  -3  -3   -0.10    3.40
  12   3   3   17.60    6.40
  12   3   3  -11.40    5.30
  12   3   3    2.70    3.40
   9  -4  -3   -1.30    5.20
   8  -4  -3    2.30    7.80
   8  -4  -3    4.70    5.40
   8  -4  -3   12.70    4.80
  -8   4   3    8.40    4.30
   7  -4  -3    4.10    3.30
   7  -4  -3    0.70    4.50
   7  -4  -3  -10.00    5.60
  -7   4   3   -3.40    2.60
   6  -4  -3   25.80    7.90
   6  -4  -3   33.70    4.70
   6  -4  -3   35.10    8.40
   6  -4  -3   21.30    4.50
  -6   4   3   29.00    4.30
  -6   4   3   25.50    4.90
   5  -4  -3    3.80    4.80
   5  -4  -3    3.60    2.30
   5  -4  -3    2.50    4.40
   5  -4  -3    4.90    2.90
  -5   4   3    2.60    2.70
  -5   4   3    2.30    1.90
  -5   4   3    0.80    2.40
   4  -4  -3   11.10    3.10
   4  -4  -3   12.10    2.80
   4  -4  -3   13.50    4.30
   4  -4  -3   13.30    4.90
  -4   4   3   17.90    3.50
  -4   4   3   21.30    3.90
  -4   4   3   20.80    3.40
   3  -4  -3    6.60    3.50
   3  -4  -3   13.30    2.70
   3  -4  -3    8.30    3.10
   3  -4  -3   10.80    2.60
  -3   4   3   14.60    3.10
  -3   4   3   11.20    2.70
  -3   4   3    9.70    2.50
  -3   4   3   13.20    3.00
   2  -4  -3    0.70    1.10
   2  -4  -3    2.00    1.50
   2  -4  -3    0.70    1.90
   2  -4  -3   -1.40    1.40
   2  -4  -3    1.10    3.10
  -2   4   3   -0.90    1.40
  -2   4   3    3.30    2.00
  -2   4   3    1.50    1.50
   1  -4  -3  225.08    8.30
   1  -4  -3  237.48   16.40
   1  -4  -3  245.38   11.10
   1  -4  -3  242.28    8.20
   1  -4  -3  247.78    8.80
  -1   4   3  231.38    8.90
  -1   4   3  233.28    8.70
  -1   4   3  226.08    8.10
  -1   4   3  237.48    8.90
   0  -4  -3    1.00    1.50
   0  -4  -3   -0.60    1.10
   0  -4  -3    0.40    1.00
   0  -4  -3    1.10    1.00
   0  -4  -3    2.60    2.70
   0  -4  -3    1.30    0.40
   0   4   3    2.70    1.20
   0   4   3    0.80    1.40
   0   4   3    0.60    1.10
   0   4   3    1.50    1.50
   0   4   3    0.40    1.30
  -1  -4  -3    7.70    1.50
  -1  -4  -3    5.80    1.70
  -1  -4  -3    6.20    1.40
  -1  -4  -3    3.90    2.70
  -1  -4  -3    7.30    1.40
  -1  -4  -3    6.00    1.60
   1   4   3    8.10    1.80
   1   4   3    9.40    1.80
   1   4   3    6.80    1.50
   1   4   3    7.10    1.80
   1   4   3    8.50    2.10
  -2  -4  -3  156.78    6.10
  -2  -4  -3  164.38    6.70
  -2  -4  -3  145.69    5.90
  -2  -4  -3  169.78   11.70
  -2  -4  -3  167.78    7.50
   2   4   3  156.58    7.40
   2   4   3  166.18    6.80
   2   4   3  162.78    6.20
   2   4   3  165.58    5.70
   2   4   3  160.68    6.80
   2   4   3  161.58    5.70
  -3  -4  -3    8.40    1.70
  -3  -4  -3   10.40    2.30
  -3  -4  -3   13.10    2.00
  -3  -4  -3    7.60    1.90
   3   4   3   10.40    0.80
   3   4   3    8.40    2.00
   3   4   3    8.50    0.60
   3   4   3   10.00    2.00
   3   4   3    9.30    2.70
   3   4   3   10.40    2.50
  -4  -4  -3  500.35   15.10
  -4  -4  -3  520.95   15.20
  -4  -4  -3  573.54   27.60
  -4  -4  -3  521.65   17.10
   4   4   3  502.85   16.00
   4   4   3  519.85   19.80
   4   4   3  509.85   15.70
   4   4   3  488.45   15.80
   4   4   3  521.95   15.00
  -5  -4  -3    3.30    2.10
  -5  -4  -3    9.90    2.40
  -5  -4  -3    6.20    2.20
   5   4   3    5.50    1.70
   5   4   3    5.70    2.70
   5   4   3    5.40    2.10
   5   4   3    7.20    3.00
  -6  -4  -3  415.86   15.30
  -6  -4  -3  396.46   13.80
  -6  -4  -3  418.76   13.90
   6   4   3  413.96   15.30
   6   4   3  390.96   18.40
   6   4   3  443.16   15.20
   6   4   3  410.26   14.70
  -7  -4  -3   23.50    4.00
  -7  -4  -3   17.10    3.60
  -7  -4  -3   22.30    3.50
   7   4   3   18.00    5.20
   7   4   3   16.10    3.60
   7   4   3   18.30    3.60
   7   4   3   15.90    4.00
  -8  -4  -3   23.90    4.20
  -8  -4  -3   19.80    3.70
   8   4   3   23.40    4.60
   8   4   3   24.20    4.50
   8   4   3   19.10    5.80
   8   4   3   23.00    4.40
  -9  -4  -3    1.80    2.60
  -9  -4  -3   -0.90    3.10
  -9  -4  -3    2.20    2.50
   9   4   3    1.10    3.60
   9   4   3    6.30    4.00
   9   4   3    1.30    2.50
   9   4   3    0.40    3.20
 -10  -4  -3    2.40    3.50
 -10  -4  -3    5.30    3.60
 -10  -4  -3    3.20    3.60
  10   4   3    4.90    4.80
  10   4   3   -6.70    4.40
  10   4   3    9.10    3.60
  10   4   3    5.90    4.20
 -11  -4  -3   45.00    7.40
 -11  -4  -3   63.19    7.90
 -11  -4  -3   48.30    7.00
  11   4   3   53.99    8.60
  11   4   3   54.29    8.10
  11   4   3   69.39    8.90
  11   4   3   48.50    9.00
 -12  -4  -3   -2.30    3.80
 -12  -4  -3   -0.70    3.40
 -12  -4  -3   -1.60    5.00
  12   4   3    4.10    4.10
  12   4   3   -4.30    5.20
  12   4   3    1.90    3.40
   8  -5  -3    7.10    7.50
   7  -5  -3    0.50    5.40
   7  -5  -3    5.40    4.00
   7  -5  -3    3.70    7.60
  -7   5   3    5.50    4.00
   6  -5  -3    2.90    3.30
   6  -5  -3    7.40    6.00
   6  -5  -3    2.70    4.80
  -6   5   3    2.80    2.40
  -6   5   3    5.60    3.00
   5  -5  -3   36.00    5.10
   5  -5  -3   20.60    7.30
   5  -5  -3   28.00    4.50
   5  -5  -3   23.30    7.00
  -5   5   3   42.40    5.80
  -5   5   3   34.10    4.80
  -5   5   3   38.30    5.60
   4  -5  -3   52.39    5.40
   4  -5  -3   65.09    8.20
   4  -5  -3   39.40    8.60
   4  -5  -3   46.60    4.80
  -4   5   3   52.49    5.60
  -4   5   3   62.09    5.80
  -4   5   3   55.09    5.00
   3  -5  -3  102.39    8.80
   3  -5  -3  107.49    6.30
   3  -5  -3   93.99   12.50
   3  -5  -3   92.99    6.00
  -3   5   3  102.99    6.60
  -3   5   3  108.29    6.40
  -3   5   3  101.39    6.90
   2  -5  -3    3.20    3.30
   2  -5  -3    1.60    2.10
   2  -5  -3   -0.50    2.20
   2  -5  -3    1.00    1.80
  -2   5   3    4.20    2.40
  -2   5   3    1.70    2.10
   1  -5  -3   68.39    8.90
   1  -5  -3   71.99    4.70
   1  -5  -3   68.79    6.40
   1  -5  -3   70.69    4.50
  -1   5   3   66.39    4.80
  -1   5   3   60.49    4.10
  -1   5   3   66.69    5.10
   0  -5  -3    1.40    1.90
   0  -5  -3    3.50    2.60
   0  -5  -3    0.80    1.20
   0  -5  -3    2.20    1.40
   0  -5  -3    1.10    1.40
   0   5   3    0.30    1.70
   0   5   3    0.50    1.40
   0   5   3   -0.30    1.80
   0   5   3    0.80    1.50
   0   5   3    1.10    1.50
  -1  -5  -3    1.50    1.10
  -1  -5  -3   -0.40    1.70
  -1  -5  -3   -0.40    1.40
  -1  -5  -3    0.40    0.70
  -1  -5  -3    0.60    1.50
  -1  -5  -3    3.10    1.70
   1   5   3    0.50    1.20
   1   5   3   -1.30    1.20
   1   5   3   -0.70    1.50
   1   5   3   -2.40    1.30
   1   5   3   -2.90    1.50
  -2  -5  -3  145.99    6.20
  -2  -5  -3  131.29   11.30
  -2  -5  -3  143.79    6.80
  -2  -5  -3  135.79    6.70
  -2  -5  -3  138.19    6.10
   2   5   3  141.49    6.90
   2   5   3  135.49    6.00
   2   5   3  129.79    5.20
   2   5   3  137.19    6.80
   2   5   3  138.89    6.10
  -3  -5  -3    1.10    1.40
  -3  -5  -3    1.00    1.50
  -3  -5  -3    1.10    1.40
  -3  -5  -3    1.20    1.30
   3   5   3   -0.80    1.80
   3   5   3    0.90    1.50
   3   5   3    0.40    1.00
   3   5   3   -0.50    1.70
   3   5   3   -0.10    1.00
   3   5   3    2.60    1.70
  -4  -5  -3   78.89    4.60
  -4  -5  -3   76.99    4.60
  -4  -5  -3   68.59   11.70
  -4  -5  -3   81.19    5.10
   4   5   3   74.59    5.50
   4   5   3   76.39    5.30
   4   5   3   76.29    6.70
   4   5   3   78.59    3.70
  -5  -5  -3    8.00    2.10
  -5  -5  -3    6.20    2.00
  -5  -5  -3    7.60    3.40
  -5  -5  -3    3.90    2.30
   5   5   3    2.20    2.00
   5   5   3    4.70    3.00
   5   5   3    6.60    2.30
   5   5   3    8.70    1.60
  -6  -5  -3   15.80    2.90
  -6  -5  -3   13.80    2.90
  -6  -5  -3   12.30    3.00
   6   5   3    9.40    2.80
   6   5   3   12.70    3.50
   6   5   3   18.40    4.20
   6   5   3   11.90    2.30
  -7  -5  -3   -0.10    1.60
  -7  -5  -3   -0.10    1.70
  -7  -5  -3    1.90    2.00
   7   5   3   -3.70    2.60
   7   5   3   -1.90    2.00
   7   5   3    1.20    2.00
   7   5   3   -1.60    3.70
  -8  -5  -3    2.50    2.50
  -8  -5  -3    0.40    2.00
   8   5   3   -2.10    2.90
   8   5   3    8.80    3.30
   8   5   3    2.70    2.70
   8   5   3   -0.50    2.50
  -9  -5  -3   -3.30    2.10
  -9  -5  -3   -8.40    2.20
  -9  -5  -3    2.30    2.60
   9   5   3   -0.40    2.40
   9   5   3    3.50    4.00
   9   5   3    1.40    2.70
   9   5   3   -0.10    3.10
 -10  -5  -3    3.20    3.20
 -10  -5  -3   10.90    3.80
 -10  -5  -3    9.00    4.20
  10   5   3   12.80    4.80
  10   5   3    4.20    4.20
  10   5   3    9.10    3.90
  10   5   3    3.60    5.50
 -11  -5  -3   11.60    4.80
 -11  -5  -3   12.70    4.40
 -11  -5  -3   12.80    4.40
  11   5   3   12.10    5.20
  11   5   3    1.00    4.30
  11   5   3   16.60    4.90
  11   5   3    4.40    5.30
 -12  -5  -3    7.80    5.50
 -12  -5  -3    5.60    4.90
  12   5   3   -5.60    6.70
  12   5   3    7.00    4.30
  12   5   3    5.50    4.20
 -13  -5  -3   -3.40    5.00
  13   5   3    3.00    5.40
   7  -6  -3    1.80    6.40
   6  -6  -3   17.60    6.80
   6  -6  -3   22.00    5.40
   6  -6  -3   25.40    8.00
  -6   6   3   25.40    5.30
   5  -6  -3   -4.10    5.40
   5  -6  -3    0.40    2.80
   5  -6  -3    2.20    4.20
  -5   6   3   -0.90    2.70
  -5   6   3    2.00    2.40
   4  -6  -3   19.80    3.90
   4  -6  -3   17.40    3.90
   4  -6  -3   16.70    6.40
   4  -6  -3   24.70    7.80
  -4   6   3   26.40    5.10
  -4   6   3   27.90    4.50
  -4   6   3   23.30    4.80
   3  -6  -3   -4.20    2.30
   3  -6  -3    4.10    4.50
   3  -6  -3    0.60    3.00
   3  -6  -3   -1.70    2.10
  -3   6   3    3.50    2.30
  -3   6   3    0.30    1.90
   2  -6  -3   61.59   11.00
   2  -6  -3   63.59    5.10
   2  -6  -3   58.29    5.10
   2  -6  -3   74.39    8.40
  -2   6   3   70.69    6.10
  -2   6   3   76.09    6.30
   1  -6  -3   27.40    6.40
   1  -6  -3   31.60    4.00
   1  -6  -3   29.80    4.90
   1  -6  -3   26.70    3.70
  -1   6   3   35.40    4.60
  -1   6   3   34.00    4.70
   0  -6  -3   51.89    9.00
   0  -6  -3   51.29    4.30
   0  -6  -3   38.60    3.70
   0  -6  -3   48.60    5.40
   0   6   3   42.10    3.80
   0   6   3   46.90    4.40
   0   6   3   44.50    4.70
  -1  -6  -3    1.90    1.90
  -1  -6  -3    0.60    1.90
  -1  -6  -3    0.30    1.30
  -1  -6  -3    1.20    2.30
   1   6   3    1.20    1.50
   1   6   3    2.20    1.80
   1   6   3    2.10    1.90
   1   6   3    0.60    2.00
  -2  -6  -3   31.60    3.50
  -2  -6  -3   28.10    2.90
  -2  -6  -3   23.30    5.40
  -2  -6  -3   24.60    3.20
   2   6   3   28.30    4.00
   2   6   3   28.50    3.50
   2   6   3   29.80    2.60
   2   6   3   28.90    3.80
   2   6   3   29.60    3.60
  -3  -6  -3   28.10    3.00
  -3  -6  -3   25.00    3.40
  -3  -6  -3   22.20    6.40
  -3  -6  -3   30.00    3.60
   3   6   3   29.40    2.30
   3   6   3   23.40    3.60
   3   6   3   32.90    4.40
   3   6   3   25.50    3.00
   3   6   3   30.80    4.00
  -4  -6  -3   86.69    5.20
  -4  -6  -3   72.19   11.40
  -4  -6  -3   84.29    5.20
   4   6   3   86.39    6.20
   4   6   3   93.49    4.50
   4   6   3   87.99    7.10
  -5  -6  -3  157.38    7.40
  -5  -6  -3  162.78    7.70
  -5  -6  -3  184.58   15.40
  -5  -6  -3  146.29    7.30
   5   6   3  155.98    8.50
   5   6   3  155.38    6.70
   5   6   3  147.29   10.10
   5   6   3  150.08    8.20
  -6  -6  -3   46.10    4.40
  -6  -6  -3   47.10    4.20
  -6  -6  -3   41.20    4.10
  -6  -6  -3   41.60    8.40
   6   6   3   39.30    5.30
   6   6   3   43.20    3.80
   6   6   3   40.60    5.40
   6   6   3   33.60    5.80
  -7  -6  -3   -1.20    1.30
  -7  -6  -3    0.30    2.40
  -7  -6  -3    0.10    2.10
   7   6   3   -6.00    2.40
   7   6   3   -0.30    1.70
   7   6   3   -6.00    1.70
   7   6   3    0.50    2.40
  -8  -6  -3    1.60    2.20
  -8  -6  -3    1.10    2.20
  -8  -6  -3    0.10    1.80
   8   6   3   -6.50    1.60
   8   6   3    2.90    2.60
   8   6   3   -4.30    2.20
   8   6   3   -1.90    2.10
  -9  -6  -3   50.89    6.50
  -9  -6  -3   50.09    6.10
  -9  -6  -3   68.59    6.80
   9   6   3   49.80    6.40
   9   6   3   49.10    7.00
   9   6   3   54.99    7.40
   9   6   3   48.50    8.80
 -10  -6  -3   -1.20    3.50
 -10  -6  -3    2.00    2.60
 -10  -6  -3   -1.70    3.20
  10   6   3    1.30    3.90
  10   6   3    3.40    3.00
  10   6   3    0.70    3.00
  10   6   3   -0.60    3.50
 -11  -6  -3    0.00    3.60
 -11  -6  -3   -3.10    2.70
 -11  -6  -3    1.50    4.20
  11   6   3    3.20    3.40
  11   6   3  -11.50    4.80
  11   6   3    0.50    4.10
 -12  -6  -3   -5.10    4.20
 -12  -6  -3    1.40    4.30
  12   6   3    5.80    4.20
  12   6   3    5.60    3.90
  12   6   3   -1.00    5.00
 -13  -6  -3    8.90    6.10
  13   6   3    4.70    5.70
   6  -7  -3    0.60    5.80
   6  -7  -3   13.50    8.20
   5  -7  -3    2.90    2.90
   5  -7  -3   -1.60    4.90
   5  -7  -3   -7.20    5.90
  -5   7   3   -0.40    2.40
  -5   7   3   -1.20    2.80
   4  -7  -3   18.30    4.80
   4  -7  -3    9.90    6.20
   4  -7  -3   14.00    7.10
  -4   7   3   16.20    4.10
  -4   7   3   14.70    4.00
   3  -7  -3    0.90    2.60
   3  -7  -3    1.60    2.20
   3  -7  -3    0.10    3.30
   3  -7  -3    1.80    3.60
  -3   7   3   -1.30    1.90
  -3   7   3    4.30    3.10
   2  -7  -3    1.00    3.40
   2  -7  -3    2.20    2.50
   2  -7  -3   -1.00    2.00
   2  -7  -3   -0.30    2.80
  -2   7   3   -0.50    2.00
  -2   7   3   -3.30    2.40
   1  -7  -3   -1.00    3.30
   1  -7  -3    0.70    2.60
   1  -7  -3   -1.40    2.10
   1  -7  -3   -0.60    3.90
  -1   7   3    1.00    2.90
  -1   7   3    3.00    2.40
  -1   7   3    3.80    2.40
   0  -7  -3    6.70    2.40
   0  -7  -3    5.80    2.30
   0  -7  -3    6.20    4.00
   0  -7  -3    9.40    3.40
   0   7   3    8.70    2.60
   0   7   3    7.70    2.90
   0   7   3    6.40    3.20
  -1  -7  -3  182.48    8.70
  -1  -7  -3  167.58    8.30
  -1  -7  -3  171.78    9.50
  -1  -7  -3  183.58   16.90
   1   7   3  173.78    7.40
   1   7   3  202.88    9.90
   1   7   3  184.68    9.70
  -2  -7  -3  105.99   12.10
  -2  -7  -3  109.39    5.70
  -2  -7  -3  103.79    6.40
  -2  -7  -3   97.09    5.90
   2   7   3  107.59    7.30
   2   7   3  105.29    5.10
   2   7   3  112.89    6.30
   2   7   3   94.39    6.60
  -3  -7  -3   93.59    5.90
  -3  -7  -3   92.49   12.90
  -3  -7  -3   89.29    6.00
  -3  -7  -3   87.69    5.90
   3   7   3   91.19    4.20
   3   7   3   86.99    5.80
   3   7   3   98.49    6.80
   3   7   3   94.69    6.50
  -4  -7  -3   12.80    2.70
  -4  -7  -3    5.60    2.60
   4   7   3    3.80    2.00
   4   7   3   10.10    3.40
   4   7   3    8.00    3.20
   4   7   3   11.10    3.20
  -5  -7  -3    5.30    2.60
   5   7   3    3.00    3.00
  -6  -7  -3   -1.10    2.30
  -6  -7  -3   -0.70    2.50
  -6  -7  -3   -3.10    4.60
  -6  -7  -3    0.20    1.60
   6   7   3    0.10    2.10
   6   7   3   -2.60    1.90
   6   7   3   -0.70    3.30
   6   7   3    1.10    1.30
  -7  -7  -3   10.40    2.80
  -7  -7  -3   13.60    2.80
  -7  -7  -3   19.60    4.30
   7   7   3   16.20    2.80
   7   7   3   17.10    4.10
   7   7   3    6.70    3.90
   7   7   3   17.30    4.60
  -8  -7  -3    2.50    1.90
  -8  -7  -3   -5.70    2.30
  -8  -7  -3   -3.30    2.50
   8   7   3   -0.20    3.10
   8   7   3    1.70    2.20
   8   7   3    2.00    3.50
   8   7   3    0.50    3.50
  -9  -7  -3   45.90    5.20
  -9  -7  -3   44.80    6.20
  -9  -7  -3   46.00    6.00
   9   7   3   41.00    6.10
   9   7   3   55.19    6.10
   9   7   3   45.90    6.40
   9   7   3   51.69    8.30
 -10  -7  -3   16.80    3.90
 -10  -7  -3   14.10    4.80
 -10  -7  -3   12.50    3.80
  10   7   3   11.20    6.50
  10   7   3   16.40    5.20
  10   7   3   12.50    5.30
 -11  -7  -3    2.50    4.40
 -11  -7  -3    6.80    4.30
  11   7   3    0.80    4.70
  11   7   3    3.60    3.60
  11   7   3    8.90    4.70
 -12  -7  -3    5.60    4.50
 -12  -7  -3   -1.00    4.60
  12   7   3   -2.20    3.50
  12   7   3   -1.70    7.00
  12   7   3   10.10    4.90
 -13  -7  -3   -1.20    5.00
  13   7   3    4.90    4.50
   5  -8  -3   -4.00    6.30
   5  -8  -3  -11.90    6.40
   4  -8  -3   11.70    4.60
   4  -8  -3   -6.70    5.90
   4  -8  -3   11.90    7.60
  -4   8   3    9.50    4.80
   3  -8  -3   16.00    6.80
   3  -8  -3   25.20    5.20
   3  -8  -3   19.60    5.30
   3  -8  -3   15.10    5.50
  -3   8   3   27.80    5.90
   2  -8  -3    3.00    2.20
   2  -8  -3    0.00    3.40
   2  -8  -3   -0.40    2.20
   2  -8  -3   -0.90    2.90
  -2   8   3   -1.20    3.20
  -2   8   3    2.00    2.60
   1  -8  -3   -2.20    4.30
   1  -8  -3   -0.60    3.40
   1  -8  -3    0.30    2.10
   1  -8  -3    2.00    2.10
  -1   8   3   -2.30    1.90
  -1   8   3   -3.30    2.70
  -1   8   3   -1.80    1.90
   0  -8  -3   90.39   12.50
   0  -8  -3   73.09    6.00
   0  -8  -3   85.99    6.60
   0  -8  -3   79.79    7.20
   0   8   3   85.59    5.90
   0   8   3   72.79    7.20
   0   8   3   84.19    7.50
  -1  -8  -3   10.40    3.10
  -1  -8  -3   10.60    3.40
  -1  -8  -3   10.00    6.20
   1   8   3   13.60    2.70
   1   8   3    7.20    3.80
   1   8   3    9.80    3.20
  -2  -8  -3   14.40    3.20
  -2  -8  -3    8.90    3.40
  -2  -8  -3    6.60    4.90
   2   8   3   16.90    4.30
   2   8   3    5.50    2.10
   2   8   3    9.70    2.20
   2   8   3    7.90    3.50
  -3  -8  -3    5.30    7.80
  -3  -8  -3    0.40    1.70
  -3  -8  -3    0.20    1.80
   3   8   3   -3.00    1.90
   3   8   3   -2.10    2.50
  -4  -8  -3   86.29   15.50
  -4  -8  -3   99.79    6.70
  -4  -8  -3   96.99    6.70
   4   8   3   96.09    7.80
   4   8   3  110.29    8.10
   4   8   3   89.59    6.30
   4   8   3   97.89    7.80
  -5  -8  -3   -0.90    7.80
  -5  -8  -3   10.30    3.40
  -5  -8  -3    7.20    3.20
   5   8   3    7.70    3.20
   5   8   3   11.60    3.90
  -6  -8  -3    0.30    6.30
  -6  -8  -3    6.40    3.40
  -6  -8  -3    6.70    2.60
  -6  -8  -3    2.70    2.10
   6   8   3   -5.10    2.90
   6   8   3    6.60    3.20
   6   8   3    5.60    3.70
  -7  -8  -3   -0.40    2.70
  -7  -8  -3    0.50    1.90
  -7  -8  -3    1.60    2.70
  -7  -8  -3  -12.20    7.00
   7   8   3    2.50    1.80
   7   8   3    1.90    3.40
   7   8   3    3.00    2.90
   7   8   3   -1.10    3.80
  -8  -8  -3   24.90    4.80
  -8  -8  -3   21.00    3.40
  -8  -8  -3   32.70    5.50
   8   8   3   31.90    6.00
   8   8   3   15.70    5.50
   8   8   3   30.10    5.80
  -9  -8  -3   12.00    3.30
  -9  -8  -3   10.30    4.30
  -9  -8  -3   16.00    4.40
   9   8   3   11.80    4.90
   9   8   3    4.90    5.60
   9   8   3   11.60    3.90
 -10  -8  -3   11.00    3.80
 -10  -8  -3   10.70    4.60
  10   8   3   -4.60    5.00
  10   8   3    1.50    4.40
  10   8   3   10.70    5.10
 -11  -8  -3   62.19    7.80
 -11  -8  -3   62.49    8.00
  11   8   3   56.49    8.60
  11   8   3   65.09    8.40
  11   8   3   42.60    9.00
 -12  -8  -3   40.20    7.00
 -12  -8  -3   24.60    5.40
  12   8   3   42.60    8.00
  12   8   3   18.30    9.00
  12   8   3   33.60    7.20
 -13  -8  -3   -0.60    3.90
  13   8   3    3.00    6.00
   4  -9  -3    9.70    8.30
   4  -9  -3   11.20    7.80
  -4   9   3   13.60    5.20
   3  -9  -3    2.30    4.10
   3  -9  -3    1.30    6.20
   3  -9  -3    2.30    4.40
  -3   9   3    4.90    4.10
  -3   9   3   13.80    5.20
   2  -9  -3   25.30    5.20
   2  -9  -3   11.00    4.40
   2  -9  -3    9.90    7.30
   2  -9  -3   13.10    3.90
  -2   9   3   20.50    5.70
  -2   9   3   18.30    4.60
   1  -9  -3   42.40    6.20
   1  -9  -3   55.89    6.90
   1  -9  -3   35.60    9.60
   1  -9  -3   39.50    7.00
  -1   9   3   46.30    7.20
  -1   9   3   38.40    6.50
  -1   9   3   42.50    5.60
   0  -9  -3    0.90    2.90
   0  -9  -3   -0.60    1.80
   0  -9  -3    0.20    3.20
   0  -9  -3   -1.30    3.80
   0   9   3   -1.60    3.30
   0   9   3    0.00    2.10
   0   9   3    4.70    3.70
  -1  -9  -3    9.90    3.20
  -1  -9  -3   13.60    3.90
  -1  -9  -3   12.80    6.10
   1   9   3   12.30    4.50
   1   9   3   13.00    4.00
   1   9   3   13.90    3.10
  -2  -9  -3   47.50   11.00
  -2  -9  -3   64.39    5.80
  -2  -9  -3   66.09    6.30
   2   9   3   64.39    7.70
   2   9   3   82.09    7.90
  -3  -9  -3   31.00    5.00
  -3  -9  -3   37.50    5.30
  -3  -9  -3   23.80   10.40
   3   9   3   44.60    6.70
   3   9   3   26.00    3.90
   3   9   3   31.50    5.20
  -4  -9  -3   70.89    5.90
  -4  -9  -3   71.39   16.50
  -4  -9  -3   55.39    6.00
   4   9   3   67.19    6.70
   4   9   3   51.99    6.50
   4   9   3   63.19    7.90
  -5  -9  -3   13.40    3.90
  -5  -9  -3    8.00    3.00
  -5  -9  -3   43.60   15.90
   5   9   3    6.20    3.60
   5   9   3    6.70    3.80
   5   9   3    6.40    4.20
  -6  -9  -3    2.70    7.60
  -6  -9  -3    7.10    2.30
  -6  -9  -3    9.60    3.90
  -6  -9  -3    7.00    2.90
   6   9   3    5.60    4.30
   6   9   3    5.00    4.00
   6   9   3    4.10    3.30
  -7  -9  -3   -0.10    1.80
  -7  -9  -3   -2.30    1.70
  -7  -9  -3   -1.60    5.70
  -7  -9  -3   -1.90    3.10
   7   9   3   -0.50    3.50
   7   9   3    3.50    3.20
   7   9   3    0.10    3.50
  -8  -9  -3    3.00    2.80
  -8  -9  -3    1.50    2.00
  -8  -9  -3    5.90    3.00
   8   9   3    5.00    3.50
   8   9   3    9.90    5.20
   8   9   3    0.20    3.70
  -9  -9  -3    4.60    3.10
  -9  -9  -3   -0.20    3.60
   9   9   3    1.80    4.40
   9   9   3   -4.80    4.40
   9   9   3    2.30    4.40
 -10  -9  -3    3.50    4.10
 -10  -9  -3    8.30    3.80
  10   9   3    2.20    4.40
  10   9   3   11.70    5.60
  10   9   3    4.50    3.70
 -11  -9  -3    2.90    4.70
 -11  -9  -3    0.40    3.10
  11   9   3    7.60    4.40
  11   9   3    3.30    4.90
  11   9   3   -1.70    4.70
 -12  -9  -3   -0.10    4.80
 -12  -9  -3    0.60    5.20
  12   9   3    4.10    5.30
  12   9   3   -2.70    7.00
  12   9   3   10.70    4.90
   3 -10  -3   16.80    7.20
  -3  10   3    7.10    4.60
   2 -10  -3    8.80    4.00
   2 -10  -3    5.90    6.10
   2 -10  -3   12.60    5.90
  -2  10   3   10.40    4.50
  -2  10   3   12.40    5.90
   1 -10  -3    9.80    6.60
   1 -10  -3   14.80    4.50
   1 -10  -3   18.30    5.40
   1 -10  -3   17.70    4.60
  -1  10   3    4.10    3.60
  -1  10   3   14.10    4.30
   0 -10  -3    1.30    3.50
   0 -10  -3   11.70    7.30
   0 -10  -3    9.50    4.10
   0  10   3    5.70    3.50
   0  10   3    1.40    4.10
  -1 -10  -3    2.50    2.60
  -1 -10  -3   -0.60    3.30
  -1 -10  -3   -2.40    7.30
   1  10   3    0.40    2.90
   1  10   3   -1.20    3.70
  -2 -10  -3   10.20   12.60
  -2 -10  -3   -1.40    2.90
  -2 -10  -3   -1.70    3.10
   2  10   3    2.80    2.90
   2  10   3    2.20    3.70
  -3 -10  -3    8.90   12.30
  -3 -10  -3   15.70    4.40
  -3 -10  -3    8.40    3.80
   3  10   3   18.00    4.90
   3  10   3   15.40    5.10
  -4 -10  -3   60.49    6.10
  -4 -10  -3   38.50   18.70
  -4 -10  -3   64.49    6.90
   4  10   3   60.79    8.10
   4  10   3   59.99    7.00
   4  10   3   53.09    7.30
  -5 -10  -3  148.09   24.20
  -5 -10  -3  149.99    9.50
  -5 -10  -3  144.09    8.90
   5  10   3  126.79   10.00
   5  10   3  155.88   11.30
   5  10   3  138.19   10.70
  -6 -10  -3  178.78   21.60
  -6 -10  -3  138.29    8.30
  -6 -10  -3  154.38    9.90
   6  10   3  169.48   10.90
   6  10   3  141.69   11.30
  -7 -10  -3   -0.10    2.60
  -7 -10  -3   -3.10    2.80
  -7 -10  -3   -9.80    6.50
   7  10   3   -4.00    4.10
   7  10   3   -2.20    3.90
   7  10   3    0.00    3.00
  -8 -10  -3    6.50    4.30
  -8 -10  -3    0.50    2.70
   8  10   3    0.90    4.30
   8  10   3   -2.20    2.50
   8  10   3   -3.50    4.20
  -9 -10  -3   14.20    4.90
  -9 -10  -3   13.80    5.00
   9  10   3   20.20    6.10
   9  10   3   22.50    6.40
   9  10   3   13.30    6.40
 -10 -10  -3    1.10    3.30
 -10 -10  -3    0.40    3.90
  10  10   3    1.30    3.60
  10  10   3    1.00    3.30
  10  10   3   -9.40    4.80
 -11 -10  -3   -3.00    4.00
 -11 -10  -3    4.40    4.60
  11  10   3    5.80    5.60
  11  10   3  -12.30    5.30
  11  10   3   -1.00    3.40
 -12 -10  -3   25.60    6.00
  12  10   3   24.70    6.70
  12  10   3   38.70    8.20
   1 -11  -3   16.10   11.40
   0 -11  -3    6.50   10.90
   0 -11  -3    2.90    4.50
   0  11   3   -2.10    4.10
  -1 -11  -3    3.60   16.80
  -1 -11  -3    0.30    4.00
  -1 -11  -3    1.90    2.90
   1  11   3    2.40    4.70
   1  11   3   -0.20    2.80
  -5 -11  -3    5.70    4.10
  -5 -11  -3   12.70   13.20
  -5 -11  -3    0.10    2.50
   5  11   3    6.10    4.40
   5  11   3    1.00    3.20
  -6 -11  -3   34.40   15.50
  -6 -11  -3   32.60    6.00
  -6 -11  -3   32.70    6.20
   6  11   3   30.80    6.50
   6  11   3   14.90    5.40
   6  11   3   38.70    6.60
  -7 -11  -3    6.40    3.40
  -7 -11  -3  -23.90   11.40
  -7 -11  -3    4.10    4.00
   7  11   3    3.30    4.50
   7  11   3   14.60    4.80
   7  11   3    2.90    4.70
  -8 -11  -3   -2.20    3.70
  -8 -11  -3    6.10    4.50
   8  11   3    8.40    4.30
   8  11   3    2.40    4.70
   8  11   3    1.80    5.00
  -9 -11  -3    4.00    3.20
  -9 -11  -3    0.30    3.00
   9  11   3   -2.30    3.20
   9  11   3    1.70    5.40
   9  11   3   -1.00    3.10
 -10 -11  -3   -6.90    3.80
 -10 -11  -3    1.10    4.20
  10  11   3  -15.70    4.30
  10  11   3   -6.60    4.30
  10  11   3    0.10    3.30
 -11 -11  -3    5.20    5.70
 -11 -11  -3    5.90    4.40
  11  11   3   12.60    5.60
  11  11   3   -6.50    6.80
  11  11   3   11.40    6.40
 -12 -11  -3    2.70    4.30
  -2 -12  -3    1.70    3.30
  -2 -12  -3    3.20    4.40
   2  12   3   -3.30    4.70
  -3 -12  -3    0.60    2.80
  -3 -12  -3    4.50    4.40
  -3 -12  -3  -23.80   23.90
   3  12   3   -1.70    3.60
  -4 -12  -3    1.90    4.40
  -4 -12  -3    2.80    3.20
  -4 -12  -3  -34.40   21.20
   4  12   3   -2.70    4.50
   4  12   3    3.70    5.00
  -5 -12  -3    5.80   19.90
  -5 -12  -3   20.50    5.00
  -5 -12  -3   19.40    5.00
   5  12   3   33.00    7.60
   5  12   3   26.80    6.60
  -6 -12  -3   19.20    4.90
  -6 -12  -3   17.50    5.40
  -6 -12  -3   31.00   12.40
   6  12   3   14.60    6.50
   6  12   3   17.40    6.70
  -7 -12  -3   10.60    5.10
  -7 -12  -3    3.50    3.60
  -7 -12  -3   26.00   13.00
   7  12   3    6.10    5.10
   7  12   3    3.80    3.90
  -8 -12  -3    1.40   11.20
  -8 -12  -3    2.10    4.10
  -8 -12  -3   -1.40    4.50
   8  12   3   -8.10    4.20
   8  12   3    9.20    4.40
   8  12   3   -4.20    4.50
  -9 -12  -3    3.20    4.60
  -9 -12  -3   -1.60    4.60
   9  12   3    4.50    5.60
   9  12   3   -6.80    4.90
   9  12   3    3.40    4.30
 -10 -12  -3   -4.00    4.60
 -10 -12  -3   -4.30    2.80
  10  12   3   -0.60    5.70
  10  12   3    3.90    5.30
  10  12   3  -14.00    4.90
 -11 -12  -3   -5.40    4.80
  -4 -13  -3   -8.10    4.00
   4  13   3    2.40    5.80
  -5 -13  -3    1.30    3.50
  -5 -13  -3    4.70    4.00
   5  13   3   -0.10    4.20
  -6 -13  -3    9.10    5.60
  -6 -13  -3    2.30    5.00
   6  13   3    1.30    3.90
   6  13   3    0.30    5.70
  -7 -13  -3    4.50    5.10
  -7 -13  -3    1.90    5.10
   7  13   3    3.50    4.40
  -8 -13  -3   -3.00    3.30
  -8 -13  -3   -6.50    4.00
   8  13   3   -1.20    5.50
  -9 -13  -3    7.00    6.10
   9  13   3    7.80    5.60
   9  12  -4   -3.30    6.00
   8  12  -4  -14.30    5.20
   8  12  -4    3.70    6.00
   7  12  -4   -3.50    4.50
   7  12  -4   -2.30    4.60
  -7 -12   4   -8.30    3.30
   6  12  -4   -4.30    5.40
   6  12  -4    1.10    5.20
   6  12  -4   -1.70    3.90
  -6 -12   4   -4.10    3.40
   5  12  -4   15.60    7.00
   5  12  -4    8.30    5.60
  -5 -12   4    8.00    4.20
  -4 -12   4   41.90    6.60
  -3 -12   4    8.90    4.30
   9  11  -4    4.60    6.20
   9  11  -4   -0.70    5.50
   9  11  -4    2.20    3.50
  -9 -11   4    2.80    4.40
   8  11  -4   -1.00    4.80
   8  11  -4   -5.00    4.80
   8  11  -4   -3.20    4.30
  -8 -11   4   -0.70    4.10
   7  11  -4    6.00    6.20
   7  11  -4    8.70    5.40
   7  11  -4   16.10    5.20
  -7 -11   4    6.20    4.50
  -7 -11   4    8.10    3.60
   6  11  -4    2.70    4.70
   6  11  -4    7.70    5.30
   6  11  -4    3.40    5.80
  -6 -11   4   13.10    4.70
  -6 -11   4    7.60    4.20
   5  11  -4    2.20    4.10
   5  11  -4    2.30    3.90
   5  11  -4   -4.80    5.10
  -5 -11   4   -0.40    2.80
  -5 -11   4   -2.10    3.00
   4  11  -4   -5.90    2.80
   4  11  -4    1.60    3.20
   4  11  -4    2.10    3.50
   4  11  -4    0.20    4.30
  -4 -11   4    3.70    3.20
  -4 -11   4    1.50    3.80
   3  11  -4    6.00    4.80
   3  11  -4   10.90    6.90
   3  11  -4   10.20    4.40
   3  11  -4    4.70    3.90
  -3 -11   4    5.40    3.70
  -3 -11   4    7.40    3.70
   2  11  -4   -9.70    5.00
   2  11  -4   -3.50    4.10
   2  11  -4    5.40    5.30
  -2 -11   4    3.80    4.60
  -2 -11   4   -4.70    3.90
   1  11  -4   -0.70    5.90
   1  11  -4   -0.30    4.80
   1  11  -4    2.80    5.00
  -1 -11   4    5.80    4.90
   0  11  -4    0.10    5.40
  11  10  -4   15.70    5.30
  10  10  -4    2.10    4.90
  10  10  -4    6.00    4.70
 -10 -10   4    1.30    3.80
   9  10  -4   -1.10    3.30
   9  10  -4   -6.00    4.10
   9  10  -4   -0.30    4.00
  -9 -10   4   -1.50    2.50
   8  10  -4   -2.70    4.20
   8  10  -4    1.60    5.00
  -8 -10   4    2.50    3.70
   7  10  -4   39.20    7.80
   7  10  -4   43.70    8.90
   7  10  -4   45.10    7.50
  -7 -10   4   41.30    6.90
  -7 -10   4   47.60    6.30
   6  10  -4   -0.30    2.40
   6  10  -4    3.90    4.50
   6  10  -4   -1.20    3.30
   6  10  -4    1.30    3.50
  -6 -10   4    2.50    3.20
  -6 -10   4    0.50    3.10
   5  10  -4    0.80    2.60
   5  10  -4   -1.80    4.40
   5  10  -4   -0.40    3.20
   5  10  -4   -2.30    2.40
  -5 -10   4   -2.30    2.10
  -5 -10   4   -2.10    2.50
  -5 -10   4   -8.10    2.30
   4  10  -4   -1.90    3.50
   4  10  -4    2.10    2.70
   4  10  -4   -3.10    3.60
   4  10  -4    1.20    3.50
  -4 -10   4   -2.80    3.20
  -4 -10   4    1.30    3.10
  -4 -10   4   -4.00    2.70
   3  10  -4   35.20    6.40
   3  10  -4   45.00    8.60
   3  10  -4   38.10    6.90
   3  10  -4   49.40    7.70
  -3 -10   4   35.30    6.10
  -3 -10   4   44.30    5.80
   2  10  -4   12.70    4.70
   2  10  -4   11.60    5.10
   2  10  -4    6.80    5.20
   2  10  -4   20.20    5.10
  -2 -10   4   14.00    4.50
  -2 -10   4   26.10    5.70
   1  10  -4    0.20    2.80
   1  10  -4    1.20    3.20
   1  10  -4   -8.60    3.80
  -1 -10   4    5.40    6.50
  -1 -10   4    2.00    2.80
  -1 -10   4   -1.40    2.50
   0  10  -4    2.50    4.10
   0  10  -4    0.80    5.00
   0  10  -4   -1.00    3.00
   0 -10   4   -1.20    2.60
   0 -10   4   -0.90    2.70
  -1  10  -4    5.60    4.70
  -1  10  -4   -4.90    3.70
  -1  10  -4    8.30    5.00
   1 -10   4    7.50    5.40
   1 -10   4    2.40    3.10
  -2  10  -4    4.30    4.10
   2 -10   4   -7.30    4.40
  12   9  -4   14.80    6.90
  11   9  -4    1.50    4.20
  11   9  -4   11.00    5.20
  11   9  -4   -7.90    5.40
 -11  -9   4    3.00    4.40
  10   9  -4   33.90    9.20
  10   9  -4   36.70    6.80
 -10  -9   4   46.00    6.40
   9   9  -4   -3.80    3.70
   9   9  -4    2.70    5.00
   9   9  -4    2.70    3.90
  -9  -9   4   -0.80    3.10
   8   9  -4   12.60    5.80
   8   9  -4   13.10    5.10
   8   9  -4    3.60    3.10
  -8  -9   4    3.00    3.20
   7   9  -4   -1.50    3.50
   7   9  -4   16.00    4.70
   7   9  -4    0.60    4.00
  -7  -9   4    5.00    3.40
  -7  -9   4   10.50    4.50
   6   9  -4    9.00    4.30
   6   9  -4    2.60    3.80
   6   9  -4    1.70    4.00
   6   9  -4    3.60    3.10
  -6  -9   4   -2.00    2.70
  -6  -9   4    2.00    2.10
  -6  -9   4   -1.00    2.00
   5   9  -4   11.80    4.60
   5   9  -4   10.00    3.80
   5   9  -4   11.60    3.70
   5   9  -4    4.70    3.20
  -5  -9   4    5.00    3.00
  -5  -9   4    6.50    3.40
  -5  -9   4   14.80    4.30
   4   9  -4    3.40    3.30
   4   9  -4    2.80    3.40
   4   9  -4    1.20    3.40
   4   9  -4   -0.30    3.00
  -4  -9   4    0.90    3.00
  -4  -9   4    2.50    3.10
  -4  -9   4   -1.90    2.20
   3   9  -4    1.90    2.50
   3   9  -4    1.20    2.60
   3   9  -4    7.90    3.90
   3   9  -4    8.90    4.90
  -3  -9   4    5.00    3.60
  -3  -9   4    0.70    2.80
   2   9  -4    0.30    2.70
   2   9  -4    5.90    3.70
   2   9  -4    0.60    3.20
   2   9  -4    2.40    3.20
  -2  -9   4    3.60    2.40
  -2  -9   4   -2.80    6.50
  -2  -9   4    0.20    3.40
   1   9  -4    3.00    3.10
   1   9  -4    2.30    4.40
   1   9  -4    1.60    3.20
   1   9  -4   -4.60    3.20
  -1  -9   4    1.50    2.50
  -1  -9   4    1.80    6.40
  -1  -9   4    0.80    3.50
   0   9  -4   10.80    4.90
   0   9  -4    1.60    4.70
   0   9  -4    8.40    3.90
   0   9  -4   -4.10    3.10
   0  -9   4   11.30    4.60
   0  -9   4    4.60    3.80
  -1   9  -4   -0.10    4.40
  -1   9  -4    6.60    3.90
  -1   9  -4    6.00    4.20
   1  -9   4    6.70    4.20
   1  -9   4    4.40    4.20
  -2   9  -4    0.90    3.20
  -2   9  -4   10.80    5.70
  -2   9  -4   -3.20    4.60
   2  -9   4   -1.50    4.20
   2  -9   4   -3.20    3.70
  -3   9  -4    0.90    4.50
  -3   9  -4   -1.70    3.90
  -3   9  -4    4.70    5.20
   3  -9   4    1.00    4.70
  12   8  -4    5.50    6.20
  11   8  -4    1.10    5.80
  11   8  -4    5.20    4.40
  11   8  -4   14.40    4.90
 -11  -8   4    2.00    3.60
  10   8  -4    4.60    4.00
  10   8  -4    8.10    3.80
  10   8  -4    5.80    5.40
 -10  -8   4   -1.80    2.80
   9   8  -4   58.59    7.70
   9   8  -4   49.99    8.90
   9   8  -4   32.30    5.80
  -9  -8   4   50.69    6.10
   8   8  -4   95.39    8.30
   8   8  -4   98.19    9.50
   8   8  -4   93.89   10.70
  -8  -8   4   97.79    7.30
   7   8  -4   33.20    5.60
   7   8  -4   31.80    5.00
   7   8  -4   38.40    7.60
   7   8  -4   36.00    6.20
  -7  -8   4   43.80    6.50
  -7  -8   4   31.20    4.80
  -7  -8   4   40.60    4.80
   6   8  -4    6.00    3.80
   6   8  -4    2.40    2.70
   6   8  -4    9.30    5.00
   6   8  -4    5.80    3.40
  -6  -8   4    8.80    3.40
  -6  -8   4    9.10    4.10
  -6  -8   4    5.40    2.60
   5   8  -4   -1.00    2.60
   5   8  -4    0.10    2.40
   5   8  -4   -2.80    2.90
   5   8  -4    2.80    2.80
  -5  -8   4   -0.20    2.30
  -5  -8   4    0.30    2.80
  -5  -8   4    0.50    2.80
   4   8  -4    6.50    3.20
   4   8  -4    5.80    3.70
   4   8  -4    4.20    2.40
   4   8  -4    2.60    2.90
  -4  -8   4    5.80    3.20
  -4  -8   4    6.00    3.10
  -4  -8   4    3.90    2.50
   3   8  -4   -2.30    1.40
   3   8  -4    3.00    3.40
   3   8  -4    2.10    2.70
   3   8  -4   -2.10    2.50
  -3  -8   4   -1.00    2.20
  -3  -8   4    3.60    2.90
   2   8  -4  201.18   11.10
   2   8  -4  212.58   11.90
   2   8  -4  183.88   12.60
   2   8  -4  209.38   13.80
  -2  -8   4  208.88   18.40
  -2  -8   4  186.48    9.60
  -2  -8   4  200.88   10.20
   1   8  -4   96.39    8.00
   1   8  -4   88.99    8.70
   1   8  -4   97.79    8.10
   1   8  -4  100.79   10.30
  -1  -8   4  110.69   13.60
  -1  -8   4   90.99    7.10
  -1  -8   4  100.39    7.60
   0   8  -4   81.59    7.80
   0   8  -4   84.89    8.50
   0   8  -4   57.09    8.00
   0  -8   4   68.99   11.90
   0  -8   4   79.89    7.00
   0  -8   4   73.09    7.20
  -1   8  -4    6.80    4.10
  -1   8  -4    6.30    4.50
  -1   8  -4    0.50    3.90
   1  -8   4    1.90    3.40
   1  -8   4    4.20    5.80
   1  -8   4   -1.00    2.90
  -2   8  -4    3.70    4.20
  -2   8  -4    7.40    4.40
  -2   8  -4   -3.90    3.70
   2  -8   4    0.80    2.80
   2  -8   4    2.10    3.90
  -3   8  -4    6.30    5.20
  -3   8  -4   12.80    5.70
  -3   8  -4    1.00    4.10
   3  -8   4    9.30    4.00
   3  -8   4    9.40    3.90
  -4   8  -4   -2.70    4.30
  -4   8  -4    1.40    4.10
  -4   8  -4   -2.10    4.00
   4  -8   4    2.30    4.70
   4  -8   4    3.60    3.70
  12   7  -4   30.60    8.40
  12   7  -4   13.80    7.40
 -12  -7   4   10.80    5.10
  11   7  -4    0.20    3.80
  11   7  -4    4.60    3.90
  11   7  -4    2.30    3.90
 -11  -7   4   -4.20    3.00
  10   7  -4   -1.10    4.60
  10   7  -4    3.70    4.60
  10   7  -4   -3.00    3.00
 -10  -7   4   -4.50    2.60
   9   7  -4   13.50    5.90
   9   7  -4    9.70    3.70
   9   7  -4   17.60    4.70
  -9  -7   4   10.40    3.60
   8   7  -4    8.40    3.20
   8   7  -4   16.70    4.10
   8   7  -4   13.70    5.50
  -8  -7   4   12.50    3.60
   7   7  -4    3.80    4.20
   7   7  -4    1.40    2.50
   7   7  -4    3.80    2.80
  -7  -7   4   -1.40    2.10
  -7  -7   4    1.40    3.70
  -7  -7   4   -0.10    2.30
   6   7  -4    0.00    3.30
   6   7  -4   -2.70    2.50
   6   7  -4    2.40    2.40
   6   7  -4   -1.50    2.70
  -6  -7   4   -0.40    3.00
  -6  -7   4    2.10    2.50
  -6  -7   4   -1.30    1.70
   5   7  -4    3.10    3.10
   5   7  -4    4.20    2.90
   5   7  -4    0.90    2.30
   5   7  -4    1.80    2.10
  -5  -7   4   -0.80    2.00
  -5  -7   4    1.90    1.70
  -5  -7   4    0.40    2.50
   4   7  -4    2.30    3.00
   4   7  -4   -1.40    2.70
   4   7  -4   -0.20    1.70
  -4  -7   4    1.30    2.40
  -4  -7   4   -1.10    1.50
  -4  -7   4    1.90    2.90
   3   7  -4    2.50    3.00
   3   7  -4    6.30    3.00
   3   7  -4    1.20    2.20
   3   7  -4    9.90    4.00
  -3  -7   4    5.90    2.70
  -3  -7   4    4.50    2.30
  -3  -7   4    2.80    1.40
   2   7  -4   -1.20    2.10
   2   7  -4    0.90    1.90
   2   7  -4    0.40    2.70
   2   7  -4    1.20    2.70
  -2  -7   4   -2.50    1.30
  -2  -7   4   -0.90    2.20
   1   7  -4   73.99    7.80
   1   7  -4   69.79    6.90
   1   7  -4   77.99    6.20
  -1  -7   4   68.19    5.50
  -1  -7   4   78.79   11.80
  -1  -7   4   74.39    5.90
   0   7  -4   92.39    8.60
   0   7  -4   86.79    7.90
   0   7  -4   85.09    7.20
   0   7  -4   76.09    7.00
   0  -7   4   89.19    7.00
   0  -7   4   85.89    6.50
   0  -7   4   58.69   11.40
  -1   7  -4  277.17   14.40
  -1   7  -4  267.67   13.90
  -1   7  -4  264.67   13.30
  -1   7  -4  277.97   15.80
   1  -7   4  291.87   20.80
   1  -7   4  286.87   12.60
   1  -7   4  275.07   12.70
  -2   7  -4   -1.90    2.10
  -2   7  -4    5.40    3.40
  -2   7  -4    0.50    3.30
  -2   7  -4    4.70    3.80
   2  -7   4  -15.20    7.10
   2  -7   4    5.40    3.60
   2  -7   4   -3.10    2.90
  -3   7  -4    5.80    4.00
  -3   7  -4   12.20    3.90
  -3   7  -4    1.60    3.10
   3  -7   4    1.80    3.70
   3  -7   4    6.60    4.20
  -4   7  -4   14.10    5.00
  -4   7  -4   12.20    4.30
  -4   7  -4   29.60    6.70
   4  -7   4   18.30    5.20
   4  -7   4   16.20    5.30
  -5   7  -4    6.70    5.10
  -5   7  -4    6.40    4.60
   5  -7   4    6.10    3.90
   5  -7   4   18.80    6.00
  12   6  -4   -0.70    4.90
  12   6  -4   16.80    7.00
  12   6  -4    4.60    4.50
 -12  -6   4    3.00    4.00
  11   6  -4    8.00    5.50
  11   6  -4    0.20    5.20
  11   6  -4    0.80    3.20
 -11  -6   4   -0.10    3.00
  10   6  -4    6.60    4.00
  10   6  -4   -4.00    4.40
  10   6  -4    4.60    3.50
 -10  -6   4    2.00    3.10
   9   6  -4    8.90    4.50
   9   6  -4    8.80    3.80
   9   6  -4    8.70    4.50
  -9  -6   4    3.60    2.90
  -9  -6   4    4.40    3.30
   8   6  -4   78.39    6.90
   8   6  -4   76.59    6.00
   8   6  -4   69.29    8.90
   8   6  -4   82.09    7.00
  -8  -6   4   83.09    6.20
  -8  -6   4   82.89    5.40
   7   6  -4   89.99    6.80
   7   6  -4   87.39    9.20
   7   6  -4   82.09    5.90
   7   6  -4   86.59    7.10
  -7  -6   4   72.29    5.60
  -7  -6   4   81.99    5.00
  -7  -6   4   76.19    5.10
   6   6  -4   46.60    5.30
   6   6  -4   58.39    5.70
   6   6  -4   39.40    6.70
   6   6  -4   44.50    4.70
  -6  -6   4   57.69    4.60
  -6  -6   4   43.50    4.60
  -6  -6   4   37.60    4.90
  -6  -6   4   43.80    3.50
  -6  -6   4   40.40    5.80
   5   6  -4   74.19    6.00
   5   6  -4   67.59    5.30
   5   6  -4   65.89    7.70
   5   6  -4   71.79    6.90
  -5  -6   4   67.09    5.30
  -5  -6   4   73.99    4.80
  -5  -6   4   68.19    5.90
  -5  -6   4   71.19    5.30
   4   6  -4   80.69    7.20
   4   6  -4   76.49    7.50
   4   6  -4   80.09    6.10
  -4  -6   4   75.39    5.10
  -4  -6   4   67.69    4.70
  -4  -6   4   74.79    5.10
  -4  -6   4   72.89    5.60
   3   6  -4    7.50    2.40
   3   6  -4    5.20    3.10
   3   6  -4    3.80    2.30
   3   6  -4    2.40    2.00
  -3  -6   4    6.70    2.20
  -3  -6   4    5.70    2.40
  -3  -6   4    6.50    1.40
   2   6  -4   -0.10    1.90
   2   6  -4   -0.90    2.20
   2   6  -4   -4.10    2.00
   2   6  -4    1.60    2.20
   2   6  -4    0.20    1.40
  -2  -6   4    0.50    2.00
  -2  -6   4    1.70    1.40
  -2  -6   4    0.40    1.80
   1   6  -4    3.80    2.00
   1   6  -4    7.90    2.30
   1   6  -4    2.90    2.70
   1   6  -4    2.50    2.30
  -1  -6   4    2.90    1.80
  -1  -6   4    0.60    3.90
  -1  -6   4    3.60    2.50
   0   6  -4   -3.70    2.30
   0   6  -4   -1.20    1.50
   0   6  -4    0.20    2.30
   0   6  -4   -2.60    1.70
   0  -6   4   -0.60    1.70
   0  -6   4   -3.70    4.00
   0  -6   4    0.20    2.30
  -1   6  -4   57.09    5.50
  -1   6  -4   57.99    6.00
  -1   6  -4   47.50    6.90
  -1   6  -4   69.89    6.30
   1  -6   4   74.19    6.10
   1  -6   4   51.49    5.10
  -2   6  -4    5.60    3.70
  -2   6  -4    5.80    2.90
  -2   6  -4    5.80    3.70
  -2   6  -4    9.00    3.30
   2  -6   4    0.00    6.20
   2  -6   4    7.10    2.80
   2  -6   4    5.50    2.80
  -3   6  -4    5.30    4.10
  -3   6  -4    2.40    2.80
  -3   6  -4    4.80    3.40
  -3   6  -4    3.90    3.50
   3  -6   4    5.30    2.90
   3  -6   4    2.20    3.60
  -4   6  -4    0.10    3.20
  -4   6  -4    7.40    4.50
  -4   6  -4    3.30    4.40
  -4   6  -4    7.40    4.30
   4  -6   4    5.90    3.10
   4  -6   4    6.20    4.30
   4  -6   4    8.20    3.60
  -5   6  -4   -0.70    4.00
  -5   6  -4    0.70    3.40
  -5   6  -4    1.90    4.00
  -5   6  -4    1.00    3.40
   5  -6   4   -2.90    5.00
   5  -6   4   -1.10    3.90
   5  -6   4   -0.50    4.00
  -6   6  -4   -6.20    3.80
  -6   6  -4   -3.60    4.80
   6  -6   4   -1.80    3.00
   6  -6   4   -3.60    4.40
   6  -6   4   -1.00    4.30
  12   5  -4   -8.30    5.50
  12   5  -4    2.30    4.90
  12   5  -4    5.00    4.00
 -12  -5   4    6.10    4.50
 -12  -5   4    1.50    4.00
  11   5  -4   -0.90    3.40
  11   5  -4    1.10    3.40
  11   5  -4    4.90    6.00
 -11  -5   4    2.00    3.60
 -11  -5   4   -1.40    2.90
  10   5  -4    2.30    4.70
  10   5  -4    5.40    5.20
  10   5  -4    2.30    2.30
 -10  -5   4   -1.90    2.90
 -10  -5   4    4.30    3.30
   9   5  -4   14.60    4.00
   9   5  -4   10.80    5.40
   9   5  -4   12.90    4.60
  -9  -5   4   15.20    3.70
  -9  -5   4   20.50    3.80
   8   5  -4   -2.00    1.90
   8   5  -4    2.10    2.70
   8   5  -4    2.00    3.60
   8   5  -4   -3.40    2.30
   8   5  -4    3.10    2.20
  -8  -5   4    3.00    2.50
  -8  -5   4    5.00    2.10
  -8  -5   4    2.90    2.60
   7   5  -4    0.50    2.00
   7   5  -4    1.00    2.50
   7   5  -4   -0.80    1.80
   7   5  -4    3.50    4.10
  -7  -5   4    2.30    2.10
  -7  -5   4    2.20    2.00
  -7  -5   4    0.30    2.10
   6   5  -4  179.78   12.50
   6   5  -4  200.48   10.00
   6   5  -4  203.78    8.10
   6   5  -4  190.98    9.10
   6   5  -4  204.08    8.60
  -6  -5   4  189.98   10.10
  -6  -5   4  192.68    8.80
  -6  -5   4  200.38    7.80
  -6  -5   4  192.58    7.60
  -6  -5   4  202.28    8.40
   5   5  -4   68.39    6.00
   5   5  -4   73.69    7.40
   5   5  -4   70.99    5.30
   5   5  -4   73.09    4.40
   5   5  -4   77.09    5.10
  -5  -5   4   78.89    4.80
  -5  -5   4   77.19    6.10
  -5  -5   4   71.99    5.00
  -5  -5   4   76.49    4.30
  -5  -5   4   70.29    4.20
   4   5  -4   49.90    4.00
   4   5  -4   49.60    5.30
   4   5  -4   52.59    4.40
   4   5  -4   54.09    3.70
   4   5  -4   59.19    6.30
  -4  -5   4   54.39    3.70
  -4  -5   4   60.19    4.70
  -4  -5   4   55.09    4.00
  -4  -5   4   51.29    4.10
  -4  -5   4   54.59    3.50
   3   5  -4    4.50    2.00
   3   5  -4    3.90    2.10
   3   5  -4    2.10    1.80
   3   5  -4    3.80    2.90
   3   5  -4    2.50    1.60
   3   5  -4    4.00    1.10
  -3  -5   4    5.20    1.80
  -3  -5   4    7.50    2.20
  -3  -5   4    3.40    1.80
   2   5  -4   39.10    3.70
   2   5  -4   25.20    4.00
   2   5  -4   30.30    3.70
   2   5  -4   34.40    3.00
   2   5  -4   43.70    3.30
  -2  -5   4   35.40    3.60
  -2  -5   4   35.80    3.50
  -2  -5   4   32.00    3.20
  -2  -5   4   38.10    3.00
   1   5  -4   11.90    3.20
   1   5  -4   12.50    2.30
   1   5  -4   13.30    2.70
   1   5  -4    9.80    2.30
  -1  -5   4   13.60    2.80
  -1  -5   4   18.50    2.80
   0   5  -4   10.50    2.50
   0   5  -4    5.60    2.80
   0   5  -4    5.70    2.50
   0   5  -4    9.00    2.50
   0  -5   4    9.40    3.60
   0  -5   4    8.50    2.50
   0  -5   4    7.80    2.30
   0  -5   4   11.70    2.60
  -1   5  -4  193.58   11.00
  -1   5  -4  182.78    9.40
  -1   5  -4  182.28   12.50
  -1   5  -4  194.68    9.40
  -1   5  -4  172.78    9.80
   1  -5   4  195.78    8.10
   1  -5   4  191.58   14.10
   1  -5   4  196.38    8.80
   1  -5   4  196.38    9.00
  -2   5  -4    2.70    2.30
  -2   5  -4   -0.40    2.10
  -2   5  -4    5.90    2.60
  -2   5  -4   -0.80    1.90
   2  -5   4    2.80    2.60
   2  -5   4    4.50    5.00
   2  -5   4    7.90    3.10
  -3   5  -4   49.10    6.30
  -3   5  -4   36.30    5.70
  -3   5  -4   29.30    5.70
  -3   5  -4   40.10    5.70
   3  -5   4   39.90    6.50
   3  -5   4   43.80    5.30
   3  -5   4   39.90    5.20
  -4   5  -4   -1.60    3.20
  -4   5  -4    2.20    3.40
  -4   5  -4   -5.00    1.90
  -4   5  -4    1.40    3.50
   4  -5   4   -2.10    4.40
   4  -5   4   -0.20    2.10
   4  -5   4    1.40    2.50
  -5   5  -4   18.70    4.70
  -5   5  -4   10.50    4.30
  -5   5  -4   19.50    5.20
  -5   5  -4   14.40    4.20
   5  -5   4   28.40    7.20
   5  -5   4   16.60    4.70
   5  -5   4   13.70    4.70
  -6   5  -4    0.40    4.40
  -6   5  -4   -1.70    3.70
  -6   5  -4   -1.50    3.90
   6  -5   4    0.40    4.00
   6  -5   4   -0.40    2.90
   6  -5   4   -0.30    3.80
  -7   5  -4    9.40    6.10
  -7   5  -4    4.70    5.00
   7  -5   4    9.50    5.20
   7  -5   4    2.70    3.40
   7  -5   4   11.40    6.20
  12   4  -4   -9.10    5.00
  12   4  -4   -3.90    3.30
  12   4  -4    4.50    7.40
 -12  -4   4    0.50    3.90
 -12  -4   4   -6.70    4.20
  11   4  -4   -0.30    4.80
  11   4  -4    0.20    5.40
  11   4  -4    2.60    3.60
 -11  -4   4   -5.60    3.50
 -11  -4   4    0.80    3.20
  10   4  -4   -5.80    4.10
  10   4  -4    0.70    4.80
  10   4  -4    1.40    3.00
 -10  -4   4    5.60    3.90
 -10  -4   4   -0.20    2.70
   9   4  -4   -1.10    2.40
   9   4  -4   -2.30    2.60
   9   4  -4    2.90    4.60
  -9  -4   4    1.70    2.50
  -9  -4   4    0.40    2.80
   8   4  -4    2.80    2.30
   8   4  -4    2.00    3.70
   8   4  -4    2.60    2.60
   8   4  -4    3.70    3.90
  -8  -4   4    6.60    2.40
  -8  -4   4    3.40    2.30
  -8  -4   4    7.80    3.10
   7   4  -4  203.48    8.70
   7   4  -4  241.18   14.50
   7   4  -4  195.88   13.40
   7   4  -4  218.38    9.20
   7   4  -4  195.08    9.30
  -7  -4   4  216.18    9.30
  -7  -4   4  219.48    8.20
  -7  -4   4  223.78    9.00
  -7  -4   4  218.68    9.50
   6   4  -4  168.28    5.70
   6   4  -4  155.68    7.80
   6   4  -4  163.08    7.10
   6   4  -4  154.68    7.80
   6   4  -4  160.98    6.70
   6   4  -4  139.69   10.50
  -6  -4   4  158.58    7.40
  -6  -4   4  151.58    7.10
  -6  -4   4  157.28    6.90
  -6  -4   4  159.08    6.50
   5   4  -4   81.09    7.80
   5   4  -4   76.59    5.50
   5   4  -4   71.89    2.80
   5   4  -4   72.09    2.70
   5   4  -4   71.19    4.00
   5   4  -4   85.29    4.70
  -5  -4   4   75.49    4.00
  -5  -4   4   75.29    5.80
  -5  -4   4   81.39    4.70
  -5  -4   4   76.29    4.70
  -5  -4   4   80.79    4.50
   4   4  -4   59.89    3.60
   4   4  -4   62.39    3.90
   4   4  -4   53.39    4.90
   4   4  -4   60.59    4.20
   4   4  -4   60.09    2.40
   4   4  -4   59.49    6.10
  -4  -4   4   62.29    3.80
  -4  -4   4   57.09    3.70
  -4  -4   4   55.89    3.40
  -4  -4   4   61.29    4.00
  -4  -4   4   64.09    4.70
   3   4  -4    3.50    1.00
   3   4  -4    1.40    1.10
   3   4  -4    2.90    1.60
   3   4  -4    1.30    1.80
   3   4  -4    4.80    2.10
  -3  -4   4    0.80    1.50
  -3  -4   4    3.20    1.70
  -3  -4   4    3.70    1.60
  -3  -4   4    3.90    1.50
   2   4  -4    2.10    1.30
   2   4  -4    3.10    1.60
   2   4  -4   -0.10    0.90
   2   4  -4   -0.80    1.20
   2   4  -4    0.40    1.30
  -2  -4   4   -1.40    1.10
  -2  -4   4    1.80    1.00
  -2  -4   4    1.70    1.60
  -2  -4   4    0.60    1.50
  -2  -4   4   -0.10    1.30
   1   4  -4  553.24   16.10
   1   4  -4  477.85   26.60
   1   4  -4  513.85   16.10
   1   4  -4  566.34   15.60
   1   4  -4  549.35   19.60
   1   4  -4  553.24   17.50
  -1  -4   4  557.44   16.70
  -1  -4   4  536.15   15.10
  -1  -4   4  558.84   17.30
  -1  -4   4  551.34   15.50
  -1  -4   4  553.34   15.90
   0   4  -4  122.99    8.80
   0   4  -4  105.89    5.90
   0   4  -4  105.89    5.50
   0   4  -4  107.19    7.60
   0   4  -4  102.39    5.90
   0   4  -4  117.29    6.50
   0  -4   4  109.49    5.60
   0  -4   4  124.59    6.10
   0  -4   4  106.19    5.50
   0  -4   4  119.29    5.90
  -1   4  -4  105.59    7.30
  -1   4  -4   98.89    6.00
  -1   4  -4   83.69    6.00
  -1   4  -4  104.09    7.70
  -1   4  -4   92.89    5.60
   1  -4   4   96.69    5.70
   1  -4   4   86.69    5.10
   1  -4   4   96.39    5.10
   1  -4   4  103.79    8.20
  -3   4  -4   20.50    4.20
  -3   4  -4   20.00    4.30
  -3   4  -4   13.70    3.80
  -3   4  -4   18.90    4.40
   3  -4   4   15.50    4.20
   3  -4   4   17.40    3.80
   3  -4   4   13.20    4.30
   3  -4   4   22.50    3.00
   3  -4   4   17.10    4.00
  -4   4  -4   -0.80    2.10
  -4   4  -4   -0.90    2.10
  -4   4  -4   -1.40    2.00
  -4   4  -4   -3.30    3.10
   4  -4   4   -4.00    2.50
   4  -4   4    0.10    2.80
   4  -4   4    0.50    3.50
   4  -4   4   -0.60    1.90
  -5   4  -4    4.80    3.10
  -5   4  -4   10.10    4.20
  -5   4  -4   10.50    4.00
  -5   4  -4   10.60    3.70
   5  -4   4    9.60    3.30
   5  -4   4    5.90    4.10
   5  -4   4    3.00    2.70
  -6   4  -4    8.30    3.90
  -6   4  -4    7.70    4.10
  -6   4  -4    5.40    3.50
  -6   4  -4    6.80    3.80
   6  -4   4    3.30    5.50
   6  -4   4    3.90    3.00
   6  -4   4    5.90    3.20
  -7   4  -4   -1.60    4.30
  -7   4  -4   -5.80    4.00
  -7   4  -4   -2.60    3.70
   7  -4   4    4.30    4.50
   7  -4   4    0.70    5.50
   7  -4   4    2.30    3.00
  -8   4  -4   16.50    6.60
  -8   4  -4    6.70    4.10
   8  -4   4   20.60    6.20
   8  -4   4   -0.40    7.00
   8  -4   4    6.00    4.00
  12   3  -4  -10.80    5.90
 -12  -3   4    5.20    5.30
  11   3  -4   -1.90    5.10
  11   3  -4    7.80    6.50
  11   3  -4   -4.00    2.90
 -11  -3   4    1.40    3.20
 -11  -3   4    9.40    5.00
  10   3  -4    4.60    4.90
  10   3  -4   -0.70    4.90
  10   3  -4    4.40    3.30
 -10  -3   4    2.80    3.00
 -10  -3   4    0.70    3.90
   9   3  -4    7.30    4.60
   9   3  -4    3.00    2.80
   9   3  -4    4.00    4.80
  -9  -3   4    7.70    3.80
  -9  -3   4    7.90    3.10
   8   3  -4    3.00    3.30
   8   3  -4    8.30    2.50
   8   3  -4    7.70    2.90
   8   3  -4    7.00    4.20
  -8  -3   4    5.10    2.70
  -8  -3   4    7.90    3.60
   7   3  -4   -0.70    1.90
   7   3  -4   -0.50    1.10
   7   3  -4    0.20    1.20
   7   3  -4    3.00    2.60
   7   3  -4   -1.00    3.40
   7   3  -4    0.90    2.00
  -7  -3   4   -2.70    2.00
  -7  -3   4   -2.30    2.00
  -7  -3   4   -0.90    2.00
  -7  -3   4   -1.40    1.30
   6   3  -4   94.69    5.10
   6   3  -4  104.29    8.80
   6   3  -4   98.69    5.00
   6   3  -4   97.49    5.10
   6   3  -4   91.99    5.20
   6   3  -4   86.19    5.50
   6   3  -4   95.59    8.30
  -6  -3   4  102.29    5.70
  -6  -3   4   99.89    5.30
  -6  -3   4  102.39    4.80
  -6  -3   4  102.19    5.90
   5   3  -4    0.70    1.40
   5   3  -4   -0.40    1.50
   5   3  -4   -0.40    1.00
   5   3  -4   -0.10    1.10
   5   3  -4    1.10    0.90
   5   3  -4   -0.20    1.30
  -5  -3   4   -1.30    1.00
  -5  -3   4    3.00    1.60
  -5  -3   4   -0.90    1.50
  -5  -3   4    1.90    2.60
   4   3  -4    0.30    1.20
   4   3  -4    3.30    1.40
   4   3  -4    5.00    1.50
   4   3  -4    2.30    2.20
   4   3  -4    3.40    1.20
  -4  -3   4    4.80    2.40
  -4  -3   4    5.70    1.80
  -4  -3   4    1.20    1.60
  -4  -3   4    2.10    1.20
  -4  -3   4    2.60    1.50
   3   3  -4   16.00    2.00
   3   3  -4   17.00    1.70
   3   3  -4   18.40    2.30
   3   3  -4   11.00    2.80
   3   3  -4   13.60    2.60
   3   3  -4   18.00    1.70
  -3  -3   4   19.50    2.10
  -3  -3   4   17.40    2.40
  -3  -3   4   21.30    3.10
  -3  -3   4   17.50    1.90
  -3  -3   4   18.50    2.90
  -3  -3   4   16.50    1.60
  -3  -3   4   20.20    2.10
   2   3  -4  466.55   12.50
   2   3  -4  426.86   12.60
   2   3  -4  427.56   13.40
   2   3  -4  445.56   12.00
   2   3  -4  438.06   15.60
   2   3  -4  431.36   12.30
   2   3  -4  450.85   22.40
  -2  -3   4  433.26   11.60
  -2  -3   4  451.95   12.40
  -2  -3   4  424.86   13.70
  -2  -3   4  424.56   11.90
  -2  -3   4  424.96   12.70
  -2  -3   4  439.26   12.00
   1   3  -4    2.30    1.10
   1   3  -4    0.20    1.20
   1   3  -4    3.00    1.80
   1   3  -4   -0.10    0.90
   1   3  -4   -1.70    1.80
   1   3  -4    0.60    1.10
  -1  -3   4    3.20    1.60
  -1  -3   4    2.60    1.20
  -1  -3   4    1.70    1.10
  -1  -3   4    2.60    1.40
  -1  -3   4    1.90    1.30
   0   3  -4   28.20    3.00
   0   3  -4   32.90    4.10
   0   3  -4   31.60    2.90
   0   3  -4   27.80    2.70
   0  -3   4   27.90    2.70
   0  -3   4   31.20    2.70
   0  -3   4   30.20    3.00
   0  -3   4   30.00    2.60
   0  -3   4   31.50    2.90
  -1   3  -4  737.13   24.20
  -1   3  -4  767.22   20.60
  -1   3  -4  748.63   32.50
  -1   3  -4  723.83   23.90
  -1   3  -4  727.33   20.90
  -1   3  -4  721.93   20.60
   1  -3   4  762.52   20.80
   1  -3   4  727.43   20.10
   1  -3   4  757.82   20.60
   1  -3   4  758.22   20.40
  -2   3  -4    0.50    1.80
  -2   3  -4    0.20    1.70
  -2   3  -4   -1.10    1.20
  -2   3  -4    3.40    2.20
   2  -3   4   -1.10    1.50
   2  -3   4    0.50    1.40
   2  -3   4    2.30    1.90
   2  -3   4   -1.40    1.70
  -3   3  -4   -0.10    2.10
  -3   3  -4    1.50    2.00
  -3   3  -4    1.20    2.10
  -3   3  -4    0.90    1.60
   3  -3   4   -0.80    2.20
   3  -3   4   -0.10    1.50
   3  -3   4   -0.40    1.40
   3  -3   4   -2.10    2.00
  -4   3  -4   -3.60    2.20
  -4   3  -4   -0.20    1.90
  -4   3  -4   -0.90    2.00
  -4   3  -4   -2.10    1.60
   4  -3   4    1.00    2.10
   4  -3   4    1.30    1.70
   4  -3   4    0.00    2.60
   4  -3   4   -3.00    2.20
   4  -3   4   -1.80    1.80
  -5   3  -4    7.00    3.40
  -5   3  -4   10.80    3.40
  -5   3  -4   14.10    3.70
  -5   3  -4    9.10    3.10
   5  -3   4   12.30    3.30
   5  -3   4   17.80    5.50
   5  -3   4    8.30    2.80
   5  -3   4   14.50    4.20
  -6   3  -4   22.90    5.20
  -6   3  -4   14.10    3.80
  -6   3  -4   22.60    4.20
  -6   3  -4   25.30    5.50
   6  -3   4   14.40    4.60
   6  -3   4   17.10    4.20
   6  -3   4   24.00    6.60
  -7   3  -4   45.20    7.20
  -7   3  -4   51.09    7.90
  -7   3  -4   47.80    7.00
   7  -3   4   60.69    7.60
   7  -3   4   58.79    7.40
   7  -3   4   43.40    8.60
  -8   3  -4   22.00    5.40
  -8   3  -4   28.50    6.00
  -8   3  -4   31.10    7.40
   8  -3   4   24.30    5.20
   8  -3   4   37.80    6.30
   8  -3   4   26.70    8.40
  -9   3  -4    1.10    4.70
  -9   3  -4   -6.40    3.40
   9  -3   4    8.70    4.30
   9  -3   4    9.00    5.30
 -12  -2   4    1.80    5.60
  11   2  -4   -7.00    4.20
  11   2  -4    4.70    3.60
  11   2  -4    8.30    5.90
 -11  -2   4    2.20    4.90
 -11  -2   4    4.20    3.70
  10   2  -4    4.20    5.70
  10   2  -4    4.90    3.40
  10   2  -4   -2.90    4.00
 -10  -2   4    3.00    4.40
 -10  -2   4   -3.50    2.50
   9   2  -4   12.00    4.80
   9   2  -4   15.80    3.90
   9   2  -4    4.70    4.90
  -9  -2   4   13.40    3.60
  -9  -2   4   18.10    4.30
   8   2  -4   -1.00    2.80
   8   2  -4    0.60    2.10
   8   2  -4   -2.10    3.00
  -8  -2   4    1.70    2.20
  -8  -2   4    0.40    2.80
   7   2  -4   30.70    3.60
   7   2  -4   16.20    4.40
   7   2  -4   31.40    6.50
   7   2  -4   20.80    3.50
  -7  -2   4   25.20    3.40
  -7  -2   4   31.00    4.10
  -7  -2   4   31.50    3.10
  -7  -2   4   32.10    4.70
   6   2  -4   20.30    2.10
   6   2  -4   20.20    2.60
   6   2  -4   21.40    2.60
   6   2  -4   21.70    3.00
   6   2  -4   13.80    4.10
   6   2  -4   16.90    3.70
  -6  -2   4   20.90    3.40
  -6  -2   4   18.50    2.40
  -6  -2   4   20.70    3.00
  -6  -2   4   20.40    2.90
   5   2  -4   50.39    3.70
   5   2  -4   57.19    3.40
   5   2  -4   56.29    6.00
   5   2  -4   60.29    4.00
   5   2  -4   54.99    4.30
   5   2  -4   61.29    3.70
   5   2  -4   55.59    6.00
   5   2  -4   58.09    3.40
  -5  -2   4   59.59    3.90
  -5  -2   4   57.39    3.10
  -5  -2   4   60.79    3.60
  -5  -2   4   57.79    4.40
   4   2  -4   -1.90    0.90
   4   2  -4    1.00    0.90
   4   2  -4    0.60    1.40
   4   2  -4   -1.10    0.70
   4   2  -4   -0.40    0.80
  -4  -2   4    0.60    1.20
  -4  -2   4   -0.20    0.40
  -4  -2   4   -1.50    1.40
  -4  -2   4   -0.80    1.40
  -4  -2   4   -1.40    1.00
  -4  -2   4    1.20    1.00
  -4  -2   4    0.50    1.10
   3   2  -4  368.16   15.20
   3   2  -4  346.17   10.10
   3   2  -4  357.56    9.50
   3   2  -4  363.26   12.50
   3   2  -4  356.16    9.70
   3   2  -4  354.56    9.30
  -3  -2   4  354.56    9.00
  -3  -2   4  362.16   11.70
  -3  -2   4  350.36   11.10
  -3  -2   4  357.76    9.60
  -3  -2   4  366.26   12.10
  -3  -2   4  359.26    9.20
   2   2  -4    0.10    0.70
   2   2  -4   -0.40    0.80
   2   2  -4   -0.60    0.70
   2   2  -4    1.10    0.70
   2   2  -4   -0.30    1.30
  -2  -2   4    0.80    0.60
  -2  -2   4    1.20    0.60
  -2  -2   4   -0.40    0.70
  -2  -2   4    0.60    0.80
  -2  -2   4   -1.20    1.20
  -2  -2   4   -0.50    1.20
   1   2  -4  183.68    8.20
   1   2  -4  180.58    5.90
   1   2  -4  184.28    5.70
   1   2  -4  185.38    5.60
   1   2  -4  179.98    6.00
   1   2  -4  177.18    6.90
  -1  -2   4  187.98    5.60
  -1  -2   4  171.88    5.80
  -1  -2   4  182.78    6.80
  -1  -2   4  174.58    5.60
  -1  -2   4  174.48    6.90
  -1  -2   4  159.08    5.20
   0   2  -4   36.40    2.50
   0   2  -4   42.10    2.60
   0   2  -4   39.70    2.80
   0   2  -4   40.20    2.70
   0   2  -4   40.80    4.00
   0   2  -4   34.80    2.90
   0  -2   4   40.30    2.70
   0  -2   4   37.10    2.90
   0  -2   4   40.70    3.20
   0  -2   4   35.90    2.40
   0  -2   4   36.70    2.60
   0  -2   4   39.20    2.50
  -1   2  -4    9.10    1.70
  -1   2  -4    5.20    1.60
  -1   2  -4    5.10    1.70
  -1   2  -4    6.60    1.80
  -1   2  -4    5.00    1.70
  -1   2  -4    6.10    1.70
   1  -2   4    6.70    1.80
   1  -2   4    4.90    1.60
   1  -2   4    6.90    1.80
   1  -2   4    7.70    2.00
  -2   2  -4    5.10    1.80
  -2   2  -4   -0.10    1.40
  -2   2  -4    4.20    1.80
  -2   2  -4    1.70    1.60
  -2   2  -4    3.80    1.80
   2  -2   4    3.00    1.60
   2  -2   4    0.80    1.70
   2  -2   4    2.30    1.80
   2  -2   4    5.30    1.90
  -3   2  -4    5.70    1.90
  -3   2  -4    7.10    2.40
  -3   2  -4    4.20    2.30
  -3   2  -4    4.30    1.80
   3  -2   4    3.60    1.60
   3  -2   4    5.40    2.20
   3  -2   4    5.30    2.50
   3  -2   4    4.20    1.70
  -4   2  -4   26.20    4.10
  -4   2  -4   26.70    3.80
  -4   2  -4   23.20    4.00
  -4   2  -4   20.20    3.80
   4  -2   4   24.90    2.80
   4  -2   4   23.00    3.80
   4  -2   4   25.30    4.90
   4  -2   4   25.90    4.00
   4  -2   4   19.70    3.40
  -5   2  -4   10.60    2.90
  -5   2  -4   13.70    3.40
  -5   2  -4   10.30    3.60
  -5   2  -4   12.90    3.60
   5  -2   4   12.70    3.20
   5  -2   4   13.20    2.50
   5  -2   4   12.90    3.90
   5  -2   4   10.60    2.50
   5  -2   4    7.30    3.60
  -6   2  -4   49.80    6.40
  -6   2  -4   73.29    7.00
  -6   2  -4   50.59    5.50
  -6   2  -4   63.29    6.60
   6  -2   4   60.29    7.80
   6  -2   4   63.59    5.90
   6  -2   4   58.39    5.80
  -7   2  -4    1.50    2.00
  -7   2  -4    0.10    2.30
  -7   2  -4    8.30    3.90
  -7   2  -4    5.10    3.80
   7  -2   4   -8.00    4.20
   7  -2   4   -0.80    3.10
   7  -2   4    5.20    3.70
  -8   2  -4   -5.90    2.90
  -8   2  -4   -3.40    3.50
  -8   2  -4   -3.10    3.40
   8  -2   4    8.30    4.50
   8  -2   4    0.50    2.70
   8  -2   4   -0.50    5.40
  -9   2  -4    9.70    5.40
  -9   2  -4   11.80    4.70
  -9   2  -4    4.60    4.60
   9  -2   4   17.70    5.50
   9  -2   4    7.50    5.60
   9  -2   4   15.00    5.50
 -10   2  -4   -4.00    5.40
  11   1  -4   -1.00    3.70
  11   1  -4    1.00    5.50
 -11  -1   4    1.90    3.70
  10   1  -4   -2.00    4.20
  10   1  -4    8.80    3.70
  10   1  -4    2.50    5.50
 -10  -1   4    6.30    3.40
   9   1  -4   26.30    4.60
   9   1  -4   19.40    5.40
   9   1  -4   20.10    6.00
  -9  -1   4   18.60    4.10
   8   1  -4    8.50    4.00
   8   1  -4    6.70    4.90
   8   1  -4   10.10    3.00
  -8  -1   4    7.30    2.80
   7   1  -4    9.50    3.60
   7   1  -4   14.10    3.00
   7   1  -4   10.90    2.60
   7   1  -4   10.50    4.80
  -7  -1   4   11.50    3.10
  -7  -1   4    8.70    2.20
   6   1  -4  144.39    6.30
   6   1  -4  140.99   10.40
   6   1  -4  155.98    6.40
   6   1  -4  141.29    4.50
   6   1  -4  148.79    6.90
   6   1  -4  141.79    9.50
  -6  -1   4  156.98    6.70
  -6  -1   4  152.48    7.00
  -6  -1   4  149.39    8.10
  -6  -1   4  144.89    6.10
   5   1  -4  296.87    9.20
   5   1  -4  291.97    9.50
   5   1  -4  298.97   14.10
   5   1  -4  305.67    9.30
   5   1  -4  295.97    9.80
   5   1  -4  315.27   15.30
   5   1  -4  303.67   11.00
  -5  -1   4  280.07   11.00
  -5  -1   4  295.37    9.40
  -5  -1   4  288.47    8.90
  -5  -1   4  298.27    9.70
   4   1  -4   16.90    2.00
   4   1  -4   17.30    2.80
   4   1  -4    8.40    2.60
   4   1  -4   13.90    1.60
   4   1  -4   13.50    1.60
   4   1  -4   14.80    3.10
   4   1  -4   18.30    2.10
   4   1  -4   15.40    1.60
  -4  -1   4   15.00    2.70
  -4  -1   4   14.60    2.00
  -4  -1   4   12.80    1.50
  -4  -1   4   15.80    2.50
  -4  -1   4   11.60    1.60
  -4  -1   4   15.60    1.70
   3   1  -4  410.86   10.40
   3   1  -4  414.66   12.80
   3   1  -4  411.76   10.10
   3   1  -4  413.76   13.20
   3   1  -4  410.16   10.30
   3   1  -4  413.66   16.20
   3   1  -4  410.66   10.80
  -3  -1   4  405.66   12.70
  -3  -1   4  410.46    9.50
  -3  -1   4  400.96    9.50
  -3  -1   4  422.66   12.60
  -3  -1   4  413.86   10.50
  -3  -1   4  426.16   13.20
   2   1  -4  123.99    3.80
   2   1  -4  129.19    3.60
   2   1  -4  128.99    3.40
   2   1  -4  125.49    3.30
   2   1  -4  129.39    5.90
  -2  -1   4  121.69    3.60
  -2  -1   4  127.29    5.60
  -2  -1   4  144.19    6.10
  -2  -1   4  126.59    3.70
   1   1  -4   17.20    1.10
   1   1  -4   18.20    1.20
   1   1  -4   21.40    2.10
   1   1  -4   19.10    1.20
   1   1  -4   19.70    1.30
   1   1  -4   19.00    2.30
  -1  -1   4   19.60    2.60
  -1  -1   4   16.50    1.20
  -1  -1   4   13.70    1.10
   0   1  -4   56.49    3.60
   0   1  -4   58.19    2.60
   0   1  -4   53.49    2.60
   0   1  -4   58.19    2.80
   0   1  -4   54.49    3.90
   0   1  -4   55.69    2.60
   0  -1   4   58.19    3.50
   0  -1   4   56.39    2.40
   0  -1   4   51.39    2.60
   0  -1   4   57.89    2.70
   0  -1   4   55.99    3.60
  -1   1  -4  101.99    4.30
  -1   1  -4  103.79    4.40
  -1   1  -4   97.59    5.50
  -1   1  -4   99.09    5.60
  -1   1  -4  106.09    4.40
  -1   1  -4  102.39    4.50
  -1   1  -4   97.59    5.40
  -1   1  -4   85.89    5.00
   1  -1   4   99.79    4.30
   1  -1   4   99.59    4.20
   1  -1   4  100.79    4.20
   1  -1   4  105.69    5.30
   1  -1   4  102.79    4.10
  -2   1  -4 1044.60   30.40
  -2   1  -4 1073.69   26.70
  -2   1  -4 1021.30   26.40
  -2   1  -4 1032.20   33.00
  -2   1  -4  990.80   26.50
  -2   1  -4 1037.30   31.30
   2  -1   4 1047.80   26.40
   2  -1   4 1051.79   26.40
   2  -1   4 1084.99   27.60
   2  -1   4 1013.00   26.10
  -3   1  -4   41.70    3.40
  -3   1  -4   45.50    4.30
  -3   1  -4   43.80    4.60
  -3   1  -4   36.30    3.30
  -3   1  -4   46.60    4.20
   3  -1   4   41.60    3.50
   3  -1   4   44.40    3.40
   3  -1   4   39.60    3.40
   3  -1   4   45.00    5.10
   3  -1   4   39.00    3.30
  -4   1  -4  104.09    6.50
  -4   1  -4  106.69    7.20
  -4   1  -4  107.39    6.30
  -4   1  -4  111.99    6.50
   4  -1   4  113.59    5.60
   4  -1   4  100.89    5.90
   4  -1   4  109.79    7.60
   4  -1   4  106.89    5.70
   4  -1   4  108.79    6.00
  -5   1  -4    2.70    2.40
  -5   1  -4    4.80    2.30
  -5   1  -4    3.20    1.90
  -5   1  -4    7.80    2.90
   5  -1   4    6.70    3.70
   5  -1   4    3.20    1.60
   5  -1   4    7.00    2.00
   5  -1   4    6.80    2.90
   5  -1   4    0.60    2.50
  -6   1  -4   -2.10    2.40
  -6   1  -4    0.20    2.30
  -6   1  -4   -4.00    1.30
  -6   1  -4   -0.90    2.60
   6  -1   4    1.40    1.70
   6  -1   4    0.70    2.30
   6  -1   4    0.70    1.70
   6  -1   4   -0.90    3.70
   6  -1   4    0.00    2.00
  -7   1  -4    1.10    2.10
  -7   1  -4   -1.70    2.90
  -7   1  -4   -0.80    2.10
  -7   1  -4    0.50    3.40
   7  -1   4   -0.30    4.20
   7  -1   4   -1.40    3.10
   7  -1   4   -2.50    2.10
  -8   1  -4    5.20    3.20
  -8   1  -4   -4.10    1.90
  -8   1  -4    0.10    2.50
   8  -1   4   -1.30    2.30
   8  -1   4    0.20    3.50
   8  -1   4   -2.90    4.80
  -9   1  -4   -5.00    3.30
  -9   1  -4    4.00    4.10
  -9   1  -4    2.50    4.20
   9  -1   4   -1.40    3.50
   9  -1   4    0.40    4.10
   9  -1   4    1.60    4.60
 -10   1  -4    3.40    4.10
 -10   1  -4    6.20    5.20
 -10   1  -4   13.50    5.90
  10  -1   4   12.60    5.50
  10  -1   4   -1.40    7.20
  10  -1   4    8.50    5.60
  10   0  -4    1.40    3.20
  10   0  -4   -4.30    6.00
 -10   0   4    0.40    3.00
   9   0  -4    2.60    2.90
   9   0  -4    0.80    5.40
   9   0  -4    3.90    4.30
  -9   0   4    5.10    3.20
   8   0  -4    4.00    2.80
   8   0  -4    8.20    4.50
   8   0  -4    3.50    3.80
  -8   0   4    3.80    2.70
   7   0  -4   34.60    6.80
   7   0  -4   37.30    3.70
   7   0  -4   30.60    5.20
   7   0  -4   32.20    4.20
  -7   0   4   35.60    4.20
  -7   0   4   40.50    4.30
   6   0  -4   55.59    6.90
   6   0  -4   52.19    5.80
   6   0  -4   50.69    4.50
   6   0  -4   47.60    3.70
   6   0  -4   44.70    3.70
  -6   0   4   53.39    4.20
  -6   0   4   54.79    4.30
  -6   0   4   52.99    3.80
   5   0  -4  148.89    6.30
   5   0  -4  143.29    6.00
   5   0  -4  157.78    7.40
   5   0  -4  144.19    5.80
   5   0  -4  149.59    9.90
   5   0  -4  146.09    5.30
   5   0  -4  142.09    8.80
  -5   0   4  146.29    5.80
  -5   0   4  152.68    6.40
  -5   0   4  150.28    7.80
  -5   0   4  143.29    6.10
   4   0  -4  130.39    6.30
   4   0  -4  129.89    4.80
   4   0  -4  130.59    5.00
   4   0  -4  127.79    7.70
   4   0  -4  128.89    8.50
   4   0  -4  129.09    5.20
  -4   0   4  129.69    5.10
  -4   0   4  135.09    4.90
  -4   0   4  134.59    6.90
  -4   0   4  131.79    5.30
   3   0  -4    2.10    0.80
   3   0  -4    3.00    0.80
   3   0  -4    1.50    0.90
   3   0  -4    0.50    1.30
   3   0  -4    2.10    1.20
   3   0  -4    1.50    2.10
   3   0  -4    1.90    0.80
  -3   0   4    1.70    0.90
  -3   0   4    3.00    0.70
  -3   0   4    2.40    0.60
  -3   0   4    2.90    1.90
  -3   0   4    2.00    2.00
   2   0  -4  123.09    3.40
   2   0  -4  125.69    3.50
   2   0  -4  120.19    5.40
  -2   0   4  123.09    3.40
  -2   0   4  123.59    3.30
  -2   0   4  122.39    5.50
   1   0  -4  317.07    9.90
  -1   0   4  329.37   10.30
   0   0  -4  186.58    5.20
   0   0  -4  186.18    5.30
   0   0  -4  191.38    5.30
   0   0  -4  184.78    5.10
   0   0  -4  199.68    7.70
   0   0  -4  195.18    6.50
   0   0   4  185.68    4.70
   0   0   4  183.48    6.80
   0   0   4  179.18    5.20
   0   0   4  197.88    4.70
  -1   0  -4   30.20    2.00
  -1   0  -4   26.90    2.10
  -1   0  -4   28.40    2.70
  -1   0  -4   26.30    2.60
  -1   0  -4   26.40    2.00
  -1   0  -4   29.30    2.00
   1   0   4   30.40    2.20
   1   0   4   27.50    1.80
   1   0   4   25.30    2.00
   1   0   4   27.90    2.10
   1   0   4   27.90    2.60
  -2   0  -4   39.80    2.80
  -2   0  -4   35.90    2.60
  -2   0  -4   36.50    2.00
  -2   0  -4   38.50    2.90
  -2   0  -4   38.90    3.50
  -2   0  -4   37.30    3.40
  -2   0  -4   39.00    2.70
   2   0   4   35.10    2.90
   2   0   4   35.80    2.90
   2   0   4   35.10    2.70
   2   0   4   36.10    2.60
   2   0   4   34.10    2.50
  -3   0  -4  892.11   28.80
  -3   0  -4  843.22   27.50
  -3   0  -4  869.61   23.40
  -3   0  -4  940.21   23.90
  -3   0  -4  864.21   23.40
   3   0   4  894.41   23.40
   3   0   4  920.11   24.40
   3   0   4  916.11   23.40
   3   0   4  878.61   23.50
   3   0   4  875.71   28.60
  -4   0  -4  121.19    7.60
  -4   0  -4  125.89    6.50
  -4   0  -4  122.59    6.20
   4   0   4  127.79    6.60
   4   0   4  123.09    6.20
   4   0   4  114.59    7.20
   4   0   4  128.79    6.20
  -5   0  -4   66.59    5.30
  -5   0  -4   59.89    4.90
  -5   0  -4   65.39    4.90
  -5   0  -4   65.99    6.30
   5   0   4   66.29    6.70
   5   0   4   67.99    5.20
   5   0   4   66.09    4.90
   5   0   4   68.39    4.60
   5   0   4   65.09    5.30
  -6   0  -4    0.20    1.80
  -6   0  -4    1.70    1.90
  -6   0  -4    3.80    2.30
  -6   0  -4    3.00    2.30
   6   0   4    3.00    2.30
   6   0   4    3.30    3.50
   6   0   4    4.80    3.10
   6   0   4    7.10    3.20
   6   0   4    9.00    2.30
  -7   0  -4   -1.70    2.50
  -7   0  -4   -2.70    2.00
  -7   0  -4   -1.00    2.00
  -7   0  -4    1.50    1.80
   7   0   4    1.70    2.20
   7   0   4    0.80    3.00
   7   0   4    0.00    2.80
   7   0   4    1.60    1.90
  -8   0  -4    5.20    2.70
  -8   0  -4    8.50    3.30
  -8   0  -4    7.60    4.30
  -8   0  -4    1.80    3.50
   8   0   4    2.60    3.60
   8   0   4   -0.20    3.40
   8   0   4   11.80    4.30
  -9   0  -4    8.20    3.80
  -9   0  -4    1.10    3.40
  -9   0  -4    5.90    3.40
   9   0   4    1.60    3.80
   9   0   4   -0.10    5.20
   9   0   4    2.90    3.20
 -10   0  -4   19.10    6.00
 -10   0  -4    9.80    5.40
 -10   0  -4   12.80    6.40
  10   0   4    3.60    4.90
  10   0   4   19.90    5.80
  10   0   4   11.90    5.00
 -11   0  -4   15.00    6.50
  11   0   4    3.60    4.10
  11   0   4  -11.10    6.60
  10  -1  -4  -12.40    6.30
  10  -1  -4    2.50    4.10
  10  -1  -4    2.50    3.80
 -10   1   4   -6.50    3.00
   9  -1  -4    3.50    3.30
   9  -1  -4   -0.80    5.50
  -9   1   4   -0.20    2.80
   8  -1  -4   -1.50    3.40
   8  -1  -4    3.60    2.40
   8  -1  -4   -1.50    5.00
  -8   1   4    2.40    2.90
   7  -1  -4    0.30    2.30
   7  -1  -4    5.60    3.50
   7  -1  -4    0.00    4.40
  -7   1   4    1.20    2.20
   6  -1  -4   89.39    5.70
   6  -1  -4   90.79    8.90
   6  -1  -4   89.39    5.20
   6  -1  -4   91.19    7.30
  -6   1   4   97.59    5.50
  -6   1   4   93.89    5.80
   5  -1  -4  149.99   10.50
   5  -1  -4  164.48    9.10
   5  -1  -4  166.68    6.10
   5  -1  -4  170.48    7.20
   5  -1  -4  166.68    6.60
   5  -1  -4  165.28    6.90
  -5   1   4  164.78    6.80
  -5   1   4  169.78    7.20
  -5   1   4  178.98    7.30
   4  -1  -4   12.70    3.20
   4  -1  -4   12.20    2.20
   4  -1  -4   10.30    1.90
   4  -1  -4   11.20    1.80
   4  -1  -4   11.10    1.90
   4  -1  -4    9.60    2.30
  -4   1   4   10.80    1.90
  -4   1   4    9.80    2.80
  -4   1   4   11.30    2.00
  -4   1   4   12.10    2.20
   3  -1  -4   37.00    3.20
   3  -1  -4   39.70    2.50
   3  -1  -4   38.00    2.30
   3  -1  -4   38.50    2.30
   3  -1  -4   38.70    2.40
   3  -1  -4   41.20    3.70
   3  -1  -4   41.70    4.50
  -3   1   4   36.70    2.50
  -3   1   4   37.00    2.30
  -3   1   4   35.10    3.20
  -3   1   4   38.70    3.40
  -3   1   4   41.50    2.60
   2  -1  -4  209.98    5.70
   2  -1  -4  210.08    9.90
   2  -1  -4  215.28    6.00
   2  -1  -4  210.98    8.80
   2  -1  -4  210.58    7.90
   2  -1  -4  207.18    6.10
   2  -1  -4  206.58    5.60
  -2   1   4  212.88    5.30
  -2   1   4  202.88    8.00
  -2   1   4  206.48    6.00
  -2   1   4  202.78    5.30
  -2   1   4  219.68    8.00
   1  -1  -4  206.88    5.40
   1  -1  -4  211.38    5.20
   1  -1  -4  206.18    8.90
   1  -1  -4  217.38    5.20
   1  -1  -4  210.58    5.60
   1  -1  -4  205.48    7.40
  -1   1   4  219.68    7.70
  -1   1   4  208.38    7.60
  -1   1   4  213.58    5.60
  -1   1   4  208.58    5.40
   0  -1  -4 3113.99   67.99
   0  -1  -4 2965.20   68.29
   0  -1  -4 3095.89  124.39
   0  -1  -4 3070.39   67.89
   0  -1  -4 3002.80   69.39
   0  -1  -4 3098.79   68.09
   0   1   4 3025.80   68.29
   0   1   4 2946.61   68.09
   0   1   4 2985.60   68.19
   0   1   4 3033.10   69.49
   0   1   4 3075.99   71.29
  -1  -1  -4   -0.10    0.80
  -1  -1  -4   -0.50    1.10
  -1  -1  -4    0.20    0.60
  -1  -1  -4    2.90    1.40
  -1  -1  -4    1.40    0.90
  -1  -1  -4   -0.20    0.80
   1   1   4    2.30    1.00
   1   1   4    1.00    0.80
   1   1   4    0.60    0.90
   1   1   4    0.60    0.70
   1   1   4    0.30    1.00
   1   1   4    1.10    1.20
  -2  -1  -4  474.55   15.20
  -2  -1  -4  477.65   20.90
  -2  -1  -4  462.05   13.00
  -2  -1  -4  476.35   13.20
  -2  -1  -4  478.15   12.90
  -2  -1  -4  448.36   15.60
  -2  -1  -4  477.55   12.80
   2   1   4  474.95   15.70
   2   1   4  462.85   20.80
   2   1   4  480.55   12.80
   2   1   4  475.75   12.50
   2   1   4  458.25   14.20
   2   1   4  467.15   12.90
   2   1   4  470.25   12.20
   2   1   4  484.75   13.20
  -3  -1  -4  168.38    6.60
  -3  -1  -4  178.28    6.70
  -3  -1  -4  177.18    7.70
  -3  -1  -4  180.08    7.20
  -3  -1  -4  175.28    8.20
   3   1   4  176.78    7.00
   3   1   4  180.58    7.10
   3   1   4  173.48    7.60
   3   1   4  182.68    6.70
   3   1   4  178.98    8.90
  -4  -1  -4   18.20    2.90
  -4  -1  -4   26.10    3.70
  -4  -1  -4   20.90    2.90
  -4  -1  -4   24.50    2.70
  -4  -1  -4   22.10    3.50
   4   1   4   20.80    2.80
   4   1   4   23.90    3.20
   4   1   4   27.60    3.40
   4   1   4   18.80    3.00
   4   1   4   20.90    3.10
  -5  -1  -4   17.30    3.30
  -5  -1  -4   15.30    2.90
  -5  -1  -4   20.30    3.30
   5   1   4    9.70    3.00
   5   1   4   18.50    3.40
   5   1   4   20.30    3.50
   5   1   4   17.80    3.20
  -6  -1  -4    6.80    2.40
  -6  -1  -4   12.90    3.00
   6   1   4    6.80    3.40
   6   1   4    7.50    3.20
   6   1   4    4.90    2.20
   6   1   4   11.90    3.50
  -7  -1  -4  121.19    7.60
  -7  -1  -4  125.19    7.20
  -7  -1  -4  114.79    7.50
  -7  -1  -4  108.29    8.90
   7   1   4  124.99    8.30
   7   1   4  113.89    8.10
   7   1   4  129.59    9.30
  -8  -1  -4   -1.20    2.00
  -8  -1  -4    2.70    2.60
  -8  -1  -4    0.50    1.70
  -8  -1  -4    6.10    3.60
   8   1   4   -2.30    2.70
   8   1   4   -3.70    3.10
   8   1   4   -0.70    2.20
   8   1   4    0.50    2.10
  -9  -1  -4   28.10    5.80
  -9  -1  -4   24.60    5.00
  -9  -1  -4   24.40    5.50
   9   1   4   35.20    5.80
   9   1   4   28.80    5.80
   9   1   4   25.60    6.90
 -10  -1  -4   13.60    5.40
 -10  -1  -4   16.70    4.90
 -10  -1  -4    7.10    3.70
  10   1   4   11.40    4.30
  10   1   4    8.10    3.90
  10   1   4    1.60    5.40
 -11  -1  -4   -1.00    4.60
 -11  -1  -4    4.80    5.70
 -11  -1  -4    2.30    3.70
  11   1   4    3.30    4.70
  11   1   4   -9.60    5.40
  11   1   4    1.50    5.10
  10  -2  -4   -0.50    5.70
   9  -2  -4    1.90    7.10
   9  -2  -4    2.80    5.00
   9  -2  -4    9.70    3.90
  -9   2   4   -3.40    2.80
   8  -2  -4    5.70    3.10
   8  -2  -4    6.30    5.20
   8  -2  -4    4.80    4.30
  -8   2   4   -2.20    2.60
   7  -2  -4   39.20    7.20
   7  -2  -4   43.00    5.40
   7  -2  -4   29.80    7.80
  -7   2   4   47.60    5.20
   6  -2  -4    5.40    4.70
   6  -2  -4    8.80    2.50
   6  -2  -4    0.40    4.00
   6  -2  -4    7.80    2.90
   6  -2  -4    8.40    2.70
  -6   2   4    9.30    2.60
  -6   2   4    7.90    2.70
   5  -2  -4   21.60    3.00
   5  -2  -4   20.90    5.80
   5  -2  -4   22.40    3.40
   5  -2  -4   23.80    5.30
   5  -2  -4   23.80    3.40
   5  -2  -4   19.30    2.30
   5  -2  -4   23.50    3.30
  -5   2   4   22.70    3.20
  -5   2   4   24.60    3.80
  -5   2   4   23.70    3.50
  -5   2   4   22.60    3.40
   4  -2  -4    4.80    1.50
   4  -2  -4    4.10    1.60
   4  -2  -4    5.90    1.90
   4  -2  -4    5.20    1.70
   4  -2  -4    6.60    1.70
   4  -2  -4    2.40    2.90
   4  -2  -4    8.70    3.90
  -4   2   4    4.60    1.80
  -4   2   4    3.90    2.10
  -4   2   4    5.90    2.00
  -4   2   4    6.60    2.00
   3  -2  -4   10.50    4.10
   3  -2  -4    5.20    1.90
   3  -2  -4   10.00    1.90
   3  -2  -4   11.10    1.80
   3  -2  -4    9.00    1.80
   3  -2  -4   10.50    1.80
   3  -2  -4    9.40    3.00
  -3   2   4    9.40    2.30
  -3   2   4   12.60    2.00
  -3   2   4    8.60    1.90
  -3   2   4    9.90    1.90
  -3   2   4   10.00    2.80
   2  -2  -4   15.60    1.80
   2  -2  -4   15.40    1.80
   2  -2  -4   17.30    1.70
   2  -2  -4   15.40    2.00
   2  -2  -4   13.10    3.60
   2  -2  -4   16.90    2.00
   2  -2  -4   11.50    2.40
  -2   2   4   14.20    1.80
  -2   2   4   15.70    1.60
  -2   2   4   15.20    2.00
  -2   2   4   15.10    2.70
  -2   2   4    9.20    1.40
  -2   2   4   17.70    2.60
   1  -2  -4   77.49    3.10
   1  -2  -4   79.99    3.00
   1  -2  -4   76.19    5.10
   1  -2  -4   79.49    3.40
   1  -2  -4   76.09    3.10
   1  -2  -4   88.79    8.40
  -1   2   4   74.49    3.40
  -1   2   4   80.49    4.40
  -1   2   4   74.59    4.20
  -1   2   4   76.79    3.20
  -1   2   4   78.39    2.90
   0  -2  -4    5.00    1.00
   0  -2  -4    3.30    1.90
   0  -2  -4    1.30    1.20
   0  -2  -4    3.30    0.90
   0  -2  -4    4.70    1.00
   0  -2  -4    2.90    0.90
   0   2   4    3.50    0.80
   0   2   4    4.50    1.20
   0   2   4    3.70    1.40
   0   2   4    4.50    1.00
   0   2   4    3.60    1.20
  -1  -2  -4  102.59    7.70
  -1  -2  -4  101.49    3.80
  -1  -2  -4   98.89    4.00
  -1  -2  -4  103.69    4.20
  -1  -2  -4   95.79    3.70
   1   2   4  100.79    3.60
   1   2   4  102.29    7.70
   1   2   4   96.89    3.80
   1   2   4   99.09    4.40
   1   2   4  100.69    4.10
   1   2   4  104.49    4.90
   1   2   4  104.19    4.00
  -2  -2  -4 1683.73   40.70
  -2  -2  -4 1741.23   41.20
  -2  -2  -4 1697.53   48.90
  -2  -2  -4 1718.63   48.50
  -2  -2  -4 1749.53   41.40
  -2  -2  -4 1776.92   51.69
  -2  -2  -4 1751.32   72.29
  -2  -2  -4 1721.23   40.70
   2   2   4 1750.42   72.29
   2   2   4 1746.43   41.10
   2   2   4 1751.62   40.50
   2   2   4 1720.13   42.10
   2   2   4 1743.23   40.70
   2   2   4 1734.23   41.20
  -3  -2  -4   33.70    3.10
  -3  -2  -4   32.30    3.30
  -3  -2  -4   33.50    2.60
  -3  -2  -4   31.20    2.80
  -3  -2  -4   37.40    2.50
   3   2   4   39.60    3.40
   3   2   4   33.80    2.90
   3   2   4   33.10    4.00
   3   2   4   30.60    3.10
  -4  -2  -4  284.97   10.00
  -4  -2  -4  294.27   10.00
  -4  -2  -4  292.27   10.60
  -4  -2  -4  289.87   11.80
  -4  -2  -4  295.97   11.00
   4   2   4  282.37   10.40
   4   2   4  290.77    9.80
   4   2   4  295.97   10.90
   4   2   4  288.67   10.40
   4   2   4  298.27   15.10
  -5  -2  -4  256.07   10.00
  -5  -2  -4  274.07   11.80
  -5  -2  -4  275.37   10.20
  -5  -2  -4  264.47   11.10
   5   2   4  231.08   14.40
   5   2   4  270.77   11.20
   5   2   4  259.77   10.20
   5   2   4  264.17   10.30
   5   2   4  257.97    6.50
  -7  -2  -4   65.29    7.20
  -7  -2  -4   79.09    6.50
  -7  -2  -4   72.09    6.30
   7   2   4   68.69    7.10
   7   2   4   70.29    6.00
   7   2   4   71.19    6.00
  -8  -2  -4  201.78   11.90
  -8  -2  -4  209.88   11.10
  -8  -2  -4  214.68   10.90
   8   2   4  201.18   12.20
   8   2   4  216.78   11.30
   8   2   4  216.08   11.10
  -9  -2  -4   25.20    5.90
  -9  -2  -4   37.40    5.90
  -9  -2  -4   29.70    5.60
   9   2   4   18.20    5.90
   9   2   4   32.70    6.00
   9   2   4   23.40    5.20
 -10  -2  -4    1.50    4.00
 -10  -2  -4   -2.60    4.10
 -10  -2  -4   -3.20    3.30
  10   2   4  -10.60    4.10
  10   2   4    1.00    4.10
  10   2   4    4.90    4.40
 -11  -2  -4   -4.40    4.40
 -11  -2  -4   -0.10    4.50
 -11  -2  -4    2.40    3.00
  11   2   4  -11.20    5.10
  11   2   4    8.10    5.00
  11   2   4   -1.20    4.50
 -12  -2  -4   -0.90    3.40
  12   2   4  -14.20    6.50
   9  -3  -4   -6.60    7.50
   9  -3  -4    3.80    4.10
   9  -3  -4    1.40    5.80
  -9   3   4   -0.70    3.80
   8  -3  -4   15.00    6.70
   8  -3  -4   23.10    4.50
   8  -3  -4   18.70    7.50
  -8   3   4   19.60    4.60
   7  -3  -4    9.90    5.50
   7  -3  -4   10.60    6.40
   7  -3  -4   13.50    3.70
  -7   3   4   18.40    4.20
   6  -3  -4   50.99    5.20
   6  -3  -4   41.20    9.20
   6  -3  -4   44.90    7.60
  -6   3   4   47.30    5.00
  -6   3   4   47.80    5.20
   5  -3  -4   -1.00    1.40
   5  -3  -4    0.90    3.00
   5  -3  -4   -3.80    1.50
   5  -3  -4   -2.90    2.50
   5  -3  -4   -2.40    1.60
  -5   3   4   -1.60    1.90
  -5   3   4    1.30    2.20
  -5   3   4    0.30    1.80
   4  -3  -4   56.29    4.30
   4  -3  -4   44.80    3.80
   4  -3  -4   49.99    4.20
   4  -3  -4   52.89    9.70
   4  -3  -4   52.79    4.30
   4  -3  -4   54.49    3.90
   4  -3  -4   57.09    7.40
  -4   3   4   62.79    4.80
  -4   3   4   49.60    4.30
  -4   3   4   48.40    4.10
  -4   3   4   51.09    4.30
   3  -3  -4   16.70    2.80
   3  -3  -4    9.40    3.90
   3  -3  -4   13.60    2.30
   3  -3  -4   20.90    2.60
   3  -3  -4   18.40    2.70
   3  -3  -4   17.00    3.90
   3  -3  -4   16.00    2.10
  -3   3   4   20.30    3.00
  -3   3   4   18.70    2.60
  -3   3   4   18.40    3.10
  -3   3   4   19.80    2.70
  -3   3   4   19.20    2.80
   2  -3  -4   21.00    5.10
   2  -3  -4   28.90    2.10
   2  -3  -4   22.50    2.60
   2  -3  -4   24.30    3.30
   2  -3  -4   25.00    2.40
   2  -3  -4   25.70    2.50
   2  -3  -4   25.60    4.10
  -2   3   4   23.60    2.80
  -2   3   4   26.50    3.40
  -2   3   4   22.30    3.20
  -2   3   4   24.90    2.50
  -2   3   4   28.40    3.10
   1  -3  -4   20.70    2.20
   1  -3  -4   17.40    2.90
   1  -3  -4   21.00    1.90
   1  -3  -4   18.10    4.20
   1  -3  -4   15.40    2.60
   1  -3  -4   20.80    2.20
  -1   3   4   22.60    2.30
  -1   3   4   24.20    3.20
  -1   3   4   18.20    2.70
  -1   3   4   20.00    2.10
  -1   3   4   20.90    2.90
  -1   3   4   23.60    2.40
   0  -3  -4   10.90    1.50
   0  -3  -4   11.00    1.70
   0  -3  -4    8.80    1.80
   0  -3  -4    9.30    1.60
   0  -3  -4    7.00    1.40
   0  -3  -4    8.30    2.70
   0  -3  -4    9.40    1.60
   0   3   4    9.10    1.60
   0   3   4    5.70    1.70
   0   3   4    9.70    1.40
   0   3   4    9.90    1.50
   0   3   4   10.50    2.00
  -1  -3  -4  109.99    5.80
  -1  -3  -4  108.89    4.30
  -1  -3  -4  105.59    4.60
  -1  -3  -4  105.89    4.30
  -1  -3  -4  106.69    9.00
  -1  -3  -4  107.59    4.80
  -1  -3  -4  109.89    4.60
   1   3   4  112.09    4.20
   1   3   4  112.09    4.40
   1   3   4  114.89    5.00
   1   3   4  114.29    4.90
   1   3   4  103.19    8.50
   1   3   4  112.99    4.80
  -2  -3  -4   35.30    2.90
  -2  -3  -4   35.40    2.60
  -2  -3  -4   34.50    3.90
  -2  -3  -4   33.70    2.60
  -2  -3  -4   32.80    5.00
   2   3   4   36.30    2.70
   2   3   4   30.30    2.50
   2   3   4   36.60    3.00
   2   3   4   36.60    2.50
   2   3   4   34.90    3.10
   2   3   4   31.20    4.70
  -3  -3  -4  465.95   14.00
  -3  -3  -4  459.75   13.30
  -3  -3  -4  459.65   15.90
  -3  -3  -4  402.06   23.00
  -3  -3  -4  479.05   13.40
   3   3   4  486.45   23.20
   3   3   4  475.65   13.20
   3   3   4  473.55   13.90
   3   3   4  454.25   13.80
  -4  -3  -4   32.90    2.30
  -4  -3  -4   29.80    3.70
  -4  -3  -4   34.70    3.30
  -4  -3  -4   31.30    5.20
  -4  -3  -4   35.90    3.30
  -4  -3  -4   37.00    3.90
   4   3   4   31.90    2.50
   4   3   4   31.90    3.80
   4   3   4   31.70    2.90
   4   3   4   38.00    5.00
   4   3   4   35.30    3.80
  -5  -3  -4   13.80    2.80
  -5  -3  -4   10.50    2.40
  -5  -3  -4   10.70    1.90
  -5  -3  -4   10.40    2.60
   5   3   4    8.20    2.40
   5   3   4   11.20    3.30
   5   3   4   14.40    4.10
   5   3   4   14.10    3.10
   5   3   4   10.50    2.20
  -6  -3  -4   -1.00    2.10
  -6  -3  -4    2.10    1.80
  -6  -3  -4    3.90    2.30
  -6  -3  -4    5.50    1.80
   6   3   4    1.30    2.00
   6   3   4    0.40    2.40
   6   3   4    3.60    2.80
   6   3   4    3.20    2.10
  -7  -3  -4    3.70    2.50
  -7  -3  -4    5.80    2.50
  -7  -3  -4    6.40    3.10
   7   3   4    3.50    2.80
   7   3   4    7.60    3.50
   7   3   4    7.30    3.60
   7   3   4    6.50    4.40
  -8  -3  -4   -0.10    2.80
  -8  -3  -4    4.50    3.50
  -8  -3  -4    0.60    1.80
   8   3   4   -3.70    2.50
   8   3   4    0.40    2.30
   8   3   4   -2.80    2.80
   8   3   4   -0.90    3.30
  -9  -3  -4   10.70    4.30
  -9  -3  -4   20.20    4.80
  -9  -3  -4    4.70    2.80
   9   3   4   17.20    4.40
   9   3   4   18.10    5.10
   9   3   4   16.30    4.90
 -10  -3  -4    4.40    4.20
 -10  -3  -4    4.10    3.10
 -10  -3  -4    2.60    3.20
  10   3   4    6.20    3.40
  10   3   4    2.90    3.40
  10   3   4   -1.00    4.70
 -11  -3  -4    9.40    5.00
 -11  -3  -4    2.20    4.20
 -11  -3  -4    1.60    3.30
  11   3   4    3.90    3.50
  11   3   4    1.60    5.60
  11   3   4    3.90    4.60
 -12  -3  -4    0.60    3.60
 -12  -3  -4   -2.60    4.60
  12   3   4    2.30    5.00
  12   3   4   -0.30    3.80
   8  -4  -4   12.00    8.90
   8  -4  -4   22.20    8.70
   8  -4  -4   19.70    5.30
  -8   4   4    8.20    4.50
   7  -4  -4   -6.90    2.30
   7  -4  -4   -0.70    4.80
   7  -4  -4   -5.70    3.90
  -7   4   4   -0.80    3.00
   6  -4  -4    4.10    3.00
   6  -4  -4   -1.30    3.80
   6  -4  -4   11.00    5.30
  -6   4   4    6.10    2.80
  -6   4   4    7.00    3.60
   5  -4  -4   61.49    5.00
   5  -4  -4   72.19    5.50
   5  -4  -4   58.89    8.20
   5  -4  -4   72.69   11.40
  -5   4   4   65.29    6.00
  -5   4   4   66.69    5.70
  -5   4   4   61.99    5.60
   4  -4  -4   -1.60    1.40
   4  -4  -4   -0.80    1.80
   4  -4  -4   -0.80    3.70
   4  -4  -4    0.90    2.60
  -4   4   4   -0.40    1.90
  -4   4   4   -0.10    2.00
  -4   4   4   -1.80    1.70
   3  -4  -4   -0.20    1.70
   3  -4  -4    0.50    2.90
   3  -4  -4   -0.50    2.40
   3  -4  -4   -1.10    1.40
   3  -4  -4   -0.30    1.40
  -3   4   4   -2.60    1.50
  -3   4   4   -0.10    1.70
  -3   4   4    0.30    1.70
  -3   4   4    1.10    2.00
   2  -4  -4   28.40    3.40
   2  -4  -4   24.00    2.60
   2  -4  -4   20.30    2.70
   2  -4  -4   23.80    4.20
   2  -4  -4   18.00    5.30
  -2   4   4   27.60    3.00
  -2   4   4   22.90    3.20
  -2   4   4   26.70    3.90
  -2   4   4   22.10    3.20
  -2   4   4   26.80    3.40
   1  -4  -4   35.30    2.90
   1  -4  -4   38.40    6.50
   1  -4  -4   26.40    3.80
   1  -4  -4   34.10    3.10
   1  -4  -4   33.80    3.00
  -1   4   4   29.30    3.10
  -1   4   4   24.90    3.20
  -1   4   4   32.90    2.90
  -1   4   4   31.50    3.30
   0  -4  -4  223.68    7.70
   0  -4  -4  212.18    7.40
   0  -4  -4  217.18    7.60
   0  -4  -4  212.38   15.20
   0  -4  -4  219.78    8.10
   0  -4  -4  213.28    9.30
   0   4   4  215.88    8.20
   0   4   4  230.18    9.50
   0   4   4  219.78    8.10
   0   4   4  215.08    7.50
   0   4   4  220.88    8.30
  -1  -4  -4  113.29    5.00
  -1  -4  -4  122.69    5.60
  -1  -4  -4  123.59    5.80
  -1  -4  -4  109.49    5.20
  -1  -4  -4  117.79   10.40
  -1  -4  -4  115.59    4.90
   1   4   4  123.99    5.00
   1   4   4  117.79    5.30
   1   4   4  115.59    5.50
   1   4   4  105.49    5.40
   1   4   4  114.89    5.20
  -2  -4  -4  165.88    6.30
  -2  -4  -4  155.88    6.70
  -2  -4  -4  176.18    8.10
  -2  -4  -4  158.58   12.10
  -2  -4  -4  165.88    6.30
   2   4   4  156.48    6.70
   2   4   4  158.28    6.90
   2   4   4  159.28    6.30
   2   4   4  169.98    6.20
  -3  -4  -4  169.78    6.70
  -3  -4  -4  164.98    7.30
  -3  -4  -4  165.88    6.70
  -3  -4  -4  163.18    8.90
   3   4   4  160.88    7.10
   3   4   4  164.08    6.40
   3   4   4  164.08    7.10
   3   4   4  181.68    6.80
   3   4   4  164.28    8.60
  -4  -4  -4  111.19    6.30
  -4  -4  -4  103.99    5.30
  -4  -4  -4  103.49   11.10
  -4  -4  -4  111.89    6.30
  -4  -4  -4  112.39    5.50
   4   4   4  120.49    5.70
   4   4   4  117.49    7.70
   4   4   4  113.99    6.10
   4   4   4  103.49    5.90
  -5  -4  -4   15.30    4.10
  -5  -4  -4   14.00    2.60
  -5  -4  -4   10.90    2.50
  -5  -4  -4   13.90    2.50
   5   4   4   13.90    2.90
   5   4   4   16.50    3.70
   5   4   4   13.30    1.90
   5   4   4   10.00    2.50
  -6  -4  -4   55.29    4.60
  -6  -4  -4   63.29    5.40
  -6  -4  -4   61.69    5.20
   6   4   4   62.19    5.30
   6   4   4   66.59    4.90
   6   4   4   67.49    7.10
   6   4   4   74.99    6.00
  -7  -4  -4   83.49    6.80
  -7  -4  -4   76.29    5.80
  -7  -4  -4   85.29    6.10
   7   4   4   93.49    7.30
   7   4   4   94.29    7.30
   7   4   4   93.39    9.80
   7   4   4   88.49    6.40
  -8  -4  -4    1.90    2.80
  -8  -4  -4   -0.40    2.10
  -8  -4  -4    3.30    3.20
   8   4   4   -2.20    2.80
   8   4   4    0.00    3.10
   8   4   4    3.70    3.40
   8   4   4    1.20    2.50
  -9  -4  -4    2.60    3.40
  -9  -4  -4   -1.70    2.90
  -9  -4  -4    1.10    2.70
   9   4   4    0.90    2.90
   9   4   4    1.70    3.50
   9   4   4    1.80    3.50
   9   4   4   -2.40    2.90
 -10  -4  -4   -0.90    3.30
 -10  -4  -4   -0.60    2.40
 -10  -4  -4    0.10    3.70
  10   4   4    2.40    4.20
  10   4   4    3.20    4.20
  10   4   4   -3.50    3.40
  10   4   4   -4.00    3.30
 -11  -4  -4    9.60    4.20
 -11  -4  -4   22.30    5.80
 -11  -4  -4    9.20    4.10
  11   4   4   13.60    4.70
  11   4   4   -0.60    5.30
  11   4   4    5.90    3.90
 -12  -4  -4   -5.60    3.90
 -12  -4  -4   -2.30    4.90
 -12  -4  -4   -5.10    3.60
  12   4   4   -2.60    3.20
  12   4   4    5.10    4.90
   8  -5  -4   20.90    9.00
   7  -5  -4   11.70    7.70
   7  -5  -4   13.60    7.10
   7  -5  -4   10.70    4.50
  -7   5   4    7.50    4.30
   6  -5  -4    2.60    3.30
   6  -5  -4    0.00    5.90
   6  -5  -4    1.10    5.30
  -6   5   4    1.30    2.40
  -6   5   4    2.60    3.10
   5  -5  -4    2.50    3.00
   5  -5  -4   -0.20    5.30
   5  -5  -4    2.20    4.80
  -5   5   4    6.00    2.90
  -5   5   4    3.60    3.00
   4  -5  -4   10.40    2.90
   4  -5  -4    3.70    4.00
   4  -5  -4    8.40    4.00
   4  -5  -4    5.20    2.90
  -4   5   4    8.00    3.10
  -4   5   4    4.80    2.60
  -4   5   4    6.90    3.10
   3  -5  -4   -1.50    2.50
   3  -5  -4   -3.40    1.80
   3  -5  -4   -0.80    3.60
   3  -5  -4    0.80    1.90
  -3   5   4   -3.40    1.70
  -3   5   4   -2.10    2.00
  -3   5   4   -0.60    1.30
   2  -5  -4    2.60    3.40
   2  -5  -4    4.40    2.30
   2  -5  -4    3.70    2.00
   2  -5  -4    4.70    3.40
  -2   5   4    2.70    2.50
  -2   5   4    5.40    2.50
  -2   5   4    3.70    2.20
  -2   5   4    0.40    2.10
   1  -5  -4  263.37   10.00
   1  -5  -4  244.78   12.10
   1  -5  -4  250.67    9.40
   1  -5  -4  243.78    9.10
   1  -5  -4  257.57   18.80
  -1   5   4  258.47   10.00
  -1   5   4  259.27    9.40
  -1   5   4  243.98   10.00
  -1   5   4  246.98    9.90
   0  -5  -4  240.78    9.30
   0  -5  -4  242.68   10.80
   0  -5  -4  237.38    8.60
   0  -5  -4  237.78    8.80
   0  -5  -4  237.58   17.30
   0   5   4  244.08    9.60
   0   5   4  230.18    8.50
   0   5   4  239.18    9.40
   0   5   4  228.98   10.50
   0   5   4  230.68    9.10
  -1  -5  -4   -1.30    1.20
  -1  -5  -4   -0.50    1.30
  -1  -5  -4    0.90    0.90
  -1  -5  -4   -0.10    2.70
  -1  -5  -4   -0.50    1.30
  -1  -5  -4   -0.50    1.00
   1   5   4   -1.90    1.10
   1   5   4   -1.40    1.60
   1   5   4    1.00    1.20
   1   5   4   -0.60    1.30
   1   5   4   -2.10    1.00
  -2  -5  -4    2.00    1.70
  -2  -5  -4    1.60    1.60
  -2  -5  -4    0.80    1.20
  -2  -5  -4   -2.80    2.10
  -2  -5  -4    0.90    1.30
   2   5   4    1.00    0.80
   2   5   4   -2.80    1.70
   2   5   4    1.70    1.50
   2   5   4    1.80    1.60
   2   5   4   -0.50    1.10
  -3  -5  -4   80.49    4.80
  -3  -5  -4   83.69    4.80
  -3  -5  -4   90.69    6.20
  -3  -5  -4   92.79    5.60
  -3  -5  -4   71.59    8.60
   3   5   4   79.09    5.60
   3   5   4   94.89    5.00
   3   5   4   76.59    4.10
   3   5   4   81.49    6.20
   3   5   4   78.59    5.40
  -4  -5  -4    1.30    1.80
  -4  -5  -4    0.80    1.30
  -4  -5  -4   -7.60    4.60
  -4  -5  -4    0.70    1.30
   4   5   4   -0.20    2.20
   4   5   4    0.10    2.20
   4   5   4    5.00    2.70
  -5  -5  -4    3.60    3.90
  -5  -5  -4    0.60    2.10
  -5  -5  -4    1.80    1.90
  -5  -5  -4   -1.10    1.50
   5   5   4   -0.10    0.60
   5   5   4    1.10    1.80
   5   5   4   -1.60    1.50
   5   5   4   -1.20    2.60
  -6  -5  -4    9.20    2.40
  -6  -5  -4   10.50    2.70
  -6  -5  -4   12.10    2.90
   6   5   4   13.70    3.20
   6   5   4   15.30    3.80
   6   5   4    5.50    3.00
   6   5   4    7.00    1.90
  -7  -5  -4  160.98    8.60
  -7  -5  -4  143.69    8.10
  -7  -5  -4  131.29    7.90
   7   5   4  130.39    8.70
   7   5   4  130.49    8.70
   7   5   4  135.89    7.40
   7   5   4  133.29   11.50
  -8  -5  -4    4.80    3.10
  -8  -5  -4   -0.50    2.00
  -8  -5  -4   -2.30    2.10
   8   5   4   -0.70    2.20
   8   5   4   -1.80    3.00
   8   5   4    1.70    3.40
   8   5   4    1.60    2.60
  -9  -5  -4   15.60    4.70
  -9  -5  -4    9.60    3.50
  -9  -5  -4   17.10    4.00
   9   5   4    7.60    4.50
   9   5   4   15.80    4.80
   9   5   4   18.90    4.40
   9   5   4   13.40    4.00
 -10  -5  -4    5.20    3.50
 -10  -5  -4    2.90    2.90
 -10  -5  -4    2.90    3.20
  10   5   4    8.30    4.10
  10   5   4    0.80    4.30
  10   5   4    2.00    4.20
  10   5   4    6.00    3.40
 -11  -5  -4    3.00    3.20
 -11  -5  -4    2.10    3.60
 -11  -5  -4   -3.30    4.10
  11   5   4   -3.30    6.00
  11   5   4   11.50    5.30
  11   5   4    2.30    4.50
 -12  -5  -4   -1.00    3.50
 -12  -5  -4   -2.60    4.50
 -12  -5  -4   -0.60    3.60
  12   5   4    0.40    3.50
  12   5   4    0.80    4.70
   7  -6  -4   28.70   10.50
   6  -6  -4    2.80    3.60
   6  -6  -4    0.30    4.20
  -6   6   4    1.90    3.80
   5  -6  -4   -1.40    4.10
   5  -6  -4   -0.90    3.60
   5  -6  -4   -0.60    3.10
  -5   6   4   -0.50    2.60
  -5   6   4    2.10    3.20
   4  -6  -4   21.70    7.70
   4  -6  -4   39.30    5.40
   4  -6  -4   28.40    7.20
  -4   6   4   23.30    4.40
  -4   6   4   31.60    5.30
   3  -6  -4   43.20    4.60
   3  -6  -4   41.80    5.00
   3  -6  -4   33.00    6.10
   3  -6  -4   28.70    7.50
  -3   6   4   32.60    5.00
  -3   6   4   47.60    5.80
  -3   6   4   38.50    5.20
  -3   6   4   50.99    5.90
   2  -6  -4   19.50    6.00
   2  -6  -4   23.90    3.70
   2  -6  -4   14.80    4.70
   2  -6  -4   28.20    4.20
  -2   6   4   18.00    3.90
  -2   6   4   31.10    4.60
  -2   6   4   22.30    4.20
   1  -6  -4    0.10    2.90
   1  -6  -4   -1.10    2.00
   1  -6  -4    2.60    2.10
   1  -6  -4   -0.60    2.70
  -1   6   4   -0.70    2.30
  -1   6   4    0.30    2.20
  -1   6   4    0.40    2.20
   0  -6  -4   26.10    6.60
   0  -6  -4   33.10    4.40
   0  -6  -4   38.90    3.90
   0  -6  -4   40.00    4.10
   0   6   4   38.60    4.80
   0   6   4   33.90    4.50
   0   6   4   40.80    4.00
  -1  -6  -4   49.50    3.80
  -1  -6  -4   54.49    3.00
  -1  -6  -4   45.90    8.60
  -1  -6  -4   55.19    4.30
  -1  -6  -4   48.80    4.30
   1   6   4   49.00    4.50
   1   6   4   45.30    4.60
   1   6   4   52.29    4.80
   1   6   4   48.10    4.00
  -2  -6  -4   77.59    4.90
  -2  -6  -4   71.89    4.80
  -2  -6  -4   79.99    4.90
  -2  -6  -4   59.89    8.50
   2   6   4   69.99    5.40
   2   6   4   71.89    4.50
   2   6   4   67.49    4.20
  -3  -6  -4   89.19    5.40
  -3  -6  -4   89.49   11.10
  -3  -6  -4   85.99    5.10
  -3  -6  -4   90.19    6.20
   3   6   4   99.39    6.10
   3   6   4   89.89    4.20
   3   6   4   93.49    6.60
   3   6   4   96.99    4.70
   3   6   4   89.69    6.20
  -4  -6  -4  139.79   15.20
  -4  -6  -4  191.28    8.30
  -4  -6  -4  196.98    8.20
   4   6   4  193.08   10.50
   4   6   4  203.08    9.50
   4   6   4  206.58    9.50
  -5  -6  -4   30.00    3.80
  -5  -6  -4   28.90    3.90
  -5  -6  -4   31.30    4.10
  -5  -6  -4   38.20    9.50
   5   6   4   22.00    4.20
   5   6   4   31.10    4.70
   5   6   4   34.80    4.80
  -6  -6  -4    9.40    5.50
  -6  -6  -4    9.80    2.70
  -6  -6  -4    9.80    2.60
  -6  -6  -4   11.10    2.60
   6   6   4    5.10    3.20
   6   6   4    9.20    4.10
   6   6   4    6.50    2.80
   6   6   4    6.70    1.40
  -7  -6  -4   -1.00    2.70
  -7  -6  -4    1.80    2.00
  -7  -6  -4    1.60    2.70
   7   6   4    0.50    1.70
   7   6   4    2.60    3.40
   7   6   4   -0.10    3.20
   7   6   4   -3.80    2.30
  -8  -6  -4   96.39    7.60
  -8  -6  -4   94.79    7.10
  -8  -6  -4   91.89    7.40
   8   6   4  109.89    8.00
   8   6   4  101.29   11.10
   8   6   4  110.39    8.00
   8   6   4   93.59    6.50
  -9  -6  -4   98.79    8.30
  -9  -6  -4   96.89    7.90
  -9  -6  -4  100.89    8.30
   9   6   4   97.19    7.90
   9   6   4  109.89    9.10
   9   6   4  114.89   12.20
   9   6   4   92.59    8.00
 -10  -6  -4   47.00    6.80
 -10  -6  -4   58.89    7.40
 -10  -6  -4   45.10    6.70
  10   6   4   54.59    7.80
  10   6   4   47.10    9.10
  10   6   4   36.00    6.20
 -11  -6  -4   -2.00    3.40
 -11  -6  -4    3.10    3.20
 -11  -6  -4    3.00    4.60
  11   6   4    2.00    4.80
  11   6   4   -1.70    4.30
  11   6   4   -7.80    3.80
 -12  -6  -4    5.60    4.70
 -12  -6  -4   -0.50    4.70
  12   6   4    3.00    4.00
  12   6   4    7.10    6.30
  12   6   4    1.80    4.60
   6  -7  -4   -5.60    7.70
   6  -7  -4    4.80    8.20
  -6   7   4    9.50    5.10
   5  -7  -4   16.50    8.10
   5  -7  -4   13.20    4.10
   5  -7  -4    7.70    7.20
  -5   7   4    8.50    4.00
  -5   7   4   11.20    4.70
   4  -7  -4    4.30    2.70
   4  -7  -4    3.10    5.40
   4  -7  -4   -1.50    5.20
  -4   7   4    0.60    2.40
  -4   7   4    3.10    3.30
  -4   7   4    4.90    3.80
   3  -7  -4   20.10    4.40
   3  -7  -4   17.80    6.00
   3  -7  -4   21.20    6.90
  -3   7   4   31.00    5.00
  -3   7   4   24.30    4.80
  -3   7   4   19.70    4.50
   2  -7  -4    2.10    3.70
   2  -7  -4    2.10    3.80
   2  -7  -4   -0.10    2.50
   2  -7  -4    1.60    2.40
  -2   7   4   -0.40    2.70
  -2   7   4   -0.60    1.70
  -2   7   4    1.50    2.20
   1  -7  -4   14.30    4.50
   1  -7  -4   11.40    3.20
   1  -7  -4   14.90    6.50
   1  -7  -4   24.00    3.80
  -1   7   4   21.60    3.90
  -1   7   4   15.40    3.50
  -1   7   4   20.80    4.50
   0  -7  -4    3.10    2.50
   0  -7  -4    3.20    2.80
   0  -7  -4   -1.20    3.90
   0  -7  -4   -0.80    2.00
   0   7   4    1.10    1.90
   0   7   4   -0.30    1.80
   0   7   4   -0.30    2.00
  -1  -7  -4  363.26   15.20
  -1  -7  -4  398.26   13.60
  -1  -7  -4  393.56   26.00
  -1  -7  -4  389.16   13.70
   1   7   4  387.56   13.10
   1   7   4  376.96   14.80
   1   7   4  392.96   14.70
  -2  -7  -4   69.29    5.40
  -2  -7  -4   67.09   11.40
  -2  -7  -4   68.39    5.00
  -2  -7  -4   77.79    4.80
   2   7   4   78.59    5.50
   2   7   4   75.79    6.30
   2   7   4   86.19    6.60
   2   7   4   76.79    4.60
  -3  -7  -4  100.89   12.30
  -3  -7  -4   81.59    5.40
  -3  -7  -4   80.29    5.40
  -3  -7  -4   87.69    6.20
   3   7   4   91.89    6.60
   3   7   4   87.19    6.80
   3   7   4   83.89    5.00
   3   7   4   87.29    6.30
   3   7   4   88.49    4.60
  -4  -7  -4  148.59    7.50
  -4  -7  -4  157.18    7.90
  -4  -7  -4  155.88   20.60
   4   7   4  151.78    6.10
   4   7   4  151.48    9.40
   4   7   4  156.18    9.00
  -5  -7  -4   11.40    7.30
  -5  -7  -4   -1.90    1.50
  -5  -7  -4   -1.60    1.40
  -5  -7  -4   -0.50    1.70
   5   7   4   -0.40    2.70
   5   7   4    2.10    0.70
   5   7   4   -1.80    2.50
   5   7   4    1.00    0.80
   5   7   4    3.10    3.00
  -6  -7  -4    1.90    2.00
  -6  -7  -4    1.40    2.70
  -6  -7  -4    3.60    2.10
  -6  -7  -4    2.50    4.80
   6   7   4    1.90    3.60
   6   7   4   -1.10    3.20
   6   7   4    1.80    1.00
   6   7   4   -0.80    2.80
   6   7   4    3.20    1.00
  -7  -7  -4    0.00    1.80
  -7  -7  -4   -9.30    5.10
  -7  -7  -4   -1.30    1.80
  -7  -7  -4   -2.80    2.70
   7   7   4    1.60    2.60
   7   7   4    1.50    2.60
   7   7   4    1.90    3.10
   7   7   4    0.70    1.30
  -8  -7  -4   17.10    3.70
  -8  -7  -4   20.60    3.80
  -8  -7  -4   17.80    4.00
   8   7   4   14.20    6.10
   8   7   4   15.70    4.80
   8   7   4    9.20    4.40
  -9  -7  -4   15.40    3.80
  -9  -7  -4   16.40    4.10
  -9  -7  -4   15.90    4.60
   9   7   4   16.10    6.60
   9   7   4   21.60    4.90
   9   7   4   23.00    5.70
 -10  -7  -4    7.60    4.10
 -10  -7  -4    6.70    4.50
 -10  -7  -4    1.70    3.60
  10   7   4   10.10    5.00
  10   7   4    3.00    5.70
  10   7   4   12.00    5.10
 -11  -7  -4   29.90    6.40
 -11  -7  -4   24.50    5.70
  11   7   4   41.80    7.40
  11   7   4   12.60    7.50
  11   7   4   25.10    6.40
 -12  -7  -4    7.20    5.60
 -12  -7  -4   13.20    4.80
  12   7   4    8.60    6.00
  12   7   4    4.40    5.40
  12   7   4    5.20    5.80
 -13  -7  -4   -1.00    5.00
   5  -8  -4   -0.80    7.10
   5  -8  -4    1.00    7.80
  -5   8   4   21.50    6.30
   4  -8  -4    2.20    6.90
   4  -8  -4    8.80    4.60
   4  -8  -4    7.00    7.00
  -4   8   4    3.50    4.10
  -4   8   4    2.40    3.80
   3  -8  -4    9.30    6.00
   3  -8  -4   13.80    4.30
   3  -8  -4    7.00    5.70
  -3   8   4   15.20    4.70
  -3   8   4    7.70    3.30
   2  -8  -4   18.90    7.80
   2  -8  -4   12.80    4.00
   2  -8  -4   15.90    5.70
  -2   8   4   15.60    4.50
  -2   8   4   15.20    4.20
   1  -8  -4   17.40    6.40
   1  -8  -4   11.60    4.30
   1  -8  -4   13.50    4.10
   1  -8  -4   13.30    3.50
  -1   8   4   16.40    4.60
  -1   8   4   17.70    4.40
  -1   8   4   18.50    4.00
   0  -8  -4   37.40    5.30
   0  -8  -4   28.90    8.30
   0  -8  -4   38.80    5.00
   0  -8  -4   32.30    5.30
   0   8   4   36.30    5.80
   0   8   4   42.30    5.80
   0   8   4   34.60    4.60
  -1  -8  -4   79.09    6.50
  -1  -8  -4   75.49   11.90
  -1  -8  -4   81.39    6.60
  -1  -8  -4   71.79    5.50
   1   8   4   81.59    7.10
   1   8   4   69.89    6.80
   1   8   4   70.29    5.40
  -2  -8  -4   71.69   13.50
  -2  -8  -4   74.99    6.30
  -2  -8  -4   79.39    6.20
   2   8   4   66.79    6.60
   2   8   4   67.39    4.80
   2   8   4   79.69    7.10
  -3  -8  -4  383.96   27.40
  -3  -8  -4  381.06   14.00
  -3  -8  -4  366.96   13.70
   3   8   4  382.46   15.30
   3   8   4  371.46   11.80
   3   8   4  372.66   15.30
   3   8   4  343.27   14.50
  -4  -8  -4  185.88    9.40
  -4  -8  -4  236.08   25.50
  -4  -8  -4  175.78    8.90
   4   8   4  181.08   10.40
   4   8   4  189.78   10.20
   4   8   4  194.08   10.90
  -5  -8  -4   18.30    4.10
  -5  -8  -4   16.10    3.80
   5   8   4   14.50    4.60
   5   8   4   15.20    4.30
   5   8   4   18.80    4.70
  -6  -8  -4    9.60    2.70
  -6  -8  -4    9.50    3.60
  -6  -8  -4   10.20    3.00
  -6  -8  -4   -4.50    8.80
   6   8   4    3.80    3.00
   6   8   4    2.90    3.80
   6   8   4   -0.70    3.40
  -7  -8  -4    7.60    3.40
  -7  -8  -4   14.70    7.90
  -7  -8  -4    7.90    3.70
  -7  -8  -4   11.60    3.10
   7   8   4    6.20    4.60
   7   8   4   16.00    4.20
   7   8   4    6.30    3.40
  -8  -8  -4  114.09    8.00
  -8  -8  -4  114.69    7.50
  -8  -8  -4  137.69    8.90
   8   8   4  129.39    9.90
   8   8   4  117.19   11.90
   8   8   4  119.69    9.60
  -9  -8  -4   36.90    5.60
  -9  -8  -4   33.20    4.80
  -9  -8  -4   46.00    6.50
   9   8   4   33.30    6.00
   9   8   4   39.20    6.90
   9   8   4   34.40    7.90
 -10  -8  -4   62.59    7.80
 -10  -8  -4   64.59    8.00
  10   8   4   56.99    7.80
  10   8   4   53.79   10.00
  10   8   4   63.29    8.60
 -11  -8  -4   38.40    6.50
 -11  -8  -4   32.80    6.00
  11   8   4   41.00    6.90
  11   8   4   16.80    8.10
  11   8   4   32.50    6.40
 -12  -8  -4   -2.90    3.00
 -12  -8  -4   -1.20    4.70
  12   8   4   -2.80    3.20
  12   8   4    4.30    5.50
  12   8   4   -6.40    6.80
   4  -9  -4   -6.60    6.10
  -4   9   4    2.40    4.60
   3  -9  -4    6.60    5.90
   3  -9  -4    8.40    4.60
   3  -9  -4    1.60    7.00
  -3   9   4   13.50    4.80
  -3   9   4   17.60    5.50
   2  -9  -4    4.20    6.40
   2  -9  -4    2.60    4.70
   2  -9  -4   -1.30    2.40
  -2   9   4   -1.20    3.60
  -2   9   4    4.20    3.80
   1  -9  -4   -1.70    5.40
   1  -9  -4    7.60    3.30
   1  -9  -4    6.20    4.10
  -1   9   4    2.10    2.90
  -1   9   4    2.90    3.50
   0  -9  -4    9.40    3.60
   0  -9  -4    6.60    3.60
   0  -9  -4    3.90    3.50
   0  -9  -4    6.50    5.20
   0   9   4    4.40    3.60
   0   9   4    8.50    3.20
   0   9   4    4.20    3.90
  -1  -9  -4   -0.80    2.50
  -1  -9  -4   -1.40    4.80
  -1  -9  -4    1.80    2.20
   1   9   4    0.90    2.20
   1   9   4   -0.70    3.40
   1   9   4    2.50    2.40
  -2  -9  -4   15.30    6.90
  -2  -9  -4   21.40    4.20
  -2  -9  -4   26.30    4.70
   2   9   4   13.20    3.80
   2   9   4   21.50    3.40
   2   9   4   17.70    4.70
  -3  -9  -4   29.90    4.60
  -3  -9  -4   33.50    5.00
  -3  -9  -4    8.50   10.60
   3   9   4   23.60    5.20
   3   9   4   18.10    3.40
  -4  -9  -4   29.40    4.50
  -4  -9  -4   33.80   15.60
  -4  -9  -4   20.20    3.80
   4   9   4   29.00    5.10
   4   9   4   22.80    5.30
   4   9   4   23.50    4.40
  -5  -9  -4   55.89    6.30
  -5  -9  -4   48.60   14.80
  -5  -9  -4   48.30    5.20
   5   9   4   44.90    6.40
   5   9   4   36.20    6.00
  -6  -9  -4    1.70    2.30
  -6  -9  -4   -3.00    3.00
  -6  -9  -4    1.90    2.50
  -6  -9  -4  -20.90    8.90
   6   9   4   -3.80    2.90
   6   9   4   -1.10    2.60
   6   9   4    0.20    3.70
  -7  -9  -4   33.30    5.20
  -7  -9  -4   31.10    4.90
  -7  -9  -4   45.30   12.50
  -7  -9  -4   41.20    4.90
   7   9   4   45.30    7.00
   7   9   4   42.00    6.50
   7   9   4   31.00    6.50
  -8  -9  -4    6.80    3.10
  -8  -9  -4   10.40    3.00
  -8  -9  -4    8.10    4.10
   8   9   4    1.20    4.30
   8   9   4   21.10    4.90
   8   9   4    9.80    5.70
  -9  -9  -4   15.30    4.80
  -9  -9  -4   17.00    4.60
   9   9   4   15.70    5.40
   9   9   4   23.40    6.20
   9   9   4   16.20    5.50
 -10  -9  -4   -2.00    2.70
 -10  -9  -4   -4.50    3.80
  10   9   4    1.90    3.50
  10   9   4   -3.40    5.20
  10   9   4    6.40    4.80
 -11  -9  -4    6.00    4.60
 -11  -9  -4    7.70    5.10
  11   9   4   -3.40    6.00
  11   9   4   18.20    6.20
  11   9   4   20.20    6.30
 -12  -9  -4   14.60    6.40
 -12  -9  -4   22.70    6.80
  12   9   4   16.90    6.60
  12   9   4   29.00    7.60
   3 -10  -4   11.40    6.70
   2 -10  -4   27.00    7.10
   2 -10  -4   28.20    6.30
   2 -10  -4   24.20   10.10
  -2  10   4   40.50    6.40
  -2  10   4   27.20    7.00
   1 -10  -4   13.80    5.10
   1 -10  -4    2.80    4.10
   1 -10  -4    7.60    7.70
  -1  10   4    9.80    3.60
  -1  10   4   13.00    5.70
   0 -10  -4    4.30    3.80
   0 -10  -4    1.50    5.80
   0  10   4   -0.60    3.70
   0  10   4    8.60    3.60
  -1 -10  -4    3.30    3.30
  -1 -10  -4   -2.30    7.80
  -1 -10  -4   -0.10    2.30
   1  10   4   -0.40    3.70
   1  10   4    2.00    3.90
  -2 -10  -4   -2.50    7.40
  -2 -10  -4    0.60    3.20
  -2 -10  -4    8.90    3.80
   2  10   4    6.90    3.60
   2  10   4    4.30    4.30
  -3 -10  -4   -1.70    2.80
  -3 -10  -4   -1.30    2.20
  -3 -10  -4   40.40   15.60
   3  10   4    5.70    4.00
  -4 -10  -4    2.60    2.50
  -4 -10  -4   -1.50    2.90
  -4 -10  -4    0.90   16.80
   4  10   4    3.90    4.00
   4  10   4   -0.40    3.40
  -5 -10  -4   99.89    8.10
  -5 -10  -4   86.69   22.40
  -5 -10  -4   99.99    8.10
   5  10   4  103.19    9.10
   5  10   4   94.29    9.20
   5  10   4   99.19    9.30
  -6 -10  -4   -0.20    2.40
  -6 -10  -4   -2.70    1.90
  -6 -10  -4   -0.40    3.20
   6  10   4    0.50    3.60
   6  10   4    3.80    4.40
   6  10   4   -0.30    2.70
  -7 -10  -4    2.90    4.00
  -7 -10  -4   10.40    3.50
  -7 -10  -4   13.50    8.90
  -7 -10  -4    7.80    2.90
   7  10   4    6.00    4.70
   7  10   4   -0.50    4.10
   7  10   4    9.50    4.10
  -8 -10  -4    4.70    4.10
  -8 -10  -4   14.40   10.10
  -8 -10  -4    0.60    2.60
   8  10   4   -5.10    4.50
   8  10   4    3.10    3.40
   8  10   4    2.10    4.20
  -9 -10  -4   -1.40    3.50
  -9 -10  -4    0.00    3.00
   9  10   4   -6.40    4.70
   9  10   4    1.50    4.70
   9  10   4    2.70    4.40
 -10 -10  -4    2.60    3.30
 -10 -10  -4    1.10    3.00
  10  10   4    2.90    4.10
  10  10   4    1.60    4.90
  10  10   4   -9.60    4.70
 -11 -10  -4   -2.70    4.00
 -11 -10  -4    6.60    4.80
  11  10   4    3.50    7.10
  11  10   4    8.80    4.90
  11  10   4    7.60    6.00
 -12 -10  -4   12.70    6.00
   0 -11  -4   -1.10    4.20
   0 -11  -4   -6.70    5.80
   0  11   4    2.60    4.70
  -1 -11  -4   -6.40    9.00
  -1 -11  -4    0.80    4.00
   1  11   4    0.00    4.30
  -2 -11  -4    7.60   11.70
  -2 -11  -4   -5.50    1.70
  -2 -11  -4    0.70    3.40
   2  11   4    2.70    4.20
   2  11   4   -1.20    4.40
  -6 -11  -4    9.20    3.90
  -6 -11  -4   56.89   19.50
  -6 -11  -4   10.30    4.50
   6  11   4    7.60    4.20
  -7 -11  -4    1.60    3.30
  -7 -11  -4    4.30    3.30
   7  11   4   -2.90    4.30
   7  11   4    9.80    5.30
   7  11   4    5.10    5.30
  -8 -11  -4    0.20    2.90
  -8 -11  -4    1.60    3.60
  -8 -11  -4   -8.10   11.00
   8  11   4    4.70    4.90
   8  11   4   -4.80    4.30
   8  11   4    7.40    5.00
  -9 -11  -4    4.10    4.60
  -9 -11  -4    6.60    4.30
   9  11   4    4.00    5.10
   9  11   4   10.10    4.80
   9  11   4   -1.70    5.20
 -10 -11  -4   -2.00    2.90
 -10 -11  -4    1.90    4.80
  10  11   4   -3.80    3.50
  10  11   4   -4.80    4.20
  10  11   4   -6.70    5.50
 -11 -11  -4    1.10    5.10
 -11 -11  -4   -2.90    4.80
  11  11   4   -7.00    6.20
  11  11   4   12.00    6.30
  11  11   4   12.20    6.60
  -2 -12  -4    0.10    3.10
  -2 -12  -4  -51.79   22.50
   2  12   4    3.20    5.30
  -3 -12  -4  -56.79   22.40
  -3 -12  -4   16.30    5.50
  -3 -12  -4    9.20    5.00
  -4 -12  -4    9.60    4.30
  -4 -12  -4   15.80    4.60
  -4 -12  -4  -39.50   21.50
   4  12   4    5.10    4.30
   4  12   4   10.60    5.80
  -5 -12  -4  -28.40   20.30
  -5 -12  -4    3.20    4.40
  -5 -12  -4   -0.70    4.00
   5  12   4    3.10    4.90
   5  12   4    7.40    5.30
  -6 -12  -4    0.50    4.20
  -6 -12  -4   -2.40   10.20
  -6 -12  -4    1.40    4.00
   6  12   4   12.40    5.90
  -7 -12  -4   -2.00    3.10
  -7 -12  -4   -4.60    2.20
  -7 -12  -4   11.60   12.30
   7  12   4    2.20    4.90
   7  12   4    5.70    5.40
  -8 -12  -4    2.20    3.70
  -8 -12  -4   -2.90   14.00
  -8 -12  -4    6.20    3.90
   8  12   4   12.80    6.50
   8  12   4    7.60    5.60
  -9 -12  -4   -2.60    4.30
  -9 -12  -4    2.70    3.60
   9  12   4  -14.10    4.10
   9  12   4    1.90    5.80
   9  12   4    6.50    5.80
 -10 -12  -4    3.30    4.20
 -10 -12  -4    9.80    5.60
  10  12   4   -5.10    6.20
  10  12   4    7.60    5.20
  -5 -13  -4   27.70    7.00
  -6 -13  -4    2.20    3.50
  -7 -13  -4   -2.40    4.60
   7  13   4    3.00    5.40
  -8 -13  -4   -7.90    4.40
   8  13   4    8.30    6.40
  -9 -13  -4    5.70    5.10
   9  13   4    4.60    6.00
  -8 -12   5    0.60    5.20
   7  12  -5   -1.80    3.80
  -7 -12   5   -1.90    4.10
   6  12  -5    0.50    5.40
  -6 -12   5    2.70    4.50
   5  12  -5   49.00    9.80
  -5 -12   5   43.10    7.20
  -4 -12   5    5.80    4.00
   9  11  -5   -2.20    4.10
   9  11  -5    0.90    5.60
   8  11  -5   -3.50    5.30
   8  11  -5   -2.80    4.50
   8  11  -5    0.60    5.30
  -8 -11   5    0.40    4.70
  -8 -11   5    2.50    4.30
   7  11  -5    3.50    4.90
   7  11  -5    4.60    4.50
   7  11  -5    1.00    4.50
  -7 -11   5    1.60    3.90
  -7 -11   5   -1.20    4.30
   6  11  -5    3.50    4.70
   6  11  -5  -11.10    4.30
   6  11  -5   -3.20    4.00
  -6 -11   5    3.40    4.10
  -6 -11   5   -1.20    3.70
   5  11  -5    4.80    4.30
   5  11  -5   -2.50    4.10
   5  11  -5    2.50    3.40
  -5 -11   5    3.50    3.40
  -5 -11   5    4.60    4.30
   4  11  -5    2.30    3.50
   4  11  -5    0.50    4.10
   4  11  -5    0.10    5.90
  -4 -11   5    5.40    3.90
  -4 -11   5    2.20    4.20
   3  11  -5    4.40    5.20
   3  11  -5   -2.60    3.80
   3  11  -5    1.10    3.50
  -3 -11   5    1.60    3.20
  -2 -11   5    4.40    5.20
  10  10  -5    4.20    7.20
  10  10  -5   17.70    6.10
 -10 -10   5   12.00    4.90
   9  10  -5   -7.30    4.90
   9  10  -5    6.20    4.70
   9  10  -5   -1.70    4.50
  -9 -10   5    1.90    3.80
   8  10  -5    2.50    3.80
   8  10  -5   12.00    5.90
  -8 -10   5    0.40    4.40
  -8 -10   5    7.80    4.00
   7  10  -5    3.20    4.50
   7  10  -5   -6.30    4.30
   7  10  -5    3.80    4.80
  -7 -10   5    0.70    4.10
  -7 -10   5   -2.30    3.00
   6  10  -5    2.00    4.40
   6  10  -5    0.50    4.40
   6  10  -5   -1.30    3.20
  -6 -10   5    2.20    3.30
  -6 -10   5    1.60    2.80
   5  10  -5    5.20    4.50
   5  10  -5   -1.80    3.20
   5  10  -5    4.30    4.40
  -5 -10   5    1.60    3.50
  -5 -10   5   -0.70    2.20
   4  10  -5   26.80    6.50
   4  10  -5   36.70    7.10
   4  10  -5   37.60    7.40
  -4 -10   5   44.40    6.70
  -4 -10   5   30.50    5.60
   3  10  -5   33.90    7.00
   3  10  -5   41.00    7.50
   3  10  -5   29.60    6.50
  -3 -10   5   37.50    6.00
   2  10  -5   12.00    5.30
   2  10  -5    3.60    3.40
   2  10  -5   16.50    5.10
   2  10  -5   19.80    6.80
  -2 -10   5   15.70    5.10
   1  10  -5    1.60    3.80
   1  10  -5   -6.20    3.60
   1  10  -5   -2.70    4.50
  -1 -10   5   -1.90    2.60
   0  10  -5   11.30    5.90
   0  10  -5   11.60    5.00
   0  10  -5    9.20    6.30
   0 -10   5   14.10    5.30
  11   9  -5    5.50    4.20
 -11  -9   5   -3.70    4.10
  10   9  -5   11.00    4.80
  10   9  -5    4.00    5.80
 -10  -9   5    7.60    4.00
   9   9  -5   -1.00    3.60
   9   9  -5   -1.00    3.20
   9   9  -5   -2.70    3.80
  -9  -9   5    0.30    3.10
   8   9  -5    8.40    4.70
   8   9  -5    0.40    4.90
  -8  -9   5    4.40    3.40
  -8  -9   5    3.80    3.60
   7   9  -5    3.00    3.40
   7   9  -5    3.50    3.90
   7   9  -5    3.90    3.50
  -7  -9   5    3.40    4.10
  -7  -9   5    5.10    3.30
   6   9  -5   -0.40    3.90
   6   9  -5    1.40    2.70
   6   9  -5    1.80    4.00
  -6  -9   5   -2.50    2.10
  -6  -9   5   -0.40    2.90
   5   9  -5    5.20    3.60
   5   9  -5    1.40    3.10
   5   9  -5   -0.10    2.60
  -5  -9   5    2.30    3.20
  -5  -9   5   -0.30    2.80
   4   9  -5   30.10    5.10
   4   9  -5   31.10    6.60
   4   9  -5   23.40    5.00
   4   9  -5   31.80    6.40
  -4  -9   5   22.50    4.50
  -4  -9   5   30.50    5.00
  -4  -9   5   20.40    4.60
   3   9  -5   27.90    5.80
   3   9  -5   19.70    5.50
   3   9  -5   28.80    5.40
   3   9  -5   33.20    7.20
  -3  -9   5   29.90    4.70
  -3  -9   5   23.40    4.80
   2   9  -5   49.10    8.50
   2   9  -5   50.79    7.90
   2   9  -5   51.39    7.20
   2   9  -5   44.10    7.10
  -2  -9   5   49.80    6.00
  -2  -9   5   54.59    6.70
   1   9  -5   90.19    9.60
   1   9  -5   62.49    9.60
   1   9  -5   85.79    8.60
   1   9  -5   82.89    8.30
  -1  -9   5   86.29    7.60
  -1  -9   5   86.39    8.00
   0   9  -5    0.00    3.70
   0   9  -5    9.60    4.10
   0   9  -5    1.80    3.10
   0   9  -5   -1.10    2.90
   0  -9   5    2.90    3.80
   0  -9   5    0.70    2.70
  -1   9  -5    0.20    4.60
  -1   9  -5    0.20    4.00
  -1   9  -5    0.50    4.70
   1  -9   5   -1.60    3.40
   1  -9   5    0.30    4.00
  -2   9  -5   -1.30    4.80
  -2   9  -5   -1.30    5.10
  -2   9  -5   -4.70    2.70
   2  -9   5    2.10    4.70
   2  -9   5   -3.70    3.40
  -3   9  -5    2.30    4.10
  -3   9  -5   -4.30    5.00
  11   8  -5    5.40    7.20
  11   8  -5    5.10    4.60
  11   8  -5    7.60    4.60
 -11  -8   5    3.00    4.10
  10   8  -5   41.00    8.90
  10   8  -5   38.10    6.30
  10   8  -5   46.20    8.30
 -10  -8   5   30.30    5.30
   9   8  -5   28.80    5.40
   9   8  -5   19.80    6.10
   9   8  -5   11.80    4.80
  -9  -8   5   32.60    5.10
   8   8  -5    8.30    4.10
   8   8  -5   13.10    4.20
   8   8  -5    6.90    5.50
  -8  -8   5    4.30    3.30
   7   8  -5    1.30    3.40
   7   8  -5    0.30    3.00
   7   8  -5   -5.50    2.90
  -7  -8   5    2.40    2.90
  -7  -8   5   -1.80    2.50
   6   8  -5   -3.10    2.90
   6   8  -5    3.40    3.10
   6   8  -5    1.40    3.00
  -6  -8   5   -0.20    3.10
  -6  -8   5   -2.00    2.50
   5   8  -5    0.50    2.50
   5   8  -5    0.10    2.90
   5   8  -5    3.30    2.80
   5   8  -5    0.50    2.60
  -5  -8   5    0.20    2.90
  -5  -8   5    2.80    2.50
  -5  -8   5   -2.40    2.40
   4   8  -5   12.20    3.70
   4   8  -5   18.10    4.80
   4   8  -5   16.40    5.10
   4   8  -5   16.00    4.60
  -4  -8   5   29.40    4.70
  -4  -8   5   23.30    4.80
  -4  -8   5   17.60    3.40
   3   8  -5   42.50    6.40
   3   8  -5   39.70    5.60
   3   8  -5   40.70    6.80
   3   8  -5   30.30    6.20
  -3  -8   5   40.20    4.80
  -3  -8   5   30.60    4.70
   2   8  -5   21.90    4.40
   2   8  -5   12.50    4.70
   2   8  -5   21.70    5.20
   2   8  -5   20.20    4.90
  -2  -8   5   21.00    3.90
  -2  -8   5   22.90    4.50
   1   8  -5    0.10    3.50
   1   8  -5   -0.30    3.10
   1   8  -5    8.40    4.20
   1   8  -5    1.80    3.00
  -1  -8   5   -1.10    2.80
  -1  -8   5   -2.10    2.50
   0   8  -5    1.40    2.70
   0   8  -5    1.70    3.10
   0   8  -5   -0.20    3.10
   0  -8   5    1.50    3.50
   0  -8   5    2.60    3.20
  -1   8  -5   -2.20    2.50
  -1   8  -5    2.60    3.60
  -1   8  -5    1.50    3.90
   1  -8   5    1.10    3.70
   1  -8   5    2.60    2.50
  -2   8  -5    0.40    2.80
  -2   8  -5   -0.70    2.70
  -2   8  -5   -1.30    2.60
   2  -8   5   -1.10    2.60
   2  -8   5   -0.20    2.60
  -3   8  -5   -3.70    4.50
  -3   8  -5   -1.50    4.10
  -3   8  -5   -0.60    4.20
   3  -8   5   -0.60    3.20
   3  -8   5   -2.20    3.80
  -4   8  -5   -1.00    3.50
  -4   8  -5   -0.60    3.60
   4  -8   5   -6.90    4.30
  11   7  -5   36.90   10.00
  11   7  -5   26.50    5.80
  11   7  -5   37.00    8.00
 -11  -7   5   35.60    5.80
  10   7  -5   -5.60    4.50
  10   7  -5    9.20    5.20
  10   7  -5    1.30    3.40
 -10  -7   5   -3.10    2.50
   9   7  -5    3.90    5.00
   9   7  -5    6.30    3.50
  -9  -7   5   12.50    3.70
   8   7  -5   17.70    6.00
   8   7  -5   33.10    5.60
   8   7  -5   28.60    5.10
  -8  -7   5   25.80    4.30
   7   7  -5   10.80    3.80
   7   7  -5    5.40    4.70
  -7  -7   5   13.50    3.50
  -7  -7   5    6.00    3.40
   6   7  -5    3.30    2.00
   6   7  -5    7.10    2.90
   6   7  -5    8.20    4.50
   6   7  -5    7.80    3.50
  -6  -7   5    4.10    2.90
  -6  -7   5    6.00    2.30
  -6  -7   5    7.70    2.90
   5   7  -5    4.40    3.50
   5   7  -5    4.60    3.00
   5   7  -5    1.90    2.30
   5   7  -5    1.80    2.10
  -5  -7   5    1.80    2.00
  -5  -7   5    5.90    2.90
  -5  -7   5    1.70    2.30
   4   7  -5   -0.10    2.30
   4   7  -5   -1.70    2.90
   4   7  -5   -0.90    2.00
  -4  -7   5   -3.30    1.60
  -4  -7   5    1.80    3.00
  -4  -7   5   -1.50    2.20
   3   7  -5   46.30    5.10
   3   7  -5   35.90    6.00
   3   7  -5   42.60    6.80
   3   7  -5   35.90    5.40
  -3  -7   5   48.80    4.90
  -3  -7   5   42.80    4.20
   2   7  -5    1.30    2.60
   2   7  -5    5.50    2.80
   2   7  -5    1.70    2.30
   2   7  -5    4.10    2.80
   2   7  -5   -0.10    1.80
  -2  -7   5    5.90    2.20
  -2  -7   5    9.60    3.10
   1   7  -5   43.60    5.80
   1   7  -5   50.29    6.50
   1   7  -5   50.19    7.10
   1   7  -5   62.49    5.70
  -1  -7   5   56.89    5.40
  -1  -7   5   58.79    5.70
   0   7  -5    8.80    3.20
   0   7  -5    5.70    2.60
   0   7  -5    9.50    3.80
   0   7  -5    4.50    2.90
   0  -7   5    7.30    2.60
   0  -7   5    4.80    3.30
  -1   7  -5   -2.10    2.30
  -1   7  -5    1.00    3.00
  -1   7  -5   -2.20    2.00
  -1   7  -5   -1.70    3.10
   1  -7   5    1.00    3.40
   1  -7   5   -3.20    4.00
   1  -7   5    1.20    2.30
  -2   7  -5    3.60    3.80
  -2   7  -5    2.70    4.00
  -2   7  -5    3.70    3.00
  -2   7  -5   -0.50    3.30
   2  -7   5    5.40    3.90
   2  -7   5   -1.60    2.30
  -3   7  -5    1.00    3.20
  -3   7  -5    1.80    3.70
  -3   7  -5   -2.10    3.50
  -3   7  -5   -0.90    3.80
   3  -7   5    2.30    4.00
   3  -7   5   -2.00    3.20
  -4   7  -5   34.40    6.90
  -4   7  -5   40.90    7.40
  -4   7  -5   25.40    6.10
  -4   7  -5   28.00    6.50
   4  -7   5   38.10    6.60
   4  -7   5   36.50    6.90
  -5   7  -5    3.80    5.00
  -5   7  -5   -0.40    4.40
   5  -7   5   10.50    5.40
 -12  -6   5    1.90    4.20
  11   6  -5    8.80    6.60
  11   6  -5    4.60    3.70
  11   6  -5   18.00    6.60
 -11  -6   5    6.60    3.60
  10   6  -5   23.40    6.30
  10   6  -5    9.90    6.30
  10   6  -5   13.70    4.20
 -10  -6   5   14.20    4.00
   9   6  -5    3.50    3.10
   9   6  -5    8.00    4.80
   9   6  -5    0.70    4.20
  -9  -6   5    0.70    2.90
  -9  -6   5   -1.60    2.30
   8   6  -5    0.90    3.00
   8   6  -5    3.30    2.90
   8   6  -5    2.00    2.40
  -8  -6   5    5.70    2.80
  -8  -6   5    0.80    2.40
   7   6  -5   21.20    5.50
   7   6  -5   17.20    3.80
   7   6  -5   16.40    3.70
  -7  -6   5   20.60    3.60
  -7  -6   5   25.80    5.00
  -7  -6   5   26.40    3.70
   6   6  -5  174.48   10.20
   6   6  -5  170.48    9.00
   6   6  -5  156.58    8.10
   6   6  -5  174.78   13.40
  -6  -6   5  189.38    8.40
  -6  -6   5  172.08    7.30
  -6  -6   5  160.98    7.20
  -6  -6   5  162.48    9.60
   5   6  -5  191.48   13.20
   5   6  -5  200.18    9.70
   5   6  -5  209.08   11.90
   5   6  -5  199.78    8.90
  -5  -6   5  210.98    8.20
  -5  -6   5  204.78    8.00
  -5  -6   5  219.38    8.90
  -5  -6   5  196.48   10.60
   4   6  -5   -0.20    2.00
   4   6  -5   -1.20    1.40
   4   6  -5    3.30    3.40
   4   6  -5    2.90    2.30
   4   6  -5   -2.00    1.70
  -4  -6   5   -3.60    1.90
  -4  -6   5   -1.40    2.30
  -4  -6   5   -2.90    1.50
  -4  -6   5   -5.10    1.60
   3   6  -5  126.69    5.90
   3   6  -5  126.39    7.00
   3   6  -5  115.49    7.40
   3   6  -5  117.09    9.20
   3   6  -5  107.89    9.80
  -3  -6   5  110.99    6.40
  -3  -6   5  129.79    7.10
  -3  -6   5  121.49    6.10
   2   6  -5   19.20    3.50
   2   6  -5   24.50    3.90
   2   6  -5   26.50    4.80
   2   6  -5   30.60    3.40
  -2  -6   5   23.20    3.40
  -2  -6   5   20.40    3.20
   1   6  -5   -0.20    1.80
   1   6  -5   -3.10    2.50
   1   6  -5    0.80    1.80
   1   6  -5   -1.60    2.00
  -1  -6   5    2.10    2.40
  -1  -6   5    0.80    2.10
   0   6  -5    2.50    2.70
   0   6  -5    2.40    2.30
   0   6  -5   -2.00    2.00
   0   6  -5    1.90    2.60
   0  -6   5    0.30    1.90
   0  -6   5    4.90    2.70
  -1   6  -5    6.00    3.50
  -1   6  -5    6.70    4.10
  -1   6  -5    4.50    3.10
  -1   6  -5   12.50    3.90
   1  -6   5   10.10    3.10
   1  -6   5    6.00    4.00
   1  -6   5    3.90    2.80
  -2   6  -5   76.89    7.20
  -2   6  -5   97.29    9.40
  -2   6  -5   78.69    7.40
  -2   6  -5   77.49    8.00
   2  -6   5   80.29    7.20
   2  -6   5   74.99    6.80
  -3   6  -5   14.40    4.90
  -3   6  -5   15.50    4.50
  -3   6  -5   27.10    5.50
  -3   6  -5   19.60    5.10
   3  -6   5   21.70    4.50
   3  -6   5   22.70    4.40
  -4   6  -5    0.50    3.50
  -4   6  -5    9.30    4.50
  -4   6  -5    4.00    4.20
  -4   6  -5    0.80    3.20
   4  -6   5    6.30    4.00
   4  -6   5    2.10    3.10
  -5   6  -5   -1.60    2.80
  -5   6  -5   -5.90    3.80
  -5   6  -5    0.60    3.10
  -5   6  -5    0.90    3.70
   5  -6   5   -1.80    2.80
   5  -6   5    4.40    4.20
  -6   6  -5   -4.80    3.10
  -6   6  -5    1.70    3.90
   6  -6   5   -0.90    4.60
  12   5  -5   -5.50    6.50
 -12  -5   5    3.40    4.00
 -12  -5   5    0.50    4.00
  11   5  -5    4.70    4.10
  11   5  -5    2.50    3.40
  11   5  -5    4.90    4.90
 -11  -5   5   -0.30    3.00
 -11  -5   5   -0.60    4.20
  10   5  -5   10.00    5.40
  10   5  -5    1.20    2.90
  10   5  -5    3.10    3.90
 -10  -5   5    6.70    3.30
 -10  -5   5    3.20    3.40
   9   5  -5    6.30    3.90
   9   5  -5    4.40    3.10
   9   5  -5    2.90    4.50
  -9  -5   5    6.70    3.00
  -9  -5   5    4.50    3.30
   8   5  -5   -0.20    1.90
   8   5  -5    1.00    2.40
   8   5  -5    2.10    4.00
   8   5  -5   -0.90    2.50
  -8  -5   5    2.80    2.20
  -8  -5   5   -1.60    2.10
   7   5  -5   32.50    4.50
   7   5  -5   29.10    4.20
   7   5  -5   30.70    6.40
  -7  -5   5   33.40    4.00
  -7  -5   5   33.80    4.30
   6   5  -5  368.56   13.50
   6   5  -5  365.86   12.50
   6   5  -5  349.87   19.10
   6   5  -5  367.76   15.20
  -6  -5   5  376.16   12.30
  -6  -5   5  358.46   11.30
  -6  -5   5  356.96   12.40
  -6  -5   5  353.76   14.90
   5   5  -5    8.40    2.50
   5   5  -5    4.50    3.00
   5   5  -5    7.90    2.60
   5   5  -5    7.20    2.10
   5   5  -5    8.40    2.90
  -5  -5   5    7.10    2.50
  -5  -5   5    8.60    2.50
  -5  -5   5    7.80    1.90
  -5  -5   5    8.00    3.00
  -5  -5   5    8.80    2.40
   4   5  -5  162.08    7.80
   4   5  -5  171.58    9.60
   4   5  -5  157.58    5.70
   4   5  -5  170.08    6.80
   4   5  -5  164.38    7.20
   4   5  -5  149.49   10.80
  -4  -5   5  160.78    6.90
  -4  -5   5  156.98    8.40
  -4  -5   5  158.18    7.20
  -4  -5   5  162.08    6.40
  -4  -5   5  169.08    6.90
   3   5  -5    0.80    1.50
   3   5  -5    2.60    2.00
   3   5  -5    1.50    2.20
   3   5  -5    0.60    1.00
   3   5  -5   -1.30    1.50
   3   5  -5   -1.00    1.40
  -3  -5   5    1.50    1.80
  -3  -5   5   -1.50    1.50
  -3  -5   5   -0.30    1.30
   2   5  -5   94.29    5.60
   2   5  -5   83.09    7.30
   2   5  -5   87.69    5.10
   2   5  -5   92.89    5.10
   2   5  -5   82.39    5.60
  -2  -5   5   85.39    4.70
  -2  -5   5   85.29    4.90
  -2  -5   5   92.09    5.20
  -2  -5   5   76.09    5.70
  -2  -5   5   85.99    5.20
   1   5  -5   23.90    3.50
   1   5  -5   22.20    4.10
   1   5  -5   19.00    3.60
   1   5  -5   18.40    3.10
  -1  -5   5   21.40    3.30
  -1  -5   5   20.60    3.00
  -1  -5   5   22.80    3.30
  -1  -5   5   22.60    3.60
   0   5  -5   94.59    6.60
   0   5  -5  101.89    8.80
   0   5  -5   98.29    6.40
   0   5  -5   96.89    8.20
   0   5  -5   94.99    6.80
   0  -5   5   91.69    5.90
   0  -5   5   95.39    6.10
   0  -5   5   98.89    5.80
  -1   5  -5  230.28   12.50
  -1   5  -5  213.88   10.70
  -1   5  -5  212.18    9.90
  -1   5  -5  218.68   11.40
   1  -5   5  198.18    9.00
   1  -5   5  203.38    9.20
   1  -5   5  221.38    9.80
  -2   5  -5  310.07   13.60
  -2   5  -5  294.37   15.20
  -2   5  -5  307.47   15.00
  -2   5  -5  332.97   13.70
   2  -5   5  338.87   12.90
   2  -5   5  342.77   13.30
   2  -5   5  289.97   17.80
   2  -5   5  323.97   11.80
  -3   5  -5   31.60    6.10
  -3   5  -5   34.70    5.20
  -3   5  -5   27.80    5.30
  -3   5  -5   36.40    5.70
   3  -5   5   37.50    3.90
   3  -5   5   39.80    5.40
   3  -5   5   26.90    4.70
  -4   5  -5   -0.20    2.40
  -4   5  -5   -3.20    2.50
  -4   5  -5   -1.60    2.10
  -4   5  -5   -0.80    2.40
   4  -5   5   -2.70    2.10
   4  -5   5    1.00    2.50
  -5   5  -5   21.80    5.30
  -5   5  -5   18.50    4.90
  -5   5  -5   12.60    5.60
  -5   5  -5   19.60    5.50
   5  -5   5   14.60    5.00
   5  -5   5   15.80    4.30
   5  -5   5   20.10    5.70
  -6   5  -5   24.70    5.70
  -6   5  -5   28.40    6.40
  -6   5  -5   27.90    6.60
   6  -5   5   30.20    6.40
   6  -5   5   28.50    6.00
   6  -5   5   28.10    8.10
  -7   5  -5   11.40    4.90
  -7   5  -5   10.30    6.50
   7  -5   5   -2.70    4.40
  12   4  -5   -1.00    6.40
 -12  -4   5   -2.40    3.90
 -12  -4   5    7.30    4.70
  11   4  -5    1.60    4.50
  11   4  -5    1.00    3.10
  11   4  -5    3.50    6.60
 -11  -4   5   -1.90    3.90
 -11  -4   5   -5.50    2.60
  10   4  -5   15.10    6.60
  10   4  -5   15.20    4.30
  10   4  -5   15.50    6.10
 -10  -4   5   17.60    4.70
 -10  -4   5   10.40    3.30
   9   4  -5   -2.60    2.20
   9   4  -5   -1.30    2.80
   9   4  -5   -2.60    2.50
  -9  -4   5   -0.10    2.20
  -9  -4   5    3.70    3.20
   8   4  -5   10.40    5.10
   8   4  -5    9.50    2.90
   8   4  -5    4.20    4.10
  -8  -4   5    9.00    2.70
  -8  -4   5    8.50    3.40
   7   4  -5    6.70    2.40
   7   4  -5    8.60    2.40
   7   4  -5   11.10    4.70
   7   4  -5   12.50    2.90
  -7  -4   5   10.80    2.50
  -7  -4   5    8.50    3.30
   6   4  -5   90.79    6.30
   6   4  -5   88.69    5.60
   6   4  -5   98.19    5.20
   6   4  -5   95.39    4.20
   6   4  -5  108.99    9.80
   6   4  -5   87.99    4.70
  -6  -4   5   80.29    5.30
  -6  -4   5   92.49    7.30
  -6  -4   5   88.49    5.70
  -6  -4   5   93.69    5.30
  -6  -4   5   88.69    4.40
   5   4  -5   21.10    3.50
   5   4  -5   25.70    2.80
   5   4  -5   22.00    1.80
   5   4  -5   26.50    2.70
   5   4  -5   21.30    4.70
  -5  -4   5   20.60    2.90
  -5  -4   5   24.70    2.30
  -5  -4   5   21.40    3.20
  -5  -4   5   28.80    4.20
  -5  -4   5   22.50    2.70
   4   4  -5    0.00    0.60
   4   4  -5    1.80    1.40
   4   4  -5   -2.20    1.40
   4   4  -5   -1.00    1.10
   4   4  -5   -1.10    1.30
   4   4  -5    1.70    1.40
  -4  -4   5   -0.50    1.30
  -4  -4   5   -0.60    1.10
  -4  -4   5    1.80    1.70
  -4  -4   5   -2.40    2.10
  -4  -4   5    1.70    1.10
   3   4  -5   21.90    4.20
   3   4  -5   24.40    3.70
   3   4  -5   22.80    2.90
   3   4  -5   25.00    2.60
   3   4  -5   23.90    2.20
  -3  -4   5   27.00    2.80
  -3  -4   5   20.10    2.80
  -3  -4   5   25.10    2.20
  -3  -4   5   23.30    2.60
  -3  -4   5   26.80    3.70
   2   4  -5    2.70    2.10
   2   4  -5    0.90    1.30
   2   4  -5    1.50    1.50
   2   4  -5    0.90    1.10
   2   4  -5    0.80    1.20
  -2  -4   5    0.60    1.40
  -2  -4   5   -0.50    1.50
  -2  -4   5    0.30    1.90
  -2  -4   5    2.10    1.20
   1   4  -5    3.20    2.00
   1   4  -5    1.70    1.70
   1   4  -5    1.00    1.70
   1   4  -5    0.20    1.50
   1   4  -5    2.20    1.50
  -1  -4   5    2.80    1.70
  -1  -4   5    4.90    2.10
  -1  -4   5    5.70    1.80
  -1  -4   5    1.80    1.60
   0   4  -5   39.90    4.10
   0   4  -5   38.90    3.70
   0   4  -5   31.10    4.60
   0   4  -5   34.70    3.90
   0   4  -5   35.80    4.80
   0   4  -5   39.00    3.70
   0  -4   5   43.20    3.90
   0  -4   5   33.50    3.20
   0  -4   5   41.20    3.50
   0  -4   5   34.50    3.30
  -1   4  -5   80.69    6.20
  -1   4  -5   92.79    7.20
  -1   4  -5   78.99    5.60
  -1   4  -5   78.29    6.50
  -1   4  -5   73.49    5.80
   1  -4   5   73.19    4.90
   1  -4   5   81.59    5.00
   1  -4   5   81.49    5.10
  -2   4  -5    5.90    3.30
  -2   4  -5    8.50    3.00
  -2   4  -5    8.20    3.30
  -2   4  -5    8.30    3.20
   2  -4   5    5.80    2.70
   2  -4   5    6.70    2.80
   2  -4   5    9.70    2.40
  -3   4  -5   14.60    4.30
  -3   4  -5   11.60    3.90
  -3   4  -5   12.90    3.30
  -3   4  -5   13.40    3.50
   3  -4   5   15.50    2.90
   3  -4   5    6.90    2.90
   3  -4   5   19.40    3.90
   3  -4   5   10.10    3.60
  -4   4  -5   70.99    6.90
  -4   4  -5   60.99    7.40
  -4   4  -5   53.39    6.70
  -4   4  -5   70.09    7.30
   4  -4   5   59.09    7.70
   4  -4   5   63.39    5.90
   4  -4   5   53.79    5.50
  -5   4  -5    7.60    3.30
  -5   4  -5    9.50    4.50
  -5   4  -5   11.00    4.80
  -5   4  -5    7.30    3.30
   5  -4   5   10.30    4.10
   5  -4   5    2.00    2.70
   5  -4   5   14.70    5.00
  -6   4  -5    5.10    3.60
  -6   4  -5    0.80    3.00
  -6   4  -5    0.20    2.60
  -6   4  -5   -2.30    4.30
   6  -4   5    8.00    4.60
   6  -4   5    5.70    4.40
   6  -4   5    4.80    4.00
  -7   4  -5   18.00    5.80
  -7   4  -5   17.40    6.00
  -7   4  -5    3.90    3.60
   7  -4   5    7.10    4.70
   7  -4   5   13.50    5.10
   7  -4   5    6.40    6.40
  -8   4  -5   17.00    6.40
   8  -4   5   10.40    4.90
  12   3  -5   -6.00    6.00
 -12  -3   5    0.00    4.60
  11   3  -5   -9.80    4.30
  11   3  -5    3.60    6.70
  11   3  -5   -1.40    2.80
 -11  -3   5   -6.00    2.60
 -11  -3   5   -1.50    4.20
  10   3  -5   -3.40    4.10
  10   3  -5    1.30    4.70
  10   3  -5    1.10    2.80
 -10  -3   5    2.00    3.10
 -10  -3   5    7.70    4.70
   9   3  -5   24.70    4.30
   9   3  -5   19.60    5.80
   9   3  -5   23.10    6.80
  -9  -3   5   28.30    5.50
  -9  -3   5   22.30    4.10
   8   3  -5   19.70    3.60
   8   3  -5   19.70    5.60
   8   3  -5   18.20    5.20
  -8  -3   5   23.30    4.60
  -8  -3   5   22.10    3.40
   7   3  -5   22.10    5.60
   7   3  -5   22.10    3.60
   7   3  -5   20.10    5.20
   7   3  -5   26.00    3.00
  -7  -3   5   27.00    4.40
  -7  -3   5   29.70    3.50
   6   3  -5   11.10    3.50
   6   3  -5   12.80    2.40
   6   3  -5   12.20    2.30
   6   3  -5    9.50    2.00
   6   3  -5   11.70    2.20
   6   3  -5   14.50    2.70
  -6  -3   5    8.80    2.80
  -6  -3   5   11.20    2.30
   5   3  -5   -1.30    0.90
   5   3  -5    0.10    1.40
   5   3  -5    0.00    1.00
   5   3  -5   -0.90    1.20
   5   3  -5    0.40    1.40
  -5  -3   5    0.20    0.80
  -5  -3   5   -1.00    2.50
  -5  -3   5    1.00    1.40
  -5  -3   5    2.10    1.90
  -5  -3   5   -0.30    1.40
   4   3  -5   63.09    3.90
   4   3  -5   59.19    4.80
   4   3  -5   60.49    3.40
   4   3  -5   61.39    3.30
   4   3  -5   56.09    3.10
   4   3  -5   58.59    6.10
  -4  -3   5   63.29    3.20
  -4  -3   5   60.19    3.40
  -4  -3   5   62.59    4.40
  -4  -3   5   66.89    4.70
  -4  -3   5   59.39    3.60
  -4  -3   5   56.49    2.60
  -4  -3   5   51.19    4.50
   3   3  -5   22.70    3.40
   3   3  -5   25.00    2.50
   3   3  -5   29.40    2.20
   3   3  -5   30.00    2.40
   3   3  -5   32.70    2.40
   3   3  -5   23.30    4.10
  -3  -3   5   30.30    2.00
  -3  -3   5   27.90    3.30
  -3  -3   5   30.70    3.20
  -3  -3   5   35.10    4.20
  -3  -3   5   24.10    1.70
  -3  -3   5   29.00    2.50
  -3  -3   5   26.10    2.40
   2   3  -5  159.58    8.40
   2   3  -5  159.48    5.70
   2   3  -5  168.68    6.10
   2   3  -5  164.78    6.90
   2   3  -5  162.78    6.40
  -2  -3   5  162.88    5.80
  -2  -3   5  158.88    6.00
  -2  -3   5  171.58    7.50
  -2  -3   5  163.38    7.00
  -2  -3   5  174.58    6.10
   1   3  -5    1.20    1.70
   1   3  -5    0.70    1.70
   1   3  -5    1.40    1.10
   1   3  -5    1.30    1.00
   1   3  -5    5.00    1.50
   1   3  -5    1.00    1.50
  -1  -3   5    2.00    1.40
  -1  -3   5   -0.40    1.20
  -1  -3   5    1.00    1.70
  -1  -3   5    0.70    1.20
  -1  -3   5    2.50    1.50
   0   3  -5  570.94   16.60
   0   3  -5  485.15   25.80
   0   3  -5  593.34   16.10
   0   3  -5  585.24   16.30
   0   3  -5  566.54   20.00
   0   3  -5  559.14   18.80
   0  -3   5  557.54   15.40
   0  -3   5  552.84   15.70
   0  -3   5  574.34   16.00
   0  -3   5  573.44   17.30
  -1   3  -5   38.20    4.10
  -1   3  -5   48.60    4.20
  -1   3  -5   47.90    4.90
  -1   3  -5   49.60    4.00
  -1   3  -5   44.20    4.00
  -1   3  -5   45.90    3.90
   1  -3   5   53.59    3.90
   1  -3   5   43.00    3.50
   1  -3   5   49.90    4.00
   1  -3   5   49.90    3.70
  -2   3  -5   10.00    2.70
  -2   3  -5   15.30    3.20
  -2   3  -5   19.50    3.50
  -2   3  -5   14.00    3.00
   2  -3   5   18.30    3.10
   2  -3   5   11.50    2.80
   2  -3   5   13.70    2.70
  -3   3  -5   22.40    3.90
  -3   3  -5   24.90    4.20
  -3   3  -5   16.00    3.90
  -3   3  -5   24.20    4.60
   3  -3   5   19.70    3.20
   3  -3   5   16.70    2.90
   3  -3   5   19.00    3.40
  -4   3  -5    0.90    2.20
  -4   3  -5   -4.90    1.90
  -4   3  -5    1.80    2.50
  -4   3  -5   -2.40    1.60
   4  -3   5    5.70    3.00
   4  -3   5   -2.70    2.30
   4  -3   5   -1.20    1.60
   4  -3   5   -1.90    2.80
  -5   3  -5    7.10    3.10
  -5   3  -5    5.60    2.90
  -5   3  -5    4.50    2.90
  -5   3  -5   -1.50    2.90
   5  -3   5    2.30    4.40
   5  -3   5    8.20    3.00
   5  -3   5    6.70    2.90
  -6   3  -5    1.50    3.70
  -6   3  -5    3.30    2.60
  -6   3  -5   -0.50    3.40
  -6   3  -5   -4.30    2.60
   6  -3   5    3.60    2.90
   6  -3   5    2.70    3.30
   6  -3   5   -3.50    4.20
  -7   3  -5    5.50    5.00
  -7   3  -5   12.50    4.30
  -7   3  -5    6.30    3.70
   7  -3   5   14.50    4.70
   7  -3   5   19.90    5.90
   7  -3   5   10.10    4.80
  -8   3  -5    1.80    5.70
  -8   3  -5    5.90    3.90
  -8   3  -5   16.20    5.90
   8  -3   5    4.50    3.70
   8  -3   5   14.20    4.50
   8  -3   5    8.00    5.30
   9  -3   5    7.80    5.70
  11   2  -5   11.20    4.30
  11   2  -5    8.10    5.70
  11   2  -5    0.00    5.10
 -11  -2   5    8.30    5.30
 -11  -2   5    2.10    4.00
  10   2  -5    3.50    5.60
  10   2  -5   -8.70    3.50
  10   2  -5    5.90    3.10
 -10  -2   5   -1.70    2.40
 -10  -2   5   -6.00    3.50
   9   2  -5    5.30    5.50
   9   2  -5    6.70    4.30
   9   2  -5    4.40    2.90
  -9  -2   5    8.80    4.60
  -9  -2   5    8.30    3.30
   8   2  -5    1.70    2.10
   8   2  -5    0.50    4.20
   8   2  -5    1.80    3.10
  -8  -2   5   -0.30    1.90
  -8  -2   5    1.20    2.50
   7   2  -5    0.80    1.90
   7   2  -5    2.20    3.00
   7   2  -5    2.40    3.10
  -7  -2   5    2.60    1.80
  -7  -2   5    8.00    3.30
   6   2  -5   62.29    8.00
   6   2  -5   60.99    4.20
   6   2  -5   72.19    7.00
   6   2  -5   68.89    4.00
   6   2  -5   60.49    3.80
   6   2  -5   67.19    4.20
  -6  -2   5   62.39    5.50
  -6  -2   5   65.39    4.20
  -6  -2   5   67.99    4.40
   5   2  -5   58.29    6.00
   5   2  -5   61.89    3.20
   5   2  -5   55.69    3.20
   5   2  -5   61.09    3.80
   5   2  -5   59.19    4.20
  -5  -2   5   60.39    4.90
  -5  -2   5   61.99    3.80
  -5  -2   5   60.19    2.70
  -5  -2   5   60.59    3.40
  -5  -2   5   59.69    5.40
   4   2  -5   51.69    2.70
   4   2  -5   56.39    4.30
   4   2  -5   50.49    3.10
   4   2  -5   60.89    6.10
   4   2  -5   49.40    2.50
  -4  -2   5   54.29    4.40
  -4  -2   5   59.99    4.40
  -4  -2   5   50.39    1.70
  -4  -2   5   54.39    2.80
  -4  -2   5   46.90    4.20
  -4  -2   5   50.79    1.80
   3   2  -5    2.30    2.30
   3   2  -5    2.90    1.10
   3   2  -5    5.50    1.00
   3   2  -5    7.90    1.00
   3   2  -5    7.40    1.10
   3   2  -5    3.80    1.60
  -3  -2   5    6.20    1.90
  -3  -2   5    5.70    1.20
  -3  -2   5    7.60    2.30
  -3  -2   5    6.80    2.50
  -3  -2   5    5.30    1.10
   2   2  -5   45.90    4.20
   2   2  -5   45.20    2.60
   2   2  -5   48.30    2.30
   2   2  -5   47.30    3.30
   2   2  -5   45.60    2.10
  -2  -2   5   45.90    2.30
  -2  -2   5   46.70    1.70
  -2  -2   5   41.80    3.30
  -2  -2   5   44.90    1.60
  -2  -2   5   46.50    3.60
   1   2  -5   17.00    1.70
   1   2  -5   17.40    2.90
   1   2  -5   17.90    2.10
   1   2  -5   19.70    1.80
   1   2  -5   16.40    2.10
   1   2  -5   17.20    1.70
  -1  -2   5   17.10    1.80
  -1  -2   5   19.50    2.90
  -1  -2   5   17.20    1.50
  -1  -2   5   18.30    2.90
  -1  -2   5   18.70    2.00
   0   2  -5  219.38   11.60
   0   2  -5  205.38    7.20
   0   2  -5  215.88    7.20
   0   2  -5  206.68    9.70
   0   2  -5  211.68    7.50
   0   2  -5  213.98    8.90
   0  -2   5  206.18    6.70
   0  -2   5  217.48    7.30
   0  -2   5  207.78    7.00
   0  -2   5  220.88    8.50
  -1   2  -5  135.79    6.00
  -1   2  -5  134.49    7.90
  -1   2  -5  129.49    6.10
  -1   2  -5  141.89    7.30
  -1   2  -5  140.09    6.00
  -1   2  -5  135.89    7.20
   1  -2   5  134.49    5.70
   1  -2   5  145.69    6.00
   1  -2   5  137.29    5.90
   1  -2   5  141.89    6.50
  -2   2  -5   13.20    2.60
  -2   2  -5   10.20    2.40
  -2   2  -5   10.20    2.70
  -2   2  -5   15.50    2.50
  -2   2  -5    9.80    2.50
   2  -2   5   14.70    2.60
   2  -2   5   11.70    2.50
   2  -2   5   14.50    2.70
   2  -2   5   12.50    2.50
  -3   2  -5    5.00    1.90
  -3   2  -5    7.50    2.70
  -3   2  -5    6.10    2.40
  -3   2  -5    6.90    2.30
   3  -2   5    4.50    2.00
   3  -2   5    8.00    2.40
   3  -2   5    5.30    2.00
  -4   2  -5   16.00    3.20
  -4   2  -5   12.10    3.30
  -4   2  -5   11.20    3.20
  -4   2  -5   14.80    3.30
   4  -2   5   10.70    2.50
   4  -2   5   14.20    3.70
   4  -2   5   11.80    3.30
   4  -2   5   16.10    3.10
  -5   2  -5    2.10    2.10
  -5   2  -5   -1.90    2.00
  -5   2  -5   -4.30    1.70
  -5   2  -5   -2.90    1.50
   5  -2   5   -3.00    1.60
   5  -2   5   -0.60    1.70
   5  -2   5   -2.00    3.30
   5  -2   5   -1.90    1.70
  -6   2  -5    1.40    3.40
  -6   2  -5    0.80    2.20
  -6   2  -5    3.00    2.60
  -6   2  -5    1.00    3.20
   6  -2   5   -2.20    2.90
   6  -2   5   -3.90    3.60
   6  -2   5    0.50    2.20
  -7   2  -5    0.10    3.50
  -7   2  -5    2.40    2.60
  -7   2  -5    3.10    3.10
  -7   2  -5    4.30    3.60
   7  -2   5   -6.80    4.10
   7  -2   5    4.40    3.10
   7  -2   5    1.10    2.50
  -8   2  -5   -3.10    2.70
  -8   2  -5    4.50    4.20
  -8   2  -5    8.60    4.70
   8  -2   5   -2.40    5.30
   8  -2   5    0.40    3.90
   8  -2   5   -3.20    2.50
  -9   2  -5   -6.40    4.90
  -9   2  -5    4.40    4.00
  -9   2  -5   -1.20    3.00
   9  -2   5   -7.00    6.20
   9  -2   5    1.80    4.60
   9  -2   5   -2.10    3.10
  11   1  -5    2.60    4.00
 -11  -1   5    1.70    3.40
 -11  -1   5    4.50    5.40
  10   1  -5    6.90    5.80
  10   1  -5    9.10    6.40
  10   1  -5    9.30    3.80
 -10  -1   5   16.60    5.80
 -10  -1   5   14.40    4.00
   9   1  -5   13.30    5.10
   9   1  -5   30.10    4.70
   9   1  -5   24.90    6.40
  -9  -1   5   22.30    4.30
  -9  -1   5   24.10    6.00
   8   1  -5    2.10    3.10
   8   1  -5    3.20    3.50
   8   1  -5    7.30    2.70
  -8  -1   5   -4.10    2.00
  -8  -1   5    6.30    4.00
   7   1  -5    8.40    3.70
   7   1  -5   11.30    2.70
   7   1  -5    9.90    3.90
  -7  -1   5    5.10    2.30
  -7  -1   5    9.40    3.70
   6   1  -5    8.20    1.80
   6   1  -5    7.00    1.40
   6   1  -5   13.80    2.50
   6   1  -5    5.20    3.00
   6   1  -5    5.30    2.70
   6   1  -5    5.80    1.70
  -6  -1   5    7.00    2.10
  -6  -1   5    8.40    2.30
  -6  -1   5    9.70    3.40
   5   1  -5    0.40    0.90
   5   1  -5    0.00    0.90
   5   1  -5    0.20    0.90
   5   1  -5   -0.30    1.20
   5   1  -5   -1.40    1.60
   5   1  -5    0.80    1.90
  -5  -1   5   -0.10    1.20
  -5  -1   5    0.50    0.80
  -5  -1   5    2.30    1.50
  -5  -1   5   -1.10    1.30
   4   1  -5   -0.80    1.50
   4   1  -5    3.80    0.90
   4   1  -5    0.80    1.70
   4   1  -5    2.80    1.10
   4   1  -5    3.40    1.00
   4   1  -5    5.30    1.00
   4   1  -5    3.20    1.30
  -4  -1   5    7.60    2.50
  -4  -1   5    2.00    1.00
  -4  -1   5    4.00    2.00
  -4  -1   5    3.30    1.10
  -4  -1   5    3.40    1.80
   3   1  -5  289.87    6.70
   3   1  -5  290.17   13.20
   3   1  -5  295.47   10.80
   3   1  -5  288.17   10.30
   3   1  -5  275.67    6.70
   3   1  -5  285.47    7.40
   3   1  -5  291.87    7.80
  -3  -1   5  288.67   10.30
  -3  -1   5  279.47    7.30
  -3  -1   5  291.57   10.60
  -3  -1   5  278.37   10.20
  -3  -1   5  292.97    7.60
   2   1  -5 1100.39   25.80
   2   1  -5 1107.99   28.90
   2   1  -5 1136.39   32.20
   2   1  -5 1117.99   25.60
  -2  -1   5 1138.89   25.40
  -2  -1   5 1108.09   25.30
  -2  -1   5 1155.28   29.90
  -2  -1   5 1118.69   29.20
   1   1  -5   69.49    2.40
   1   1  -5   68.59    2.80
   1   1  -5   68.49    2.50
   1   1  -5   74.69    4.40
   1   1  -5   69.99    2.60
   1   1  -5   65.89    4.00
  -1  -1   5   67.39    2.50
  -1  -1   5   68.29    2.60
  -1  -1   5   73.69    4.50
  -1  -1   5   64.19    4.10
   0   1  -5    3.00    1.00
   0   1  -5    1.70    1.00
   0   1  -5    1.20    1.30
   0   1  -5    3.10    1.00
   0   1  -5    2.70    1.00
   0  -1   5    2.00    1.00
   0  -1   5    3.70    1.10
   0  -1   5    1.10    1.30
   0  -1   5    2.60    1.50
   0  -1   5    3.60    0.90
  -1   1  -5   33.60    3.80
  -1   1  -5   31.60    2.50
  -1   1  -5   33.00    2.50
  -1   1  -5   25.60    2.40
  -1   1  -5   30.60    3.10
  -1   1  -5   31.50    4.10
  -1   1  -5   25.10    2.70
   1  -1   5   26.50    2.20
   1  -1   5   27.10    2.40
   1  -1   5   32.20    3.30
   1  -1   5   28.50    2.50
  -2   1  -5   83.19    4.50
  -2   1  -5   79.69    5.50
  -2   1  -5   83.59    3.70
  -2   1  -5   90.29    4.90
  -2   1  -5   77.69    4.40
  -2   1  -5   90.79    6.10
   2  -1   5   86.79    4.60
   2  -1   5   91.59    4.70
   2  -1   5   84.99    5.10
   2  -1   5   86.59    4.70
  -3   1  -5    6.80    2.30
  -3   1  -5    9.50    2.20
  -3   1  -5    4.10    1.90
  -3   1  -5    2.40    1.90
  -3   1  -5    4.50    0.90
   3  -1   5    3.70    2.00
   3  -1   5    5.00    2.10
   3  -1   5    4.80    2.10
   3  -1   5    6.70    2.30
  -4   1  -5   57.89    5.40
  -4   1  -5   55.89    4.90
  -4   1  -5   58.19    5.70
  -4   1  -5   62.09    4.80
   4  -1   5   58.89    4.40
   4  -1   5   57.09    4.90
   4  -1   5   60.89    5.10
   4  -1   5   50.79    6.30
  -5   1  -5   30.80    4.50
  -5   1  -5   20.70    4.20
  -5   1  -5   33.40    4.10
  -5   1  -5   36.20    4.90
   5  -1   5   31.70    4.20
   5  -1   5   33.20    4.10
   5  -1   5   21.20    4.80
   5  -1   5   29.80    4.30
  -6   1  -5    6.90    3.30
  -6   1  -5    9.70    3.10
  -6   1  -5    7.50    3.50
  -6   1  -5   14.60    4.10
   6  -1   5   11.50    3.20
   6  -1   5   13.40    4.00
   6  -1   5    9.50    2.60
   6  -1   5   11.30    3.90
  -7   1  -5   40.00    5.30
  -7   1  -5   40.90    6.50
  -7   1  -5   42.60    6.00
  -7   1  -5   48.20    6.20
   7  -1   5   39.20    7.00
   7  -1   5   45.80    6.40
   7  -1   5   45.50    6.20
  -8   1  -5    2.90    3.10
  -8   1  -5   -0.40    2.50
  -8   1  -5   -3.40    3.50
   8  -1   5   -0.70    3.80
   8  -1   5    1.70    3.90
   8  -1   5   -1.90    3.40
  -9   1  -5   -4.90    2.30
  -9   1  -5    3.80    4.20
  -9   1  -5   -2.20    3.10
   9  -1   5    1.00    4.40
   9  -1   5   -6.90    3.30
   9  -1   5    3.40    4.30
 -10   1  -5    0.80    4.00
 -10   1  -5   -0.30    3.70
  10  -1   5    3.10    7.10
  10  -1   5    0.20    4.80
 -11   0   5   -1.30    4.50
  10   0  -5   -0.80    6.40
  10   0  -5    0.30    3.00
 -10   0   5    4.70    5.30
 -10   0   5    0.20    3.30
   9   0  -5   21.60    6.60
   9   0  -5   21.20    5.90
   9   0  -5   19.80    4.20
  -9   0   5   13.50    3.60
  -9   0   5   29.60    6.50
   8   0  -5   -4.20    4.20
   8   0  -5   -0.50    3.10
   8   0  -5    4.10    2.50
  -8   0   5    2.90    2.50
  -8   0   5    2.60    4.10
   7   0  -5    2.20    2.80
   7   0  -5    6.10    2.60
   7   0  -5    0.70    3.10
  -7   0   5    1.70    2.20
  -7   0   5    4.60    2.90
   6   0  -5   90.69    8.80
   6   0  -5   93.69    7.80
   6   0  -5   89.29    5.20
   6   0  -5   84.49    3.70
   6   0  -5   94.59    4.70
  -6   0   5   89.79    5.20
  -6   0   5   81.29    4.40
  -6   0   5   87.49    6.60
   5   0  -5   54.59    3.40
   5   0  -5   46.80    5.30
   5   0  -5   52.49    3.60
   5   0  -5   50.39    3.30
   5   0  -5   48.50    6.10
   5   0  -5   53.79    3.10
  -5   0   5   50.29    5.30
  -5   0   5   54.69    3.60
  -5   0   5   49.60    2.80
  -5   0   5   46.90    3.60
   4   0  -5   -0.20    2.20
   4   0  -5    0.50    0.70
   4   0  -5    0.70    0.80
   4   0  -5    0.80    1.30
   4   0  -5   -0.50    0.90
   4   0  -5    0.30    1.40
  -4   0   5    0.10    0.40
  -4   0   5   -1.10    1.40
  -4   0   5    0.40    0.40
  -4   0   5    0.50    1.00
  -4   0   5   -0.40    1.10
  -4   0   5   -0.10    0.50
   3   0  -5   70.89    2.70
   3   0  -5   78.19    5.70
   3   0  -5   69.79    2.10
   3   0  -5   60.49    5.60
   3   0  -5   79.89    4.80
   3   0  -5   74.89    2.90
   3   0  -5   73.19    2.10
  -3   0   5   65.49    4.60
  -3   0   5   76.19    4.80
  -3   0   5   81.39    4.50
  -3   0   5   75.09    2.90
  -3   0   5   70.59    2.70
   2   0  -5  256.47    9.20
   2   0  -5  233.48    5.80
   2   0  -5  248.88    5.90
  -2   0   5  243.98    8.80
  -2   0   5  234.68    9.00
  -2   0   5  247.68    8.80
   1   0  -5  753.92   16.80
   1   0  -5  727.93   19.80
   1   0  -5  716.63   16.80
  -1   0   5  771.72   20.90
  -1   0   5  720.43   20.40
   0   0  -5    9.60    1.80
   0   0  -5    5.80    0.90
   0   0  -5    6.70    0.90
   0   0  -5    8.00    1.00
   0   0  -5    6.60    1.80
   0   0  -5    8.00    1.10
   0   0   5    7.10    0.50
   0   0   5    6.90    0.50
   0   0   5    8.50    2.20
   0   0   5    6.50    1.00
   0   0   5    7.30    1.80
  -1   0  -5   24.80    2.10
  -1   0  -5   30.30    3.30
  -1   0  -5   28.40    2.10
  -1   0  -5   27.70    2.20
  -1   0  -5   29.30    2.10
  -1   0  -5   23.80    2.20
  -1   0  -5   22.70    3.00
   1   0   5   26.40    2.00
   1   0   5   30.10    2.30
   1   0   5   29.10    3.50
   1   0   5   25.30    2.00
   1   0   5   28.50    1.80
  -2   0  -5  101.99    6.10
  -2   0  -5  103.89    4.10
  -2   0  -5  101.99    4.80
  -2   0  -5   99.79    4.70
  -2   0  -5  102.99    6.00
  -2   0  -5   99.99    4.80
   2   0   5  109.59    4.80
   2   0   5  100.29    4.60
   2   0   5  104.49    4.90
   2   0   5  105.89    5.60
  -3   0  -5  186.58    7.70
  -3   0  -5  204.48    8.20
  -3   0  -5  193.18    9.50
  -3   0  -5  192.68    7.80
   3   0   5  208.88    8.10
   3   0   5  194.38    8.40
   3   0   5  189.08    7.70
   3   0   5  210.08    7.80
  -4   0  -5   99.99    6.00
  -4   0  -5   87.09    6.80
  -4   0  -5   92.19    5.70
   4   0   5   97.49    5.90
   4   0   5  100.29    7.10
   4   0   5   89.19    5.40
   4   0   5  105.49    6.00
  -5   0  -5    0.80    1.70
  -5   0  -5    0.20    1.50
  -5   0  -5    0.50    1.70
   5   0   5   -0.20    1.80
   5   0   5    0.30    2.70
   5   0   5    0.00    1.70
   5   0   5    0.00    2.30
  -6   0  -5  229.88   10.60
  -6   0  -5  215.98   10.50
  -6   0  -5  235.88   11.10
  -6   0  -5  228.68   12.60
   6   0   5  235.58   13.10
   6   0   5  236.48    9.90
   6   0   5  216.58   10.80
   6   0   5  242.28   11.10
   6   0   5  221.78   10.50
  -7   0  -5   17.40    4.10
  -7   0  -5   23.00    4.40
  -7   0  -5   21.80    4.90
  -7   0  -5   19.00    3.60
   7   0   5   23.60    3.70
   7   0   5   21.00    4.70
   7   0   5   19.70    4.10
   7   0   5   19.20    5.40
  -8   0  -5   30.20    5.60
  -8   0  -5   23.20    5.20
  -8   0  -5   24.70    4.00
  -8   0  -5   25.40    5.40
   8   0   5   19.30    4.30
   8   0   5   24.10    4.80
   8   0   5   19.30    6.20
  -9   0  -5   -0.20    4.00
  -9   0  -5   -2.90    4.60
  -9   0  -5   -2.70    2.30
   9   0   5   -1.80    3.60
   9   0   5   -6.10    4.70
   9   0   5   -1.40    2.60
 -10   0  -5   15.30    6.10
 -10   0  -5   14.60    5.00
 -10   0  -5   10.10    5.30
  10   0   5   18.10    5.10
  10   0   5    5.10    4.90
  10   0   5   23.00    6.50
  10  -1  -5    0.40    3.60
  10  -1  -5    5.00    6.30
 -10   1   5    1.70    3.50
 -10   1   5    4.40    5.10
   9  -1  -5    4.40    3.40
   9  -1  -5    1.80    6.40
  -9   1   5    0.60    2.90
  -9   1   5    3.00    3.70
   8  -1  -5   25.40    6.80
   8  -1  -5   31.10    4.80
  -8   1   5   33.60    4.70
  -8   1   5   36.30    6.80
   7  -1  -5   30.20    6.50
   7  -1  -5   30.10    5.20
   7  -1  -5   42.00    4.60
  -7   1   5   52.69    6.60
  -7   1   5   48.30    4.90
   6  -1  -5   49.70    4.30
   6  -1  -5   47.70    5.60
   6  -1  -5   45.00    7.40
  -6   1   5   51.19    4.50
  -6   1   5   43.90    6.20
   5  -1  -5   55.89    3.90
   5  -1  -5   57.09    3.80
   5  -1  -5   61.49    3.60
   5  -1  -5   61.99    5.90
   5  -1  -5   62.99    7.00
   5  -1  -5   55.69    4.10
  -5   1   5   63.69    4.30
  -5   1   5   57.39    5.30
  -5   1   5   57.39    4.20
   4  -1  -5   42.70    2.60
   4  -1  -5   47.00    3.00
   4  -1  -5   42.70    2.90
   4  -1  -5   43.90    4.40
   4  -1  -5   39.60    5.20
  -4   1   5   48.60    3.20
  -4   1   5   42.70    2.50
  -4   1   5   52.09    4.60
  -4   1   5   49.99    3.50
  -4   1   5   44.20    3.10
   3  -1  -5    6.40    2.70
   3  -1  -5    6.70    2.00
   3  -1  -5   10.10    2.50
   3  -1  -5    7.80    1.10
   3  -1  -5    7.70    1.30
   3  -1  -5    7.60    1.30
   3  -1  -5    7.40    1.10
  -3   1   5    8.20    2.00
  -3   1   5    7.90    1.40
  -3   1   5    3.50    1.90
   2  -1  -5    5.90    0.90
   2  -1  -5    4.70    0.50
   2  -1  -5    6.80    1.90
   2  -1  -5    3.80    2.00
   2  -1  -5    5.30    0.50
   2  -1  -5    4.30    0.80
  -2   1   5    5.00    1.80
  -2   1   5    4.60    0.80
  -2   1   5    3.40    1.50
  -2   1   5    2.80    1.60
  -2   1   5    5.00    0.80
   1  -1  -5  179.38    7.00
   1  -1  -5  161.98    4.30
   1  -1  -5  157.48    4.50
  -1   1   5  163.78    7.00
  -1   1   5  159.78    6.80
  -1   1   5  161.98    4.10
  -1   1   5  156.28    4.20
  -1   1   5  166.68    7.00
   0  -1  -5   53.19    2.30
   0  -1  -5   48.80    5.60
   0  -1  -5   49.90    1.90
   0  -1  -5   49.50    2.10
   0  -1  -5   52.19    3.50
   0  -1  -5   49.00    2.00
   0   1   5   49.50    3.60
   0   1   5   50.29    3.60
   0   1   5   53.69    3.50
   0   1   5   49.70    2.20
   0   1   5   49.90    2.10
  -1  -1  -5   29.80    2.10
  -1  -1  -5   31.20    2.20
  -1  -1  -5   29.30    2.20
  -1  -1  -5   31.80    2.00
  -1  -1  -5   27.00    3.30
  -1  -1  -5   35.10    4.00
   1   1   5   34.70    3.40
   1   1   5   30.80    2.30
   1   1   5   32.40    2.70
   1   1   5   35.30    2.20
   1   1   5   33.10    3.30
   1   1   5   32.00    1.80
  -2  -1  -5 2331.27   66.49
  -2  -1  -5 2345.27   93.79
  -2  -1  -5 2314.87   54.29
  -2  -1  -5 2359.06   64.39
  -2  -1  -5 2254.87   53.79
  -2  -1  -5 2298.87   53.69
   2   1   5 2295.07   53.69
   2   1   5 2283.27   53.69
   2   1   5 2249.77   57.49
   2   1   5 2339.47   54.09
  -3  -1  -5   69.19    4.30
  -3  -1  -5   70.69    4.30
  -3  -1  -5   76.39    5.60
  -3  -1  -5   67.59    4.60
  -3  -1  -5   76.09    4.30
   3   1   5   70.99    4.30
   3   1   5   77.39    4.60
   3   1   5   79.59    4.40
   3   1   5   77.19    5.10
  -4  -1  -5   34.70    3.30
  -4  -1  -5   32.00    3.50
  -4  -1  -5   35.10    4.00
  -4  -1  -5   34.10    4.20
   4   1   5   44.30    4.60
   4   1   5   36.90    3.20
   4   1   5   34.00    3.80
   4   1   5   41.70    4.00
   4   1   5   32.60    3.80
   4   1   5   34.90    2.80
  -5  -1  -5    2.00    1.70
  -5  -1  -5    3.10    2.00
  -5  -1  -5    4.50    2.30
   5   1   5    3.40    2.70
   5   1   5    2.10    1.30
   5   1   5    3.10    2.30
   5   1   5    6.00    2.20
   5   1   5    4.50    2.30
  -6  -1  -5   24.40    4.50
  -6  -1  -5   19.30    4.00
  -6  -1  -5   25.20    4.30
   6   1   5   22.10    4.40
   6   1   5   14.60    3.80
   6   1   5   23.70    4.30
   6   1   5   24.80    3.70
   6   1   5   16.80    3.10
  -7  -1  -5   16.40    3.70
  -7  -1  -5   23.50    4.90
  -7  -1  -5   11.50    3.80
  -7  -1  -5   11.20    3.00
   7   1   5   11.40    3.40
   7   1   5    5.60    3.80
   7   1   5   12.50    3.40
   7   1   5   11.20    4.00
  -8  -1  -5    1.90    2.70
  -8  -1  -5    3.10    3.60
  -8  -1  -5    1.70    2.10
  -8  -1  -5   -0.30    3.10
   8   1   5    0.20    2.90
   8   1   5   -0.90    2.20
   8   1   5    2.20    2.60
   8   1   5   -1.70    2.20
  -9  -1  -5    4.40    3.40
  -9  -1  -5    5.60    4.10
  -9  -1  -5    4.60    3.30
   9   1   5   -0.10    3.80
   9   1   5    1.10    3.60
   9   1   5   10.70    4.70
 -10  -1  -5   15.30    5.40
 -10  -1  -5    8.60    4.60
 -10  -1  -5   23.90    6.20
  10   1   5   13.30    5.70
  10   1   5   14.90    6.80
  10   1   5   19.00    5.10
 -11  -1  -5    0.70    4.90
 -11  -1  -5    9.40    6.20
 -11  -1  -5   -3.30    5.10
  11   1   5  -15.70    4.80
  11   1   5    4.80    3.80
  11   1   5    4.90    5.30
 -10   2   5    5.00    5.90
   9  -2  -5   15.40    4.40
   9  -2  -5   10.00    6.90
   9  -2  -5   16.40    8.80
  -9   2   5   15.90    5.20
  -9   2   5    7.40    3.70
   8  -2  -5    6.10    3.20
   8  -2  -5    2.20    3.90
   8  -2  -5   -1.40    6.00
  -8   2   5    6.40    3.30
  -8   2   5    4.70    4.40
   7  -2  -5   -1.30    2.40
   7  -2  -5    5.30    4.60
   7  -2  -5    1.50    5.10
  -7   2   5    1.00    2.30
  -7   2   5   -2.30    3.70
   6  -2  -5   35.60    8.60
   6  -2  -5   41.70    5.50
   6  -2  -5   42.60    7.60
   6  -2  -5   38.20    4.20
  -6   2   5   43.00    5.90
  -6   2   5   49.00    4.60
   5  -2  -5   -3.70    2.80
   5  -2  -5    0.60    1.40
   5  -2  -5   -0.70    1.60
   5  -2  -5    3.70    3.50
   5  -2  -5   -2.00    1.50
  -5   2   5   -0.30    1.40
  -5   2   5    0.60    2.30
  -5   2   5    0.10    1.60
   4  -2  -5    4.80    3.00
   4  -2  -5    4.30    1.50
   4  -2  -5    4.40    2.00
   4  -2  -5    3.60    1.80
   4  -2  -5    4.30    3.30
   4  -2  -5    6.30    1.90
   4  -2  -5    7.00    1.80
  -4   2   5    8.40    2.60
  -4   2   5    2.00    2.80
  -4   2   5    5.50    2.00
  -4   2   5   10.90    2.30
  -4   2   5    8.20    1.80
   3  -2  -5    0.60    1.20
   3  -2  -5    1.00    0.90
   3  -2  -5   -0.40    0.90
   3  -2  -5    2.30    1.90
   3  -2  -5    1.70    2.20
   3  -2  -5    1.50    1.30
  -3   2   5    1.40    1.30
  -3   2   5    1.40    1.00
  -3   2   5   -1.10    1.10
  -3   2   5    1.50    2.10
  -3   2   5    0.40    1.70
   2  -2  -5    9.20    1.50
   2  -2  -5   12.10    1.30
   2  -2  -5    9.00    3.30
   2  -2  -5    7.40    2.40
   2  -2  -5   12.40    2.20
   2  -2  -5    9.10    1.30
   2  -2  -5   10.20    1.50
  -2   2   5   10.40    1.10
  -2   2   5    4.40    1.90
  -2   2   5   10.40    2.20
  -2   2   5    9.70    2.40
  -2   2   5   11.30    1.20
  -2   2   5   10.50    1.80
   1  -2  -5   -0.20    0.60
   1  -2  -5    0.40    0.70
   1  -2  -5    0.30    0.70
   1  -2  -5    1.10    1.50
   1  -2  -5    1.10    0.60
   1  -2  -5   -1.10    1.90
  -1   2   5    1.00    0.90
  -1   2   5   -0.20    0.30
  -1   2   5    1.40    1.50
  -1   2   5    1.40    0.40
  -1   2   5   -0.20    1.00
  -1   2   5    0.10    0.40
  -1   2   5    0.70    1.60
   0  -2  -5  451.05   15.50
   0  -2  -5  455.15   11.40
   0  -2  -5  435.06   11.80
   0  -2  -5  453.75   11.20
   0  -2  -5  450.55   11.40
   0  -2  -5  448.46   23.60
   0   2   5  437.86   10.80
   0   2   5  429.16   11.60
   0   2   5  454.65   14.00
   0   2   5  442.26   13.90
   0   2   5  444.46   10.70
   0   2   5  436.36   13.40
  -1  -2  -5 1944.01   44.40
  -1  -2  -5 1918.61   44.50
  -1  -2  -5 1945.11   44.80
  -1  -2  -5 1937.31   81.19
   1   2   5 1872.81   45.60
   1   2   5 1986.70   44.00
   1   2   5 1915.71   48.60
   1   2   5 1926.71   44.40
   1   2   5 1914.31   47.10
   1   2   5 1861.41   44.80
  -2  -2  -5  124.89    8.50
  -2  -2  -5  128.59    5.10
  -2  -2  -5  127.59    5.40
  -2  -2  -5  123.59    5.00
  -2  -2  -5  123.39    5.00
  -2  -2  -5  130.19    6.80
   2   2   5  123.89    8.50
   2   2   5  118.39    5.10
   2   2   5  124.39    4.90
   2   2   5  121.09    5.10
   2   2   5  115.59    5.70
   2   2   5  123.39    5.50
  -3  -2  -5    5.60    1.70
  -3  -2  -5    4.30    1.40
  -3  -2  -5    2.60    1.20
  -3  -2  -5    3.00    1.60
  -3  -2  -5    2.80    1.50
   3   2   5    2.40    1.60
   3   2   5    3.40    1.70
   3   2   5    3.50    1.80
   3   2   5    3.20    1.10
   3   2   5    2.90    1.60
  -4  -2  -5   30.30    3.00
  -4  -2  -5   30.80    3.30
  -4  -2  -5   33.20    3.10
  -4  -2  -5   33.30    3.10
  -4  -2  -5   35.00    3.90
   4   2   5   33.90    3.90
   4   2   5   36.20    2.30
   4   2   5   33.70    4.00
   4   2   5   35.40    3.40
   4   2   5   35.70    4.20
  -5  -2  -5    8.60    2.50
  -5  -2  -5    9.40    2.20
  -5  -2  -5    7.30    2.60
  -5  -2  -5   10.10    2.80
   5   2   5    8.30    2.50
   5   2   5    7.10    2.20
   5   2   5    8.70    2.90
   5   2   5    8.70    2.80
  -6  -2  -5   26.40    4.00
  -6  -2  -5   21.70    3.90
  -6  -2  -5   24.30    4.70
   6   2   5   24.30    4.50
   6   2   5   26.00    4.30
   6   2   5   20.60    3.60
   6   2   5   23.40    3.90
  -7  -2  -5   40.60    5.40
  -7  -2  -5   44.10    5.40
   7   2   5   49.60    5.40
   7   2   5   44.70    5.80
   7   2   5   52.09    6.30
  -8  -2  -5    5.10    3.30
  -8  -2  -5   -1.30    3.00
  -8  -2  -5    5.70    3.70
   8   2   5   -1.50    3.20
   8   2   5    1.80    2.20
   8   2   5    0.60    2.60
  -9  -2  -5   40.00    7.20
  -9  -2  -5   35.70    6.10
  -9  -2  -5   45.30    6.60
   9   2   5   35.60    5.70
   9   2   5   28.10    6.40
   9   2   5   33.90    5.70
 -10  -2  -5   59.89    8.20
 -10  -2  -5   66.79    9.50
 -10  -2  -5   69.59    7.50
  10   2   5   50.39    8.30
  10   2   5   61.69    8.00
  10   2   5   58.99    8.10
 -11  -2  -5   -1.10    3.40
 -11  -2  -5    1.90    3.60
 -11  -2  -5    4.40    5.80
  11   2   5  -11.80    4.80
  11   2   5    5.20    5.20
  11   2   5   10.10    4.50
   9  -3  -5    8.60    7.30
  -9   3   5    0.90    3.60
  -9   3   5   11.00    4.90
   8  -3  -5   13.90    4.20
   8  -3  -5    5.30    5.70
   8  -3  -5   15.40    7.50
  -8   3   5   13.40    5.60
  -8   3   5   18.20    4.60
   7  -3  -5   -0.20    2.30
   7  -3  -5    2.80    5.80
   7  -3  -5    3.10    4.10
  -7   3   5    2.50    4.30
  -7   3   5   -1.20    2.70
   6  -3  -5   22.20    3.90
   6  -3  -5   10.80    6.10
   6  -3  -5   25.40    6.60
  -6   3   5   15.30    3.70
  -6   3   5   15.50    4.90
   5  -3  -5   -1.10    2.80
   5  -3  -5    0.10    3.10
   5  -3  -5    0.90    2.10
  -5   3   5    2.30    3.40
  -5   3   5    1.00    2.20
  -5   3   5    4.30    2.10
   4  -3  -5   28.80    5.60
   4  -3  -5   19.10    2.80
   4  -3  -5   16.50    6.00
   4  -3  -5   18.70    2.60
   4  -3  -5   19.60    3.10
  -4   3   5   26.80    3.20
  -4   3   5   21.50    3.30
  -4   3   5   30.10    3.70
  -4   3   5   25.40    3.90
  -4   3   5   27.70    4.80
   3  -3  -5    2.90    1.60
   3  -3  -5    0.80    1.00
   3  -3  -5    1.40    1.30
   3  -3  -5    1.00    1.40
   3  -3  -5   -0.70    2.00
   3  -3  -5    1.20    1.90
  -3   3   5    0.80    1.70
  -3   3   5    5.60    2.80
  -3   3   5    2.50    1.60
  -3   3   5    2.40    1.60
  -3   3   5    4.70    2.20
   2  -3  -5   80.29    4.20
   2  -3  -5   66.79    6.10
   2  -3  -5   66.69    3.40
   2  -3  -5   67.99    3.70
   2  -3  -5   79.19    9.80
   2  -3  -5   73.19    4.10
  -2   3   5   70.89    4.10
  -2   3   5   67.09    3.60
  -2   3   5   68.59    4.50
  -2   3   5   67.69    4.80
  -2   3   5   58.49    4.70
  -2   3   5   69.09    3.70
   1  -3  -5  856.81   21.10
   1  -3  -5  862.61   22.00
   1  -3  -5  902.81   28.60
   1  -3  -5  888.01   42.80
   1  -3  -5  841.82   21.40
  -1   3   5  853.71   24.00
  -1   3   5  816.12   23.50
  -1   3   5  861.51   22.00
  -1   3   5  849.91   21.30
  -1   3   5  856.71   23.50
   0  -3  -5  190.58    6.30
   0  -3  -5  195.48    8.40
   0  -3  -5  185.98    6.70
   0  -3  -5  185.28    6.10
   0  -3  -5  192.38   13.70
   0   3   5  196.28    6.30
   0   3   5  192.18    7.80
   0   3   5  187.48    7.90
   0   3   5  199.88    8.00
   0   3   5  200.78    6.00
  -1  -3  -5   -0.80    0.90
  -1  -3  -5   -0.80    0.90
  -1  -3  -5   -0.30    1.40
  -1  -3  -5    0.20    1.00
  -1  -3  -5    0.30    1.80
  -1  -3  -5    0.60    0.80
   1   3   5   -0.10    1.20
   1   3   5    2.10    1.50
   1   3   5   -1.50    1.10
   1   3   5    0.50    0.80
   1   3   5    0.70    1.20
   1   3   5   -1.60    1.40
  -2  -3  -5   21.20    1.30
  -2  -3  -5   23.60    2.30
  -2  -3  -5   19.70    2.20
  -2  -3  -5   20.60    1.30
  -2  -3  -5   21.50    3.20
  -2  -3  -5   24.40    2.60
  -2  -3  -5   25.10    4.60
   2   3   5   24.30    4.30
   2   3   5   18.00    2.60
   2   3   5   23.80    2.30
   2   3   5   27.90    3.30
   2   3   5   21.80    2.50
  -3  -3  -5   77.89    4.20
  -3  -3  -5   67.59    7.20
  -3  -3  -5   72.59    4.60
  -3  -3  -5   79.29    5.60
  -3  -3  -5   66.69    3.90
  -3  -3  -5   72.99    2.60
   3   3   5   74.99    4.70
   3   3   5   69.89    4.50
   3   3   5   74.39    4.20
   3   3   5   86.19    7.50
  -4  -3  -5    9.80    3.90
  -4  -3  -5    9.30    1.40
  -4  -3  -5    8.30    2.10
  -4  -3  -5   11.60    2.50
  -4  -3  -5   12.50    2.80
  -4  -3  -5    8.00    2.20
   4   3   5   11.00    3.00
   4   3   5    8.90    2.00
   4   3   5   10.40    2.30
   4   3   5   13.60    2.90
  -5  -3  -5   17.50    3.10
  -5  -3  -5   17.50    2.40
  -5  -3  -5   19.20    3.20
  -5  -3  -5   14.30    3.20
   5   3   5   13.10    3.20
   5   3   5   16.20    2.40
   5   3   5   16.50    3.30
   5   3   5   11.60    3.10
  -6  -3  -5  161.38    8.30
  -6  -3  -5  170.38    9.80
  -6  -3  -5  162.98    8.30
  -6  -3  -5  157.38    8.30
   6   3   5  167.68   11.50
   6   3   5  154.38    5.00
   6   3   5  162.48    8.40
   6   3   5  164.48    8.80
   6   3   5  164.08    8.40
  -7  -3  -5  141.89    8.40
  -7  -3  -5  124.79    7.60
  -7  -3  -5  124.79    8.70
   7   3   5  140.09    8.70
   7   3   5  120.59    7.90
   7   3   5  125.99    8.60
  -8  -3  -5   11.90    4.70
  -8  -3  -5   14.70    3.90
  -8  -3  -5   13.30    4.20
   8   3   5   16.80    4.10
   8   3   5    8.40    3.90
   8   3   5   11.90    4.00
  -9  -3  -5   60.99    7.40
  -9  -3  -5   58.49    7.10
  -9  -3  -5   60.79    6.50
   9   3   5   52.19    7.10
   9   3   5   59.29    7.50
   9   3   5   57.79    7.50
 -10  -3  -5   -2.40    4.20
 -10  -3  -5    0.50    3.70
 -10  -3  -5   -0.70    2.80
  10   3   5    2.50    3.00
  10   3   5    2.70    4.10
 -11  -3  -5    1.00    3.30
 -11  -3  -5    3.80    5.00
 -11  -3  -5    1.40    4.30
  11   3   5    1.90    4.70
  11   3   5    4.20    3.80
 -12  -3  -5    2.90    4.30
 -12  -3  -5   -2.20    5.20
   8  -4  -5   11.10    4.70
   8  -4  -5   -2.40    5.70
   8  -4  -5   10.40    6.20
  -8   4   5    6.60    4.20
  -8   4   5   12.40    5.00
   7  -4  -5   -2.70    6.30
   7  -4  -5    4.30    5.40
   7  -4  -5    2.90    3.20
  -7   4   5   -0.60    4.30
  -7   4   5    0.80    3.10
   6  -4  -5    0.10    2.40
   6  -4  -5   -4.40    4.80
   6  -4  -5   -0.50    3.20
  -6   4   5    2.10    3.70
  -6   4   5    2.30    2.80
  -6   4   5    1.80    1.90
   5  -4  -5    3.10    4.50
   5  -4  -5    2.10    2.20
   5  -4  -5    0.80    4.50
  -5   4   5    6.20    2.60
  -5   4   5    2.90    2.80
  -5   4   5   -1.60    1.80
   4  -4  -5   14.10    4.40
   4  -4  -5   20.20    3.40
   4  -4  -5   16.90    2.90
   4  -4  -5   15.30    5.60
  -4   4   5   15.50    3.80
  -4   4   5   18.30    3.40
  -4   4   5   23.40    4.00
  -4   4   5   15.40    3.20
   3  -4  -5  104.69   13.00
   3  -4  -5   90.29    5.40
   3  -4  -5   96.79    5.80
   3  -4  -5   89.79    8.50
   3  -4  -5   94.59    5.00
  -3   4   5   94.09    6.20
  -3   4   5   91.59    5.30
  -3   4   5   92.19    6.90
  -3   4   5   92.79    5.80
  -3   4   5   86.89    5.40
   2  -4  -5   87.89   10.70
   2  -4  -5   80.89    4.70
   2  -4  -5   91.99    7.40
   2  -4  -5  100.49    4.90
   2  -4  -5   87.09    5.10
  -2   4   5   96.89    6.10
  -2   4   5   87.69    4.90
  -2   4   5   94.79    6.20
  -2   4   5   93.29    5.40
  -2   4   5   97.99    5.20
   1  -4  -5  242.88    8.40
   1  -4  -5  251.77    8.90
   1  -4  -5  247.98    8.40
   1  -4  -5  247.18   11.40
   1  -4  -5  247.08    8.20
   1  -4  -5  236.78   17.70
   1  -4  -5  243.28    8.40
  -1   4   5  254.37   10.10
  -1   4   5  242.18    9.90
  -1   4   5  243.98    9.00
  -1   4   5  248.88    8.40
  -1   4   5  238.28    8.60
  -1   4   5  255.37    9.30
   0  -4  -5  220.78    7.70
   0  -4  -5  220.98    8.20
   0  -4  -5  223.28    8.80
   0  -4  -5  229.58    7.60
   0  -4  -5  216.78   16.00
   0  -4  -5  232.48    9.70
   0   4   5  215.68    8.80
   0   4   5  236.08    8.20
   0   4   5  231.38    7.70
   0   4   5  232.58    8.50
  -1  -4  -5  131.29    6.80
  -1  -4  -5  125.19    5.30
  -1  -4  -5  121.99    5.70
  -1  -4  -5  128.39   11.30
  -1  -4  -5  123.99    5.70
  -1  -4  -5  125.99    5.20
   1   4   5  125.19    5.70
   1   4   5  125.69    5.20
   1   4   5  126.69    5.90
   1   4   5  128.69    6.30
  -2  -4  -5    2.70    2.00
  -2  -4  -5    0.00    1.20
  -2  -4  -5    0.50    1.20
  -2  -4  -5    0.30    1.20
  -2  -4  -5   -3.00    1.40
   2   4   5    1.40    1.70
   2   4   5    0.00    1.60
   2   4   5    0.10    1.30
   2   4   5    0.80    1.60
  -3  -4  -5   22.20    2.80
  -3  -4  -5   19.40    2.70
  -3  -4  -5   18.20    4.20
  -3  -4  -5   19.00    2.90
  -3  -4  -5   24.10    3.60
   3   4   5   23.70    2.90
   3   4   5   19.30    3.10
   3   4   5   24.40    3.10
   3   4   5   17.80    3.00
  -4  -4  -5    0.10    1.30
  -4  -4  -5   -0.50    1.00
  -4  -4  -5   -0.30    1.50
  -4  -4  -5   -1.60    1.70
  -4  -4  -5   -6.10    3.70
   4   4   5    2.40    2.30
   4   4   5   -0.20    2.00
   4   4   5    1.30    1.30
  -5  -4  -5  104.09    5.80
  -5  -4  -5  103.29    6.10
  -5  -4  -5   99.69    6.70
  -5  -4  -5  121.29   10.40
   5   4   5  103.09    6.20
   5   4   5  102.79    6.30
  -6  -4  -5   29.00    4.10
  -6  -4  -5   20.20    3.80
  -6  -4  -5   14.90    3.30
   6   4   5   16.80    3.30
   6   4   5   24.30    4.30
   6   4   5   18.80    2.60
  -7  -4  -5  877.71   25.70
  -7  -4  -5  845.12   29.20
  -7  -4  -5  865.61   25.60
   7   4   5  857.81   26.20
   7   4   5  859.01   28.10
   7   4   5  821.72   25.90
  -8  -4  -5   37.50    5.60
  -8  -4  -5   38.20    6.10
  -8  -4  -5   36.50    5.10
   8   4   5   36.70    5.10
   8   4   5   46.40    6.10
   8   4   5   45.20    6.20
  -9  -4  -5   -0.10    2.40
  -9  -4  -5   -1.80    2.20
   9   4   5   -6.90    3.10
   9   4   5    1.10    3.90
   9   4   5    6.60    4.10
 -10  -4  -5    6.60    3.70
 -10  -4  -5    5.00    3.30
 -10  -4  -5    1.50    4.00
  10   4   5    1.20    2.90
  10   4   5    6.40    3.70
 -11  -4  -5   -0.70    4.00
 -11  -4  -5   -1.70    4.20
 -11  -4  -5    0.60    3.80
  11   4   5   -4.30    4.00
  11   4   5    2.80    3.40
 -12  -4  -5    1.70    3.70
 -12  -4  -5    2.60    4.10
 -12  -4  -5    0.80    4.80
  12   4   5    0.40    4.10
  12   4   5   -0.20    3.50
   7  -5  -5   11.40    7.90
   7  -5  -5    1.00    5.60
   7  -5  -5    9.10    4.30
  -7   5   5    8.00    5.40
  -7   5   5    1.50    3.50
   6  -5  -5   10.10    3.60
   6  -5  -5    1.40    4.60
   6  -5  -5    3.90    5.30
  -6   5   5    5.80    3.20
  -6   5   5    5.00    3.60
  -6   5   5    9.20    3.50
   5  -5  -5    2.60    4.00
   5  -5  -5    4.10    2.90
   5  -5  -5    2.00    4.10
  -5   5   5    3.00    2.70
  -5   5   5    1.20    2.60
  -5   5   5    1.60    3.80
   4  -5  -5   -0.60    2.00
   4  -5  -5    0.90    4.20
   4  -5  -5   -1.00    4.10
  -4   5   5   -0.10    1.60
  -4   5   5    0.60    2.40
  -4   5   5    0.00    2.10
   3  -5  -5    0.10    3.00
   3  -5  -5    3.20    2.20
   3  -5  -5    1.50    1.90
   3  -5  -5    2.20    3.10
  -3   5   5    2.20    2.10
  -3   5   5    6.70    2.70
  -3   5   5   -2.10    2.40
  -3   5   5   -0.30    2.00
   2  -5  -5  153.28   15.50
   2  -5  -5  132.29    6.40
   2  -5  -5  126.89    9.20
   2  -5  -5  150.48    7.10
  -2   5   5  142.19    7.50
  -2   5   5  136.89    8.00
  -2   5   5  133.69    8.00
  -2   5   5  140.29    7.10
  -2   5   5  145.79    7.00
   1  -5  -5  127.69    6.30
   1  -5  -5  141.39   13.70
   1  -5  -5  130.59    8.70
   1  -5  -5  144.99    6.30
   1  -5  -5  132.99    6.80
  -1   5   5  131.69    7.00
  -1   5   5  131.59    6.30
  -1   5   5  125.19    7.00
  -1   5   5  139.69    6.50
  -1   5   5  142.99    6.90
   0  -5  -5  103.39    5.10
   0  -5  -5  105.89    5.30
   0  -5  -5  100.19    5.60
   0  -5  -5   95.69    6.40
   0  -5  -5   96.39   10.80
   0  -5  -5   93.59    4.20
   0   5   5   99.99    6.30
   0   5   5  102.39    5.80
   0   5   5   94.69    5.70
   0   5   5  102.59    5.20
   0   5   5  103.59    5.70
  -1  -5  -5    7.00    1.90
  -1  -5  -5    9.90    4.20
  -1  -5  -5    9.50    2.30
  -1  -5  -5   11.00    2.10
  -1  -5  -5    8.90    2.10
  -1  -5  -5    8.60    2.00
   1   5   5    6.80    2.10
   1   5   5    9.50    2.40
   1   5   5   11.00    2.20
  -2  -5  -5    5.60    2.00
  -2  -5  -5    3.50    1.70
  -2  -5  -5    3.80    1.80
  -2  -5  -5    4.20    2.10
  -2  -5  -5    2.60    3.00
   2   5   5    5.60    2.30
   2   5   5    5.50    2.20
   2   5   5    3.10    1.80
   2   5   5    5.30    1.90
  -3  -5  -5  183.18   14.20
  -3  -5  -5  177.68    7.30
  -3  -5  -5  188.78    8.40
  -3  -5  -5  184.58    7.50
   3   5   5  181.68    8.30
   3   5   5  181.58    7.40
   3   5   5  167.38    7.20
   3   5   5  173.78    8.00
  -4  -5  -5   27.50    3.50
  -4  -5  -5   19.30    3.30
  -4  -5  -5   18.00    6.80
  -4  -5  -5   23.50    3.00
   4   5   5   24.50    3.50
   4   5   5   23.90    3.80
  -5  -5  -5   38.90    4.20
  -5  -5  -5   42.40    3.80
  -5  -5  -5   46.00    8.60
  -5  -5  -5   39.00    3.80
   5   5   5   30.50    5.00
   5   5   5   41.60    4.40
   5   5   5   39.80    4.20
  -6  -5  -5   40.10    4.50
  -6  -5  -5   45.10    4.30
  -6  -5  -5   46.10    8.20
  -6  -5  -5   41.20    4.90
   6   5   5   32.90    6.20
   6   5   5   45.80    4.90
   6   5   5   41.90    2.50
   6   5   5   44.10    5.40
  -7  -5  -5    0.50    2.70
  -7  -5  -5    2.70    2.60
  -7  -5  -5    8.60    3.40
   7   5   5    5.70    3.60
   7   5   5    1.20    1.80
   7   5   5   10.20    3.90
   7   5   5   -1.60    2.80
  -8  -5  -5   -1.30    2.30
  -8  -5  -5   -5.20    2.60
  -8  -5  -5   -1.00    2.00
   8   5   5    2.00    3.40
   8   5   5    1.10    2.60
   8   5   5   -3.80    2.30
   8   5   5    2.00    4.40
  -9  -5  -5   24.30    5.30
  -9  -5  -5   28.10    5.50
  -9  -5  -5   38.30    5.90
   9   5   5   27.00    5.20
   9   5   5   28.80    5.50
   9   5   5   19.30    5.90
 -10  -5  -5    6.50    4.70
 -10  -5  -5   16.50    4.50
 -10  -5  -5   12.90    4.80
  10   5   5   14.00    5.20
  10   5   5   10.60    4.70
 -11  -5  -5   10.00    5.00
 -11  -5  -5    5.20    4.40
 -11  -5  -5   10.00    4.70
  11   5   5    4.10    4.90
  11   5   5    6.90    4.00
 -12  -5  -5   -3.80    3.90
 -12  -5  -5   -3.90    3.20
 -12  -5  -5    0.30    3.80
  12   5   5   -3.30    3.30
  12   5   5   -2.60    3.70
  -7   6   5    9.80    5.00
   6  -6  -5   37.30   11.00
   6  -6  -5   30.70    5.60
   6  -6  -5   15.50    8.00
  -6   6   5   42.40    7.80
  -6   6   5   36.70    6.60
   5  -6  -5   -7.00    5.00
   5  -6  -5    4.30    3.30
   5  -6  -5    5.70    6.40
  -5   6   5    3.30    3.00
  -5   6   5   -2.60    2.70
  -5   6   5    0.70    2.20
   4  -6  -5    0.60    2.10
   4  -6  -5    2.40    5.20
   4  -6  -5   -3.70    4.20
  -4   6   5    4.00    3.70
  -4   6   5    4.70    2.60
  -4   6   5    0.90    2.70
   3  -6  -5   24.00    7.90
   3  -6  -5   26.80    4.20
   3  -6  -5   24.40    6.00
  -3   6   5   27.00    4.70
  -3   6   5   29.90    4.80
  -3   6   5   25.10    5.00
   2  -6  -5   86.49   13.30
   2  -6  -5   78.09    8.50
   2  -6  -5   76.69    5.30
   2  -6  -5   74.09    5.70
  -2   6   5   86.49    6.70
  -2   6   5   74.49    6.00
  -2   6   5   85.39    6.40
  -2   6   5   74.39    5.90
   1  -6  -5   13.30    5.20
   1  -6  -5   17.30    3.30
   1  -6  -5   17.30    4.30
   1  -6  -5   16.50    3.10
  -1   6   5   14.70    3.50
  -1   6   5   17.80    3.50
  -1   6   5   17.80    3.70
  -1   6   5   16.90    3.20
   0  -6  -5  712.33   39.00
   0  -6  -5  706.63   24.40
   0  -6  -5  695.53   19.60
   0  -6  -5  648.94   19.60
   0   6   5  665.73   20.50
   0   6   5  688.63   19.70
   0   6   5  712.33   21.30
   0   6   5  648.74   20.50
  -1  -6  -5  383.96   13.10
  -1  -6  -5  389.66   14.40
  -1  -6  -5  416.06   15.30
  -1  -6  -5  378.76   24.80
  -1  -6  -5  377.96   12.50
  -1  -6  -5  371.06   12.70
   1   6   5  380.06   14.50
   1   6   5  374.66   12.50
   1   6   5  400.56   13.30
   1   6   5  387.86   13.60
   1   6   5  385.56   14.00
  -2  -6  -5   87.09   10.30
  -2  -6  -5   92.39    5.80
  -2  -6  -5   84.59    5.30
  -2  -6  -5   83.89    5.20
   2   6   5   84.49    5.20
   2   6   5   91.99    4.70
   2   6   5   85.19    6.00
   2   6   5   83.59    5.90
   2   6   5   80.69    5.10
  -3  -6  -5   -1.70    1.70
  -3  -6  -5    3.10    3.70
  -3  -6  -5   -1.60    1.60
   3   6   5    0.30    2.10
   3   6   5   -0.10    1.60
   3   6   5    2.70    1.60
  -4  -6  -5    0.50    2.00
  -4  -6  -5    0.60    5.50
  -4  -6  -5    2.40    1.70
   4   6   5    2.50    2.60
   4   6   5    0.20    1.80
  -5  -6  -5   22.60    3.40
  -5  -6  -5   17.50    3.60
  -5  -6  -5   23.30    3.50
   5   6   5   24.30    4.40
   5   6   5   19.20    4.10
   5   6   5   27.40    5.00
  -6  -6  -5   21.60    4.00
  -6  -6  -5   38.60    8.30
  -6  -6  -5   18.90    3.80
  -6  -6  -5   20.50    3.60
   6   6   5   22.70    4.20
   6   6   5   15.90    4.30
   6   6   5   31.00    5.00
  -7  -6  -5  167.58    9.30
  -7  -6  -5  148.09    8.70
  -7  -6  -5  153.78    8.80
   7   6   5  142.09    8.90
   7   6   5  149.09    9.50
   7   6   5  132.99   11.00
  -8  -6  -5   77.19    6.80
  -8  -6  -5   58.99    6.50
  -8  -6  -5   57.79    5.80
   8   6   5   77.29    7.80
   8   6   5   44.80    7.50
   8   6   5   67.39    7.40
  -9  -6  -5   66.39    6.50
  -9  -6  -5   55.49    6.10
  -9  -6  -5   45.00    6.70
   9   6   5   46.80    6.90
   9   6   5   56.59    7.60
   9   6   5   36.40    8.10
 -10  -6  -5   51.99    6.80
 -10  -6  -5   46.50    7.30
 -10  -6  -5   36.90    6.00
  10   6   5   37.10    7.10
  10   6   5   39.70    8.90
  10   6   5   37.00    6.80
 -11  -6  -5   -1.00    4.20
 -11  -6  -5    2.70    3.70
 -11  -6  -5    1.30    3.00
  11   6   5   -2.60    4.60
  11   6   5    2.80    3.70
 -12  -6  -5    3.40    4.20
 -12  -6  -5    3.40    4.10
  12   6   5    2.70    4.10
  12   6   5    4.10    5.70
  -6   7   5   11.30    6.10
   5  -7  -5    7.10    4.20
   5  -7  -5   -0.10    5.00
   5  -7  -5    3.80    7.30
  -5   7   5   -3.80    3.80
  -5   7   5    3.00    4.00
   4  -7  -5    0.00    3.10
   4  -7  -5    2.50    5.70
   4  -7  -5   -1.80    4.00
  -4   7   5    2.40    2.90
  -4   7   5   -5.10    2.30
   3  -7  -5    0.90    3.50
   3  -7  -5    6.40    3.30
   3  -7  -5    7.30    6.30
  -3   7   5    8.20    3.50
  -3   7   5    0.40    3.20
  -3   7   5    6.30    3.20
   2  -7  -5    0.70    4.00
   2  -7  -5    6.90    2.60
   2  -7  -5   15.20    6.60
  -2   7   5   12.90    3.90
  -2   7   5    8.00    3.20
  -2   7   5    9.30    3.20
   1  -7  -5   86.99   13.80
   1  -7  -5   72.79    8.40
   1  -7  -5   91.49    6.50
   1  -7  -5   78.79    5.70
  -1   7   5   93.99    6.80
  -1   7   5   86.39    6.70
  -1   7   5   87.79    7.00
   0  -7  -5   -0.50    2.50
   0  -7  -5   -4.10    1.70
   0  -7  -5   -0.80    4.20
   0  -7  -5   -0.40    2.10
   0   7   5   -2.80    2.30
   0   7   5   -0.50    2.30
   0   7   5   -1.10    2.00
  -1  -7  -5    3.70    3.80
  -1  -7  -5    7.80    2.50
  -1  -7  -5    4.30    2.40
  -1  -7  -5    7.10    2.70
   1   7   5    8.10    3.20
   1   7   5    3.00    2.70
   1   7   5    9.80    2.60
  -2  -7  -5  239.78    9.80
  -2  -7  -5  220.48    9.50
  -2  -7  -5  234.48   19.00
   2   7   5  240.88   10.00
   2   7   5  232.78    9.40
   2   7   5  230.68   10.80
  -3  -7  -5   46.20    4.60
  -3  -7  -5   41.70    4.10
  -3  -7  -5   32.20    7.20
   3   7   5   46.30    2.90
   3   7   5   53.49    6.00
   3   7   5   55.59    4.10
  -4  -7  -5    1.90    2.40
  -4  -7  -5    0.30    5.30
  -4  -7  -5   -0.30    1.60
   4   7   5   -4.00    2.30
   4   7   5    2.10    1.80
   4   7   5    0.40    2.20
  -5  -7  -5   48.90    5.20
  -5  -7  -5   52.79    5.30
  -5  -7  -5   64.99   14.20
  -5  -7  -5   47.40    5.00
   5   7   5   53.29    6.30
   5   7   5   50.59    6.10
   5   7   5   61.09    6.90
  -6  -7  -5    8.40    3.50
  -6  -7  -5    5.10    8.40
  -6  -7  -5   12.00    3.10
  -6  -7  -5    4.90    2.70
   6   7   5    4.90    3.80
   6   7   5   10.50    4.30
   6   7   5    9.20    3.30
  -7  -7  -5    5.60    2.40
  -7  -7  -5   -5.20    7.40
  -7  -7  -5    4.50    2.80
  -7  -7  -5    6.00    3.20
   7   7   5   -1.10    2.90
   7   7   5   13.20    4.40
   7   7   5    9.30    4.40
  -8  -7  -5   71.79    6.30
  -8  -7  -5   66.09    6.80
  -8  -7  -5   79.69    6.80
   8   7   5   68.39    8.00
   8   7   5   54.39    8.20
   8   7   5   80.89    7.30
  -9  -7  -5   70.49    6.90
  -9  -7  -5   70.19    6.80
  -9  -7  -5   78.69    7.00
   9   7   5   82.99    8.70
   9   7   5   87.29    9.00
   9   7   5   61.29    9.70
 -10  -7  -5   22.20    5.60
 -10  -7  -5   20.30    5.10
 -10  -7  -5   26.20    5.30
  10   7   5   18.60    7.60
  10   7   5   11.80    5.10
  10   7   5   25.60    5.80
 -11  -7  -5   -7.00    3.70
 -11  -7  -5   -8.30    3.00
 -11  -7  -5    0.00    3.90
  11   7   5   -2.10    4.40
  11   7   5   -2.00    4.20
  11   7   5   -1.40    3.40
 -12  -7  -5   -7.00    4.70
 -12  -7  -5   10.30    5.70
  12   7   5    0.80    5.40
  12   7   5    7.30    5.60
   5  -8  -5  -10.80    6.50
  -5   8   5    6.30    5.00
   4  -8  -5   57.59   13.50
   4  -8  -5   73.69    8.00
   4  -8  -5   54.89   10.10
  -4   8   5   60.99    8.10
  -4   8   5   62.89    8.50
   3  -8  -5   -0.80    2.30
   3  -8  -5   -3.90    4.90
   3  -8  -5   -0.20    4.10
  -3   8   5    1.30    3.30
  -3   8   5    1.40    3.50
   2  -8  -5    1.20    4.10
   2  -8  -5    1.40    4.30
   2  -8  -5    3.20    3.10
  -2   8   5   -2.50    2.10
  -2   8   5    3.30    3.50
  -2   8   5   -0.80    2.60
   1  -8  -5    1.60    2.20
   1  -8  -5    3.30    3.90
   1  -8  -5    7.30    5.20
  -1   8   5    6.50    3.20
  -1   8   5    4.50    3.30
   0  -8  -5   -5.30    3.90
   0  -8  -5    1.60    3.10
   0  -8  -5   -3.00    2.10
   0  -8  -5    0.00    1.70
   0   8   5    1.40    2.40
   0   8   5    1.50    3.00
   0   8   5    0.00    2.70
  -1  -8  -5   46.10    5.00
  -1  -8  -5   50.29    5.60
  -1  -8  -5   41.90    9.00
  -1  -8  -5   58.79    5.80
   1   8   5   40.50    5.50
   1   8   5   53.19    4.90
   1   8   5   57.19    6.10
  -2  -8  -5   51.09   10.50
  -2  -8  -5   69.09    5.70
  -2  -8  -5   69.89    5.50
   2   8   5   72.39    5.20
   2   8   5   71.89    6.60
  -3  -8  -5  178.48    8.80
  -3  -8  -5  207.18    9.80
   3   8   5  200.38   10.80
   3   8   5  184.18    8.00
   3   8   5  203.68   10.70
  -5  -8  -5    0.50    2.70
  -5  -8  -5    1.10    2.10
   5   8   5   -0.70    2.80
   5   8   5   -1.20    3.10
   5   8   5   -1.80    3.30
   6   8   5   -0.60    3.50
  -7  -8  -5   46.00    5.80
  -7  -8  -5   39.30   11.00
  -7  -8  -5   42.00    5.90
  -7  -8  -5   45.90    5.30
   7   8   5   33.80    6.90
   7   8   5   30.80    5.90
   7   8   5   37.40    6.20
  -8  -8  -5    6.20    2.90
  -8  -8  -5    4.60    3.50
  -8  -8  -5    2.50    3.60
   8   8   5    6.80    3.50
   8   8   5   -6.70    3.60
   8   8   5   10.30    4.50
  -9  -8  -5   18.20    4.30
  -9  -8  -5   19.60    4.10
  -9  -8  -5   16.00    4.10
   9   8   5   25.50    6.20
   9   8   5   17.60    5.60
   9   8   5   17.70    6.70
 -10  -8  -5   -0.90    2.90
 -10  -8  -5   -5.40    3.20
 -10  -8  -5   -5.40    2.40
  10   8   5   -1.00    4.70
  10   8   5   -4.80    5.00
  10   8   5    0.30    4.60
 -11  -8  -5   14.50    4.80
 -11  -8  -5   18.60    6.00
  11   8   5   22.20    6.10
  11   8   5   21.40    6.40
  11   8   5    6.10    5.70
 -12  -8  -5   -3.90    4.40
 -12  -8  -5    1.00    4.90
  12   8   5    1.00    5.80
  12   8   5   -5.10    3.40
   4  -9  -5   -8.20    6.20
  -4   9   5   -5.70    3.30
   3  -9  -5    2.90    7.40
   3  -9  -5   -3.80    5.60
   3  -9  -5    5.10    4.60
  -3   9   5    1.20    4.50
  -3   9   5    9.10    4.80
   2  -9  -5   -4.50    4.20
   2  -9  -5    4.50    3.90
   2  -9  -5   -1.30    6.30
  -2   9   5    1.70    2.90
  -2   9   5    6.00    4.00
   1  -9  -5    5.70    4.50
   1  -9  -5    0.00    5.90
   1  -9  -5    7.70    3.90
  -1   9   5    9.30    3.60
  -1   9   5   15.80    4.40
   0  -9  -5   -3.50    2.90
   0  -9  -5    0.80    4.40
   0  -9  -5   -1.90    2.60
   0   9   5    3.00    3.40
   0   9   5   -1.80    2.60
  -1  -9  -5   -2.80    2.40
  -1  -9  -5    0.40    2.90
  -1  -9  -5   -6.50    4.30
   1   9   5   -1.00    2.00
   1   9   5    0.10    2.10
   1   9   5    1.40    3.20
  -2  -9  -5   40.30    5.40
  -2  -9  -5   18.10    7.10
  -2  -9  -5   29.40    4.60
   2   9   5   38.80    4.70
   2   9   5   33.50    5.20
  -3  -9  -5   27.00    4.70
  -3  -9  -5   14.90    9.70
  -3  -9  -5   17.90    4.10
   3   9   5   15.10    4.90
   3   9   5   20.20    4.30
  -4  -9  -5   59.59    6.00
  -4  -9  -5   58.49    6.20
  -4  -9  -5   59.39   17.80
   4   9   5   66.19    6.70
  -5  -9  -5   -1.60    2.80
  -5  -9  -5   -4.90    1.40
  -5  -9  -5   -6.20   10.50
   5   9   5   -1.30    3.20
   5   9   5   -5.80    2.80
   5   9   5    0.50    3.20
  -6  -9  -5    0.80    2.20
  -6  -9  -5    2.00    3.20
  -6  -9  -5  -14.80   11.60
  -6  -9  -5    4.50    3.50
   6   9   5    7.10    4.00
   6   9   5    0.70    3.90
   6   9   5   -3.20    3.20
  -7  -9  -5   -0.70    2.40
  -7  -9  -5   -0.10    2.30
  -7  -9  -5   -1.70    2.20
  -7  -9  -5   -3.40    8.10
   7   9   5   -2.00    2.40
   7   9   5   -4.30    3.30
   7   9   5   -3.60    2.30
  -8  -9  -5   -3.20    1.90
  -8  -9  -5   11.90    8.60
  -8  -9  -5   -0.90    3.20
  -8  -9  -5    1.40    2.50
   8   9   5    2.10    3.60
   8   9   5   -1.40    2.60
   8   9   5   -0.90    3.90
  -9  -9  -5   19.00    5.20
  -9  -9  -5   18.80    3.90
  -9  -9  -5   20.00    5.40
   9   9   5   12.50    6.10
   9   9   5   21.80    5.40
   9   9   5   15.50    4.90
 -10  -9  -5    9.50    3.90
 -10  -9  -5   10.00    5.10
  10   9   5   -1.60    4.20
  10   9   5   12.50    4.90
  10   9   5    0.50    5.90
 -11  -9  -5   24.70    6.60
 -11  -9  -5   15.70    4.70
  11   9   5    1.00    7.60
  11   9   5    7.80    4.40
  11   9   5   28.60    7.20
 -12  -9  -5    6.50    5.90
 -12  -9  -5   -0.40    5.10
  12   9   5    2.30    5.30
  -2  10   5   10.00    4.60
   1 -10  -5    1.70    7.60
   1 -10  -5   -1.20    3.80
  -1  10   5   -1.70    4.10
  -1  10   5    7.10    3.70
   0 -10  -5   -3.60    3.80
   0 -10  -5   -0.50    3.60
   0  10   5   -4.00    3.00
   0  10   5    0.50    3.60
  -1 -10  -5   -2.60    7.40
  -1 -10  -5   20.50    4.90
   1  10   5   27.30    6.10
  -2 -10  -5    3.10    8.10
  -2 -10  -5    3.30    3.40
  -2 -10  -5    2.40    2.60
   2  10   5    1.90    2.90
   2  10   5   -1.20    3.30
  -3 -10  -5   -1.50   11.90
  -3 -10  -5    2.80    2.50
  -3 -10  -5   -1.90    2.70
   3  10   5    3.10    3.60
   3  10   5    1.30    2.70
  -4 -10  -5   -4.80   16.90
  -4 -10  -5   12.00    4.10
  -4 -10  -5    5.80    3.70
   4  10   5    6.80    3.60
   4  10   5   19.80    4.80
  -5 -10  -5  -21.40   16.70
  -5 -10  -5    0.30    2.30
  -5 -10  -5    0.50    3.40
   5  10   5    3.40    3.20
   5  10   5    9.20    4.80
   5  10   5   -0.80    3.50
  -6 -10  -5    9.70    3.60
  -6 -10  -5    4.70    3.60
  -6 -10  -5  -11.60   14.40
  -6 -10  -5    5.10    3.70
   6  10   5   -2.50    3.20
   6  10   5    2.40    3.00
   6  10   5    4.80    3.60
  -7 -10  -5   14.20    3.70
  -7 -10  -5    8.30    4.10
  -7 -10  -5   11.30    3.70
  -7 -10  -5   21.30    9.40
   7  10   5    7.60    4.90
   7  10   5   13.90    4.60
   7  10   5    1.50    4.30
  -8 -10  -5   12.10    4.00
  -8 -10  -5   -5.90   10.00
  -8 -10  -5   11.80    3.60
  -8 -10  -5    8.80    3.60
   8  10   5    0.00    4.50
   8  10   5    8.90    5.50
   8  10   5   17.30    5.00
  -9 -10  -5    2.90    4.00
  -9 -10  -5   -0.10    4.00
   9  10   5    4.50    3.60
   9  10   5   -6.80    2.90
   9  10   5   -3.00    3.00
 -10 -10  -5    6.50    4.60
 -10 -10  -5    4.60    4.50
  10  10   5   13.20    4.80
  10  10   5    4.80    6.50
  10  10   5    7.90    4.40
 -11 -10  -5   -6.80    4.20
 -11 -10  -5    1.50    3.60
  11  10   5    4.70    4.00
  11  10   5   -6.10    4.40
  11  10   5   -0.70    5.10
   0 -11  -5   -6.10    5.00
  -1 -11  -5    1.20   10.50
  -1 -11  -5   -0.40    2.50
   1  11   5   -5.00    3.50
  -2 -11  -5   -4.30    9.80
  -2 -11  -5   19.10    5.10
  -3 -11  -5    5.30   13.60
  -3 -11  -5    9.60    3.60
   3  11   5   15.60    5.40
  -7 -11  -5    9.80    3.50
  -7 -11  -5   -8.10   11.60
  -7 -11  -5    5.40    4.30
   7  11   5    6.10    5.20
   7  11   5   -4.20    4.40
   7  11   5    5.80    4.90
  -8 -11  -5   20.10   10.70
  -8 -11  -5   -5.00    3.80
  -8 -11  -5    1.80    3.80
   8  11   5    7.30    5.30
   8  11   5    2.70    3.80
   8  11   5   -8.00    3.90
  -9 -11  -5    3.60    4.20
  -9 -11  -5   13.00    5.50
   9  11   5   10.00    5.50
   9  11   5   -5.20    4.70
   9  11   5    7.60    4.60
 -10 -11  -5    0.70    4.50
 -10 -11  -5    9.80    5.40
  10  11   5   -6.60    5.80
  10  11   5   14.40    5.80
  10  11   5   10.30    6.00
 -11 -11  -5   14.10    6.40
  11  11   5    9.10    5.20
  11  11   5    3.80    5.90
  -3 -12  -5   -3.10    3.70
   3  12   5    4.90    4.20
  -4 -12  -5   -0.70    3.20
   4  12   5    4.90    5.50
  -5 -12  -5   14.30    4.60
  -5 -12  -5  -21.00   23.50
  -5 -12  -5    6.50    4.70
   5  12   5   16.00    5.40
  -6 -12  -5   -1.40    4.20
  -6 -12  -5   -4.60    3.70
  -6 -12  -5  -20.30   12.70
   6  12   5   -1.90    3.50
   6  12   5    3.10    3.80
  -7 -12  -5   -5.10    3.90
  -7 -12  -5  -29.00   13.00
  -7 -12  -5    0.00    2.90
   7  12   5    2.30    5.20
   7  12   5   -0.20    4.90
  -8 -12  -5    3.20   12.50
  -8 -12  -5  -12.30    3.70
  -8 -12  -5    0.30    3.30
   8  12   5   -4.80    4.80
   8  12   5    1.80    4.70
  -9 -12  -5   -6.10    4.20
  -9 -12  -5    0.60    3.60
   9  12   5    4.70    3.70
   9  12   5  -12.60    5.10
 -10 -12  -5    4.20    4.20
  10  12   5    7.30    6.10
  10  12   5  -11.80    5.60
  -8 -13  -5   -3.60    4.80
   9  11  -6   -4.60    5.60
   8  11  -6   -4.80    4.80
  -8 -11   6   -3.20    4.70
   7  11  -6   -5.80    4.90
   7  11  -6   -3.40    5.90
   7  11  -6    2.70    6.00
  -7 -11   6    0.00    4.60
  -7 -11   6   -2.20    3.90
   6  11  -6   -3.60    5.50
   6  11  -6    0.00    4.60
   6  11  -6    1.80    5.40
  -6 -11   6    3.90    4.50
  -6 -11   6   -0.10    4.10
   5  11  -6    9.30    5.40
   5  11  -6    0.70    5.80
   5  11  -6    1.50    4.60
  -5 -11   6    3.30    4.00
  -5 -11   6    7.10    4.40
   4  11  -6   43.90    8.40
   4  11  -6   48.60    9.00
  -4 -11   6   47.00    8.10
  -4 -11   6   45.10    7.20
   3  11  -6    6.50    4.90
   9  10  -6   -0.10    4.20
   9  10  -6   -5.20    4.30
   9  10  -6    6.50    4.60
  -9 -10   6   -1.50    4.00
   8  10  -6    2.10    5.20
   8  10  -6    6.70    6.00
  -8 -10   6    5.30    5.40
  -8 -10   6    0.00    3.50
   7  10  -6   13.10    6.50
   7  10  -6    7.00    4.40
   7  10  -6   12.60    5.00
  -7 -10   6    7.20    4.10
  -7 -10   6   12.30    5.20
   6  10  -6   11.50    5.30
   6  10  -6   23.10    7.10
   6  10  -6   19.90    6.00
  -6 -10   6   17.80    5.60
  -6 -10   6   28.50    5.30
   5  10  -6   -0.20    3.10
   5  10  -6   -1.50    4.50
   5  10  -6    3.90    4.40
  -5 -10   6    4.80    3.60
  -5 -10   6   -6.70    2.90
   4  10  -6   -0.60    2.60
   4  10  -6   -1.10    3.80
   4  10  -6    5.10    5.40
  -4 -10   6   -0.50    3.50
  -4 -10   6    4.00    3.60
   3  10  -6    1.30    4.90
   3  10  -6    2.50    4.10
   3  10  -6    3.40    4.00
  -3 -10   6    2.90    4.00
   2  10  -6    6.70    5.90
   2  10  -6    1.40    4.10
   2  10  -6   -2.00    4.30
  -2 -10   6    2.80    3.90
   1  10  -6    2.30    4.20
   1  10  -6    0.50    5.90
   1  10  -6   -4.10    4.60
  -1 -10   6    0.90    4.20
  10   9  -6   18.20    5.50
  10   9  -6    1.70    6.10
 -10  -9   6   14.00    4.50
   9   9  -6   -1.30    3.40
   9   9  -6   -0.90    5.10
  -9  -9   6   -1.90    3.10
   8   9  -6   10.90    5.20
   8   9  -6   11.70    5.30
  -8  -9   6    6.60    4.40
  -8  -9   6    8.10    3.70
   7   9  -6   10.90    4.70
   7   9  -6    7.80    5.40
   7   9  -6    7.80    4.80
  -7  -9   6    3.70    3.20
  -7  -9   6    1.50    4.00
   6   9  -6   -3.00    2.20
   6   9  -6    0.90    4.10
   6   9  -6   -2.20    3.20
  -6  -9   6   -3.00    3.40
  -6  -9   6    2.40    3.10
   5   9  -6    3.20    3.70
   5   9  -6    5.10    4.60
   5   9  -6    5.10    4.60
  -5  -9   6   -2.10    2.10
  -5  -9   6    6.00    3.30
   4   9  -6    0.30    4.20
   4   9  -6    0.50    3.70
   4   9  -6    3.70    3.70
  -4  -9   6   -1.20    3.30
  -4  -9   6   -4.50    2.70
   3   9  -6   15.70    5.30
   3   9  -6   15.20    5.10
   3   9  -6    7.80    4.30
  -3  -9   6   13.80    4.20
   2   9  -6   14.20    5.70
   2   9  -6    6.20    4.30
   2   9  -6   16.20    5.60
  -2  -9   6   15.40    4.50
   1   9  -6    2.30    3.50
   1   9  -6   -0.80    2.80
   1   9  -6   -3.60    2.60
  -1  -9   6    3.20    3.40
   0   9  -6    6.20    3.90
   0   9  -6    4.70    5.50
   0   9  -6    1.30    3.30
   0  -9   6   10.00    4.40
  -1   9  -6    3.70    5.10
  -1   9  -6    2.60    5.30
   1  -9   6    2.10    3.30
  -2   9  -6    1.80    6.20
  11   8  -6   -1.90    4.20
 -11  -8   6   -5.40    3.50
  10   8  -6    8.50    4.10
  10   8  -6   16.50    5.20
  10   8  -6    9.50    6.80
 -10  -8   6    7.90    3.60
   9   8  -6   10.40    4.10
   9   8  -6    7.20    4.60
  -9  -8   6    6.10    3.80
   8   8  -6    1.70    3.60
   8   8  -6   -0.10    3.50
   8   8  -6    4.80    4.20
  -8  -8   6   -1.30    3.00
  -8  -8   6    8.30    5.20
   7   8  -6    3.70    3.30
   7   8  -6    5.20    4.10
   7   8  -6    8.60    4.10
  -7  -8   6    5.90    3.40
  -7  -8   6    3.90    3.70
   6   8  -6    9.60    5.20
   6   8  -6   10.80    4.50
   6   8  -6    7.60    3.20
  -6  -8   6    6.90    4.30
  -6  -8   6   10.60    3.50
   5   8  -6    3.60    3.10
   5   8  -6   -1.50    2.30
   5   8  -6    1.30    4.20
  -5  -8   6    3.40    2.90
  -5  -8   6    0.10    2.30
   4   8  -6    8.50    3.80
   4   8  -6    7.30    4.00
   4   8  -6   13.50    4.50
  -4  -8   6   10.10    3.40
  -4  -8   6   10.80    4.00
   3   8  -6    2.60    3.60
   3   8  -6   -0.50    3.90
   3   8  -6    1.60    3.20
  -3  -8   6    4.60    3.00
   2   8  -6    7.80    4.00
   2   8  -6   16.70    4.90
   2   8  -6    9.90    3.70
   2   8  -6   14.50    4.10
  -2  -8   6   13.00    3.90
   1   8  -6   -0.60    2.20
   1   8  -6   -0.30    3.40
   1   8  -6   -1.60    2.70
   1   8  -6    1.80    2.60
  -1  -8   6    8.30    3.70
   0   8  -6   -2.40    2.70
   0   8  -6   -5.30    3.40
   0   8  -6    0.90    2.90
   0   8  -6    0.60    3.20
   0  -8   6    1.10    2.70
  -1   8  -6    2.50    4.20
  -1   8  -6    0.20    4.00
  -1   8  -6   -1.10    2.60
  -1   8  -6   -2.60    2.90
   1  -8   6    4.80    3.20
  -2   8  -6    2.90    3.90
  -2   8  -6   -0.90    2.80
  -2   8  -6    0.00    4.20
  -2   8  -6   -2.80    4.00
   2  -8   6    2.90    4.30
  -3   8  -6    3.50    5.50
  11   7  -6   -3.10    4.30
  11   7  -6    3.30    3.80
  11   7  -6   16.30    7.10
 -11  -7   6   -0.40    3.30
  10   7  -6    3.80    3.90
  10   7  -6    7.10    4.10
  10   7  -6   -0.90    3.60
 -10  -7   6   -0.10    2.70
   9   7  -6    0.50    2.70
   9   7  -6   -1.20    3.10
  -9  -7   6    3.70    2.80
   8   7  -6   61.99    7.20
   8   7  -6   45.60    6.10
   8   7  -6   39.70    8.30
  -8  -7   6   43.30    5.30
   7   7  -6   -2.80    2.20
   7   7  -6    2.10    2.80
  -7  -7   6   -2.90    2.40
  -7  -7   6    3.30    3.10
   6   7  -6   -1.20    2.60
   6   7  -6    1.30    2.80
   6   7  -6   -2.20    2.50
  -6  -7   6    0.50    2.20
  -6  -7   6    2.50    2.80
   5   7  -6   67.29    6.30
   5   7  -6   53.39    8.20
   5   7  -6   68.89    7.60
  -5  -7   6   68.39    6.40
  -5  -7   6   60.79    5.30
   4   7  -6   15.30    5.00
   4   7  -6   16.20    4.10
   4   7  -6   15.80    4.60
  -4  -7   6   10.60    3.20
  -4  -7   6   16.90    4.60
   3   7  -6   38.00    6.70
   3   7  -6   46.10    5.70
   3   7  -6   34.60    6.30
   3   7  -6   47.20    5.20
   3   7  -6   46.60    4.20
  -3  -7   6   47.00    4.30
  -3  -7   6   37.00    4.60
   2   7  -6    6.20    4.20
   2   7  -6    2.90    2.80
   2   7  -6    4.70    2.70
   2   7  -6    6.80    2.80
   2   7  -6    1.90    2.00
  -2  -7   6    3.90    2.70
  -2  -7   6    4.30    2.40
   1   7  -6   -1.30    3.30
   1   7  -6   -2.20    2.90
   1   7  -6    1.70    2.70
   1   7  -6   -0.70    2.00
  -1  -7   6    1.00    2.10
  -1  -7   6   -4.00    1.90
   0   7  -6    3.00    3.10
   0   7  -6    4.60    4.00
   0   7  -6    2.60    2.70
   0   7  -6    3.10    2.80
   0  -7   6    4.90    2.40
   0  -7   6    5.40    2.80
  -1   7  -6   -0.10    2.80
  -1   7  -6    1.80    2.80
  -1   7  -6    2.50    2.60
  -1   7  -6    1.00    3.60
   1  -7   6    2.90    2.50
   1  -7   6   -4.10    2.70
  -2   7  -6    1.20    4.00
  -2   7  -6    6.70    4.40
  -2   7  -6    4.10    4.10
  -2   7  -6   -1.40    3.50
   2  -7   6    3.00    3.10
   2  -7   6    2.60    2.60
  -3   7  -6   11.30    5.10
  -3   7  -6   13.50    5.60
  -3   7  -6   13.90    5.50
  -3   7  -6   18.60    6.00
   3  -7   6   19.00    5.30
   3  -7   6   10.50    4.50
  -4   7  -6    2.10    4.40
  -4   7  -6    5.90    5.30
  -4   7  -6    6.10    4.60
  -4   7  -6    5.70    3.90
   4  -7   6   12.80    4.60
  -5   7  -6    4.80    5.50
  11   6  -6    8.40    5.60
  11   6  -6   15.80    7.10
  11   6  -6    7.70    4.30
 -11  -6   6    3.20    3.30
  10   6  -6    2.60    4.10
  10   6  -6    1.60    3.00
  10   6  -6   13.30    5.50
 -10  -6   6    2.50    2.80
   9   6  -6    6.50    4.00
   9   6  -6   -1.30    2.50
   9   6  -6   -2.30    3.10
  -9  -6   6    0.00    2.80
  -9  -6   6    6.50    3.20
   8   6  -6   -0.50    4.10
   8   6  -6    3.00    3.00
   8   6  -6    1.40    2.40
  -8  -6   6   -0.60    2.40
  -8  -6   6   -4.30    2.20
   7   6  -6    0.00    2.90
   7   6  -6    2.20    2.80
   7   6  -6   -2.20    2.30
  -7  -6   6    1.80    2.90
  -7  -6   6    4.80    2.70
  -7  -6   6    0.70    2.30
   6   6  -6   12.90    3.80
   6   6  -6    4.30    3.50
   6   6  -6    8.10    3.10
  -6  -6   6   10.10    2.70
  -6  -6   6    6.70    3.30
  -6  -6   6    7.90    2.80
   5   6  -6    0.80    3.50
   5   6  -6    5.20    2.60
   5   6  -6   -0.10    2.60
  -5  -6   6    4.50    2.50
  -5  -6   6   -1.40    2.20
   4   6  -6   95.89    6.10
   4   6  -6   93.99    8.10
   4   6  -6   88.79    4.50
   4   6  -6  102.39    6.80
   4   6  -6  104.69    9.60
  -4  -6   6  105.29    6.20
  -4  -6   6   87.99    7.50
  -4  -6   6   99.29    5.20
   3   6  -6   32.00    4.60
   3   6  -6   25.20    5.70
   3   6  -6   30.80    4.10
   3   6  -6   22.50    3.00
   3   6  -6   22.60    4.70
  -3  -6   6   27.90    3.50
  -3  -6   6   27.80    3.70
   2   6  -6    4.80    2.90
   2   6  -6    6.30    2.90
   2   6  -6    7.80    2.80
   2   6  -6    6.60    2.60
  -2  -6   6    2.20    2.00
  -2  -6   6    5.60    2.70
   1   6  -6   25.00    4.10
   1   6  -6   17.40    4.40
   1   6  -6   22.20    3.80
   1   6  -6   21.90    4.30
  -1  -6   6   20.20    3.30
  -1  -6   6   20.50    3.80
   0   6  -6   -0.10    2.90
   0   6  -6    1.30    1.80
   0   6  -6   -1.70    2.10
   0   6  -6    1.40    3.20
   0  -6   6    1.60    2.50
   0  -6   6   -1.00    2.10
   0  -6   6    1.60    2.30
  -1   6  -6    3.30    2.40
  -1   6  -6    5.10    3.60
  -1   6  -6   -0.90    2.50
  -1   6  -6   -0.70    2.20
   1  -6   6    4.70    2.60
   1  -6   6    1.10    3.00
   1  -6   6   -3.50    2.10
  -2   6  -6   -2.20    1.90
  -2   6  -6   -3.90    2.30
  -2   6  -6   -1.70    2.10
  -2   6  -6   -0.80    2.40
   2  -6   6    1.30    3.30
   2  -6   6   -2.00    2.60
  -3   6  -6   -1.30    3.20
  -3   6  -6   10.50    4.60
  -3   6  -6    4.30    3.50
  -3   6  -6    4.40    3.90
   3  -6   6    5.10    3.00
   3  -6   6    5.90    3.80
  -4   6  -6   22.70    6.20
  -4   6  -6   16.30    5.20
  -4   6  -6   13.30    5.00
  -4   6  -6   24.40    6.50
   4  -6   6   19.50    5.50
   4  -6   6   12.90    4.80
  -5   6  -6    2.30    4.60
  -5   6  -6   11.40    5.00
  -5   6  -6    7.90    5.00
  -5   6  -6    2.50    4.00
   5  -6   6    7.80    4.20
   5  -6   6   12.70    5.10
  -6   6  -6    4.70    5.60
 -12  -5   6    6.00    5.20
  11   5  -6    5.50    3.90
  11   5  -6    1.20    5.90
  11   5  -6   12.20    5.80
 -11  -5   6    8.00    3.90
 -11  -5   6    3.90    4.80
  10   5  -6    3.10    5.10
  10   5  -6    9.00    4.50
  10   5  -6   11.10    3.80
 -10  -5   6    6.70    4.20
 -10  -5   6    8.80    3.50
   9   5  -6    4.20    2.90
   9   5  -6    4.80    3.90
   9   5  -6    6.60    5.10
  -9  -5   6    5.70    3.60
  -9  -5   6    6.80    3.00
   8   5  -6   12.60    5.90
   8   5  -6   17.90    3.60
   8   5  -6   15.10    4.90
  -8  -5   6   18.10    3.50
  -8  -5   6   14.90    3.80
   7   5  -6    5.20    3.60
   7   5  -6    9.50    3.10
   7   5  -6   10.50    3.00
  -7  -5   6   11.80    3.30
  -7  -5   6   14.30    2.80
  -7  -5   6    0.80    4.00
   6   5  -6   -2.10    2.20
   6   5  -6    0.40    2.00
   6   5  -6    1.30    2.30
  -6  -5   6   -2.20    2.00
  -6  -5   6    0.30    2.00
  -6  -5   6   -2.30    3.30
   5   5  -6   72.09    8.10
   5   5  -6   73.99    3.40
   5   5  -6   77.89    4.90
   5   5  -6   79.39    7.10
   5   5  -6   81.89    5.50
  -5  -5   6   84.79    5.10
  -5  -5   6   75.79    3.90
  -5  -5   6   81.29    5.50
  -5  -5   6   85.49    6.70
   4   5  -6   17.70    3.20
   4   5  -6   21.10    3.00
   4   5  -6   17.30    2.20
   4   5  -6   18.10    5.00
   4   5  -6   25.50    3.40
   4   5  -6   18.90    3.90
  -4  -5   6   18.30    3.00
  -4  -5   6   18.60    2.40
  -4  -5   6   15.50    4.40
  -4  -5   6   21.20    3.40
  -4  -5   6   20.00    3.10
   3   5  -6   37.00    5.40
   3   5  -6   34.50    3.60
   3   5  -6   31.90    6.10
   3   5  -6   30.40    3.40
   3   5  -6   43.70    3.70
   3   5  -6   38.30    4.10
  -3  -5   6   36.30    5.10
  -3  -5   6   34.30    3.80
  -3  -5   6   38.70    3.20
  -3  -5   6   39.60    3.70
   2   5  -6   67.99    5.30
   2   5  -6   76.59    5.20
   2   5  -6   73.89    4.80
   2   5  -6   70.99    5.10
   2   5  -6   73.19    6.90
  -2  -5   6   75.29    4.40
  -2  -5   6   71.69    5.50
  -2  -5   6   69.79    4.80
  -2  -5   6   77.59    5.10
   1   5  -6   13.20    2.90
   1   5  -6   11.30    2.60
   1   5  -6    8.80    3.60
   1   5  -6   10.00    2.60
  -1  -5   6    7.80    2.70
  -1  -5   6   11.00    2.50
  -1  -5   6    7.60    2.60
  -1  -5   6   10.30    2.80
   0   5  -6    3.00    2.70
   0   5  -6    0.10    2.70
   0   5  -6    0.20    2.10
   0   5  -6    0.20    1.90
   0  -5   6    2.00    1.80
   0  -5   6   -1.60    1.80
   0  -5   6   -0.80    2.20
  -1   5  -6   23.50    4.30
  -1   5  -6   27.50    4.90
  -1   5  -6   16.90    4.50
  -1   5  -6   14.50    4.10
   1  -5   6   20.80    3.60
   1  -5   6   17.80    3.40
   1  -5   6   22.60    3.80
  -2   5  -6   20.30    5.10
  -2   5  -6   22.00    4.40
  -2   5  -6   19.10    4.30
  -2   5  -6   16.40    4.00
   2  -5   6   24.30    4.60
   2  -5   6   14.40    3.20
   2  -5   6   19.90    3.90
  -3   5  -6   29.20    5.20
  -3   5  -6   30.80    5.40
  -3   5  -6   37.70    6.50
  -3   5  -6   21.70    5.40
   3  -5   6   33.30    4.30
   3  -5   6   25.30    4.60
   3  -5   6   37.80    5.70
  -4   5  -6   50.79    7.30
  -4   5  -6   72.59    8.60
  -4   5  -6   48.50    7.80
  -4   5  -6   72.29    8.40
   4  -5   6   56.79    7.20
   4  -5   6   39.30    5.60
  -5   5  -6    4.90    3.30
  -5   5  -6    3.00    4.20
  -5   5  -6    2.40    3.50
  -5   5  -6    8.30    4.10
   5  -5   6    0.00    2.90
   5  -5   6   -0.90    2.50
  -6   5  -6   -1.40    4.40
  -6   5  -6   -3.00    3.20
  -6   5  -6    2.00    5.30
   6  -5   6   -1.80    2.90
   6  -5   6   -0.10    3.90
  -7   5  -6    3.20    5.60
   7  -5   6    5.80    5.40
  11   4  -6   -2.40    2.60
  11   4  -6    3.10    6.20
  11   4  -6   -0.40    4.90
 -11  -4   6   -1.60    4.00
 -11  -4   6   -0.60    3.20
  10   4  -6    0.30    3.00
  10   4  -6   -0.10    4.70
  10   4  -6    1.00    3.30
 -10  -4   6    1.00    3.70
 -10  -4   6   -3.70    2.40
   9   4  -6   -2.30    2.40
   9   4  -6   -4.00    3.80
   9   4  -6    2.80    4.80
  -9  -4   6   -3.60    3.10
  -9  -4   6   -2.60    2.10
   8   4  -6    1.10    3.90
   8   4  -6   -2.60    1.80
   8   4  -6   -0.10    2.90
  -8  -4   6    0.10    2.80
  -8  -4   6    1.80    2.20
   7   4  -6   88.69    6.40
   7   4  -6   84.89    9.90
   7   4  -6   86.99    6.00
  -7  -4   6   96.79    6.80
  -7  -4   6   83.89    5.20
   6   4  -6  191.78    9.90
   6   4  -6  163.48   12.80
   6   4  -6  199.48    8.50
   6   4  -6  180.08    7.10
  -6  -4   6  174.78   10.40
  -6  -4   6  190.38    9.20
  -6  -4   6  192.18    7.40
   5   4  -6   -0.10    1.50
   5   4  -6   -3.30    2.70
   5   4  -6   -0.10    1.00
   5   4  -6    0.20    1.80
   5   4  -6    0.80    0.90
  -5  -4   6   -4.20    1.60
  -5  -4   6   -0.20    1.50
  -5  -4   6    0.10    1.40
  -5  -4   6    0.60    1.00
  -5  -4   6    1.90    2.40
   4   4  -6    9.90    2.90
   4   4  -6    8.50    1.90
   4   4  -6    7.00    2.20
   4   4  -6    9.20    1.70
   4   4  -6    8.30    1.70
   4   4  -6    6.90    3.00
  -4  -4   6   10.20    3.30
  -4  -4   6    8.70    2.00
  -4  -4   6    5.70    2.50
  -4  -4   6    7.30    1.30
  -4  -4   6    5.10    2.50
  -4  -4   6    8.50    2.00
   3   4  -6   52.99    6.40
   3   4  -6   70.29    4.20
   3   4  -6   59.69    4.20
   3   4  -6   74.29    3.90
   3   4  -6   63.29    5.70
  -3  -4   6   75.29    4.30
  -3  -4   6   67.99    4.00
  -3  -4   6   77.09    5.10
  -3  -4   6   55.79    4.80
   2   4  -6   49.50    3.90
   2   4  -6   35.90    3.20
   2   4  -6   43.50    5.00
   2   4  -6   40.00    3.20
   2   4  -6   41.70    3.60
  -2  -4   6   50.79    4.40
  -2  -4   6   39.70    2.90
  -2  -4   6   40.40    3.30
  -2  -4   6   42.50    3.40
   1   4  -6  119.39    6.80
   1   4  -6  112.69    6.30
   1   4  -6  119.39    6.00
   1   4  -6  127.19    6.00
   1   4  -6  115.99    8.50
  -1  -4   6  114.79    5.20
  -1  -4   6  125.89    6.00
  -1  -4   6  127.99    5.90
  -1  -4   6  124.19    6.90
   0   4  -6   27.00    4.00
   0   4  -6   28.80    3.70
   0   4  -6   22.70    4.30
   0   4  -6   34.10    5.00
   0   4  -6   34.60    4.00
   0  -4   6   30.50    3.80
   0  -4   6   33.70    3.60
   0  -4   6   26.40    3.20
   0  -4   6   29.10    3.70
  -1   4  -6  172.78   10.10
  -1   4  -6  163.38    8.80
  -1   4  -6  160.58    9.50
  -1   4  -6  173.48   10.90
  -1   4  -6  159.08    8.10
   1  -4   6  169.88    7.70
   1  -4   6  159.88    8.00
   1  -4   6  182.88    8.30
  -2   4  -6    5.20    2.90
  -2   4  -6   -0.20    2.70
  -2   4  -6    0.90    2.70
  -2   4  -6    4.80    2.70
   2  -4   6    7.70    2.70
   2  -4   6    8.00    2.40
   2  -4   6    6.60    2.90
  -3   4  -6   14.50    4.00
  -3   4  -6   17.60    4.40
  -3   4  -6   10.80    3.60
  -3   4  -6   16.20    4.60
   3  -4   6   22.80    4.20
   3  -4   6   17.60    3.30
   3  -4   6   17.10    4.00
  -4   4  -6    2.00    2.80
  -4   4  -6    0.90    2.60
  -4   4  -6    0.40    2.80
  -4   4  -6    3.60    3.10
   4  -4   6    0.80    1.70
   4  -4   6   -2.10    1.60
   4  -4   6    2.10    3.30
  -5   4  -6   -1.70    2.60
  -5   4  -6    1.80    3.50
  -5   4  -6    1.20    2.70
  -5   4  -6    2.50    3.20
   5  -4   6    3.60    3.00
   5  -4   6   -2.20    2.20
  -6   4  -6   -1.70    2.80
  -6   4  -6   -5.70    2.50
  -6   4  -6    1.30    3.30
  -6   4  -6    2.80    3.90
   6  -4   6    6.50    3.70
   6  -4   6    3.70    3.90
  -7   4  -6   -2.50    3.60
  -7   4  -6   -0.80    4.00
  -7   4  -6    2.10    5.20
   7  -4   6    3.30    4.50
   7  -4   6    1.50    3.50
  11   3  -6   -2.10    6.20
  11   3  -6   -0.10    2.90
  11   3  -6   -3.70    5.40
 -11  -3   6   -2.60    3.00
 -11  -3   6   -5.60    3.90
  10   3  -6    1.20    3.50
  10   3  -6   -0.60    2.50
  10   3  -6    0.70    5.70
 -10  -3   6   -4.10    2.60
 -10  -3   6   -2.20    3.00
   9   3  -6   -2.70    2.00
   9   3  -6    1.10    3.90
   9   3  -6   -1.90    4.50
  -9  -3   6    6.70    4.20
  -9  -3   6    1.20    2.50
   8   3  -6   13.40    5.00
   8   3  -6    9.60    4.10
   8   3  -6   17.10    3.30
  -8  -3   6   14.20    3.00
  -8  -3   6   11.80    3.80
   7   3  -6  160.18   13.20
   7   3  -6  168.78    7.80
   7   3  -6  152.88   12.30
   7   3  -6  160.48    7.90
  -7  -3   6  160.88    9.10
  -7  -3   6  158.78    7.00
   6   3  -6   84.99    5.80
   6   3  -6   89.79    5.20
   6   3  -6  101.59    9.00
  -6  -3   6   81.99    6.40
  -6  -3   6  100.89    7.10
  -6  -3   6   83.69    4.60
   5   3  -6   71.79    4.40
   5   3  -6   83.69    5.90
   5   3  -6   81.49    3.60
   5   3  -6   76.19    3.70
   5   3  -6   65.69    7.40
  -5  -3   6   77.29    6.00
  -5  -3   6   76.69    3.80
  -5  -3   6   70.29    2.20
  -5  -3   6   68.79    2.20
  -5  -3   6   77.09    5.70
   4   3  -6   41.60    3.10
   4   3  -6   39.10    4.40
   4   3  -6   45.00    2.60
   4   3  -6   45.50    6.00
   4   3  -6   46.30    2.70
   4   3  -6   42.10    3.20
  -4  -3   6   43.70    2.90
  -4  -3   6   43.80    4.30
  -4  -3   6   45.60    4.50
  -4  -3   6   39.20    4.20
   3   3  -6   11.10    2.00
   3   3  -6   11.70    2.00
   3   3  -6   12.20    1.70
   3   3  -6   12.50    2.80
   3   3  -6   12.90    1.70
  -3  -3   6   10.30    1.00
  -3  -3   6   11.30    1.00
  -3  -3   6   11.60    2.90
  -3  -3   6   20.20    3.20
  -3  -3   6   13.10    1.80
  -3  -3   6    4.50    1.20
   2   3  -6   17.40    3.30
   2   3  -6   18.00    2.40
   2   3  -6   17.10    2.50
   2   3  -6   14.50    1.90
   2   3  -6   14.80    1.90
  -2  -3   6   16.80    2.20
  -2  -3   6   11.30    2.60
  -2  -3   6   15.60    2.00
  -2  -3   6   17.20    3.10
  -2  -3   6   19.30    1.60
   1   3  -6   -1.70    0.90
   1   3  -6    2.10    1.60
   1   3  -6    0.60    1.20
   1   3  -6   -1.40    1.00
   1   3  -6    2.40    1.50
   1   3  -6   -1.70    0.80
  -1  -3   6    1.00    1.10
  -1  -3   6    0.60    1.20
  -1  -3   6    0.40    1.20
  -1  -3   6   -1.80    1.60
   0   3  -6   89.79    6.70
   0   3  -6   82.39    4.60
   0   3  -6   83.79    5.70
   0   3  -6   83.89    5.10
   0   3  -6   77.59    4.50
   0  -3   6   74.49    4.60
   0  -3   6   83.99    4.60
   0  -3   6   80.09    4.20
   0  -3   6   80.89    5.30
  -1   3  -6  456.25   20.40
  -1   3  -6  468.25   14.50
  -1   3  -6  433.06   17.80
  -1   3  -6  445.96   14.90
  -1   3  -6  438.46   17.00
  -1   3  -6  452.15   14.50
   1  -3   6  453.85   14.20
   1  -3   6  448.36   14.30
   1  -3   6  451.45   15.30
   1  -3   6  458.15   13.80
  -2   3  -6  220.38   11.40
  -2   3  -6  218.98   11.70
  -2   3  -6  197.18    9.70
  -2   3  -6  243.88   10.00
   2  -3   6  222.88    9.10
   2  -3   6  215.78    9.40
   2  -3   6  234.38    9.70
  -3   3  -6   12.70    3.40
  -3   3  -6    6.30    2.80
  -3   3  -6   12.80    3.50
  -3   3  -6   13.90    3.70
   3  -3   6   19.40    3.50
   3  -3   6   13.10    3.50
   3  -3   6   19.80    3.80
  -4   3  -6   74.59    7.90
  -4   3  -6   82.29    7.80
  -4   3  -6   91.69    7.60
  -4   3  -6   80.79    6.50
   4  -3   6   78.29    6.30
   4  -3   6   76.99    5.50
   4  -3   6   92.59    6.40
  -5   3  -6   -0.10    3.20
  -5   3  -6   -0.40    3.10
  -5   3  -6    0.80    2.20
  -5   3  -6    0.90    2.50
   5  -3   6    1.70    2.00
   5  -3   6   -4.80    2.90
   5  -3   6   -1.10    1.90
  -6   3  -6    6.90    3.70
  -6   3  -6   10.00    4.70
  -6   3  -6    5.70    4.10
  -6   3  -6    9.50    4.30
   6  -3   6   10.60    5.50
   6  -3   6    4.50    4.20
   6  -3   6   12.60    4.30
  -7   3  -6    0.30    3.00
  -7   3  -6    2.90    4.40
  -7   3  -6    2.80    4.10
   7  -3   6    6.10    4.10
   7  -3   6    4.50    4.20
   7  -3   6   -2.80    2.40
  -8   3  -6   25.20    6.40
  -8   3  -6   28.50    6.10
   8  -3   6   41.80    7.70
   8  -3   6   34.90    5.90
   8  -3   6   19.90    8.00
  11   2  -6   -2.60    3.30
 -11  -2   6    4.20    4.90
 -11  -2   6    3.50    3.70
  10   2  -6    3.70    2.90
  10   2  -6   -2.00    5.30
  10   2  -6    0.40    4.40
 -10  -2   6   -4.80    2.30
 -10  -2   6    1.60    4.50
   9   2  -6   -3.90    3.10
   9   2  -6    0.00    2.40
   9   2  -6    3.90    5.20
  -9  -2   6   -0.20    3.80
  -9  -2   6   -0.10    2.20
   8   2  -6    1.60    3.40
   8   2  -6   -0.60    2.00
   8   2  -6    2.80    4.60
  -8  -2   6    2.30    3.50
  -8  -2   6    4.30    2.40
   7   2  -6   24.80    3.40
   7   2  -6   28.40    6.00
   7   2  -6   16.40    4.70
  -7  -2   6   13.80    3.50
  -7  -2   6   15.00    2.70
   6   2  -6   15.20    4.80
   6   2  -6   11.00    2.30
   6   2  -6    8.80    2.20
   6   2  -6    2.60    2.90
  -6  -2   6   12.10    2.50
  -6  -2   6   17.40    3.50
  -6  -2   6   10.80    2.00
   5   2  -6    0.90    2.30
   5   2  -6    0.90    1.30
   5   2  -6    0.90    1.00
   5   2  -6    1.30    1.30
   5   2  -6    1.00    0.90
  -5  -2   6    0.90    1.90
  -5  -2   6   -0.10    1.10
  -5  -2   6    4.40    2.20
  -5  -2   6    0.70    2.00
  -5  -2   6    0.90    1.10
   4   2  -6   30.80    3.60
   4   2  -6   32.60    2.00
   4   2  -6   27.10    4.70
   4   2  -6   31.60    1.60
   4   2  -6   28.20    1.40
   4   2  -6   30.20    2.30
  -4  -2   6   37.10    3.90
  -4  -2   6   29.50    2.10
  -4  -2   6   26.80    2.00
  -4  -2   6   29.60    3.80
  -4  -2   6   28.70    4.40
   3   2  -6    9.30    1.20
   3   2  -6    7.70    2.00
   3   2  -6    9.90    1.90
   3   2  -6    7.20    1.30
   3   2  -6    7.10    2.60
   3   2  -6    9.60    0.80
   3   2  -6   10.30    0.80
  -3  -2   6    7.50    2.80
  -3  -2   6   12.00    2.60
  -3  -2   6    9.10    1.20
  -3  -2   6   10.00    2.40
  -3  -2   6    8.30    1.20
   2   2  -6  105.39    6.60
   2   2  -6  104.49    4.20
   2   2  -6  105.09    3.60
   2   2  -6   99.79    3.40
   2   2  -6  105.39    3.80
   2   2  -6   98.29    5.50
  -2  -2   6  104.59    3.80
  -2  -2   6  111.29    6.20
  -2  -2   6  103.69    3.70
  -2  -2   6  101.99    6.00
   1   2  -6   24.10    2.00
   1   2  -6   20.30    3.30
   1   2  -6   23.30    2.90
   1   2  -6   24.40    2.10
   1   2  -6   25.90    2.30
  -1  -2   6   26.10    3.50
  -1  -2   6   24.10    1.60
  -1  -2   6   24.10    2.10
  -1  -2   6   24.10    3.30
  -1  -2   6   24.90    2.20
  -1  -2   6   24.20    1.60
   0   2  -6  335.87   10.80
   0   2  -6  325.47   13.00
   0   2  -6  349.07   10.50
   0   2  -6  331.57   14.00
   0   2  -6  355.86   10.50
   0   2  -6  358.56   17.20
   0  -2   6  361.46   10.60
   0  -2   6  350.56   12.60
   0  -2   6  339.77   10.30
   0  -2   6  343.07    9.80
  -1   2  -6    3.50    1.60
  -1   2  -6    3.50    1.70
  -1   2  -6    4.90    1.80
  -1   2  -6    6.60    2.20
  -1   2  -6    5.50    2.10
  -1   2  -6    4.10    1.40
   1  -2   6    6.00    1.90
   1  -2   6    5.50    1.80
   1  -2   6    6.70    1.80
   1  -2   6    8.10    2.20
  -2   2  -6   13.80    2.80
  -2   2  -6    9.10    2.70
  -2   2  -6   10.40    2.40
  -2   2  -6    9.50    2.60
  -2   2  -6   14.00    2.70
   2  -2   6   13.30    2.80
   2  -2   6   10.80    2.40
   2  -2   6    9.20    2.70
   2  -2   6    9.40    2.40
  -3   2  -6    1.00    2.20
  -3   2  -6    5.70    3.40
  -3   2  -6    1.90    2.50
  -3   2  -6    1.80    2.30
   3  -2   6   -1.30    2.10
   3  -2   6    1.80    1.50
   3  -2   6    1.40    1.60
  -4   2  -6   56.89    5.90
  -4   2  -6   63.49    2.80
  -4   2  -6   68.09    7.40
  -4   2  -6   59.89    5.40
  -4   2  -6   58.49    5.60
   4  -2   6   67.39    5.00
   4  -2   6   58.19    5.20
   4  -2   6   59.59    5.50
  -5   2  -6  127.59    8.20
  -5   2  -6  153.18    9.60
  -5   2  -6  153.78    9.90
  -5   2  -6  138.89   10.40
   5  -2   6  132.69    8.30
   5  -2   6  139.79   10.40
   5  -2   6  146.29    8.80
   5  -2   6  149.09    7.60
  -6   2  -6   -1.60    2.00
  -6   2  -6    3.20    2.80
  -6   2  -6   -1.50    2.20
  -6   2  -6   -2.30    1.80
   6  -2   6   -1.40    3.80
   6  -2   6   -3.10    2.60
   6  -2   6    2.90    2.80
  -7   2  -6  -12.30    3.50
  -7   2  -6    1.80    2.70
  -7   2  -6   -4.20    3.30
  -7   2  -6   -0.30    2.60
   7  -2   6    2.10    3.30
   7  -2   6    1.30    4.50
   7  -2   6   -0.40    3.70
  -8   2  -6    1.00    3.20
  -8   2  -6    0.90    3.60
  -8   2  -6   -3.90    2.70
   8  -2   6   -1.20    4.00
   8  -2   6    4.30    5.20
   8  -2   6    2.60    3.30
  -9   2  -6   26.20    7.00
   9  -2   6   41.00    9.50
   9  -2   6   42.10    7.70
 -11  -1   6    4.20    3.90
 -11  -1   6    5.60    5.40
  10   1  -6   -1.30    5.90
  10   1  -6    3.10    3.40
 -10  -1   6    6.80    5.00
 -10  -1   6    1.10    3.10
   9   1  -6   13.50    5.50
   9   1  -6   23.40    4.30
   9   1  -6   26.60    6.80
  -9  -1   6   31.90    6.60
  -9  -1   6   24.70    4.30
   8   1  -6   -2.50    2.50
   8   1  -6    0.80    2.20
   8   1  -6    3.40    3.90
  -8  -1   6   -0.70    3.20
  -8  -1   6   -1.40    1.90
   7   1  -6   11.30    4.20
   7   1  -6   11.30    2.50
   7   1  -6    9.00    3.70
  -7  -1   6   14.90    2.80
  -7  -1   6    5.10    3.60
   6   1  -6    3.50    3.80
   6   1  -6    0.00    2.20
   6   1  -6    0.00    1.00
   6   1  -6   -1.90    1.30
  -6  -1   6   -1.90    2.70
  -6  -1   6   -0.20    1.50
   5   1  -6   16.60    3.80
   5   1  -6   19.00    2.30
   5   1  -6   16.70    1.50
   5   1  -6   17.50    4.30
   5   1  -6   17.40    2.00
   5   1  -6   17.70    2.60
  -5  -1   6   21.70    2.40
  -5  -1   6   20.20    4.00
  -5  -1   6   17.00    3.10
  -5  -1   6   17.10    2.00
   4   1  -6   89.69    3.40
   4   1  -6   87.29    5.50
   4   1  -6   86.39    7.00
   4   1  -6   94.59    3.70
  -4  -1   6   92.79    5.80
  -4  -1   6   92.39    3.50
  -4  -1   6   90.69    3.20
  -4  -1   6   91.99    5.60
  -4  -1   6   93.49    5.90
   3   1  -6   36.00    3.70
   3   1  -6   39.80    1.90
   3   1  -6   42.10    5.10
   3   1  -6   36.20    1.60
   3   1  -6   41.50    3.90
  -3  -1   6   37.70    3.80
  -3  -1   6   32.00    3.40
  -3  -1   6   40.70    4.30
   2   1  -6   75.89    4.70
   2   1  -6   77.69    5.40
   2   1  -6   71.19    2.40
   2   1  -6   70.89    2.60
  -2  -1   6   64.19    4.80
  -2  -1   6   76.29    5.30
   1   1  -6   20.60    1.20
   1   1  -6   23.90    3.10
   1   1  -6   21.20    1.60
   1   1  -6   17.20    1.50
   1   1  -6   19.00    2.80
   1   1  -6   18.00    1.10
  -1  -1   6   18.70    3.20
  -1  -1   6   22.70    3.50
  -1  -1   6   20.00    1.50
  -1  -1   6   18.80    1.50
   0   1  -6  111.29    6.40
   0   1  -6  115.59    5.50
   0   1  -6  111.79    4.50
   0   1  -6  116.79    4.70
   0   1  -6  115.39    4.40
   0   1  -6  114.79    4.60
   0  -1   6  119.89    3.80
   0  -1   6  114.29    4.40
   0  -1   6  116.69    6.20
   0  -1   6  114.39    6.30
   0  -1   6  119.09    4.50
   0  -1   6  115.09    3.80
  -1   1  -6   26.20    2.60
  -1   1  -6   27.30    2.80
  -1   1  -6   24.20    2.50
  -1   1  -6   27.20    3.20
  -1   1  -6   23.70    3.70
  -1   1  -6   28.20    2.50
  -1   1  -6   29.90    2.60
   1  -1   6   25.50    2.60
   1  -1   6   24.20    2.70
   1  -1   6   27.70    2.30
   1  -1   6   32.60    4.10
  -2   1  -6   29.90    2.50
  -2   1  -6   31.10    3.70
  -2   1  -6   34.30    3.20
  -2   1  -6   24.40    3.90
  -2   1  -6   34.10    3.30
  -2   1  -6   33.90    3.30
   2  -1   6   33.60    4.20
   2  -1   6   32.30    3.00
   2  -1   6   30.20    3.20
   2  -1   6   31.90    3.10
  -3   1  -6   17.10    2.90
  -3   1  -6   17.60    3.40
  -3   1  -6   20.30    3.10
  -3   1  -6   21.50    3.80
  -3   1  -6   25.40    2.00
   3  -1   6   18.70    3.00
   3  -1   6   23.20    3.60
   3  -1   6   17.40    3.10
   3  -1   6   23.10    3.20
  -4   1  -6   16.30    4.40
  -4   1  -6   15.40    3.00
  -4   1  -6   17.50    3.60
  -4   1  -6   11.40    3.20
   4  -1   6   20.10    3.70
   4  -1   6   16.60    3.20
   4  -1   6   21.20    3.50
  -5   1  -6    4.50    2.50
  -5   1  -6    2.50    2.20
  -5   1  -6    1.30    2.10
   5  -1   6    0.90    2.20
   5  -1   6    4.40    2.90
   5  -1   6    2.50    3.60
   5  -1   6    0.70    2.50
  -6   1  -6    7.20    2.90
  -6   1  -6   12.90    4.00
  -6   1  -6   21.10    4.30
  -6   1  -6   12.50    4.20
   6  -1   6   16.90    3.40
   6  -1   6    8.00    3.80
   6  -1   6   15.60    4.10
   6  -1   6    8.10    4.50
  -7   1  -6   -0.80    3.60
  -7   1  -6   -5.00    1.80
  -7   1  -6   -0.30    2.40
  -7   1  -6    1.60    2.60
   7  -1   6    0.20    2.50
   7  -1   6    0.30    2.50
   7  -1   6    1.70    4.20
  -8   1  -6    5.50    4.20
  -8   1  -6    0.80    3.90
  -8   1  -6   -0.10    3.40
   8  -1   6    3.50    4.70
   8  -1   6   -0.10    2.70
   8  -1   6   10.70    4.50
  -9   1  -6    6.20    5.20
  -9   1  -6    1.00    4.50
  -9   1  -6   -6.00    5.30
   9  -1   6    2.10    3.50
   9  -1   6   -8.10    3.10
   9  -1   6    3.50    5.20
  10  -1   6    3.20    4.90
  10  -1   6    0.00    6.20
  10   0  -6   -0.30    7.10
  10   0  -6   -2.50    2.60
 -10   0   6    2.70    5.10
 -10   0   6   -0.70    3.10
   9   0  -6    1.10    2.50
   9   0  -6   -1.40    3.70
  -9   0   6    3.30    4.50
  -9   0   6   -2.80    2.40
   8   0  -6    8.60    2.80
   8   0  -6    2.10    3.50
   8   0  -6    4.90    5.50
  -8   0   6   12.90    4.90
  -8   0   6    6.90    2.80
   7   0  -6    7.40    2.60
   7   0  -6    7.30    4.00
   7   0  -6    7.40    3.40
  -7   0   6    6.90    4.00
  -7   0   6    8.70    2.50
   6   0  -6   19.10    5.10
   6   0  -6   28.60    2.70
   6   0  -6   24.30    3.20
   6   0  -6   26.10    4.80
  -6   0   6   28.50    5.30
  -6   0   6   27.50    3.20
   5   0  -6   14.40    4.00
   5   0  -6   18.30    3.80
   5   0  -6   23.20    2.50
   5   0  -6   19.70    2.20
   5   0  -6   18.50    1.80
   5   0  -6   16.40    2.40
  -5   0   6   10.80    3.80
  -5   0   6   19.70    2.40
  -5   0   6   21.10    3.20
   4   0  -6   17.10    1.00
   4   0  -6   14.80    0.90
   4   0  -6   15.00    3.20
   4   0  -6   17.20    3.80
   4   0  -6   16.30    1.80
   4   0  -6   14.90    1.50
  -4   0   6   17.80    1.80
  -4   0   6   16.40    1.70
  -4   0   6   17.80    2.90
  -4   0   6   15.70    3.30
   3   0  -6   24.70    1.30
   3   0  -6   25.10    1.40
   3   0  -6   21.80    3.80
   3   0  -6   25.50    3.60
   3   0  -6   21.20    3.60
  -3   0   6   21.00    3.60
  -3   0   6   25.20    2.80
  -3   0   6   29.30    3.80
   2   0  -6  228.48    9.20
  -2   0   6  219.78    9.20
  -2   0   6  237.88    9.30
  -2   0   6  236.48    9.00
   1   0  -6  477.35   11.20
   1   0  -6  453.85   11.20
   1   0  -6  491.15   14.60
  -1   0   6  469.35   15.10
  -1   0   6  455.25   14.90
   0   0  -6   64.59    4.70
   0   0  -6   74.09    3.10
   0   0  -6   71.39    2.70
   0   0  -6   74.09    4.30
   0   0  -6   71.79    3.00
   0   0  -6   68.19    2.60
   0   0   6   74.29    4.80
   0   0   6   55.89    2.60
   0   0   6   72.19    5.00
   0   0   6   69.09    2.80
  -1   0  -6    2.10    1.10
  -1   0  -6    4.30    1.40
  -1   0  -6    1.30    1.00
  -1   0  -6   -0.10    1.00
  -1   0  -6    2.20    1.30
  -1   0  -6    1.90    1.10
   1   0   6    0.90    1.50
   1   0   6    0.00    1.20
   1   0   6    1.30    1.20
   1   0   6    2.50    0.90
   1   0   6    0.30    0.60
  -2   0  -6    1.50    1.90
  -2   0  -6   -0.70    1.10
  -2   0  -6   -0.30    0.70
  -2   0  -6    0.70    1.20
  -2   0  -6   -1.00    1.10
  -2   0  -6    0.30    1.00
  -2   0  -6    0.90    1.10
   2   0   6    0.00    1.40
   2   0   6    0.70    1.30
   2   0   6    0.20    1.50
   2   0   6    1.50    1.30
  -3   0  -6   42.60    3.70
  -3   0  -6   50.69    4.80
  -3   0  -6   41.10    3.60
  -3   0  -6   54.59    4.20
   3   0   6   49.50    4.20
   3   0   6   50.89    3.90
   3   0   6   42.20    3.70
   3   0   6   54.99    4.40
  -4   0  -6    1.80    1.60
  -4   0  -6   -0.40    1.70
  -4   0  -6    0.00    1.80
   4   0   6   -0.80    2.10
   4   0   6   -1.50    1.90
   4   0   6   -1.40    1.90
  -5   0  -6   37.50    4.70
  -5   0  -6   38.40    4.90
  -5   0  -6   27.10    4.30
  -5   0  -6   45.40    5.50
   5   0   6   39.10    5.00
   5   0   6   38.10    4.70
   5   0   6   33.60    5.10
   5   0   6   32.40    4.50
  -6   0  -6    0.00    2.10
  -6   0  -6   -1.90    2.50
  -6   0  -6    0.30    1.90
   6   0   6   -1.50    2.10
   6   0   6   -5.10    2.40
   6   0   6    0.40    2.50
   6   0   6   -4.60    2.50
  -7   0  -6   -0.30    3.60
  -7   0  -6    4.40    2.60
  -7   0  -6    4.70    2.60
  -7   0  -6    4.10    3.40
   7   0   6    0.50    3.70
   7   0   6    3.10    3.60
   7   0   6   -0.50    2.10
   7   0   6    8.70    3.70
  -8   0  -6   -1.90    2.40
  -8   0  -6   -2.30    3.60
  -8   0  -6    6.60    4.00
  -8   0  -6    3.30    2.80
   8   0   6    1.00    3.10
   8   0   6   -0.80    3.60
   8   0   6   -2.60    2.10
  -9   0  -6    1.80    4.20
  -9   0  -6   -2.60    2.70
  -9   0  -6   -2.80    4.00
   9   0   6   -2.90    2.50
   9   0   6   -6.10    4.20
   9   0   6   -0.20    3.00
 -10   0  -6   13.50    7.00
 -10   0  -6   17.30    6.20
 -10   0  -6    9.20    4.80
  10   0   6   22.70    6.10
  10   0   6    0.00    5.30
 -10   1   6   -1.10    3.60
 -10   1   6    0.00    3.60
   9  -1  -6   10.40    6.40
   9  -1  -6    8.80    3.70
   9  -1  -6   12.10    5.80
  -9   1   6    8.10    5.10
  -9   1   6   10.70    3.70
   8  -1  -6    2.70    2.60
   8  -1  -6    3.80    4.40
  -8   1   6    1.90    2.70
  -8   1   6    0.10    2.80
   7  -1  -6   -1.40    2.80
   7  -1  -6    3.80    5.10
   7  -1  -6    4.90    2.40
  -7   1   6    0.40    3.70
  -7   1   6    6.60    2.60
   6  -1  -6    2.70    2.10
   6  -1  -6   -0.60    2.30
   6  -1  -6   -1.20    2.70
  -6   1   6    0.20    2.40
  -6   1   6    0.10    1.80
   5  -1  -6  167.08   10.00
   5  -1  -6  180.38   12.40
   5  -1  -6  150.98    6.60
  -5   1   6  158.98    7.20
  -5   1   6  182.08    9.80
  -5   1   6  178.68    6.90
   4  -1  -6   75.79    7.60
   4  -1  -6   79.49    3.10
   4  -1  -6   76.99    3.70
   4  -1  -6   81.19    6.40
   4  -1  -6   78.99    3.80
  -4   1   6   69.49    3.60
  -4   1   6   76.19    4.80
  -4   1   6   80.09    6.40
  -4   1   6   66.49    3.50
   3  -1  -6   81.59    5.90
   3  -1  -6   74.69    3.10
   3  -1  -6   74.09    2.00
   3  -1  -6   76.79    3.10
   3  -1  -6   69.89    6.30
   3  -1  -6   76.69    2.00
  -3   1   6   72.99    5.80
  -3   1   6   70.79    4.80
  -3   1   6   76.19    3.00
  -3   1   6   77.39    4.60
  -3   1   6   73.19    3.00
   2  -1  -6    1.50    1.40
   2  -1  -6    0.10    0.50
   2  -1  -6    0.20    0.40
   2  -1  -6    0.20    1.70
  -2   1   6   -0.20    2.00
  -2   1   6   -0.10    1.50
  -2   1   6    0.40    1.20
   1  -1  -6   30.40    3.00
   1  -1  -6   23.10    1.30
   1  -1  -6   25.90    5.00
   1  -1  -6   26.30    1.30
  -1   1   6   20.50    3.10
  -1   1   6   23.60    3.50
   0  -1  -6    5.40    1.80
   0  -1  -6    4.00    0.70
   0  -1  -6    1.70    0.80
   0  -1  -6    4.80    0.70
   0  -1  -6    4.50    0.90
   0  -1  -6    2.70    2.00
   0   1   6    3.50    1.70
   0   1   6    5.00    0.90
   0   1   6    2.50    1.60
   0   1   6    3.10    0.90
  -1  -1  -6   32.30    2.30
  -1  -1  -6   27.10    2.00
  -1  -1  -6   29.40    2.20
  -1  -1  -6   30.50    2.20
  -1  -1  -6   29.20    3.30
  -1  -1  -6   28.70    4.20
   1   1   6   30.70    3.70
   1   1   6   23.30    1.70
   1   1   6   27.40    3.60
   1   1   6   31.80    2.30
   1   1   6   31.90    1.80
   1   1   6   29.20    2.50
  -2  -1  -6   21.40    2.60
  -2  -1  -6   16.20    2.60
  -2  -1  -6   19.00    3.10
  -2  -1  -6   22.30    2.40
  -2  -1  -6   16.90    2.20
  -2  -1  -6   17.80    3.30
   2   1   6   16.10    2.10
   2   1   6   20.90    3.20
   2   1   6   19.90    2.60
   2   1   6   19.20    2.30
  -3  -1  -6  276.87    9.60
  -3  -1  -6  297.17   13.00
  -3  -1  -6  281.77   12.40
  -3  -1  -6  281.97   10.20
  -3  -1  -6  290.17   10.00
  -3  -1  -6  269.07   11.40
   3   1   6  285.77   10.10
   3   1   6  272.37    9.50
   3   1   6  275.27   11.20
   3   1   6  285.87    9.70
  -4  -1  -6    0.40    1.70
  -4  -1  -6   -0.50    2.20
  -4  -1  -6    1.30    1.80
   4   1   6    6.30    2.30
   4   1   6    5.60    2.10
   4   1   6    5.40    1.80
   4   1   6    3.90    2.60
  -5  -1  -6   18.50    3.50
  -5  -1  -6    8.90    3.10
  -5  -1  -6   15.40    3.30
   5   1   6   18.60    3.70
   5   1   6   19.30    3.60
   5   1   6   18.30    3.80
   5   1   6   16.90    3.80
  -6  -1  -6    3.00    2.20
  -6  -1  -6    3.70    2.30
   6   1   6   -1.20    2.90
   6   1   6    4.20    2.90
   6   1   6    1.90    2.80
   6   1   6    3.80    2.80
  -7  -1  -6    2.30    2.50
  -7  -1  -6    2.60    2.60
  -7  -1  -6   -0.20    4.00
  -7  -1  -6   -0.50    1.80
   7   1   6    1.60    3.50
   7   1   6   -1.80    2.30
   7   1   6   -4.70    2.40
   7   1   6   -0.70    3.20
  -8  -1  -6    9.20    4.10
  -8  -1  -6   10.20    3.50
  -8  -1  -6   10.00    3.20
  -8  -1  -6    2.70    3.80
   8   1   6    2.40    3.10
   8   1   6    4.50    3.70
   8   1   6   15.40    3.80
   8   1   6    5.90    4.00
  -9  -1  -6   -1.00    2.50
  -9  -1  -6   -2.20    4.10
  -9  -1  -6   -2.30    2.60
   9   1   6   -2.50    3.90
   9   1   6   -2.30    3.50
   9   1   6    1.50    4.60
 -10  -1  -6    3.90    4.60
 -10  -1  -6    2.50    4.90
 -10  -1  -6   -3.70    5.10
  10   1   6    3.30    3.70
  10   1   6    9.80    4.40
  10   1   6   -4.80    4.20
  11   1   6   -2.90    5.20
   9  -2  -6   -6.20    7.00
   9  -2  -6    2.60    3.30
   9  -2  -6    3.20    6.80
  -9   2   6   -3.60    4.30
  -9   2   6    2.10    3.30
   8  -2  -6    4.70    2.80
   8  -2  -6    5.30    5.30
   8  -2  -6   -2.40    5.80
  -8   2   6    2.00    2.80
  -8   2   6    4.30    4.60
   7  -2  -6   17.80    3.60
   7  -2  -6   17.30    7.20
   7  -2  -6   21.70    6.70
  -7   2   6   20.00    3.90
  -7   2   6   16.10    5.50
   6  -2  -6   38.00    4.20
   6  -2  -6   30.70    4.90
   6  -2  -6   34.30    8.20
   6  -2  -6   34.10    7.20
  -6   2   6   35.70    5.80
  -6   2   6   38.40    4.50
   5  -2  -6   -1.30    1.60
   5  -2  -6    0.90    2.70
   5  -2  -6    2.10    1.80
   5  -2  -6    0.00    3.60
  -5   2   6    1.90    2.00
  -5   2   6    3.80    3.30
   4  -2  -6    1.00    1.60
   4  -2  -6   -3.70    2.90
   4  -2  -6    0.90    1.40
   4  -2  -6    0.30    1.30
   4  -2  -6    2.40    2.40
   4  -2  -6    1.40    1.20
  -4   2   6    5.90    2.70
  -4   2   6    0.60    1.50
  -4   2   6    0.60    1.70
  -4   2   6    2.10    1.10
  -4   2   6    0.10    1.50
  -4   2   6   -1.30    1.60
   3  -2  -6   20.00    3.90
   3  -2  -6   24.50    3.30
   3  -2  -6   21.50    2.10
   3  -2  -6   23.40    1.70
   3  -2  -6   15.20    5.20
   3  -2  -6   22.70    2.20
  -3   2   6   26.20    3.30
  -3   2   6   22.90    2.40
  -3   2   6   20.30    4.00
  -3   2   6   18.90    3.50
   2  -2  -6  124.79    3.80
   2  -2  -6  134.09   12.40
   2  -2  -6  125.29    4.40
   2  -2  -6  124.29    8.10
   2  -2  -6  128.99    3.90
   2  -2  -6  123.39    4.60
  -2   2   6  131.69    6.40
  -2   2   6  131.29    7.00
  -2   2   6  127.99    4.40
  -2   2   6  132.19    4.60
  -2   2   6  118.49    6.60
   1  -2  -6    1.60    0.50
   1  -2  -6    0.50    0.50
   1  -2  -6    0.90    1.60
   1  -2  -6    0.00    0.70
   1  -2  -6    2.40    2.40
   1  -2  -6    0.80    0.80
  -1   2   6    1.70    1.00
  -1   2   6    0.70    2.10
  -1   2   6   -1.00    1.70
  -1   2   6   -2.20    1.50
  -1   2   6    1.80    0.80
   0  -2  -6    5.30    1.70
   0  -2  -6    5.50    1.20
   0  -2  -6    6.30    1.00
   0  -2  -6    4.00    2.50
   0  -2  -6    5.00    1.00
   0  -2  -6    7.30    1.00
   0   2   6    4.90    1.00
   0   2   6    5.50    1.30
   0   2   6    6.30    2.00
   0   2   6    5.60    1.70
   0   2   6    2.40    2.20
  -1  -2  -6    0.70    0.80
  -1  -2  -6    2.30    1.00
  -1  -2  -6    1.40    1.70
   1   2   6    1.90    1.40
   1   2   6    1.80    1.00
   1   2   6    0.60    0.80
   1   2   6    0.70    1.10
   1   2   6    3.20    1.60
   1   2   6    2.00    2.20
   1   2   6    2.00    2.00
  -2  -2  -6  231.38    7.80
  -2  -2  -6  237.98    8.80
  -2  -2  -6  235.98    8.30
  -2  -2  -6  240.48   13.70
  -2  -2  -6  234.38    7.70
  -2  -2  -6  220.78   10.40
   2   2   6  245.48    8.50
   2   2   6  237.08    8.20
   2   2   6  227.98    9.20
   2   2   6  234.48    7.70
   2   2   6  228.98    7.60
   2   2   6  227.98    9.70
  -3  -2  -6  105.99    5.40
  -3  -2  -6  114.69    5.80
  -3  -2  -6  107.59    6.80
  -3  -2  -6  111.29    5.40
  -3  -2  -6   84.69    7.80
  -3  -2  -6  104.99    5.10
   3   2   6  111.89    6.70
   3   2   6  110.69    5.30
   3   2   6  108.59    7.50
   3   2   6  100.89    5.50
   3   2   6  103.79    4.80
   3   2   6  104.59    5.10
  -4  -2  -6  105.39    5.90
  -4  -2  -6  107.39    6.30
  -4  -2  -6  101.59    5.80
  -4  -2  -6  109.29    7.20
  -4  -2  -6  113.59    5.90
   4   2   6  100.49    7.00
   4   2   6  101.79    5.40
   4   2   6  110.09    6.00
   4   2   6   99.89    6.00
  -5  -2  -6  277.77   11.00
  -5  -2  -6  290.87   12.20
  -5  -2  -6  288.57   13.50
  -5  -2  -6  304.07   11.30
   5   2   6  280.37   11.30
   5   2   6  287.07   11.30
   5   2   6  290.37   14.40
  -6  -2  -6  118.19    7.40
  -6  -2  -6  120.39    7.40
  -6  -2  -6  109.39    8.20
   6   2   6  107.89    6.90
   6   2   6  110.29    7.20
   6   2   6  112.89    7.70
  -7  -2  -6    4.90    3.20
  -7  -2  -6   -0.20    1.90
  -7  -2  -6   -0.10    2.00
   7   2   6   -1.90    2.10
   7   2   6    8.00    3.60
   7   2   6    0.10    2.60
   7   2   6   -0.40    2.40
  -8  -2  -6   -1.60    3.20
  -8  -2  -6   -2.30    1.80
  -8  -2  -6   -4.20    3.70
   8   2   6   -2.70    2.10
   8   2   6   -0.30    2.40
   8   2   6   -1.30    2.30
   8   2   6    2.40    3.40
  -9  -2  -6   26.90    5.70
  -9  -2  -6   26.20    6.10
  -9  -2  -6   22.30    4.80
   9   2   6   18.40    4.50
   9   2   6   17.50    5.00
   9   2   6    9.10    4.70
   9   2   6   20.00    4.70
 -10  -2  -6   -1.60    2.90
 -10  -2  -6    4.00    4.50
 -10  -2  -6    2.40    4.20
  10   2   6    4.40    4.60
  10   2   6    0.60    4.60
  10   2   6    3.50    3.20
 -11  -2  -6   17.20    6.30
 -11  -2  -6   11.90    5.50
 -11  -2  -6   19.70    5.60
  11   2   6   11.90    6.30
  -9   3   6   -1.20    5.30
   8  -3  -6    7.20    3.90
   8  -3  -6    8.90    7.50
   8  -3  -6    6.30    6.30
  -8   3   6    3.90    3.20
  -8   3   6    1.80    5.20
   7  -3  -6   15.70    4.00
   7  -3  -6   18.70    6.40
   7  -3  -6   19.40    7.10
  -7   3   6   17.00    5.80
  -7   3   6   17.80    3.90
   6  -3  -6   -2.70    4.10
   6  -3  -6    3.20    2.40
   6  -3  -6   -2.60    4.20
  -6   3   6    0.20    2.20
  -6   3   6   -1.90    3.40
   5  -3  -6   -0.20    4.10
   5  -3  -6   -1.10    1.70
   5  -3  -6    3.30    4.20
  -5   3   6   -0.20    3.60
  -5   3   6   -0.40    2.30
  -5   3   6   -2.80    1.80
   4  -3  -6  153.88    7.70
   4  -3  -6  155.88    6.90
   4  -3  -6  150.68   16.50
   4  -3  -6  150.08   10.80
  -4   3   6  160.28    8.90
  -4   3   6  173.58    7.50
  -4   3   6  167.68    9.30
   3  -3  -6  107.99    4.70
   3  -3  -6   92.69   11.80
   3  -3  -6  106.39    5.10
   3  -3  -6   99.09    5.10
   3  -3  -6  122.49    8.70
   3  -3  -6  105.89    6.00
  -3   3   6  109.39    7.10
  -3   3   6  105.99    5.50
  -3   3   6  113.79    7.20
  -3   3   6  111.19    4.50
  -3   3   6  108.29    5.40
  -3   3   6  105.99    5.00
   2  -3  -6  114.29    5.10
   2  -3  -6  108.49   12.20
   2  -3  -6  114.69    4.80
   2  -3  -6  113.69    7.90
   2  -3  -6  115.09    6.10
   2  -3  -6  113.79    4.40
  -2   3   6  114.29    5.90
  -2   3   6  111.29    4.70
  -2   3   6  114.79    4.20
  -2   3   6  103.19    5.00
  -2   3   6  111.29    6.80
  -2   3   6  107.39    6.80
   1  -3  -6    1.50    1.00
   1  -3  -6   -0.30    1.50
   1  -3  -6    3.40    3.10
   1  -3  -6    1.80    1.20
   1  -3  -6    4.10    1.30
  -1   3   6    0.00    1.70
  -1   3   6    5.20    1.40
  -1   3   6    4.60    1.50
  -1   3   6    1.30    0.80
  -1   3   6    0.50    1.50
  -1   3   6    1.10    0.90
  -1   3   6    1.80    1.60
   0  -3  -6  119.49    4.30
   0  -3  -6  119.49    4.60
   0  -3  -6  123.99   11.10
   0  -3  -6  116.09    6.40
   0  -3  -6  108.69    4.90
   0   3   6  112.49    3.80
   0   3   6  117.99    4.40
   0   3   6  120.99    6.50
   0   3   6  119.19    5.00
   0   3   6  119.29    6.40
   0   3   6  110.69    6.50
   0   3   6  114.19    4.10
  -1  -3  -6    1.20    1.00
  -1  -3  -6    1.30    1.10
  -1  -3  -6   -0.30    2.00
  -1  -3  -6    1.90    1.10
  -1  -3  -6    2.70    1.20
   1   3   6    1.50    0.90
   1   3   6    4.80    1.40
   1   3   6    5.40    2.30
   1   3   6    0.60    1.50
   1   3   6    3.70    1.80
   1   3   6    2.50    2.30
  -2  -3  -6   28.10    2.10
  -2  -3  -6   27.30    2.60
  -2  -3  -6   23.00    2.40
  -2  -3  -6   23.50    3.70
  -2  -3  -6   26.60    5.20
  -2  -3  -6   25.40    3.00
   2   3   6   25.80    3.00
   2   3   6   29.30    2.70
   2   3   6   22.70    2.60
   2   3   6   22.90    3.40
   2   3   6   33.90    3.20
  -3  -3  -6   47.40    3.90
  -3  -3  -6   52.29    6.10
  -3  -3  -6   46.20    2.50
  -3  -3  -6   41.90    3.40
  -3  -3  -6   45.40    3.50
  -3  -3  -6   49.99    4.60
   3   3   6   53.79    6.10
   3   3   6   46.60    3.70
   3   3   6   45.30    3.40
   3   3   6   37.00    3.80
   3   3   6   46.20    3.40
  -4  -3  -6   46.90    4.40
  -4  -3  -6   41.00    2.80
  -4  -3  -6   40.30    4.70
  -4  -3  -6   39.50    3.70
  -4  -3  -6   42.30    3.90
  -4  -3  -6   39.00    6.60
   4   3   6   43.40    4.10
   4   3   6   40.50    3.70
   4   3   6   39.90    4.20
   4   3   6   41.40    5.30
   4   3   6   38.70    3.00
  -5  -3  -6   -0.70    1.40
  -5  -3  -6    1.20    1.90
  -5  -3  -6    2.80    2.30
  -5  -3  -6    1.70    1.30
   5   3   6    0.60    2.40
   5   3   6   -1.70    1.10
   5   3   6    2.10    2.40
   5   3   6    1.00    1.90
  -6  -3  -6   21.20    3.90
  -6  -3  -6   18.00    3.80
  -6  -3  -6   22.60    4.50
   6   3   6   15.80    4.10
   6   3   6   16.30    3.80
   6   3   6   13.70    3.40
   6   3   6   13.40    2.90
   6   3   6   12.90    1.50
  -7  -3  -6    0.50    2.30
  -7  -3  -6    0.60    2.80
  -7  -3  -6    7.40    3.40
   7   3   6    2.00    3.00
   7   3   6    3.00    2.60
   7   3   6    2.30    3.40
  -8  -3  -6    5.70    2.80
  -8  -3  -6    1.80    2.50
  -8  -3  -6    1.30    2.80
   8   3   6   -1.50    2.30
   8   3   6    2.20    2.70
   8   3   6    2.40    3.30
  -9  -3  -6    1.10    4.50
  -9  -3  -6    3.30    3.60
  -9  -3  -6   -2.40    2.30
   9   3   6    6.30    3.40
   9   3   6   -3.00    3.50
   9   3   6    3.10    3.90
 -10  -3  -6    8.80    4.10
 -10  -3  -6   -0.20    2.90
 -10  -3  -6    1.30    3.00
  10   3   6    5.40    4.30
  10   3   6   -0.40    3.20
  10   3   6    4.60    4.60
 -11  -3  -6    0.70    3.30
 -11  -3  -6   -0.90    4.50
 -11  -3  -6   -0.40    3.50
  11   3   6   -3.50    4.50
  11   3   6    2.50    4.90
   8  -4  -6    2.60    3.80
  -8   4   6   -0.70    3.20
  -8   4   6    1.60    5.10
   7  -4  -6    9.40    6.80
   7  -4  -6   -3.70    6.40
   7  -4  -6    4.60    3.20
  -7   4   6   -2.40    4.40
  -7   4   6   -2.00    2.70
   6  -4  -6    7.30    4.70
   6  -4  -6   13.60    3.50
   6  -4  -6   12.70    6.10
  -6   4   6   18.00    5.60
  -6   4   6   12.30    3.40
   5  -4  -6    4.70    2.40
   5  -4  -6    3.20    3.60
   5  -4  -6    1.60    5.10
  -5   4   6    4.40    3.20
  -5   4   6    0.20    2.50
  -5   4   6   -3.10    3.30
   4  -4  -6    0.20    1.80
   4  -4  -6    0.80    3.20
   4  -4  -6    5.90    4.20
  -4   4   6   -0.70    2.10
  -4   4   6    1.90    2.50
  -4   4   6   -0.50    2.90
   3  -4  -6  109.69    5.50
   3  -4  -6   95.39    8.90
   3  -4  -6   94.69    5.40
   3  -4  -6  105.49   13.60
  -3   4   6  101.19    6.80
  -3   4   6   99.19    7.00
  -3   4   6   95.39    5.10
  -3   4   6  116.69    6.20
   2  -4  -6  322.17    9.90
   2  -4  -6  306.07   10.30
   2  -4  -6  317.57   10.80
   2  -4  -6  328.57   11.00
   2  -4  -6  297.77   22.20
   2  -4  -6  317.77   14.90
  -2   4   6  327.57   11.10
  -2   4   6  286.57    9.80
  -2   4   6  308.67   12.40
  -2   4   6  327.37   13.10
  -2   4   6  305.17   10.90
  -2   4   6  308.47   10.20
   1  -4  -6  437.86   12.90
   1  -4  -6  452.05   17.50
   1  -4  -6  431.96   27.00
   1  -4  -6  442.86   12.50
   1  -4  -6  434.26   13.40
  -1   4   6  442.66   12.80
  -1   4   6  459.65   13.70
  -1   4   6  457.15   14.70
  -1   4   6  423.76   15.10
  -1   4   6  445.46   15.30
   0  -4  -6  259.37   10.70
   0  -4  -6  237.08   17.60
   0  -4  -6  249.78    8.30
   0  -4  -6  250.87   10.20
   0  -4  -6  238.78    7.80
   0  -4  -6  246.68    8.80
   0   4   6  235.88   10.00
   0   4   6  247.68    8.10
   0   4   6  226.38    9.90
   0   4   6  246.88   10.00
   0   4   6  232.68    8.00
  -1  -4  -6   79.89    4.50
  -1  -4  -6   84.09    4.30
  -1  -4  -6   74.49    5.60
  -1  -4  -6   80.49    9.20
  -1  -4  -6   74.39    4.40
  -1  -4  -6   76.79    4.00
   1   4   6   76.99    5.40
   1   4   6   75.89    4.10
   1   4   6   70.79    5.10
   1   4   6   79.59    4.10
   1   4   6   80.59    4.60
  -2  -4  -6   24.40    2.70
  -2  -4  -6   19.90    1.40
  -2  -4  -6   17.00    4.30
  -2  -4  -6   23.70    3.10
  -2  -4  -6   19.60    2.50
   2   4   6   22.00    2.80
   2   4   6   25.80    3.30
   2   4   6   21.70    3.00
   2   4   6   23.60    2.80
  -3  -4  -6  157.48    8.70
  -3  -4  -6  163.88    6.80
  -3  -4  -6  169.78   12.70
  -3  -4  -6  166.98    6.90
  -3  -4  -6  174.88    7.80
   3   4   6  163.78    7.60
   3   4   6  166.68    6.80
   3   4   6  155.18    7.10
   3   4   6  168.08    7.50
  -4  -4  -6   -2.00    3.50
  -4  -4  -6    2.10    1.80
  -4  -4  -6    3.60    2.30
  -4  -4  -6    3.80    2.10
  -4  -4  -6    0.20    2.10
   4   4   6    0.50    1.60
   4   4   6    3.00    2.30
   4   4   6    2.00    2.30
  -5  -4  -6  148.19   12.30
  -5  -4  -6  158.48    7.50
  -5  -4  -6  141.39    8.70
  -5  -4  -6  164.08    7.80
   5   4   6  153.18    8.30
   5   4   6  154.38    8.00
  -6  -4  -6  578.04   18.80
  -6  -4  -6  572.64   22.10
  -6  -4  -6  613.44   19.30
   6   4   6  612.04   19.90
   6   4   6  591.04   19.50
  -7  -4  -6   61.59    5.60
  -7  -4  -6   56.39    6.60
  -7  -4  -6   69.29    6.40
   7   4   6   58.99    5.80
   7   4   6   54.59    4.80
   7   4   6   65.79    6.90
  -8  -4  -6   10.80    3.50
  -8  -4  -6    5.60    3.00
  -8  -4  -6    4.80    2.70
   8   4   6    4.60    2.80
   8   4   6    2.10    2.60
   8   4   6    7.80    3.50
  -9  -4  -6   -0.20    3.30
  -9  -4  -6   -2.00    2.20
  -9  -4  -6    1.50    3.40
   9   4   6    0.10    3.60
   9   4   6    1.10    3.50
 -10  -4  -6   10.30    4.90
 -10  -4  -6    4.30    4.20
 -10  -4  -6    5.90    4.80
  10   4   6    9.10    4.80
  10   4   6    8.30    4.10
 -11  -4  -6   -7.90    3.80
 -11  -4  -6   -2.20    3.20
 -11  -4  -6   -2.60    2.60
  11   4   6   -1.20    4.50
  11   4   6    0.70    4.30
 -12  -4  -6   -7.20    4.40
  12   4   6   -0.60    5.10
   7  -5  -6   -8.10    4.60
   7  -5  -6   -5.10    6.10
   7  -5  -6    4.60    3.60
  -7   5   6   -0.80    4.50
  -7   5   6   -2.40    3.20
   6  -5  -6    1.70    4.30
   6  -5  -6   -4.20    5.50
   6  -5  -6    0.30    2.80
  -6   5   6   -6.40    2.30
  -6   5   6   -1.40    3.10
   5  -5  -6   -0.20    5.20
   5  -5  -6    4.10    4.60
   5  -5  -6    2.10    2.70
  -5   5   6   -0.20    3.70
  -5   5   6    3.60    2.90
  -5   5   6    5.20    3.30
   4  -5  -6    4.20    3.60
   4  -5  -6    7.20    2.70
   4  -5  -6    4.10    5.50
  -4   5   6    9.00    3.10
  -4   5   6    4.60    3.00
  -4   5   6    3.20    3.40
   3  -5  -6    4.60    4.10
   3  -5  -6    4.30    4.10
   3  -5  -6   14.50    3.10
  -3   5   6   14.10    4.20
  -3   5   6   12.60    3.00
  -3   5   6    8.60    3.40
   2  -5  -6   85.29   11.90
   2  -5  -6   89.29    5.30
   2  -5  -6   76.29    7.70
   2  -5  -6   89.49    5.10
  -2   5   6   94.59    5.30
  -2   5   6   84.49    5.80
  -2   5   6   92.89    5.50
  -2   5   6   79.99    6.20
  -2   5   6   98.79    7.20
   1  -5  -6    5.10    2.20
   1  -5  -6    5.60    0.70
   1  -5  -6    2.40    3.40
   1  -5  -6    4.90    2.90
   1  -5  -6   10.50    2.60
   1  -5  -6    7.60    0.90
   1  -5  -6    8.80    2.00
  -1   5   6    7.40    2.20
  -1   5   6    3.90    2.90
  -1   5   6    6.70    2.60
  -1   5   6   10.70    2.40
  -1   5   6    7.60    2.60
  -1   5   6    4.40    2.30
   0  -5  -6  239.38   10.90
   0  -5  -6  241.68    9.30
   0  -5  -6  226.28    9.10
   0  -5  -6  241.18   18.80
   0  -5  -6  216.58    8.20
   0  -5  -6  233.58    8.70
   0   5   6  239.78   10.00
   0   5   6  233.28   10.20
   0   5   6  243.78   10.30
   0   5   6  240.28    9.50
   0   5   6  248.78    9.10
   0   5   6  228.18    8.50
  -1  -5  -6    9.10    2.00
  -1  -5  -6    9.60    2.10
  -1  -5  -6    6.10    2.20
  -1  -5  -6    9.80    2.50
  -1  -5  -6    8.60    2.20
  -1  -5  -6    6.20    4.00
   1   5   6    5.00    2.50
   1   5   6    7.70    2.10
   1   5   6    7.40    2.50
   1   5   6    7.40    2.40
  -2  -5  -6    8.30    2.00
  -2  -5  -6    7.80    3.80
  -2  -5  -6    6.50    2.00
  -2  -5  -6    8.10    2.30
  -2  -5  -6    6.20    0.90
   2   5   6    6.70    2.20
   2   5   6    5.40    2.40
   2   5   6    6.70    2.00
   2   5   6    7.20    2.40
  -3  -5  -6    5.50    2.10
  -3  -5  -6    2.20    2.40
  -3  -5  -6    5.30    2.20
  -3  -5  -6    2.90    1.90
   3   5   6    0.10    1.80
   3   5   6    2.10    2.20
   3   5   6    4.90    2.10
   3   5   6    5.80    2.30
  -4  -5  -6   24.40    3.90
  -4  -5  -6   29.00    3.60
  -4  -5  -6   22.60    3.20
  -4  -5  -6   25.30    6.70
   4   5   6   24.90    3.70
   4   5   6   23.40    3.50
  -5  -5  -6   72.99    6.10
  -5  -5  -6   71.89    5.40
  -5  -5  -6   63.99    4.90
  -5  -5  -6   94.19   13.80
   5   5   6   63.19    6.00
   5   5   6   77.69    6.10
  -6  -5  -6    4.00    2.30
  -6  -5  -6    0.90    2.70
  -6  -5  -6   -1.10    2.40
  -6  -5  -6    3.60    4.20
   6   5   6    5.30    2.70
   6   5   6    0.60    2.80
  -7  -5  -6  330.57   13.60
  -7  -5  -6  331.57   13.70
  -7  -5  -6  351.06   16.00
   7   5   6  357.96   14.40
   7   5   6  357.46   14.90
  -8  -5  -6   70.19    6.80
  -8  -5  -6   80.79    7.20
  -8  -5  -6   70.59    7.00
   8   5   6   72.59    7.50
   8   5   6   73.59    7.70
  -9  -5  -6   10.70    4.60
  -9  -5  -6    3.90    2.80
  -9  -5  -6   10.60    4.30
   9   5   6    8.70    3.80
   9   5   6   10.90    4.10
 -10  -5  -6    5.30    5.10
 -10  -5  -6   -2.30    2.50
 -10  -5  -6    0.00    4.00
  10   5   6    5.40    4.80
  10   5   6    1.70    3.10
 -11  -5  -6   -7.80    3.90
 -11  -5  -6    4.30    3.70
 -11  -5  -6    3.30    3.40
  11   5   6    7.90    5.10
  11   5   6   15.40    5.70
 -12  -5  -6   -7.00    3.20
 -12  -5  -6   -0.90    4.30
  12   5   6   -7.90    4.40
   6  -6  -6    2.40    7.10
   6  -6  -6    5.70    4.00
   6  -6  -6   11.20    8.10
  -6   6   6    1.70    5.00
  -6   6   6   12.20    4.40
   5  -6  -6   -0.20    3.00
   5  -6  -6   -5.40    5.20
   5  -6  -6    1.20    4.30
  -5   6   6   -1.10    2.80
  -5   6   6    5.50    4.70
   4  -6  -6    8.30    3.10
   4  -6  -6   12.70    4.80
   4  -6  -6   -0.50    5.10
  -4   6   6    6.70    3.60
  -4   6   6   14.10    4.70
  -4   6   6    5.80    3.50
   3  -6  -6    2.20    4.40
   3  -6  -6   10.00    3.10
   3  -6  -6    4.20    4.60
  -3   6   6    7.00    3.80
  -3   6   6   10.40    3.70
  -3   6   6    1.70    2.60
   2  -6  -6    9.90    4.10
   2  -6  -6   13.00    5.70
   2  -6  -6   15.10    3.30
  -2   6   6   19.40    4.20
  -2   6   6   14.70    3.50
  -2   6   6   18.60    3.90
   1  -6  -6   47.30    4.40
   1  -6  -6   53.99    6.30
   1  -6  -6   34.20    8.60
   1  -6  -6   43.90    3.90
  -1   6   6   45.70    5.80
  -1   6   6   45.50    5.00
  -1   6   6   42.90    4.40
  -1   6   6   45.30    4.20
  -1   6   6   54.59    5.50
   0  -6  -6  199.18   10.50
   0  -6  -6  200.68    8.50
   0  -6  -6  213.38   18.80
   0  -6  -6  190.88    8.00
   0   6   6  202.98    8.80
   0   6   6  193.58    9.40
   0   6   6  203.98    9.60
  -1  -6  -6   51.19    4.60
  -1  -6  -6   56.89    4.90
  -1  -6  -6   58.29    4.50
  -1  -6  -6   54.89    4.30
  -1  -6  -6   34.80    7.70
  -1  -6  -6   50.79    4.10
   1   6   6   53.19    4.30
   1   6   6   49.10    4.90
   1   6   6   54.69    4.90
  -2  -6  -6   24.60    3.60
  -2  -6  -6   27.00    4.00
  -2  -6  -6   21.50    3.20
  -2  -6  -6   20.80    5.40
  -2  -6  -6   31.70    3.60
   2   6   6   25.40    3.90
   2   6   6   23.70    3.70
   2   6   6   30.90    3.60
   2   6   6   28.30    4.20
  -3  -6  -6   13.20    2.80
  -3  -6  -6    5.80    4.20
  -3  -6  -6   10.30    2.60
   3   6   6   12.10    2.70
   3   6   6   13.10    3.00
   3   6   6   10.00    2.60
   3   6   6   14.10    3.20
  -4  -6  -6   -2.00    4.50
  -4  -6  -6   -2.60    1.90
  -4  -6  -6   -1.20    1.20
  -4  -6  -6   -1.90    2.00
   4   6   6   -1.60    2.40
   4   6   6    1.80    2.50
  -5  -6  -6   12.90    8.70
  -5  -6  -6   -0.80    2.20
  -5  -6  -6   -1.60    2.10
  -5  -6  -6    0.10    2.00
   5   6   6    2.30    2.00
   5   6   6    2.20    2.30
  -6  -6  -6  107.49    7.10
  -6  -6  -6   94.69    7.70
  -6  -6  -6   83.39   12.70
  -6  -6  -6   99.19    6.50
   6   6   6   89.09    7.20
   6   6   6  101.89    7.30
  -7  -6  -6   63.89    5.70
  -7  -6  -6   64.89    6.40
  -7  -6  -6   58.69    6.50
   7   6   6   66.89    6.30
   7   6   6   75.09    7.60
  -8  -6  -6    8.60    3.80
  -8  -6  -6    8.70    3.60
  -8  -6  -6    7.80    3.60
   8   6   6   13.30    3.80
   8   6   6   15.30    4.70
  -9  -6  -6    4.20    3.20
  -9  -6  -6   -1.00    2.20
  -9  -6  -6   -2.50    3.20
   9   6   6   -1.30    3.70
   9   6   6   -2.50    2.50
 -10  -6  -6   -2.00    2.70
 -10  -6  -6   -3.50    2.60
 -10  -6  -6    7.20    3.70
  10   6   6   -1.80    4.40
  10   6   6    5.80    3.50
 -11  -6  -6   -5.60    4.00
 -11  -6  -6    0.10    3.40
 -11  -6  -6   -3.30    2.70
  11   6   6   -4.80    4.00
  11   6   6    2.70    4.90
 -12  -6  -6   -7.50    2.90
 -12  -6  -6    5.70    4.30
  12   6   6    5.60    5.60
   5  -7  -6   -2.50    4.90
   5  -7  -6    1.00    3.50
   5  -7  -6    3.70    5.80
  -5   7   6    7.70    5.00
  -5   7   6   10.30    4.50
   4  -7  -6    2.10    6.00
   4  -7  -6   -6.10    5.40
   4  -7  -6    1.10    2.90
  -4   7   6   -0.50    3.40
  -4   7   6   -2.30    2.80
   3  -7  -6    0.40    2.70
   3  -7  -6    2.30    5.60
   3  -7  -6   -0.90    4.50
  -3   7   6    2.60    3.10
  -3   7   6    1.80    3.10
   2  -7  -6    6.20    5.80
   2  -7  -6    7.30    3.10
   2  -7  -6    8.80    4.80
  -2   7   6   14.70    4.30
  -2   7   6   16.10    4.30
  -2   7   6    7.80    3.40
   1  -7  -6   15.30    3.20
   1  -7  -6   21.30    7.10
   1  -7  -6   14.60    4.50
  -1   7   6   13.30    3.60
  -1   7   6   19.30    4.20
  -1   7   6   27.90    4.90
   0  -7  -6    1.90    3.00
   0  -7  -6   13.90    2.90
   0  -7  -6    9.50    5.20
   0  -7  -6    6.30    2.80
   0   7   6    7.60    3.30
   0   7   6    8.00    3.10
   0   7   6   10.30    3.40
  -1  -7  -6  118.89    7.00
  -1  -7  -6  108.09   14.50
  -1  -7  -6  102.99    6.50
  -1  -7  -6  117.09    6.40
   1   7   6  111.69    7.20
   1   7   6  116.39    7.00
  -2  -7  -6    2.60    2.10
  -2  -7  -6    2.40    4.50
  -2  -7  -6    6.70    2.80
   2   7   6   -0.20    2.60
   2   7   6    7.00    2.60
  -3  -7  -6   26.70    7.50
  -3  -7  -6   42.90    4.40
  -3  -7  -6   38.40    4.00
   3   7   6   44.70    5.30
   3   7   6   50.69    4.80
   3   7   6   39.30    4.20
  -4  -7  -6   16.30    3.40
  -4  -7  -6   24.50    3.60
   4   7   6   25.10    4.30
   4   7   6   35.70    5.30
   4   7   6   24.70    3.60
  -6  -7  -6    9.40    3.40
  -6  -7  -6    6.60    3.10
  -6  -7  -6    5.00    3.10
   6   7   6    6.50    4.00
   6   7   6    7.80    3.70
  -7  -7  -6   22.70    4.30
  -7  -7  -6   48.90   10.00
  -7  -7  -6   31.40    5.00
  -7  -7  -6   21.00    4.50
   7   7   6   26.70    4.80
   7   7   6   24.90    5.20
  -8  -7  -6   -2.20    3.00
  -8  -7  -6   -0.50    2.70
  -8  -7  -6    1.50    3.40
   8   7   6   -2.50    3.40
   8   7   6   -3.50    3.40
  -9  -7  -6    4.50    4.00
  -9  -7  -6   -0.80    3.20
  -9  -7  -6    0.70    2.90
   9   7   6   -1.00    3.90
   9   7   6    5.20    4.50
 -10  -7  -6    3.60    3.80
 -10  -7  -6   10.10    4.00
 -10  -7  -6    4.70    3.50
  10   7   6    5.10    3.80
  10   7   6    4.50    4.90
 -11  -7  -6    2.50    3.60
 -11  -7  -6   -4.90    4.30
 -11  -7  -6    6.00    4.00
  11   7   6   -7.00    4.40
  11   7   6    5.40    5.00
 -12  -7  -6  -10.40    4.40
  12   7   6    1.60    4.10
   4  -8  -6    7.90    6.90
   4  -8  -6   22.40    9.20
   4  -8  -6   10.10    4.40
  -4   8   6   31.30    6.40
  -4   8   6   13.90    5.40
   3  -8  -6   -5.00    5.60
   3  -8  -6    1.80    3.40
   3  -8  -6   -8.90    4.40
  -3   8   6    1.00    3.50
  -3   8   6   -3.60    3.00
   2  -8  -6   -3.60    2.60
   2  -8  -6   -9.90    3.20
   2  -8  -6   -1.30    5.50
  -2   8   6   -2.80    3.00
  -2   8   6   -2.30    2.80
   1  -8  -6   19.50    3.90
   1  -8  -6   11.40    4.40
   1  -8  -6   15.00    7.50
  -1   8   6   18.10    4.60
  -1   8   6   15.80    4.40
   0  -8  -6   31.30    5.20
   0  -8  -6   19.50    6.90
   0  -8  -6   36.70    5.20
   0   8   6   28.70    5.00
   0   8   6   26.30    4.70
  -1  -8  -6    9.50    3.00
  -1  -8  -6   11.50    3.20
  -1  -8  -6    6.40    4.90
  -1  -8  -6    9.20    3.10
   1   8   6    8.10    3.00
   1   8   6    4.00    3.20
  -2  -8  -6   32.60    4.50
  -2  -8  -6   25.40    8.00
  -2  -8  -6   36.00    4.80
   2   8   6   33.00    4.50
   2   8   6   41.50    5.40
   2   8   6   42.90    5.90
  -3  -8  -6    0.40    2.50
  -3  -8  -6    0.50    2.30
  -3  -8  -6    1.50    6.10
   3   8   6    2.70    2.00
   3   8   6    1.90    2.50
  -6  -8  -6   -4.00   10.90
  -6  -8  -6   -2.60    2.40
  -6  -8  -6    3.80    2.40
  -6  -8  -6    1.30    2.50
   6   8   6   -4.50    3.30
   6   8   6    3.80    3.50
  -7  -8  -6   14.40    4.00
  -7  -8  -6    3.50    2.40
  -7  -8  -6    6.40    3.40
  -7  -8  -6   13.50    6.50
   7   8   6    1.70    3.20
   7   8   6    7.80    4.10
   7   8   6   15.10    4.90
  -8  -8  -6   11.40    4.20
  -8  -8  -6    3.60    3.50
  -8  -8  -6    7.50    3.50
   8   8   6    4.70    4.10
   8   8   6   10.60    4.80
   8   8   6    4.50    4.90
  -9  -8  -6   16.20    4.30
  -9  -8  -6   13.20    4.10
  -9  -8  -6   10.40    4.90
   9   8   6   17.30    5.60
   9   8   6    8.50    4.90
   9   8   6   14.70    4.60
 -10  -8  -6   -0.40    3.70
 -10  -8  -6    0.20    2.60
 -10  -8  -6    3.40    2.90
  10   8   6    0.90    4.60
  10   8   6    1.40    3.60
 -11  -8  -6   -2.80    4.50
 -11  -8  -6    5.60    5.00
  11   8   6   -0.70    3.50
  11   8   6   -3.80    4.80
 -12  -8  -6   -3.20    3.40
  12   8   6    6.80    6.10
  -3   9   6   29.40    6.50
   2  -9  -6    1.70    2.60
   2  -9  -6    2.50    7.00
  -2   9   6    2.30    3.90
  -2   9   6    0.00    3.80
   1  -9  -6    0.80    5.90
   1  -9  -6    1.70    2.40
  -1   9   6   -0.60    3.20
  -1   9   6   -0.30    3.20
   0  -9  -6    5.10    3.40
   0  -9  -6   -0.60    3.90
   0   9   6   -0.70    2.90
   0   9   6    4.20    3.60
  -1  -9  -6   19.30    4.40
  -1  -9  -6   14.60    6.60
   1   9   6   17.00    4.70
   1   9   6   16.40    4.00
  -2  -9  -6   31.90    5.00
  -2  -9  -6   22.30    8.40
   2   9   6   37.60    4.90
   2   9   6   47.50    6.80
  -3  -9  -6   -4.60    5.80
  -3  -9  -6    0.80    2.90
  -3  -9  -6   -1.70    2.70
   3   9   6    5.10    3.80
   3   9   6    2.60    2.40
  -4  -9  -6   21.50    4.30
  -4  -9  -6   20.50   12.90
  -4  -9  -6   14.50    3.50
   4   9   6   21.40    4.60
   4   9   6   21.30    5.00
  -5  -9  -6    2.70    2.40
  -5  -9  -6   -0.90    2.10
  -5  -9  -6   -3.30   10.70
   5   9   6   -3.80    2.70
   5   9   6   -1.50    3.40
  -6  -9  -6  -24.40   13.20
  -6  -9  -6    6.20    3.50
  -6  -9  -6   -6.20    2.50
  -6  -9  -6    2.10    3.10
   6   9   6   -0.10    3.80
   6   9   6    6.70    4.10
  -7  -9  -6    6.80    3.60
  -7  -9  -6   10.00    9.30
  -7  -9  -6    8.00    3.40
  -7  -9  -6    5.10    3.60
   7   9   6    8.60    4.30
   7   9   6    9.80    4.80
   7   9   6    1.00    4.00
  -8  -9  -6   68.39    7.00
  -8  -9  -6   85.79    7.40
  -8  -9  -6  102.79   15.80
  -8  -9  -6   83.09    7.30
   8   9   6   71.69    8.70
   8   9   6   61.89    9.60
   8   9   6   89.39    8.90
  -9  -9  -6    7.80    4.30
  -9  -9  -6    7.00    3.70
  -9  -9  -6    8.20    3.90
   9   9   6   16.70    4.80
   9   9   6   17.10    5.90
   9   9   6   -2.30    4.90
 -10  -9  -6    5.00    4.50
 -10  -9  -6   12.90    4.50
  10   9   6    7.00    4.00
  10   9   6   16.80    7.50
  10   9   6   12.00    6.00
 -11  -9  -6    2.00    3.40
 -11  -9  -6   -4.10    4.00
  11   9   6    1.30    5.40
  11   9   6   -1.70    4.60
  12   9   6    0.00    4.30
  -2  10   6   -0.50    3.70
   1 -10  -6   17.40    5.30
   1 -10  -6   15.50    7.80
  -1  10   6   10.00    4.80
  -1  10   6    5.70    4.90
   0 -10  -6   -2.00    6.20
   0 -10  -6   -3.60    2.80
   0  10   6   -0.40    3.00
   0  10   6   -1.50    3.40
  -1 -10  -6   -5.00    6.20
  -1 -10  -6    4.40    3.80
   1  10   6    2.30    3.30
   1  10   6    3.90    3.00
  -2 -10  -6   -8.90    8.10
  -2 -10  -6    4.30    3.40
   2  10   6    7.70    3.60
  -3 -10  -6    6.60    8.30
  -3 -10  -6    7.50    4.00
   3  10   6    8.60    3.80
  -4 -10  -6   10.10    3.50
  -4 -10  -6    8.70    3.90
  -4 -10  -6   -5.40   14.50
   4  10   6    4.20    3.10
  -5 -10  -6   -1.60    3.10
  -5 -10  -6   -1.00    2.90
  -5 -10  -6  -31.50   16.30
   5  10   6   -1.10    3.70
   5  10   6    1.00    3.50
  -6 -10  -6   -8.30   16.10
  -6 -10  -6    3.60    2.90
  -6 -10  -6    8.00    4.00
  -6 -10  -6   -2.00    2.70
   6  10   6    5.40    4.50
   6  10   6   -1.80    4.00
  -7 -10  -6    0.60    3.50
  -7 -10  -6    0.70    2.70
  -7 -10  -6    0.80    3.50
  -7 -10  -6    2.60    8.30
   7  10   6    2.20    4.00
   7  10   6   -4.10    2.70
  -8 -10  -6    1.20    3.10
  -8 -10  -6    5.80   10.10
  -8 -10  -6   -2.10    2.20
  -8 -10  -6    2.70    3.00
   8  10   6    8.00    4.90
   8  10   6   -1.30    4.90
   8  10   6    4.80    3.90
  -9 -10  -6   -2.80    2.70
  -9 -10  -6   -4.20    3.40
   9  10   6    4.60    3.70
   9  10   6    1.00    4.40
   9  10   6   -5.40    4.70
 -10 -10  -6   13.00    5.30
 -10 -10  -6    1.70    4.90
  10  10   6    7.40    7.00
  10  10   6    4.00    5.10
  10  10   6   11.30    6.00
 -11 -10  -6   -2.40    4.70
  11  10   6    4.00    5.60
  11  10   6   -4.80    6.70
  -1 -11  -6   10.80    9.80
  -1 -11  -6    7.70    4.50
   1  11   6   12.60    4.80
  -2 -11  -6    0.80    3.70
  -2 -11  -6   -5.20    6.40
   2  11   6    4.70    4.70
  -3 -11  -6  -18.00    9.90
  -3 -11  -6    6.20    4.10
   3  11   6   -2.20    4.10
  -4 -11  -6    0.50    3.60
  -4 -11  -6  -38.60   19.00
   4  11   6   -1.90    3.90
  -5 -11  -6   13.60   16.50
  -5 -11  -6    7.60    4.10
   5  11   6    7.20    4.90
  -6 -11  -6   30.40   19.70
  -6 -11  -6   -1.70    2.60
  -6 -11  -6    2.90    4.00
  -6 -11  -6   -2.30    2.30
   6  11   6    8.40    5.40
  -7 -11  -6    6.30    4.50
  -7 -11  -6    5.60    3.50
  -7 -11  -6   32.80   13.50
  -7 -11  -6    8.90    3.70
   7  11   6    4.70    4.90
   7  11   6   14.10    5.30
  -8 -11  -6   -2.00    3.90
  -8 -11  -6    9.40    8.10
  -8 -11  -6   -1.40    4.10
   8  11   6   -2.20    4.50
   8  11   6   -6.70    4.10
   8  11   6    9.30    5.10
  -9 -11  -6   -7.70    3.70
  -9 -11  -6   -5.90    3.60
   9  11   6    5.60    5.10
   9  11   6   -2.30    4.90
   9  11   6   -6.40    4.70
 -10 -11  -6    0.60    3.60
  10  11   6    5.90    4.10
  10  11   6  -11.70    5.80
  11  11   6   -0.80    6.40
  -4 -12  -6  -58.99   23.10
  -4 -12  -6   -1.50    3.60
  -5 -12  -6    4.10    3.50
  -5 -12  -6  -60.79   24.90
   5  12   6   13.30    6.20
  -6 -12  -6    2.10    3.30
   6  12   6   11.70    6.30
  -7 -12  -6    0.60    3.10
  -7 -12  -6   17.10   10.30
   7  12   6    1.20    5.10
  -8 -12  -6   18.10   13.40
  -7 -11   7   -0.50    4.70
   6  11  -7    3.60    6.40
  -6 -11   7    0.70    4.80
   5  11  -7   26.80    7.80
  -5 -11   7   23.40    6.50
   4  11  -7    6.50    5.60
  -4 -11   7    1.00    3.20
   3  11  -7    0.70    5.00
   8  10  -7   -0.20    5.60
   8  10  -7   -5.10    4.00
  -8 -10   7    0.30    3.60
  -8 -10   7   -3.70    3.20
   7  10  -7   15.10    6.40
   7  10  -7    6.70    6.60
   7  10  -7   17.30    5.90
  -7 -10   7    9.80    4.70
  -7 -10   7   19.00    5.30
   6  10  -7    9.70    5.30
   6  10  -7    0.50    4.50
   6  10  -7   16.20    6.50
  -6 -10   7    6.30    4.20
  -6 -10   7   14.90    4.70
   5  10  -7    8.70    4.70
   5  10  -7    4.10    5.20
   5  10  -7    2.80    3.50
  -5 -10   7    7.80    4.20
  -5 -10   7    2.60    3.30
   4  10  -7   16.70    5.80
   4  10  -7   12.10    5.00
   4  10  -7   20.80    7.30
  -4 -10   7   17.60    4.80
  -4 -10   7    9.30    5.00
   3  10  -7    8.60    6.10
   3  10  -7   -1.50    4.10
   3  10  -7    2.20    4.50
  -3 -10   7    3.60    3.80
   2  10  -7    4.60    4.90
   2  10  -7   10.70    6.20
  -2 -10   7    4.50    4.40
   1  10  -7    2.00    4.20
 -10  -9   7   -2.70    3.90
   9   9  -7    1.60    5.70
   9   9  -7   -0.10    3.70
  -9  -9   7    5.50    4.10
   8   9  -7    7.30    5.20
   8   9  -7   15.10    5.40
   8   9  -7    8.90    4.10
  -8  -9   7   15.20    5.30
  -8  -9   7    4.30    3.40
   7   9  -7   -4.60    4.00
   7   9  -7    1.30    3.60
   7   9  -7    3.10    4.50
  -7  -9   7   -2.10    2.80
  -7  -9   7    1.50    3.30
   6   9  -7    6.00    4.50
   6   9  -7    2.30    3.60
   6   9  -7    2.80    3.60
  -6  -9   7    3.10    3.20
  -6  -9   7   -1.00    4.30
   5   9  -7   18.30    5.50
   5   9  -7   18.00    6.30
   5   9  -7   16.90    5.00
  -5  -9   7   12.90    5.20
  -5  -9   7   16.70    4.30
   4   9  -7    1.50    3.50
   4   9  -7    1.20    4.20
   4   9  -7   -0.30    3.20
  -4  -9   7   -0.30    2.80
  -4  -9   7    6.70    4.50
   3   9  -7    5.90    4.40
   3   9  -7   -2.50    3.60
   3   9  -7   -4.40    4.00
  -3  -9   7   -1.20    2.90
   2   9  -7    0.10    4.30
   2   9  -7    3.60    4.30
   2   9  -7   -5.50    4.00
  -2  -9   7    4.00    2.90
   1   9  -7   13.90    5.40
   1   9  -7    8.20    4.30
   1   9  -7    7.60    4.80
  -1  -9   7   13.40    4.70
   0   9  -7    1.70    5.60
   0   9  -7    0.10    4.40
   0   9  -7    4.60    3.80
   0  -9   7    2.50    3.90
 -11  -8   7    2.60    4.20
  10   8  -7   13.40    5.10
  10   8  -7    1.80    3.70
 -10  -8   7    3.60    3.80
   9   8  -7   -1.00    2.90
   9   8  -7   -2.80    5.20
  -9  -8   7    1.50    3.10
   8   8  -7   -1.00    3.30
   8   8  -7    0.20    3.60
   8   8  -7    9.10    3.70
  -8  -8   7    6.30    5.20
  -8  -8   7   -3.20    2.80
   7   8  -7   -0.40    3.10
   7   8  -7    2.40    3.00
   7   8  -7    5.50    3.80
  -7  -8   7    4.20    4.60
  -7  -8   7    0.50    2.90
   6   8  -7   -1.50    3.50
   6   8  -7    2.80    3.30
   6   8  -7   10.70    5.30
  -6  -8   7    6.30    3.80
  -6  -8   7    8.60    3.40
   5   8  -7    3.40    4.40
   5   8  -7    4.40    4.20
   5   8  -7    6.40    3.50
  -5  -8   7   11.00    3.30
  -5  -8   7   -1.70    3.70
   4   8  -7    0.00    3.10
   4   8  -7   -3.40    3.50
   4   8  -7   -3.40    2.10
  -4  -8   7   -1.60    2.40
  -4  -8   7    2.70    2.70
   3   8  -7   -1.40    3.00
   3   8  -7    3.90    3.90
   3   8  -7    1.20    3.30
  -3  -8   7    0.50    2.70
   2   8  -7    8.30    4.40
   2   8  -7   12.20    5.10
   2   8  -7   10.40    4.40
  -2  -8   7   10.60    3.60
   1   8  -7    5.20    3.60
   1   8  -7   11.60    4.70
  -1  -8   7    3.50    3.30
   0   8  -7   10.70    4.30
   0   8  -7    8.30    5.40
   0   8  -7   11.60    4.80
   0  -8   7    4.00    3.70
  -1   8  -7    0.00    3.60
  -1   8  -7   -4.10    4.00
  -1   8  -7    2.80    3.60
   1  -8   7   -0.10    3.80
  -2   8  -7   -0.40    3.90
  -2   8  -7    6.70    5.50
  -2   8  -7   -1.60    3.70
   2  -8   7   -4.00    4.00
  -3   8  -7   -0.80    4.90
  11   7  -7    4.10    4.30
 -11  -7   7   -1.70    2.90
  10   7  -7   11.20    5.90
  10   7  -7   11.20    4.10
  10   7  -7   17.80    6.00
 -10  -7   7   17.50    4.10
   9   7  -7    1.80    3.50
   9   7  -7   -4.20    3.20
  -9  -7   7    0.90    3.00
   8   7  -7   -0.60    2.60
   8   7  -7   -0.40    3.00
   8   7  -7   -1.50    3.30
  -8  -7   7    8.90    5.10
  -8  -7   7   -0.30    2.60
   7   7  -7    9.10    4.80
   7   7  -7    8.20    4.00
  -7  -7   7    8.90    3.40
  -7  -7   7    2.00    3.50
   6   7  -7    6.40    4.00
   6   7  -7    5.50    3.10
   6   7  -7    8.00    3.70
  -6  -7   7    1.60    2.80
  -6  -7   7    6.00    4.60
   5   7  -7    2.60    2.80
   5   7  -7    3.40    3.80
   5   7  -7    3.40    3.20
  -5  -7   7    8.30    4.10
  -5  -7   7    4.00    2.90
   4   7  -7   24.70    5.40
   4   7  -7   27.50    4.80
   4   7  -7   23.10    5.70
  -4  -7   7   28.00    4.30
  -4  -7   7   20.70    4.50
   3   7  -7    9.00    4.00
   3   7  -7    6.30    4.50
   3   7  -7   16.60    4.10
  -3  -7   7   16.30    3.50
   2   7  -7    2.50    3.00
   2   7  -7    0.40    2.40
   2   7  -7    5.80    2.70
  -2  -7   7    1.20    2.60
   1   7  -7    0.80    3.00
   1   7  -7   -1.90    2.10
   1   7  -7   -2.10    2.40
  -1  -7   7   -2.00    2.50
   0   7  -7    0.10    2.50
   0   7  -7    3.00    3.00
   0   7  -7    1.70    3.90
   0  -7   7    4.00    3.30
  -1   7  -7    1.10    3.30
  -1   7  -7   -2.60    2.20
  -1   7  -7   -0.80    3.20
   1  -7   7   -2.20    2.90
  -2   7  -7    0.50    4.10
  -2   7  -7   -4.10    2.30
  -2   7  -7    3.20    3.80
   2  -7   7    4.20    3.90
  -3   7  -7    1.10    4.50
  -3   7  -7    0.00    4.60
  -3   7  -7    2.80    4.60
   3  -7   7   13.30    5.30
  -4   7  -7    3.50    5.20
  -4   7  -7    4.10    5.70
  11   6  -7   12.40    4.40
  11   6  -7    9.90    6.10
 -11  -6   7   17.10    4.40
  10   6  -7    8.90    6.20
  10   6  -7   19.20    6.10
  10   6  -7   13.50    4.30
 -10  -6   7   10.10    3.40
   9   6  -7   -1.30    2.70
   9   6  -7   -1.20    4.50
   9   6  -7   15.10    5.30
  -9  -6   7   -0.60    2.50
  -9  -6   7    0.60    3.90
   8   6  -7    3.00    2.70
   8   6  -7   -1.40    2.60
   8   6  -7    3.90    3.90
  -8  -6   7   -0.20    2.20
  -8  -6   7    2.60    3.30
   7   6  -7    6.60    2.90
   7   6  -7    7.70    4.10
   7   6  -7    1.70    2.90
  -7  -6   7    3.90    2.50
  -7  -6   7    3.70    2.90
  -7  -6   7    4.10    3.60
   6   6  -7   -1.20    2.20
   6   6  -7   -1.00    3.50
   6   6  -7   -0.50    2.50
  -6  -6   7    1.50    2.90
  -6  -6   7   -2.00    3.30
  -6  -6   7    2.70    2.30
   5   6  -7   -0.60    2.30
   5   6  -7    3.00    3.20
   5   6  -7    2.30    3.80
  -5  -6   7    1.20    3.60
  -5  -6   7    2.90    2.40
   4   6  -7   19.40    5.10
   4   6  -7   20.70    5.00
   4   6  -7   20.50    3.90
  -4  -6   7   22.70    3.70
  -4  -6   7   17.90    4.90
   3   6  -7   81.49    6.40
   3   6  -7   80.49    8.90
   3   6  -7   80.49    8.80
   3   6  -7   79.99    5.30
  -3  -6   7   86.29    5.60
   2   6  -7    2.60    2.70
   2   6  -7    2.90    1.90
   2   6  -7   -0.40    2.20
  -2  -6   7    2.90    2.50
  -2  -6   7    1.10    2.20
   1   6  -7   16.80    3.50
   1   6  -7   20.30    3.90
   1   6  -7   15.80    4.50
   1   6  -7   22.70    4.60
  -1  -6   7   24.60    4.10
  -1  -6   7   18.50    3.80
   0   6  -7    5.10    3.20
   0   6  -7    1.40    2.40
   0   6  -7    3.30    2.70
   0   6  -7    4.40    2.80
   0  -6   7   -3.60    2.10
   0  -6   7    1.00    2.80
  -1   6  -7    4.50    3.60
  -1   6  -7   -2.20    2.40
  -1   6  -7   -3.50    2.90
  -1   6  -7   -0.70    2.50
   1  -6   7   -2.80    2.20
   1  -6   7   -3.20    2.20
   1  -6   7    1.60    2.30
  -2   6  -7    3.40    4.20
  -2   6  -7    5.80    3.40
  -2   6  -7    6.70    3.80
  -2   6  -7    5.30    4.00
   2  -6   7    5.40    2.90
   2  -6   7    6.50    3.20
  -3   6  -7    3.20    3.00
  -3   6  -7   -1.10    2.70
  -3   6  -7    0.10    2.80
  -3   6  -7    0.00    2.90
   3  -6   7   -0.90    3.20
  -4   6  -7    5.80    4.90
  -4   6  -7   10.20    5.10
  -4   6  -7   11.20    5.70
   4  -6   7   13.80    5.20
  -5   6  -7    5.20    4.50
  -5   6  -7    0.00    4.60
  11   5  -7   -7.80    5.50
  11   5  -7    7.50    3.70
 -11  -5   7    7.80    5.00
 -11  -5   7    5.90    3.50
  10   5  -7   18.40    7.40
  10   5  -7    1.60    2.70
  10   5  -7   -2.00    3.30
 -10  -5   7    1.70    2.70
 -10  -5   7    5.30    4.20
   9   5  -7    2.10    2.80
   9   5  -7    4.90    4.90
   9   5  -7    2.50    3.00
  -9  -5   7    3.70    4.10
  -9  -5   7   -1.50    2.30
   8   5  -7    3.70    3.70
   8   5  -7    6.30    2.60
  -8  -5   7    0.20    3.20
  -8  -5   7    1.30    2.30
   7   5  -7    0.80    2.00
   7   5  -7    0.00    2.00
   7   5  -7   -1.80    3.70
  -7  -5   7   -1.10    2.80
  -7  -5   7    1.70    2.00
  -7  -5   7   -2.30    3.70
   6   5  -7   58.69    6.40
   6   5  -7   63.89    8.30
   6   5  -7   48.70    4.80
  -6  -5   7   55.19    5.80
  -6  -5   7   52.19    4.20
  -6  -5   7   30.40    6.20
   5   5  -7    9.70    3.40
   5   5  -7    5.00    3.50
   5   5  -7   10.00    2.70
  -5  -5   7    6.50    2.20
  -5  -5   7   10.60    3.30
  -5  -5   7    3.70    3.80
   4   5  -7   37.60    6.80
   4   5  -7   56.99    6.80
   4   5  -7   45.10    3.70
   4   5  -7   49.30    4.50
  -4  -5   7   44.90    6.00
  -4  -5   7   46.30    4.00
  -4  -5   7   41.90    5.10
   3   5  -7   96.09    8.70
   3   5  -7   88.59    8.90
   3   5  -7  109.89    6.20
   3   5  -7   88.29    6.20
  -3  -5   7   88.09    5.30
  -3  -5   7   84.09    6.90
   2   5  -7    4.50    2.20
   2   5  -7   10.10    4.00
   2   5  -7    5.80    2.40
  -2  -5   7    3.80    2.60
  -2  -5   7    2.60    2.10
  -2  -5   7    5.30    1.80
   1   5  -7   -1.20    2.20
   1   5  -7   -2.50    2.70
   1   5  -7    1.30    1.90
  -1  -5   7   -0.20    1.60
  -1  -5   7    1.30    2.40
  -1  -5   7   -2.40    1.90
   0   5  -7    0.80    2.20
   0   5  -7   -1.10    2.90
   0   5  -7    2.90    2.60
   0   5  -7   -2.40    1.70
   0  -5   7   -0.30    1.60
   0  -5   7   -2.90    1.80
   0  -5   7   -2.90    2.00
  -1   5  -7   98.59    9.00
  -1   5  -7   88.49    7.00
  -1   5  -7  100.89    8.00
  -1   5  -7   92.99    6.90
   1  -5   7   91.39    6.10
   1  -5   7   95.69    6.80
   1  -5   7  100.89    7.00
  -2   5  -7    2.40    3.10
  -2   5  -7    9.50    3.50
  -2   5  -7    7.40    3.40
  -2   5  -7    5.00    3.00
   2  -5   7    4.70    2.80
   2  -5   7    4.10    2.40
   2  -5   7    8.50    3.50
  -3   5  -7   49.90    6.70
  -3   5  -7   51.19    7.60
  -3   5  -7   51.29    7.50
  -3   5  -7   48.10    6.60
   3  -5   7   57.09    5.30
   3  -5   7   53.89    5.70
   3  -5   7   59.29    6.20
  -4   5  -7    4.10    3.60
  -4   5  -7    0.40    3.70
  -4   5  -7    0.90    3.50
  -4   5  -7    3.50    3.00
   4  -5   7   -3.20    2.30
   4  -5   7   -0.60    3.20
  -5   5  -7    6.70    4.40
  -5   5  -7    1.60    4.50
  -5   5  -7   13.70    5.70
  -5   5  -7   13.80    5.00
   5  -5   7   11.60    5.10
  11   4  -7   -2.60    3.90
  11   4  -7    4.90    3.50
 -11  -4   7    1.90    5.20
 -11  -4   7   -3.90    2.90
  10   4  -7    6.00    4.80
  10   4  -7    5.70    2.90
  10   4  -7    4.60    5.40
 -10  -4   7    1.60    4.60
 -10  -4   7    0.10    2.70
   9   4  -7   -4.30    3.30
   9   4  -7    0.70    3.30
   9   4  -7    1.30    2.40
  -9  -4   7   -0.70    3.50
  -9  -4   7    0.70    2.10
   8   4  -7   -4.80    3.70
   8   4  -7    3.80    3.30
   8   4  -7    3.20    2.30
  -8  -4   7   -0.50    3.10
  -8  -4   7    1.10    2.00
   7   4  -7    0.30    1.90
   7   4  -7    2.20    2.20
   7   4  -7    4.10    4.20
  -7  -4   7    1.80    1.90
  -7  -4   7   -0.40    3.10
   6   4  -7   20.10    3.20
   6   4  -7   26.40    2.90
   6   4  -7   30.80    6.60
   6   4  -7   21.90    4.10
  -6  -4   7   27.00    2.90
  -6  -4   7   22.80    4.30
  -6  -4   7   34.60    5.90
   5   4  -7    0.10    3.20
   5   4  -7    5.70    1.70
   5   4  -7   11.40    3.20
  -5  -4   7   13.00    2.20
  -5  -4   7    8.80    3.20
  -5  -4   7   10.70    3.60
   4   4  -7   45.60    7.00
   4   4  -7   50.49    3.80
   4   4  -7   49.90    4.10
   4   4  -7   52.39    5.60
  -4  -4   7   45.50    6.10
  -4  -4   7   50.69    5.00
  -4  -4   7   51.09    3.50
  -4  -4   7   57.29    3.70
  -4  -4   7   51.99    5.20
   3   4  -7    0.50    1.40
   3   4  -7    3.40    1.60
   3   4  -7    5.40    1.80
   3   4  -7    3.10    1.70
   3   4  -7    3.70    2.60
  -3  -4   7    3.60    1.10
  -3  -4   7    2.90    2.10
  -3  -4   7    6.30    2.80
  -3  -4   7    3.90    1.80
  -3  -4   7    6.40    1.80
   2   4  -7   38.20    3.10
   2   4  -7   35.30    3.30
   2   4  -7   30.80    3.40
   2   4  -7   29.80    4.80
   2   4  -7   30.80    3.60
  -2  -4   7   29.90    3.20
  -2  -4   7   37.10    3.40
  -2  -4   7   34.40    4.70
   1   4  -7   18.10    3.30
   1   4  -7   20.80    3.50
   1   4  -7   22.70    3.10
   1   4  -7   16.60    4.20
  -1  -4   7   21.20    4.00
  -1  -4   7   30.00    3.50
  -1  -4   7   21.50    3.20
  -1  -4   7   24.80    2.50
   0   4  -7   18.20    4.10
   0   4  -7   20.40    4.00
   0   4  -7   18.80    3.30
   0   4  -7   21.20    3.80
   0  -4   7   16.10    2.60
   0  -4   7   16.40    3.10
   0  -4   7   12.40    3.00
  -1   4  -7    6.40    2.50
  -1   4  -7    4.40    2.70
  -1   4  -7    2.00    3.10
   1  -4   7    4.70    2.10
   1  -4   7    3.90    2.40
   1  -4   7    8.70    2.80
  -2   4  -7  220.78   10.50
  -2   4  -7  221.28   10.80
  -2   4  -7  219.38   12.90
  -2   4  -7  194.98   11.90
   2  -4   7  231.18   10.30
   2  -4   7  216.88    9.60
   2  -4   7  191.08    9.60
  -3   4  -7   18.00    5.00
  -3   4  -7   26.50    4.70
  -3   4  -7   23.40    5.30
  -3   4  -7   36.90    5.80
   3  -4   7   28.20    4.50
   3  -4   7   28.50    4.30
   3  -4   7   33.40    4.40
  -4   4  -7    4.00    3.50
  -4   4  -7    1.90    3.60
  -4   4  -7    5.80    3.70
  -4   4  -7    6.70    3.40
   4  -4   7    1.10    2.50
   4  -4   7    6.90    3.50
   4  -4   7    6.80    2.80
  -5   4  -7   -2.40    3.00
  -5   4  -7   -0.90    2.60
  -5   4  -7   -2.00    1.90
  -5   4  -7   -0.60    3.40
   5  -4   7    0.10    3.80
   5  -4   7    5.00    3.50
  -6   4  -7   12.70    4.70
  -6   4  -7    5.80    5.20
  -6   4  -7   13.20    5.10
  -6   4  -7   11.40    4.80
   6  -4   7    9.30    5.00
   6  -4   7    4.80    3.10
  -7   4  -7   -1.50    4.80
  11   3  -7   -2.70    2.80
  11   3  -7   -5.00    5.30
 -11  -3   7    4.80    5.40
 -11  -3   7   -4.40    2.70
  10   3  -7    8.00    5.80
  10   3  -7    6.30    4.90
  10   3  -7   14.20    3.50
 -10  -3   7    9.10    3.20
 -10  -3   7   13.10    4.40
   9   3  -7    0.50    2.20
   9   3  -7   -3.50    3.50
   9   3  -7    2.80    3.80
  -9  -3   7    1.60    4.20
  -9  -3   7    0.60    2.30
   8   3  -7    0.60    4.60
   8   3  -7   -1.30    3.60
   8   3  -7    1.60    2.10
  -8  -3   7   -1.60    3.10
  -8  -3   7   -0.50    2.00
   7   3  -7   20.40    5.30
   7   3  -7   10.20    4.70
   7   3  -7   14.90    2.80
   7   3  -7   10.00    2.70
  -7  -3   7   10.40    2.30
  -7  -3   7   14.50    4.10
   6   3  -7    0.70    1.60
   6   3  -7    0.80    1.90
   6   3  -7    1.30    3.10
  -6  -3   7    0.70    1.50
  -6  -3   7    0.60    3.60
  -6  -3   7    3.00    3.10
   5   3  -7   23.40    3.90
   5   3  -7   31.40    3.10
   5   3  -7   28.30    3.20
   5   3  -7   22.80    5.10
  -5  -3   7   33.20    4.60
  -5  -3   7   27.80    2.40
  -5  -3   7   24.10    4.40
  -5  -3   7   34.40    2.70
  -5  -3   7   36.90    5.00
   4   3  -7   18.40    2.00
   4   3  -7   21.30    2.80
   4   3  -7   18.40    3.70
   4   3  -7   17.10    4.50
   4   3  -7   20.00    1.50
   4   3  -7   17.40    2.40
  -4  -3   7   12.80    3.50
  -4  -3   7   20.30    4.00
  -4  -3   7   21.20    2.20
  -4  -3   7   20.40    3.60
  -4  -3   7   19.80    2.10
   3   3  -7   75.29    4.90
   3   3  -7   69.19    5.90
   3   3  -7   72.59    3.50
   3   3  -7   71.69    3.20
   3   3  -7   70.29    3.90
  -3  -3   7   65.29    3.40
  -3  -3   7   68.89    3.50
  -3  -3   7   70.19    5.70
  -3  -3   7   79.59    5.50
   2   3  -7    6.70    1.50
   2   3  -7    2.10    1.90
   2   3  -7    3.30    1.70
   2   3  -7    4.60    1.40
   2   3  -7    5.30    1.60
  -2  -3   7   -0.70    2.30
  -2  -3   7    4.90    2.20
  -2  -3   7    3.60    0.80
  -2  -3   7    2.90    1.40
  -2  -3   7    3.70    1.50
   1   3  -7    9.10    1.90
   1   3  -7   10.50    2.50
   1   3  -7   11.20    3.20
   1   3  -7   11.00    2.30
   1   3  -7    5.00    3.00
   1   3  -7    7.50    1.90
  -1  -3   7    7.00    1.90
  -1  -3   7    9.80    2.70
  -1  -3   7    9.90    1.90
   0   3  -7    4.00    1.90
   0   3  -7    3.80    1.80
   0   3  -7    8.20    3.20
   0   3  -7    6.30    2.20
   0   3  -7    0.30    2.00
   0   3  -7   -2.10    3.20
   0  -3   7    3.90    2.60
   0  -3   7    4.00    2.00
   0  -3   7    4.20    1.60
   0  -3   7    2.70    1.70
  -1   3  -7   14.00    2.80
  -1   3  -7   13.10    3.10
  -1   3  -7   10.00    2.80
  -1   3  -7   12.80    2.70
  -1   3  -7    7.30    1.60
  -1   3  -7   10.70    3.10
   1  -3   7   11.30    2.40
   1  -3   7    8.80    2.60
   1  -3   7   10.80    2.60
   1  -3   7    9.40    3.00
  -2   3  -7    3.30    2.60
  -2   3  -7   -0.80    2.30
  -2   3  -7   -1.50    1.80
  -2   3  -7    3.70    2.20
   2  -3   7    2.00    2.30
   2  -3   7    3.90    2.50
   2  -3   7    1.70    1.90
  -3   3  -7   -0.50    2.60
  -3   3  -7   -3.80    1.30
  -3   3  -7    9.90    4.50
  -3   3  -7    4.40    2.70
   3  -3   7    3.10    2.50
   3  -3   7    6.10    2.80
   3  -3   7    1.20    2.80
  -4   3  -7    4.70    3.20
  -4   3  -7    9.70    3.30
  -4   3  -7   16.80    4.30
  -4   3  -7    4.00    2.50
   4  -3   7    4.10    2.50
   4  -3   7    8.20    3.50
   4  -3   7    6.90    3.20
  -5   3  -7    3.70    3.60
  -5   3  -7    7.00    3.90
  -5   3  -7    2.60    3.80
  -5   3  -7    4.80    3.40
   5  -3   7    4.50    2.60
   5  -3   7    8.40    3.70
   5  -3   7    6.60    3.80
  -6   3  -7   10.30    4.30
  -6   3  -7    4.50    3.60
  -6   3  -7    7.20    3.50
  -6   3  -7    5.00    4.20
   6  -3   7    1.20    2.60
   6  -3   7   -2.90    3.50
  -7   3  -7    1.20    4.00
  -7   3  -7    0.40    4.20
  -7   3  -7   -3.90    4.50
   7  -3   7    0.70    3.70
   7  -3   7   -0.60    4.50
  -8   3  -7    2.10    4.00
  11   2  -7    2.90    3.70
 -11  -2   7    5.60    3.40
 -11  -2   7    0.10    4.60
  10   2  -7    1.60    2.80
  10   2  -7    5.60    6.30
  10   2  -7    0.40    4.30
 -10  -2   7    4.30    4.70
 -10  -2   7    1.80    2.80
   9   2  -7    2.30    3.80
   9   2  -7   -0.60    2.20
   9   2  -7   -0.90    3.60
  -9  -2   7   -2.70    2.00
  -9  -2   7   -5.80    3.50
   8   2  -7    5.20    3.50
   8   2  -7    2.40    3.60
   8   2  -7    3.90    2.40
  -8  -2   7   -5.20    3.10
  -8  -2   7    1.70    2.10
   7   2  -7   51.39    8.30
   7   2  -7   41.10    6.90
   7   2  -7   40.00    3.90
  -7  -2   7   43.70    6.30
  -7  -2   7   38.00    3.50
   6   2  -7    6.80    2.30
   6   2  -7    9.40    3.70
   6   2  -7    8.10    3.90
   6   2  -7    6.70    1.90
  -6  -2   7   11.60    3.80
  -6  -2   7    9.20    1.80
   5   2  -7   90.49    4.30
   5   2  -7   94.29    6.50
   5   2  -7   89.69    8.20
  -5  -2   7   99.29    7.10
  -5  -2   7   92.49    6.50
  -5  -2   7   92.69    7.10
  -5  -2   7   93.89    3.80
  -5  -2   7   94.39    3.60
   4   2  -7   49.40    2.80
   4   2  -7   60.09    2.70
   4   2  -7   60.59    6.50
   4   2  -7   57.49    5.30
  -4  -2   7   45.80    4.40
  -4  -2   7   56.09    5.50
  -4  -2   7   55.49    2.20
  -4  -2   7   48.70    4.80
  -4  -2   7   56.29    2.30
   3   2  -7   22.10    1.90
   3   2  -7   27.30    1.70
   3   2  -7   23.00    3.80
   3   2  -7   25.70    3.10
  -3  -2   7   25.50    1.50
  -3  -2   7   26.30    3.90
  -3  -2   7   27.00    4.30
  -3  -2   7   25.80    1.50
  -3  -2   7   24.10    3.90
   2   2  -7   60.69    2.20
   2   2  -7   56.69    3.10
   2   2  -7   62.09    2.90
   2   2  -7   60.99    4.50
   2   2  -7   58.39    2.10
   2   2  -7   57.99    5.60
  -2  -2   7   65.39    5.30
  -2  -2   7   57.09    2.70
  -2  -2   7   62.29    2.70
  -2  -2   7   52.19    4.60
   1   2  -7    3.90    1.80
   1   2  -7    4.60    1.30
   1   2  -7    4.90    1.40
   1   2  -7    4.00    1.20
   1   2  -7    4.10    2.00
  -1  -2   7    4.90    0.70
  -1  -2   7    6.30    2.60
  -1  -2   7    5.50    1.40
  -1  -2   7    5.60    0.70
  -1  -2   7    3.60    2.10
   0   2  -7   25.60    3.70
   0   2  -7   25.40    2.60
   0   2  -7   27.20    3.00
   0   2  -7   29.60    2.60
   0   2  -7   29.60    4.30
   0   2  -7   28.60    4.40
   0  -2   7   28.40    2.80
   0  -2   7   31.30    4.10
   0  -2   7   25.90    2.70
  -1   2  -7   32.30    3.60
  -1   2  -7   33.20    3.20
  -1   2  -7   31.40    4.50
  -1   2  -7   35.70    3.40
  -1   2  -7   29.10    3.60
  -1   2  -7   27.70    4.60
   1  -2   7   36.00    3.10
   1  -2   7   31.10    3.30
   1  -2   7   33.30    4.40
   1  -2   7   35.20    3.40
  -2   2  -7    3.80    2.20
  -2   2  -7    2.80    2.10
  -2   2  -7   -0.20    2.40
  -2   2  -7    3.50    2.00
  -2   2  -7    4.30    2.30
  -2   2  -7    6.60    1.70
   2  -2   7    2.50    1.90
   2  -2   7    4.60    2.10
   2  -2   7    7.80    2.50
   2  -2   7    5.60    2.20
  -3   2  -7   -0.10    2.40
  -3   2  -7   -0.30    1.70
  -3   2  -7    0.70    3.10
  -3   2  -7   -1.60    1.80
  -3   2  -7   -0.80    0.90
   3  -2   7   -2.20    1.90
   3  -2   7    0.90    2.00
   3  -2   7   -3.50    2.00
  -4   2  -7    7.60    3.20
  -4   2  -7   14.50    5.00
  -4   2  -7    3.80    3.00
  -4   2  -7    6.30    3.30
   4  -2   7    2.20    2.40
   4  -2   7    8.10    2.90
   4  -2   7    8.80    2.90
  -5   2  -7   10.10    3.80
  -5   2  -7    8.40    3.00
  -5   2  -7    4.90    3.10
  -5   2  -7   18.00    4.10
   5  -2   7   14.90    3.50
   5  -2   7   19.60    4.40
   5  -2   7    8.30    3.30
  -6   2  -7    0.40    2.80
  -6   2  -7   -1.20    2.50
  -6   2  -7   -1.30    2.10
  -6   2  -7   -1.70    3.10
   6  -2   7   -2.80    2.00
   6  -2   7    7.30    3.60
   6  -2   7    2.10    2.90
  -7   2  -7   -1.70    2.50
  -7   2  -7   -2.30    2.40
  -7   2  -7    1.40    3.90
  -7   2  -7    1.10    3.00
   7  -2   7    7.10    4.00
   7  -2   7    2.90    4.40
  -8   2  -7   51.99    7.70
  -8   2  -7   39.60    8.80
  -8   2  -7   36.60    6.90
   8  -2   7   44.10    6.50
   8  -2   7   44.10    7.00
  10   1  -7    2.50    3.10
  10   1  -7    1.60    6.60
 -10  -1   7    5.60    3.10
 -10  -1   7    4.40    4.20
   9   1  -7    0.80    2.80
   9   1  -7    2.00    4.50
   9   1  -7   -5.20    3.00
  -9  -1   7    1.60    2.50
  -9  -1   7    3.10    4.20
   8   1  -7    0.80    3.20
   8   1  -7    2.30    3.60
   8   1  -7    1.20    2.20
  -8  -1   7   -0.20    3.00
  -8  -1   7    2.70    2.20
   7   1  -7   27.00    6.10
   7   1  -7   28.20    3.50
   7   1  -7   25.70    5.50
  -7  -1   7   35.60    5.60
  -7  -1   7   36.40    3.50
   6   1  -7   81.79    4.50
   6   1  -7   87.69    8.40
   6   1  -7   77.29    5.40
   6   1  -7   91.39    9.30
  -6  -1   7   81.49    4.10
  -6  -1   7   74.69    6.60
   5   1  -7   -1.20    3.00
   5   1  -7   -0.60    1.10
   5   1  -7   -0.60    1.40
   5   1  -7    0.10    2.00
  -5  -1   7    0.40    2.20
  -5  -1   7   -1.20    1.80
  -5  -1   7   -0.20    0.90
  -5  -1   7   -1.70    2.00
  -5  -1   7   -1.60    0.80
   4   1  -7    1.90    0.80
   4   1  -7   -0.30    1.90
   4   1  -7   -0.50    1.30
   4   1  -7    1.00    0.60
  -4  -1   7    4.00    2.70
  -4  -1   7    2.20    2.20
  -4  -1   7   -0.70    2.40
   3   1  -7   43.60    1.60
   3   1  -7   49.70    4.80
   3   1  -7   47.70    1.80
  -3  -1   7   52.69    4.70
  -3  -1   7   52.29    5.20
  -3  -1   7   48.60    4.30
   2   1  -7    2.50    1.70
   2   1  -7    3.80    1.80
   2   1  -7    3.50    0.60
   2   1  -7    2.60    0.60
  -2  -1   7    4.10    2.10
  -2  -1   7    2.70    2.30
   1   1  -7   16.30    2.70
   1   1  -7   15.20    3.00
   1   1  -7   18.80    1.60
   1   1  -7   14.40    0.80
   1   1  -7   14.50    1.50
   1   1  -7   17.80    3.00
  -1  -1   7   15.40    1.40
  -1  -1   7   15.20    1.40
  -1  -1   7   16.60    3.10
  -1  -1   7   13.30    3.10
   0   1  -7    2.70    1.60
   0   1  -7    3.00    1.30
   0   1  -7    6.10    1.40
   0   1  -7    6.10    2.20
   0   1  -7    3.90    1.70
   0   1  -7    2.00    0.90
   0  -1   7    3.50    1.90
   0  -1   7    2.50    0.70
   0  -1   7    1.90    1.20
   0  -1   7    3.30    0.80
   0  -1   7    2.60    1.10
   0  -1   7    7.40    2.90
  -1   1  -7  141.39    5.90
  -1   1  -7  140.99    6.10
  -1   1  -7  139.99    8.00
  -1   1  -7  155.28    9.10
  -1   1  -7  145.49    6.20
  -1   1  -7  137.69    6.20
  -1   1  -7  141.79    8.30
   1  -1   7  150.28    6.00
   1  -1   7  146.79    6.00
   1  -1   7  135.99    7.60
   1  -1   7  140.79    5.30
  -2   1  -7   30.90    3.70
  -2   1  -7   28.50    4.20
  -2   1  -7   31.90    2.80
  -2   1  -7   36.70    4.00
  -2   1  -7   24.10    4.20
  -2   1  -7   29.10    3.10
   2  -1   7   38.50    4.00
   2  -1   7   29.40    2.90
   2  -1   7   32.20    3.30
   2  -1   7   31.90    3.50
  -3   1  -7   21.10    4.10
  -3   1  -7   29.40    3.90
  -3   1  -7   30.90    3.90
  -3   1  -7   29.90    2.40
  -3   1  -7   20.70    3.90
   3  -1   7   23.20    3.30
   3  -1   7   30.10    4.00
   3  -1   7   20.70    3.60
   3  -1   7   20.40    3.40
  -4   1  -7    0.70    2.50
  -4   1  -7   -0.90    2.00
  -4   1  -7   -2.20    3.10
  -4   1  -7    0.20    2.20
   4  -1   7    1.70    2.20
   4  -1   7    0.70    2.30
   4  -1   7   -0.40    2.30
  -5   1  -7    1.50    4.10
  -5   1  -7   -1.20    2.60
  -5   1  -7    2.50    2.30
  -5   1  -7    1.60    2.70
   5  -1   7   -2.30    1.80
   5  -1   7    2.70    2.40
   5  -1   7    5.80    3.00
  -6   1  -7    0.70    2.50
  -6   1  -7   -1.20    2.80
  -6   1  -7    3.90    3.20
  -6   1  -7    0.90    3.80
   6  -1   7    1.40    3.10
   6  -1   7    0.50    3.10
   6  -1   7    1.10    2.20
  -7   1  -7   -1.10    2.50
  -7   1  -7   -3.20    3.50
  -7   1  -7    3.30    3.90
  -7   1  -7   -1.80    2.10
   7  -1   7    2.20    2.50
   7  -1   7    0.30    2.60
   7  -1   7    1.00    3.40
  -8   1  -7   -0.70    3.20
  -8   1  -7    4.40    3.50
  -8   1  -7    7.90    4.70
   8  -1   7    4.10    4.40
   8  -1   7    9.70    3.80
   8  -1   7   -3.20    4.30
  -9   1  -7    3.80    4.20
  -9   1  -7    8.60    5.30
   9  -1   7    6.10    4.50
   9  -1   7    5.60    5.20
  10   0  -7    4.00    3.30
 -10   0   7    2.60    3.10
 -10   0   7   -3.10    2.90
   9   0  -7   20.50    6.40
   9   0  -7   26.50    4.50
  -9   0   7   17.00    3.70
  -9   0   7   37.30    7.10
   8   0  -7   11.80    4.40
   8   0  -7   10.90    3.00
   8   0  -7   12.50    6.20
  -8   0   7   19.50    6.00
  -8   0   7   11.00    3.00
   7   0  -7   -0.50    2.60
   7   0  -7   -1.20    1.60
   7   0  -7   -1.10    3.30
  -7   0   7   -2.20    1.60
  -7   0   7    2.80    4.10
   6   0  -7   33.90    3.30
   6   0  -7   37.90    3.90
   6   0  -7   30.00    5.20
   6   0  -7   34.40    6.40
  -6   0   7   29.40    5.00
  -6   0   7   31.10    3.00
   5   0  -7   63.69    6.70
   5   0  -7   60.09    7.40
   5   0  -7   63.69    4.90
   5   0  -7   56.89    3.50
  -5   0   7   65.69    3.40
  -5   0   7   64.99    6.60
  -5   0   7   69.39    5.10
  -5   0   7   57.29    3.00
   4   0  -7    6.60    1.10
   4   0  -7    0.50    2.00
   4   0  -7    5.30    1.00
   4   0  -7    1.60    2.80
  -4   0   7    2.00    3.10
  -4   0   7    5.60    2.10
  -4   0   7    1.10    2.70
   3   0  -7   16.70    0.70
   3   0  -7   27.60    4.30
   3   0  -7   18.30    0.80
  -3   0   7   18.40    3.40
  -3   0   7   23.70    3.70
  -3   0   7   19.30    3.40
  -2   0   7  233.38    9.50
  -2   0   7  240.28   10.20
  -2   0   7  231.68    9.80
   1   0  -7   76.49    5.00
   1   0  -7   73.29    2.50
   1   0  -7   69.39    2.50
   1   0  -7   67.89    5.10
  -1   0   7   69.49    5.30
  -1   0   7   77.79    5.40
   0   0  -7    1.90    1.30
   0   0  -7    0.90    0.60
   0   0  -7    1.40    0.80
   0   0  -7    3.10    1.90
   0   0  -7    2.90    0.80
   0   0  -7    2.60    1.30
   0   0  -7    2.60    1.00
   0   0   7    0.60    2.30
   0   0   7    0.60    0.90
   0   0   7    2.10    1.00
   0   0   7    2.60    1.80
  -1   0  -7   -0.10    1.00
  -1   0  -7    0.40    1.30
  -1   0  -7    0.30    1.20
  -1   0  -7    1.50    1.20
  -1   0  -7    0.60    1.10
  -1   0  -7    0.20    1.30
   1   0   7   -0.70    0.70
   1   0   7    0.80    1.30
   1   0   7    0.50    2.10
   1   0   7    1.40    1.20
  -2   0  -7  152.68    8.70
  -2   0  -7  145.09    6.10
  -2   0  -7  158.38    6.80
  -2   0  -7  151.38    6.70
  -2   0  -7  161.08    7.90
  -2   0  -7  162.88    6.50
   2   0   7  161.38    6.20
   2   0   7  160.68    6.70
   2   0   7  157.68    6.40
   2   0   7  146.59    7.90
  -3   0  -7  124.89    8.50
  -3   0  -7  129.29    6.40
  -3   0  -7  120.19    6.50
  -3   0  -7  126.89    6.70
   3   0   7  126.19    6.10
   3   0   7  127.69    7.30
   3   0   7  120.59    6.20
   3   0   7  129.69    6.50
  -4   0  -7   20.20    3.70
  -4   0  -7   15.90    3.10
  -4   0  -7   19.90    4.00
   4   0   7   21.10    3.70
   4   0   7   18.70    3.30
   4   0   7   22.50    4.20
  -5   0  -7   -1.50    2.30
  -5   0  -7   -4.50    1.80
  -5   0  -7    1.60    2.20
  -5   0  -7    3.70    2.90
   5   0   7    0.70    2.50
   5   0   7    2.20    2.30
   5   0   7   -2.20    2.00
  -6   0  -7    7.40    3.60
  -6   0  -7    8.50    3.30
  -6   0  -7   12.10    3.50
  -6   0  -7    5.70    3.80
   6   0   7   14.50    4.20
   6   0   7   17.70    3.80
   6   0   7   15.00    4.00
  -7   0  -7   14.70    4.60
  -7   0  -7   24.70    6.20
  -7   0  -7   22.60    4.70
  -7   0  -7   26.00    4.90
   7   0   7   23.70    4.50
   7   0   7   21.80    5.00
   7   0   7   22.70    5.50
   7   0   7   21.80    4.20
  -8   0  -7   -0.30    3.20
  -8   0  -7   -2.40    3.20
  -8   0  -7   -0.90    3.70
  -8   0  -7   -2.10    2.20
   8   0   7    2.10    3.70
   8   0   7   -5.20    3.60
   8   0   7   -4.20    3.40
  -9   0  -7   21.80    6.60
  -9   0  -7   28.30    7.20
  -9   0  -7   19.10    6.00
   9   0   7   32.20    6.80
   9   0   7   33.50    6.80
   9   0   7   21.70    6.20
 -10   0  -7   17.50    6.50
   9  -1  -7    7.50    6.00
   9  -1  -7    1.40    6.60
   9  -1  -7    4.20    3.20
  -9   1   7    6.00    5.40
  -9   1   7    3.60    2.90
   8  -1  -7    1.20    2.20
   8  -1  -7    1.90    4.00
  -8   1   7    4.50    4.80
  -8   1   7    4.60    2.60
   7  -1  -7   17.30    6.40
   7  -1  -7   11.80    2.90
  -7   1   7   17.40    5.40
  -7   1   7   12.50    2.90
   6  -1  -7   -0.30    1.60
   6  -1  -7    0.10    3.00
   6  -1  -7    1.90    2.40
  -6   1   7    0.30    3.70
  -6   1   7    2.50    1.90
   5  -1  -7  195.58   13.30
   5  -1  -7  179.98   10.90
   5  -1  -7  178.58    6.80
  -5   1   7  172.18    9.80
  -5   1   7  182.58    8.10
  -5   1   7  166.48    6.40
   4  -1  -7   62.29    3.30
   4  -1  -7   58.99    3.20
   4  -1  -7   65.09    7.50
   4  -1  -7   67.09    6.20
  -4   1   7   68.59    3.10
  -4   1   7   67.09    3.00
  -4   1   7   63.79    5.80
  -4   1   7   65.99    4.90
   3  -1  -7    1.40    1.80
   3  -1  -7    4.50    0.80
   3  -1  -7    4.80    0.90
   3  -1  -7    1.90    2.00
  -3   1   7    7.40    2.40
  -3   1   7    8.00    2.80
  -3   1   7    4.60    2.50
   2  -1  -7  198.38    5.10
   2  -1  -7  200.78   10.80
   2  -1  -7  203.58    5.10
  -2   1   7  200.18    9.30
  -2   1   7  203.58    8.40
  -2   1   7  214.08    9.10
   1  -1  -7   -0.80    1.40
   1  -1  -7    1.20    2.10
   1  -1  -7    0.10    0.40
   1  -1  -7    0.00    0.40
  -1   1   7   -0.30    2.00
  -1   1   7   -2.30    2.00
   0  -1  -7    2.00    0.40
   0  -1  -7    1.50    0.50
   0  -1  -7    3.10    1.70
   0  -1  -7    1.30    0.80
   0  -1  -7    2.90    0.90
   0  -1  -7    1.80    1.90
   0   1   7    3.00    0.90
   0   1   7    1.10    2.10
   0   1   7    3.10    2.40
   0   1   7    1.70    0.90
  -1  -1  -7    2.00    0.90
  -1  -1  -7    0.70    1.00
  -1  -1  -7    0.50    1.00
  -1  -1  -7   -0.70    1.50
  -1  -1  -7   -1.00    1.10
   1   1   7   -1.10    1.10
   1   1   7    3.20    1.90
   1   1   7    2.40    2.00
   1   1   7    0.10    0.60
   1   1   7    0.40    0.70
   1   1   7    0.10    1.10
  -2  -1  -7  186.98    7.20
  -2  -1  -7  202.48   10.10
  -2  -1  -7  187.18    8.80
  -2  -1  -7  195.48   11.20
  -2  -1  -7  186.98    6.90
  -2  -1  -7  190.98    7.50
   2   1   7  199.48    6.80
   2   1   7  189.38    9.10
   2   1   7  194.08    7.10
   2   1   7  203.78    7.40
  -3  -1  -7   84.89    6.60
  -3  -1  -7  100.89    5.70
  -3  -1  -7   88.19    6.70
  -3  -1  -7   85.39    5.20
  -3  -1  -7   87.39    5.70
  -3  -1  -7   85.09    4.90
   3   1   7   95.49    5.60
   3   1   7   90.29    6.20
   3   1   7   89.19    4.90
   3   1   7   90.59    5.10
  -4  -1  -7    7.20    2.20
  -4  -1  -7    6.10    2.50
  -4  -1  -7    7.40    2.60
   4   1   7    4.70    2.60
   4   1   7   12.70    2.90
   4   1   7   14.50    3.20
   4   1   7    6.90    2.50
  -5  -1  -7   55.99    6.10
  -5  -1  -7   55.59    5.40
  -5  -1  -7   52.89    5.10
   5   1   7   50.29    4.80
   5   1   7   53.59    5.10
   5   1   7   50.09    4.90
  -6  -1  -7   48.40    5.20
  -6  -1  -7   61.79    6.00
  -6  -1  -7   55.79    6.60
   6   1   7   49.30    5.80
   6   1   7   55.89    5.60
   6   1   7   53.19    5.40
  -7  -1  -7   -1.20    3.00
  -7  -1  -7    1.20    2.40
  -7  -1  -7    5.70    2.90
  -7  -1  -7    0.60    2.90
   7   1   7   -1.90    2.80
   7   1   7   10.70    4.20
   7   1   7    6.50    3.10
   7   1   7    6.50    3.50
  -8  -1  -7   -1.00    4.20
  -8  -1  -7   -4.20    3.00
  -8  -1  -7   -0.70    3.40
  -8  -1  -7   -4.10    2.00
   8   1   7   -2.80    3.00
   8   1   7   -4.30    2.60
   8   1   7   -3.90    1.90
   8   1   7    0.70    2.60
  -9  -1  -7   -0.80    2.70
  -9  -1  -7    2.60    4.10
  -9  -1  -7    4.30    4.80
   9   1   7   -2.00    4.00
   9   1   7   -2.80    3.70
   9   1   7    1.30    3.90
 -10  -1  -7   18.30    7.60
 -10  -1  -7   30.30    6.50
 -10  -1  -7   25.50    6.70
  10   1   7   15.10    5.70
   9  -2  -7   -2.90    3.10
  -9   2   7   -5.70    2.80
  -9   2   7    0.00    3.30
   8  -2  -7    8.90    6.80
   8  -2  -7    8.60    3.20
   8  -2  -7   10.10    6.10
  -8   2   7    8.30    3.40
  -8   2   7    7.70    5.10
   7  -2  -7    3.00    5.40
   7  -2  -7    4.70    4.20
   7  -2  -7    0.20    1.90
  -7   2   7   -1.60    2.20
  -7   2   7   -0.30    4.00
   6  -2  -7   28.10    8.60
   6  -2  -7   37.90    4.00
   6  -2  -7   35.90    7.50
  -6   2   7   38.00    6.70
  -6   2   7   34.70    4.00
   5  -2  -7   61.59    7.70
   5  -2  -7   65.89    6.30
   5  -2  -7   63.59    4.20
   5  -2  -7   43.00    9.50
  -5   2   7   69.89    7.30
  -5   2   7   55.29    4.30
  -5   2   7   56.79    4.10
   4  -2  -7   90.09    4.40
   4  -2  -7   96.69   13.20
   4  -2  -7  101.29    7.10
   4  -2  -7   93.39    9.10
  -4   2   7   78.39    5.30
  -4   2   7   90.39    4.50
  -4   2   7   86.09    7.50
   3  -2  -7  241.48    7.50
   3  -2  -7  241.58    7.30
   3  -2  -7  239.38   11.50
   3  -2  -7  239.28    5.90
   3  -2  -7  230.68   12.70
   3  -2  -7  228.78   18.60
  -3   2   7  222.18   10.50
  -3   2   7  233.18    7.20
  -3   2   7  235.78    7.00
  -3   2   7  231.98    9.50
  -3   2   7  238.98   10.90
   2  -2  -7  108.49    3.90
   2  -2  -7  108.39    7.90
   2  -2  -7  117.19   12.10
   2  -2  -7  111.29    4.10
  -2   2   7   98.79    6.60
  -2   2   7  105.39    6.20
  -2   2   7  119.09    5.90
  -2   2   7  113.59    6.80
  -2   2   7  110.19    3.50
  -2   2   7  103.39    3.60
   1  -2  -7   15.10    1.50
   1  -2  -7   15.30    4.30
   1  -2  -7   13.80    1.40
   1  -2  -7   14.20    3.10
  -1   2   7   13.90    2.90
  -1   2   7   13.80    3.40
  -1   2   7   16.30    2.60
  -1   2   7   13.40    1.30
  -1   2   7   13.60    1.20
  -1   2   7   15.20    2.90
   0  -2  -7  115.39    3.50
   0  -2  -7  111.99    3.50
   0  -2  -7  120.29   10.60
   0  -2  -7  115.79    4.20
   0  -2  -7  113.29    4.50
   0   2   7  114.49    6.60
   0   2   7  118.29    4.20
   0   2   7  108.89    6.60
   0   2   7  109.79    6.30
   0   2   7  115.89    3.90
  -1  -2  -7   12.20    2.80
  -1  -2  -7   15.40    1.90
  -1  -2  -7   15.00    3.60
  -1  -2  -7   13.50    1.60
   1   2   7   14.70    1.30
   1   2   7   15.00    2.00
   1   2   7   12.50    1.20
   1   2   7   13.30    1.80
   1   2   7   12.40    3.20
   1   2   7   14.80    2.70
   1   2   7   13.60    3.00
  -2  -2  -7  241.88    8.10
  -2  -2  -7  246.88   11.50
  -2  -2  -7  247.48    9.70
  -2  -2  -7  252.57    8.90
  -2  -2  -7  249.18   14.70
  -2  -2  -7  240.28    8.40
   2   2   7  235.58   10.50
   2   2   7  252.57    8.70
   2   2   7  253.07   10.60
   2   2   7  247.28    8.10
   2   2   7  236.38    7.70
   2   2   7  246.48    9.20
  -3  -2  -7  436.86   23.00
  -3  -2  -7  481.55   14.20
  -3  -2  -7  449.76   18.10
  -3  -2  -7  503.75   15.20
  -3  -2  -7  478.45   16.50
  -3  -2  -7  483.15   14.50
   3   2   7  495.75   14.20
   3   2   7  465.15   16.90
   3   2   7  493.55   14.20
   3   2   7  481.15   14.70
  -4  -2  -7  795.12   22.90
  -4  -2  -7  829.52   25.30
  -4  -2  -7  835.62   26.60
  -4  -2  -7  829.72   35.50
  -4  -2  -7  820.82   22.70
  -4  -2  -7  781.12   27.90
   4   2   7  817.02   22.80
   4   2   7  804.32   22.50
   4   2   7  807.22   23.20
   4   2   7  826.52   25.70
  -5  -2  -7  218.58    9.90
  -5  -2  -7  236.88    9.90
  -5  -2  -7  218.68   12.20
   5   2   7  217.38    9.80
   5   2   7  219.28   11.00
   5   2   7  218.28    9.80
  -6  -2  -7   -0.50    2.50
  -6  -2  -7   -1.80    2.80
  -6  -2  -7    2.80    2.70
   6   2   7   -0.30    2.60
   6   2   7   -1.00    2.50
   6   2   7   -3.10    2.80
  -7  -2  -7   -2.00    2.00
  -7  -2  -7    1.00    2.90
  -7  -2  -7    0.00    2.80
   7   2   7   -1.60    3.00
   7   2   7   -0.60    2.90
   7   2   7    2.80    3.10
  -8  -2  -7   -2.30    4.40
  -8  -2  -7    3.80    2.90
  -8  -2  -7    4.30    3.00
   8   2   7    1.30    2.60
   8   2   7    5.90    3.60
   8   2   7    3.00    3.20
   8   2   7    9.50    4.10
  -9  -2  -7   32.90    5.80
  -9  -2  -7   40.00    7.20
  -9  -2  -7   33.40    6.40
  -9  -2  -7   32.20    5.80
   9   2   7   33.90    6.10
   9   2   7   36.40    5.60
   9   2   7   31.10    5.50
 -10  -2  -7   29.20    6.70
 -10  -2  -7   27.70    6.30
 -10  -2  -7   30.40    7.10
  10   2   7   26.30    6.30
  10   2   7   39.20    7.60
 -11  -2  -7   -1.50    3.80
  11   2   7   -3.40    4.90
   8  -3  -7   -3.40    2.70
   8  -3  -7   -7.10    4.40
   8  -3  -7    2.00    4.80
  -8   3   7    2.30    3.10
  -8   3   7    3.50    3.50
   7  -3  -7    4.20    2.80
   7  -3  -7    3.00    4.30
   7  -3  -7    4.50    6.00
  -7   3   7    0.30    3.10
  -7   3   7    3.70    2.70
   6  -3  -7   14.00    5.90
   6  -3  -7    7.90    2.90
   6  -3  -7    9.20    5.60
  -6   3   7   13.70    5.10
  -6   3   7   11.60    3.10
   5  -3  -7    7.30    2.30
   5  -3  -7   11.50    6.40
   5  -3  -7   12.90    5.30
  -5   3   7   16.70    3.20
  -5   3   7   12.80    4.50
   4  -3  -7   10.20    2.40
   4  -3  -7    8.40    4.90
   4  -3  -7   13.40    2.60
   4  -3  -7   22.10    5.20
  -4   3   7   13.40    3.30
  -4   3   7   19.00    4.70
  -4   3   7   15.20    2.70
  -4   3   7   14.70    2.90
   3  -3  -7   36.20    3.10
   3  -3  -7   37.10    5.80
   3  -3  -7   45.40    4.40
   3  -3  -7   34.70    8.10
  -3   3   7   41.20    5.40
  -3   3   7   39.50    4.00
  -3   3   7   41.20    3.50
  -3   3   7   35.00    5.50
   2  -3  -7   22.00    4.20
   2  -3  -7   19.90    5.50
   2  -3  -7   24.10    2.50
   2  -3  -7   22.00    2.20
   2  -3  -7   23.00    1.80
   2  -3  -7   26.10    3.40
  -2   3   7   29.40    4.40
  -2   3   7   23.40    2.20
  -2   3   7   23.00    3.80
  -2   3   7   22.30    3.60
  -2   3   7   20.30    2.50
   1  -3  -7   53.59    5.20
   1  -3  -7   54.29    3.20
   1  -3  -7   52.79    3.00
   1  -3  -7   50.99    2.50
   1  -3  -7   51.79    7.90
  -1   3   7   55.99    3.30
  -1   3   7   45.10    4.70
  -1   3   7   54.29    2.90
  -1   3   7   48.20    4.20
  -1   3   7   49.00    4.70
   0  -3  -7   32.90    2.60
   0  -3  -7   33.90    2.10
   0  -3  -7   38.80    6.30
   0  -3  -7   33.30    2.50
   0  -3  -7   36.00    3.70
   0   3   7   37.60    4.20
   0   3   7   39.80    5.00
   0   3   7   37.40    2.90
   0   3   7   35.60    4.40
  -1  -3  -7  151.68    5.40
  -1  -3  -7  158.18    6.40
  -1  -3  -7  151.98    7.10
  -1  -3  -7  154.98    5.70
  -1  -3  -7  152.38   12.40
   1   3   7  150.08    6.10
   1   3   7  155.18    8.00
   1   3   7  157.98    5.60
   1   3   7  151.68    8.20
   1   3   7  149.69    5.10
   1   3   7  153.18    7.30
  -2  -3  -7   46.20    3.30
  -2  -3  -7   43.50    4.60
  -2  -3  -7   40.80    3.70
  -2  -3  -7   46.20    6.40
  -2  -3  -7   49.30    3.30
   2   3   7   43.10    3.90
   2   3   7   47.10    3.20
   2   3   7   46.90    4.60
   2   3   7   43.30    3.80
   2   3   7   43.60    3.30
   2   3   7   42.00    4.50
  -3  -3  -7  131.49    5.60
  -3  -3  -7  138.19   10.50
  -3  -3  -7  135.99    6.30
  -3  -3  -7  137.99    8.40
  -3  -3  -7  132.09    6.10
  -3  -3  -7  132.39    6.70
   3   3   7  138.19    6.30
   3   3   7  138.19    6.40
   3   3   7  138.69    6.10
   3   3   7  125.19    7.90
   3   3   7  134.89    6.80
  -4  -3  -7   48.30    4.40
  -4  -3  -7   48.60    5.20
  -4  -3  -7   42.80    4.00
  -4  -3  -7   42.50    3.20
  -4  -3  -7   47.40    4.70
   4   3   7   50.89    4.80
   4   3   7   50.49    5.90
   4   3   7   41.80    4.10
   4   3   7   37.20    3.50
   4   3   7   37.20    3.80
  -5  -3  -7  208.58    9.30
  -5  -3  -7  214.18    9.40
  -5  -3  -7  223.48   12.00
   5   3   7  206.98    7.50
   5   3   7  214.58   12.90
   5   3   7  209.88    9.60
   5   3   7  224.48   10.10
  -6  -3  -7  219.78   10.20
  -6  -3  -7  225.28   12.40
  -6  -3  -7  224.48   10.30
   6   3   7  226.58   10.60
   6   3   7  219.68   10.10
  -7  -3  -7    4.10    3.20
  -7  -3  -7    3.70    3.10
  -7  -3  -7    5.40    2.90
   7   3   7    7.70    3.90
   7   3   7    5.40    3.50
  -8  -3  -7   14.00    4.20
  -8  -3  -7    8.60    3.30
  -8  -3  -7    9.10    4.00
   8   3   7   15.40    4.40
   8   3   7    9.10    4.10
   8   3   7   11.90    3.50
   8   3   7    8.80    3.20
  -9  -3  -7    9.70    4.40
  -9  -3  -7   14.80    5.00
   9   3   7   14.50    4.80
   9   3   7   15.70    5.00
   9   3   7   12.70    5.10
 -10  -3  -7   42.10    7.70
 -10  -3  -7   41.90    6.70
 -10  -3  -7   29.70    7.30
  10   3   7   36.80    6.30
  10   3   7   47.80    7.90
  10   3   7   33.70    6.20
 -11  -3  -7    1.00    5.20
 -11  -3  -7    2.40    3.90
  11   3   7    3.50    4.80
  -8   4   7   12.70    5.20
  -8   4   7   14.70    4.50
   7  -4  -7   -5.20    6.00
   7  -4  -7    1.50    6.70
   7  -4  -7    1.10    2.80
  -7   4   7    1.80    3.50
  -7   4   7   -2.10    2.80
   6  -4  -7    4.10    4.40
   6  -4  -7    6.70    4.90
   6  -4  -7    7.20    2.90
  -6   4   7    4.40    3.00
  -6   4   7    9.60    5.00
   5  -4  -7    1.10    4.40
   5  -4  -7    5.00    4.70
   5  -4  -7   -1.10    1.90
  -5   4   7    2.60    2.60
  -5   4   7   -1.80    3.10
  -5   4   7    1.20    3.00
   4  -4  -7    2.30    2.00
   4  -4  -7   -0.20    3.20
   4  -4  -7    1.60    3.70
  -4   4   7    1.00    2.10
  -4   4   7   -1.00    1.80
  -4   4   7   -0.90    3.30
   3  -4  -7   30.20    3.20
   3  -4  -7   26.70    7.20
   3  -4  -7   32.40    5.30
  -3   4   7   30.90    3.40
  -3   4   7   42.30    5.50
  -3   4   7   40.30    4.20
  -3   4   7   40.40    5.90
   2  -4  -7   22.00    4.30
   2  -4  -7   18.20    2.50
   2  -4  -7   23.70    2.80
   2  -4  -7   17.20    5.50
  -2   4   7   17.00    3.20
  -2   4   7   19.00    4.10
  -2   4   7   19.80    3.00
  -2   4   7   19.50    4.00
   1  -4  -7  316.37   13.70
   1  -4  -7  303.77   21.60
   1  -4  -7  302.67   10.00
   1  -4  -7  302.37    9.00
   1  -4  -7  291.07    9.50
  -1   4   7  294.07   11.60
  -1   4   7  277.27    8.40
  -1   4   7  310.77   12.50
  -1   4   7  284.17   12.10
  -1   4   7  286.77    9.20
   0  -4  -7    7.80    2.30
   0  -4  -7    9.70    1.70
   0  -4  -7    1.90    2.40
   0  -4  -7    7.80    1.80
   0  -4  -7    6.40    1.70
   0  -4  -7    5.80    3.90
   0   4   7    5.00    2.50
   0   4   7    7.10    2.70
   0   4   7    7.20    2.10
   0   4   7    4.50    1.30
   0   4   7    9.80    2.80
   0   4   7    9.10    1.80
  -1  -4  -7   21.10    2.70
  -1  -4  -7   19.10    5.00
  -1  -4  -7   22.80    2.90
  -1  -4  -7   22.40    2.50
  -1  -4  -7   24.30    2.40
   1   4   7   23.50    3.70
   1   4   7   19.80    3.60
   1   4   7   20.60    2.90
   1   4   7   19.90    3.50
   1   4   7   25.20    2.70
  -2  -4  -7   16.00    2.70
  -2  -4  -7   18.00    2.50
  -2  -4  -7   13.20    4.10
  -2  -4  -7   12.10    2.30
  -2  -4  -7   12.30    1.50
   2   4   7   14.40    2.70
   2   4   7   18.70    3.50
   2   4   7   20.40    3.20
   2   4   7   16.00    2.40
   2   4   7   15.50    2.40
  -3  -4  -7   -0.20    1.70
  -3  -4  -7   -0.50    1.40
  -3  -4  -7    0.40    1.60
  -3  -4  -7   -3.10    2.40
  -3  -4  -7    1.60    1.90
   3   4   7    1.70    2.30
   3   4   7   -3.80    1.80
   3   4   7   -1.00    1.60
   3   4   7    2.90    2.10
   3   4   7   -0.20    1.40
  -4  -4  -7   -0.70    1.90
  -4  -4  -7    0.00    2.40
  -4  -4  -7   -0.30    2.00
  -4  -4  -7    1.90    1.90
   4   4   7    1.60    1.60
   4   4   7   -2.90    2.10
   4   4   7   -1.20    1.90
   4   4   7    2.30    2.10
  -5  -4  -7   31.10    6.40
  -5  -4  -7   32.70    4.20
  -5  -4  -7   28.70    4.10
  -5  -4  -7   32.70    4.90
   5   4   7   23.90    3.00
   5   4   7   25.40    4.30
   5   4   7   28.20    4.60
  -6  -4  -7   28.10    5.30
  -6  -4  -7   29.60    4.20
  -6  -4  -7   31.00    4.50
   6   4   7   33.10    5.00
   6   4   7   27.30    3.00
   6   4   7   31.90    4.80
  -7  -4  -7   50.49    6.00
  -7  -4  -7   61.39    6.10
  -7  -4  -7   50.59    6.10
   7   4   7   55.49    6.60
   7   4   7   51.79    6.60
  -8  -4  -7    0.40    1.90
  -8  -4  -7   -0.30    3.00
  -8  -4  -7   -0.70    2.30
   8   4   7   -1.90    3.50
   8   4   7    0.00    3.10
  -9  -4  -7    9.60    4.50
  -9  -4  -7   12.30    5.60
  -9  -4  -7   10.20    4.40
   9   4   7   14.80    4.30
   9   4   7   10.60    4.00
 -10  -4  -7  -11.20    4.00
 -10  -4  -7   -4.70    2.40
 -10  -4  -7   -2.20    3.70
  10   4   7    2.00    3.30
  10   4   7    2.90    3.00
 -11  -4  -7    0.80    3.60
 -11  -4  -7   11.90    6.00
 -11  -4  -7   14.00    6.30
  11   4   7    7.80    4.50
  11   4   7   -4.80    4.10
   7  -5  -7   -0.30    5.80
   7  -5  -7   -1.80    3.20
  -7   5   7    1.40    3.40
  -7   5   7    4.50    5.70
   6  -5  -7   -4.70    3.90
   6  -5  -7    0.40    3.10
   6  -5  -7    0.00    4.40
  -6   5   7   -2.50    4.20
  -6   5   7   -1.50    2.90
   5  -5  -7    1.40    4.00
   5  -5  -7   -4.70    2.00
   5  -5  -7   -8.30    4.20
  -5   5   7    3.10    3.10
  -5   5   7    0.90    2.40
   4  -5  -7    2.10    2.10
   4  -5  -7   -7.30    3.40
   4  -5  -7   -1.60    4.70
  -4   5   7   -0.50    3.30
  -4   5   7    1.20    2.60
  -4   5   7    6.10    3.30
   3  -5  -7    4.70    4.30
   3  -5  -7    1.40    2.60
   3  -5  -7    9.10    2.70
  -3   5   7    3.70    3.60
  -3   5   7    6.60    3.40
  -3   5   7    8.90    3.10
   2  -5  -7   52.69   10.10
   2  -5  -7   62.79    7.20
   2  -5  -7   55.39    4.50
  -2   5   7   53.69    4.90
  -2   5   7   57.89    4.50
  -2   5   7   54.19    5.80
  -2   5   7   43.70    5.70
   1  -5  -7   10.40    3.20
   1  -5  -7   14.30    2.60
   1  -5  -7   10.40    5.20
   1  -5  -7   10.30    1.70
  -1   5   7    9.20    2.80
  -1   5   7    8.10    3.10
  -1   5   7   10.80    3.50
  -1   5   7   11.60    3.20
   0  -5  -7   58.79    3.80
   0  -5  -7   57.99    4.10
   0  -5  -7   53.99    9.10
   0  -5  -7   63.29    5.60
   0   5   7   66.09    5.40
   0   5   7   71.19    6.00
   0   5   7   62.19    4.00
   0   5   7   62.29    4.60
   0   5   7   63.29    5.40
  -1  -5  -7   40.30    7.40
  -1  -5  -7   34.80    4.70
  -1  -5  -7   39.90    3.40
  -1  -5  -7   38.00    3.90
  -1  -5  -7   40.80    3.50
  -1  -5  -7   36.90    3.70
   1   5   7   31.90    4.50
   1   5   7   36.50    4.20
   1   5   7   42.30    3.40
   1   5   7   43.10    5.30
   1   5   7   42.60    3.70
   1   5   7   29.60    4.40
  -2  -5  -7   10.70    2.50
  -2  -5  -7   10.70    4.30
  -2  -5  -7   10.70    2.40
  -2  -5  -7   14.40    2.50
  -2  -5  -7   12.20    1.20
   2   5   7   14.00    2.50
   2   5   7   12.80    3.10
   2   5   7   10.60    2.40
   2   5   7   17.30    3.20
   2   5   7   13.60    3.00
  -3  -5  -7   27.50    3.40
  -3  -5  -7   34.80    3.60
  -3  -5  -7   30.70    6.30
  -3  -5  -7   36.50    4.30
  -3  -5  -7   25.40    4.30
   3   5   7   32.10    3.60
   3   5   7   32.40    4.30
   3   5   7   30.40    4.10
   3   5   7   28.80    3.80
  -4  -5  -7   14.30    2.90
  -4  -5  -7   17.20    3.80
  -4  -5  -7   15.40    3.00
  -4  -5  -7   10.30    5.20
   4   5   7   13.20    3.40
   4   5   7   19.10    3.20
   4   5   7   11.30    3.30
  -5  -5  -7    9.00    2.90
  -5  -5  -7    9.80    2.60
  -5  -5  -7    8.10    3.70
   5   5   7    5.80    3.30
   5   5   7   10.50    3.30
  -6  -5  -7   53.29    5.40
  -6  -5  -7   48.80    4.80
  -6  -5  -7   53.09    9.00
  -6  -5  -7   58.19    6.60
   6   5   7   61.29    6.40
   6   5   7   50.79    5.60
   6   5   7   45.50    3.90
  -7  -5  -7   45.00    5.90
  -7  -5  -7   45.20    5.80
  -7  -5  -7   55.29    6.20
   7   5   7   47.60    6.20
   7   5   7   46.90    3.80
   7   5   7   42.50    6.00
  -8  -5  -7    1.90    2.90
  -8  -5  -7    0.80    2.40
  -8  -5  -7    0.10    3.30
   8   5   7   10.20    3.80
   8   5   7   10.80    4.30
  -9  -5  -7    7.10    4.50
  -9  -5  -7    8.10    4.30
  -9  -5  -7    4.20    3.70
   9   5   7    9.50    4.70
   9   5   7    3.70    4.00
 -10  -5  -7   10.80    4.90
 -10  -5  -7   14.40    4.30
 -10  -5  -7    1.70    4.10
  10   5   7   20.90    5.60
  10   5   7    5.70    4.00
 -11  -5  -7    5.80    5.50
 -11  -5  -7  -10.00    4.00
 -11  -5  -7   -2.30    3.30
  11   5   7    0.70    3.50
  11   5   7   -2.50    4.90
   6  -6  -7   -3.30    2.80
   6  -6  -7   -5.50    6.50
  -6   6   7   -0.60    3.60
  -6   6   7    4.30    3.60
   5  -6  -7    9.70    3.50
   5  -6  -7    4.20    5.60
   5  -6  -7   -1.20    5.70
  -5   6   7    5.00    4.80
  -5   6   7    8.70    3.60
   4  -6  -7   -6.10    4.10
   4  -6  -7    2.00    4.30
   4  -6  -7   -1.10    2.40
  -4   6   7   -3.10    3.50
  -4   6   7    3.00    3.20
   3  -6  -7   23.70    3.90
   3  -6  -7   16.60    5.60
   3  -6  -7   21.70    8.10
  -3   6   7   28.80    4.60
  -3   6   7   23.50    5.00
  -3   6   7   22.30    5.30
   2  -6  -7   24.50    7.60
   2  -6  -7   26.90    5.40
   2  -6  -7   31.20    4.00
  -2   6   7   36.80    5.70
  -2   6   7   36.80    5.00
  -2   6   7   41.80    6.20
   1  -6  -7   11.70    2.80
   1  -6  -7    6.70    3.40
   1  -6  -7    4.50    5.10
  -1   6   7    5.40    2.60
  -1   6   7   12.80    3.70
  -1   6   7    8.90    2.80
  -1   6   7   12.90    3.40
   0  -6  -7    3.30    2.20
   0  -6  -7   -0.20    2.30
   0  -6  -7    4.90    4.80
   0   6   7    1.00    2.60
   0   6   7    2.50    3.00
   0   6   7    2.50    2.70
  -1  -6  -7    0.20    1.80
  -1  -6  -7    2.40    3.10
  -1  -6  -7    0.70    1.80
  -1  -6  -7    0.40    2.00
   1   6   7    0.50    2.10
   1   6   7   -0.30    2.40
   1   6   7   -1.60    1.60
   1   6   7    1.60    1.90
  -2  -6  -7   25.30    3.40
  -2  -6  -7   23.00    6.20
  -2  -6  -7   27.90    3.60
   2   6   7   23.50    4.00
   2   6   7   23.70    3.50
   2   6   7   26.90    4.20
  -3  -6  -7   10.20    4.80
  -3  -6  -7    7.80    2.50
  -3  -6  -7   13.70    2.80
   3   6   7    9.60    3.50
   3   6   7    9.70    2.90
   3   6   7   10.80    3.20
  -4  -6  -7   76.89   12.60
  -4  -6  -7   45.10    4.40
  -4  -6  -7   50.39    4.80
  -4  -6  -7   39.80    5.50
   4   6   7   52.49    5.60
   4   6   7   47.70    4.90
  -6  -6  -7    3.20    2.10
  -6  -6  -7   -0.80    6.40
  -6  -6  -7    2.70    3.40
  -6  -6  -7   -1.10    2.60
   6   6   7   -0.60    3.10
   6   6   7    1.60    2.80
  -7  -6  -7    5.10    2.80
  -7  -6  -7    5.50    3.40
  -7  -6  -7    2.10    3.20
   7   6   7    4.70    3.20
   7   6   7    4.20    3.70
  -8  -6  -7   31.30    5.50
  -8  -6  -7   21.20    4.30
  -8  -6  -7   22.90    5.10
   8   6   7   21.60    5.30
   8   6   7   10.40    4.40
  -9  -6  -7   -1.80    3.10
  -9  -6  -7    1.50    2.70
  -9  -6  -7    1.70    2.80
   9   6   7    1.20    3.90
   9   6   7    8.20    4.70
 -10  -6  -7   -2.10    4.00
 -10  -6  -7    2.60    3.00
 -10  -6  -7    4.60    4.30
  10   6   7    8.00    4.50
  10   6   7    3.70    4.60
 -11  -6  -7   -8.20    4.80
 -11  -6  -7   -4.40    4.70
 -11  -6  -7    0.00    3.70
  11   6   7    5.00    3.80
  11   6   7    5.00    5.30
   5  -7  -7    1.20    4.00
  -5   7   7   -5.60    3.10
  -5   7   7    1.00    3.40
   4  -7  -7    4.20    5.40
   4  -7  -7   -4.00    5.20
   4  -7  -7    2.70    3.10
  -4   7   7    9.90    5.10
  -4   7   7   -0.50    3.00
   3  -7  -7   11.20    7.40
   3  -7  -7    0.40    5.00
   3  -7  -7    7.20    3.20
  -3   7   7   17.30    5.20
  -3   7   7    5.90    3.40
   2  -7  -7   -5.20    3.40
   2  -7  -7    2.70    2.80
   2  -7  -7    0.60    5.40
  -2   7   7    3.90    3.80
  -2   7   7    4.10    3.30
   1  -7  -7  130.59   10.40
   1  -7  -7  154.58   18.60
   1  -7  -7  130.99    7.70
  -1   7   7  128.29    8.50
  -1   7   7  151.58    9.90
  -1   7   7  158.38    9.70
   0  -7  -7   -0.20    4.70
   0  -7  -7    2.00    2.30
   0  -7  -7   -3.60    2.40
   0   7   7   -0.40    3.00
   0   7   7    1.50    2.40
   0   7   7    1.70    2.80
   0   7   7   -2.20    2.40
  -1  -7  -7    0.60    2.10
  -1  -7  -7    4.50    2.30
  -1  -7  -7   -0.60    4.10
   1   7   7    3.20    2.80
   1   7   7    0.10    2.40
  -2  -7  -7    3.90    5.30
  -2  -7  -7    4.30    2.30
  -2  -7  -7   11.40    2.80
   2   7   7    6.30    3.10
   2   7   7   12.60    3.30
   2   7   7    7.00    2.90
  -3  -7  -7    1.60    2.10
  -3  -7  -7    2.80    2.30
  -3  -7  -7    0.70    3.40
   3   7   7    4.70    2.90
   3   7   7    2.90    2.20
   3   7   7    0.20    2.30
  -6  -7  -7  220.98   10.70
  -6  -7  -7  251.27   21.90
  -6  -7  -7  221.68   12.50
  -6  -7  -7  237.68   11.10
   6   7   7  224.38   11.50
   6   7   7  233.18   12.10
  -7  -7  -7   21.10    7.40
  -7  -7  -7   10.90    3.80
  -7  -7  -7    3.30    2.50
  -7  -7  -7   12.30    4.00
   7   7   7    5.20    3.00
   7   7   7   14.90    4.40
  -8  -7  -7    2.00    3.30
  -8  -7  -7   -0.50    3.20
  -8  -7  -7    6.10    3.00
   8   7   7    3.90    3.00
   8   7   7    2.10    3.90
  -9  -7  -7   -0.40    2.90
  -9  -7  -7   -2.10    2.20
  -9  -7  -7   -0.20    2.60
   9   7   7    3.20    3.40
   9   7   7    3.90    4.20
 -10  -7  -7   -4.80    3.80
 -10  -7  -7    7.90    4.10
 -10  -7  -7   -2.60    2.60
  10   7   7    0.40    3.30
  10   7   7    3.40    3.60
 -11  -7  -7  -12.00    4.00
 -11  -7  -7  -12.30    4.00
 -11  -7  -7   -1.00    3.50
  11   7   7   -0.30    4.50
  11   7   7   -3.60    4.80
   4  -8  -7   -2.40    6.50
  -4   8   7   15.40    5.50
  -4   8   7   15.40    5.40
   3  -8  -7    4.50    3.50
   3  -8  -7    0.50    5.50
   3  -8  -7    5.90    6.30
  -3   8   7    6.40    4.20
  -3   8   7   15.50    5.30
   2  -8  -7   -0.70    4.00
   2  -8  -7    0.20    2.80
  -2   8   7    0.50    3.00
  -2   8   7   -4.80    3.10
   1  -8  -7   19.80    4.30
   1  -8  -7   12.30    6.60
  -1   8   7   10.90    3.90
  -1   8   7   15.20    4.50
   0  -8  -7   29.30    4.70
   0  -8  -7   15.70    7.80
   0   8   7   24.80    4.80
   0   8   7   21.80    4.70
   0   8   7   20.00    4.60
   0   8   7   20.90    4.30
  -1  -8  -7   95.89    6.90
  -1  -8  -7  104.49   15.90
   1   8   7  107.59    7.60
   1   8   7   92.99    7.60
  -2  -8  -7   -1.50    2.30
  -2  -8  -7   -3.10    3.00
   2   8   7   -0.70    2.80
   2   8   7    2.40    2.60
  -3  -8  -7   -1.30    2.30
  -3  -8  -7   -1.80    2.10
  -3  -8  -7   -2.10    3.40
   3   8   7    4.00    3.40
   3   8   7    2.30    2.20
  -4  -8  -7    4.50    2.80
  -4  -8  -7    5.50    7.50
  -4  -8  -7    7.20    3.20
   4   8   7    4.90    2.80
   4   8   7    6.40    3.60
   4   8   7   11.10    3.60
  -5  -8  -7   14.60    3.90
  -5  -8  -7   22.30   14.00
  -5  -8  -7    8.70    3.30
  -5  -8  -7   19.50    4.20
   5   8   7   18.90    4.30
   5   8   7   19.10    4.90
  -6  -8  -7   35.10    5.50
  -6  -8  -7   41.90    6.20
  -6  -8  -7   42.50    5.80
  -6  -8  -7   51.89   16.10
   6   8   7   46.60    6.60
   6   8   7   51.39    6.60
  -7  -8  -7   30.90    5.30
  -7  -8  -7   35.90    5.70
  -7  -8  -7   29.40    5.10
  -7  -8  -7   40.70   11.30
   7   8   7   35.70    6.10
   7   8   7   39.50    6.10
  -8  -8  -7   -3.10    3.20
  -8  -8  -7   -2.50    2.50
  -8  -8  -7    1.70    3.40
   8   8   7    1.50    3.10
   8   8   7   -3.20    3.60
  -9  -8  -7    0.80    2.90
  -9  -8  -7   -3.10    2.20
  -9  -8  -7   -0.50    3.70
   9   8   7    4.10    4.40
   9   8   7    1.00    4.50
 -10  -8  -7    6.40    3.70
 -10  -8  -7    1.10    3.30
 -10  -8  -7    3.30    3.40
  10   8   7    2.30    4.50
  10   8   7   -0.30    5.00
 -11  -8  -7    3.40    5.00
 -11  -8  -7   -1.10    3.40
  11   8   7    3.30    5.20
  -3   9   7    4.90    4.40
   2  -9  -7   15.10    4.70
   2  -9  -7   12.50    8.80
  -2   9   7   18.60    5.40
  -2   9   7   19.90    5.70
   1  -9  -7   -2.70    5.70
   1  -9  -7   -1.70    2.10
  -1   9   7    1.10    3.20
  -1   9   7   -2.60    3.00
   0  -9  -7    9.80    7.70
   0  -9  -7   12.00    3.90
   0   9   7   13.30    4.30
   0   9   7    9.50    3.80
  -1  -9  -7   -1.50    5.80
  -1  -9  -7    1.40    2.70
   1   9   7    2.40    2.80
  -2  -9  -7    0.60    5.90
  -2  -9  -7    5.60    3.20
   2   9   7    0.30    3.20
   2   9   7    2.00    2.70
  -3  -9  -7  107.59    7.90
  -3  -9  -7  125.99   16.80
   3   9   7  114.69    7.20
   3   9   7  118.39    9.10
  -4  -9  -7   19.10    3.80
   4   9   7   14.20    4.70
  -6  -9  -7    4.10    3.60
  -6  -9  -7    4.20    3.50
  -6  -9  -7    0.60    2.90
  -6  -9  -7  -19.10   13.00
   6   9   7    6.20    4.00
   6   9   7    2.40    2.90
  -7  -9  -7   37.20   11.60
  -7  -9  -7   31.10    5.60
  -7  -9  -7   27.20    4.90
  -7  -9  -7   26.90    4.90
   7   9   7   33.00    6.40
   7   9   7   26.40    5.70
  -8  -9  -7    9.30    4.10
  -8  -9  -7  -16.30    9.00
  -8  -9  -7    3.80    3.20
  -8  -9  -7    4.30    3.60
   8   9   7    2.10    4.00
   8   9   7   12.60    5.00
  -9  -9  -7    7.20    4.60
  -9  -9  -7    9.40    4.60
  -9  -9  -7    9.70    4.00
   9   9   7    8.20    4.40
   9   9   7   17.30    5.60
 -10  -9  -7   -4.50    3.70
 -10  -9  -7    4.90    5.00
  10   9   7   -5.10    4.40
  10   9   7    3.60    5.00
 -11  -9  -7   29.00    7.10
  -1  10   7    7.70    4.20
  -1  10   7    5.10    5.60
   0 -10  -7    0.30    3.40
   0 -10  -7   -4.10    6.60
   0  10   7    3.10    3.80
   0  10   7    2.20    4.10
  -1 -10  -7   -0.70    3.10
  -1 -10  -7   -6.70    3.20
   1  10   7   -2.90    2.80
  -2 -10  -7    9.30    4.10
  -2 -10  -7    5.20    6.20
   2  10   7   13.90    5.00
  -3 -10  -7   -0.50    3.10
  -3 -10  -7    6.30    9.60
   3  10   7   -1.50    3.50
  -4 -10  -7   11.80    4.20
  -4 -10  -7   17.90   17.90
   4  10   7    9.40    4.60
  -5 -10  -7  -15.20   19.50
  -5 -10  -7    1.70    2.50
   5  10   7    0.70    3.80
  -6 -10  -7    1.70    3.20
  -6 -10  -7    3.90    3.40
  -6 -10  -7   32.40   16.00
   6  10   7    1.90    4.20
  -7 -10  -7    1.60    3.10
  -7 -10  -7    7.90   11.10
  -7 -10  -7   -4.00    1.80
   7  10   7    6.60    4.60
  -8 -10  -7   30.80    9.80
  -8 -10  -7    1.50    4.10
  -8 -10  -7   -2.90    2.60
  -8 -10  -7   -1.10    3.60
   8  10   7    2.20    4.80
  -9 -10  -7   -7.20    3.70
  -9 -10  -7   -2.30    4.40
   9  10   7   -5.60    4.60
 -10 -10  -7    3.00    5.20
  -2 -11  -7    0.80    9.70
  -2 -11  -7   -1.70    3.90
   2  11   7    6.50    5.10
  -3 -11  -7    5.10    4.10
   3  11   7   16.60    5.80
  -4 -11  -7    3.80    3.30
  -4 -11  -7  -25.20   19.10
   4  11   7   16.80    5.80
  -5 -11  -7  -29.70   21.20
  -5 -11  -7    2.00    2.90
   5  11   7   15.50    5.70
  -6 -11  -7   24.50    5.10
  -6 -11  -7   27.20    5.90
  -6 -11  -7   22.50   17.70
   6  11   7   25.70    6.90
  -7 -11  -7    8.00    4.00
  -7 -11  -7    3.80    4.20
  -7 -11  -7  -16.30   12.70
   7  11   7    6.80    4.40
  -8 -11  -7   17.70   12.20
  -8 -11  -7   -1.80    3.90
   8  11   7    4.20    4.20
   8  10  -8   -4.70    4.80
  -8 -10   8   -0.90    5.60
   7  10  -8   -9.70    4.50
  -7 -10   8   -1.70    4.00
  -7 -10   8   -4.00    4.90
   6  10  -8    7.90    5.20
   6  10  -8    7.80    7.00
   6  10  -8    0.00    4.20
  -6 -10   8   -1.60    4.60
  -6 -10   8    4.50    3.90
   5  10  -8    5.20    4.70
   5  10  -8    3.70    5.30
  -5 -10   8   -2.50    2.80
  -5 -10   8    5.40    4.10
   4  10  -8    9.90    5.90
  -4 -10   8    4.80    5.10
  -4 -10   8    8.00    4.90
   3  10  -8   -3.00    4.80
   2  10  -8    8.90    5.80
   9   9  -8    3.80    4.00
  -9  -9   8   -2.90    3.40
   8   9  -8    1.80    4.00
   8   9  -8    3.70    4.80
  -8  -9   8    3.20    5.50
  -8  -9   8    8.00    4.00
   7   9  -8    4.00    4.70
   7   9  -8   -1.20    4.20
   7   9  -8    0.90    5.60
  -7  -9   8    3.60    4.80
  -7  -9   8   -2.50    3.20
   6   9  -8    7.10    4.40
   6   9  -8   16.10    7.20
   6   9  -8    8.40    4.20
  -6  -9   8    6.30    5.30
  -6  -9   8   10.50    4.10
   5   9  -8    0.20    3.10
   5   9  -8    2.60    3.70
   5   9  -8    1.70    3.80
  -5  -9   8    6.30    4.40
  -5  -9   8    2.10    3.40
   4   9  -8    2.60    3.70
   4   9  -8    3.30    3.80
   4   9  -8    0.50    3.40
  -4  -9   8   -1.10    2.90
  -4  -9   8   -0.80    4.30
   3   9  -8    2.10    4.10
   3   9  -8   -0.80    4.80
   3   9  -8    4.30    4.10
  -3  -9   8    0.60    3.80
   2   9  -8    0.00    4.90
   2   9  -8   -0.50    4.30
   2   9  -8    4.40    3.60
  -2  -9   8    2.40    3.90
   1   9  -8    2.70    4.70
   1   9  -8    7.30    4.90
   1   9  -8   -2.50    3.90
  -1  -9   8    6.10    3.50
   0   9  -8    6.10    4.20
  10   8  -8    3.10    4.10
 -10  -8   8    0.10    3.40
   9   8  -8   -1.70    3.10
   9   8  -8   -0.10    5.90
  -9  -8   8    2.10    3.10
   8   8  -8   -3.50    3.30
   8   8  -8   -2.60    3.10
   8   8  -8   -2.20    3.40
  -8  -8   8   -1.20    4.80
  -8  -8   8    0.80    2.90
   7   8  -8    1.10    3.50
   7   8  -8   -3.00    3.40
  -7  -8   8   -0.60    3.20
  -7  -8   8    0.60    2.90
   6   8  -8   17.70    6.50
   6   8  -8    5.80    3.90
   6   8  -8    7.50    3.70
  -6  -8   8    3.50    2.80
  -6  -8   8    1.60    4.50
   5   8  -8    6.00    4.30
   5   8  -8    4.20    3.40
   5   8  -8    3.50    4.50
  -5  -8   8   -1.60    3.90
  -5  -8   8    3.40    3.10
   4   8  -8    0.20    4.20
   4   8  -8   -1.70    3.80
   4   8  -8    3.90    3.60
  -4  -8   8    1.20    2.70
  -4  -8   8    5.60    4.30
   3   8  -8    1.40    3.30
   3   8  -8   -3.10    3.40
   3   8  -8   -0.80    2.90
  -3  -8   8    5.10    3.00
   2   8  -8    0.90    3.10
   2   8  -8   -1.50    3.00
   2   8  -8    3.90    4.00
  -2  -8   8    0.60    3.00
   1   8  -8    3.10    4.20
   1   8  -8    5.10    4.20
  -1  -8   8    1.40    3.10
   0   8  -8    2.30    5.10
   0   8  -8    5.70    4.70
   0  -8   8    2.40    3.40
  -1   8  -8   -3.10    4.20
  -1   8  -8   -0.10    3.30
  -1   8  -8   -3.80    3.00
   1  -8   8    1.90    3.20
  -2   8  -8    1.40    4.60
  10   7  -8   -1.20    3.40
 -10  -7   8   -0.50    2.70
   9   7  -8    4.20    4.60
   9   7  -8    1.60    3.30
  -9  -7   8   -0.80    2.50
   8   7  -8   23.60    5.50
   8   7  -8   20.70    4.40
   8   7  -8    8.10    5.00
  -8  -7   8   15.10    5.20
  -8  -7   8   19.50    3.70
   7   7  -8   14.40    4.70
   7   7  -8   12.20    5.20
   7   7  -8   16.90    4.10
  -7  -7   8   12.80    3.30
  -7  -7   8   12.80    5.60
   6   7  -8    3.40    3.90
   6   7  -8    2.20    2.80
   6   7  -8    3.70    3.90
  -6  -7   8    1.40    2.60
  -6  -7   8    5.20    3.90
   5   7  -8    0.60    3.10
   5   7  -8   -2.60    2.20
   5   7  -8   -4.10    2.90
  -5  -7   8    1.80    4.00
  -5  -7   8   -1.20    2.40
   4   7  -8    3.10    4.20
   4   7  -8   -1.70    2.40
   4   7  -8   -0.20    2.50
  -4  -7   8    3.60    2.70
  -4  -7   8   -0.80    3.00
   3   7  -8   -3.20    2.50
   3   7  -8    3.10    4.30
   3   7  -8    1.40    3.50
  -3  -7   8   -1.40    2.20
   2   7  -8    9.30    4.40
   2   7  -8    1.10    3.20
  -2  -7   8   14.80    3.70
   1   7  -8    1.90    2.70
   1   7  -8    2.10    2.90
   1   7  -8    4.50    3.10
  -1  -7   8    2.60    3.00
   0   7  -8   -1.80    3.40
   0   7  -8   -6.40    2.20
   0   7  -8    4.90    4.10
   0  -7   8   -3.60    2.60
  -1   7  -8    3.40    4.50
  -1   7  -8   14.30    4.80
  -1   7  -8    4.70    3.80
   1  -7   8   14.10    4.00
  -2   7  -8   -4.70    3.40
  -2   7  -8    2.40    3.80
  -2   7  -8    9.30    4.40
   2  -7   8    5.50    4.20
  -3   7  -8   -3.00    4.70
  -3   7  -8   -5.40    4.20
  10   6  -8    3.40    6.30
  10   6  -8    3.60    3.30
 -10  -6   8   -4.10    2.20
   9   6  -8    0.40    5.40
   9   6  -8   17.90    6.00
   9   6  -8   -2.70    2.30
  -9  -6   8   -3.30    2.10
   8   6  -8   14.70    5.60
   8   6  -8   21.80    4.10
  -8  -6   8   24.10    5.00
  -8  -6   8   15.50    5.30
  -8  -6   8   12.50    3.00
   7   6  -8   16.20    5.40
   7   6  -8    9.50    4.20
   7   6  -8   15.30    3.70
  -7  -6   8   13.70    4.10
  -7  -6   8   16.80    5.40
  -7  -6   8   12.70    3.00
   6   6  -8   -1.50    2.90
   6   6  -8   -4.00    2.40
  -6  -6   8    0.50    2.90
  -6  -6   8    1.00    2.90
  -6  -6   8    4.80    2.50
   5   6  -8    8.20    5.00
   5   6  -8   10.10    4.30
   5   6  -8   11.10    3.40
  -5  -6   8    3.80    3.10
  -5  -6   8   11.20    2.80
   4   6  -8   -0.70    2.50
   4   6  -8    1.80    3.30
   4   6  -8    6.00    4.20
  -4  -6   8    2.70    3.90
  -4  -6   8    5.70    2.60
   3   6  -8   14.40    5.20
   3   6  -8    7.50    3.20
   3   6  -8    6.90    4.30
  -3  -6   8   20.10    3.50
   2   6  -8    0.00    2.40
   2   6  -8    0.00    1.80
   2   6  -8   -0.50    2.50
  -2  -6   8   -0.90    2.00
  -2  -6   8   -0.10    2.20
   1   6  -8   -0.20    2.50
   1   6  -8   -2.30    1.80
   1   6  -8   -1.80    2.50
  -1  -6   8   -2.30    2.20
  -1  -6   8   -2.00    2.40
   0   6  -8   96.89    8.20
   0   6  -8   79.29    7.50
   0   6  -8  100.19   10.50
   0  -6   8   90.59    7.40
   0  -6   8   99.49    7.20
  -1   6  -8    1.80    2.50
  -1   6  -8    2.30    3.20
  -1   6  -8    4.20    3.20
   1  -6   8   -4.20    2.40
   1  -6   8    5.80    3.30
  -2   6  -8    5.90    4.40
  -2   6  -8    1.70    3.90
  -2   6  -8    2.30    4.10
   2  -6   8   -3.40    2.90
   2  -6   8    5.70    3.00
  -3   6  -8    1.40    4.20
  -3   6  -8    5.70    4.00
  -3   6  -8    1.60    2.90
   3  -6   8    8.70    4.40
  -4   6  -8    0.60    4.60
  -4   6  -8   12.30    5.20
  -4   6  -8   11.10    6.00
  -5   6  -8   -1.40    4.90
  11   5  -8    9.00    3.60
  10   5  -8    3.00    5.90
  10   5  -8    5.10    3.20
  10   5  -8    6.60    4.50
 -10  -5   8    0.40    4.50
   9   5  -8    8.30    4.20
   9   5  -8    1.80    2.60
   9   5  -8   -2.80    4.10
  -9  -5   8    7.80    4.60
  -9  -5   8    3.10    2.40
   8   5  -8    2.80    2.40
   8   5  -8    0.60    3.30
  -8  -5   8   -1.30    3.70
  -8  -5   8   -1.50    1.90
   7   5  -8    9.10    2.70
   7   5  -8    3.40    2.90
   7   5  -8    7.30    5.10
  -7  -5   8    8.20    4.10
  -7  -5   8    5.70    2.20
  -7  -5   8    3.90    3.60
   6   5  -8    0.00    2.10
   6   5  -8    3.70    3.20
   6   5  -8    2.00    2.10
  -6  -5   8    1.80    2.90
  -6  -5   8    0.80    3.20
  -6  -5   8    2.00    1.90
   5   5  -8    3.90    4.30
   5   5  -8    5.80    2.50
   5   5  -8    1.40    2.10
  -5  -5   8   -3.20    2.20
  -5  -5   8    0.80    1.90
  -5  -5   8    4.70    3.30
   4   5  -8  150.38    7.80
   4   5  -8  152.98   12.50
   4   5  -8  158.98   11.30
   4   5  -8  164.08    7.60
  -4  -5   8  166.38    6.90
  -4  -5   8  155.88    9.80
  -4  -5   8  156.08    9.70
   3   5  -8   13.80    4.60
   3   5  -8   18.60    3.20
   3   5  -8   18.00    3.30
  -3  -5   8   20.70    3.20
  -3  -5   8   10.40    3.90
   2   5  -8   -2.90    1.90
   2   5  -8    4.40    3.00
   2   5  -8    1.50    2.20
  -2  -5   8   -0.10    2.80
  -2  -5   8   -0.80    2.00
   1   5  -8    0.20    2.30
   1   5  -8   -5.80    2.00
   1   5  -8   -5.00    2.80
  -1  -5   8   -0.60    1.80
  -1  -5   8    0.40    2.30
   0   5  -8    8.70    3.30
   0   5  -8    4.60    3.10
   0   5  -8    7.30    3.10
   0  -5   8   11.50    3.50
   0  -5   8    8.20    3.10
  -1   5  -8    5.00    3.10
  -1   5  -8    9.20    3.80
  -1   5  -8    0.80    3.40
   1  -5   8    6.00    3.20
   1  -5   8    0.10    1.80
  -2   5  -8    4.00    3.20
  -2   5  -8    3.00    3.90
  -2   5  -8    0.10    3.00
   2  -5   8   -0.30    2.90
   2  -5   8    6.10    2.70
  -3   5  -8    6.40    4.10
  -3   5  -8    0.70    3.90
  -3   5  -8    7.30    4.70
   3  -5   8    4.90    2.90
   3  -5   8   15.10    4.50
  -4   5  -8   15.70    4.70
  -4   5  -8   13.70    4.70
  -4   5  -8    7.00    4.70
   4  -5   8   13.60    4.90
  -5   5  -8    0.60    4.10
  -5   5  -8   15.50    6.10
  -5   5  -8    4.60    4.00
   5  -5   8   11.90    5.40
  11   4  -8    3.40    6.50
  11   4  -8    2.40    3.20
  10   4  -8    7.30    6.20
  10   4  -8    9.80    6.00
  10   4  -8    1.90    2.60
 -10  -4   8    3.30    4.60
   9   4  -8    7.30    5.30
   9   4  -8    7.60    6.00
   9   4  -8    0.80    2.30
  -9  -4   8    1.60    2.20
  -9  -4   8    5.90    4.50
   8   4  -8   -1.40    2.70
   8   4  -8    7.50    4.40
   8   4  -8    0.70    2.30
  -8  -4   8    1.90    1.90
  -8  -4   8    4.20    4.00
   7   4  -8    2.80    3.10
   7   4  -8   -0.50    1.90
   7   4  -8   -2.70    1.80
  -7  -4   8   -1.20    4.10
  -7  -4   8   -0.10    1.50
  -7  -4   8   -5.10    3.00
   6   4  -8   63.39    6.40
   6   4  -8   66.09    4.50
   6   4  -8   55.59    8.60
  -6  -4   8   64.79    7.30
  -6  -4   8   57.29    3.60
  -6  -4   8   65.59    6.70
   5   4  -8   60.69    4.30
   5   4  -8   58.19    6.00
   5   4  -8   42.00    7.60
  -5  -4   8   58.39    5.50
  -5  -4   8   56.79    3.50
  -5  -4   8   54.69    6.10
  -5  -4   8   55.19    7.30
   4   4  -8    6.90    2.20
   4   4  -8    8.90    3.40
   4   4  -8    6.80    4.30
   4   4  -8   13.10    2.60
  -4  -4   8    6.50    3.50
  -4  -4   8   10.70    2.10
  -4  -4   8   10.50    4.10
  -4  -4   8   13.80    3.40
   3   4  -8    6.50    2.20
   3   4  -8    6.50    2.10
   3   4  -8    8.80    3.10
  -3  -4   8    5.50    1.90
  -3  -4   8    6.00    2.70
  -3  -4   8    1.60    3.10
   2   4  -8   15.90    4.50
   2   4  -8   13.20    3.10
   2   4  -8    9.70    2.60
  -2  -4   8   15.40    2.50
  -2  -4   8   10.30    3.60
   1   4  -8    0.80    1.90
   1   4  -8   -3.00    1.60
   1   4  -8   -2.70    1.70
  -1  -4   8    0.90    2.00
  -1  -4   8   -1.40    1.70
   0   4  -8   -0.60    2.10
   0   4  -8    0.90    2.90
   0   4  -8    1.80    2.60
   0  -4   8    0.50    2.00
   0  -4   8   -1.70    2.10
  -1   4  -8   38.10    5.60
  -1   4  -8   29.30    5.90
  -1   4  -8   30.30    4.80
   1  -4   8   46.00    4.80
   1  -4   8   33.50    4.90
  -2   4  -8   11.50    4.10
  -2   4  -8    7.30    3.50
  -2   4  -8   13.40    4.50
   2  -4   8    5.20    2.80
   2  -4   8   11.80    3.50
  -3   4  -8   17.20    5.10
  -3   4  -8   32.40    5.60
  -3   4  -8   30.60    6.00
   3  -4   8   27.90    4.70
   3  -4   8   38.50    5.50
  -4   4  -8   50.69    7.60
  -4   4  -8   63.89    8.50
  -4   4  -8   59.39    7.80
   4  -4   8   61.19    6.30
   4  -4   8   62.59    5.80
  -5   4  -8    2.50    3.30
  -5   4  -8    2.00    3.70
  -5   4  -8    0.10    4.00
   5  -4   8    4.70    4.20
  -6   4  -8    6.40    4.50
  -6   4  -8    3.60    4.00
  -6   4  -8    7.90    4.40
  10   3  -8    2.00    4.90
  10   3  -8    3.20    2.70
 -10  -3   8   -4.60    4.20
   9   3  -8    5.70    5.40
   9   3  -8    1.00    2.40
   9   3  -8   -2.70    3.50
  -9  -3   8    7.40    5.00
   8   3  -8    2.00    3.80
   8   3  -8    0.30    3.70
   8   3  -8   -0.70    1.70
  -8  -3   8    2.30    4.10
  -8  -3   8   -0.50    1.60
   7   3  -8  109.99   11.20
   7   3  -8   99.09    5.40
   7   3  -8  110.99   11.10
  -7  -3   8  125.29    8.90
  -7  -3   8   94.09    4.60
   6   3  -8   28.40    4.40
   6   3  -8   27.80    3.00
   6   3  -8   42.10    7.00
  -6  -3   8   28.40    2.40
  -6  -3   8   29.30    5.40
  -6  -3   8   41.20    6.00
   5   3  -8   -1.10    1.40
   5   3  -8   -0.30    1.30
   5   3  -8   -0.50    2.20
   5   3  -8    4.20    2.30
  -5  -3   8    0.60    3.00
  -5  -3   8    0.30    1.00
  -5  -3   8    4.20    3.70
  -5  -3   8   -0.20    1.70
   4   3  -8   -1.60    1.90
   4   3  -8   -1.40    2.90
   4   3  -8    2.40    1.70
  -4  -3   8   -0.10    0.90
  -4  -3   8    0.00    2.30
  -4  -3   8    4.10    3.20
  -4  -3   8    2.90    2.80
  -4  -3   8    0.70    0.90
   3   3  -8    1.50    2.30
   3   3  -8   -0.70    1.20
   3   3  -8    1.50    1.30
  -3  -3   8   -0.20    1.00
  -3  -3   8    4.10    3.20
  -3  -3   8   -0.90    1.70
  -3  -3   8   -1.50    1.10
   2   3  -8    1.30    1.60
   2   3  -8    6.30    2.80
   2   3  -8    1.10    1.60
  -2  -3   8   -0.40    0.70
  -2  -3   8    1.20    2.60
  -2  -3   8    0.70    1.30
  -2  -3   8    1.40    2.80
   1   3  -8   -1.30    1.40
   1   3  -8   -1.90    1.50
   1   3  -8   -0.50    1.30
  -1  -3   8    0.70    1.50
  -1  -3   8   -1.30    1.70
   0   3  -8   67.79    5.70
   0   3  -8   64.79    6.80
   0   3  -8   60.89    4.40
   0   3  -8   69.39    5.10
   0  -3   8   64.99    3.80
   0  -3   8   50.89    5.50
   0  -3   8   67.69    4.80
  -1   3  -8  104.79    8.00
  -1   3  -8  126.69    9.40
  -1   3  -8  109.69    6.90
  -1   3  -8  118.19    6.40
   1  -3   8  130.29    6.70
   1  -3   8  111.09    7.60
   1  -3   8  119.09    5.90
  -2   3  -8   54.99    5.20
  -2   3  -8   57.89    6.40
  -2   3  -8   62.79    5.20
  -2   3  -8   42.30    6.40
   2  -3   8   51.89    4.50
   2  -3   8   53.49    5.20
   2  -3   8   55.19    5.50
  -3   3  -8   18.80    4.40
  -3   3  -8   14.20    5.00
  -3   3  -8    7.20    3.30
  -3   3  -8   16.30    4.20
   3  -3   8   11.10    3.50
   3  -3   8   15.70    3.40
   3  -3   8   17.60    3.90
  -4   3  -8    2.40    2.70
  -4   3  -8    0.80    2.60
  -4   3  -8    2.50    3.60
  -4   3  -8    0.20    3.00
   4  -3   8   -4.60    2.70
   4  -3   8    3.40    2.70
  -5   3  -8    2.70    4.60
  -5   3  -8    1.60    3.50
  -5   3  -8    1.50    3.90
   5  -3   8    4.50    3.00
   5  -3   8    4.60    3.70
  -6   3  -8    1.00    3.20
  -6   3  -8   -3.20    3.10
  -6   3  -8    4.20    4.40
   6  -3   8    5.70    4.00
  10   2  -8   -1.10    2.60
 -10  -2   8   -5.90    2.90
   9   2  -8   15.80    6.90
   9   2  -8    8.30    2.70
   9   2  -8   14.50    5.70
  -9  -2   8   14.90    5.90
   8   2  -8   11.70    5.10
   8   2  -8   17.80    6.30
   8   2  -8   10.60    2.50
  -8  -2   8    9.60    4.90
  -8  -2   8    7.90    2.20
   7   2  -8   27.10    5.70
   7   2  -8   23.20    5.90
   7   2  -8   31.70    3.20
  -7  -2   8   30.20    2.80
  -7  -2   8   33.80    6.10
   6   2  -8   33.70    2.80
   6   2  -8   35.30    6.40
   6   2  -8   35.90    6.60
   6   2  -8   28.80    4.20
  -6  -2   8   30.50    5.60
  -6  -2   8   35.00    2.10
   5   2  -8    0.60    2.30
   5   2  -8    1.20    1.70
   5   2  -8    0.60    0.90
  -5  -2   8    4.90    2.80
  -5  -2   8    2.20    3.30
  -5  -2   8   -0.20    2.20
   4   2  -8    9.60    1.30
   4   2  -8    8.70    1.10
   4   2  -8    8.90    2.50
   4   2  -8    7.20    3.30
   4   2  -8    5.90    2.20
  -4  -2   8   11.60    3.50
  -4  -2   8    9.60    3.70
  -4  -2   8   15.40    3.70
   3   2  -8   27.10    4.50
   3   2  -8   39.30    4.00
   3   2  -8   35.80    2.30
   3   2  -8   34.20    1.90
  -3  -2   8   32.70    5.00
  -3  -2   8   30.80    4.60
  -3  -2   8   29.50    4.80
   2   2  -8    0.20    1.00
   2   2  -8   -0.40    2.10
   2   2  -8    1.80    1.70
   2   2  -8    0.80    0.90
  -2  -2   8    1.60    0.90
  -2  -2   8   -2.60    1.60
  -2  -2   8    2.70    2.20
  -2  -2   8    1.30    0.90
   1   2  -8   48.30    3.30
   1   2  -8   45.40    3.10
   1   2  -8   42.90    2.60
   1   2  -8   49.60    5.50
   1   2  -8   48.00    4.70
  -1  -2   8   46.70    2.90
  -1  -2   8   33.50    5.00
  -1  -2   8   37.10    4.90
   0   2  -8   18.10    2.80
   0   2  -8   21.10    2.60
   0   2  -8   16.60    3.50
   0   2  -8   18.70    2.60
   0   2  -8   13.20    2.90
   0   2  -8   19.20    3.90
   0  -2   8   22.60    2.70
   0  -2   8   17.40    1.80
   0  -2   8   19.30    3.70
   0  -2   8   16.80    2.50
  -1   2  -8  558.24   17.30
  -1   2  -8  578.64   22.40
  -1   2  -8  564.94   16.90
  -1   2  -8  551.44   21.00
  -1   2  -8  551.54   24.40
  -1   2  -8  579.84   16.70
   1  -2   8  558.64   15.40
   1  -2   8  526.65   19.00
   1  -2   8  576.44   16.50
  -2   2  -8    0.20    1.50
  -2   2  -8   -3.90    2.40
  -2   2  -8   -1.90    1.80
  -2   2  -8    1.90    2.10
   2  -2   8   -1.90    2.10
   2  -2   8   -4.10    1.10
   2  -2   8   -1.00    1.50
  -3   2  -8    3.90    3.40
  -3   2  -8   -3.30    2.00
  -3   2  -8    0.70    2.10
  -3   2  -8   10.80    4.20
   3  -2   8    0.20    2.00
   3  -2   8    2.30    2.40
   3  -2   8    2.40    2.50
  -4   2  -8    9.70    3.60
  -4   2  -8    5.10    3.10
  -4   2  -8    8.00    4.90
  -4   2  -8    7.90    3.10
   4  -2   8    6.80    3.30
   4  -2   8    9.50    3.10
   4  -2   8   11.50    3.70
  -5   2  -8   -1.20    2.80
  -5   2  -8    0.60    2.80
  -5   2  -8    2.90    3.50
  -5   2  -8    1.20    2.30
   5  -2   8   -1.50    2.80
   5  -2   8   -2.30    2.00
   5  -2   8    0.00    1.90
  -6   2  -8   -2.30    2.00
  -6   2  -8   -3.30    2.70
  -6   2  -8    6.10    3.90
  -6   2  -8    4.70    3.30
   6  -2   8    0.10    2.40
   6  -2   8    4.50    2.90
  -7   2  -8    9.90    5.00
  -7   2  -8    9.70    5.60
  -7   2  -8    2.40    3.60
   7  -2   8    1.20    4.30
  10   1  -8    0.00    2.80
 -10  -1   8   -6.20    4.10
   9   1  -8    4.40    6.10
   9   1  -8    0.60    2.40
  -9  -1   8   -6.70    3.90
   8   1  -8   13.80    5.10
   8   1  -8   11.10    2.60
   8   1  -8   20.40    6.90
  -8  -1   8   14.80    2.70
  -8  -1   8   13.90    4.80
   7   1  -8   14.30    4.60
   7   1  -8   27.30    6.90
   7   1  -8   21.60    2.90
  -7  -1   8   16.10    5.10
  -7  -1   8   21.00    2.40
   6   1  -8   23.00    6.10
   6   1  -8   15.30    4.40
   6   1  -8   15.50    2.20
   6   1  -8   18.10    3.20
  -6  -1   8   17.20    1.70
  -6  -1   8   12.10    3.50
  -6  -1   8   16.20    3.90
   5   1  -8    2.10    1.00
   5   1  -8    0.40    2.60
   5   1  -8   -0.60    2.40
   5   1  -8    3.30    2.00
  -5  -1   8    1.30    3.40
  -5  -1   8    7.40    2.90
  -5  -1   8   -1.10    2.10
   4   1  -8    0.50    1.80
   4   1  -8    1.70    0.50
   4   1  -8   -1.40    2.00
   4   1  -8    2.30    0.50
  -4  -1   8    0.90    2.40
  -4  -1   8    3.80    2.10
  -4  -1   8    4.90    2.40
   3   1  -8   22.70    4.10
  -3  -1   8   29.10    4.50
  -3  -1   8   22.70    4.50
  -3  -1   8   33.10    4.70
   2   1  -8   -0.20    0.50
   2   1  -8    0.40    0.50
   2   1  -8   -1.00    1.10
   2   1  -8   -0.60    1.40
  -2  -1   8   -0.50    2.30
  -2  -1   8    0.00    2.00
   1   1  -8   59.39    6.00
   1   1  -8   62.49    5.40
   1   1  -8   59.59    3.10
   1   1  -8   61.09    3.00
  -1  -1   8   58.29    2.40
  -1  -1   8   59.19    5.10
  -1  -1   8   53.89    5.70
  -1  -1   8   61.39    2.40
   0   1  -8    0.00    1.10
   0   1  -8    0.00    1.20
   0   1  -8    3.50    1.20
   0   1  -8    0.90    1.70
   0   1  -8    2.30    2.50
   0   1  -8    0.70    2.00
   0  -1   8    2.70    1.40
   0  -1   8   -0.60    0.50
   0  -1   8    0.20    1.90
  -1   1  -8    2.50    2.00
  -1   1  -8    4.70    1.90
  -1   1  -8    2.00    1.50
  -1   1  -8    5.80    1.90
  -1   1  -8    7.00    2.50
  -1   1  -8    4.70    1.70
  -1   1  -8    5.80    2.40
   1  -1   8    1.90    1.80
   1  -1   8    3.20    1.70
   1  -1   8    0.00    0.60
   1  -1   8    3.10    2.90
  -2   1  -8    0.30    1.90
  -2   1  -8   -2.10    1.60
  -2   1  -8   -2.20    1.80
  -2   1  -8   -0.10    1.90
  -2   1  -8    0.60    1.40
   2  -1   8   -1.30    1.80
   2  -1   8   -0.70    1.80
   2  -1   8   -0.60    2.00
   2  -1   8   -1.40    1.50
  -3   1  -8   20.40    4.20
  -3   1  -8   21.30    3.70
  -3   1  -8   21.50    3.50
  -3   1  -8    5.70    3.80
  -3   1  -8   21.80    2.70
   3  -1   8   23.10    3.30
   3  -1   8   18.90    3.60
   3  -1   8   21.00    4.30
  -4   1  -8    3.10    3.00
  -4   1  -8    1.30    3.50
  -4   1  -8   11.00    3.30
  -4   1  -8    2.20    2.70
   4  -1   8    5.00    2.50
   4  -1   8   10.90    3.00
   4  -1   8    7.00    3.10
  -5   1  -8   19.90    4.30
  -5   1  -8   19.30    4.60
  -5   1  -8   19.50    4.60
  -5   1  -8   14.80    4.80
   5  -1   8   22.00    4.10
   5  -1   8   24.60    4.70
   5  -1   8   19.70    4.10
  -6   1  -8    1.70    3.60
  -6   1  -8   -1.90    4.30
  -6   1  -8   -0.50    2.90
  -6   1  -8   -0.30    2.60
   6  -1   8    0.60    3.50
   6  -1   8   -0.90    2.40
   6  -1   8   -0.50    2.70
  -7   1  -8    2.90    3.80
  -7   1  -8   12.60    4.60
  -7   1  -8    9.80    4.10
  -7   1  -8    8.10    5.20
   7  -1   8    9.10    3.30
   7  -1   8    9.80    3.80
  -8   1  -8   -5.90    3.20
  -8   1  -8    2.40    5.00
   8  -1   8    7.30    4.80
  10   0  -8    0.80    3.10
   9   0  -8    4.90    2.70
   9   0  -8    6.90    7.00
  -9   0   8    4.00    3.90
   8   0  -8   29.80    7.10
   8   0  -8   16.50    3.20
  -8   0   8   29.70    7.00
  -8   0   8   17.00    3.00
   7   0  -8    3.30    1.80
   7   0  -8    5.90    3.30
   7   0  -8    0.00    4.10
  -7   0   8    0.90    1.70
  -7   0   8    2.00    4.40
   6   0  -8  188.38    6.90
   6   0  -8  195.68   14.50
   6   0  -8  191.58   12.50
  -6   0   8  187.08   10.90
  -6   0   8  176.28    9.10
  -6   0   8  181.08    6.00
   5   0  -8   70.59    9.00
   5   0  -8   64.19    7.00
   5   0  -8   56.29    5.00
   5   0  -8   54.79    3.00
  -5   0   8   52.79    5.80
  -5   0   8   53.99    5.10
   4   0  -8    1.20    0.50
   4   0  -8    0.60    1.80
   4   0  -8   -0.30    0.40
   4   0  -8   -0.60    2.00
  -4   0   8   -2.80    3.00
  -4   0   8   -4.40    2.50
  -4   0   8    2.20    2.50
   3   0  -8    1.10    2.00
  -3   0   8   -0.60    1.70
  -3   0   8   -4.50    2.60
  -3   0   8    0.70    2.20
  -2   0   8    9.40    2.90
  -2   0   8    7.30    3.40
  -2   0   8    7.60    2.40
   1   0  -8    0.60    0.60
   1   0  -8   -1.10    1.50
   1   0  -8    1.20    0.60
  -1   0   8   -1.90    2.10
  -1   0   8    1.40    2.00
   0   0  -8   -0.30    1.50
   0   0  -8    0.70    0.90
   0   0  -8    0.70    0.60
   0   0  -8   -1.30    1.40
   0   0  -8   -0.50    0.90
   0   0  -8   -1.70    1.70
   0   0   8    0.50    1.00
   0   0   8    0.10    1.80
   0   0   8   -1.70    2.50
   0   0   8   -1.90    0.80
  -1   0  -8  455.35   13.30
  -1   0  -8  433.56   17.40
  -1   0  -8  474.75   14.40
  -1   0  -8  445.66   12.40
  -1   0  -8  444.46   13.10
  -1   0  -8  460.55   22.30
   1   0   8  452.15   12.70
   1   0   8  437.36   12.50
   1   0   8  431.66   16.20
   1   0   8  422.86   11.20
  -2   0  -8  261.27    9.10
  -2   0  -8  248.88    9.50
  -2   0  -8  259.87    9.70
  -2   0  -8  239.88   12.20
  -2   0  -8  265.77   12.30
   2   0   8  245.98    8.30
   2   0   8  261.47    9.20
   2   0   8  253.67   11.70
   2   0   8  253.47    9.00
  -3   0  -8  165.38   10.10
  -3   0  -8  169.58    8.00
  -3   0  -8  168.58    7.70
   3   0   8  163.48    7.70
   3   0   8  163.98    9.30
   3   0   8  157.88    7.10
  -4   0  -8   41.50    6.20
  -4   0  -8   46.70    4.60
  -4   0  -8   51.79    5.20
  -4   0  -8   34.60    5.20
   4   0   8   55.29    5.20
   4   0   8   41.20    4.70
   4   0   8   43.60    4.30
  -5   0  -8    6.40    3.30
  -5   0  -8    7.70    3.60
  -5   0  -8    9.20    2.80
  -5   0  -8    2.50    2.30
   5   0   8    7.40    2.90
   5   0   8   13.20    3.60
   5   0   8    8.50    3.10
  -6   0  -8   29.10    5.30
  -6   0  -8   26.60    5.20
  -6   0  -8   17.20    6.20
  -6   0  -8   23.30    4.70
   6   0   8   23.30    4.40
   6   0   8   23.80    4.60
   6   0   8   27.10    4.90
  -7   0  -8    0.80    3.20
  -7   0  -8   11.60    5.60
  -7   0  -8    2.50    2.90
  -7   0  -8    2.60    3.50
   7   0   8    5.60    3.00
   7   0   8   -0.80    3.10
   7   0   8    2.20    3.70
  -8   0  -8    1.00    4.70
  -8   0  -8    4.40    3.20
  -8   0  -8    1.90    3.00
  -8   0  -8    0.60    3.90
   8   0   8   -1.40    2.60
   8   0   8   10.90    4.50
   9  -1  -8   -2.00    2.40
  -9   1   8   -6.80    4.10
   8  -1  -8    1.80    2.30
   8  -1  -8    9.10    6.50
   8  -1  -8   -0.30    5.10
  -8   1   8   -1.10    2.10
  -8   1   8   10.20    5.00
   7  -1  -8   13.00    2.80
   7  -1  -8   11.80    5.10
  -7   1   8   13.00    5.30
  -7   1   8   12.70    2.60
   6  -1  -8    3.10    4.20
   6  -1  -8    1.20    1.50
   6  -1  -8    0.50    2.50
  -6   1   8    0.60    4.10
  -6   1   8   -1.10    1.40
  -6   1   8    1.30    2.30
   5  -1  -8   -1.20    1.20
   5  -1  -8    6.20    3.90
   5  -1  -8    0.30    2.30
  -5   1   8   -3.20    2.30
  -5   1   8    4.50    2.60
  -5   1   8    0.30    1.00
   4  -1  -8  149.49    9.70
   4  -1  -8  129.09    4.50
   4  -1  -8  149.79   11.10
  -4   1   8  145.59    8.90
  -4   1   8  121.09    7.30
   3  -1  -8    8.10    3.50
   3  -1  -8    5.40    0.60
   3  -1  -8    5.60    0.70
   3  -1  -8    6.70    2.90
  -3   1   8    8.30    3.10
  -3   1   8    3.90    2.70
  -3   1   8    2.50    1.90
   2  -1  -8   20.10    5.30
   2  -1  -8   23.30    4.40
  -2   1   8   32.70    4.40
  -2   1   8   18.70    4.30
  -2   1   8   22.10    3.70
   1  -1  -8   41.60    6.90
   1  -1  -8   45.30    1.80
   1  -1  -8   47.00    1.90
  -1   1   8   45.50    4.40
  -1   1   8   42.50    5.40
   0  -1  -8   32.10    5.70
   0  -1  -8   32.20    2.20
   0  -1  -8   32.10    2.30
   0  -1  -8   24.10    4.10
   0   1   8   33.30    1.90
   0   1   8   32.00    4.40
   0   1   8   30.90    1.90
   0   1   8   29.10    4.20
  -1  -1  -8    4.30    1.40
  -1  -1  -8    0.60    1.80
  -1  -1  -8    3.70    2.30
  -1  -1  -8    4.90    1.20
  -1  -1  -8    2.70    1.40
   1   1   8    5.50    2.50
   1   1   8    4.90    1.60
   1   1   8   -0.20    0.60
   1   1   8    2.80    0.50
   1   1   8    3.60    0.50
   1   1   8    1.20    2.10
  -2  -1  -8  440.86   21.70
  -2  -1  -8  419.86   13.30
  -2  -1  -8  420.26   17.70
  -2  -1  -8  450.05   13.90
  -2  -1  -8  446.36   13.00
   2   1   8  445.16   13.00
   2   1   8  450.95   16.70
   2   1   8  464.25   13.40
  -3  -1  -8  324.27   11.20
  -3  -1  -8  323.57   14.90
  -3  -1  -8  324.27   15.30
  -3  -1  -8  342.17   12.30
  -3  -1  -8  339.87   11.80
   3   1   8  326.57   10.80
   3   1   8  342.17   11.70
   3   1   8  303.87   13.40
   3   1   8  339.47   11.20
  -4  -1  -8  114.39    6.90
  -4  -1  -8  111.29    8.40
  -4  -1  -8  107.59    6.30
   4   1   8  107.49    6.10
   4   1   8  109.09    7.80
   4   1   8   99.89    6.50
  -5  -1  -8   -2.10    3.10
  -5  -1  -8    2.00    2.60
  -5  -1  -8   -2.30    1.90
   5   1   8   -3.70    2.30
   5   1   8   -0.90    2.40
   5   1   8   -3.00    2.00
  -6  -1  -8   -1.40    2.40
  -6  -1  -8    1.80    2.70
  -6  -1  -8   -2.30    1.90
   6   1   8    0.00    2.60
   6   1   8    0.90    3.10
   6   1   8   -2.00    3.00
  -7  -1  -8    8.70    3.90
  -7  -1  -8    8.10    3.30
  -7  -1  -8    5.00    3.30
  -7  -1  -8    1.20    4.90
   7   1   8   12.60    4.20
   7   1   8    5.80    3.40
   7   1   8   10.30    3.30
  -8  -1  -8   10.20    3.80
  -8  -1  -8    6.70    4.00
  -8  -1  -8    8.40    4.40
  -8  -1  -8   -1.40    5.20
   8   1   8    1.60    3.20
   8   1   8    9.40    3.90
   8   1   8    5.80    3.30
  -9  -1  -8    0.40    5.10
  -9  -1  -8    4.80    3.90
   9   1   8    2.20    3.30
   9   1   8   10.70    5.70
   9  -2  -8    2.10    3.00
   8  -2  -8   -0.80    2.40
   8  -2  -8    3.40    6.60
   8  -2  -8    6.80    6.10
  -8   2   8    0.20    3.30
  -8   2   8   -1.90    2.40
   7  -2  -8    1.10    5.30
   7  -2  -8    2.30    2.30
   7  -2  -8    8.70    6.20
  -7   2   8   -2.80    3.80
  -7   2   8    2.60    2.30
   6  -2  -8   -1.30    1.50
   6  -2  -8    2.10    4.40
   6  -2  -8    5.80    5.20
  -6   2   8    1.00    1.80
  -6   2   8   -4.80    3.40
   5  -2  -8   -0.70    1.30
   5  -2  -8    1.90    3.80
   5  -2  -8   -1.80    2.00
   5  -2  -8   -0.60    3.10
  -5   2   8   -0.90    1.40
  -5   2   8    3.20    2.20
  -5   2   8    0.50    3.70
   4  -2  -8   65.59   11.90
   4  -2  -8   76.49    8.50
   4  -2  -8   66.09    3.60
   4  -2  -8   68.59    6.30
  -4   2   8   77.19    7.50
  -4   2   8   71.19    3.40
  -4   2   8   71.59    5.30
   3  -2  -8  222.78   12.70
   3  -2  -8  228.18    6.60
   3  -2  -8  227.58   11.70
   3  -2  -8  213.38   18.40
  -3   2   8  221.18    9.80
  -3   2   8  202.68    5.20
  -3   2   8  223.38    5.20
  -3   2   8  210.08   10.80
   2  -2  -8   14.70    1.40
   2  -2  -8   13.30    4.90
   2  -2  -8   15.40    1.40
   2  -2  -8   14.50    3.60
  -2   2   8   12.40    3.40
  -2   2   8   15.10    3.00
  -2   2   8   13.90    3.20
   1  -2  -8    9.10    2.80
   1  -2  -8    6.70    3.50
   1  -2  -8   12.00    1.40
   1  -2  -8   12.70    1.30
  -1   2   8   11.10    2.70
  -1   2   8   13.30    3.20
  -1   2   8   11.80    3.20
   0  -2  -8    7.40    1.30
   0  -2  -8    7.80    3.40
   0  -2  -8    7.10    1.40
   0   2   8    9.80    3.30
   0   2   8    8.80    2.80
   0   2   8    6.20    1.10
   0   2   8    9.40    1.30
  -1  -2  -8   37.60    2.30
  -1  -2  -8   41.70    6.30
  -1  -2  -8   34.60    4.50
  -1  -2  -8   44.30    3.00
   1   2   8   41.70    4.50
   1   2   8   41.20    3.00
   1   2   8   42.50    4.60
  -2  -2  -8    7.20    2.80
  -2  -2  -8    7.40    2.30
  -2  -2  -8    8.50    2.00
  -2  -2  -8   11.20    2.00
  -2  -2  -8    7.80    2.10
  -2  -2  -8    7.30    3.30
   2   2   8   10.10    3.50
   2   2   8    4.20    2.40
   2   2   8   12.80    2.50
   2   2   8    7.30    1.90
  -3  -2  -8   71.69    7.50
  -3  -2  -8   71.79    5.40
  -3  -2  -8   81.99    5.40
  -3  -2  -8   76.99    4.90
  -3  -2  -8   74.59    6.50
  -3  -2  -8   80.39    4.70
   3   2   8   73.89    5.10
   3   2   8   77.29    4.40
   3   2   8   63.49    5.80
   3   2   8   78.59    4.90
  -4  -2  -8   24.20    4.40
  -4  -2  -8   23.30    4.10
  -4  -2  -8   27.10    3.80
  -4  -2  -8   25.50    3.60
   4   2   8   25.10    4.60
   4   2   8   24.20    3.80
   4   2   8   25.20    3.40
  -5  -2  -8   54.39    5.20
  -5  -2  -8   47.60    5.80
  -5  -2  -8   36.00    4.60
   5   2   8   32.10    5.10
   5   2   8   41.00    5.00
   5   2   8   43.30    4.60
  -6  -2  -8   16.30    3.80
  -6  -2  -8    9.30    3.50
  -6  -2  -8   11.80    3.40
   6   2   8   10.60    3.30
   6   2   8    7.60    3.60
   6   2   8   12.00    3.80
  -7  -2  -8    5.90    3.40
  -7  -2  -8    0.20    2.40
  -7  -2  -8   -3.10    3.30
   7   2   8   -0.20    2.90
   7   2   8    2.00    2.50
   7   2   8    4.30    3.30
  -8  -2  -8   -1.60    2.20
  -8  -2  -8    0.40    2.60
  -8  -2  -8   17.60    5.50
  -8  -2  -8   -2.50    3.20
   8   2   8    1.60    3.90
   8   2   8    4.10    3.70
   8   2   8    0.00    2.90
  -9  -2  -8   -0.80    3.70
  -9  -2  -8    0.70    3.00
  -9  -2  -8    1.90    4.00
  -9  -2  -8    1.50    3.20
   9   2   8    0.30    3.20
   9   2   8    1.90    3.20
 -10  -2  -8    4.80    5.00
   8  -3  -8    3.10    3.30
  -8   3   8    0.50    4.90
   7  -3  -8    1.20    5.90
   7  -3  -8    1.30    2.60
   7  -3  -8    2.70    5.80
  -7   3   8    3.20    2.80
  -7   3   8   -0.30    3.20
   6  -3  -8    3.80    2.30
   6  -3  -8    7.60    5.30
   6  -3  -8    5.20    5.80
  -6   3   8    8.60    4.80
  -6   3   8    5.00    2.50
   5  -3  -8    5.80    5.70
   5  -3  -8    3.90    2.00
   5  -3  -8    7.40    4.80
  -5   3   8   -1.30    3.70
  -5   3   8    3.80    2.20
   4  -3  -8   56.59    3.90
   4  -3  -8   72.49   12.90
   4  -3  -8   64.49    8.30
  -4   3   8   54.89    7.20
  -4   3   8   63.69    4.10
  -4   3   8   57.39    4.90
   3  -3  -8    2.20    4.40
   3  -3  -8    1.70    1.90
   3  -3  -8    1.00    2.90
   3  -3  -8   -1.10    1.20
  -3   3   8   -2.80    3.00
  -3   3   8   -0.80    1.40
  -3   3   8   -1.20    1.90
  -3   3   8    2.40    2.10
   2  -3  -8  147.29   15.30
   2  -3  -8  155.38   10.00
   2  -3  -8  153.98    8.80
   2  -3  -8  148.19    5.50
  -2   3   8  149.99    8.60
  -2   3   8  147.39    5.30
  -2   3   8  150.18    8.80
  -2   3   8  152.38    5.10
  -2   3   8  143.59    7.90
   1  -3  -8    1.80    3.00
   1  -3  -8    1.20    1.10
   1  -3  -8   -2.40    2.00
   1  -3  -8    0.10    1.10
  -1   3   8    0.70    1.70
  -1   3   8   -0.10    0.90
  -1   3   8   -1.80    2.60
  -1   3   8    1.20    2.30
  -1   3   8    1.00    1.80
  -1   3   8   -0.30    1.10
   0  -3  -8    1.80    1.20
   0  -3  -8    0.70    1.00
   0  -3  -8    0.20    1.70
   0  -3  -8    2.70    2.90
   0  -3  -8    1.20    0.80
   0   3   8    0.60    1.90
   0   3   8    0.00    1.20
   0   3   8    0.60    2.40
   0   3   8    0.70    1.80
   0   3   8    1.20    1.00
   0   3   8   -4.70    2.20
  -1  -3  -8    5.30    1.60
  -1  -3  -8    4.00    1.30
  -1  -3  -8    4.40    3.10
  -1  -3  -8    5.30    1.50
  -1  -3  -8    6.50    1.90
   1   3   8    6.50    0.90
   1   3   8    5.40    2.00
   1   3   8    3.60    2.40
   1   3   8    3.40    1.30
   1   3   8    4.20    1.80
   1   3   8    5.50    2.90
  -2  -3  -8    2.00    2.60
  -2  -3  -8   -0.60    1.50
  -2  -3  -8    0.70    2.30
  -2  -3  -8    1.00    1.50
  -2  -3  -8    1.90    1.60
  -2  -3  -8    0.70    1.20
   2   3   8    3.90    1.70
   2   3   8    3.90    2.00
   2   3   8    1.40    2.70
   2   3   8    0.40    1.80
   2   3   8   -0.10    0.80
   2   3   8    0.10    2.00
  -3  -3  -8   41.70    3.80
  -3  -3  -8   38.70    4.10
  -3  -3  -8   37.40    3.30
  -3  -3  -8   30.80    3.50
  -3  -3  -8   45.70    6.60
  -3  -3  -8   38.00    5.30
   3   3   8   39.80    4.10
   3   3   8   39.20    5.50
   3   3   8   33.60    3.60
   3   3   8   44.10    3.60
   3   3   8   43.60    4.10
  -4  -3  -8   19.90    3.20
  -4  -3  -8   15.00    2.90
  -4  -3  -8    5.10    5.10
  -4  -3  -8   19.50    4.40
   4   3   8   21.60    3.40
   4   3   8   20.50    3.60
   4   3   8   14.60    4.40
   4   3   8   19.00    3.00
  -5  -3  -8  126.29    9.50
  -5  -3  -8  122.59    7.00
  -5  -3  -8  138.09    7.60
   5   3   8  121.59    7.50
   5   3   8  118.79    7.00
   5   3   8  103.49    7.80
  -6  -3  -8    1.70    2.60
  -6  -3  -8    0.90    2.40
  -6  -3  -8    1.10    3.10
   6   3   8   -0.60    3.10
   6   3   8    0.70    2.50
   6   3   8   -0.60    2.00
  -7  -3  -8   -3.60    2.40
  -7  -3  -8   -1.30    3.00
  -7  -3  -8   -0.70    2.80
   7   3   8   -1.20    2.60
   7   3   8   -1.90    2.00
   7   3   8   -1.20    2.10
  -8  -3  -8   -1.80    2.00
  -8  -3  -8   -0.40    3.10
  -8  -3  -8   -3.10    2.00
   8   3   8    4.20    3.80
   8   3   8   -4.80    2.90
   8   3   8   -1.20    2.20
  -9  -3  -8   23.30    7.70
  -9  -3  -8   24.10    5.70
  -9  -3  -8   36.70    6.60
   9   3   8   31.00    6.80
   9   3   8   35.10    6.70
   9   3   8   28.10    6.00
 -10  -3  -8   12.40    5.70
 -10  -3  -8   11.60    6.60
  10   3   8   10.00    4.30
  10   3   8    6.10    5.60
   7  -4  -8   -0.90    4.80
   7  -4  -8   -0.80    2.80
  -7   4   8    4.40    2.90
  -7   4   8   -1.50    4.60
   6  -4  -8   -0.40    2.30
   6  -4  -8    3.70    5.40
   6  -4  -8   -0.60    5.20
  -6   4   8   -0.70    2.20
  -6   4   8   -3.70    4.20
   5  -4  -8   15.50    7.70
   5  -4  -8   20.90    6.30
   5  -4  -8   25.20    3.80
  -5   4   8   29.60    5.80
  -5   4   8   31.40    4.30
   4  -4  -8    5.00    5.50
   4  -4  -8   -0.10    3.50
   4  -4  -8    1.90    2.10
  -4   4   8    1.50    2.10
  -4   4   8    2.20    2.20
  -4   4   8    4.50    4.00
   3  -4  -8    3.50    3.20
   3  -4  -8   -0.60    1.60
   3  -4  -8    3.20    4.60
  -3   4   8    4.30    2.50
  -3   4   8    5.50    3.70
  -3   4   8    1.00    1.90
  -3   4   8    1.40    2.30
   2  -4  -8    8.00    5.00
   2  -4  -8    8.70    2.20
   2  -4  -8   10.40    2.20
   2  -4  -8   12.80    3.70
  -2   4   8    8.40    2.70
  -2   4   8    5.90    3.00
  -2   4   8   13.30    4.10
   1  -4  -8    1.00    3.70
   1  -4  -8    2.00    1.40
   1  -4  -8    3.50    2.40
  -1   4   8    6.30    2.80
  -1   4   8    4.70    2.80
  -1   4   8    4.80    1.90
  -1   4   8    2.60    2.40
   0  -4  -8   17.40    5.30
   0  -4  -8   22.70    3.50
   0  -4  -8   19.80    2.40
   0   4   8   24.90    3.80
   0   4   8   20.40    2.80
   0   4   8   23.70    4.20
   0   4   8   24.20    4.60
  -1  -4  -8   68.09    4.00
  -1  -4  -8   64.39    9.20
  -1  -4  -8   56.99    3.40
  -1  -4  -8   73.09    4.80
   1   4   8   55.89    3.00
   1   4   8   59.69    4.40
   1   4   8   69.89    5.70
   1   4   8   63.59    3.70
   1   4   8   62.39    5.40
   1   4   8   60.19    5.40
  -2  -4  -8   52.19    8.40
  -2  -4  -8   49.50    3.50
  -2  -4  -8   47.30    5.30
  -2  -4  -8   46.60    3.80
   2   4   8   53.19    4.50
   2   4   8   50.69    3.80
   2   4   8   56.29    4.50
   2   4   8   52.39    5.50
   2   4   8   52.09    5.60
  -3  -4  -8   -1.00    2.50
  -3  -4  -8    2.40    1.80
  -3  -4  -8    2.50    1.70
  -3  -4  -8   -1.30    2.70
   3   4   8    3.70    2.80
   3   4   8   -1.30    1.70
   3   4   8    0.30    1.90
   3   4   8    2.30    1.80
   3   4   8    1.10    2.40
  -4  -4  -8    8.20    2.60
  -4  -4  -8   12.80    3.60
  -4  -4  -8   15.00    3.00
   4   4   8    7.10    2.80
   4   4   8   11.50    2.80
   4   4   8   11.40    2.70
   4   4   8   15.00    3.70
  -5  -4  -8   17.60    4.20
  -5  -4  -8   23.70    3.70
  -5  -4  -8   17.40    3.50
  -5  -4  -8   35.00    7.00
   5   4   8   31.00    4.40
   5   4   8   27.60    4.40
   5   4   8   25.50    3.30
  -6  -4  -8   -2.10    2.40
  -6  -4  -8   -5.10    2.40
  -6  -4  -8    2.10    2.00
   6   4   8   -4.40    2.60
   6   4   8    2.80    2.90
   6   4   8    0.50    1.40
  -7  -4  -8   18.70    5.00
  -7  -4  -8   15.00    4.00
  -7  -4  -8   15.70    4.20
   7   4   8   15.90    3.70
   7   4   8   11.60    3.50
  -8  -4  -8   16.70    5.10
  -8  -4  -8   11.50    4.20
  -8  -4  -8   16.80    4.60
   8   4   8   23.90    5.30
   8   4   8   18.50    4.80
  -9  -4  -8   16.40    5.30
  -9  -4  -8    7.20    3.50
  -9  -4  -8    9.80    4.80
   9   4   8    4.60    4.40
   9   4   8   21.40    4.70
   9   4   8   15.80    5.30
 -10  -4  -8    0.70    3.70
 -10  -4  -8    4.60    6.30
 -10  -4  -8    2.30    4.80
  10   4   8    5.80    4.30
  10   4   8   -6.70    3.90
  11   4   8   -3.50    3.60
   6  -5  -8   -1.70    2.90
   6  -5  -8    1.60    5.30
   6  -5  -8    3.10    6.30
  -6   5   8   -0.10    4.40
  -6   5   8   -1.60    2.60
   5  -5  -8    1.50    5.60
   5  -5  -8   -0.10    2.40
   5  -5  -8   -4.00    4.50
  -5   5   8    1.00    3.20
  -5   5   8   -0.10    2.60
   4  -5  -8   21.30    8.50
   4  -5  -8   19.40    6.10
   4  -5  -8   30.20    4.00
  -4   5   8   30.60    5.90
  -4   5   8   29.20    4.30
   3  -5  -8   27.50    3.70
   3  -5  -8    9.20    5.50
   3  -5  -8   19.10    5.20
  -3   5   8   27.00    5.60
  -3   5   8   21.60    3.70
  -3   5   8   27.10    5.60
   2  -5  -8    9.70    2.40
   2  -5  -8    8.20    3.70
   2  -5  -8    5.20    4.40
  -2   5   8    6.20    2.60
  -2   5   8    7.50    3.70
  -2   5   8   12.30    3.70
  -2   5   8    6.70    2.40
   1  -5  -8    3.20    1.90
   1  -5  -8    6.10    4.30
   1  -5  -8    2.60    2.90
  -1   5   8    7.40    2.50
  -1   5   8    4.90    2.70
  -1   5   8    5.80    2.80
  -1   5   8   12.40    4.10
   0  -5  -8   21.70    3.60
   0  -5  -8   19.50    5.80
   0  -5  -8   20.30    2.90
   0   5   8   22.10    4.20
   0   5   8   16.90    3.00
   0   5   8   17.90    3.60
   0   5   8   25.10    4.30
  -1  -5  -8   11.40    2.50
  -1  -5  -8    7.50    3.90
  -1  -5  -8    9.10    2.30
   1   5   8   11.70    3.60
   1   5   8   12.10    2.90
   1   5   8   15.50    3.50
   1   5   8   13.80    3.30
  -2  -5  -8   -1.40    1.50
  -2  -5  -8    2.10    2.50
  -2  -5  -8   -0.70    1.50
   2   5   8   -1.20    1.50
   2   5   8    2.60    2.70
   2   5   8    1.60    2.30
   2   5   8   -0.40    1.60
   2   5   8   -0.70    1.90
  -3  -5  -8   23.70    3.40
  -3  -5  -8   25.70    3.20
  -3  -5  -8   20.60    5.80
  -3  -5  -8   23.90    4.90
   3   5   8   31.10    4.20
   3   5   8   27.80    4.40
   3   5   8   31.80    3.80
   3   5   8   31.70    4.20
  -5  -5  -8   49.10   11.10
  -5  -5  -8   39.50    4.70
  -5  -5  -8   34.60    4.50
  -5  -5  -8   33.10    5.20
   5   5   8   57.49    5.80
   5   5   8   30.20    4.50
   5   5   8   32.70    3.90
  -6  -5  -8   28.00    4.70
  -6  -5  -8   29.40    4.60
  -6  -5  -8   57.69    8.50
  -6  -5  -8   33.20    5.70
   6   5   8   25.90    4.90
   6   5   8   37.70    5.10
   6   5   8   35.20    3.70
  -7  -5  -8   -4.20    2.40
  -7  -5  -8    2.90    3.10
  -7  -5  -8   -0.30    2.10
   7   5   8    1.90    2.90
   7   5   8    1.10    3.10
  -8  -5  -8   24.90    5.70
  -8  -5  -8   16.30    4.00
  -8  -5  -8   17.80    4.80
   8   5   8   16.40    5.00
   8   5   8   20.10    4.50
  -9  -5  -8    0.00    3.50
  -9  -5  -8   -2.00    2.60
  -9  -5  -8    9.40    4.80
   9   5   8    2.80    3.30
   9   5   8    5.80    3.30
 -10  -5  -8    8.00    4.20
 -10  -5  -8    3.60    4.90
 -10  -5  -8   23.00    7.30
  10   5   8   14.00    6.00
 -11  -5  -8  -10.60    5.30
  11   5   8    5.20    4.60
   6  -6  -8  -14.50    6.10
  -6   6   8    5.30    5.50
  -6   6   8    4.30    4.10
   5  -6  -8   -5.20    5.60
   5  -6  -8    1.20    2.60
   5  -6  -8    7.90    6.20
  -5   6   8    1.30    3.70
  -5   6   8    6.50    3.70
   4  -6  -8    9.30    3.50
   4  -6  -8    2.50    5.00
   4  -6  -8    6.80    6.60
  -4   6   8   11.20    4.30
  -4   6   8   15.90    4.10
   3  -6  -8   -4.30    3.70
   3  -6  -8   -0.70    2.10
   3  -6  -8   -0.90    3.60
  -3   6   8    0.40    2.50
  -3   6   8   -7.30    2.80
   2  -6  -8    0.30    3.50
   2  -6  -8    9.90    3.10
   2  -6  -8    4.80    4.70
  -2   6   8    5.90    3.00
  -2   6   8    5.70    3.50
  -2   6   8    5.00    3.60
   1  -6  -8  143.49    7.40
   1  -6  -8  152.78   17.90
   1  -6  -8  141.59   10.10
  -1   6   8  155.78    9.70
  -1   6   8  145.79    9.60
  -1   6   8  131.69    7.90
   0  -6  -8    2.30    2.60
   0  -6  -8    4.00    2.10
   0  -6  -8    5.40    5.00
   0   6   8    0.20    2.40
   0   6   8    4.50    2.60
   0   6   8    6.10    3.40
   0   6   8    5.70    3.00
  -1  -6  -8    0.70    3.70
  -1  -6  -8    3.30    1.90
   1   6   8    0.30    2.40
   1   6   8    5.10    2.60
   1   6   8    2.80    3.00
   1   6   8   -0.50    2.60
  -2  -6  -8    3.30    2.10
  -2  -6  -8   -1.00    2.60
   2   6   8   -3.60    1.90
   2   6   8   -1.70    1.50
   2   6   8   -1.80    2.00
  -3  -6  -8    2.00    4.50
  -3  -6  -8   11.00    2.80
   3   6   8   13.50    3.50
   3   6   8   12.60    3.10
   3   6   8   10.90    3.00
  -4  -6  -8    4.00    5.60
  -4  -6  -8    5.00    2.10
  -4  -6  -8    5.30    2.90
  -4  -6  -8    9.10    2.70
   4   6   8    6.00    3.10
   4   6   8    9.00    2.90
   4   6   8   10.20    3.10
  -5  -6  -8    7.70    2.80
  -5  -6  -8    1.40    2.90
  -5  -6  -8    2.00    9.10
  -5  -6  -8    0.70    2.40
   5   6   8    3.00    3.10
   5   6   8    5.40    2.60
   5   6   8    4.00    3.10
  -6  -6  -8   84.09    6.70
  -6  -6  -8   94.19   11.70
  -6  -6  -8   74.29    7.60
  -6  -6  -8   79.69    6.70
   6   6   8   79.59    5.60
   6   6   8   71.49    6.50
   6   6   8   68.99    7.10
  -7  -6  -8    0.50    2.40
  -7  -6  -8    1.00    2.20
  -7  -6  -8    3.30    3.10
   7   6   8   -3.50    2.70
   7   6   8    2.60    3.30
  -8  -6  -8    0.10    3.00
  -8  -6  -8   -1.40    3.10
  -8  -6  -8   -3.50    3.00
   8   6   8    6.50    3.70
   8   6   8   -3.30    3.10
  -9  -6  -8    7.50    4.10
  -9  -6  -8    2.80    3.70
  -9  -6  -8    0.60    2.90
   9   6   8    8.40    4.70
 -10  -6  -8    4.00    3.70
 -10  -6  -8    0.20    3.40
  10   6   8   -0.90    4.50
 -11  -6  -8   -8.60    6.20
   5  -7  -8   -8.90    6.40
  -5   7   8    5.50    3.90
  -5   7   8    4.20    4.90
   4  -7  -8   -3.40    2.60
   4  -7  -8    0.40    4.70
   4  -7  -8   -5.80    4.80
  -4   7   8   -4.00    3.70
  -4   7   8   -5.00    3.20
   3  -7  -8    8.90    5.50
   3  -7  -8   18.80    4.10
   3  -7  -8   15.70    8.50
  -3   7   8   14.70    4.30
  -3   7   8   12.40    5.30
   2  -7  -8    1.80    6.30
   2  -7  -8    5.20    2.90
  -2   7   8    2.40    3.00
  -2   7   8    1.40    2.90
   1  -7  -8   10.70    3.10
   1  -7  -8   10.50    6.70
  -1   7   8   12.80    3.70
  -1   7   8    4.80    3.60
   0  -7  -8   79.29   14.40
   0  -7  -8   76.59    5.70
   0   7   8   68.19    6.50
   0   7   8   60.69    6.10
   0   7   8   83.49    6.40
   0   7   8   63.69    6.50
  -1  -7  -8    5.30    2.50
  -1  -7  -8    0.90    4.40
   1   7   8    8.90    3.20
   1   7   8   -4.10    2.70
   1   7   8    4.20    3.20
   1   7   8    0.60    3.00
  -2  -7  -8   12.30    5.80
  -2  -7  -8    6.60    2.60
   2   7   8    6.30    3.30
   2   7   8    7.40    3.20
   2   7   8    3.10    2.70
  -3  -7  -8    6.50    2.70
  -3  -7  -8    8.60    5.30
   3   7   8   11.00    3.60
   3   7   8   11.00    3.50
  -4  -7  -8   29.70    8.80
  -4  -7  -8   40.00    6.00
  -4  -7  -8   46.90    5.00
   4   7   8   35.00    4.90
   4   7   8   45.90    5.80
  -5  -7  -8    9.00    3.30
  -5  -7  -8   -0.10   10.00
  -5  -7  -8   12.00    3.70
  -5  -7  -8    3.60    2.80
   5   7   8   10.80    4.00
  -6  -7  -8   45.70   13.80
  -6  -7  -8   45.20    6.70
  -6  -7  -8   47.30    5.70
  -6  -7  -8   57.89    6.10
   6   7   8   42.90    5.80
  -7  -7  -8   42.40    9.10
  -7  -7  -8   15.00    4.80
  -7  -7  -8   23.80    4.50
  -7  -7  -8   24.60    4.80
   7   7   8   15.60    4.60
  -8  -7  -8   -0.50    3.30
  -8  -7  -8   -2.70    2.00
  -8  -7  -8   -0.60    2.60
   8   7   8   -0.30    2.70
  -9  -7  -8    1.70    3.00
  -9  -7  -8    2.50    2.70
  -9  -7  -8   -1.90    3.60
   9   7   8    1.50    4.10
 -10  -7  -8    7.60    3.30
 -10  -7  -8    6.70    3.80
  10   7   8    1.70    5.20
 -11  -7  -8   -3.50    5.30
   3  -8  -8    0.20    3.50
  -3   8   8    0.10    4.70
  -3   8   8    1.00    4.00
   2  -8  -8    0.10    6.40
   2  -8  -8    0.90    2.70
  -2   8   8   -1.50    3.20
  -2   8   8   -0.30    3.50
   1  -8  -8    6.00    5.60
   1  -8  -8    0.20    2.90
  -1   8   8    7.80    3.40
  -1   8   8    6.00    3.70
   0  -8  -8    0.20    2.40
   0  -8  -8   -3.60    5.00
   0   8   8    1.70    3.00
   0   8   8    2.90    3.30
   0   8   8   -3.60    2.50
  -1  -8  -8   40.30    5.10
  -1  -8  -8   34.70    9.60
   1   8   8   46.80    6.20
   1   8   8   42.30    5.80
   1   8   8   32.40    5.60
   1   8   8   45.40    6.90
  -2  -8  -8   -1.00    4.90
  -2  -8  -8    0.90    2.60
   2   8   8    5.10    3.00
   2   8   8    1.90    2.80
  -3  -8  -8    5.90    2.40
  -3  -8  -8   -1.20    5.80
   3   8   8    8.50    3.70
   3   8   8    5.20    2.90
   4   8   8    4.40    3.50
  -6  -8  -8    4.40    3.30
  -6  -8  -8    1.70    2.90
   6   8   8    1.80    3.40
  -7  -8  -8    6.70    2.90
  -7  -8  -8    7.00    4.00
  -7  -8  -8   -3.70    8.00
   7   8   8    6.90    4.30
  -8  -8  -8    2.30    3.70
  -8  -8  -8   -1.80    3.40
   8   8   8    0.10    3.80
  -9  -8  -8    2.60    2.90
  -9  -8  -8    9.70    4.70
   9   8   8    0.60    3.20
 -10  -8  -8   -2.10    4.40
 -10  -8  -8    4.10    3.40
  10   8   8   -7.30    4.20
 -11  -8  -8   -7.60    4.30
  -2   9   8    5.00    4.40
  -2   9   8    4.60    4.50
   1  -9  -8   11.40    7.20
   1  -9  -8   16.10    4.40
  -1   9   8   14.20    5.10
  -1   9   8   20.30    5.00
   0  -9  -8    9.70    3.70
   0  -9  -8    4.00    7.30
   0   9   8    5.30    3.50
  -1  -9  -8    3.00    3.00
  -1  -9  -8    2.40    5.30
   1   9   8    7.20    3.80
   1   9   8    3.40    3.20
   1   9   8    6.80    4.00
  -2  -9  -8    0.70    4.70
  -2  -9  -8    6.10    3.10
   2   9   8    0.50    3.30
   2   9   8    2.20    2.90
  -3  -9  -8   32.70    5.30
  -3  -9  -8   30.50   10.20
   3   9   8   34.60    5.30
   3   9   8   36.50    6.10
  -4  -9  -8   19.00    4.00
  -4  -9  -8   21.60   12.60
   4   9   8   24.80    4.70
   4   9   8   21.10    5.10
  -5  -9  -8   15.00    4.90
  -5  -9  -8    7.60    3.50
  -5  -9  -8   -5.80   11.90
   5   9   8    4.50    4.20
  -6  -9  -8   -2.80    2.80
  -6  -9  -8   12.90   19.70
  -6  -9  -8    8.70    4.30
   6   9   8    4.30    4.20
  -7  -9  -8   -0.80    3.20
  -7  -9  -8   -3.20    3.10
  -7  -9  -8   -9.90   10.20
   7   9   8    0.40    4.20
  -8  -9  -8    0.40    3.10
   8   9   8    3.70    4.40
  -9  -9  -8   15.90    5.00
  -9  -9  -8   16.30    4.90
   9   9   8   23.00    6.50
 -10  -9  -8   13.00    4.90
  -1  10   8    2.50    4.10
   0 -10  -8    9.60    4.40
   0  10   8   -2.60    3.60
  -1 -10  -8    2.30    3.50
  -1 -10  -8  -15.10    7.00
   1  10   8    0.80    3.90
   1  10   8   -0.50    3.60
  -2 -10  -8   -4.20    6.20
  -2 -10  -8   -2.40    3.10
   2  10   8    2.90    4.10
  -3 -10  -8   -2.30    7.90
  -3 -10  -8   -3.40    3.20
   3  10   8    1.60    3.80
  -4 -10  -8  -21.00   12.40
  -4 -10  -8    0.70    3.40
   4  10   8    1.30    3.90
  -5 -10  -8   19.80    5.50
  -5 -10  -8  -27.70   18.60
  -5 -10  -8   18.70    4.90
   5  10   8   15.50    5.20
  -6 -10  -8    2.00    3.60
  -6 -10  -8    2.00    2.80
   6  10   8    9.30    4.80
  -7 -10  -8    0.60    3.50
  -7 -10  -8   16.90   10.20
  -7 -10  -8    4.10    3.50
   7  10   8    4.40    4.80
  -8 -10  -8    2.50    3.60
  -8 -10  -8    4.50   10.00
  -8 -10  -8   -2.80    3.60
   8  10   8    5.30    4.90
  -9 -10  -8   -5.10    4.20
  -9 -10  -8   -1.10    3.70
  -3 -11  -8   -8.90    8.80
  -3 -11  -8   -1.20    3.50
   3  11   8   -3.40    3.90
  -4 -11  -8    7.20    3.50
   4  11   8    7.80    5.20
  -7 -11  -8    2.90    3.50
  -7 -11  -8    5.60    3.70
  -7 -11  -8    4.60   13.40
   7  11   8    0.80    3.80
  -8 -11  -8    2.60   11.90
  -9 -11  -8  115.49   15.70
  -6 -12  -8    8.60    5.10
  -5 -10   9   19.20    6.10
   8   9  -9    7.50    5.60
  -8  -9   9   -7.00    3.10
  -8  -9   9    1.90    6.00
   7   9  -9    1.90    4.70
   7   9  -9    2.10    5.10
  -7  -9   9   -0.60    3.50
  -7  -9   9   -2.50    5.20
   6   9  -9   12.10    5.40
   6   9  -9    4.00    5.60
  -6  -9   9    1.30    3.80
  -6  -9   9    1.10    5.50
   5   9  -9   26.00    8.30
   5   9  -9   19.30    6.30
   5   9  -9   24.50    5.70
  -5  -9   9   22.80    4.80
  -5  -9   9   17.90    6.50
   4   9  -9   14.60    5.20
   4   9  -9   12.40    6.90
   4   9  -9   19.70    8.00
  -4  -9   9   13.20    5.10
  -4  -9   9   25.90    5.40
   3   9  -9    0.50    4.00
   3   9  -9    3.80    5.20
  -3  -9   9   -1.40    3.80
   2   9  -9    2.50    5.10
   1   9  -9    3.20    5.60
   9   8  -9    9.20    4.20
   8   8  -9    1.30    3.30
  -8  -8   9   -1.40    3.70
  -8  -8   9    3.80    3.10
   7   8  -9    3.20    6.00
   7   8  -9    0.60    4.30
  -7  -8   9   -1.30    4.50
  -7  -8   9   -5.40    2.50
   6   8  -9    3.90    4.00
   6   8  -9   -0.30    3.00
   6   8  -9   -1.20    3.30
  -6  -8   9    3.60    3.20
  -6  -8   9   -4.40    4.30
   5   8  -9    1.20    3.40
   5   8  -9    4.70    4.80
   5   8  -9    2.70    5.10
  -5  -8   9    6.10    5.20
  -5  -8   9    4.80    3.00
   4   8  -9    1.30    3.80
   4   8  -9    0.00    3.30
   4   8  -9    2.70    3.40
  -4  -8   9    0.50    2.50
  -4  -8   9   -0.50    4.50
   3   8  -9   -0.60    3.00
   3   8  -9    3.70    3.60
   3   8  -9   -6.50    4.00
  -3  -8   9   -4.50    2.30
   2   8  -9    7.80    4.50
   2   8  -9    2.50    4.70
   2   8  -9    7.20    4.70
  -2  -8   9    0.40    3.10
   1   8  -9   10.40    5.00
   1   8  -9   13.00    6.40
  -1  -8   9   12.00    4.40
   0  -8   9   -0.20    4.30
   9   7  -9    1.10    3.00
   8   7  -9    2.20    5.00
   8   7  -9   -1.40    2.60
  -8  -7   9    2.00    5.10
   7   7  -9   -0.60    2.70
   7   7  -9   -1.20    4.30
   7   7  -9   -0.60    3.70
  -7  -7   9   -6.10    4.30
  -7  -7   9   -5.10    1.90
   6   7  -9    0.80    2.80
   6   7  -9    8.50    5.50
   6   7  -9    5.50    4.60
  -6  -7   9   -0.50    2.40
  -6  -7   9    2.70    3.80
   5   7  -9   -0.60    2.50
   5   7  -9    4.50    4.60
   5   7  -9   -2.70    3.90
  -5  -7   9   -1.40    3.90
  -5  -7   9   -2.00    2.20
   4   7  -9    1.10    2.70
   4   7  -9    0.10    4.30
   4   7  -9   -1.10    2.70
  -4  -7   9   -4.00    3.80
  -4  -7   9    1.90    2.40
   3   7  -9    0.20    3.30
   3   7  -9    4.80    4.70
   3   7  -9    1.00    4.50
  -3  -7   9    1.40    2.70
   2   7  -9   11.30    5.80
   2   7  -9    3.90    3.30
  -2  -7   9    9.50    3.40
   1   7  -9    1.00    4.20
   1   7  -9    2.70    3.60
  -1  -7   9    6.80    3.30
   0   7  -9   -0.70    3.10
   0   7  -9   -0.40    3.30
   0  -7   9   -2.50    3.10
  -1   7  -9   -0.10    4.10
  -1   7  -9   -1.00    4.90
  -1   7  -9    0.70    3.50
   1  -7   9   -3.20    3.30
  -2   7  -9   -3.70    5.00
  -2   7  -9   -0.70    4.10
   9   6  -9    2.60    2.90
   9   6  -9    5.20    6.00
   9   6  -9   18.90    6.60
   8   6  -9    5.50    5.60
   8   6  -9    3.50    2.70
  -8  -6   9    5.70    5.80
  -8  -6   9    6.70    4.20
   7   6  -9   12.60    6.10
   7   6  -9   10.20    4.50
   7   6  -9   15.00    3.70
  -7  -6   9    3.50    5.00
  -7  -6   9   13.10    2.70
  -7  -6   9    9.40    4.30
   6   6  -9   -2.40    2.80
   6   6  -9   -3.80    2.70
  -6  -6   9   -2.50    3.10
  -6  -6   9   -3.40    1.70
  -6  -6   9    0.50    3.30
   5   6  -9   -1.60    2.30
   5   6  -9   -1.20    3.00
   5   6  -9   -0.90    3.00
  -5  -6   9    3.20    4.10
  -5  -6   9   -0.10    2.20
   4   6  -9   -1.10    3.50
   4   6  -9    2.60    3.20
   4   6  -9    1.00    2.60
  -4  -6   9   -0.90    3.60
  -4  -6   9   -0.50    2.20
   3   6  -9   -5.00    2.10
   3   6  -9   -0.80    2.50
   3   6  -9    2.40    3.80
  -3  -6   9    2.20    2.40
  -3  -6   9    1.70    3.60
   2   6  -9    7.30    4.90
   2   6  -9    8.80    3.70
  -2  -6   9    3.30    3.60
  -2  -6   9   10.60    3.30
   1   6  -9   17.80    4.80
   1   6  -9   18.90    4.10
   1   6  -9   15.00    5.60
  -1  -6   9   20.20    4.10
  -1  -6   9   14.80    3.90
   0   6  -9   -0.50    3.00
   0   6  -9    5.70    4.20
   0   6  -9   -0.70    2.60
   0  -6   9    2.30    3.40
   0  -6   9    3.20    3.10
  -1   6  -9    0.40    3.10
  -1   6  -9    2.30    3.70
  -1   6  -9    2.30    4.30
   1  -6   9   -1.70    2.80
   1  -6   9   -0.50    3.00
  -2   6  -9   -2.60    3.50
  -2   6  -9    3.10    4.00
  -2   6  -9    2.90    3.70
   2  -6   9   -1.90    2.60
   2  -6   9   -3.40    3.30
  -3   6  -9    1.60    5.00
  -3   6  -9   -1.10    3.90
  -3   6  -9    2.20    3.60
   3  -6   9    3.20    4.70
   3  -6   9   -4.40    2.40
 -10  -5   9   18.00    6.30
   9   5  -9    3.70    6.00
   9   5  -9   25.10    6.90
  -9  -5   9   10.40    5.00
   8   5  -9    1.80    3.70
   8   5  -9    1.30    2.30
  -8  -5   9   -2.80    3.90
   7   5  -9    0.20    2.00
   7   5  -9    0.70    4.40
   7   5  -9   -2.30    2.50
  -7  -5   9   10.10    4.60
  -7  -5   9   -3.10    4.10
   6   5  -9    9.70    4.50
   6   5  -9    0.60    2.00
   6   5  -9    2.00    2.80
  -6  -5   9    8.40    4.50
  -6  -5   9    2.60    1.80
  -6  -5   9    3.40    3.40
   5   5  -9   -0.20    2.90
   5   5  -9    0.70    3.00
   5   5  -9    1.60    2.40
  -5  -5   9    3.50    3.10
  -5  -5   9    2.10    3.50
  -5  -5   9   -1.80    1.70
   4   5  -9    1.10    3.10
   4   5  -9   -2.80    3.60
   4   5  -9   -1.90    2.00
  -4  -5   9    0.60    1.90
  -4  -5   9    1.20    2.60
  -4  -5   9   -1.00    3.50
   3   5  -9   71.09    5.90
   3   5  -9   72.79    8.20
   3   5  -9   76.19    5.90
  -3  -5   9   89.29    5.30
  -3  -5   9   57.09    6.30
   2   5  -9   -2.00    2.20
   2   5  -9   -2.40    2.70
   2   5  -9    3.20    3.90
  -2  -5   9    3.20    2.30
  -2  -5   9    2.20    2.60
   1   5  -9   -1.40    2.20
   1   5  -9   -1.90    2.40
   1   5  -9   -7.10    2.20
  -1  -5   9    1.50    2.30
  -1  -5   9    1.70    2.30
   0   5  -9    2.70    3.80
   0   5  -9    5.60    3.10
   0   5  -9    7.50    3.60
   0  -5   9    4.40    2.60
   0  -5   9    6.60    3.20
  -1   5  -9   -2.80    2.70
  -1   5  -9    6.80    3.70
  -1   5  -9   -0.40    2.70
   1  -5   9    4.30    3.20
   1  -5   9    1.30    2.80
  -2   5  -9   -1.40    3.20
  -2   5  -9    3.10    3.80
  -2   5  -9    1.20    4.00
   2  -5   9    2.10    2.80
   2  -5   9    3.90    3.40
  -3   5  -9   -1.60    2.70
  -3   5  -9   -4.00    3.30
  -3   5  -9    6.20    4.30
   3  -5   9   -1.30    2.40
   3  -5   9   -3.80    3.40
  -4   5  -9   -0.80    4.40
  -4   5  -9    1.90    4.60
  -4   5  -9    4.00    4.90
   4  -5   9   -0.80    4.10
  -5   5  -9    3.10    5.00
  10   4  -9   -3.00    4.70
 -10  -4   9   -1.20    4.50
   9   4  -9    5.00    4.80
   9   4  -9    9.90    6.20
  -9  -4   9   -2.50    4.30
   8   4  -9    2.20    3.30
   8   4  -9    1.50    4.90
  -8  -4   9    3.40    4.10
   7   4  -9    9.60    4.90
   7   4  -9    7.80    2.20
  -7  -4   9    4.70    4.90
  -7  -4   9    6.10    4.40
   6   4  -9    2.80    4.20
   6   4  -9    1.50    2.50
   6   4  -9    1.70    1.70
  -6  -4   9    4.30    3.80
  -6  -4   9   -1.00    3.90
   5   4  -9    0.10    1.50
   5   4  -9    1.70    2.80
   5   4  -9   -2.10    2.50
  -5  -4   9   -1.80    3.50
  -5  -4   9    1.30    2.60
  -5  -4   9    3.50    1.30
  -5  -4   9    2.10    2.70
   4   4  -9    6.20    4.20
   4   4  -9    4.90    2.10
   4   4  -9    7.00    2.40
   4   4  -9    8.20    3.80
  -4  -4   9    5.60    3.00
  -4  -4   9    1.80    3.40
  -4  -4   9    7.60    1.70
  -4  -4   9    5.70    3.90
   3   4  -9   14.90    2.80
   3   4  -9   14.00    2.90
   3   4  -9   27.40    5.40
  -3  -4   9   19.00    2.50
  -3  -4   9   17.70    4.10
   2   4  -9   17.40    4.50
   2   4  -9   24.50    3.90
   2   4  -9   11.10    2.80
  -2  -4   9   16.80    2.70
  -2  -4   9   20.70    4.40
   1   4  -9   72.59    5.70
   1   4  -9   96.79    7.20
   1   4  -9   63.89    7.70
  -1  -4   9   76.89    6.70
  -1  -4   9   90.29    5.40
   0   4  -9    9.30    3.60
   0   4  -9   14.60    3.50
   0   4  -9    9.40    3.60
   0  -4   9   10.60    3.30
   0  -4   9   17.80    3.20
  -1   4  -9   -1.50    3.40
  -1   4  -9   -0.90    3.00
  -1   4  -9    0.60    2.50
   1  -4   9   -0.20    2.60
   1  -4   9    2.40    2.60
  -2   4  -9   -3.80    1.80
  -2   4  -9   -4.90    3.20
  -2   4  -9   -3.00    2.60
   2  -4   9   -1.30    2.50
   2  -4   9    0.40    2.20
  -3   4  -9    4.80    4.30
  -3   4  -9    8.30    4.00
  -3   4  -9    7.10    4.10
   3  -4   9   10.30    3.20
   3  -4   9   10.70    3.70
  -4   4  -9   -1.40    2.70
  -4   4  -9   -0.30    3.90
  -4   4  -9   -2.00    3.60
   4  -4   9   -1.80    2.60
   4  -4   9    2.70    2.80
  -5   4  -9   61.99    8.80
  -5   4  -9   66.39    9.90
  -5   4  -9   41.50    8.00
   5  -4   9   84.39    9.00
  -6   4  -9   24.20    6.70
  10   3  -9   17.90    6.90
 -10  -3   9   12.00    5.90
   9   3  -9    9.30    5.20
   9   3  -9    9.00    5.10
  -9  -3   9    9.30    5.40
   8   3  -9    9.20    4.70
   8   3  -9    8.60    4.90
  -8  -3   9   15.60    4.60
   7   3  -9    6.90    4.30
   7   3  -9    0.00    1.40
   7   3  -9   11.00    4.90
  -7  -3   9   -3.20    3.50
   6   3  -9    6.60    4.20
   6   3  -9    4.90    2.70
   6   3  -9    2.10    1.40
  -6  -3   9    1.20    4.20
  -6  -3   9    0.90    3.70
   5   3  -9   20.50    3.30
   5   3  -9    9.80    4.70
   5   3  -9   16.60    3.90
   5   3  -9   14.90    2.00
  -5  -3   9   15.60    4.60
  -5  -3   9   17.10    4.50
  -5  -3   9   13.70    4.60
   4   3  -9   -0.70    3.00
   4   3  -9    0.60    2.50
   4   3  -9    1.70    1.80
  -4  -3   9    1.20    2.60
  -4  -3   9    3.80    2.70
  -4  -3   9   -1.60    3.30
   3   3  -9   22.70    3.60
   3   3  -9   10.00    3.70
   3   3  -9   18.50    2.40
  -3  -3   9   11.30    4.00
  -3  -3   9   22.10    4.70
  -3  -3   9   21.50    1.90
   2   3  -9    1.80    1.90
   2   3  -9    4.50    1.90
   2   3  -9    5.20    3.50
  -2  -3   9    3.00    1.40
  -2  -3   9   -2.10    2.70
   1   3  -9   -1.60    1.80
   1   3  -9   -1.30    1.70
   1   3  -9   -0.20    2.30
  -1  -3   9   -2.00    1.60
  -1  -3   9   -1.10    2.00
   0   3  -9    6.70    3.10
   0   3  -9    8.50    2.70
   0   3  -9    8.40    3.00
   0  -3   9    6.00    2.30
   0  -3   9    7.00    3.50
  -1   3  -9    0.30    2.50
  -1   3  -9    0.70    3.00
  -1   3  -9    0.10    2.50
   1  -3   9    0.60    2.60
   1  -3   9   -0.90    2.30
  -2   3  -9    4.90    3.70
  -2   3  -9    4.10    4.00
  -2   3  -9   -3.20    2.40
   2  -3   9    4.10    2.90
   2  -3   9    9.80    3.50
  -3   3  -9    6.30    3.80
  -3   3  -9    5.20    3.30
  -3   3  -9   -1.50    2.80
   3  -3   9   -1.90    2.60
   3  -3   9   -0.90    1.90
  -4   3  -9    9.40    4.40
  -4   3  -9    6.90    3.70
  -4   3  -9    2.40    4.80
   4  -3   9    4.70    3.70
   4  -3   9    7.60    3.30
  -5   3  -9    3.40    4.00
  -5   3  -9   -2.40    3.50
  -5   3  -9    1.40    2.90
   5  -3   9   11.60    4.60
   5  -3   9    3.30    3.20
  -6   3  -9    6.30    5.30
  -6   3  -9    6.00    4.80
  -6   3  -9    5.20    5.60
   6  -3   9   14.30    5.50
 -10  -2   9   -3.50    4.40
   9   2  -9   13.30    5.90
   9   2  -9    4.30    4.70
  -9  -2   9   11.40    5.60
   8   2  -9   25.80    6.80
   8   2  -9   31.40    6.90
  -8  -2   9   34.50    7.00
   7   2  -9   39.00    7.30
   7   2  -9   34.80    7.40
  -7  -2   9   32.00    6.30
   6   2  -9   10.00    4.40
   6   2  -9    6.00    2.80
   6   2  -9   10.90    4.70
  -6  -2   9   20.80    5.40
  -6  -2   9   12.20    4.80
  -6  -2   9    9.90    3.90
   5   2  -9    4.80    2.30
   5   2  -9    5.60    1.00
   5   2  -9    5.50    2.40
   5   2  -9    2.10    2.80
  -5  -2   9    6.70    4.00
  -5  -2   9    0.30    2.00
  -5  -2   9   -5.50    3.00
   4   2  -9    3.60    3.40
   4   2  -9    2.80    1.90
   4   2  -9    1.20    0.60
   4   2  -9    7.40    2.50
  -4  -2   9   -2.40    2.00
  -4  -2   9    0.50    2.00
  -4  -2   9    5.90    2.90
   3   2  -9    2.40    2.00
   3   2  -9    1.60    0.90
   3   2  -9    3.80    2.70
  -3  -2   9    1.90    3.40
  -3  -2   9   -2.60    2.70
  -3  -2   9   -1.30    2.70
   2   2  -9   61.79    6.90
   2   2  -9   40.90    4.70
   2   2  -9   42.40    2.90
  -2  -2   9   44.70    1.80
  -2  -2   9   45.10    1.80
  -2  -2   9   42.70    5.90
  -2  -2   9   46.50    6.00
   1   2  -9  141.69    6.10
   1   2  -9  127.89    8.10
   1   2  -9  140.09   10.20
  -1  -2   9  135.39    5.00
  -1  -2   9  131.19    8.70
   0   2  -9  321.37   11.20
   0   2  -9  310.97   15.90
   0   2  -9  317.57   14.50
   0  -2   9  311.07   13.90
   0  -2   9  315.47   10.10
  -1   2  -9   29.50    5.30
  -1   2  -9   32.90    4.30
  -1   2  -9   32.60    5.00
   1  -2   9   34.90    3.90
   1  -2   9   23.60    4.80
  -2   2  -9    2.10    3.50
  -2   2  -9   -2.30    1.70
  -2   2  -9   -1.40    1.60
   2  -2   9   -2.30    2.60
   2  -2   9    1.60    2.20
  -3   2  -9    0.20    2.60
  -3   2  -9   -0.50    2.70
  -3   2  -9   -0.60    1.70
   3  -2   9    2.40    2.60
   3  -2   9   -2.70    2.10
  -4   2  -9   21.40    4.90
  -4   2  -9   11.40    4.70
  -4   2  -9   21.00    4.70
   4  -2   9   25.60    4.70
   4  -2   9   19.30    4.50
  -5   2  -9    0.60    3.50
  -5   2  -9    1.00    5.10
  -5   2  -9   -0.60    3.00
   5  -2   9   -0.10    3.10
   5  -2   9   -2.50    2.50
  -6   2  -9   -4.30    1.90
  -6   2  -9    2.70    3.80
  -6   2  -9   -0.80    2.60
   6  -2   9    9.40    4.30
   6  -2   9    1.40    2.80
  -7   2  -9   14.90    7.00
  -7   2  -9   14.40    5.30
   9   1  -9    2.20    4.80
  -9  -1   9   -0.20    3.50
   8   1  -9   -0.70    3.30
   8   1  -9    7.10    5.90
  -8  -1   9    4.50    4.80
   7   1  -9   13.80    5.80
   7   1  -9    5.10    3.60
  -7  -1   9   11.00    4.20
   6   1  -9   49.70    7.70
   6   1  -9   47.30    8.30
  -6  -1   9   61.29    7.90
  -6  -1   9   59.09    6.00
   5   1  -9    0.10    1.70
   5   1  -9   -1.90    2.60
   5   1  -9    2.30    2.80
  -5  -1   9   -2.30    2.50
  -5  -1   9   -2.80    2.70
  -5  -1   9    0.00    1.80
   4   1  -9    0.90    2.00
   4   1  -9   -1.80    2.20
  -4  -1   9    6.30    3.20
  -4  -1   9    0.00    3.20
  -4  -1   9    0.80    3.00
   3   1  -9   -1.80    2.00
   3   1  -9   -0.50    1.90
  -3  -1   9    0.40    2.60
  -3  -1   9    1.20    2.90
  -3  -1   9   -0.90    2.20
   2   1  -9    2.50    0.60
   2   1  -9    3.90    2.20
   2   1  -9    1.80    0.50
   2   1  -9   -2.20    1.80
  -2  -1   9    5.20    2.50
  -2  -1   9    0.10    3.10
   1   1  -9   92.69    4.00
   1   1  -9   76.39    6.60
   1   1  -9  117.09    8.80
  -1  -1   9   90.49    3.00
  -1  -1   9   97.59    7.30
  -1  -1   9   90.29    2.90
  -1  -1   9   98.79    7.10
   0   1  -9   32.20    5.40
   0   1  -9   35.70    5.60
   0   1  -9   38.60    3.40
   0   1  -9   21.80    4.40
   0  -1   9   37.10    2.80
   0  -1   9   32.10    4.90
  -1   1  -9  487.65   19.10
  -1   1  -9  462.65   16.20
  -1   1  -9  427.16   19.00
  -1   1  -9  440.36   14.20
  -1   1  -9  439.96   21.40
   1  -1   9  457.85   13.50
   1  -1   9  430.86   17.20
  -2   1  -9   45.70    4.20
  -2   1  -9   50.79    4.60
  -2   1  -9   44.50    5.50
  -2   1  -9   39.10    6.00
   2  -1   9   51.59    5.70
   2  -1   9   48.20    4.50
  -3   1  -9    5.60    3.50
  -3   1  -9   10.20    3.10
  -3   1  -9   13.70    3.90
   3  -1   9    8.80    3.60
   3  -1   9   11.40    3.10
  -4   1  -9    9.10    3.60
  -4   1  -9   13.70    4.90
  -4   1  -9   16.20    4.00
   4  -1   9   12.60    3.70
   4  -1   9   13.40    4.00
  -5   1  -9   18.50    4.60
  -5   1  -9   10.10    4.20
  -5   1  -9   15.10    5.10
   5  -1   9   13.70    4.00
   5  -1   9   20.60    4.60
  -6   1  -9   -0.60    3.00
  -6   1  -9   19.00    5.70
  -6   1  -9    3.10    3.70
   6  -1   9    1.40    3.20
   6  -1   9    4.30    3.70
  -7   1  -9    0.70    3.20
  -7   1  -9    7.20    4.40
  -7   1  -9    1.00    4.10
   7  -1   9    2.40    4.10
   7  -1   9    6.60    3.60
  -9   0   9   -2.00    4.70
   8   0  -9   18.20    6.80
  -8   0   9   14.70    5.70
   7   0  -9    1.80    3.40
   7   0  -9   15.10    5.00
  -7   0   9    9.50    4.90
   6   0  -9  107.29   10.80
   6   0  -9   96.59    9.40
  -6   0   9  123.19    9.80
  -6   0   9   97.99    7.10
   5   0  -9    0.80    2.60
   5   0  -9    2.80    2.80
   5   0  -9    1.60    2.20
  -5   0   9    3.70    3.90
  -5   0   9    0.80    2.40
   4   0  -9   11.20    3.90
   4   0  -9   10.10    2.90
   4   0  -9    8.50    4.00
  -4   0   9    5.50    3.30
  -4   0   9   12.70    3.60
  -4   0   9   13.50    3.90
  -3   0   9    1.10    2.60
  -3   0   9   -1.50    2.20
  -3   0   9    0.10    1.60
   2   0  -9   -2.10    1.50
  -2   0   9    1.70    2.00
  -2   0   9    1.90    3.40
  -2   0   9    2.70    2.60
   1   0  -9   13.40    4.10
   1   0  -9   12.60    3.20
   1   0  -9   14.70    1.40
   1   0  -9   16.70    1.40
  -1   0   9   18.20    4.10
  -1   0   9   12.20    4.10
   0   0  -9   62.69    3.50
   0   0  -9   61.49    7.20
   0   0  -9   49.10    5.40
   0   0   9   64.39    5.70
   0   0   9   62.19    2.90
   0   0   9   67.49    6.00
   0   0   9   66.49    2.90
  -1   0  -9   88.99    7.80
  -1   0  -9   89.59    7.50
  -1   0  -9   86.49    4.90
   1   0   9   89.79    4.60
   1   0   9   77.29    6.80
  -2   0  -9   36.50    4.10
  -2   0  -9   27.10    5.10
   2   0   9   28.60    4.80
   2   0   9   32.70    3.80
  -3   0  -9   -1.30    1.90
  -3   0  -9   -0.80    1.70
   3   0   9    2.80    2.50
   3   0   9   -1.10    2.00
  -4   0  -9   -0.60    2.10
  -4   0  -9    0.40    2.80
  -4   0  -9    1.30    2.10
   4   0   9    4.10    2.70
   4   0   9    1.10    2.80
  -5   0  -9    2.70    2.80
  -5   0  -9    0.80    3.20
  -5   0  -9    1.50    2.80
   5   0   9   -1.20    2.40
   5   0   9    2.50    3.20
  -6   0  -9    7.10    3.90
  -6   0  -9   -2.80    3.00
  -6   0  -9    6.20    3.60
   6   0   9    7.10    3.70
   6   0   9   -0.40    2.10
  -7   0  -9    8.40    5.00
  -7   0  -9    6.40    4.20
  -7   0  -9    8.00    3.40
   7   0   9    8.90    3.80
   7   0   9    7.60    4.40
  -8   0  -9    6.30    5.60
  -8   0  -9    9.20    4.40
  -8   0  -9    6.60    3.80
   8   0   9    6.10    4.60
   8   0   9    7.80    3.90
   8  -1  -9    5.30    4.90
   8  -1  -9    3.40    5.70
  -8   1   9   -3.40    4.60
   7  -1  -9   24.00    7.30
   7  -1  -9   21.80    8.40
  -7   1   9    9.30    4.40
   6  -1  -9   -0.50    2.50
   6  -1  -9    1.70    4.50
   6  -1  -9    1.20    1.40
  -6   1   9   -0.80    1.90
  -6   1   9    6.70    4.60
   5  -1  -9   79.19   12.30
   5  -1  -9   76.49    3.50
   5  -1  -9  102.39   10.30
   5  -1  -9   79.49    7.80
  -5   1   9   86.99    7.80
  -5   1   9   76.79    6.10
   4  -1  -9    5.20    3.60
   4  -1  -9   10.20    3.50
   4  -1  -9    6.30    4.50
  -4   1   9    8.10    3.50
  -4   1   9    9.30    3.20
   3  -1  -9    2.10    2.60
   3  -1  -9    3.80    2.60
   3  -1  -9    3.40    3.10
  -3   1   9   -2.40    2.20
  -3   1   9    4.80    3.80
  -3   1   9    3.70    2.90
   2  -1  -9   16.40    4.00
   2  -1  -9   17.40    5.30
  -2   1   9   16.70    4.00
  -2   1   9   18.20    3.60
  -2   1   9   17.90    3.60
   1  -1  -9    1.20    2.60
   1  -1  -9    0.30    0.50
   1  -1  -9   -5.90    1.80
   1  -1  -9    1.30    0.50
  -1   1   9    0.60    1.90
  -1   1   9   -0.20    3.00
   0  -1  -9    9.70    1.60
   0  -1  -9    8.30    3.20
   0  -1  -9    9.60    3.60
   0   1   9    9.30    1.10
   0   1   9    9.10    3.50
   0   1   9   13.40    4.10
   0   1   9    8.50    1.00
  -1  -1  -9   21.20    4.50
  -1  -1  -9   32.20    5.10
  -1  -1  -9   28.60    2.80
   1   1   9   33.10    2.90
   1   1   9   27.80    4.60
   1   1   9   36.20    5.40
  -2  -1  -9   18.60    2.90
  -2  -1  -9   20.60    4.50
  -2  -1  -9   12.90    3.10
   2   1   9   11.00    2.60
   2   1   9   19.40    4.20
  -3  -1  -9   -1.50    1.90
  -3  -1  -9   -0.30    2.10
   3   1   9    0.20    2.00
   3   1   9    3.50    2.70
  -4  -1  -9   19.00    4.50
  -4  -1  -9   23.10    3.80
   4   1   9   22.60    4.80
   4   1   9   25.50    4.10
  -5  -1  -9    2.20    2.60
  -5  -1  -9    2.30    3.60
   5   1   9    0.70    2.70
   5   1   9    1.20    3.00
  -6  -1  -9   -2.00    2.70
  -6  -1  -9    2.90    2.80
  -6  -1  -9    3.80    3.30
   6   1   9   -0.10    2.90
   6   1   9    0.30    3.00
  -7  -1  -9   31.70    6.60
  -7  -1  -9    9.60    4.20
  -7  -1  -9   10.60    3.80
   7   1   9   14.00    4.60
   7   1   9   14.70    4.50
  -8  -1  -9   22.70    6.00
  -8  -1  -9   21.90    5.30
  -8  -1  -9   20.80    6.70
   8   1   9   17.30    5.40
   8   1   9   18.50    4.80
   9   1   9    4.30    3.60
  -8   2   9   10.60    6.10
   7  -2  -9   18.10    8.30
   7  -2  -9    5.80    4.60
  -7   2   9    9.40    4.80
   6  -2  -9    8.50    5.20
   6  -2  -9    2.60    1.90
   6  -2  -9    2.10    3.40
  -6   2   9    9.50    4.30
   5  -2  -9    1.20    1.40
   5  -2  -9    3.30    3.80
   5  -2  -9    2.30    4.00
  -5   2   9    2.70    2.30
  -5   2   9    2.60    4.20
   4  -2  -9   13.90    6.10
   4  -2  -9   19.60    4.10
   4  -2  -9   15.90    4.60
   4  -2  -9   18.20    1.90
  -4   2   9   19.60    3.90
  -4   2   9   15.70    5.10
   3  -2  -9   -0.40    2.10
   3  -2  -9    0.90    0.70
   3  -2  -9    2.20    2.80
   3  -2  -9    1.60    2.80
  -3   2   9    1.40    2.20
  -3   2   9    1.30    3.70
   2  -2  -9    5.40    2.80
   2  -2  -9    9.20    4.40
   2  -2  -9    9.30    1.00
  -2   2   9    6.50    3.00
  -2   2   9   10.30    2.90
  -2   2   9    5.20    3.70
   1  -2  -9   -1.00    2.40
   1  -2  -9    0.20    0.70
   1  -2  -9    2.60    2.20
   1  -2  -9    1.10    0.70
  -1   2   9   -0.20    2.20
  -1   2   9    3.30    2.30
  -1   2   9    2.30    2.00
   0  -2  -9    0.70    2.40
   0  -2  -9   -0.30    1.00
   0  -2  -9   -2.60    2.40
   0   2   9   -1.20    2.00
   0   2   9    4.30    3.10
   0   2   9   -0.70    0.70
   0   2   9    0.50    0.70
  -1  -2  -9    8.10    3.30
  -1  -2  -9   10.20    1.90
  -1  -2  -9    6.90    3.30
   1   2   9    9.80    1.80
   1   2   9    8.20    3.60
   1   2   9   10.70    1.90
   1   2   9   11.10    3.80
  -2  -2  -9   38.90    6.10
  -2  -2  -9   36.30    3.50
  -2  -2  -9   38.90    5.70
   2   2   9   43.60    3.70
   2   2   9   32.20    5.40
  -3  -2  -9   14.50    4.40
  -3  -2  -9    9.10    2.50
   3   2   9    9.20    2.60
   3   2   9   10.30    4.00
  -4  -2  -9    3.20    2.20
  -4  -2  -9    1.70    3.30
   4   2   9    3.80    2.50
   4   2   9   -5.10    2.80
  -5  -2  -9    2.70    2.60
  -5  -2  -9    3.20    2.80
   5   2   9    2.80    2.60
   5   2   9    0.90    2.50
  -6  -2  -9    9.90    4.50
  -6  -2  -9   11.90    3.80
   6   2   9   14.00    4.10
   6   2   9   13.90    3.90
  -7  -2  -9   -3.50    2.40
  -7  -2  -9    3.80    3.40
   7   2   9   -2.20    3.20
   7   2   9    2.90    3.40
  -8  -2  -9    3.20    2.90
  -8  -2  -9    5.50    5.90
  -8  -2  -9    0.80    3.10
   8   2   9    5.70    3.50
   8   2   9    7.30    4.10
  -9  -2  -9   -9.50    5.70
  -9  -2  -9    1.10    4.60
   9   2   9    5.10    4.10
   9   2   9   -1.20    4.60
  10   2   9    2.40    4.00
   7  -3  -9   -3.90    5.50
  -7   3   9    3.60    5.00
   6  -3  -9    0.80    2.20
   6  -3  -9    1.50    3.50
   6  -3  -9    3.30    4.40
  -6   3   9   -1.70    4.50
   5  -3  -9   19.90    5.60
   5  -3  -9   19.10    2.80
   5  -3  -9   11.80    5.80
  -5   3   9    8.90    5.30
   4  -3  -9    3.50    1.60
   4  -3  -9    0.20    4.70
   4  -3  -9    5.20    3.10
  -4   3   9    7.00    3.60
  -4   3   9   -0.70    2.30
   3  -3  -9    3.20    1.30
   3  -3  -9    2.50    2.00
   3  -3  -9    5.10    3.50
   3  -3  -9    4.40    3.90
  -3   3   9    4.80    1.00
  -3   3   9   10.60    3.00
  -3   3   9    3.50    3.10
   2  -3  -9   28.90    5.10
   2  -3  -9   31.90    7.40
   2  -3  -9   31.90    2.30
  -2   3   9   30.40    4.90
  -2   3   9   25.90    4.90
  -2   3   9   32.00    4.60
   1  -3  -9   -0.70    2.60
   1  -3  -9    1.00    2.20
   1  -3  -9    1.60    1.00
  -1   3   9   -0.30    2.00
  -1   3   9    0.20    2.30
  -1   3   9    0.70    0.70
  -1   3   9   -0.50    0.70
  -1   3   9   -1.70    2.20
  -1   3   9   -1.50    2.00
   0  -3  -9   -0.10    1.10
   0  -3  -9    0.90    1.70
   0  -3  -9    0.90    2.70
   0   3   9    0.00    1.10
   0   3   9   -1.40    1.40
   0   3   9    0.40    0.90
   0   3   9   -4.40    1.60
   0   3   9   -1.00    3.00
   0   3   9    4.80    3.10
  -1  -3  -9   11.30    2.00
  -1  -3  -9   12.20    3.50
  -1  -3  -9   10.20    2.30
  -1  -3  -9    9.40    4.20
   1   3   9   11.30    2.10
   1   3   9   10.30    3.30
   1   3   9   15.70    3.50
   1   3   9    8.50    3.00
  -2  -3  -9  111.09    8.30
  -2  -3  -9  108.19   10.50
  -2  -3  -9  112.99    5.60
   2   3   9  106.09    6.70
   2   3   9   97.49    7.60
   2   3   9  112.09    5.70
   2   3   9  114.09    8.30
  -3  -3  -9    9.10    3.30
  -3  -3  -9   12.10    3.90
  -3  -3  -9   12.50    2.70
   3   3   9   11.30    2.90
   3   3   9   10.20    3.40
  -4  -3  -9   75.49    5.40
  -4  -3  -9   78.59    7.20
  -4  -3  -9   45.00    8.30
   4   3   9   78.29    6.00
   4   3   9   63.79    6.30
  -5  -3  -9   -1.50    1.90
  -5  -3  -9    0.70    2.20
   5   3   9   -0.20    3.40
   5   3   9    3.80    2.90
  -6  -3  -9   -1.70    2.80
  -6  -3  -9    0.50    2.70
   6   3   9    4.20    3.60
   6   3   9    2.10    3.00
  -7  -3  -9    6.20    3.40
  -7  -3  -9   15.30    4.40
   7   3   9   15.70    4.60
   7   3   9   13.50    4.80
  -8  -3  -9    3.00    4.40
  -8  -3  -9    8.40    4.50
   8   3   9   14.00    4.90
   8   3   9    3.70    3.10
  -9  -3  -9   50.49    7.90
  -9  -3  -9   49.10    8.90
   9   3   9   40.50    6.70
   9   3   9   46.80    7.70
  10   3   9   -1.20    3.60
  -7   4   9    1.70    5.70
   6  -4  -9    0.90    2.60
   6  -4  -9    0.10    5.70
   6  -4  -9    6.90    6.10
  -6   4   9   -6.40    2.90
   5  -4  -9   -9.20    3.50
   5  -4  -9    0.00    4.00
   5  -4  -9    1.30    2.00
  -5   4   9    0.00    3.40
   4  -4  -9   10.60    4.80
   4  -4  -9    6.20    2.20
   4  -4  -9    7.30    5.00
  -4   4   9   10.20    4.80
  -4   4   9    5.60    2.20
   3  -4  -9   21.60    5.40
   3  -4  -9   27.30    3.00
   3  -4  -9   22.50    7.20
  -3   4   9   28.80    5.10
  -3   4   9   22.90    3.90
  -3   4   9   20.50    4.90
   2  -4  -9   12.00    3.90
   2  -4  -9   13.90    2.20
   2  -4  -9   10.50    5.00
  -2   4   9   14.00    4.00
  -2   4   9   17.00    4.80
  -2   4   9   15.20    2.20
  -2   4   9   14.70    3.50
   1  -4  -9   -1.30    1.30
   1  -4  -9    0.50    3.40
   1  -4  -9   -2.60    2.00
  -1   4   9    0.80    1.50
  -1   4   9    0.50    3.20
  -1   4   9   -2.70    2.20
  -1   4   9   -1.20    2.10
   0  -4  -9   -0.10    1.30
   0  -4  -9    3.50    2.20
   0  -4  -9   -2.70    2.80
   0   4   9    0.00    1.80
   0   4   9   -2.00    1.40
   0   4   9    0.90    2.90
   0   4   9    3.60    2.20
  -1  -4  -9   -0.80    1.40
  -1  -4  -9    0.90    1.50
  -1  -4  -9   -1.60    2.80
   1   4   9    1.60    2.60
   1   4   9   -1.40    2.80
   1   4   9   -2.30    1.60
   1   4   9   -6.40    2.30
  -2  -4  -9   21.30    3.00
  -2  -4  -9   27.10    6.10
  -2  -4  -9   25.10    4.70
   2   4   9   25.10    5.10
   2   4   9   26.70    4.20
   2   4   9   24.60    4.40
   2   4   9   24.80    3.50
  -3  -4  -9    1.90    1.90
  -3  -4  -9   -0.50    2.20
  -3  -4  -9   -3.30    3.20
   3   4   9    1.90    2.80
   3   4   9   -0.10    2.20
   3   4   9    4.40    2.40
  -4  -4  -9   48.20    5.90
  -4  -4  -9   47.90    4.90
   4   4   9   49.60    4.50
   4   4   9   41.30    6.50
   4   4   9   53.89    5.10
  -5  -4  -9   18.40    3.60
  -5  -4  -9   22.60    4.60
   5   4   9   17.80    3.00
   5   4   9   21.50    4.20
   5   4   9   22.50    5.00
  -6  -4  -9    2.70    2.90
  -6  -4  -9    2.30    3.60
   6   4   9    5.50    3.30
   6   4   9    0.80    2.80
  -7  -4  -9   -2.10    2.80
  -7  -4  -9    3.10    3.70
   7   4   9    2.40    2.70
   7   4   9   -1.50    2.60
  -8  -4  -9    5.10    3.70
  -8  -4  -9    1.90    3.40
   8   4   9   -0.10    4.10
   8   4   9    2.10    2.70
  -9  -4  -9   -0.20    3.10
  -9  -4  -9   -4.90    4.70
   9   4   9    4.10    4.00
   9   4   9    0.90    4.20
 -10  -4  -9   25.30    7.60
  10   4   9    8.50    5.20
   6  -5  -9   11.20    3.70
   6  -5  -9   -4.90    6.50
  -6   5   9    5.50    5.60
   5  -5  -9    1.70    5.40
   5  -5  -9    7.00    2.90
   5  -5  -9   10.60    7.90
  -5   5   9    2.90    4.90
   4  -5  -9   -1.10    2.20
   4  -5  -9   -2.50    3.90
   4  -5  -9    3.30    4.70
  -4   5   9   -0.70    4.00
  -4   5   9   -1.10    2.10
   3  -5  -9    7.70    2.50
   3  -5  -9   -1.00    3.70
   3  -5  -9   11.00    6.90
  -3   5   9   15.00    5.10
   2  -5  -9    9.40    6.10
   2  -5  -9   21.50    4.90
   2  -5  -9   20.50    3.00
  -2   5   9   20.10    5.30
  -2   5   9   16.80    3.00
  -2   5   9   16.20    3.70
  -2   5   9   18.20    4.30
   1  -5  -9   17.10    6.50
   1  -5  -9   12.20    3.90
   1  -5  -9   20.70    2.90
  -1   5   9   23.50    3.20
  -1   5   9   21.70    4.70
  -1   5   9   13.40    3.80
  -1   5   9   15.10    4.30
   0  -5  -9    3.40    3.90
   0  -5  -9   -0.60    2.10
   0  -5  -9   -2.30    1.50
   0   5   9   -1.20    2.30
   0   5   9   -0.50    2.90
   0   5   9    1.50    2.70
   0   5   9   -2.10    1.70
  -1  -5  -9   56.09    4.00
  -1  -5  -9   50.29    9.60
   1   5   9   53.69    6.30
   1   5   9   54.79    4.50
   1   5   9   55.39    5.70
   1   5   9   55.79    5.60
  -2  -5  -9   22.20    6.00
  -2  -5  -9   25.10    3.30
   2   5   9   20.20    5.00
   2   5   9   24.90    3.70
   2   5   9   29.60    4.60
   2   5   9   30.40    5.00
  -3  -5  -9   16.40    3.90
  -3  -5  -9    7.60    2.60
  -3  -5  -9   11.00    4.50
   3   5   9   15.60    3.20
   3   5   9    7.00    2.50
   3   5   9   13.60    3.90
   3   5   9   16.00    4.10
  -4  -5  -9   -1.10    4.50
  -4  -5  -9   10.60    3.40
  -4  -5  -9   12.50    3.00
   4   5   9    5.00    2.90
   4   5   9    2.60    3.00
   4   5   9    1.50    2.10
  -5  -5  -9   -1.50    2.10
  -5  -5  -9  -13.00    6.30
  -5  -5  -9    1.20    2.40
   5   5   9   -3.10    1.70
   5   5   9   -1.20    2.60
   5   5   9   -1.00    2.50
  -6  -5  -9    1.40    2.50
  -6  -5  -9    6.40    3.40
   6   5   9    3.80    3.30
  -7  -5  -9    7.40    3.70
  -7  -5  -9   -0.20    3.40
   7   5   9    4.70    3.80
  -8  -5  -9   -1.40    4.50
  -8  -5  -9    0.10    3.60
   8   5   9    1.10    3.10
   8   5   9   -1.20    3.30
  -9  -5  -9    2.10    2.90
  -9  -5  -9    1.30    4.00
   9   5   9    6.00    5.00
   9   5   9    1.40    4.30
 -10  -5  -9  -10.90    5.10
  10   5   9   -1.20    4.50
   5  -6  -9   -2.00    2.50
   5  -6  -9  -16.50    4.70
  -5   6   9   -4.00    4.80
   4  -6  -9   -9.00    4.60
   4  -6  -9   -3.40    5.70
   4  -6  -9   -1.20    2.20
  -4   6   9    1.80    4.70
  -4   6   9   -0.30    2.60
   3  -6  -9   -3.10    3.90
   3  -6  -9   -4.60    1.90
   3  -6  -9    0.50    4.30
  -3   6   9    1.30    2.90
  -3   6   9   -2.20    2.30
   2  -6  -9    1.90    4.40
   2  -6  -9    5.20    2.50
  -2   6   9    1.90    2.90
   1  -6  -9   22.30    3.40
   1  -6  -9   13.50    6.80
  -1   6   9   17.60    4.80
  -1   6   9   15.90    3.90
  -1   6   9   20.50    4.50
  -1   6   9   21.70    3.60
   0  -6  -9    3.70    4.90
   0  -6  -9    3.80    2.10
   0   6   9    7.80    3.50
   0   6   9    5.80    3.60
   0   6   9    2.90    2.90
   0   6   9    6.00    2.90
  -1  -6  -9   12.80    2.70
  -1  -6  -9    7.00    4.30
   1   6   9    6.90    3.20
   1   6   9    9.40    3.70
   1   6   9   12.10    3.90
   1   6   9    6.50    2.80
  -2  -6  -9    0.70    1.80
  -2  -6  -9   -1.60    3.00
   2   6   9    2.30    2.50
   2   6   9   -4.40    2.90
   2   6   9   -2.10    1.60
   2   6   9    2.60    2.90
  -3  -6  -9   44.20    4.50
  -3  -6  -9   47.00    9.20
  -3  -6  -9   46.90    5.90
   3   6   9   40.40    6.60
   3   6   9   41.50    5.10
   3   6   9   48.50    5.30
   3   6   9   52.19    5.60
  -4  -6  -9   15.10    3.30
  -4  -6  -9    3.30    5.10
  -4  -6  -9   13.70    4.40
   4   6   9   11.60    3.30
   4   6   9    9.40    3.80
  -5  -6  -9    5.10    3.60
  -5  -6  -9    3.70    2.80
  -5  -6  -9  -11.30    8.60
   5   6   9   -0.20    2.60
   5   6   9    5.30    2.60
  -6  -6  -9    1.00    3.40
  -6  -6  -9   11.10    5.30
  -6  -6  -9    2.60    2.90
   6   6   9    2.00    2.20
   6   6   9    2.40    3.10
  -7  -6  -9    0.60    3.50
  -7  -6  -9    2.80    2.50
   7   6   9    0.60    3.40
  -8  -6  -9    0.30    2.50
  -8  -6  -9   -1.00    2.30
   8   6   9    0.90    3.60
  -9  -6  -9    3.50    3.40
  -9  -6  -9    0.80    4.10
   9   6   9    0.80    4.40
 -10  -6  -9   11.80    6.10
   4  -7  -9   -0.90    3.20
  -4   7   9   -7.20    3.90
  -4   7   9    4.50    3.70
   3  -7  -9    6.80    3.50
   3  -7  -9    3.90    7.10
  -3   7   9    5.20    3.50
  -3   7   9    6.10    3.30
   2  -7  -9   33.70   10.60
   2  -7  -9   34.70    4.70
  -2   7   9   43.90    7.00
   1  -7  -9   -6.20    4.40
   1  -7  -9    1.20    2.40
  -1   7   9    6.50    3.70
  -1   7   9   -0.90    2.50
  -1   7   9    0.60    2.70
   0  -7  -9   10.90    3.20
   0  -7  -9   10.60    7.00
   0   7   9   10.70    3.80
   0   7   9    7.20    4.10
   0   7   9   16.10    3.80
  -1  -7  -9   26.00    4.10
  -1  -7  -9   24.40    8.00
   1   7   9   36.60    5.90
   1   7   9   38.40    5.00
   1   7   9   34.20    5.90
   1   7   9   38.10    6.10
  -2  -7  -9   -0.50    4.40
  -2  -7  -9    3.20    2.70
   2   7   9    7.50    3.60
   2   7   9    6.00    3.90
   2   7   9   -1.40    3.00
   2   7   9   -0.90    3.00
  -3  -7  -9    0.10    2.10
  -3  -7  -9   -7.30    3.90
   3   7   9   -3.70    2.20
   3   7   9   -2.40    2.70
   3   7   9    4.20    3.20
  -4  -7  -9    0.90    2.40
  -4  -7  -9    0.60    7.00
  -4  -7  -9    2.50    3.80
   4   7   9    0.60    2.20
   4   7   9    4.50    3.20
  -5  -7  -9    2.40    2.60
  -5  -7  -9    0.30    1.90
   5   7   9    5.90    3.70
   5   7   9   -1.70    2.80
  -6  -7  -9    9.70    3.60
  -6  -7  -9   -1.80   10.00
  -6  -7  -9    8.90    3.90
   6   7   9    8.30    3.30
   6   7   9    6.30    3.90
  -7  -7  -9   56.89    7.00
  -7  -7  -9   75.79    7.40
   7   7   9   41.80    6.70
  -8  -7  -9   25.20    5.70
  -8  -7  -9   30.90    5.90
   8   7   9   20.90    5.00
  -9  -7  -9   -6.60    3.70
  -9  -7  -9    3.30    3.90
   9   7   9    3.20    4.60
 -10  -7  -9    2.60    5.20
   3  -8  -9   -5.80    3.30
  -3   8   9   -1.10    3.90
  -3   8   9    0.90    3.20
   2  -8  -9    5.60    7.70
   2  -8  -9   13.10    4.10
  -2   8   9   11.10    5.10
   1  -8  -9    9.10    6.20
   1  -8  -9    9.70    3.40
  -1   8   9    8.50    4.60
  -1   8   9   10.80    4.00
   0  -8  -9   -3.20    2.60
   0  -8  -9   -3.50    5.00
   0   8   9    5.10    3.30
   0   8   9   -1.60    2.70
   0   8   9   -3.30    2.80
  -1  -8  -9    3.70    2.70
  -1  -8  -9   -2.80    4.90
   1   8   9    3.20    3.30
   1   8   9    5.10    3.00
   1   8   9    0.70    3.20
  -2  -8  -9   32.00    9.20
  -2  -8  -9   27.70    4.70
   2   8   9   25.10    5.70
   2   8   9   30.20    5.60
   2   8   9   34.80    5.50
  -3  -8  -9   -2.30    2.40
  -3  -8  -9    1.20    5.30
   3   8   9   -5.80    2.80
   3   8   9   -0.60    2.80
   3   8   9   -4.40    2.80
  -4  -8  -9   -4.70    2.80
  -4  -8  -9   -1.50    2.30
  -4  -8  -9   -0.70    6.80
   4   8   9   -3.00    2.50
   4   8   9    1.90    3.40
   4   8   9    2.70    3.30
  -5  -8  -9   31.50    6.20
  -5  -8  -9   34.50    5.40
   5   8   9   39.80    6.30
   5   8   9   27.50    5.10
  -6  -8  -9   42.50    6.80
  -6  -8  -9   88.19   19.60
  -6  -8  -9   39.20    5.90
   6   8   9   58.39    7.50
   6   8   9   47.00    6.20
  -7  -8  -9    9.50    4.30
  -7  -8  -9   28.70    9.70
  -7  -8  -9    7.50    3.60
   7   8   9   11.10    4.90
  -8  -8  -9    0.50    2.80
  -8  -8  -9    4.80    3.40
   8   8   9    5.10    4.30
  -9  -8  -9   11.10    4.20
  -9  -8  -9   20.80    5.60
   9   8   9   21.00    6.10
 -10  -8  -9   14.60    5.10
   1  -9  -9   19.60    4.70
  -1   9   9   12.80    4.90
  -1   9   9    8.20    4.80
   0  -9  -9   -2.90    6.60
   0  -9  -9    0.70    2.90
   0   9   9   -1.30    3.40
   0   9   9    2.20    3.60
  -1  -9  -9    2.10    4.80
  -1  -9  -9    1.70    3.00
   1   9   9    5.00    4.00
   1   9   9    2.60    3.60
   1   9   9    5.40    4.20
  -2  -9  -9   10.90    3.70
  -2  -9  -9   10.20    5.80
   2   9   9   19.00    5.00
   2   9   9   18.30    4.70
   2   9   9   16.90    5.20
  -3  -9  -9   34.50   10.90
  -3  -9  -9   23.10    4.70
   3   9   9   30.70    5.50
   3   9   9   42.20    6.60
  -4  -9  -9   -1.60    2.50
  -4  -9  -9   15.30    9.80
   4   9   9    0.00    3.20
   4   9   9    0.90    3.80
  -5  -9  -9    3.10    4.00
  -5  -9  -9   -1.20    2.90
   5   9   9    6.10    3.90
  -6  -9  -9  -31.00   17.00
  -6  -9  -9   38.90    5.90
  -6  -9  -9   44.80    7.30
   6   9   9   41.40    6.90
  -7  -9  -9   -3.40    3.10
  -7  -9  -9    5.20    4.00
  -7  -9  -9   30.10    9.40
   7   9   9   -0.10    4.40
  -8  -9  -9    4.30    3.90
  -8  -9  -9   -0.90    3.80
   8   9   9    4.10    5.10
  -9  -9  -9    2.40    3.90
 -10  -9  -9    1.80    3.90
   0  10   9    5.80    4.70
  -1 -10  -9   -3.80    3.30
   1  10   9   -2.60    4.00
   1  10   9    5.40    4.10
  -2 -10  -9    2.30    8.40
  -2 -10  -9    7.30    4.00
   2  10   9   11.90    5.00
   2  10   9    8.50    4.80
   2  10   9   11.60    4.30
  -3 -10  -9  -12.50   10.60
  -3 -10  -9   -4.20    3.00
   3  10   9    3.60    4.20
  -4 -10  -9   17.90    4.90
  -4 -10  -9  -15.70   14.50
   4  10   9   41.80    6.90
  -5 -10  -9   19.40    5.00
  -5 -10  -9   16.00    5.60
  -5 -10  -9  -14.30   15.40
   5  10   9   14.30    5.30
  -7 -10  -9    8.90    4.40
  -7 -10  -9    2.40    4.00
   7  10   9    1.20    5.00
  -8 -10  -9   71.19   13.70
  -9 -10  -9    0.80    4.50
  -7 -11  -9   -3.20   15.20
  -7 -11  -9    5.20    4.70
  -5  -9  10    3.20    4.10
  -5  -9  10    6.70    4.00
  -4  -9  10    5.10    5.70
  -4  -9  10    1.20    3.50
   7   8 -10    2.20    3.70
  -7  -8  10   -3.20    4.90
   6   8 -10    3.20    5.20
   6   8 -10    2.70    3.70
  -6  -8  10    2.60    3.00
  -6  -8  10    4.20    5.50
   5   8 -10    8.50    6.80
   5   8 -10   -2.60    2.80
   5   8 -10    2.10    5.10
  -5  -8  10    2.60    3.20
  -5  -8  10    2.40    4.00
   4   8 -10    2.60    4.10
   4   8 -10    6.30    4.00
   4   8 -10    1.20    5.50
  -4  -8  10    3.80    3.70
  -4  -8  10    6.70    3.50
   3   8 -10    0.20    4.20
   3   8 -10   -2.20    3.40
   3   8 -10    3.70    4.00
  -3  -8  10    0.50    3.40
   2   8 -10    5.00    4.90
   2   8 -10    7.90    4.80
  -2  -8  10    3.60    3.80
  -8  -7  10   -8.10    5.00
   7   7 -10    2.10    4.00
   7   7 -10   -0.30    2.60
   7   7 -10    0.20    3.80
  -7  -7  10    0.70    5.40
   6   7 -10   -2.90    3.10
   6   7 -10    1.70    4.20
   6   7 -10    2.30    4.00
  -6  -7  10   -1.90    3.20
   5   7 -10   22.60    8.00
   5   7 -10   25.40    5.00
   5   7 -10   25.50    7.00
  -5  -7  10   17.50    3.50
  -5  -7  10   23.30    5.90
   4   7 -10    3.10    3.30
   4   7 -10    5.50    4.20
   4   7 -10   -1.60    2.80
  -4  -7  10    1.00    3.60
  -4  -7  10   -3.20    2.30
   3   7 -10   15.50    4.40
   3   7 -10   20.70    7.00
   3   7 -10    8.90    5.50
  -3  -7  10    6.60    3.10
   2   7 -10   -2.30    2.90
   2   7 -10   -1.50    3.10
  -2  -7  10   -0.50    2.70
   1   7 -10   -0.50    3.40
   1   7 -10    1.00    3.70
  -1  -7  10    4.70    3.40
   0   7 -10    1.60    5.80
   0   7 -10   -1.50    3.90
   0  -7  10   -4.00    2.90
   8   6 -10    8.70    5.60
  -8  -6  10   21.20    5.90
  -8  -6  10    8.30    6.70
   7   6 -10    0.20    4.00
   7   6 -10    3.30    4.00
  -7  -6  10    0.10    4.30
  -7  -6  10    5.60    5.60
   6   6 -10    1.10    3.60
   6   6 -10   -1.20    3.10
  -6  -6  10   -6.40    2.50
   5   6 -10   -3.20    2.40
   5   6 -10    1.50    3.60
   5   6 -10    5.70    4.10
  -5  -6  10    4.10    4.60
  -5  -6  10    1.40    2.20
   4   6 -10   15.80    5.60
   4   6 -10   21.20    4.10
   4   6 -10   20.60    6.20
  -4  -6  10   13.10    2.80
  -4  -6  10   11.70    4.70
   3   6 -10    4.80    3.20
   3   6 -10    9.00    5.10
   3   6 -10    3.50    4.60
  -3  -6  10    2.90    2.30
  -3  -6  10   -1.60    3.50
   2   6 -10    3.60    3.60
   2   6 -10    8.20    3.90
  -2  -6  10   11.10    4.60
  -2  -6  10    6.60    3.00
   1   6 -10    2.80    3.60
   1   6 -10    3.90    3.70
  -1  -6  10   -2.60    3.20
  -1  -6  10    0.70    2.90
   0   6 -10    6.40    4.90
   0   6 -10    4.90    3.30
   0   6 -10    2.40    3.40
   0  -6  10    6.10    4.10
   0  -6  10    4.10    3.40
  -1   6 -10    4.60    4.40
  -1   6 -10    3.40    4.30
  -1   6 -10    5.10    4.30
   1  -6  10    8.20    4.10
   1  -6  10   14.90    4.40
  -2   6 -10    0.30    5.00
  -2   6 -10    3.10    3.60
  -2   6 -10   -2.80    3.50
   2  -6  10   -2.10    3.00
   2  -6  10    2.40    4.00
  -3   6 -10   11.90    5.60
   3  -6  10   14.10    4.50
  -9  -5  10   -6.10    4.20
   8   5 -10    7.60    4.30
   8   5 -10    3.40    5.60
  -8  -5  10    2.80    4.40
   7   5 -10   13.90    5.60
  -7  -5  10   17.30    6.50
  -7  -5  10    7.00    4.40
   6   5 -10    4.60    4.10
   6   5 -10    2.40    3.40
  -6  -5  10   -0.20    3.20
  -6  -5  10   -5.30    3.60
   5   5 -10   -1.00    3.40
   5   5 -10    0.20    3.90
  -5  -5  10   -1.40    3.70
  -5  -5  10   10.30    5.10
   4   5 -10   22.90    6.90
   4   5 -10   19.80    5.50
   4   5 -10   20.70    3.70
  -4  -5  10   25.50    6.00
  -4  -5  10   24.70    3.00
  -4  -5  10   29.00    6.20
   3   5 -10   26.30    4.20
   3   5 -10   27.90    6.30
  -3  -5  10   17.40    4.60
  -3  -5  10   34.60    3.70
   2   5 -10   -5.00    2.60
   2   5 -10    2.90    2.60
   2   5 -10   -2.40    2.40
  -2  -5  10    2.20    2.30
  -2  -5  10    2.30    3.60
   1   5 -10    4.00    2.80
   1   5 -10    8.80    4.20
  -1  -5  10    2.20    3.40
  -1  -5  10    6.80    2.80
   0   5 -10   22.40    5.60
   0   5 -10   23.80    5.00
   0   5 -10   19.00    5.30
   0  -5  10   30.60    4.50
   0  -5  10   19.60    4.70
  -1   5 -10    1.90    4.40
  -1   5 -10    6.30    3.60
  -1   5 -10    2.20    3.20
   1  -5  10    2.00    3.30
   1  -5  10    4.50    3.10
  -2   5 -10   -1.40    3.30
  -2   5 -10    4.30    4.00
  -2   5 -10   -0.30    4.40
   2  -5  10    4.40    3.50
   2  -5  10    2.90    3.30
  -3   5 -10    1.20    4.30
  -3   5 -10    2.70    4.10
  -3   5 -10    3.90    4.90
   3  -5  10    2.90    3.90
   3  -5  10   -1.80    2.60
   4  -5  10   17.50    4.80
   9   4 -10    4.40    5.60
  -9  -4  10   14.50    6.00
   8   4 -10   10.20    5.90
   8   4 -10   24.70    7.50
  -8  -4  10    6.40    5.00
   7   4 -10    1.30    4.30
  -7  -4  10    1.30    3.70
  -7  -4  10    3.90    4.60
   6   4 -10    2.30    2.60
   6   4 -10    5.40    3.90
  -6  -4  10    0.20    2.90
  -6  -4  10    8.10    4.80
   5   4 -10   -0.40    2.10
   5   4 -10    8.20    5.40
  -5  -4  10    5.40    4.40
  -5  -4  10    5.70    4.10
  -5  -4  10   12.90    5.20
   4   4 -10    4.90    3.60
   4   4 -10    3.30    4.10
   4   4 -10    0.40    1.70
  -4  -4  10    7.10    4.30
  -4  -4  10    3.20    3.70
  -4  -4  10    0.10    3.80
   3   4 -10   81.99    9.50
   3   4 -10   83.59    6.70
   3   4 -10   85.29    5.40
  -3  -4  10   82.09    4.10
  -3  -4  10   71.19    6.90
   2   4 -10  149.19   11.50
   2   4 -10  147.09    9.10
   2   4 -10  151.38    7.70
  -2  -4  10  133.59    9.70
  -2  -4  10  149.49    6.40
   1   4 -10   18.10    4.00
   1   4 -10   11.30    4.90
   1   4 -10   13.70    3.40
  -1  -4  10   13.00    4.00
  -1  -4  10   16.50    3.10
   0   4 -10    0.20    2.50
   0   4 -10   -2.60    2.90
   0   4 -10    2.10    3.00
   0  -4  10    2.30    2.50
   0  -4  10    1.40    2.60
  -1   4 -10    2.20    2.90
  -1   4 -10   -0.20    3.50
  -1   4 -10    1.00    2.80
   1  -4  10    3.70    3.50
   1  -4  10    8.20    3.30
  -2   4 -10    6.10    4.80
  -2   4 -10    1.30    3.10
  -2   4 -10    2.20    2.90
   2  -4  10   -2.70    2.80
   2  -4  10    0.80    2.70
  -3   4 -10   11.10    4.70
  -3   4 -10    9.10    4.80
  -3   4 -10   16.10    5.20
   3  -4  10   24.70    5.20
   3  -4  10   14.20    4.50
  -4   4 -10   58.19    8.60
  -4   4 -10   45.40    8.20
  -4   4 -10   45.20    8.50
   4  -4  10   58.59    7.50
   4  -4  10   32.30    5.70
  -5   4 -10    4.60    5.40
   9   3 -10   -4.00    4.50
  -9  -3  10    1.70    5.00
   8   3 -10    0.70    4.50
   8   3 -10    5.30    4.40
  -8  -3  10   -3.70    3.90
   7   3 -10    1.80    3.10
   7   3 -10    9.10    4.90
  -7  -3  10   -1.10    4.70
   6   3 -10    3.30    3.80
   6   3 -10    1.00    2.70
  -6  -3  10    3.50    3.60
  -6  -3  10    4.90    4.60
  -6  -3  10    2.90    2.90
   5   3 -10   -0.70    2.80
   5   3 -10    4.10    2.90
  -5  -3  10    2.50    3.90
  -5  -3  10    6.90    4.00
  -5  -3  10    3.80    4.40
   4   3 -10   27.70    5.40
   4   3 -10   30.90    4.60
   4   3 -10   32.20    7.10
  -4  -3  10   24.50    5.20
  -4  -3  10   26.00    5.70
  -4  -3  10   30.90    5.40
   3   3 -10   36.00    3.00
   3   3 -10   25.50    4.40
   3   3 -10   29.80    5.90
  -3  -3  10   27.80    5.50
  -3  -3  10   30.40    5.90
  -3  -3  10   30.00    5.30
   2   3 -10   42.20    5.00
   2   3 -10   36.00    6.30
   2   3 -10   31.70    3.50
  -2  -3  10   26.70    5.10
  -2  -3  10   39.10    2.70
   1   3 -10   53.69    7.70
   1   3 -10   56.99    5.90
   1   3 -10   55.59    4.80
  -1  -3  10   57.29    4.00
  -1  -3  10   47.30    6.70
   0   3 -10   65.59    5.70
   0   3 -10   53.29    7.70
   0   3 -10   61.09    6.10
   0  -3  10   68.89    4.90
   0  -3  10   58.59    6.10
  -1   3 -10   -4.20    2.50
  -1   3 -10    0.90    2.20
  -1   3 -10   -0.30    2.20
   1  -3  10    3.60    2.70
   1  -3  10   -0.70    3.00
  -2   3 -10    6.80    4.20
  -2   3 -10   10.10    3.70
  -2   3 -10   16.10    5.10
   2  -3  10    7.30    3.00
   2  -3  10   11.80    4.20
  -3   3 -10   13.70    5.60
  -3   3 -10    2.50    2.80
  -3   3 -10   -1.60    3.50
   3  -3  10    3.70    3.50
   3  -3  10    8.70    3.60
  -4   3 -10   10.20    4.30
  -4   3 -10   16.20    5.30
  -4   3 -10   12.50    5.20
   4  -3  10   14.50    4.50
   4  -3  10    6.20    3.70
  -5   3 -10    1.20    4.30
  -5   3 -10   -1.90    4.10
  -5   3 -10    9.50    5.50
   5  -3  10    6.10    3.70
   5  -3  10    6.00    4.50
  -6   3 -10   35.50    8.00
  -9  -2  10   16.10    6.30
   8   2 -10    6.50    4.90
   8   2 -10    3.70    3.90
  -8  -2  10    0.20    4.60
   7   2 -10   23.90    6.30
   7   2 -10   17.30    5.60
  -7  -2  10   28.10    6.40
   6   2 -10    6.50    3.90
   6   2 -10    1.90    3.20
  -6  -2  10   -4.30    3.90
  -6  -2  10    3.00    2.60
  -6  -2  10   -0.60    4.30
   5   2 -10    4.10    4.30
   5   2 -10   10.20    3.20
   5   2 -10    4.80    2.80
  -5  -2  10    5.80    4.50
  -5  -2  10   13.60    5.00
  -5  -2  10    6.10    3.00
   4   2 -10   -2.40    1.90
   4   2 -10   -2.10    2.90
   4   2 -10    4.70    2.30
  -4  -2  10    4.10    3.00
  -4  -2  10   -0.50    2.60
  -4  -2  10    1.50    2.50
   3   2 -10    0.10    2.00
   3   2 -10    0.00    2.00
  -3  -2  10   -2.90    3.20
  -3  -2  10   -0.10    3.10
  -3  -2  10    5.40    3.70
   2   2 -10    0.00    1.10
   2   2 -10   -2.10    1.80
   2   2 -10   -0.60    1.80
  -2  -2  10   -1.00    3.30
  -2  -2  10    2.70    3.40
   1   2 -10    8.70    2.20
   1   2 -10   10.70    3.80
   1   2 -10    9.60    2.80
  -1  -2  10    6.00    3.00
  -1  -2  10    7.60    1.60
   0   2 -10   24.90    5.20
   0   2 -10   22.90    3.40
   0   2 -10   21.80    4.20
   0  -2  10   17.00    4.70
   0  -2  10   30.50    3.30
  -1   2 -10   39.30    5.90
  -1   2 -10   34.00    6.40
  -1   2 -10   28.50    4.30
   1  -2  10   31.10    5.70
   1  -2  10   34.20    3.90
  -2   2 -10    7.80    3.50
  -2   2 -10   10.60    3.70
  -2   2 -10   10.00    3.30
   2  -2  10   12.30    4.20
   2  -2  10   12.40    3.10
  -3   2 -10    9.50    3.60
  -3   2 -10    6.20    3.30
  -3   2 -10   12.20    4.10
   3  -2  10   12.70    3.60
   3  -2  10   11.00    3.90
  -4   2 -10    6.00    5.30
  -4   2 -10    5.20    3.60
  -4   2 -10    6.10    4.30
   4  -2  10    2.90    3.00
   4  -2  10    0.50    2.70
  -5   2 -10    0.10    5.30
  -5   2 -10    1.10    2.80
  -5   2 -10    2.60    3.70
   5  -2  10   -1.00    3.40
   5  -2  10    3.30    3.50
  -6   2 -10    4.60    4.60
  -6   2 -10    3.80    4.10
  -6   2 -10    4.10    3.70
   6  -2  10    1.00    4.20
   6  -2  10    8.70    4.00
  -7   2 -10    3.60    4.80
  -9  -1  10    1.80    5.20
   8   1 -10   12.40    5.60
  -8  -1  10   18.90    6.50
   7   1 -10    6.50    4.20
   7   1 -10    7.20    4.90
  -7  -1  10    4.70    4.70
   6   1 -10   12.20    4.50
   6   1 -10   11.80    5.40
  -6  -1  10    7.60    5.00
  -6  -1  10   14.00    4.20
   5   1 -10    8.40    4.20
   5   1 -10    4.40    2.90
   5   1 -10    4.80    2.40
  -5  -1  10   -3.40    3.80
  -5  -1  10    2.40    3.20
  -5  -1  10   -1.00    2.60
   4   1 -10    1.00    2.30
   4   1 -10    1.40    1.80
   4   1 -10   -0.80    2.60
  -4  -1  10    2.00    2.90
  -4  -1  10    2.50    3.00
  -4  -1  10   -2.10    3.00
   3   1 -10    8.40    2.90
   3   1 -10    7.00    3.10
  -3  -1  10    6.70    3.20
  -3  -1  10   11.80    3.80
  -3  -1  10    1.60    3.10
   2   1 -10    1.10    2.10
   2   1 -10    4.80    3.10
  -2  -1  10    4.50    4.00
  -2  -1  10    1.60    3.10
   1   1 -10   37.70    2.70
   1   1 -10   29.10    5.40
   1   1 -10   48.50    7.40
   1   1 -10   33.60    5.00
  -1  -1  10   47.00    6.10
  -1  -1  10   36.40    6.00
   0   1 -10   -0.50    2.50
   0   1 -10    4.40    2.60
   0   1 -10    5.60    2.00
   0   1 -10    6.60    3.20
   0  -1  10    5.90    1.70
   0  -1  10    3.20    2.70
  -1   1 -10   73.29    5.10
  -1   1 -10   87.49    9.00
  -1   1 -10   75.99    7.00
   1  -1  10   84.99    7.60
   1  -1  10   93.59    5.20
  -2   1 -10    3.40    2.80
  -2   1 -10    2.90    2.30
  -2   1 -10    5.00    3.00
   2  -1  10    9.90    2.80
   2  -1  10    9.20    4.00
  -3   1 -10    3.10    2.40
  -3   1 -10    3.80    2.70
  -3   1 -10    2.40    3.00
   3  -1  10    3.30    2.70
   3  -1  10    3.50    2.80
  -4   1 -10    8.50    3.70
  -4   1 -10    6.20    3.90
  -4   1 -10    4.30    3.00
   4  -1  10    4.60    3.20
   4  -1  10    7.60    3.70
  -5   1 -10    3.50    3.20
  -5   1 -10    4.00    3.10
  -5   1 -10    3.40    4.30
   5  -1  10    7.90    3.90
   5  -1  10    3.20    3.20
  -6   1 -10    2.20    2.80
  -6   1 -10    9.40    4.40
  -6   1 -10   -2.50    4.20
   6  -1  10    4.40    4.10
   6  -1  10   -3.30    2.70
  -7   1 -10    7.20    4.70
   7  -1  10   -2.00    3.10
   8   0 -10   -0.20    5.60
  -8   0  10    6.70    4.20
   7   0 -10    3.30    4.80
  -7   0  10    0.20    3.50
   6   0 -10    1.20    2.90
   6   0 -10    1.30    3.00
  -6   0  10    0.30    4.30
  -6   0  10   -0.60    2.50
   5   0 -10   -1.50    2.00
   5   0 -10    1.60    2.60
   5   0 -10    1.00    2.70
  -5   0  10    3.10    4.20
  -5   0  10    2.90    2.90
   4   0 -10    2.70    2.40
   4   0 -10    6.50    3.40
   4   0 -10    4.90    2.60
  -4   0  10    3.40    3.10
  -4   0  10    6.10    4.40
  -4   0  10    5.80    3.70
   3   0 -10    7.20    3.10
   3   0 -10   10.00    3.30
  -3   0  10   12.00    4.60
  -3   0  10   18.20    4.40
  -3   0  10   12.90    3.90
   2   0 -10   15.30    4.70
   2   0 -10   22.80    4.50
  -2   0  10   25.00    4.90
  -2   0  10   16.70    4.80
  -2   0  10   19.50    4.30
   1   0 -10    0.60    2.20
   1   0 -10    2.30    2.50
   1   0 -10    0.30    0.70
  -1   0  10    2.00    2.90
  -1   0  10    0.40    2.90
   0   0 -10    0.80    2.20
   0   0 -10    2.40    2.50
   0   0 -10    3.00    1.50
   0   0  10    2.60    1.00
   0   0  10   -0.60    3.10
   0   0  10   -0.10    2.70
  -1   0 -10    4.90    2.10
  -1   0 -10    5.10    3.50
   1   0  10    3.10    2.60
   1   0  10   10.40    2.10
  -2   0 -10    7.50    3.40
  -2   0 -10   11.10    2.80
   2   0  10   11.60    2.70
   2   0  10    2.40    3.50
  -3   0 -10    2.20    2.30
  -3   0 -10    1.30    3.10
  -3   0 -10    5.70    3.60
   3   0  10    2.90    2.70
   3   0  10   -1.10    2.20
  -4   0 -10    9.40    3.30
  -4   0 -10    8.30    4.00
  -4   0 -10    6.40    4.00
   4   0  10   14.50    4.80
   4   0  10    5.60    3.10
  -5   0 -10    0.90    3.70
  -5   0 -10    1.10    3.20
  -5   0 -10    3.90    3.10
   5   0  10    3.70    3.20
   5   0  10    0.30    3.20
  -6   0 -10    4.60    3.80
  -6   0 -10    1.10    2.70
  -6   0 -10   -5.80    4.70
   6   0  10    5.40    3.70
   6   0  10    4.40    3.70
  -7   0 -10    2.10    3.50
  -7   0 -10   39.40    9.20
  -7   0 -10    0.70    3.00
   7   0  10   -0.60    3.90
   7   0  10   -4.40    3.00
  -8   0 -10    5.40    4.20
   8   0  10    3.80    3.60
  -8   1  10    7.70    4.50
   7  -1 -10   18.10    8.30
   7  -1 -10   20.00    6.80
  -7   1  10   20.60    6.20
   6  -1 -10   13.80    6.80
   6  -1 -10   11.30    5.20
  -6   1  10   10.00    4.40
  -6   1  10    9.70    3.70
   5  -1 -10   14.00    4.70
   5  -1 -10    6.00    4.90
   5  -1 -10   11.10    3.90
  -5   1  10    7.30    3.10
  -5   1  10   14.50    5.50
   4  -1 -10    1.10    2.60
   4  -1 -10    5.70    3.40
   4  -1 -10    6.90    5.00
  -4   1  10    0.80    3.90
  -4   1  10    4.80    3.20
   3  -1 -10    8.40    4.70
   3  -1 -10    9.50    3.70
   3  -1 -10   16.20    4.30
  -3   1  10    7.10    3.60
  -3   1  10    3.70    2.50
  -3   1  10    7.50    3.30
   2  -1 -10    0.60    1.80
   2  -1 -10   -0.60    1.40
  -2   1  10   -2.30    2.20
  -2   1  10   -0.40    1.90
  -2   1  10    1.80    3.00
   1  -1 -10    5.90    3.50
   1  -1 -10    3.10    0.50
   1  -1 -10    2.00    2.90
  -1   1  10   -2.80    3.30
  -1   1  10    4.00    3.40
   0  -1 -10  207.18   15.30
   0  -1 -10  183.18    6.30
   0  -1 -10  179.08   10.80
   0   1  10  165.58    9.90
   0   1  10  184.88   10.50
  -1  -1 -10   23.30    2.80
  -1  -1 -10   24.20    5.00
  -1  -1 -10   19.80    4.50
   1   1  10   21.60    4.70
   1   1  10   25.20    5.20
   1   1  10   22.80    2.50
  -2  -1 -10    5.30    2.90
  -2  -1 -10    3.10    2.00
   2   1  10    7.90    3.30
   2   1  10    3.10    2.00
  -3  -1 -10    4.20    2.80
  -3  -1 -10    5.70    2.30
   3   1  10    3.00    2.40
   3   1  10    4.80    2.90
  -4  -1 -10    5.20    3.00
  -4  -1 -10    2.30    2.60
   4   1  10    7.30    4.10
   4   1  10    3.00    2.60
  -5  -1 -10    9.10    4.50
  -5  -1 -10    4.80    3.00
   5   1  10    4.80    3.20
   5   1  10    6.60    3.20
  -6  -1 -10   34.10    6.40
  -6  -1 -10   47.10    8.10
  -6  -1 -10   39.80    6.00
   6   1  10   38.90    5.80
   6   1  10   31.60    6.00
  -7  -1 -10   40.40    6.50
  -7  -1 -10   27.80    7.80
  -7  -1 -10   44.90    7.20
   7   1  10   40.30    6.60
   7   1  10   30.70    6.00
  -8  -1 -10    2.10    3.60
  -8  -1 -10   -7.90    6.90
  -8  -1 -10    3.50    4.90
   8   1  10    6.40    4.00
   7  -2 -10   12.20    6.50
  -7   2  10    4.80    5.30
   6  -2 -10   15.10    7.30
   6  -2 -10   29.50    7.10
  -6   2  10   12.60    4.60
   5  -2 -10   10.90    6.50
   5  -2 -10   18.50    5.50
  -5   2  10   23.70    5.50
  -5   2  10   15.40    3.70
   4  -2 -10    3.90    2.80
   4  -2 -10    0.60    4.10
  -4   2  10    2.10    3.20
  -4   2  10    1.40    2.60
   3  -2 -10    9.70    3.80
   3  -2 -10    9.80    5.00
   3  -2 -10    6.60    3.10
  -3   2  10    4.20    4.20
  -3   2  10    3.10    2.70
   2  -2 -10    6.50    3.20
   2  -2 -10    5.00    3.90
  -2   2  10    5.90    3.30
  -2   2  10    4.40    3.30
  -2   2  10    7.40    3.10
   1  -2 -10    5.70    2.40
   1  -2 -10   -0.20    0.60
   1  -2 -10   -0.10    2.60
  -1   2  10   -2.70    2.20
  -1   2  10   -1.20    2.60
  -1   2  10   -0.20    2.40
   0  -2 -10   38.50    2.60
   0  -2 -10   41.50    8.20
   0  -2 -10   38.40    6.20
   0   2  10   35.40    5.40
   0   2  10   39.60    5.70
  -1  -2 -10   63.19    6.60
  -1  -2 -10   70.99    9.20
  -1  -2 -10   76.59    4.20
   1   2  10   71.89    7.30
   1   2  10   64.89    6.30
   1   2  10   70.39    3.70
  -2  -2 -10    1.00    1.60
  -2  -2 -10   -2.70    2.60
  -2  -2 -10    1.10    2.70
   2   2  10   -1.50    1.80
   2   2  10    0.50    3.30
  -3  -2 -10    3.80    2.40
  -3  -2 -10    1.50    3.20
   3   2  10    1.60    3.60
   3   2  10    5.70    2.60
  -4  -2 -10   27.40    5.50
  -4  -2 -10   28.70    4.30
   4   2  10   35.40    4.60
   4   2  10   22.90    5.10
  -5  -2 -10   20.60    4.30
  -5  -2 -10   11.80    4.70
   5   2  10   19.40    4.10
   5   2  10    8.40    4.20
  -6  -2 -10    1.40    4.10
  -6  -2 -10   -0.40    2.80
   6   2  10    2.30    3.30
   6   2  10    2.80    3.70
  -7  -2 -10    0.30    3.00
  -7  -2 -10    7.40    3.90
   7   2  10    2.40    3.30
   7   2  10   -0.70    3.60
  -8  -2 -10   30.10    5.80
  -8  -2 -10   35.40    6.70
  -8  -2 -10   55.29    9.50
   8   2  10   41.20    7.20
   8   2  10   36.00    6.70
   9   2  10    4.80    4.00
  -7   3  10    3.10    3.90
   6  -3 -10    2.90    5.30
   6  -3 -10    8.00    6.10
  -6   3  10    3.80    3.90
   5  -3 -10    4.40    4.50
   5  -3 -10    0.00    3.50
  -5   3  10    3.60    3.90
   4  -3 -10    4.10    4.10
   4  -3 -10    8.50    5.50
  -4   3  10    5.60    2.90
  -4   3  10   10.00    4.90
   3  -3 -10   82.89    8.80
   3  -3 -10   80.89   12.40
  -3   3  10   77.39    6.40
  -3   3  10   93.09    8.20
   2  -3 -10   31.30    5.40
   2  -3 -10   35.80    2.20
   2  -3 -10   28.30    7.40
  -2   3  10   32.10    5.00
  -2   3  10   32.00    6.10
   1  -3 -10   18.40    1.80
   1  -3 -10   17.50    5.90
   1  -3 -10   20.90    4.00
  -1   3  10   22.20    5.20
  -1   3  10   18.10    4.00
   0  -3 -10   14.00    1.90
   0  -3 -10   10.20    4.40
   0  -3 -10   16.10    3.30
   0   3  10   14.70    1.40
   0   3  10   10.70    4.20
   0   3  10   16.30    3.20
   0   3  10   12.50    4.00
  -1  -3 -10   62.59    4.00
  -1  -3 -10   63.19    6.60
  -1  -3 -10   69.09    5.50
  -1  -3 -10   51.29    9.00
   1   3  10   47.30    6.80
   1   3  10   60.09    3.60
   1   3  10   63.99    6.70
  -2  -3 -10   -0.40    2.80
  -2  -3 -10   -0.30    2.80
  -2  -3 -10    0.90    1.70
   2   3  10   -0.50    3.10
   2   3  10   -5.30    2.90
   2   3  10   -0.20    1.80
  -3  -3 -10   41.50    4.30
  -3  -3 -10   35.50    5.70
  -3  -3 -10   47.20    7.20
   3   3  10   38.30    6.10
   3   3  10   41.20    4.40
  -4  -3 -10    4.50    3.90
  -4  -3 -10   10.60    3.10
   4   3  10   12.30    3.40
   4   3  10    7.80    4.30
  -5  -3 -10   40.20    6.50
  -5  -3 -10   38.20    4.90
   5   3  10   47.00    6.80
   5   3  10   46.80    5.60
  -6  -3 -10    9.30    3.20
  -6  -3 -10    4.60    3.30
   6   3  10    7.40    3.70
   6   3  10    8.80    4.40
  -7  -3 -10   -0.90    3.20
  -7  -3 -10   -1.00    2.90
   7   3  10   -2.00    3.30
   7   3  10   -3.30    2.90
  -8  -3 -10   14.90    5.00
  -8  -3 -10    2.30    5.50
   8   3  10   12.50    5.20
   8   3  10   19.60    5.80
  -9  -3 -10    3.10    3.80
   9   3  10   -4.90    3.20
   6  -4 -10   -8.00    5.00
  -6   4  10   -6.80    4.20
   5  -4 -10    0.60    5.90
   5  -4 -10   -5.30    4.20
  -5   4  10   -4.20    4.10
   4  -4 -10   11.00    6.10
   4  -4 -10   10.20    5.00
  -4   4  10    3.80    3.70
   3  -4 -10    1.40    1.30
   3  -4 -10   -1.80    3.30
   3  -4 -10    1.50    4.60
  -3   4  10    4.70    4.50
  -3   4  10    0.30    2.20
   2  -4 -10   13.50    2.10
   2  -4 -10   11.90    5.90
   2  -4 -10   13.90    4.40
  -2   4  10   16.70    4.10
  -2   4  10    8.40    3.60
  -2   4  10   17.20    4.60
   1  -4 -10   -2.10    3.20
   1  -4 -10    3.50    2.60
   1  -4 -10    0.10    1.10
  -1   4  10    2.10    3.60
  -1   4  10    2.80    1.20
  -1   4  10    1.70    2.10
  -1   4  10    1.60    2.30
   0  -4 -10   30.10    2.90
   0  -4 -10   42.90    8.30
   0   4  10   33.10    5.20
   0   4  10   37.20    5.70
   0   4  10   32.60    2.80
   0   4  10   38.90    6.00
  -1  -4 -10    1.50    2.40
  -1  -4 -10    0.40    3.10
  -1  -4 -10    0.80    1.60
   1   4  10   -0.40    3.00
   1   4  10    2.60    3.30
   1   4  10   -1.00    1.50
   1   4  10   -1.20    1.40
  -2  -4 -10   33.60    6.00
  -2  -4 -10   23.40    5.80
  -2  -4 -10   21.00    3.00
   2   4  10   24.70    3.30
   2   4  10   22.20    5.20
   2   4  10   28.10    4.50
   2   4  10   29.70    5.60
  -3  -4 -10    1.50    2.40
  -3  -4 -10    0.80    2.50
  -3  -4 -10    0.90    2.00
   3   4  10   -5.10    2.90
   3   4  10    2.50    2.40
   3   4  10    0.20    2.20
  -4  -4 -10    4.50    3.30
  -4  -4 -10    3.20    2.70
   4   4  10    2.40    2.90
   4   4  10    7.60    3.20
  -5  -4 -10   82.29    6.50
  -5  -4 -10   80.09    8.50
   5   4  10   63.89    8.40
   5   4  10   78.19    6.50
  -6  -4 -10    5.00    3.10
  -6  -4 -10    0.40    2.40
   6   4  10    2.80    3.20
   6   4  10   -0.50    4.00
  -7  -4 -10    6.20    3.50
  -7  -4 -10    3.30    4.20
   7   4  10   -0.40    3.30
   7   4  10    1.90    4.50
  -8  -4 -10    0.20    2.90
  -8  -4 -10   -6.70    3.00
   8   4  10    8.00    5.30
   8   4  10   -1.40    3.70
  -9  -4 -10    2.10    6.10
   9   4  10   17.10    5.60
   5  -5 -10   -5.50    4.90
  -5   5  10    0.30    3.40
   4  -5 -10   -8.20    3.90
   4  -5 -10    1.20    6.20
  -4   5  10   -0.30    4.30
   3  -5 -10    9.20    2.50
   3  -5 -10    6.50    5.30
  -3   5  10    3.70    3.60
   2  -5 -10    6.40    2.10
   2  -5 -10    0.20    4.60
  -2   5  10    3.50    2.80
  -2   5  10    1.30    3.20
   1  -5 -10    0.00    3.90
   1  -5 -10   -1.50    1.50
  -1   5  10   -0.90    2.40
  -1   5  10    0.70    1.70
  -1   5  10    3.20    3.80
  -1   5  10   -1.00    2.30
   0  -5 -10    7.00    4.20
   0  -5 -10    9.00    2.20
   0   5  10    6.80    2.90
   0   5  10    6.40    4.20
   0   5  10    7.10    2.30
   0   5  10    4.10    2.70
  -1  -5 -10   24.50    3.20
  -1  -5 -10   23.40    6.80
   1   5  10   22.90    4.70
   1   5  10   19.60    4.40
   1   5  10   25.80    3.30
   1   5  10   26.70    5.40
  -2  -5 -10    1.00    2.00
  -2  -5 -10   -3.90    2.60
  -2  -5 -10    1.60    2.60
   2   5  10   -2.80    3.10
   2   5  10    5.20    2.50
   2   5  10   -2.10    2.10
   2   5  10    1.10    3.30
  -3  -5 -10    4.10    3.60
  -3  -5 -10   -0.40    1.80
  -3  -5 -10    5.30    3.40
   3   5  10    3.50    2.50
   3   5  10    2.30    3.90
   3   5  10    0.80    2.20
   3   5  10   -1.60    3.10
  -4  -5 -10    7.40    6.60
  -4  -5 -10   30.20    4.40
  -4  -5 -10   25.70    5.10
   4   5  10   24.90    4.40
   4   5  10   17.70    4.00
   4   5  10   13.70    5.40
  -5  -5 -10    7.70    3.20
  -5  -5 -10   15.80    4.90
   5   5  10    9.70    3.50
   5   5  10    4.80    2.70
   5   5  10    8.70    5.00
  -6  -5 -10   50.29    7.80
  -6  -5 -10   51.19    6.20
   6   5  10   29.40    6.70
   6   5  10   48.60    6.60
  -7  -5 -10   20.70    4.70
  -7  -5 -10   17.70    5.00
   7   5  10   17.20    6.00
   7   5  10   22.90    5.10
  -8  -5 -10   13.70    5.40
  -8  -5 -10    4.50    3.60
   8   5  10    7.00    4.70
   8   5  10    7.40    5.40
  -9  -5 -10    8.10    5.20
  -9  -5 -10    5.80    3.90
   9   5  10   13.00    5.80
   9   5  10    7.60    4.50
  10   5  10    3.00    4.00
  -4   6  10   -4.60    2.70
   3  -6 -10    4.40    2.50
   3  -6 -10   -2.30    5.80
  -3   6  10    2.70    4.40
   2  -6 -10   -1.20    1.90
   2  -6 -10   -1.60    4.50
  -2   6  10    3.50    2.40
  -2   6  10   -0.10    3.90
   1  -6 -10   -1.20    1.80
   1  -6 -10   -2.70    2.70
  -1   6  10    0.80    2.20
  -1   6  10   -3.70    3.40
  -1   6  10    1.70    2.70
   0  -6 -10   -1.80    1.80
   0  -6 -10   -1.90    4.00
   0   6  10    0.90    3.60
   0   6  10    2.10    2.30
   0   6  10    2.30    3.20
  -1  -6 -10    2.00    4.30
  -1  -6 -10    4.10    2.30
   1   6  10    1.80    3.30
   1   6  10    3.60    2.50
   1   6  10    6.60    3.70
   1   6  10   -1.40    3.00
  -2  -6 -10    1.90    4.10
  -2  -6 -10    2.60    2.30
   2   6  10    1.90    3.50
   2   6  10   -0.10    3.40
   2   6  10   10.00    3.70
   2   6  10    4.10    2.70
  -3  -6 -10    0.00    2.30
  -3  -6 -10    1.40    3.40
  -3  -6 -10   -2.00    3.10
   3   6  10    2.60    2.80
   3   6  10   -2.00    3.70
   3   6  10   -0.50    2.60
   3   6  10    4.00    3.60
  -4  -6 -10    5.80    3.40
  -4  -6 -10   -5.90    5.60
  -4  -6 -10    4.20    2.70
   4   6  10   -2.80    2.40
   4   6  10    3.30    3.50
   4   6  10    4.20    2.80
  -5  -6 -10   15.00    3.70
  -5  -6 -10    7.50    4.40
  -5  -6 -10    5.50   10.00
   5   6  10    9.20    3.70
   5   6  10   15.00    3.70
   5   6  10    8.00    5.00
  -6  -6 -10    9.10    3.40
  -6  -6 -10    2.10    3.10
   6   6  10    6.80    3.80
   6   6  10    0.80    4.30
  -7  -6 -10    7.50    3.30
  -7  -6 -10   14.40    5.70
   7   6  10   18.30    6.10
   7   6  10   11.60    4.40
  -8  -6 -10   56.99    7.40
  -8  -6 -10   55.99    8.60
   8   6  10   56.39    7.70
   8   6  10   53.79    8.90
  -9  -6 -10    1.20    4.20
   9   6  10    1.20    4.00
  10   6  10   -3.40    4.30
   3  -7 -10    6.30    3.20
  -3   7  10   -4.00    4.20
   2  -7 -10    6.10    6.80
   2  -7 -10    4.80    2.60
  -2   7  10   13.00    3.50
  -2   7  10    8.30    4.20
   1  -7 -10    2.10    2.50
   1  -7 -10    0.60    4.20
  -1   7  10    1.30    2.70
  -1   7  10   -1.30    3.80
  -1   7  10    0.20    2.60
   0  -7 -10   24.70    3.90
   0  -7 -10   27.50    8.90
   0   7  10   32.50    6.30
   0   7  10   32.40    5.50
   0   7  10   30.70    4.40
  -1  -7 -10    7.10    2.70
  -1  -7 -10   13.20    6.70
   1   7  10    7.50    4.00
   1   7  10    7.60    3.30
   1   7  10   12.00    4.30
  -2  -7 -10   11.50    3.00
  -2  -7 -10    6.60    5.80
   2   7  10    7.30    3.90
   2   7  10    9.20    3.40
   2   7  10    8.40    3.40
   2   7  10    5.20    4.10
  -3  -7 -10   11.60    6.10
  -3  -7 -10    9.80    4.80
  -3  -7 -10    6.60    2.90
   3   7  10    8.50    3.70
   3   7  10   11.10    4.00
   3   7  10   16.70    4.20
   3   7  10   12.10    5.20
  -4  -7 -10    0.60    2.50
  -4  -7 -10    0.90    2.60
   4   7  10   -1.80    3.20
   4   7  10    0.40    2.90
   4   7  10   -1.40    2.90
  -6  -7 -10   -0.90    3.10
  -6  -7 -10    0.10    2.80
   6   7  10    1.40    3.30
  -7  -7 -10    1.60    4.10
  -7  -7 -10    6.70    4.00
   7   7  10    3.20    3.90
  -8  -7 -10   -3.80    3.50
  -8  -7 -10   -3.60    2.40
   8   7  10    4.50    4.30
  -9  -7 -10   -0.90    3.80
   2  -8 -10    0.30    2.70
  -2   8  10   -3.10    3.00
  -2   8  10    5.50    3.60
   1  -8 -10   22.10    4.30
   1  -8 -10   13.00    7.40
  -1   8  10   19.50    5.30
  -1   8  10   19.90    4.70
   0  -8 -10    0.40    2.50
   0  -8 -10   -0.10    5.80
   0   8  10    0.50    3.10
   0   8  10    0.20    4.00
   0   8  10    3.00    3.00
  -1  -8 -10   36.00    4.80
  -1  -8 -10   30.00    9.70
   1   8  10   25.80    5.80
   1   8  10   43.70    5.60
   1   8  10   23.70    5.70
  -2  -8 -10    2.90    2.80
  -2  -8 -10    4.00    6.10
   2   8  10    8.30    4.00
   2   8  10    3.20    3.10
   2   8  10    9.70    3.50
  -3  -8 -10   -2.40    5.40
  -3  -8 -10    2.40    2.70
   3   8  10    7.60    4.10
   3   8  10    4.90    3.40
   3   8  10   -0.90    3.00
  -4  -8 -10   11.00    3.70
  -4  -8 -10    7.90    4.00
   4   8  10   16.60    6.10
   4   8  10    9.70    4.00
  -5  -8 -10    1.20    3.00
  -5  -8 -10   -4.50    3.10
  -5  -8 -10  -32.10   12.80
   5   8  10    7.00    4.00
   5   8  10   -0.10    3.20
  -6  -8 -10    0.10    2.80
  -6  -8 -10    2.10    3.30
   6   8  10    3.70    3.50
   6   8  10   -3.70    3.20
  -7  -8 -10   14.30    5.20
  -7  -8 -10    1.80    3.60
   7   8  10   11.80    5.00
  -8  -8 -10    6.30    4.70
  -8  -8 -10    2.80    4.80
   8   8  10    5.50    5.10
  -9  -8 -10    3.20    3.40
  -1   9  10    3.80    4.00
   0  -9 -10    8.00    3.70
   0   9  10    6.90    4.90
   0   9  10    8.70    4.40
  -1  -9 -10   -5.40    2.60
  -1  -9 -10    4.10    5.40
   1   9  10    5.90    4.40
   1   9  10    2.10    3.40
   1   9  10   -0.90    3.50
  -2  -9 -10   -3.10    4.30
  -2  -9 -10    0.10    2.80
   2   9  10    0.50    3.30
   2   9  10   -2.30    3.50
   2   9  10    0.70    3.30
  -3  -9 -10   -0.50    7.20
  -3  -9 -10    2.70    3.30
   3   9  10    5.80    5.00
   3   9  10   11.10    4.10
   3   9  10    9.60    4.40
  -4  -9 -10   -1.80    2.60
  -4  -9 -10  -16.90    7.70
  -4  -9 -10   -0.80    2.80
   4   9  10    3.00    4.00
   4   9  10    4.60    3.90
  -5  -9 -10    3.70    3.60
  -5  -9 -10   -3.40    2.70
   5   9  10    3.30    4.50
  -6  -9 -10   10.40    4.50
  -6  -9 -10   12.00    5.10
  -6  -9 -10   11.60   21.40
   6   9  10    7.70    4.80
  -7  -9 -10    2.80    3.50
  -7  -9 -10    0.10    4.00
   7   9  10    9.10    5.40
  -8  -9 -10    2.90    5.00
  -9  -9 -10    6.10    5.00
   1  10  10   20.80    5.80
  -2 -10 -10    2.80    4.10
   2  10  10   -3.10    4.40
   2  10  10   -1.70    3.40
   2  10  10   12.80    4.60
  -3 -10 -10   -1.30    3.40
  -3 -10 -10  -19.40    8.60
   3  10  10    0.70    4.10
   3  10  10    0.00    4.30
  -4 -10 -10   11.40    4.60
  -4 -10 -10   10.80    4.40
   4  10  10   25.90    6.40
   4  10  10   21.00    5.60
  -5 -10 -10    7.50    4.30
  -5 -10 -10  -33.10   19.90
  -5 -10 -10   14.90    5.20
   5  10  10   12.60    5.70
  -6 -10 -10   63.69   25.30
  -7 -10 -10   18.90    6.40
  -8 -10 -10   31.30    7.30
   5   8 -11   27.40    5.90
  -5  -8  11   20.80    7.10
   4   8 -11    1.60    4.60
  -4  -8  11    3.10    3.60
  -4  -8  11   -3.60    4.70
  -3  -8  11    6.00    3.70
  -7  -7  11   12.10    6.70
   6   7 -11    4.60    5.40
  -6  -7  11   -3.70    4.90
   5   7 -11    7.20    5.70
   5   7 -11    0.80    3.20
  -5  -7  11    3.60    5.40
   4   7 -11   -4.50    2.90
   4   7 -11   -1.10    5.00
  -4  -7  11   -0.20    5.00
   3   7 -11   -1.90    3.50
   3   7 -11    1.70    3.50
  -3  -7  11    5.00    3.00
   2   7 -11   -1.20    3.90
  -2  -7  11   -0.10    2.90
   1   7 -11    3.00    4.40
  -1  -7  11    3.80    3.30
  -8  -6  11   -6.90    5.30
  -7  -6  11   -3.40    5.30
  -7  -6  11   -4.60    5.60
   6   6 -11    1.40    4.30
   6   6 -11    1.10    5.60
  -6  -6  11   -1.70    3.80
   5   6 -11   30.40    7.80
   5   6 -11   24.00    6.10
  -5  -6  11   39.20    7.20
   4   6 -11    6.40    3.90
   4   6 -11   15.30    6.60
   4   6 -11    9.30    3.40
  -4  -6  11    7.30    5.50
   3   6 -11    8.10    5.50
   3   6 -11   12.20    3.90
   3   6 -11   10.80    5.20
  -3  -6  11    6.50    4.90
  -3  -6  11    8.40    3.00
   2   6 -11   -3.00    3.00
   2   6 -11   -0.10    3.10
  -2  -6  11    4.60    4.40
  -2  -6  11    3.90    2.80
   1   6 -11   -3.20    3.20
   1   6 -11   -0.40    3.50
  -1  -6  11    5.60    3.20
  -1  -6  11    2.10    4.00
   0   6 -11    5.00    4.20
   0  -6  11   -1.90    3.70
   0  -6  11    1.60    3.30
   1  -6  11   -4.50    3.10
   1  -6  11   -0.40    4.00
  -8  -5  11    3.20    5.30
   7   5 -11    0.40    3.80
  -7  -5  11   -3.10    4.40
  -7  -5  11   -9.70    4.50
   6   5 -11    9.00    6.00
   6   5 -11    1.70    3.70
  -6  -5  11    5.10    4.00
  -6  -5  11    4.70    5.10
   5   5 -11    0.10    4.30
   5   5 -11    4.50    4.20
  -5  -5  11   -3.30    4.50
  -5  -5  11   -2.70    3.00
   4   5 -11   39.00    7.60
   4   5 -11   31.80    8.30
  -4  -5  11   42.30    7.90
  -4  -5  11   61.29    8.80
   3   5 -11   27.30    7.40
   3   5 -11   30.80    4.40
   3   5 -11   16.70    6.20
  -3  -5  11   33.80    6.30
   2   5 -11   -0.10    3.30
   2   5 -11    1.60    2.70
  -2  -5  11   -3.00    2.10
  -2  -5  11   -1.00    2.20
   1   5 -11    1.70    3.00
   1   5 -11    7.10    4.10
  -1  -5  11    1.70    2.50
  -1  -5  11    1.00    2.90
   0   5 -11   -0.40    3.40
   0   5 -11    1.10    3.60
   0   5 -11   -7.70    3.10
   0  -5  11    2.20    2.50
   0  -5  11    1.40    3.60
  -1   5 -11   -3.70    5.00
  -1   5 -11   -3.90    3.10
  -1   5 -11    4.20    3.40
   1  -5  11    2.80    3.40
   1  -5  11    2.60    3.10
  -2   5 -11    1.00    2.80
  -2   5 -11    0.80    4.10
   2  -5  11   -2.20    2.10
   2  -5  11   -0.80    3.40
  -3   5 -11    8.60    4.40
   3  -5  11   10.00    4.40
   8   4 -11    1.00    4.90
  -8  -4  11    2.50    4.80
   7   4 -11   -2.40    4.10
   7   4 -11    5.40    3.90
  -7  -4  11   -3.30    3.30
  -7  -4  11    5.70    5.30
   6   4 -11    2.20    3.60
   6   4 -11    6.60    3.80
  -6  -4  11    3.20    4.50
  -6  -4  11    3.30    5.20
   5   4 -11    0.20    4.40
   5   4 -11   -1.20    2.30
  -5  -4  11    1.10    4.60
  -5  -4  11    1.10    4.40
  -5  -4  11    3.50    4.50
   4   4 -11   -0.40    4.10
   4   4 -11   -1.10    3.70
  -4  -4  11   -3.00    3.80
  -4  -4  11    8.90    5.00
  -4  -4  11   -3.60    3.40
   3   4 -11   20.80    3.30
   3   4 -11   25.40    6.50
  -3  -4  11   23.80    5.20
   2   4 -11   -0.20    2.30
   2   4 -11    0.40    2.80
   2   4 -11    1.70    2.50
  -2  -4  11    5.00    2.00
  -2  -4  11    2.10    4.10
   1   4 -11   14.00    4.30
   1   4 -11   10.80    3.20
   1   4 -11    6.30    3.70
  -1  -4  11   13.60    2.90
  -1  -4  11   13.90    4.90
   0   4 -11    8.80    4.40
   0   4 -11   13.00    3.90
   0   4 -11    3.10    3.30
   0  -4  11   11.10    3.00
   0  -4  11    8.90    4.50
  -1   4 -11    1.10    3.50
  -1   4 -11    2.40    4.60
  -1   4 -11   -4.20    2.90
   1  -4  11   -2.00    2.60
   1  -4  11    0.40    2.70
  -2   4 -11   -6.80    3.80
  -2   4 -11    5.50    3.80
  -2   4 -11    1.70    4.40
   2  -4  11   -0.60    3.40
   2  -4  11    3.00    3.30
  -3   4 -11    5.80    4.50
  -3   4 -11    1.90    4.00
  -3   4 -11    2.40    5.20
   3  -4  11   -3.00    3.30
   3  -4  11    3.30    3.60
   4  -4  11    8.10    4.00
   8   3 -11    6.60    4.50
  -8  -3  11    7.70    5.60
   7   3 -11    6.80    5.10
   7   3 -11   -0.70    3.80
  -7  -3  11    2.60    4.40
   6   3 -11    0.90    4.10
   6   3 -11    0.80    2.90
  -6  -3  11   -2.80    4.20
  -6  -3  11   -1.60    3.90
  -6  -3  11    0.30    3.90
   5   3 -11    3.40    3.20
   5   3 -11   -1.20    2.80
  -5  -3  11    4.50    3.30
  -5  -3  11   -0.30    4.10
  -5  -3  11    1.40    4.30
   4   3 -11   -0.40    3.70
   4   3 -11   -1.80    2.80
  -4  -3  11    1.90    2.80
  -4  -3  11    0.40    4.10
  -4  -3  11    9.60    4.60
   3   3 -11    7.50    4.10
   3   3 -11    0.60    2.40
  -3  -3  11    6.50    4.40
  -3  -3  11    0.40    4.20
  -3  -3  11   -1.10    2.10
   2   3 -11    2.90    2.90
   2   3 -11    4.80    3.00
   2   3 -11    1.00    1.70
  -2  -3  11   -2.10    3.00
   1   3 -11  101.79   10.60
   1   3 -11   73.59    7.10
   1   3 -11   82.19    5.80
  -1  -3  11   66.59    7.00
  -1  -3  11   79.09    4.50
   0   3 -11   -1.90    2.60
   0   3 -11    3.20    3.00
   0   3 -11    0.20    2.40
   0  -3  11   -0.10    3.40
   0  -3  11   -1.80    2.00
  -1   3 -11   -5.40    2.70
  -1   3 -11   -1.30    2.50
  -1   3 -11    0.30    2.70
   1  -3  11   -1.00    2.40
   1  -3  11    0.70    2.50
  -2   3 -11    4.00    4.50
  -2   3 -11   -0.60    2.90
  -2   3 -11    4.30    3.30
   2  -3  11    1.80    3.10
   2  -3  11    3.80    3.80
  -3   3 -11    6.20    3.80
  -3   3 -11   10.50    4.70
  -3   3 -11   -1.90    5.50
   3  -3  11   20.30    4.40
   3  -3  11   12.20    4.70
  -4   3 -11    2.00    3.80
  -4   3 -11   -2.00    3.70
  -4   3 -11    1.50    4.40
   4  -3  11    0.60    3.70
   4  -3  11    5.00    4.20
   5  -3  11    5.90    4.00
   8   2 -11    4.20    4.50
  -8  -2  11    4.80    5.10
   7   2 -11    8.10    5.30
   7   2 -11   -0.50    3.70
  -7  -2  11    0.30    4.60
   6   2 -11    2.10    3.90
   6   2 -11   10.30    4.70
  -6  -2  11    2.70    4.60
  -6  -2  11    6.80    4.80
  -6  -2  11    2.60    3.50
   5   2 -11    0.90    2.60
   5   2 -11   -5.40    3.20
  -5  -2  11    4.40    3.10
  -5  -2  11    6.90    4.60
  -5  -2  11   -3.20    3.80
   4   2 -11   12.50    5.20
   4   2 -11   14.40    4.50
   4   2 -11   14.10    3.70
  -4  -2  11    9.00    4.10
  -4  -2  11   17.10    5.10
  -4  -2  11   15.70    5.20
   3   2 -11   -1.40    2.70
   3   2 -11    2.40    2.30
  -3  -2  11   -0.40    2.60
  -3  -2  11    2.40    3.30
  -3  -2  11   -0.10    3.50
   2   2 -11    4.80    3.10
   2   2 -11    7.20    3.00
  -2  -2  11    9.20    4.20
  -2  -2  11   12.00    3.90
   1   2 -11    1.80    2.20
   1   2 -11    1.40    1.80
   1   2 -11    2.70    3.80
  -1  -2  11   -2.10    3.40
   0   2 -11    1.00    2.10
   0   2 -11   -0.90    3.20
   0   2 -11    0.80    2.60
   0  -2  11   -1.40    1.70
   0  -2  11   -4.40    2.00
  -1   2 -11    2.30    2.60
  -1   2 -11    4.40    3.30
  -1   2 -11    2.80    3.10
   1  -2  11    3.60    2.30
   1  -2  11   -0.50    2.50
  -2   2 -11   -1.80    3.70
  -2   2 -11    3.50    2.80
  -2   2 -11    2.40    3.70
   2  -2  11   -1.00    3.00
   2  -2  11    4.60    2.70
  -3   2 -11   27.90    5.40
  -3   2 -11   13.30    4.70
  -3   2 -11   18.30    5.60
   3  -2  11   17.60    3.90
   3  -2  11    7.10    4.10
  -4   2 -11    0.60    3.40
  -4   2 -11   -6.20    5.20
  -4   2 -11    7.60    4.60
   4  -2  11    0.70    3.10
   4  -2  11    3.60    3.60
  -5   2 -11    1.10    4.30
  -5   2 -11    0.80    3.90
  -5   2 -11   -7.40    3.60
   5  -2  11    4.00    4.00
   5  -2  11   -4.40    3.00
  -6   2 -11    1.90    3.70
   6  -2  11    5.30    3.90
  -8  -1  11    5.10    4.30
   7   1 -11   12.20    6.00
   7   1 -11    5.30    4.70
  -7  -1  11    6.40    5.10
   6   1 -11    9.90    5.20
   6   1 -11    1.90    3.50
  -6  -1  11    3.30    2.70
  -6  -1  11   -2.90    2.90
   5   1 -11    6.20    4.00
   5   1 -11    1.00    3.70
   5   1 -11    4.70    3.10
   5   1 -11    1.40    3.00
  -5  -1  11    4.50    3.70
  -5  -1  11   -1.60    3.20
  -5  -1  11    3.10    4.00
   4   1 -11    1.00    2.60
   4   1 -11    1.20    2.70
   4   1 -11    3.50    3.50
  -4  -1  11   -3.80    3.00
  -4  -1  11    1.50    2.70
  -4  -1  11   -5.30    3.90
   3   1 -11   26.00    4.90
   3   1 -11   23.60    5.20
  -3  -1  11   18.90    4.70
  -3  -1  11   24.80    5.60
  -3  -1  11   30.90    5.90
   2   1 -11    5.70    3.40
   2   1 -11    2.40    2.80
   2   1 -11    4.60    3.70
  -2  -1  11    1.30    2.60
  -2  -1  11    1.60    4.00
   1   1 -11    9.80    3.70
   1   1 -11    9.10    4.20
   1   1 -11    9.90    1.70
   1   1 -11    4.90    3.20
  -1  -1  11    3.20    4.30
  -1  -1  11    3.40    3.90
   0   1 -11   17.40    2.80
   0   1 -11   21.70    5.00
   0   1 -11   15.40    4.60
   0  -1  11   21.50    2.30
   0  -1  11   10.90    3.70
  -1   1 -11    1.50    3.50
  -1   1 -11    3.50    3.20
  -1   1 -11   -1.50    1.90
   1  -1  11   -1.40    1.80
   1  -1  11    2.60    3.50
  -2   1 -11    9.90    4.30
  -2   1 -11    6.30    3.20
  -2   1 -11   12.00    3.10
   2  -1  11    9.40    2.90
   2  -1  11    8.00    4.40
  -3   1 -11    0.20    2.50
  -3   1 -11    2.40    4.10
  -3   1 -11   -2.00    2.30
   3  -1  11   -1.30    2.10
   3  -1  11    1.30    2.90
  -4   1 -11   22.50    5.50
  -4   1 -11   27.80    5.20
  -4   1 -11   27.60    6.60
   4  -1  11   23.10    4.70
   4  -1  11   24.70    5.20
  -5   1 -11   17.30    6.20
  -5   1 -11    7.90    4.80
  -5   1 -11    8.90    3.90
   5  -1  11    9.70    4.00
   5  -1  11    7.40    4.20
  -6   1 -11    7.00    5.00
  -6   1 -11   11.50    5.60
   6  -1  11   19.40    5.40
   6  -1  11   10.30    5.10
   7   0 -11   18.70    8.00
   7   0 -11   18.80    6.60
  -7   0  11   11.10    6.10
   6   0 -11    7.90    4.60
   6   0 -11    8.70    5.40
  -6   0  11    8.30    4.30
  -6   0  11    6.40    3.60
   5   0 -11    6.10    4.20
   5   0 -11    5.30    4.00
   5   0 -11    4.00    3.70
  -5   0  11   -5.00    2.30
  -5   0  11   -1.20    1.90
   4   0 -11    0.90    2.60
   4   0 -11   -2.90    1.50
   4   0 -11    4.00    3.20
   4   0 -11    4.80    3.80
   4   0 -11   -0.10    2.80
  -4   0  11   -0.60    2.90
  -4   0  11   -4.80    2.40
  -4   0  11    0.90    3.50
   3   0 -11    2.90    3.00
   3   0 -11    5.00    3.10
   3   0 -11    2.60    3.50
   3   0 -11    4.90    3.00
   3   0 -11   -1.00    2.40
  -3   0  11    1.70    3.00
  -3   0  11    4.40    2.90
  -3   0  11    8.80    4.60
   2   0 -11   10.90    3.80
   2   0 -11    7.90    4.20
   2   0 -11    2.70    3.30
  -2   0  11    7.50    4.00
  -2   0  11   13.40    5.00
  -2   0  11   11.30    3.90
   1   0 -11   -0.40    2.50
   1   0 -11   -1.40    1.80
   1   0 -11    3.10    3.00
  -1   0  11   -4.20    2.70
  -1   0  11   -3.40    3.50
   0   0 -11   51.59    3.50
   0   0 -11   42.30    6.60
   0   0 -11   32.00    5.60
   0   0  11   40.60    6.40
   0   0  11   45.10    6.70
  -1   0 -11    3.60    2.80
  -1   0 -11    5.60    3.60
  -1   0 -11    3.70    2.00
   1   0  11    2.80    1.70
   1   0  11    3.60    3.00
  -2   0 -11    3.90    2.50
  -2   0 -11    5.60    3.10
  -2   0 -11   11.30    4.30
   2   0  11    7.80    3.60
   2   0  11    9.80    2.70
  -3   0 -11   -0.40    2.40
  -3   0 -11    1.00    2.70
  -3   0 -11   -3.90    3.00
   3   0  11   -1.00    3.10
   3   0  11    0.00    2.30
  -4   0 -11    4.20    3.70
  -4   0 -11    0.20    3.80
  -4   0 -11    6.00    3.20
   4   0  11    7.40    3.20
   4   0  11   11.00    3.90
  -5   0 -11   12.00    4.20
  -5   0 -11   10.70    4.40
  -5   0 -11   15.20    4.60
   5   0  11   12.90    4.10
   5   0  11    7.70    3.80
  -6   0 -11    5.20    6.90
  -6   0 -11   -1.70    3.70
  -6   0 -11   -1.10    3.30
   6   0  11    1.10    3.50
   6   0  11   -4.20    3.40
  -7   0 -11   22.80    6.40
   7   0  11   27.70    5.80
   7  -1 -11   13.10    6.40
  -7   1  11    4.40    5.20
   6  -1 -11   26.80    6.50
   6  -1 -11   18.60    8.00
  -6   1  11   25.50    5.00
  -6   1  11   28.10    7.10
   5  -1 -11    7.50    4.30
   5  -1 -11    0.10    3.50
  -5   1  11    0.30    3.50
  -5   1  11    0.70    2.80
   4  -1 -11    2.90    3.30
   4  -1 -11    3.40    3.20
   4  -1 -11    2.30    3.90
  -4   1  11   -2.80    2.60
  -4   1  11   -2.60    2.90
   3  -1 -11    5.50    3.30
   3  -1 -11    5.00    4.00
   3  -1 -11   12.80    4.10
  -3   1  11    0.20    4.20
  -3   1  11   -1.30    2.90
  -3   1  11    4.40    3.20
   2  -1 -11   45.90    5.70
   2  -1 -11   36.00    6.00
   2  -1 -11   50.09    9.30
  -2   1  11   34.70    6.10
  -2   1  11   40.90    5.70
  -2   1  11   40.40    5.90
   1  -1 -11   -0.50    2.40
   1  -1 -11    2.70    3.00
  -1   1  11   -0.60    3.40
  -1   1  11    4.30    3.00
  -1   1  11   -1.00    3.70
   0  -1 -11   16.80    4.90
   0  -1 -11   18.70    4.30
   0  -1 -11   21.60    2.10
   0   1  11   10.30    4.70
   0   1  11   18.70    4.90
  -1  -1 -11   78.19    4.60
  -1  -1 -11   80.09    7.60
   1   1  11   69.19    6.90
   1   1  11   77.79    3.80
  -2  -1 -11    1.10    2.10
  -2  -1 -11   -0.30    3.10
   2   1  11   -0.70    3.50
   2   1  11   -0.30    1.60
  -3  -1 -11   -0.50    3.40
  -3  -1 -11    2.40    2.50
   3   1  11   -1.90    3.30
   3   1  11    1.10    2.40
  -4  -1 -11    2.20    2.80
  -4  -1 -11    1.30    3.60
   4   1  11   11.40    3.30
   4   1  11    5.90    3.60
  -5  -1 -11    5.40    5.00
  -5  -1 -11    5.70    3.40
  -5  -1 -11   10.50    4.60
   5   1  11    1.20    2.80
   5   1  11    5.70    3.30
  -6  -1 -11   -1.00    3.30
  -6  -1 -11    1.70    3.30
  -6  -1 -11   -0.50    4.20
   6   1  11    2.90    3.30
   6   1  11    4.50    3.50
  -7  -1 -11    4.00    4.10
  -7  -1 -11    9.80    5.10
  -7  -1 -11    0.90    6.70
   7   1  11   13.70    5.20
   7   1  11    9.10    4.80
  -8  -1 -11    8.90    5.20
   8   1  11    9.00    4.60
   6  -2 -11    3.50    5.40
   6  -2 -11    4.40    4.80
  -6   2  11   -3.70    4.20
   5  -2 -11   10.80    6.30
   5  -2 -11   14.10    5.20
  -5   2  11   16.80    4.30
  -5   2  11   10.90    5.30
   4  -2 -11    1.80    4.20
   4  -2 -11    0.10    2.20
  -4   2  11   -1.00    3.90
  -4   2  11   -0.50    2.70
   3  -2 -11   10.20    5.30
   3  -2 -11   14.30    4.10
   3  -2 -11    7.60    3.40
  -3   2  11   11.20    4.20
  -3   2  11    5.40    3.20
  -3   2  11   13.20    5.30
   2  -2 -11    5.10    3.00
   2  -2 -11    3.00    3.70
  -2   2  11    6.70    4.30
  -2   2  11    1.10    3.00
  -2   2  11    5.70    3.40
   1  -2 -11    4.30    3.80
   1  -2 -11    2.30    3.30
   1  -2 -11   11.20    3.10
  -1   2  11    4.70    3.50
  -1   2  11    5.30    2.80
  -1   2  11    0.70    2.20
   0  -2 -11   -2.30    2.30
   0  -2 -11    0.40    1.00
   0  -2 -11    5.70    2.20
   0  -2 -11    3.00    3.50
   0   2  11   -1.20    3.00
   0   2  11    0.80    3.90
  -1  -2 -11    3.10    1.70
  -1  -2 -11    2.40    3.20
  -1  -2 -11    0.70    3.40
   1   2  11   -2.60    2.10
   1   2  11    9.60    3.80
   1   2  11    1.80    1.30
  -2  -2 -11   10.40    4.00
  -2  -2 -11   11.80    2.70
   2   2  11   12.00    2.40
   2   2  11    7.10    4.20
  -3  -2 -11    2.50    2.40
  -3  -2 -11    2.90    2.90
   3   2  11    1.30    2.10
   3   2  11   -1.20    3.60
  -4  -2 -11    2.50    2.60
  -4  -2 -11    3.90    4.30
   4   2  11   -3.10    3.30
   4   2  11    4.60    3.00
  -5  -2 -11    0.60    2.80
  -5  -2 -11   -1.40    3.90
   5   2  11   -1.80    3.60
   5   2  11   -3.00    2.90
  -6  -2 -11    3.50    3.70
  -6  -2 -11    4.70    3.40
   6   2  11    2.80    3.30
   6   2  11    3.70    4.10
  -7  -2 -11   -1.30    3.70
  -7  -2 -11    2.00    3.80
  -7  -2 -11    1.80    4.20
   7   2  11    3.90    4.30
   7   2  11    5.60    4.40
  -8  -2 -11    6.30    4.70
   8   2  11    6.60    4.70
   6  -3 -11    0.80    5.40
  -6   3  11   -3.40    4.70
   5  -3 -11   -1.20    3.70
   5  -3 -11    2.50    4.40
  -5   3  11    2.00    5.00
   4  -3 -11   -2.10    4.20
   4  -3 -11    0.40    3.70
  -4   3  11   -7.00    3.70
  -4   3  11   -2.50    2.60
   3  -3 -11    4.00    4.50
   3  -3 -11    6.60    3.70
  -3   3  11    1.50    2.70
  -3   3  11    3.90    4.60
   2  -3 -11    9.10    3.60
   2  -3 -11    4.20    4.40
  -2   3  11    5.60    3.50
  -2   3  11    7.00    4.50
   1  -3 -11   15.10    5.90
  -1   3  11   11.00    4.70
  -1   3  11   18.10    4.60
   0  -3 -11    3.10    3.80
   0  -3 -11    2.90    3.70
   0  -3 -11    2.50    1.30
   0   3  11   -1.60    3.60
   0   3  11    3.90    3.60
  -1  -3 -11   -1.70    1.30
  -1  -3 -11    1.30    3.30
  -1  -3 -11   -2.20    2.10
   1   3  11    0.40    2.60
   1   3  11   -0.80    2.40
   1   3  11    0.90    1.30
  -2  -3 -11    5.20    3.80
  -2  -3 -11    3.80    2.10
  -2  -3 -11    8.00    3.50
   2   3  11    1.40    3.80
   2   3  11    7.90    2.30
  -3  -3 -11   69.09    5.30
  -3  -3 -11   53.69    6.80
   3   3  11   53.29    4.70
   3   3  11   59.89    8.10
  -4  -3 -11   62.19    5.60
  -4  -3 -11   56.49    8.30
   4   3  11   65.39    5.40
   4   3  11   64.39    8.50
  -5  -3 -11    0.80    2.80
  -5  -3 -11   -2.40    2.60
   5   3  11   -0.50    3.10
   5   3  11   -1.80    2.60
  -6  -3 -11    0.60    3.20
  -6  -3 -11   -2.60    2.10
   6   3  11    1.60    3.40
   6   3  11   -0.40    3.40
  -7  -3 -11    4.00    5.00
  -7  -3 -11   -0.60    3.80
   7   3  11    2.30    3.40
   7   3  11    2.60    3.70
   8   3  11   -2.40    4.10
  -5   4  11    0.00    3.50
   4  -4 -11    1.20    5.10
  -4   4  11    1.10    4.60
   3  -4 -11   -3.80    3.50
  -3   4  11    2.40    3.60
  -3   4  11    2.30    2.90
   2  -4 -11    1.00    4.30
  -2   4  11    1.20    4.20
  -2   4  11   -1.20    2.60
   1  -4 -11    3.20    4.40
  -1   4  11    0.90    2.90
  -1   4  11    0.60    3.00
   0  -4 -11    9.60    2.00
   0  -4 -11    8.80    5.00
   0   4  11   21.10    4.90
   0   4  11   15.40    4.10
  -1  -4 -11    1.50    3.60
  -1  -4 -11   -0.90    1.40
  -1  -4 -11   -1.30    2.10
   1   4  11    0.30    1.50
   1   4  11    5.90    4.20
   1   4  11   -3.70    2.10
  -2  -4 -11    2.50    3.50
  -2  -4 -11    5.30    3.20
  -2  -4 -11    0.80    1.80
   2   4  11   -0.20    2.60
   2   4  11   -2.00    3.50
   2   4  11    0.60    1.80
  -3  -4 -11    4.50    2.40
  -3  -4 -11    6.20    4.40
   3   4  11    5.80    4.30
   3   4  11    4.00    2.40
  -4  -4 -11    3.50    2.70
  -4  -4 -11    0.00    2.60
   4   4  11   -4.10    3.40
   4   4  11    3.20    2.70
  -5  -4 -11   64.59    6.50
  -5  -4 -11   44.60    7.10
   5   4  11   65.99    6.60
   5   4  11   42.60    7.10
  -6  -4 -11   40.10    7.30
  -6  -4 -11   26.20    4.80
   6   4  11   42.10    7.60
   6   4  11   38.70    5.90
  -7  -4 -11   -0.50    3.10
  -7  -4 -11    7.80    4.20
   7   4  11    3.70    4.70
   7   4  11    2.10    3.70
  -8  -4 -11    1.20    3.50
  -8  -4 -11    0.30    3.20
   8   4  11   -3.90    2.80
   8   4  11    2.10    4.40
   9   4  11   -4.40    4.40
  -4   5  11    6.00    5.40
   3  -5 -11   -1.20    3.30
  -3   5  11    1.70    4.50
   2  -5 -11   12.20    5.90
  -2   5  11   15.40    4.40
  -2   5  11    8.10    5.20
   1  -5 -11    7.70    5.80
  -1   5  11    9.30    4.90
  -1   5  11   15.00    4.20
   0  -5 -11    1.80    4.30
   0  -5 -11    2.20    1.80
   0   5  11    4.80    4.40
   0   5  11    9.40    3.60
  -1  -5 -11    1.20    2.70
  -1  -5 -11   -1.30    3.70
  -1  -5 -11    3.00    2.00
   1   5  11    4.80    4.20
   1   5  11    7.80    3.20
   1   5  11    2.60    1.90
   1   5  11    0.80    3.70
  -2  -5 -11   16.40    5.80
  -2  -5 -11   19.80    3.20
  -2  -5 -11   11.80    4.20
   2   5  11   13.10    3.00
   2   5  11   16.20    4.50
   2   5  11   23.40    5.90
   2   5  11   16.50    3.70
  -3  -5 -11    0.90    2.20
  -3  -5 -11    3.30    3.10
  -3  -5 -11    1.10    3.40
   3   5  11    2.20    2.80
   3   5  11    1.40    2.50
   3   5  11    5.30    3.50
  -4  -5 -11    4.80    2.90
  -4  -5 -11   -7.10    3.10
   4   5  11    2.50    3.50
   4   5  11    3.80    2.90
   4   5  11    1.10    2.90
  -5  -5 -11    7.00    4.50
  -5  -5 -11   -0.10    2.60
   5   5  11   -1.10    2.70
   5   5  11    0.30    3.20
  -6  -5 -11    7.30    3.50
  -6  -5 -11    0.80    2.80
   6   5  11   -1.40    2.90
   6   5  11   -1.20    3.40
  -7  -5 -11   -3.90    2.90
  -7  -5 -11    5.10    4.80
   7   5  11   -2.40    3.70
   7   5  11   -3.70    4.20
  -8  -5 -11    4.00    5.10
  -8  -5 -11    2.70    4.00
   8   5  11    2.90    4.20
   8   5  11    3.60    4.70
   9   5  11   -6.10    4.40
  -3   6  11    8.30    4.50
   2  -6 -11    5.10    6.40
  -2   6  11    2.80    4.70
   1  -6 -11   17.90    7.80
   1  -6 -11   19.00    3.20
  -1   6  11   17.00    4.70
  -1   6  11   20.30    5.20
   0  -6 -11   14.30    3.00
   0  -6 -11   18.10    7.40
   0   6  11   19.40    5.70
   0   6  11   15.80    4.90
  -1  -6 -11    1.70    2.40
  -1  -6 -11    5.00    5.40
   1   6  11    5.10    2.50
   1   6  11    7.30    4.30
   1   6  11    0.30    3.60
  -2  -6 -11    3.80    3.50
  -2  -6 -11    2.80    2.30
  -2  -6 -11   -3.10    4.00
   2   6  11    5.20    2.70
   2   6  11    0.80    3.80
   2   6  11    1.40    4.20
   2   6  11    4.00    3.40
  -3  -6 -11   -7.50    4.40
  -3  -6 -11    3.80    2.70
  -3  -6 -11    1.70    3.20
   3   6  11    2.50    3.30
   3   6  11    4.70    3.30
   3   6  11    2.00    2.80
   3   6  11    2.70    3.80
  -4  -6 -11    8.30    3.20
  -4  -6 -11   -0.20    2.80
   4   6  11    5.90    5.10
   4   6  11    0.30    2.60
   4   6  11    6.30    3.40
  -5  -6 -11   -2.00    3.70
  -5  -6 -11    0.10    2.60
   5   6  11    1.60    3.40
   5   6  11    2.40    3.10
  -6  -6 -11   -0.50    2.80
  -6  -6 -11   -0.40    3.10
   6   6  11   -4.60    4.50
   6   6  11    3.20    3.50
  -7  -6 -11    8.20    3.90
  -7  -6 -11    7.80    4.50
   7   6  11    9.00    4.90
   7   6  11   13.30    4.90
  -8  -6 -11   -1.80    4.00
  -8  -6 -11   -2.20    4.40
   8   6  11    2.50    3.90
   8   6  11    1.40    4.40
   9   6  11   -2.40    5.30
  -2   7  11   10.40    5.40
   1  -7 -11   -5.40    4.80
   1  -7 -11   -3.90    2.30
  -1   7  11    5.90    4.70
  -1   7  11   -0.30    2.70
   0  -7 -11   -0.40    2.30
   0  -7 -11    0.60    5.20
   0   7  11    5.00    4.50
   0   7  11   -2.50    2.50
  -1  -7 -11    6.80    2.90
  -1  -7 -11    7.80    6.40
   1   7  11    9.30    4.90
   1   7  11    5.30    3.80
   1   7  11    7.20    3.00
  -2  -7 -11    2.40    2.50
  -2  -7 -11    4.10    5.30
   2   7  11   -5.00    3.20
   2   7  11    3.40    3.10
   2   7  11   -1.80    2.50
  -3  -7 -11    9.80    3.30
  -3  -7 -11    4.40    5.30
  -3  -7 -11    3.00    4.20
   3   7  11    3.30    4.00
   3   7  11    2.90    3.30
   3   7  11   10.50    3.40
  -4  -7 -11  -10.20    6.20
  -4  -7 -11    3.30    4.00
  -4  -7 -11    0.00    2.50
   4   7  11    0.40    3.30
   4   7  11   -5.30    4.10
   4   7  11    3.10    3.10
  -5  -7 -11    1.00    4.00
  -5  -7 -11    2.50    3.20
   5   7  11   -1.70    4.50
   5   7  11    2.00    3.60
  -6  -7 -11   -1.00    2.80
  -6  -7 -11   -1.00    2.70
   6   7  11    0.90    3.40
   6   7  11   -0.20    3.90
  -7  -7 -11    2.70    3.70
  -7  -7 -11    6.00    4.10
   7   7  11   -1.20    5.40
   7   7  11    5.20    4.50
  -8  -7 -11    5.90    5.30
   8   7  11    2.00    5.40
   1  -8 -11   14.50    4.10
  -1   8  11   15.20    5.70
   0  -8 -11    1.60    5.00
   0  -8 -11   -0.30    2.90
   0   8  11    5.70    3.90
   0   8  11   -3.90    4.00
  -1  -8 -11   19.20    3.90
  -1  -8 -11    8.70    6.60
   1   8  11    4.30    4.30
   1   8  11    9.80    4.30
   1   8  11   15.40    3.80
  -2  -8 -11   -4.80    4.30
  -2  -8 -11    0.00    2.80
   2   8  11    1.50    3.10
   2   8  11   -2.40    3.60
   2   8  11   -4.40    3.70
  -3  -8 -11    1.10    6.00
  -3  -8 -11    9.90    3.70
  -3  -8 -11    5.50    4.10
   3   8  11    3.20    4.90
   3   8  11   -1.80    3.20
   3   8  11    7.80    4.80
  -4  -8 -11    3.20    3.00
  -4  -8 -11  -12.20    8.00
  -4  -8 -11    0.10    4.50
   4   8  11   -2.60    3.10
   4   8  11   -2.90    3.30
  -5  -8 -11    7.10    4.40
  -5  -8 -11    8.10    3.70
   5   8  11    3.80    3.80
   5   8  11    5.90    4.70
  -6  -8 -11   60.49    7.50
  -6  -8 -11   63.29    9.30
   6   8  11   71.99    9.90
   6   8  11   88.09    8.50
  -7  -8 -11    2.70    3.70
  -7  -8 -11    0.40    4.50
   7   8  11   -1.20    4.10
   7   8  11    2.50    5.40
   8   8  11   -4.80    5.30
  -1  -9 -11    2.50    3.70
   1   9  11    6.50    4.10
   1   9  11   14.20    5.20
   1   9  11   -1.80    3.10
  -2  -9 -11   -0.50    6.70
  -2  -9 -11    0.40    3.30
   2   9  11   -0.50    3.70
   2   9  11    4.80    4.40
   2   9  11    1.60    3.70
  -3  -9 -11   -9.30    6.60
  -3  -9 -11    1.10    3.60
  -3  -9 -11   -0.90    3.50
   3   9  11    1.50    4.00
   3   9  11    0.70    3.90
   3   9  11   -4.90    4.00
  -4  -9 -11   -1.60    3.50
  -4  -9 -11    0.80    5.00
   4   9  11   -0.70    5.00
   4   9  11    5.60    4.40
  -5  -9 -11    3.00    3.50
  -5  -9 -11    1.90    4.90
   5   9  11    1.80    5.40
   5   9  11    1.20    4.40
  -6  -9 -11   10.30    6.10
  -6  -9 -11    4.20    4.30
   6   9  11   17.70    7.40
   6   9  11   11.60    5.20
   7   9  11    6.50    4.30
   4  10  11    2.10    5.20
   5  10  11   16.70    5.80
   6   6 -12   -0.90    4.50
  -6  -6  12   -2.20    5.70
   5   6 -12    5.30    4.40
  -5  -6  12   26.80    7.80
   4   6 -12    1.70    4.00
  -4  -6  12    2.60    4.80
  -3  -6  12   -2.50    4.20
   2   6 -12    2.70    3.50
  -2  -6  12   -2.50    4.30
   1   6 -12    0.80    4.20
  -1  -6  12   -3.00    2.80
  -1  -6  12    2.40    3.20
   0  -6  12    1.80    3.60
   0  -6  12   -4.30    3.80
   6   5 -12   -0.30    3.90
  -6  -5  12   12.70    6.40
  -6  -5  12    5.20    5.50
   5   5 -12   -1.00    4.00
   5   5 -12    1.40    4.40
  -5  -5  12    0.80    4.90
   4   5 -12   22.60    7.10
   4   5 -12   24.00    7.00
  -4  -5  12   12.50    5.50
  -4  -5  12   22.80    5.90
   3   5 -12    7.20    5.50
   3   5 -12   -0.70    4.60
  -3  -5  12    2.50    4.20
  -3  -5  12    3.50    4.60
   2   5 -12    9.60    3.60
   2   5 -12    0.90    5.30
  -2  -5  12    2.60    3.40
   1   5 -12    0.40    3.10
   1   5 -12    1.40    3.80
  -1  -5  12    4.70    4.80
   0   5 -12    1.90    3.80
   0  -5  12    3.70    4.30
   0  -5  12    5.30    3.00
  -1   5 -12    4.70    4.90
   1  -5  12   10.40    4.20
   1  -5  12    6.30    5.00
  -7  -4  12   -7.70    4.10
  -7  -4  12   -1.10    4.90
   6   4 -12   -0.80    3.50
  -6  -4  12    3.60    4.30
  -6  -4  12   -0.60    5.00
   5   4 -12   -2.70    3.30
   5   4 -12    4.00    5.50
  -5  -4  12    1.90    5.20
  -5  -4  12    9.80    5.80
  -5  -4  12   -0.20    4.20
   4   4 -12    1.20    4.70
   4   4 -12    0.40    3.60
  -4  -4  12    2.40    3.50
  -4  -4  12   -2.60    2.90
   3   4 -12   11.20    5.30
   3   4 -12   11.90    4.80
  -3  -4  12   14.50    6.10
  -3  -4  12    8.90    4.60
   2   4 -12    8.20    5.10
  -2  -4  12    1.80    3.40
   1   4 -12    1.50    2.90
   1   4 -12   -1.40    4.30
   1   4 -12    0.10    3.30
  -1  -4  12   -6.10    1.60
   0   4 -12    3.10    5.10
   0   4 -12   -4.50    2.60
   0   4 -12   -4.40    3.80
   0  -4  12    5.90    3.70
   0  -4  12    1.20    2.40
  -1   4 -12   -9.00    4.60
  -1   4 -12    0.20    3.10
  -1   4 -12    3.00    3.70
   1  -4  12    3.80    3.20
   1  -4  12   -4.10    3.40
  -2   4 -12    7.10    6.20
  -2   4 -12   -0.90    3.70
   2  -4  12   -3.60    3.30
   2  -4  12    3.90    4.40
   3  -4  12    4.80    4.50
   7   3 -12    1.30    4.70
  -7  -3  12    7.10    5.60
   6   3 -12   11.70    5.00
   6   3 -12   -3.10    3.80
  -6  -3  12   11.50    5.80
  -6  -3  12    7.40    4.50
  -6  -3  12    4.00    4.90
   5   3 -12    1.80    3.50
   5   3 -12    8.60    4.40
  -5  -3  12    0.80    4.30
  -5  -3  12    1.10    4.60
  -5  -3  12    8.40    5.70
   4   3 -12   14.60    5.30
   4   3 -12    4.40    5.00
  -4  -3  12   11.60    4.40
  -4  -3  12   10.50    5.30
  -4  -3  12   12.00    4.30
   3   3 -12   -3.90    3.10
  -3  -3  12   -5.00    3.80
  -3  -3  12    3.90    4.30
   2   3 -12   19.10    4.40
   2   3 -12   25.60    6.30
  -2  -3  12   18.00    5.00
   1   3 -12    1.50    2.40
   1   3 -12    2.60    3.00
   1   3 -12   -0.50    3.80
  -1  -3  12   -3.20    3.80
   0   3 -12   10.20    3.70
   0   3 -12    4.70    4.60
   0   3 -12    0.90    2.70
   0  -3  12    6.00    2.40
   0  -3  12    4.00    4.40
  -1   3 -12    4.60    3.40
  -1   3 -12    2.70    4.40
  -1   3 -12    6.90    4.20
   1  -3  12   -0.80    3.60
   1  -3  12    1.40    2.50
  -2   3 -12    9.50    6.00
  -2   3 -12    4.00    3.50
  -2   3 -12   -1.70    4.90
   2  -3  12    4.30    3.40
   2  -3  12    7.10    4.50
  -3   3 -12   14.90    5.10
  -3   3 -12   18.00    6.40
   3  -3  12   20.20    5.70
   3  -3  12   27.10    5.20
   4  -3  12    5.20    4.40
   7   2 -12    5.40    5.00
  -7  -2  12   -3.00    4.70
   6   2 -12    8.60    3.50
   6   2 -12   -2.00    3.30
  -6  -2  12   -7.30    4.20
  -6  -2  12   -4.00    3.50
  -6  -2  12    5.00    4.70
   5   2 -12   10.00    3.50
   5   2 -12    2.60    3.40
   5   2 -12   -2.60    3.90
  -5  -2  12    0.20    4.60
  -5  -2  12    2.40    4.60
  -5  -2  12    8.10    3.80
   4   2 -12   -1.60    2.00
   4   2 -12    2.70    3.70
  -4  -2  12   -0.40    3.40
  -4  -2  12    2.50    4.40
  -4  -2  12   -2.20    3.70
   3   2 -12    3.40    2.70
   3   2 -12    4.10    3.40
  -3  -2  12    2.20    3.00
  -3  -2  12    8.60    4.80
  -3  -2  12    2.80    4.60
   2   2 -12    9.40    3.80
   2   2 -12    4.30    4.10
  -2  -2  12   12.40    4.40
   1   2 -12    3.70    4.00
   1   2 -12    1.50    2.30
  -1  -2  12    5.90    4.50
   0   2 -12   -1.40    2.60
   0   2 -12   -1.30    3.90
   0   2 -12   -2.60    2.10
   0  -2  12    2.20    3.00
  -1   2 -12   -1.90    2.30
  -1   2 -12    2.90    3.20
  -1   2 -12    0.30    4.40
   1  -2  12   -0.40    2.10
   1  -2  12    1.40    3.20
  -2   2 -12    4.60    3.20
  -2   2 -12    6.80    3.90
  -2   2 -12   -1.20    2.50
   2  -2  12    3.40    4.30
   2  -2  12    4.50    2.80
  -3   2 -12    3.10    3.90
  -3   2 -12   -7.90    4.50
  -3   2 -12   -2.00    2.90
   3  -2  12    0.70    3.70
   3  -2  12    0.30    3.10
  -4   2 -12   22.50    6.10
  -4   2 -12   21.50    6.70
  -4   2 -12    8.10    6.00
   4  -2  12   21.40    5.90
   4  -2  12   11.80    4.70
   5  -2  12    4.30    4.40
  -7  -1  12   -4.10    4.30
   6   1 -12    4.40    3.90
   6   1 -12    7.70    4.30
  -6  -1  12   -1.80    3.10
  -6  -1  12    0.40    4.80
   5   1 -12    6.50    3.60
   5   1 -12   15.20    4.80
   5   1 -12    2.50    3.70
  -5  -1  12    0.70    4.70
  -5  -1  12    5.40    3.30
  -5  -1  12    5.90    4.20
   4   1 -12    2.40    2.60
   4   1 -12    5.30    3.50
   4   1 -12    3.40    3.30
   4   1 -12    3.70    3.70
   4   1 -12   13.10    4.00
  -4  -1  12    4.20    3.90
  -4  -1  12    1.20    2.70
  -4  -1  12    2.20    4.80
   3   1 -12   -1.30    2.50
   3   1 -12   -0.60    2.30
   3   1 -12   -4.60    2.60
   3   1 -12    4.20    3.30
  -3  -1  12   -0.60    3.30
  -3  -1  12    6.70    3.90
  -3  -1  12   -0.90    2.70
   2   1 -12   -4.30    2.30
   2   1 -12   -3.70    2.90
  -2  -1  12    1.80    2.90
  -2  -1  12    6.50    4.10
  -2  -1  12    6.10    4.00
   1   1 -12    2.40    3.50
   1   1 -12    2.70    2.50
  -1  -1  12    4.30    4.50
   0   1 -12    4.30    3.70
   0   1 -12    3.30    2.10
   0   1 -12    0.40    2.70
   0  -1  12    3.90    3.20
  -1   1 -12   -0.90    2.20
  -1   1 -12    1.00    3.20
  -1   1 -12   -1.00    3.80
   1  -1  12   -4.30    3.00
   1  -1  12    1.20    1.80
  -2   1 -12    2.20    2.70
  -2   1 -12    0.60    2.60
  -2   1 -12    0.20    2.70
   2  -1  12    0.20    2.20
   2  -1  12    0.30    2.80
  -3   1 -12    4.40    3.70
  -3   1 -12    0.00    2.40
  -3   1 -12    3.40    2.90
   3  -1  12    0.50    4.10
   3  -1  12    2.30    3.00
  -4   1 -12    8.40    3.90
  -4   1 -12    1.30    5.40
  -4   1 -12    3.30    3.40
   4  -1  12    5.40    3.70
   4  -1  12    0.80    3.90
  -5   1 -12    4.00    5.20
  -5   1 -12    2.00    3.90
   5  -1  12   -0.40    3.50
   5  -1  12   -4.90    3.70
   6   0 -12    6.30    4.80
   6   0 -12   20.60    6.50
  -6   0  12    1.30    3.70
  -6   0  12    3.30    5.30
   5   0 -12   -0.20    2.80
   5   0 -12    8.70    4.20
   5   0 -12   -0.30    3.00
   5   0 -12   12.10    4.40
  -5   0  12    2.60    4.90
  -5   0  12   -1.50    3.20
   4   0 -12    4.60    4.00
   4   0 -12    0.00    2.80
   4   0 -12    0.20    3.00
   4   0 -12    1.00    2.70
   4   0 -12    3.40    2.30
  -4   0  12   -0.60    3.10
  -4   0  12   -3.80    4.10
  -4   0  12    2.90    3.80
   3   0 -12   10.20    4.00
   3   0 -12    7.80    4.20
   3   0 -12   16.10    4.00
   3   0 -12   13.10    5.40
   3   0 -12   11.30    4.80
  -3   0  12    7.30    4.10
  -3   0  12   11.00    4.70
  -3   0  12   14.20    5.80
   2   0 -12    0.30    3.40
   2   0 -12    5.60    3.50
   2   0 -12   -2.20    2.60
  -2   0  12    5.80    3.50
  -2   0  12    2.70    4.90
  -2   0  12   -3.60    3.30
   1   0 -12    5.50    3.10
   1   0 -12    3.30    3.80
  -1   0  12   10.20    4.40
  -1   0  12    5.60    4.80
   0   0 -12    3.60    3.20
   0   0 -12    0.80    2.40
   0   0  12    5.60    3.40
  -1   0 -12   -1.90    2.90
  -1   0 -12    2.20    3.40
  -1   0 -12    0.50    2.00
   1   0  12    3.20    4.20
  -2   0 -12   -0.40    3.30
  -2   0 -12   -2.50    3.20
  -2   0 -12    0.30    2.30
   2   0  12   -3.60    3.40
   2   0  12    0.70    2.00
  -3   0 -12    2.00    3.80
  -3   0 -12    1.90    4.10
  -3   0 -12    2.80    2.60
   3   0  12    6.20    3.40
   3   0  12    2.90    2.50
  -4   0 -12   18.10    5.40
  -4   0 -12   14.60    4.10
  -4   0 -12    9.10    5.00
   4   0  12   17.40    4.20
   4   0  12   17.60    5.60
  -5   0 -12   -1.40    3.40
  -5   0 -12   -1.50    2.60
  -5   0 -12    7.70    4.10
   5   0  12   -1.40    3.60
   5   0  12   -2.20    3.50
   6   0  12    0.40    3.80
   6  -1 -12    0.70    3.10
  -6   1  12   -2.50    3.00
  -6   1  12    6.70    4.20
   5  -1 -12   10.60    4.70
   5  -1 -12    8.20    5.60
  -5   1  12   -4.90    4.40
  -5   1  12   -5.30    2.10
   4  -1 -12    3.40    3.00
   4  -1 -12    0.80    3.50
   4  -1 -12    5.20    4.60
   4  -1 -12    9.90    3.90
  -4   1  12    2.10    3.70
  -4   1  12    1.60    4.90
   3  -1 -12    4.80    3.50
   3  -1 -12    0.50    3.20
   3  -1 -12   11.70    4.00
   3  -1 -12    5.60    4.30
  -3   1  12   -3.00    4.10
  -3   1  12    9.40    4.30
  -3   1  12    1.70    3.50
   2  -1 -12    1.00    2.30
   2  -1 -12   -0.70    2.60
   2  -1 -12    9.20    3.00
  -2   1  12    3.40    3.40
  -2   1  12   -2.70    2.00
  -2   1  12   -1.50    2.90
   1  -1 -12    4.60    3.90
   1  -1 -12    1.90    3.50
  -1   1  12    0.60    3.00
  -1   1  12   -0.20    3.20
  -1   1  12   -0.90    2.50
   0  -1 -12    0.60    3.50
   0   1  12    0.90    3.10
   0   1  12   -0.30    2.60
  -1  -1 -12   73.99    8.30
  -1  -1 -12   69.29    4.60
   1   1  12   78.99    8.20
  -2  -1 -12   23.80    3.60
  -2  -1 -12   22.20    5.70
   2   1  12   12.10    5.00
   2   1  12   17.90    2.80
  -3  -1 -12    6.10    2.90
  -3  -1 -12   -4.80    3.10
   3   1  12   -4.40    3.60
   3   1  12    0.00    2.20
  -4  -1 -12   14.10    3.70
  -4  -1 -12    2.40    3.90
  -4  -1 -12    2.30    3.40
   4   1  12    4.50    3.40
   4   1  12    1.30    2.90
  -5  -1 -12    2.60    3.70
  -5  -1 -12   -0.90    3.70
  -5  -1 -12    2.60    3.50
   5   1  12    4.60    3.20
   5   1  12    2.60    4.20
  -6  -1 -12    6.30    5.00
  -6  -1 -12    6.10    3.90
   6   1  12    4.30    3.90
   6   1  12   -0.80    2.90
   7   1  12    4.80    4.80
   6  -2 -12    5.00    5.10
   5  -2 -12    8.00    4.70
   5  -2 -12    1.40    4.90
  -5   2  12    2.50    3.00
  -5   2  12    3.60    4.00
   4  -2 -12    9.50    4.60
   4  -2 -12    6.80    5.90
  -4   2  12    3.40    3.70
  -4   2  12    6.20    3.70
   3  -2 -12    2.90    4.30
   3  -2 -12    4.10    3.30
  -3   2  12    0.80    3.40
  -3   2  12    4.70    3.90
   2  -2 -12    3.00    3.90
   2  -2 -12    2.40    3.90
  -2   2  12   -1.00    4.10
  -2   2  12    5.50    3.70
   1  -2 -12    0.20    3.40
   1  -2 -12    6.60    4.70
  -1   2  12    3.20    2.90
  -1   2  12    2.30    4.00
  -1   2  12    4.70    3.90
   0  -2 -12   37.20    8.80
   0  -2 -12   55.09    7.90
   0   2  12   43.10    6.90
   0   2  12   61.49    8.10
  -1  -2 -12    9.70    4.30
  -1  -2 -12    3.40    1.70
   1   2  12    9.10    4.70
  -2  -2 -12   16.20    3.00
  -2  -2 -12   18.60    5.00
   2   2  12   18.80    2.70
   2   2  12   17.60    5.60
  -3  -2 -12   29.80    4.20
  -3  -2 -12   37.80    6.70
   3   2  12   28.50    6.40
   3   2  12   34.00    4.10
  -4  -2 -12    0.20    2.70
  -4  -2 -12   -0.50    3.60
   4   2  12    4.10    2.80
   4   2  12    7.80    4.60
  -5  -2 -12    5.20    4.60
  -5  -2 -12    4.40    3.60
   5   2  12    0.00    3.00
   5   2  12   -0.10    4.10
  -6  -2 -12    3.00    3.70
  -6  -2 -12    3.70    4.00
  -6  -2 -12   -0.20    3.00
   6   2  12    6.50    4.30
   6   2  12    2.50    4.50
  -7  -2 -12   -2.30    4.40
   7   2  12    0.90    4.40
  -5   3  12    4.00    4.00
   4  -3 -12    9.30    6.50
  -4   3  12    5.60    3.40
  -4   3  12   11.60    5.80
   3  -3 -12   15.90    7.00
  -3   3  12    7.20    3.90
  -3   3  12   26.40    6.70
   2  -3 -12    1.40    4.40
  -2   3  12   -2.10    2.80
  -2   3  12   -2.70    4.10
   1  -3 -12   -3.80    2.20
   1  -3 -12    0.40    3.80
  -1   3  12    0.30    3.00
  -1   3  12   -3.40    3.80
   0  -3 -12   51.69    7.90
   0  -3 -12   53.19   10.30
   0   3  12   55.99    7.80
   0   3  12   55.19    7.40
  -1  -3 -12    6.60    4.60
   1   3  12    4.10    3.50
   1   3  12    4.70    4.90
  -2  -3 -12   -1.90    1.60
  -2  -3 -12   -4.60    3.30
   2   3  12   -6.00    3.10
  -3  -3 -12   -2.30    3.40
  -3  -3 -12    1.90    2.40
   3   3  12   -3.90    4.10
   3   3  12   -0.30    2.20
  -4  -3 -12   11.40    5.30
  -4  -3 -12    2.50    3.10
   4   3  12    4.60    2.90
   4   3  12    6.80    4.70
  -5  -3 -12    1.60    3.30
  -5  -3 -12    3.30    4.70
   5   3  12   -3.30    2.30
   5   3  12    3.90    3.30
  -6  -3 -12    4.40    5.00
  -6  -3 -12   -2.20    3.10
   6   3  12    2.70    3.70
   6   3  12    9.10    3.90
   7   3  12   24.10    6.10
   7   3  12   21.90    5.30
  -4   4  12    9.90    5.90
   3  -4 -12   -0.90    4.70
  -3   4  12   -2.50    2.70
  -3   4  12    0.50    4.90
   2  -4 -12   19.60    7.30
  -2   4  12   16.40    4.60
  -2   4  12   19.40    6.10
   1  -4 -12    8.70    5.60
  -1   4  12   13.00    4.50
  -1   4  12   17.20    5.00
   0  -4 -12    0.00    3.80
   0  -4 -12    3.60    4.50
   0   4  12    6.80    4.70
   0   4  12    4.00    4.00
  -1  -4 -12    5.60    4.60
  -1  -4 -12    5.60    3.50
   1   4  12   11.50    4.80
   1   4  12    4.10    4.80
  -2  -4 -12   -0.80    2.60
  -2  -4 -12    2.20    2.20
   2   4  12   -0.30    2.90
   2   4  12    2.00    3.10
  -3  -4 -12   -1.50    2.70
  -3  -4 -12    2.00    2.20
   3   4  12   -0.90    4.00
   3   4  12   -0.20    2.20
  -4  -4 -12    5.20    3.10
  -4  -4 -12   -1.40    2.60
   4   4  12    3.70    3.70
   4   4  12    7.30    3.10
  -5  -4 -12   60.79    6.30
  -5  -4 -12   50.29    7.90
   5   4  12   65.79    6.50
   5   4  12   62.99    8.80
  -6  -4 -12    2.00    3.50
  -6  -4 -12   -2.20    2.90
   6   4  12    0.80    3.60
   6   4  12   -3.80    3.20
  -7  -4 -12   -0.20    3.90
   7   4  12   -5.40    3.80
   7   4  12    6.20    4.40
   8   4  12    0.60    4.90
  -3   5  12    5.10    5.40
   2  -5 -12   -1.40    4.70
  -2   5  12    4.40    5.20
  -2   5  12    0.00    3.10
   1  -5 -12   -1.20    4.90
  -1   5  12    2.90    3.60
  -1   5  12    2.10    4.50
   0  -5 -12   -2.00    4.10
   0   5  12    8.50    4.80
   0   5  12   -2.10    2.10
  -1  -5 -12    0.50    4.50
  -1  -5 -12    2.60    3.40
   1   5  12    1.10    3.90
   1   5  12   -1.90    4.30
  -2  -5 -12    6.80    2.50
  -2  -5 -12    9.10    4.70
   2   5  12   10.00    4.80
   2   5  12    3.70    4.60
  -3  -5 -12    1.30    2.50
  -3  -5 -12   -1.10    3.80
   3   5  12    2.80    2.50
   3   5  12   -2.90    3.90
  -4  -5 -12    5.50    2.80
  -4  -5 -12    8.00    5.10
   4   5  12    6.20    3.20
   4   5  12    6.00    5.00
  -5  -5 -12   -2.40    2.40
  -5  -5 -12    3.70    4.50
   5   5  12    6.00    3.50
   5   5  12    3.00    4.80
  -6  -5 -12    5.50    3.50
  -6  -5 -12   -2.10    3.60
   6   5  12    1.10    3.70
   6   5  12    1.90    3.80
  -7  -5 -12    4.60    3.90
   7   5  12    7.30    4.20
   7   5  12    0.80    3.80
   8   5  12   -1.30    4.70
  -2   6  12    4.10    3.90
   1  -6 -12    0.20    5.50
  -1   6  12    0.20    3.20
  -1   6  12   -3.30    2.80
   0  -6 -12    4.50    5.90
   0   6  12    6.40    4.10
   0   6  12    3.50    4.80
  -1  -6 -12    3.90    5.20
  -1  -6 -12    3.40    2.50
  -1  -6 -12   -2.00    3.80
   1   6  12   -3.40    3.90
   1   6  12   -4.40    3.20
  -2  -6 -12   -0.50    2.90
  -2  -6 -12   -0.10    2.30
  -2  -6 -12    2.30    4.10
   2   6  12   -1.90    2.70
   2   6  12   -3.00    3.90
  -3  -6 -12   16.60    5.70
  -3  -6 -12    6.40    2.90
   3   6  12   14.20    5.60
   3   6  12   12.90    3.30
  -4  -6 -12   25.90    6.60
  -4  -6 -12   20.30    4.00
   4   6  12   21.30    5.70
   4   6  12   17.00    4.10
  -5  -6 -12   14.60    6.50
  -5  -6 -12   19.10    4.70
   5   6  12   17.90    4.50
   5   6  12   13.40    5.00
  -6  -6 -12   -0.30    3.10
  -6  -6 -12   -2.40    4.40
   6   6  12   -1.00    3.30
   6   6  12   -3.00    4.50
   7   6  12   11.50    6.10
   7   6  12    5.80    4.40
  -1   7  12    5.10    3.60
  -1   7  12   -5.70    3.90
   0  -7 -12    2.70    6.10
   0   7  12    0.90    3.10
   0   7  12    5.80    5.20
  -1  -7 -12    3.70    5.80
  -1  -7 -12    0.80    2.70
   1   7  12    3.10    3.90
   1   7  12   -0.50    4.50
  -2  -7 -12    3.30    2.80
  -2  -7 -12    7.50    5.60
  -2  -7 -12    9.30    5.60
   2   7  12   10.20    5.00
   2   7  12    7.40    4.80
  -3  -7 -12   -1.50    4.40
  -3  -7 -12    4.60    4.00
  -3  -7 -12    1.70    3.00
   3   7  12   -0.10    4.20
   3   7  12    2.10    4.60
   3   7  12    2.20    3.00
  -4  -7 -12   -0.70    2.70
  -4  -7 -12   -1.60    4.30
   4   7  12   -0.30    3.70
   4   7  12   -1.80    2.70
  -5  -7 -12   11.50    5.90
  -5  -7 -12    8.20    3.60
   5   7  12    7.90    3.60
   5   7  12    4.10    4.30
  -6  -7 -12   10.00    6.00
  -6  -7 -12    1.70    3.70
   6   7  12    1.00    5.30
   6   7  12    5.90    4.20
   7   7  12    2.20    4.00
  -1  -8 -12   -7.20    2.50
  -1  -8 -12    1.00    5.80
   1   8  12   -2.40    2.60
   1   8  12   -4.10    3.30
  -2  -8 -12    1.90    3.00
  -2  -8 -12   -3.40    5.10
   2   8  12    2.50    4.70
   2   8  12   -0.80    4.00
  -3  -8 -12   -3.60    7.40
  -3  -8 -12    7.70    3.70
   3   8  12    9.10    4.60
   3   8  12    9.80    3.80
   3   8  12    6.70    4.60
  -4  -8 -12   42.60    5.80
   4   8  12   58.39    6.90
   4   8  12   56.69    9.50
  -5  -8 -12   25.70    5.30
   5   8  12   35.70    6.10
   5   8  12   37.20    8.50
   6   8  12   17.80    7.30
   3   9  12    6.20    4.20
   4   9  12   -5.80    2.60
   4   9  12    2.60    4.20
  -4  -5  13    5.60    5.10
  -4  -5  13   -0.10    3.20
  -3  -5  13   -1.20    4.60
  -3  -5  13   -3.50    3.20
  -2  -5  13   -6.90    3.80
  -1  -5  13    1.50    4.70
   5   4 -13    3.40    5.20
  -5  -4  13   11.10    4.80
  -5  -4  13    4.70    3.90
   4   4 -13    3.00    5.00
  -4  -4  13   -0.50    4.70
  -4  -4  13   -0.90    4.40
   3   4 -13    6.80    5.90
  -3  -4  13    0.30    4.60
  -3  -4  13   -2.10    4.80
  -2  -4  13   -1.10    4.20
  -1  -4  13   -1.20    4.30
   0  -4  13    0.20    4.20
  -1   4 -13   -2.50    3.40
   1  -4  13    5.80    5.10
   5   3 -13    1.50    4.40
  -5  -3  13   -6.70    3.40
  -5  -3  13    3.40    5.60
  -5  -3  13    2.30    4.70
   4   3 -13    4.90    5.10
   4   3 -13    0.40    4.50
  -4  -3  13    7.50    5.10
  -4  -3  13    7.40    5.30
  -4  -3  13    5.90    6.00
   3   3 -13   -2.30    3.80
   3   3 -13    5.80    5.40
  -3  -3  13   -4.70    4.20
  -3  -3  13    0.20    3.30
   2   3 -13    0.30    4.30
  -2  -3  13    2.00    4.40
   1   3 -13   21.60    5.20
   1   3 -13   23.80    6.50
  -1  -3  13   11.90    5.10
   0   3 -13    5.70    3.80
   0   3 -13    1.70    3.50
   0  -3  13    6.30    5.20
  -1   3 -13   -3.60    4.00
  -1   3 -13   -3.90    2.80
   1  -3  13    0.20    4.30
  -2   3 -13    1.60    3.80
  -2   3 -13   -6.50    4.10
   2  -3  13    8.70    3.70
   2  -3  13   12.00    5.60
   6   2 -13    6.60    5.40
  -6  -2  13   -1.00    2.60
  -6  -2  13   -5.20    4.40
   5   2 -13    1.30    3.40
  -5  -2  13    1.50    5.10
  -5  -2  13    0.50    4.20
  -5  -2  13   -2.50    4.20
   4   2 -13    0.80    3.40
   4   2 -13    2.20    4.60
  -4  -2  13    1.50    4.70
  -4  -2  13   10.00    5.80
  -4  -2  13    0.70    4.10
   3   2 -13    1.50    3.50
   3   2 -13    0.10    3.90
  -3  -2  13   -2.70    3.70
  -3  -2  13   -1.20    4.80
  -3  -2  13   -4.60    3.60
   2   2 -13    4.00    4.80
   2   2 -13    0.80    3.00
  -2  -2  13    2.50    4.50
  -2  -2  13   -0.30    3.70
   1   2 -13   14.00    5.20
   1   2 -13   16.20    4.90
  -1  -2  13   22.50    5.60
   0   2 -13    7.90    4.40
   0   2 -13    2.50    3.80
   0  -2  13    2.70    3.60
  -1   2 -13    0.10    4.50
  -1   2 -13    3.60    3.00
  -1   2 -13    9.10    3.70
   1  -2  13   -1.50    3.80
  -2   2 -13    4.00    3.40
  -2   2 -13    7.60    4.90
   2  -2  13   -5.40    3.70
  -3   2 -13    6.40    4.60
   3  -2  13    8.90    5.30
   3  -2  13   18.30    4.30
   5   1 -13    7.90    4.70
   5   1 -13    1.60    4.10
  -5  -1  13    2.50    3.90
  -5  -1  13   -2.80    3.90
  -5  -1  13   -2.90    4.60
   4   1 -13    1.60    3.30
   4   1 -13    3.70    3.90
  -4  -1  13    1.10    3.10
  -4  -1  13    3.10    5.30
  -4  -1  13   -2.20    3.70
   3   1 -13    0.40    3.20
   3   1 -13   -2.60    3.10
   3   1 -13    3.70    4.20
  -3  -1  13   -2.50    4.30
  -3  -1  13   -3.10    3.50
  -3  -1  13    1.80    4.20
   2   1 -13    5.90    3.40
   2   1 -13    4.10    4.30
  -2  -1  13    6.00    5.30
  -2  -1  13    4.30    3.60
  -2  -1  13    2.50    3.90
   1   1 -13   -1.00    3.00
   1   1 -13   -0.80    3.50
  -1  -1  13   -5.70    3.30
   0   1 -13   11.90    4.40
   0   1 -13   10.20    5.10
   0  -1  13    1.40    3.20
  -1   1 -13    5.10    4.00
  -1   1 -13   -1.50    4.20
   1  -1  13    6.30    3.90
  -2   1 -13    5.20    3.30
  -2   1 -13    9.30    4.60
  -2   1 -13    9.80    3.90
   2  -1  13    4.00    4.30
  -3   1 -13    5.90    3.50
  -3   1 -13   16.00    5.80
   3  -1  13    2.20    4.20
   3  -1  13    7.50    3.20
  -4   1 -13    2.40    4.20
   4  -1  13    0.60    3.60
   4  -1  13    5.10    5.10
   5   0 -13    9.30    4.70
   5   0 -13    3.40    5.00
  -5   0  13    0.40    5.10
  -5   0  13   -2.30    3.20
   4   0 -13    4.40    3.80
   4   0 -13    1.90    3.10
   4   0 -13    2.30    3.80
   4   0 -13   10.10    3.90
   4   0 -13    7.80    4.70
  -4   0  13   -1.20    2.20
  -4   0  13   -1.20    3.80
  -4   0  13    4.10    4.70
   3   0 -13   -2.20    3.10
   3   0 -13    4.60    3.50
   3   0 -13    1.20    2.90
   3   0 -13   13.50    3.90
  -3   0  13   -0.30    3.20
  -3   0  13   -5.80    4.40
  -3   0  13   -8.30    3.10
   2   0 -13    5.50    3.50
   2   0 -13    0.00    3.00
  -2   0  13    5.30    3.70
  -2   0  13   -2.20    3.00
  -2   0  13    1.00    4.20
   1   0 -13    4.50    4.50
   1   0 -13    9.40    4.10
  -1   0  13   10.90    5.20
  -1   0  13    5.90    4.30
   0   0 -13    3.90    4.30
   0   0 -13    4.70    3.90
   0   0  13    1.70    3.20
  -1   0 -13    5.70    4.60
  -1   0 -13    1.40    2.90
   1   0  13   13.40    4.60
  -2   0 -13   13.10    4.90
  -2   0 -13   10.30    4.50
  -2   0 -13   18.60    3.80
   2   0  13   13.00    4.80
  -3   0 -13    6.10    5.00
  -3   0 -13    4.60    4.70
  -3   0 -13    0.70    3.00
   3   0  13    2.90    4.40
   3   0  13   -1.40    2.40
  -4   0 -13    1.30    3.60
  -4   0 -13    1.40    3.50
   4   0  13    1.80    3.30
   4   0  13    0.60    3.20
   5   0  13    2.10    3.40
   5  -1 -13    1.80    3.80
  -5   1  13    0.30    3.50
  -5   1  13    4.30    5.40
   4  -1 -13    4.60    3.10
   4  -1 -13    3.40    4.30
  -4   1  13    1.10    5.40
  -4   1  13    1.60    3.70
   3  -1 -13    2.80    3.80
   3  -1 -13    2.40    3.70
   3  -1 -13    0.20    2.20
   3  -1 -13    5.60    4.80
  -3   1  13    7.80    4.50
  -3   1  13   -0.10    3.90
  -3   1  13   -1.30    4.40
   2  -1 -13    0.50    3.30
   2  -1 -13    0.80    3.40
  -2   1  13   -0.80    3.20
  -2   1  13   -1.90    2.80
  -2   1  13    0.70    3.10
   1  -1 -13    8.50    4.30
  -1   1  13    2.00    5.10
  -1   1  13    1.20    3.00
  -1   1  13    4.90    3.50
   0  -1 -13    0.00    2.70
   0   1  13    0.50    3.90
  -1  -1 -13    0.40    3.30
   1   1  13    4.10    3.70
  -2  -1 -13    0.60    2.40
  -2  -1 -13   -3.10    2.50
  -2  -1 -13   -4.10    3.50
   2   1  13    0.20    2.80
  -3  -1 -13    0.60    4.00
  -3  -1 -13   -1.90    2.60
  -3  -1 -13    3.40    3.50
   3   1  13   -5.20    2.40
   3   1  13    2.70    2.60
  -4  -1 -13   -2.40    4.10
  -4  -1 -13    3.30    2.90
  -4  -1 -13    0.60    3.30
   4   1  13    0.50    2.60
   4   1  13   -1.60    4.00
  -5  -1 -13    0.30    3.20
   5   1  13    4.20    5.10
   5   1  13    2.60    3.30
   4  -2 -13    5.10    5.40
  -4   2  13   -2.00    3.20
  -4   2  13   -3.80    2.80
   3  -2 -13   -0.60    3.30
   3  -2 -13    1.70    4.10
  -3   2  13   -1.90    3.40
  -3   2  13   -1.90    3.50
   2  -2 -13   13.80    6.10
   2  -2 -13    7.30    4.60
  -2   2  13    7.30    3.80
  -2   2  13   11.90    5.70
   1  -2 -13    5.20    4.00
  -1   2  13   -5.90    2.70
  -1   2  13   -1.30    3.60
   0  -2 -13    3.40    3.60
   0   2  13    5.80    5.50
   0   2  13    5.80    3.50
   0   2  13    1.70    3.30
  -1  -2 -13    0.70    3.00
   1   2  13    2.60    4.40
  -2  -2 -13   11.50    5.40
   2   2  13   14.10    4.90
  -3  -2 -13    5.20    3.00
  -3  -2 -13    5.70    5.10
   3   2  13    1.80    3.60
  -4  -2 -13   11.00    3.70
  -4  -2 -13    5.80    3.80
   4   2  13    8.10    5.40
   4   2  13    6.80    3.00
  -5  -2 -13    5.50    3.70
   5   2  13    9.80    4.50
   5   2  13    1.90    3.50
   6   2  13    0.30    4.50
  -4   3  13   -3.30    2.90
  -4   3  13   -4.00    3.10
   3  -3 -13    1.00    4.70
  -3   3  13    2.80    3.60
  -3   3  13    1.30    5.00
   2  -3 -13    0.30    4.50
   2  -3 -13   -0.30    2.80
  -2   3  13    1.50    3.40
  -2   3  13    5.10    4.10
   1  -3 -13   -4.60    3.20
   1  -3 -13    0.20    4.30
  -1   3  13   -2.00    3.40
  -1   3  13    4.10    5.00
   0  -3 -13   12.50    5.00
   0   3  13    9.00    4.40
   0   3  13   15.50    5.30
  -1  -3 -13    7.40    3.70
   1   3  13   -4.40    3.70
   1   3  13    3.70    5.10
  -2  -3 -13   -3.10    2.60
   2   3  13    0.80    4.50
  -3  -3 -13    1.30    4.60
  -3  -3 -13    6.80    3.10
   3   3  13    5.20    5.00
  -4  -3 -13    0.80    4.70
  -4  -3 -13   -0.40    2.90
   4   3  13    2.20    2.60
   4   3  13    3.00    4.80
  -5  -3 -13   -1.60    2.80
   5   3  13    3.70    3.10
   5   3  13   -1.20    3.20
   6   3  13    4.00    4.10
   6   3  13    1.60    3.40
  -3   4  13    4.20    5.30
  -3   4  13    3.00    3.60
   2  -4 -13   13.10    7.00
  -2   4  13   15.00    4.80
  -2   4  13    6.90    5.30
   1  -4 -13    6.70    5.60
   1  -4 -13    1.00    4.20
  -1   4  13    6.70    4.40
  -1   4  13    6.10    4.20
   0  -4 -13    2.40    4.50
   0   4  13    8.00    5.50
   0   4  13    8.00    4.50
  -1  -4 -13   25.90    6.00
   1   4  13   19.50    6.00
   1   4  13   23.20    6.40
  -2  -4 -13   23.20    6.30
   2   4  13   16.30    5.10
  -3  -4 -13    4.10    2.90
  -3  -4 -13   -0.40    3.30
   3   4  13    4.20    4.60
  -4  -4 -13   -0.60    3.30
  -4  -4 -13   -1.80    2.30
   4   4  13    3.20    2.90
   4   4  13    2.40    3.80
  -5  -4 -13   -3.60    2.80
   5   4  13    1.80    3.00
   5   4  13    2.20    5.00
   6   4  13    0.90    3.90
   6   4  13   -0.10    3.40
  -2   5  13    4.70    5.40
  -2   5  13   -2.80    2.90
   1  -5 -13   11.30    6.90
  -1   5  13   23.20    5.80
  -1   5  13   16.90    5.70
   0  -5 -13    3.90    5.00
   0  -5 -13   -2.90    4.40
   0   5  13   -0.40    3.60
   0   5  13   -2.90    4.40
  -1  -5 -13    5.30    4.10
   1   5  13    3.00    4.40
   1   5  13   11.20    5.00
  -2  -5 -13    3.30    4.60
   2   5  13   -1.40    3.10
   2   5  13    2.10    3.50
  -3  -5 -13    8.00    4.30
  -3  -5 -13    2.60    2.90
   3   5  13    9.10    5.60
  -4  -5 -13   30.00    4.80
  -4  -5 -13   26.30    6.40
   4   5  13   20.10    4.30
   4   5  13   16.40    6.20
  -5  -5 -13   -5.40    2.90
   5   5  13    8.40    5.50
   5   5  13    0.90    3.00
   6   5  13    8.00    5.90
   6   5  13    4.50    3.70
  -1   6  13   -3.30    2.70
   0  -6 -13    3.50    6.30
   0   6  13   10.10    5.80
   0   6  13   10.90    4.90
  -1  -6 -13    5.90    6.40
   1   6  13    8.30    4.10
   1   6  13    2.30    3.80
   2   6  13   42.30    7.80
   2   6  13   30.00    6.60
  -3  -6 -13   14.60    3.80
   3   6  13   20.90    6.70
  -4  -6 -13   22.20    4.70
   4   6  13   48.30    8.70
  -5  -6 -13    5.10    3.90
   5   6  13   -1.10    4.90
   5   6  13   -1.70    3.50
   6   6  13    2.20    4.10
   6   6  13    2.70    4.10
  -1  -7 -13    5.10    5.90
   1   7  13    4.00    4.70
   1   7  13   -0.60    4.70
   2   7  13    4.60    4.60
   2   7  13    4.10    4.20
  -3  -7 -13   38.20    5.30
   3   7  13   16.80    6.40
  -4  -7 -13   10.10    4.00
   4   7  13   17.40    6.90
  -5  -7 -13   21.10    5.40
   5   7  13   13.30    6.70
   5   7  13   15.70    4.70
  -2  -3  14   12.40    5.30
  -1  -3  14   -3.10    2.80
  -3  -2  14    2.70    4.50
  -3  -2  14    3.80    3.80
  -2  -2  14    3.60    4.40
  -2  -2  14   -0.40    4.50
   1   2 -14   10.70    4.80
  -1  -2  14    7.20    4.30
   0   2 -14    2.30    4.00
   0  -2  14    5.50    4.20
  -1   2 -14    9.20    4.20
   1  -2  14    4.80    5.40
   3   1 -14    2.20    4.40
   3   1 -14    9.20    5.70
  -3  -1  14   -5.30    4.90
  -3  -1  14   -0.20    4.60
  -3  -1  14   -2.00    4.10
   2   1 -14    3.20    3.60
   2   1 -14   -3.80    2.70
  -2  -1  14   -2.10    3.20
  -2  -1  14    8.00    4.50
   1   1 -14    3.20    3.80
  -1  -1  14   -0.30    4.30
   0   1 -14    4.80    4.10
   0  -1  14   -0.70    3.10
  -1   1 -14    0.30    3.80
   1  -1  14   -0.30    3.40
   2  -1  14    0.30    4.80
   3   0 -14   -2.30    3.30
   3   0 -14    6.90    4.80
   3   0 -14    0.10    4.10
  -3   0  14   -0.70    4.20
  -3   0  14   -0.10    5.00
  -3   0  14   -4.30    4.00
   2   0 -14    0.50    4.50
   2   0 -14    4.70    4.00
  -2   0  14    6.70    4.40
  -2   0  14    4.10    4.90
  -2   0  14    3.50    5.00
   1   0 -14   -0.10    3.20
   1   0 -14    1.40    4.00
  -1   0  14   -3.20    3.00
  -1   0  14   -3.60    4.00
   0   0 -14    2.80    4.10
   0   0  14    2.40    4.50
  -1   0 -14    3.70    4.30
   1   0  14    1.30    4.30
   2   0  14    5.70    4.90
   3   0  14   -0.90    4.30
   3  -1 -14   10.00    4.50
   3  -1 -14    1.10    4.30
  -3   1  14   -1.70    5.00
  -3   1  14   13.40    5.60
   2  -1 -14   -0.20    3.00
   2  -1 -14    4.10    4.20
  -2   1  14   -0.80    4.40
  -2   1  14   -0.50    3.20
  -2   1  14   -0.90    3.60
   1  -1 -14    8.10    5.20
   1  -1 -14    1.40    4.10
  -1   1  14    3.80    3.70
  -1   1  14    2.40    5.30
  -1   1  14   -1.70    4.20
   0  -1 -14    2.40    4.00
   0  -1 -14   -2.60    2.80
   0   1  14    3.60    4.60
  -1  -1 -14    4.80    4.60
   1   1  14    5.60    5.00
  -2  -1 -14    3.40    5.20
   2   1  14    5.30    5.20
   3   1  14   -2.20    4.40
   3  -2 -14    4.50    4.40
  -3   2  14    4.20    4.50
   2  -2 -14    5.20    4.40
  -2   2  14   -0.20    5.00
  -2   2  14    0.90    4.20
   1  -2 -14    8.50    4.80
  -1   2  14    9.30    6.10
  -1   2  14    4.00    4.70
   0  -2 -14   30.50    6.50
   0   2  14   32.40    7.20
   0   2  14   32.10    6.80
  -1  -2 -14   -4.10    3.90
   1   2  14    2.80    3.80
  -2  -2 -14    0.10    3.40
   2   2  14    0.10    4.20
   3   2  14   10.90    4.60
  -4  -2 -14   -3.40    3.10
   4   2  14    5.10    5.20
  -2   3  14    1.70    4.20
  -2   3  14    1.60    5.20
  -1   3  14   -5.20    2.90
  -1   3  14   -0.90    3.80
   0  -3 -14   12.40    5.80
   0   3  14    5.10    4.80
   0   3  14    6.60    6.00
  -1  -3 -14   11.10    4.90
   1   3  14   13.30    6.10
   2   3  14    5.10    5.20
   3   3  14    5.50    4.90
  -4  -3 -14   -2.40    3.10
   4   3  14   -7.30    3.90
  -1   4  14   26.80    6.50
  -1   4  14   20.10    7.10
   0   4  14    8.70    5.10
   0   4  14    1.80    5.50
   1   4  14   37.30    7.60
   1   4  14   41.40    8.30
   2   4  14   -1.00    3.40
   3   4  14    2.40    5.00
   4   4  14    4.30    4.10
   1   5  14   13.00    5.60
   1   5  14   22.70    7.00
   2   5  14   32.10    7.20
   3   5  14   -0.40    5.10
   4   5  14    0.80    4.80

_computing_structure_solution     'SHELXT 2014/4 (Sheldrick, 2014)'
;
_shelx_hkl_checksum              38026
loop_
_space_group_symop_operation_xyz
'x, y, z'
'-x, -y, -z'
loop_
_atom_site_label
_atom_site_type_symbol
_atom_site_fract_x
_atom_site_fract_y
_atom_site_fract_z
_atom_site_U_iso_or_equiv
_atom_site_adp_type
_atom_site_occupancy
_atom_site_site_symmetry_order
_atom_site_calc_flag
_atom_site_refinement_flags_posn
_atom_site_refinement_flags_adp
C1 C 0.97410(18) 0.17261(18) 0.30713(14) 0.0326(3) Uani 1 1 d . .
C2 C 1.10714(19) 0.07794(19) 0.39731(16) 0.0391(4) Uani 1 1 d . .
H2 H 1.1886 -0.0250 0.3765 0.047 Uiso 1 1 calc R U
C3 C 1.1219(2) 0.1318(2) 0.51592(17) 0.0452(4) Uani 1 1 d . .
H3 H 1.2120 0.0659 0.5743 0.054 Uiso 1 1 calc R U
C4 C 1.0027(2) 0.2837(2) 0.54757(18) 0.0533(5) Uani 1 1 d . .
H4 H 1.0122 0.3219 0.6272 0.064 Uiso 1 1 calc R U
C5 C 0.8694(2) 0.3790(2) 0.46119(17) 0.0495(5) Uani 1 1 d . .
H5 H 0.7888 0.4816 0.4834 0.059 Uiso 1 1 calc R U
C6 C 0.85239(18) 0.32588(18) 0.34189(15) 0.0343(4) Uani 1 1 d . .
C7 C 0.68483(19) 0.59214(19) 0.21806(15) 0.0361(4) Uani 1 1 d . .
C8 C 0.8170(2) 0.6045(2) 0.15790(17) 0.0484(4) Uani 1 1 d . .
H8 H 0.9161 0.5102 0.1436 0.058 Uiso 1 1 calc R U
C9 C 0.8022(3) 0.7563(3) 0.1191(2) 0.0633(6) Uani 1 1 d . .
H9 H 0.8921 0.7637 0.0799 0.076 Uiso 1 1 calc R U
C10 C 0.6559(3) 0.8965(3) 0.1377(2) 0.0706(6) Uani 1 1 d . .
H10 H 0.6463 0.9987 0.1115 0.085 Uiso 1 1 calc R U
C11 C 0.5251(3) 0.8845(2) 0.1950(2) 0.0699(6) Uani 1 1 d . .
H11 H 0.4252 0.9794 0.2063 0.084 Uiso 1 1 calc R U
C12 C 0.5380(2) 0.7343(2) 0.23661(19) 0.0524(5) Uani 1 1 d . .
H12 H 0.4481 0.7284 0.2772 0.063 Uiso 1 1 calc R U
C13 C 0.56633(18) 0.40469(18) 0.27097(15) 0.0339(4) Uani 1 1 d . .
C14 C 0.4374(2) 0.4783(2) 0.17514(17) 0.0475(4) Uani 1 1 d . .
H14 H 0.4385 0.5525 0.1069 0.057 Uiso 1 1 calc R U
C15 C 0.3079(2) 0.4419(3) 0.18084(19) 0.0576(5) Uani 1 1 d . .
H15 H 0.2223 0.4920 0.1162 0.069 Uiso 1 1 calc R U
C16 C 0.3033(2) 0.3332(2) 0.2801(2) 0.0550(5) Uani 1 1 d . .
H16 H 0.2157 0.3090 0.2830 0.066 Uiso 1 1 calc R U
C17 C 0.4293(2) 0.2608(2) 0.3751(2) 0.0529(5) Uani 1 1 d . .
H17 H 0.4273 0.1865 0.4427 0.063 Uiso 1 1 calc R U
C18 C 0.5597(2) 0.29662(19) 0.37173(17) 0.0428(4) Uani 1 1 d . .
H18 H 0.6435 0.2476 0.4379 0.051 Uiso 1 1 calc R U
C19 C 0.9799(2) 0.09924(19) 0.17901(16) 0.0388(4) Uani 1 1 d . .
N1 N 0.86470(19) 0.1852(2) 0.08390(15) 0.0487(4) Uani 1 1 d . .
N2 N 0.70564(15) 0.43301(15) 0.25901(12) 0.0352(3) Uani 1 1 d . .
O1 O 1.09459(18) -0.03792(16) 0.16340(14) 0.0765(5) Uani 1 1 d . .
H1B H 0.870(2) 0.138(2) 0.006(2) 0.058(5) Uiso 1 1 d . .
H1A H 0.779(3) 0.286(3) 0.098(2) 0.068(6) Uiso 1 1 d . .
loop_
_atom_site_aniso_label
_atom_site_aniso_U_11
_atom_site_aniso_U_22
_atom_site_aniso_U_33
_atom_site_aniso_U_23
_atom_site_aniso_U_13
_atom_site_aniso_U_12
C1 0.0314(8) 0.0333(8) 0.0355(8) -0.0029(6) 0.0025(6) -0.0178(7)
C2 0.0341(8) 0.0340(8) 0.0447(9) -0.0011(7) 0.0002(7) -0.0135(7)
C3 0.0414(9) 0.0461(10) 0.0459(9) 0.0047(8) -0.0128(7) -0.0206(8)
C4 0.0618(12) 0.0526(11) 0.0444(10) -0.0115(8) -0.0121(8) -0.0249(9)
C5 0.0487(10) 0.0404(10) 0.0497(10) -0.0144(8) -0.0066(8) -0.0118(8)
C6 0.0306(8) 0.0335(8) 0.0379(8) -0.0038(6) -0.0021(6) -0.0147(7)
C7 0.0380(8) 0.0372(9) 0.0332(8) -0.0023(6) -0.0044(6) -0.0182(7)
C8 0.0414(9) 0.0566(11) 0.0506(10) -0.0032(8) -0.0013(8) -0.0267(9)
C9 0.0673(14) 0.0788(15) 0.0621(12) 0.0126(11) -0.0090(10) -0.0529(13)
C10 0.0858(16) 0.0529(13) 0.0807(15) 0.0192(11) -0.0229(12) -0.0429(13)
C11 0.0678(14) 0.0374(11) 0.0937(16) 0.0025(10) -0.0049(12) -0.0182(10)
C12 0.0481(10) 0.0374(10) 0.0651(12) -0.0036(8) 0.0073(9) -0.0161(8)
C13 0.0305(8) 0.0327(8) 0.0368(8) -0.0098(6) 0.0033(6) -0.0131(6)
C14 0.0439(9) 0.0623(11) 0.0399(9) 0.0010(8) -0.0039(7) -0.0294(9)
C15 0.0457(10) 0.0790(14) 0.0539(11) -0.0049(10) -0.0095(8) -0.0346(10)
C16 0.0437(10) 0.0588(12) 0.0720(13) -0.0121(10) 0.0045(9) -0.0316(9)
C17 0.0477(10) 0.0419(10) 0.0684(12) 0.0003(9) 0.0074(9) -0.0224(8)
C18 0.0358(9) 0.0355(9) 0.0502(10) -0.0004(7) -0.0010(7) -0.0124(7)
C19 0.0385(9) 0.0358(9) 0.0394(9) -0.0080(7) 0.0042(7) -0.0151(7)
N1 0.0480(9) 0.0469(9) 0.0381(8) -0.0148(7) -0.0041(7) -0.0104(7)
N2 0.0293(6) 0.0311(7) 0.0426(7) -0.0030(5) -0.0033(5) -0.0125(5)
O1 0.0726(10) 0.0563(9) 0.0583(8) -0.0256(7) -0.0125(7) 0.0064(7)
loop_
_atom_type_symbol
_atom_type_description
_atom_type_scat_dispersion_real
_atom_type_scat_dispersion_imag
_atom_type_scat_source
C C 0.0033 0.0016 'International Tables Vol C Tables 4.2.6.8 and 6.1.1.4'
H H 0.0000 0.0000 'International Tables Vol C Tables 4.2.6.8 and 6.1.1.4'
N N 0.0061 0.0033 'International Tables Vol C Tables 4.2.6.8 and 6.1.1.4'
O O 0.0106 0.0060 'International Tables Vol C Tables 4.2.6.8 and 6.1.1.4'
loop_
_geom_angle_atom_site_label_1
_geom_angle_atom_site_label_2
_geom_angle_atom_site_label_3
_geom_angle
C2 C1 C6 117.67(14)
C2 C1 C19 115.62(13)
C6 C1 C19 126.68(13)
C3 C2 C1 122.09(15)
C3 C2 H2 119.0
C1 C2 H2 119.0
C4 C3 C2 119.50(15)
C4 C3 H3 120.2
C2 C3 H3 120.2
C5 C4 C3 119.67(16)
C5 C4 H4 120.2
C3 C4 H4 120.2
C4 C5 C6 121.44(16)
C4 C5 H5 119.3
C6 C5 H5 119.3
C5 C6 C1 119.62(14)
C5 C6 N2 117.46(13)
C1 C6 N2 122.92(13)
C12 C7 C8 118.76(16)
C12 C7 N2 122.56(14)
C8 C7 N2 118.68(14)
C9 C8 C7 120.22(18)
C9 C8 H8 119.9
C7 C8 H8 119.9
C10 C9 C8 120.51(19)
C10 C9 H9 119.7
C8 C9 H9 119.7
C11 C10 C9 119.34(19)
C11 C10 H10 120.3
C9 C10 H10 120.3
C10 C11 C12 121.1(2)
C10 C11 H11 119.4
C12 C11 H11 119.4
C11 C12 C7 120.01(18)
C11 C12 H12 120.0
C7 C12 H12 120.0
C18 C13 C14 118.31(15)
C18 C13 N2 121.55(14)
C14 C13 N2 120.01(14)
C15 C14 C13 120.24(16)
C15 C14 H14 119.9
C13 C14 H14 119.9
C16 C15 C14 121.04(17)
C16 C15 H15 119.5
C14 C15 H15 119.5
C17 C16 C15 119.08(17)
C17 C16 H16 120.5
C15 C16 H16 120.5
C16 C17 C18 120.78(17)
C16 C17 H17 119.6
C18 C17 H17 119.6
C13 C18 C17 120.54(16)
C13 C18 H18 119.7
C17 C18 H18 119.7
O1 C19 N1 121.13(15)
O1 C19 C1 119.12(15)
N1 C19 C1 119.72(14)
C19 N1 H1B 118.7(11)
C19 N1 H1A 119.6(13)
H1B N1 H1A 121.7(17)
C13 N2 C7 121.38(12)
C13 N2 C6 117.55(12)
C7 N2 C6 115.58(12)
loop_
_geom_bond_atom_site_label_1
_geom_bond_atom_site_label_2
_geom_bond_distance
C1 C2 1.393(2)
C1 C6 1.398(2)
C1 C19 1.506(2)
C2 C3 1.373(2)
C2 H2 0.9300
C3 C4 1.373(2)
C3 H3 0.9300
C4 C5 1.372(2)
C4 H4 0.9300
C5 C6 1.383(2)
C5 H5 0.9300
C6 N2 1.4453(18)
C7 C12 1.384(2)
C7 C8 1.385(2)
C7 N2 1.4280(19)
C8 C9 1.379(3)
C8 H8 0.9300
C9 C10 1.372(3)
C9 H9 0.9300
C10 C11 1.360(3)
C10 H10 0.9300
C11 C12 1.377(3)
C11 H11 0.9300
C12 H12 0.9300
C13 C18 1.381(2)
C13 C14 1.390(2)
C13 N2 1.4194(19)
C14 C15 1.379(2)
C14 H14 0.9300
C15 C16 1.369(3)
C15 H15 0.9300
C16 C17 1.367(3)
C16 H16 0.9300
C17 C18 1.384(2)
C17 H17 0.9300
C18 H18 0.9300
C19 O1 1.2258(19)
C19 N1 1.323(2)
N1 H1B 0.92(2)
N1 H1A 0.91(2)
loop_
_geom_hbond_atom_site_label_D
_geom_hbond_atom_site_label_H
_geom_hbond_atom_site_label_A
_geom_hbond_distance_DH
_geom_hbond_distance_HA
_geom_hbond_distance_DA
_geom_hbond_angle_DHA
_geom_hbond_site_symmetry_A
N1 H1B O1 0.92(2) 1.97(2) 2.889(2) 173.5(17) 2_755
N1 H1A N2 0.91(2) 2.11(2) 2.830(2) 135.5(17) .
loop_
_geom_torsion_atom_site_label_1
_geom_torsion_atom_site_label_2
_geom_torsion_atom_site_label_3
_geom_torsion_atom_site_label_4
_geom_torsion
C6 C1 C2 C3 -0.9(2)
C19 C1 C2 C3 177.44(14)
C1 C2 C3 C4 -0.1(3)
C2 C3 C4 C5 0.7(3)
C3 C4 C5 C6 -0.3(3)
C4 C5 C6 C1 -0.7(3)
C4 C5 C6 N2 178.45(16)
C2 C1 C6 C5 1.3(2)
C19 C1 C6 C5 -176.83(15)
C2 C1 C6 N2 -177.85(13)
C19 C1 C6 N2 4.0(2)
C12 C7 C8 C9 0.8(3)
N2 C7 C8 C9 -178.95(15)
C7 C8 C9 C10 -0.9(3)
C8 C9 C10 C11 0.0(3)
C9 C10 C11 C12 1.1(3)
C10 C11 C12 C7 -1.3(3)
C8 C7 C12 C11 0.3(3)
N2 C7 C12 C11 -179.98(17)
C18 C13 C14 C15 -0.7(2)
N2 C13 C14 C15 175.24(15)
C13 C14 C15 C16 0.0(3)
C14 C15 C16 C17 0.3(3)
C15 C16 C17 C18 0.2(3)
C14 C13 C18 C17 1.2(2)
N2 C13 C18 C17 -174.66(14)
C16 C17 C18 C13 -1.0(3)
C2 C1 C19 O1 2.5(2)
C6 C1 C19 O1 -179.38(16)
C2 C1 C19 N1 -175.54(15)
C6 C1 C19 N1 2.6(2)
C18 C13 N2 C7 -142.82(15)
C14 C13 N2 C7 41.4(2)
C18 C13 N2 C6 9.9(2)
C14 C13 N2 C6 -165.92(14)
C12 C7 N2 C13 25.5(2)
C8 C7 N2 C13 -154.78(14)
C12 C7 N2 C6 -127.75(16)
C8 C7 N2 C6 52.00(19)
C5 C6 N2 C13 -95.93(17)
C1 C6 N2 C13 83.22(17)
C5 C6 N2 C7 58.37(19)
C1 C6 N2 C7 -122.49(15)
