#------------------------------------------------------------------------------
#$Date: 2019-11-08 02:41:14 +0200 (Fri, 08 Nov 2019) $
#$Revision: 224829 $
#$URL: file:///home/coder/svn-repositories/cod/cif/7/05/80/7058095.cif $
#------------------------------------------------------------------------------
#
# This file is available in the Crystallography Open Database (COD),
# http://www.crystallography.net/
#
# All data on this site have been placed in the public domain by the
# contributors.
#
data_7058095
loop_
_publ_author_name
'Todorov, Petar T.'
'Peneva, Petia N.'
'Georgieva, Stela I.'
'Rusew, Rusi I.'
'Shivachev, Boris L.'
'Georgiev, Anton H.'
_publ_section_title
;
 Photochromic and molecular switching behaviour of new Schiff bases
 containing hydantoin rings: synthesis, characterization and crystal
 structures
;
_journal_issue                   6
_journal_name_full               'New Journal of Chemistry'
_journal_page_first              2740
_journal_paper_doi               10.1039/C8NJ05748F
_journal_volume                  43
_journal_year                    2019
_chemical_formula_moiety         'C12 H12 N4 O4'
_chemical_formula_sum            'C12 H12 N4 O4'
_chemical_formula_weight         276.26
_space_group_crystal_system      triclinic
_space_group_IT_number           2
_space_group_name_Hall           '-P 1'
_space_group_name_H-M_alt        'P -1'
_symmetry_space_group_name_Hall  '-P 1'
_symmetry_space_group_name_H-M   'P -1'
_atom_sites_solution_hydrogens   mixed
_atom_sites_solution_primary     direct
_audit_creation_date             2018-07-24
_audit_creation_method
;
Olex2 1.2
(compiled 2018.05.29 svn.r3508 for OlexSys, GUI svn.r5506)
;
_audit_update_record
;
2018-11-11 deposited with the CCDC.
2019-01-08 downloaded from the CCDC.
;
_cell_angle_alpha                95.690(9)
_cell_angle_beta                 101.192(9)
_cell_angle_gamma                103.562(9)
_cell_formula_units_Z            2
_cell_length_a                   5.9932(6)
_cell_length_b                   10.2222(11)
_cell_length_c                   10.8532(11)
_cell_measurement_reflns_used    1049
_cell_measurement_temperature    150
_cell_measurement_theta_max      26.8460
_cell_measurement_theta_min      3.0320
_cell_volume                     626.74(12)
_computing_cell_refinement
;
CrysAlisPro, Agilent Technologies,
Version 1.171.37.35 (release 13-08-2014 CrysAlis171 .NET)
(compiled Aug 13 2014,18:06:01)
;
_computing_data_collection
;
CrysAlisPro, Agilent Technologies,
Version 1.171.37.35 (release 13-08-2014 CrysAlis171 .NET)
(compiled Aug 13 2014,18:06:01)
;
_computing_data_reduction
;
CrysAlisPro, Agilent Technologies,
Version 1.171.37.35 (release 13-08-2014 CrysAlis171 .NET)
(compiled Aug 13 2014,18:06:01)
;
_computing_molecular_graphics    'Olex2 (Dolomanov et al., 2009)'
_computing_publication_material  'Olex2 (Dolomanov et al., 2009)'
_computing_structure_refinement  'ShelXL (Sheldrick, 2015)'
_computing_structure_solution    'ShelXS (Sheldrick, 2008)'
_diffrn_ambient_temperature      150
_diffrn_detector                 'CCD plate'
_diffrn_detector_area_resol_mean 10.3974
_diffrn_detector_type            Atlas
_diffrn_measured_fraction_theta_full 0.998
_diffrn_measured_fraction_theta_max 0.998
_diffrn_measurement_details
;
#__ type_ start__ end____ width___ exp.time_
  1 omega  -18.00   31.00   1.0000   15.0000
omega____ theta____ kappa____ phi______ frames
    -       -8.3019 -102.0000 -164.0000 49

#__ type_ start__ end____ width___ exp.time_
  2 omega  -48.00   -9.00   1.0000   15.0000
omega____ theta____ kappa____ phi______ frames
    -       -8.3019  102.0000  -61.0000 39

#__ type_ start__ end____ width___ exp.time_
  3 omega  -78.00   13.00   1.0000   15.0000
omega____ theta____ kappa____ phi______ frames
    -       -8.3019  -38.0000   30.0000 91

#__ type_ start__ end____ width___ exp.time_
  4 omega  -45.00   55.00   1.0000   15.0000
omega____ theta____ kappa____ phi______ frames
    -       -8.3019    0.0000 -120.0000 100
;
_diffrn_measurement_device       'four-circle diffractometer'
_diffrn_measurement_device_type  'SuperNova, Dual, Cu at zero, Atlas'
_diffrn_measurement_method       '\w scans'
_diffrn_orient_matrix_UB_11      0.1015301000
_diffrn_orient_matrix_UB_12      0.0054732000
_diffrn_orient_matrix_UB_13      -0.0255749000
_diffrn_orient_matrix_UB_21      -0.0719152000
_diffrn_orient_matrix_UB_22      -0.0348727000
_diffrn_orient_matrix_UB_23      -0.0594127000
_diffrn_orient_matrix_UB_31      -0.0114027000
_diffrn_orient_matrix_UB_32      0.0629983000
_diffrn_orient_matrix_UB_33      -0.0189465000
_diffrn_radiation_monochromator  mirror
_diffrn_radiation_probe          x-ray
_diffrn_radiation_type           MoK\a
_diffrn_radiation_wavelength     0.71073
_diffrn_reflns_av_R_equivalents  0.0469
_diffrn_reflns_av_unetI/netI     0.0728
_diffrn_reflns_Laue_measured_fraction_full 0.998
_diffrn_reflns_Laue_measured_fraction_max 0.998
_diffrn_reflns_limit_h_max       6
_diffrn_reflns_limit_h_min       -7
_diffrn_reflns_limit_k_max       11
_diffrn_reflns_limit_k_min       -12
_diffrn_reflns_limit_l_max       12
_diffrn_reflns_limit_l_min       -11
_diffrn_reflns_number            4301
_diffrn_reflns_point_group_measured_fraction_full 0.998
_diffrn_reflns_point_group_measured_fraction_max 0.998
_diffrn_reflns_theta_full        25.027
_diffrn_reflns_theta_max         25.027
_diffrn_reflns_theta_min         3.044
_diffrn_source                   'SuperNova (Mo) X-ray Source'
_exptl_absorpt_coefficient_mu    0.113
_exptl_absorpt_correction_T_max  1.00000
_exptl_absorpt_correction_T_min  0.67474
_exptl_absorpt_correction_type   multi-scan
_exptl_absorpt_process_details
;
CrysAlisPro, Agilent Technologies,
Version 1.171.37.35 (release 13-08-2014 CrysAlis171 .NET)
(compiled Aug 13 2014,18:06:01)
Empirical absorption correction using spherical harmonics,
 implemented in SCALE3 ABSPACK scaling algorithm.
;
_exptl_crystal_colour            colourless
_exptl_crystal_colour_primary    colourless
_exptl_crystal_density_diffrn    1.464
_exptl_crystal_F_000             288
_exptl_crystal_size_max          0.3
_exptl_crystal_size_mid          0.25
_exptl_crystal_size_min          0.22
_refine_diff_density_max         0.199
_refine_diff_density_min         -0.287
_refine_diff_density_rms         0.058
_refine_ls_extinction_method     none
_refine_ls_goodness_of_fit_ref   1.041
_refine_ls_hydrogen_treatment    mixed
_refine_ls_matrix_type           full
_refine_ls_number_parameters     187
_refine_ls_number_reflns         2209
_refine_ls_number_restraints     0
_refine_ls_restrained_S_all      1.041
_refine_ls_R_factor_all          0.0915
_refine_ls_R_factor_gt           0.0564
_refine_ls_shift/su_max          0.000
_refine_ls_shift/su_mean         0.000
_refine_ls_structure_factor_coef Fsqd
_refine_ls_weighting_details
'w=1/[\s^2^(Fo^2^)+(0.0619P)^2^+0.0692P] where P=(Fo^2^+2Fc^2^)/3'
_refine_ls_weighting_scheme      calc
_refine_ls_wR_factor_gt          0.1246
_refine_ls_wR_factor_ref         0.1491
_reflns_Friedel_coverage         0.000
_reflns_number_gt                1489
_reflns_number_total             2209
_reflns_threshold_expression     'I > 2\s(I)'
_cod_data_source_file            c8nj05748f2.cif
_cod_data_source_block           exp_467
_cod_depositor_comments
'Adding full bibliography for 7058094--7058097.cif.'
_cod_original_cell_volume        626.73(12)
_cod_database_code               7058095
_shelx_shelxl_version_number     2016/6
_chemical_oxdiff_formula         'C20 H20 N3 O3'
_chemical_oxdiff_usercomment     SB3
_shelx_space_group_comment
;
The symmetry employed for this shelxl refinement is uniquely defined
by the following loop, which should always be used as a source of
symmetry information in preference to the above space-group names.
They are only intended as comments.
;
_shelx_estimated_absorpt_t_max   0.976
_shelx_estimated_absorpt_t_min   0.967
_reflns_odcompleteness_completeness 99.82
_reflns_odcompleteness_iscentric 1
_reflns_odcompleteness_theta     24.97
_olex2_refinement_description
;
1. Fixed Uiso
 At 1.2 times of:
  All C(H) groups
 At 1.5 times of:
  All C(H,H,H) groups
2.a Aromatic/amide H refined with riding coordinates:
 C6(H6), C8(H8), C9(H9), C12(H12), C11(H11)
2.b Idealised Me refined as rotating group:
 C2(H2A,H2B,H2C), C1(H1A,H1B,H1C)
;
_shelx_res_file
;
TITL exp_467 in P-1 #2
    exp_467.res
    created by SHELXL-2016/6 at 15:34:54 on 24-Jul-2018
REM reset to P-1 #2
REM Instructions for potential hydrogen bonds
CELL 0.71073 5.99315 10.222201 10.853157 95.6896 101.1919 103.5615
ZERR 2 0.000639 0.001071 0.001137 0.0086 0.009 0.0091
LATT 1
SFAC C H N O
UNIT 24 24 8 8
EQIV $1 3-X,1-Y,1-Z
EQIV $2 4-X,2-Y,1-Z
EQIV $3 1-X,2-Y,-Z
EQIV $4 -X,1-Y,-Z

L.S. 4 0 0
PLAN  20
SIZE 0.3 0.25 0.22
TEMP -123.15
HTAB C6 O4
HTAB C9 O1_$1
HTAB C11 O2_$2
HTAB C1 O4_$3
HTAB N1 O5_$4
BOND
BOND $H
conf
fmap 2 53
acta
REM <olex2.extras>
REM <HklSrc "%.\\exp_467.hkl">
REM </olex2.extras>

WGHT    0.061900    0.069200
FVAR       5.28076
O5    4    0.299242    0.523040    0.106501    11.00000    0.02014    0.03543 =
         0.03690    0.01490    0.00817    0.00111
O4    4    0.702816    0.872791   -0.066415    11.00000    0.01890    0.03497 =
         0.04373    0.01561    0.00680   -0.00217
N3    3    0.740966    0.702267    0.144072    11.00000    0.01474    0.03472 =
         0.03042    0.00608    0.00431    0.00442
N2    3    0.551142    0.708299    0.050331    11.00000    0.01531    0.02960 =
         0.03292    0.00908    0.00469    0.00237
N1    3    0.190303    0.624861   -0.068100    11.00000    0.01538    0.03246 =
         0.03464    0.01160    0.00407   -0.00216
C6    1    0.925171    0.802613    0.169232    11.00000    0.02358    0.02721 =
         0.03313    0.00760    0.00592    0.00335
AFIX  43
H6    2    0.927897    0.880788    0.128371    11.00000   -1.20000
AFIX   0
N4    3    1.749253    0.766694    0.510344    11.00000    0.02478    0.04219 =
         0.04172    0.01565    0.00334    0.00121
C7    1    1.132555    0.793802    0.263036    11.00000    0.02162    0.02762 =
         0.02839    0.00494    0.00892    0.00469
O1    4    1.755661    0.656470    0.544067    11.00000    0.03564    0.04706 =
         0.07497    0.02932   -0.00455    0.00320
C5    1    0.335594    0.606667    0.034536    11.00000    0.01290    0.02862 =
         0.03380    0.00538    0.00555    0.00247
O2    4    1.916113    0.867229    0.543416    11.00000    0.03049    0.05240 =
         0.07852    0.02766   -0.01406   -0.01193
C8    1    1.134147    0.679533    0.323326    11.00000    0.02559    0.02935 =
         0.03413    0.00728    0.00593   -0.00078
AFIX  43
H8    2    0.994904    0.607278    0.308134    11.00000   -1.20000
AFIX   0
C10   1    1.532771    0.777168    0.426360    11.00000    0.01996    0.03419 =
         0.03075    0.00945    0.00242    0.00454
C9    1    1.334862    0.670299    0.404452    11.00000    0.02485    0.02884 =
         0.03324    0.00997    0.00325    0.00000
AFIX  43
H9    2    1.336701    0.591866    0.444434    11.00000   -1.20000
AFIX   0
C12   1    1.335097    0.900753    0.288232    11.00000    0.02551    0.02636 =
         0.03886    0.01226    0.00668    0.00243
AFIX  43
H12   2    1.334387    0.979147    0.248054    11.00000   -1.20000
AFIX   0
C4    1    0.544198    0.782698   -0.049362    11.00000    0.01888    0.02786 =
         0.03031    0.00624    0.00591    0.00410
C11   1    1.537574    0.894264    0.371140    11.00000    0.02134    0.03310 =
         0.03653    0.00772    0.00479   -0.00349
AFIX  43
H11   2    1.675642    0.967674    0.389709    11.00000   -1.20000
AFIX   0
C2    1    0.325398    0.668157   -0.266063    11.00000    0.02438    0.04216 =
         0.03765    0.00981    0.00588    0.00203
AFIX 137
H2A   2    0.401149    0.593523   -0.255719    11.00000   -1.50000
H2B   2    0.421585    0.738430   -0.302903    11.00000   -1.50000
H2C   2    0.168858    0.633223   -0.322629    11.00000   -1.50000
AFIX   0
C1    1    0.174802    0.842133   -0.147384    11.00000    0.02332    0.04415 =
         0.04721    0.01880    0.01107    0.00982
AFIX 137
H1A   2    0.014119    0.804498   -0.198600    11.00000   -1.50000
H1B   2    0.259949    0.913304   -0.187968    11.00000   -1.50000
H1C   2    0.168923    0.881172   -0.062247    11.00000   -1.50000
AFIX   0
C3    1    0.301476    0.729209   -0.137018    11.00000    0.01786    0.03195 =
         0.03322    0.01180    0.00755    0.00197
H1    2    0.044958    0.579193   -0.089577    11.00000    0.05672
HKLF 4




REM  exp_467 in P-1 #2
REM R1 =  0.0564 for    1489 Fo > 4sig(Fo)  and  0.0915 for all    2209 data
REM    187 parameters refined using      0 restraints

END

WGHT      0.0619      0.0692

REM Highest difference peak  0.199,  deepest hole -0.287,  1-sigma level  0.058
Q1    1   0.1125  0.5325 -0.1206  11.00000  0.05    0.20
Q2    1   0.4522  0.4839  0.0939  11.00000  0.05    0.20
Q3    1   0.9362  0.8786  0.0603  11.00000  0.05    0.20
Q4    1   0.1154  0.8363  0.0557  11.00000  0.05    0.19
Q5    1   0.2805  0.7938 -0.1383  11.00000  0.05    0.19
Q6    1   0.6871  0.7766  0.2535  11.00000  0.05    0.19
Q7    1   1.1993  0.6958  0.4120  11.00000  0.05    0.18
Q8    1   0.3718  0.6254  0.1769  11.00000  0.05    0.18
Q9    1  -0.2127  0.7589 -0.2609  11.00000  0.05    0.18
Q10   1   0.0057  0.8034 -0.2393  11.00000  0.05    0.18
Q11   1  -0.1053  0.9061 -0.2757  11.00000  0.05    0.18
Q12   1   1.0607  0.5157  0.2920  11.00000  0.05    0.17
Q13   1   0.7275  0.7224  0.2574  11.00000  0.05    0.17
Q14   1   1.1860  0.5272  0.2553  11.00000  0.05    0.17
Q15   1   1.6927  0.5828  0.4641  11.00000  0.05    0.17
Q16   1   0.5543  0.8013  0.1408  11.00000  0.05    0.17
Q17   1   1.1626  0.8907  0.1860  11.00000  0.05    0.17
Q18   1   1.6503  0.8872  0.6053  11.00000  0.05    0.17
Q19   1   1.0169  0.8255  0.2546  11.00000  0.05    0.16
Q20   1   0.2555  0.6869 -0.1033  11.00000  0.05    0.16
;
_shelx_res_checksum              49408
_shelx_hkl_file
;
   0   0  -2 36512.4 580.008   3
   0   0  -3 5076.71 268.110   3
   0   0  -4 1539.00 179.316   3
   0   0  -5 17460.5 638.711   3
   0   0  -6 4102.21 341.691   3
   0   0  -7 1292.00 220.722   3
   0   0  -8 1057.42 209.889   3
   0   0   8 1440.12 271.415   3
   0   0   9 6672.88 609.637   3
   0   0  10 4413.14 541.033   3
   0   0  11 613.108 229.667   3
   0   0  12-44.8763 91.4110   3
   0  -1  12 634.326 241.324   3
   0  -1  11 576.912 232.917   3
   0  -1  10 1478.17 326.195   3
   0  -1   9-42.7301 85.2970   3
   0   1  -8 6171.57 497.011   3
   0  -1   8 5937.92 526.952   3
   0   1  -7 566.422 149.899   3
   0   1  -6 337.006 106.639   3
   0   1  -5 24333.6 739.603   3
   0   1  -4 608.164 111.193   3
   0  -1   4 678.519 61.8405   1
   0   1  -3 2881.38 200.578   3
   0   1  -3 2778.95 118.102   2
   0   1  -2 4682.99 203.058   3
   0  -1   2 4449.53 149.846   2
   0  -1  -1 229.497 35.6693   3
   0  -1  -2 33919.1 434.519   2
   0   1   2 34043.0 427.999   2
   0  -1  -2 35352.2 572.293   3
   0  -1  -3 5755.18 283.159   3
   0  -1  -4 345.986 84.8060   3
   0  -1  -4 456.726 52.3178   1
   0  -1  -5 2536.12 244.804   3
   0  -1  -6 4431.12 352.940   3
   0  -1  -7 704.029 166.202   3
   0   1   7 640.389 167.314   3
   0  -1  -8 4607.43 428.469   3
   0   1   8 3571.69 424.380   3
   0   1   9 2847.26 410.510   3
   0   1  10 102.594 112.826   3
   0   1  11 237.502 156.285   3
   0   1  12 560.074 242.045   3
   0  -2  12 2625.72 482.332   3
   0  -2  11 2633.97 446.386   3
   0  -2  10 13729.5 937.654   3
   0  -2   9 4257.57 481.020   3
   0  -2   8 1037.38 226.884   3
   0   2  -8 713.969 178.502   3
   0   2  -7 215.698 89.4481   3
   0  -2   7 207.754 46.5838   1
   0  -2   7 387.199 130.852   3
   0   2  -6-47.5232 53.2020   3
   0  -2   6 39.7377 58.1762   3
   0  -2   6 21.2453 24.7906   1
   0   2  -5-6.58916 48.5389   3
   0  -2   5-6.82074 58.7108   3
   0   2  -4 333.325 64.7123   2
   0   2  -4 362.081 91.4000   3
   0  -2   4 255.440 85.2233   3
   0  -2   3 73083.9 854.866   2
   0   2  -3 71236.8 841.958   2
   0   2  -3 72156.0 975.723   3
   0  -2   3 69627.1 986.609   3
   0  -2   2 6301.50 236.888   3
   0  -2   2 5862.88 239.622   2
   0   2  -2 6261.14 230.317   3
   0  -2   1 36.9259 18.0201   3
   0   2  -1 44.3731 19.4627   3
   0  -2   1 68.1978 37.5710   2
   0   2   0 156160. 964.830   4
   0  -2   0 153502. 1217.97   2
   0  -2  -1 4252.62 206.362   2
   0  -2  -1 4047.05 138.810   3
   0  -2  -2 27645.1 529.756   2
   0   2   2 25442.9 556.429   3
   0  -2  -2 26916.7 498.574   3
   0   2   2 26854.2 519.846   2
   0   2   3 6335.43 331.065   3
   0   2   3 5695.77 246.041   2
   0  -2  -3 5924.27 287.157   3
   0  -2  -4 2940.19 179.218   1
   0   2   4 3097.35 268.742   3
   0  -2  -4 3558.63 257.184   3
   0  -2  -5 84.1649 58.9640   3
   0  -2  -5 11.1630 28.5398   1
   0   2   6 4618.62 421.776   3
   0  -2  -6 5067.62 379.673   3
   0  -2  -6 4499.00 221.203   1
   0  -2  -7 6662.50 239.019   1
   0  -2  -7 9265.75 555.390   3
   0   2   7 7955.67 593.695   3
   0   2   8 118.476 93.0727   3
   0  -2  -8 78.8388 80.7820   3
   0   2   9 2620.54 415.106   3
   0   2  10-341.395 140.363   3
   0   2  11 1436.07 348.501   3
   0   2  12-25.1190 103.670   3
   0  -3  12 494.643 226.883   3
   0  -3  11 9769.39 854.718   3
   0  -3  10 367.437 178.197   3
   0  -3   9 827.323 96.5000   1
   0  -3   9 945.101 252.812   3
   0   3  -8 243.360 114.942   3
   0  -3   8 375.086 81.0789   1
   0  -3   8 257.155 127.930   3
   0  -3   7 1465.93 161.090   1
   0   3  -7 1795.48 249.095   3
   0  -3   7 1371.98 245.941   3
   0   3  -6 162.119 89.6516   3
   0  -3   6 155.481 60.8889   1
   0  -3   6 143.315 87.1289   3
   0   3  -5 12349.9 526.113   3
   0  -3   5 10948.8 529.938   3
   0   3  -5 10775.1 416.677   2
   0   3  -4 132.409 62.5642   2
   0   3  -4 200.830 68.4804   3
   0  -3   4 155.077 66.0991   3
   0  -3   3 28757.4 633.629   3
   0  -3   3 30647.1 541.799   4
   0  -3   3 28470.8 648.652   2
   0   3  -3 29259.1 611.517   3
   0   3  -3 27514.9 650.717   2
   0  -3   2 1436.88 99.3435   4
   0  -3   2 1356.38 144.060   2
   0  -3   2 1483.62 116.351   3
   0   3  -2 1494.76 112.490   3
   0  -3   1 1753.01 163.880   2
   0  -3   1 1743.87 99.7264   4
   0   3  -1 1483.38 111.132   4
   0   3  -1 1718.92 83.4825   3
   0  -3   1 1818.95 86.2626   3
   0  -3   0 61.4205 48.9955   2
   0   3   0 88.5629 43.7774   4
   0  -3  -1 6192.64 307.276   2
   0  -3  -1 6306.86 169.457   3
   0   3   1 5838.65 215.434   3
   0  -3  -2 2505.87 152.965   3
   0   3   2 2583.07 204.728   2
   0  -3  -2 2801.23 208.162   2
   0   3   2 2109.54 167.623   3
   0   3   3 1761.63 174.407   2
   0   3   3 1652.93 179.357   3
   0  -3  -3 1635.17 165.498   2
   0  -3  -3 1683.03 154.391   3
   0  -3  -4 2692.03 229.541   3
   0   3   4 2425.66 247.993   3
   0   3   4 2859.77 217.811   2
   0  -3  -5 1055.92 132.757   1
   0  -3  -5 1179.17 167.866   3
   0  -3  -6 140.640 61.0180   1
   0   3   6 219.190 111.846   3
   0  -3  -6 133.190 75.2814   3
   0  -3  -7-31.1033 35.7821   1
   0   3   7-102.722 86.4635   3
   0  -3  -7 31.8157 72.3400   3
   0  -3  -8 94.4398 102.296   3
   0  -3  -8 47.7792 39.5504   1
   0   3   8-101.619 98.5798   3
   0   3   9 718.411 233.077   3
   0   3  10-9.65703 84.8181   3
   0   3  11 1570.31 373.866   3
   0  -4  12 5036.51 664.828   3
   0  -4  11 1476.13 334.736   3
   0  -4  10-111.134 116.965   3
   0  -4  10 14.3868 26.4255   1
   0  -4   9 502.090 186.149   3
   0  -4   9 757.867 131.532   1
   0  -4   8 1188.75 261.441   3
   0   4  -8 1668.51 267.934   3
   0  -4   8 1704.59 201.751   1
   0  -4   7 91.5528 57.4091   1
   0  -4   7 248.611 116.464   3
   0   4  -7 138.776 95.6382   3
   0  -4   6 320.520 115.752   3
   0   4  -6 537.232 126.349   3
   0   4  -6 440.483 104.827   2
   0   4  -5 1675.77 199.035   3
   0  -4   5 1660.13 209.288   3
   0   4  -5 1653.64 196.175   2
   0  -4   4 11941.1 399.665   4
   0   4  -4 11311.6 500.018   2
   0  -4   4 11832.9 478.753   3
   0   4  -4 11582.1 454.360   3
   0  -4   3 24798.3 707.928   2
   0  -4   3 25704.0 597.482   3
   0   4  -3 25818.4 575.796   3
   0  -4   3 26767.8 500.925   4
   0   4  -3 23911.9 711.752   2
   0  -4   2 1339.09 96.3365   4
   0   4  -2 1426.18 108.716   3
   0  -4   2 1369.02 110.565   3
   0   4  -2 1221.50 91.6733   4
   0  -4   2 1396.96 171.309   2
   0   4  -1 414.055 68.3255   4
   0  -4   1 347.749 93.7283   2
   0  -4   0 14004.2 528.688   2
   0   4   0 14996.0 442.174   4
   0   4   1 2170.04 219.316   2
   0  -4  -1 2487.54 227.053   2
   0   4   1 1804.67 118.039   3
   0  -4  -1 2340.27 102.260   3
   0  -4  -2 2246.27 142.733   3
   0   4   2 2252.73 223.459   2
   0   4   2 2005.90 181.425   3
   0  -4  -2 2438.96 228.756   2
   0   4   3 489.159 115.238   3
   0   4   3 583.751 125.871   2
   0  -4  -3 570.824 92.6231   3
   0  -4  -4 968.085 136.479   3
   0   4   4 845.047 151.492   3
   0   4   4 874.371 148.368   2
   0  -4  -5 1775.72 203.599   3
   0  -4  -5 1601.19 191.559   1
   0   4   6 3333.23 376.606   3
   0  -4  -6 3277.91 273.205   1
   0  -4  -6 3648.82 328.642   3
   0  -4  -7 2302.13 283.751   3
   0   4   7 2032.04 316.745   3
   0  -4  -7 1965.92 212.279   1
   0  -4  -8 1794.71 291.936   3
   0  -4  -8 1807.98 204.174   1
   0   4   8 2146.65 378.519   3
   0   4   9 48.6696 112.270   3
   0  -4  -9 86.0988 58.5429   1
   0   4  10 652.109 236.135   3
   0   4  11-16.3454 88.6997   3
   0  -5  12 116.629 140.882   3
   0  -5  11 830.335 259.956   3
   0  -5  10 576.070 205.994   3
   0  -5  10 221.465 91.0677   1
   0  -5   9 351.780 113.911   1
   0  -5   9 62.6553 101.892   3
   0  -5   8 42.5421 74.1604   3
   0  -5   8 7.89092 51.4961   1
   0   5  -8 92.1367 87.5460   3
   0   5  -7 647.053 155.180   3
   0  -5   7 435.869 120.695   4
   0  -5   7 333.335 106.598   1
   0  -5   7 370.244 134.781   3
   0   5  -6 3339.82 312.361   3
   0  -5   6 3306.03 327.192   3
   0  -5   6 3284.04 272.386   4
   0   5  -5 1921.10 214.840   3
   0  -5   5 2220.66 239.789   3
   0  -5   5 2039.98 189.767   4
   0  -5   4 12443.0 392.940   4
   0  -5   4 12068.3 488.312   3
   0   5  -4 12262.7 474.346   3
   0  -5   3 11426.9 537.609   2
   0  -5   3 10779.3 301.642   4
   0   5  -3 10989.7 374.754   3
   0  -5   3 11455.6 400.612   3
   0  -5   2 746.133 84.7045   3
   0   5  -2 734.675 76.2014   4
   0  -5   2 1017.90 165.085   2
   0   5  -1 4228.43 233.908   4
   0  -5   1 4064.95 321.840   2
   0  -5   0 8700.37 471.801   2
   0   5   0 8979.18 393.388   4
   0   5   1 4108.87 339.824   2
   0  -5  -1 3722.66 309.549   2
   0   5   1 3384.94 272.183   4
   0   5   2 2962.34 291.079   2
   0  -5  -2 2953.02 161.208   3
   0  -5  -2 2741.08 280.297   2
   0   5   2 2359.23 188.583   3
   0   5   3 1538.48 215.688   2
   0  -5  -3 1602.75 149.286   3
   0   5   3 1548.52 191.922   3
   0   5   4 5096.75 384.852   2
   0  -5  -4 5365.46 315.279   3
   0   5   4 5274.52 405.736   3
   0  -5  -5 11730.6 521.366   3
   0  -5  -6 831.364 165.535   3
   0   5   6 1045.33 222.111   3
   0  -5  -7 288.093 109.142   3
   0   5   7 282.928 136.243   3
   0  -5  -8 734.078 183.403   3
   0   5   8 533.692 190.691   3
   0   5   9-21.2647 93.1686   3
   0  -5  -9 215.694 90.9323   1
   0   5  10 855.335 280.259   3
   0  -6  11 566.054 186.997   4
   0  -6  11 1293.52 333.792   3
   0  -6  10 191.290 100.555   1
   0  -6  10 0.83731 82.2311   4
   0  -6  10 196.787 139.512   3
   0  -6   9 603.389 162.232   4
   0  -6   9 591.198 203.978   3
   0  -6   9 689.352 166.222   1
   0  -6   8 756.139 162.870   4
   0  -6   8 843.658 210.232   3
   0   6  -8 769.712 196.324   3
   0  -6   8 796.079 183.543   1
   0   6  -7 541.625 155.020   2
   0  -6   7 421.367 127.045   4
   0   6  -7 640.603 157.163   3
   0  -6   7 436.549 156.690   3
   0   6  -6 117.997 102.427   2
   0  -6   6 20.6463 36.6562   4
   0  -6   6 52.6815 62.2828   3
   0   6  -6 173.905 83.3327   3
   0  -6   5 668.127 105.862   4
   0   6  -5 752.991 177.619   2
   0   6  -5 756.688 138.162   3
   0  -6   5 621.837 135.321   3
   0   6  -4 2093.45 197.045   3
   0  -6   4 2402.98 222.468   3
   0   6  -4 2233.85 281.528   2
   0  -6   4 1949.62 139.512   4
   0  -6   3 19.8227 34.3818   3
   0   6  -3-15.2874 81.4828   2
   0   6  -2 34.7311 27.1856   4
   0  -6   2 50.0122 68.1091   2
   0  -6   2 25.9351 20.1144   3
   0  -6   1-41.3865 70.8651   2
   0   6  -1 37.9830 42.8626   4
   0   6   0 3800.04 284.119   4
   0  -6   0 3432.22 333.187   2
   0  -6  -1 451.142 126.624   2
   0   6   1 398.534 114.838   4
   0   6   1 483.628 147.808   2
   0   6   2 1946.13 264.656   2
   0   6   2 1789.42 244.702   4
   0   6   3 3202.37 262.685   3
   0  -6  -3 3430.85 213.203   3
   0   6   3 3530.70 358.846   2
   0  -6  -4 7127.48 362.538   3
   0   6   4 6771.30 455.698   3
   0   6   4 7599.60 520.545   2
   0  -6  -5 101.708 65.8032   3
   0  -6  -5 122.853 81.4943   1
   0  -6  -6 544.279 145.917   1
   0   6   6 616.117 186.090   3
   0  -6  -6 675.954 143.485   3
   0  -6  -7 169.611 78.3369   1
   0  -6  -7 209.199 95.9402   3
   0   6   7 180.663 102.104   3
   0   6   8 41.8044 94.5664   3
   0  -6  -8 35.7202 39.5191   1
   0  -6  -8 42.4571 67.1653   3
   0   6   9 124.453 115.999   3
   0  -7  11 268.290 171.824   3
   0  -7  10 1390.58 308.591   3
   0  -7  10 938.956 232.941   1
   0  -7  10 808.429 205.860   4
   0  -7   9 930.786 195.409   4
   0  -7   9 754.335 190.620   1
   0  -7   9 1161.70 277.051   3
   0  -7   8 833.097 202.617   1
   0   7  -8 790.560 185.360   3
   0  -7   8 985.641 233.712   3
   0  -7   8 775.170 160.215   4
   0  -7   7 37.5000 67.3006   4
   0  -7   7 97.2735 94.2149   1
   0   7  -7 141.245 87.3607   3
   0  -7   7 77.1474 85.8325   3
   0   7  -7 130.714 114.532   2
   0   7  -6 1321.34 206.997   3
   0   7  -6 1302.09 247.917   2
   0  -7   6 1353.55 221.440   3
   0  -7   6 1034.35 135.226   4
   0   7  -5 146.578 122.548   2
   0   7  -5 60.2690 62.0203   3
   0  -7   5 128.228 38.3980   4
   0  -7   5 113.830 71.2195   3
   0  -7   4 4335.82 305.695   3
   0   7  -4 3974.00 414.501   2
   0  -7   3 5222.47 260.978   3
   0   7  -3 5436.32 482.631   2
   0   7  -2 3528.50 385.715   2
   0   7  -2 2710.21 173.367   4
   0   7  -1 498.287 104.210   4
   0   7  -1 468.559 155.235   2
   0   7   0 2450.98 254.597   4
   0   7   0 2162.11 313.800   2
   0   7   1 6825.46 538.437   2
   0   7   1 6719.23 458.671   4
   0   7   2 3512.89 368.425   4
   0   7   2 3196.03 371.888   2
   0   7   3 1221.30 238.006   2
   0   7   3 1255.75 236.931   4
   0   7   4 400.779 110.661   3
   0   7   4 646.681 186.092   2
   0  -7  -4 552.983 102.883   3
   0  -7  -5 224.565 82.4004   3
   0  -7  -5 192.782 100.305   1
   0  -7  -6 249.392 95.1774   3
   0   7   6 198.371 109.399   3
   0  -7  -6 284.683 124.539   1
   0  -7  -7 181.378 93.2508   3
   0   7   7 177.774 117.966   3
   0  -7  -7-65.3350 75.2413   1
   0  -7  -8 68.2393 61.0441   1
   0   7   8 468.227 184.405   3
   0  -8  10 302.829 153.606   3
   0  -8  10 178.707 122.263   1
   0  -8   9 719.419 209.264   1
   0  -8   9 372.226 170.379   3
   0  -8   8 20.4780 68.0804   3
   0  -8   8 30.8477 85.9263   1
   0   8  -8-32.2013 64.1461   3
   0  -8   8 76.9651 53.9616   4
   0  -8   7 6055.13 314.723   4
   0   8  -7 9742.24 588.135   3
   0  -8   7 11199.0 692.598   3
   0  -8   7 9285.82 699.974   1
   0  -8   6 5116.13 425.176   3
   0   8  -6 4234.56 472.072   2
   0  -8   5 10671.4 536.305   3
   0   8  -5 10883.0 754.297   2
   0   8  -4 312.098 158.365   2
   0  -8   4 143.550 57.5427   3
   0   8  -3 8.64389 90.3596   2
   0   8  -2 2473.93 169.079   4
   0   8  -2 4676.07 490.893   2
   0   8  -1 3738.32 275.213   4
   0   8  -1 3835.03 441.943   2
   0   8   0 1203.46 257.323   2
   0   8   0 1341.85 200.536   4
   0   8   1 1132.40 196.970   4
   0   8   1 1386.81 279.217   2
   0   8   2 6047.45 512.235   4
   0   8   2 6787.26 587.419   2
   0   8   3-6.64879 65.2893   4
   0   8   3 137.420 135.283   2
   0   8   4 532.216 227.193   4
   0  -8  -4 557.534 175.777   1
   0  -8  -5 523.523 173.551   1
   0  -8  -6 263.414 128.200   1
   0   8   6 114.884 86.5560   3
   0  -8  -7-64.1577 75.0445   1
   0   8   7-200.761 117.734   3
   0  -9   9 24.8992 94.8562   3
   0  -9   9 207.255 120.976   1
   0  -9   8 87.7068 95.9540   1
   0  -9   8 43.0775 93.7757   3
   0  -9   7 2018.96 364.435   1
   0  -9   7 2134.51 302.804   3
   0   9  -6 2065.07 357.373   2
   0  -9   6 1784.63 247.505   3
   0   9  -5 584.615 204.433   2
   0  -9   5 404.050 105.068   3
   0   9  -4 1382.97 286.663   2
   0   9  -3 3237.98 444.465   2
   0   9  -2 21.8649 23.1405   4
   0   9  -2 142.527 130.812   2
   0   9  -1 709.136 223.555   2
   0   9  -1 516.040 114.014   4
   0   9   0 2518.62 280.948   4
   0   9   0 3219.65 439.473   2
   0   9   1 17617.4 838.028   4
   0   9   1 18962.8 1051.00   2
   0   9   2 59.3594 91.8148   4
   0   9   2 337.082 173.124   2
   0  -9  -3 48.0507 72.4376   1
   0   9   3 66.1595 104.467   2
   0   9   3-375.511 159.281   4
   0   9   4 551.234 194.868   4
   0  -9  -4 106.348 99.5709   1
   0  -9  -5 39.7645 79.6581   1
   0  -9  -6 93.8176 95.3993   1
   0 -10   8 417.823 181.807   1
   0 -10   7 294.253 173.249   1
   0 -10   6 1.27228 82.2837   1
   0  10  -5 3093.18 480.734   2
   0  10  -4 983.474 264.899   2
   0  10  -3 2262.97 406.148   2
   0  10  -2-24.6632 99.1193   2
   0  10  -1 642.559 123.547   4
   0  10  -1 939.514 267.315   2
   0  10   0 1968.06 262.408   4
   0  10   0 2595.06 436.973   2
   0  10   1 1341.20 259.828   4
   0  10   1 2107.24 393.938   2
   0 -10  -2 1681.83 362.872   1
   0  10   2 2169.92 344.141   4
   0  10   2 2244.74 416.813   2
   0 -10  -3 357.052 167.047   1
   0  10   3 208.325 134.227   4
   0 -10  -4 344.458 168.669   1
   0 -10  -5 805.782 244.661   1
   0 -11   6 1505.99 359.660   1
   0 -11   5-73.7117 119.402   1
   0 -11   4 33.4309 89.8437   1
   0  11  -3 150.610 149.806   2
   0 -11   3-130.378 131.837   1
   0 -11   2 2007.18 408.841   1
   0  11  -2 2706.58 482.688   2
   0 -11   1 890.491 282.429   1
   0  11  -1 1261.19 319.024   2
   0  11   0 797.047 278.965   2
   0 -11   0 676.405 250.868   1
   0 -11  -1 4176.73 584.253   1
   0 -11  -2 91.7732 156.798   1
   1 -12   0 5.07058 110.190   1
   1 -12   1 259.824 176.099   1
   1 -12   2-153.040 143.648   1
   1 -12   3-285.602 181.479   1
   1 -11  -3 2152.82 411.817   1
   1 -11  -2 172.533 133.487   1
   1 -11  -1-16.6376 79.0788   1
   1 -11   0-20.9266 77.8466   1
   1 -11   1 1039.74 307.905   1
   1 -11   2 42.7729 92.1581   1
   1 -11   3 1203.93 318.627   1
   1 -11   4 78.3057 101.933   1
   1 -11   5 2256.14 426.203   1
   1 -11   6-159.830 150.024   1
   1 -10  -5 53.8966 154.206   1
   1 -10  -4 2492.17 417.927   1
  -1  10   4 2371.57 367.584   4
   1 -10  -3 4148.57 533.951   1
  -1  10   3 3350.61 411.321   4
   1 -10  -2 1252.97 300.940   1
  -1  10   2 684.188 173.800   4
  -1  10   1 1837.81 237.402   4
   1 -10  -1 1686.87 347.921   1
  -1  10   0 155.135 55.5082   4
  -1  10   0 216.494 73.3705   4
   1 -10   0 540.366 199.085   1
   1 -10   1 109.959 109.672   1
   1 -10   2-42.4093 89.9257   1
   1 -10   3 196.087 129.571   1
   1 -10   4 5453.82 309.111   3
   1 -10   4 8846.67 778.717   1
   1 -10   5 2226.19 407.247   1
   1 -10   5 1698.32 212.852   3
   1 -10   6 421.226 178.609   1
   1 -10   6 518.292 148.013   3
   1 -10   7 28.2058 82.4444   3
   1 -10   7 208.550 141.731   1
   1 -10   8 314.445 174.927   1
   1  -9  -7-127.063 129.239   1
   1  -9  -6 87.6345 101.936   1
   1  -9  -5 264.247 151.860   1
   1  -9  -4 3963.36 479.144   1
   1  -9  -3 2127.32 139.900   3
   1  -9  -3 2374.80 377.938   1
   1  -9  -2 11.0848 66.4647   1
  -1   9   2-234.188 106.064   4
  -1   9   1 32.7055 73.5037   4
   1  -9  -1 255.431 146.077   1
   1  -9   0 155.869 90.4105   1
  -1   9   0 342.692 85.4042   4
   1  -9   1 3218.46 436.847   1
   1  -9   2-130.112 108.233   1
   1  -9   3 630.906 90.8704   3
   1  -9   3 656.785 210.540   1
   1  -9   4 2893.84 421.851   1
   1  -9   4 2686.78 235.790   3
   1  -9   5 486.666 182.661   1
   1  -9   5 489.895 121.673   3
   1  -9   6 467.607 131.139   3
   1  -9   6 248.728 147.964   1
   1  -9   7 264.059 97.2100   3
   1  -9   7 504.454 191.941   1
   1  -9   8 669.566 192.301   3
   1  -9   8 537.313 202.017   1
   1  -9   9 367.886 137.329   3
   1  -9   9 193.968 122.210   1
   1  -8  -8-119.461 105.876   1
   1  -8  -7 85.1998 91.1707   1
   1  -8  -6 4049.21 338.052   3
   1  -8  -6 3804.59 447.930   1
   1  -8  -5 1322.62 264.978   1
   1  -8  -5 968.191 153.990   3
   1  -8  -5 1034.44 219.719   2
   1  -8  -4 864.863 207.509   2
   1  -8  -4 468.424 157.404   1
   1  -8  -4 508.671 97.6541   3
   1  -8  -3 1534.69 284.353   1
   1  -8  -3 1544.59 139.614   3
   1  -8  -3 2122.03 308.550   2
   1  -8  -2 569.368 188.071   1
   1  -8  -2 721.761 185.967   2
   1  -8  -2 538.124 66.0402   3
   1  -8  -1-8.98137 83.6301   1
  -1   8   1 119.726 68.2658   4
   1  -8  -1-30.4060 81.9408   2
   1  -8   0 41.4762 73.5130   1
   1  -8   0 89.1104 94.3342   2
  -1   8   0 96.6560 49.8524   4
   1  -8   1-23.9024 102.667   2
   1  -8   1 26.6109 13.0084   3
   1  -8   1 40.8314 77.3108   1
   1  -8   2 187.448 94.5792   1
   1  -8   2 156.717 99.6403   2
   1  -8   2 123.046 39.7105   3
   1  -8   3 246.653 114.388   2
   1  -8   3 128.029 41.8773   3
   1  -8   3 172.592 120.933   1
   1  -8   4 1173.87 251.574   1
   1  -8   4 970.752 151.242   3
   1  -8   4 1475.39 257.812   2
   1  -8   5-71.0908 59.1222   3
   1  -8   5 103.361 113.577   2
   1  -8   5-66.0679 81.1460   1
   1  -8   6 992.447 234.735   1
   1  -8   6 1011.17 219.531   2
   1  -8   6 1050.14 196.186   3
   1  -8   7 736.445 208.703   1
   1  -8   7 715.515 169.502   3
   1  -8   8 170.431 115.849   1
   1  -8   8-99.9481 85.7291   3
   1  -8   9-158.272 93.9833   1
   1  -8   9 242.145 141.022   3
   1  -8  10 529.950 194.189   1
   1  -8  10 757.265 230.499   3
   1  -7  -9 344.994 140.738   1
  -1   7   9 259.419 166.853   3
  -1   7   8 688.974 252.842   3
   1  -7  -8 811.504 203.615   1
  -1   7   7 2156.56 367.304   3
   1  -7  -7 1515.11 272.842   1
   1  -7  -7 1585.75 240.064   3
  -1   7   6 1947.48 320.138   3
   1  -7  -6 1510.32 265.624   1
   1  -7  -6 1939.69 238.594   3
   1  -7  -6 1663.82 257.471   2
   1  -7  -5 1723.28 207.483   3
   1  -7  -5 1669.05 270.853   1
   1  -7  -5 2101.54 298.864   2
   1  -7  -4 859.044 136.349   3
   1  -7  -4 921.361 190.562   2
   1  -7  -4 755.078 183.784   1
   1  -7  -3 458.921 90.0054   3
   1  -7  -3 466.430 159.682   2
   1  -7  -3 378.162 144.527   1
   1  -7  -2 453.164 145.793   1
   1  -7  -2 605.445 152.296   2
   1  -7  -2 469.633 75.5117   3
   1  -7  -1 342.808 124.947   2
   1  -7  -1 295.251 131.032   1
   1  -7  -1 173.890 46.4616   3
   1  -7   0 215.527 93.3121   2
   1  -7   0 236.922 44.4800   3
   1  -7   0 184.200 41.3761   3
  -1   7   0 329.175 70.5626   4
   1  -7   1 81.4108 75.4348   1
   1  -7   1 50.8180 28.9208   3
   1  -7   1 155.063 91.7003   2
   1  -7   2 8730.03 316.200   3
   1  -7   2 9138.03 568.739   2
   1  -7   2 7926.45 580.830   1
   1  -7   3 281.023 120.731   1
   1  -7   3 277.933 71.0540   3
   1  -7   3 93.3928 80.0475   2
   1  -7   4 1000.55 148.392   3
   1  -7   4 686.208 176.934   1
   1  -7   4 852.404 180.568   2
   1  -7   5 70.9794 81.3931   1
   1  -7   5-51.7070 85.9174   2
   1  -7   5 34.9536 50.2140   3
   1  -7   6 1001.59 111.598   4
   1  -7   6 1981.17 260.040   3
   1  -7   6 2187.38 294.547   2
   1  -7   6 1792.06 290.258   1
   1  -7   6 866.769 97.9945   4
   1  -7   7 91.4173 54.8636   4
   1  -7   7 98.6041 77.6577   3
   1  -7   7 18.0157 42.9633   4
   1  -7   7 263.474 117.833   2
   1  -7   7 66.5343 74.0393   1
   1  -7   8 58.8153 57.3100   4
   1  -7   8 27.0662 76.4938   3
   1  -7   8 250.757 106.907   4
   1  -7   8 230.483 117.128   1
   1  -7   9 1968.24 258.745   4
   1  -7   9 2604.08 403.600   3
   1  -7   9 1527.98 288.862   1
   1  -7  10 305.889 147.151   1
   1  -7  10 161.909 140.675   3
  -1   6  10-166.647 156.454   3
  -1   6   9 734.650 243.140   3
  -1   6   8 78.3491 98.9422   3
   1  -6  -8-88.7923 70.3025   3
   1  -6  -8-21.8455 68.1896   1
   1  -6  -7 289.406 110.600   3
  -1   6   7 273.504 148.709   3
   1  -6  -7 348.479 118.368   1
   1  -6  -6 3423.45 318.730   3
   1  -6  -6 2970.43 337.401   1
   1  -6  -6 3338.31 330.885   2
  -1   6   6 2795.35 398.265   3
   1  -6  -5-92.4252 73.0805   1
   1  -6  -5-25.5894 50.5847   3
   1  -6  -5-9.66749 54.9449   2
   1  -6  -4 658.974 158.475   2
   1  -6  -4 767.397 140.715   3
   1  -6  -4 805.653 173.294   1
   1  -6  -3 1255.93 200.081   2
   1  -6  -3 788.361 133.110   3
   1  -6  -3 915.954 183.410   1
   1  -6  -2 829.657 110.394   3
   1  -6  -2 934.297 178.369   2
   1  -6  -2 984.188 186.840   1
   1  -6  -1 446.372 136.253   2
   1  -6  -1 292.490 66.6097   3
   1  -6   0 1416.79 209.491   2
   1  -6   1 17686.8 416.240   3
   1  -6   1 18739.8 742.043   2
   1  -6   2 171.013 48.5321   3
   1  -6   2 231.776 96.2993   2
   1  -6   2 263.096 108.566   1
   1  -6   3 14403.4 720.265   1
   1  -6   3 15520.7 678.619   2
   1  -6   3 14475.2 489.350   3
   1  -6   4 26.4824 58.5392   1
   1  -6   4 21.8628 52.1929   3
   1  -6   4 231.632 100.766   2
   1  -6   5 1013.18 178.011   2
   1  -6   5 709.631 87.7014   4
   1  -6   5 942.493 160.713   3
   1  -6   5 794.647 181.585   1
   1  -6   5 593.055 90.0836   4
   1  -6   6 5207.01 459.677   1
   1  -6   6 5078.97 401.602   2
   1  -6   6 4918.00 398.975   3
   1  -6   6 3851.13 285.404   4
  -1   6  -7 959.463 196.970   3
   1  -6   7 1169.21 226.025   1
   1  -6   7 1003.02 207.881   3
   1  -6   7 1037.13 186.142   2
  -1   6  -8 1443.17 270.311   3
   1  -6   8 1675.09 288.994   3
   1  -6   8 1648.16 269.612   1
   1  -6   9 183.003 127.662   3
   1  -6   9 321.104 142.599   1
   1  -6  10 560.578 168.782   1
   1  -6  10 818.113 246.824   3
   1  -6  11-121.038 128.410   3
  -1   5  11-183.498 162.362   3
  -1   5  10-205.591 150.995   3
  -1   5   9 96.1985 117.434   3
   1  -5  -9-44.2516 66.9459   1
  -1   5   8 2552.25 444.132   3
   1  -5  -8 2928.67 358.128   3
   1  -5  -7-130.476 86.2128   3
   1  -5  -7-57.7488 60.2056   2
  -1   5   7 112.059 98.7530   3
   1  -5  -6 214.720 86.3295   2
  -1   5   6 242.566 142.676   3
   1  -5  -6 588.451 148.695   3
   1  -5  -5-161.304 78.6468   2
   1  -5  -5 74.2048 66.4141   3
  -1   5   4 1840.59 237.474   3
   1  -5  -4 1833.79 219.036   2
   1  -5  -4 1650.01 202.795   3
   1  -5  -3 1.60364 68.8938   2
   1  -5  -3 37.3995 43.8102   3
   1  -5  -2 2223.20 190.106   3
   1  -5  -2 2666.49 262.212   2
   1  -5  -1 262.447 102.346   2
   1  -5  -1 135.388 60.0004   3
   1  -5   0 5919.74 392.197   2
   1  -5   1 2064.37 232.583   2
   1  -5   2 15018.1 664.430   1
   1  -5   2 15453.9 456.926   3
   1  -5   2 16487.0 644.918   2
   1  -5   3 6933.90 339.984   3
   1  -5   3 7520.38 473.426   1
   1  -5   3 7399.10 434.943   2
   1  -5   4 1529.61 134.532   4
   1  -5   4 1838.93 241.337   1
   1  -5   4 1988.51 223.915   2
   1  -5   4 1941.88 203.911   3
   1  -5   5 154.878 79.0280   2
   1  -5   5 268.183 99.1895   3
   1  -5   5 191.852 73.6277   4
   1  -5   5 215.688 97.1035   1
   1  -5   6 84.5606 68.4030   3
   1  -5   6 103.206 73.5080   1
  -1   5  -6 37.8616 54.5922   3
   1  -5   6 68.2309 68.1698   2
   1  -5   7 1126.42 216.576   3
  -1   5  -7 1267.37 224.257   3
   1  -5   7 1243.68 183.745   2
   1  -5   7 1508.99 233.896   1
   1  -5   8-88.0906 78.4931   1
   1  -5   8 73.3481 65.8011   3
  -1   5  -8 134.988 100.088   3
   1  -5   9 33551.7 1353.74   3
   1  -5   9 22605.1 855.964   1
   1  -5  10 66.2126 97.1089   3
   1  -5  11 244.313 156.178   3
  -1   4  11 878.458 283.354   3
  -1   4  10 241.454 156.356   3
  -1   4   9 112.238 121.256   3
  -1   4   8 83.0640 102.540   3
   1  -4  -8 225.777 106.854   3
   1  -4  -8 135.382 79.3553   1
   1  -4  -7 1997.96 202.084   2
   1  -4  -7 2142.57 280.237   3
  -1   4   7 2243.86 359.180   3
   1  -4  -7 2064.93 239.577   1
   1  -4  -6 1221.48 161.836   2
   1  -4  -6 1669.91 230.135   3
   1  -4  -6 1267.04 195.807   1
  -1   4   6 1465.30 270.885   3
   1  -4  -5 568.821 151.365   3
   1  -4  -5 783.079 132.820   2
   1  -4  -5 725.776 141.671   1
   1  -4  -4 377.730 105.990   1
  -1   4   4 340.801 117.843   3
   1  -4  -4 230.731 87.8958   3
   1  -4  -4 286.196 86.4943   2
   1  -4  -3 3369.48 291.108   1
   1  -4  -3 2770.89 238.940   3
   1  -4  -3 3748.90 287.429   2
  -1   4   3 2889.33 281.183   3
   1  -4  -2 377.960 104.825   2
   1  -4  -2 358.434 87.8276   3
   1  -4  -1 137.537 72.3848   2
   1  -4  -1 174.686 70.6486   3
  -1   4   0 3561.66 180.136   4
   1  -4   0 3381.58 271.624   2
   1  -4   1 10988.8 481.777   2
   1  -4   2 4163.41 318.503   1
   1  -4   2 3866.10 235.533   3
   1  -4   2 4117.52 299.399   2
   1  -4   3 2928.85 272.331   1
   1  -4   3 2396.90 154.862   4
   1  -4   3 2587.76 215.871   3
   1  -4   3 2777.31 244.460   2
   1  -4   4 593.639 100.696   4
   1  -4   4 887.867 143.807   2
   1  -4   4 781.881 149.357   1
   1  -4   4 592.212 117.448   3
  -1   4  -5 6804.22 432.028   3
   1  -4   5 6658.45 362.419   2
   1  -4   5 6835.61 426.266   1
   1  -4   5 6014.75 400.891   3
   1  -4   6 2773.95 297.548   3
   1  -4   6 3057.01 242.519   2
   1  -4   6 3233.82 298.977   1
  -1   4  -6 3079.26 317.629   3
   1  -4   7 4263.89 406.923   3
   1  -4   7 4244.77 342.621   1
  -1   4  -7 4250.59 407.622   3
   1  -4   7 4001.14 277.510   2
   1  -4   8 12799.8 579.306   1
  -1   4  -8 13609.5 782.131   3
   1  -4   8 13629.4 788.596   3
   1  -4   9 90.8148 100.574   3
   1  -4  10 781.134 242.016   3
   1  -4  11 714.250 245.132   3
   1  -4  12 1098.46 321.121   3
  -1   3  12 311.584 192.428   3
  -1   3  11 202.719 147.842   3
  -1   3  10 2725.91 480.233   3
  -1   3   9 218.275 142.161   3
   1  -3  -8 43.0701 70.9050   3
  -1   3   8 144.829 107.667   3
   1  -3  -7 112.862 82.9427   3
   1  -3  -7 114.566 50.6591   2
  -1   3   7 184.214 124.605   3
  -1   3   6 11.7082 71.7014   3
   1  -3  -6-11.2546 37.0075   2
   1  -3  -6-31.0573 64.5133   3
   1  -3  -6 11.1563 49.8481   1
   1  -3  -5 1119.93 139.660   2
   1  -3  -5 1255.26 177.481   1
   1  -3  -5 1184.17 192.768   3
   1  -3  -4 43579.3 1020.27   3
   1  -3  -4 40330.4 836.091   2
   1  -3  -4 41930.3 961.123   1
  -1   3   4 43132.1 1136.92   3
   1  -3  -3 3824.30 283.976   1
   1  -3  -3 3122.49 253.320   3
  -1   3   3 3532.46 293.599   3
   1  -3  -3 3701.44 256.278   2
  -1   3   2 36250.4 808.127   1
   1  -3  -2 31472.6 740.696   3
  -1   3   1 49495.8 952.541   1
  -1   3   0 40420.3 591.634   4
  -1   3   0 38870.0 834.407   1
  -1   3  -1 13136.2 486.848   1
   1  -3   1 11578.8 260.442   4
  -1   3  -1 10680.9 271.136   4
   1  -3   2 16280.3 479.416   3
   1  -3   2 16722.4 384.937   4
  -1   3  -2 16907.3 545.919   1
   1  -3   2 16464.7 568.946   1
   1  -3   2 15198.7 509.223   2
   1  -3   3 15466.3 451.929   4
   1  -3   3 15454.2 506.587   2
   1  -3   3 15184.1 523.182   3
   1  -3   3 16979.7 584.980   1
   1  -3   4 5990.68 357.901   3
   1  -3   4 6149.22 362.403   1
   1  -3   4 5871.68 310.645   2
  -1   3  -4 5784.93 357.663   3
   1  -3   5 1848.92 171.690   2
   1  -3   5 1702.71 198.739   1
   1  -3   5 1492.27 202.595   3
  -1   3  -5 1780.52 222.487   3
   1  -3   6 2921.51 202.900   2
   1  -3   6 2860.12 243.078   1
   1  -3   6 2958.96 306.332   3
  -1   3  -6 3020.05 318.115   3
   1  -3   7 4461.01 411.754   3
   1  -3   7 4056.81 231.266   2
  -1   3  -7 4912.08 431.549   3
   1  -3   8 469.501 158.358   3
  -1   3  -8 439.094 150.397   3
   1  -3   9 7321.16 654.766   3
   1  -3  10 1954.33 378.994   3
   1  -3  11 49.8422 116.202   3
   1  -3  12 8.75197 95.1123   3
  -1   2  12 300.932 186.847   3
  -1   2  11 2955.46 501.964   3
  -1   2  10 437.916 195.134   3
  -1   2   9 656.985 228.032   3
  -1   2   8 102.471 108.554   3
   1  -2  -8 198.229 102.138   3
   1  -2  -7 6443.77 487.576   3
   1  -2  -7 5373.49 228.302   2
  -1   2   7 7997.38 636.850   3
   1  -2  -6 8438.56 517.655   3
   1  -2  -6 6391.82 268.960   2
  -1   2   6 7530.23 561.167   3
   1  -2  -5 317.569 111.484   3
   1  -2  -5 366.078 76.1609   2
   1  -2  -4 4131.28 313.659   3
  -1   2   4 3869.03 236.147   1
   1  -2  -4 3851.02 270.689   1
  -1   2   3 66218.9 973.889   1
   1  -2  -3 68839.0 1189.17   3
   1  -2  -3 64810.4 1048.60   1
   1  -2  -2 395356. 2602.03   3
  -1   2   2 393785. 2383.67   1
  -1   2   1 32419.0 687.596   1
   1  -2   0 43274.3 597.680   4
  -1   2   0 43520.5 793.850   1
   1  -2   1 3940.70 189.742   4
  -1   2  -1 3676.28 189.170   4
  -1   2  -1 4061.52 244.353   1
   1  -2   2 17916.2 465.288   4
  -1   2  -2 18897.8 512.211   1
   1  -2   2 17692.5 540.936   1
  -1   2  -3 2394.01 208.737   3
  -1   2  -3 2789.34 196.224   1
   1  -2   3 2446.61 203.303   1
   1  -2   4 6654.21 335.903   1
  -1   2  -4 6428.98 379.926   3
  -1   2  -4 6176.33 280.520   1
  -1   2  -5 2511.10 261.219   3
   1  -2   5 2570.71 170.997   2
   1  -2   6 14950.1 373.699   2
  -1   2  -6 16768.4 725.033   3
   1  -2   7 2461.87 312.393   3
  -1   2  -7 2804.30 322.358   3
   1  -2   7 1645.65 112.590   2
   1  -2   8 13152.4 779.599   3
  -1   2  -8 13262.1 756.142   3
   1  -2   9 1083.16 258.514   3
   1  -2  10 631.184 242.244   3
   1  -2  11 441.888 204.396   3
   1  -2  12-153.521 146.562   3
  -1   1  12 514.173 223.525   3
  -1   1  11 1176.58 354.149   3
  -1   1  10 3772.68 561.464   3
  -1   1   9-247.716 137.454   3
   1  -1  -8-50.4166 71.1956   3
  -1   1   8-180.761 120.768   3
   1  -1  -7 85.9573 28.0930   2
   1  -1  -7 159.576 108.654   3
  -1   1   6 1227.46 111.159   1
   1  -1  -6 1486.16 224.727   3
  -1   1   5 827.379 97.8512   1
   1  -1  -5 733.183 150.882   3
   1  -1  -4 41780.8 996.083   3
  -1   1   4 39356.1 704.850   1
   1  -1  -3 205649. 2078.43   3
  -1   1   3 223074. 1659.25   1
  -1   1   2 130804. 1325.53   1
   1  -1  -2 132587. 1472.13   3
   1  -1  -1 818.556 100.338   4
  -1   1   1 1020.83 123.243   1
  -1   1   0 26.9324 50.8891   1
   1  -1   0 12.5070 33.0237   4
  -1   1  -1 11144.9 394.329   1
   1  -1   1 11307.7 366.978   4
   1  -1   2 27392.0 632.939   4
  -1   1  -2 27032.5 600.976   1
  -1   1  -3 34.7943 43.6660   3
  -1   1  -3 15.9831 36.7106   1
  -1   1  -4 5375.75 239.130   1
  -1   1  -4 4850.34 325.633   3
  -1   1  -5 25.0720 23.8370   1
  -1   1  -5 5.26848 52.6765   3
  -1   1  -6 2606.72 289.741   3
   1  -1   6 2075.42 109.043   2
   1  -1   7 731.992 181.758   3
  -1   1  -7 538.764 148.664   3
   1  -1   8 536.950 170.741   3
  -1   1  -8 920.701 208.914   3
   1  -1   9 46.0500 66.6671   3
   1  -1  10 857.044 236.886   3
   1  -1  11 677.587 242.104   3
   1  -1  12 214.219 152.917   3
  -1   0  12 3388.93 563.245   3
  -1   0  11 4791.25 630.838   3
  -1   0  10-25.8979 99.2319   3
  -1   0   9-1.73441 80.2288   3
   1   0  -8 3676.46 387.882   3
  -1   0   8 2701.03 389.967   3
  -1   0   7 1164.94 97.1569   1
   1   0  -7 1337.64 228.481   3
  -1   0   6 3494.02 200.613   1
   1   0  -6 4746.11 385.464   3
   1   0  -5 22072.0 765.206   3
   1   0  -4 6903.71 402.836   3
   1   0  -3 3904.81 311.599   3
   1   0  -2 117363. 1357.04   3
   1   0  -2 116301. 1277.58   4
   1   0  -1 4747.94 251.390   4
   1   0   0 20360.0 506.125   4
   1   0   1 5311.72 279.776   4
   1   0   2 5834.36 324.852   4
  -1   0  -3 46154.1 898.404   3
  -1   0  -4 708.382 130.962   3
  -1   0  -5 39344.6 1009.44   3
  -1   0  -5 37971.4 630.317   1
  -1   0  -6 9378.42 544.146   3
  -1   0  -6 7314.65 197.062   1
  -1   0  -7 174.321 93.3174   3
   1   0   7 26.6733 74.5076   3
  -1   0  -8 2375.69 327.538   3
   1   0   8 2604.80 353.836   3
   1   0   9 3508.16 440.439   3
   1   0  10-126.978 116.237   3
   1   0  11 353.155 175.705   3
  -1  -1  12 317.781 187.653   3
  -1  -1  11 185.765 154.419   3
  -1  -1  10 560.001 206.972   3
   1   1  -9 80.2804 82.5573   3
  -1  -1   9 51.6041 84.5715   3
  -1  -1   8 1365.71 120.991   1
   1   1  -8 2022.99 296.328   3
   1   1  -8 1384.86 95.6081   2
  -1  -1   8 1968.53 340.071   3
   1   1  -7 8373.97 286.771   2
   1   1  -7 10012.3 599.207   3
   1   1  -6 312.679 114.864   3
   1   1  -5 16932.3 669.105   3
  -1  -1   4 153.743 82.4417   4
   1   1  -4 206.318 90.7212   3
   1   1  -3 22037.9 660.598   3
  -1  -1   3 19044.0 592.437   4
   1   1  -2 77255.4 1076.22   4
   1   1  -2 77470.9 1089.95   3
   1   1  -1 13816.8 445.117   4
   1   1   0 4045.93 254.355   4
   1   1   1 15940.7 533.058   4
   1   1   2 8911.32 434.300   4
  -1  -1  -3 253.779 77.2939   3
  -1  -1  -4 147.285 71.2330   3
  -1  -1  -5 9206.60 497.296   3
   1   1   6 3747.68 359.462   3
  -1  -1  -6 3938.29 354.444   3
   1   1   6 3311.25 164.808   2
  -1  -1  -7 3758.02 377.854   3
   1   1   7 4151.79 410.831   3
   1   1   8 99.1493 102.258   3
  -1  -1  -8 136.681 94.7759   3
   1   1   9 424.975 163.655   3
   1   1  10 461.145 188.056   3
   1   1  11 194.813 147.080   3
  -1  -2  12 428.157 242.946   3
  -1  -2  11-23.4667 110.460   3
  -1  -2  10-208.972 150.058   3
   1   2  -9 914.964 99.4431   2
   1   2  -9 1320.18 251.586   3
  -1  -2   9 1254.82 287.034   3
  -1  -2   8-51.2310 101.391   3
   1   2  -8-36.7913 69.8538   3
   1   2  -8 19.7648 33.9527   2
   1   2  -7 949.752 186.811   3
   1   2  -7 955.013 122.059   2
  -1  -2   7 1074.05 235.408   3
   1   2  -6 11592.9 423.892   2
   1   2  -6 12718.0 613.720   3
  -1  -2   6 11810.4 672.527   3
   1   2  -5 9046.16 493.006   3
  -1  -2   5 8444.48 463.239   4
  -1  -2   5 9401.02 547.823   3
   1   2  -4 557.441 126.684   3
  -1  -2   4 736.657 148.966   3
  -1  -2   4 618.389 122.709   4
   1   2  -3 4475.19 281.711   4
  -1  -2   3 4597.50 304.861   3
   1   2  -3 5358.64 313.926   3
  -1  -2   3 4727.92 302.861   4
  -1  -2   2 4026.63 264.270   4
   1   2  -2 4369.23 253.590   3
   1   2  -2 3995.85 262.355   4
  -1  -2   1 9569.16 396.474   4
   1   2  -1 9933.60 410.664   4
   1   2   0 19554.2 593.572   4
  -1  -2   0 17782.2 568.239   4
   1   2   1 31422.7 567.815   3
   1   2   1 33216.9 841.395   4
   1   2   2 867.334 152.901   4
   1   2   2 1005.86 122.060   3
  -1  -2  -3 2337.26 204.333   3
   1   2   3 2167.56 203.027   3
   1   2   3 2131.06 256.032   4
   1   2   4 3913.47 245.717   2
  -1  -2  -4 3432.90 276.739   3
   1   2   4 3311.13 276.078   3
   1   2   5 15741.4 474.493   2
  -1  -2  -5 14799.0 625.780   3
   1   2   6 9000.19 562.909   3
   1   2   6 10158.1 362.275   2
  -1  -2  -6 10004.5 563.479   3
   1   2   7 6853.24 542.372   3
  -1  -2  -7 6957.47 507.900   3
   1   2   7 6564.04 281.165   2
   1   2   8 94.8853 86.9116   3
  -1  -2  -8-118.129 80.9794   3
   1   2   9 184.967 128.116   3
   1   2  10 1271.91 312.245   3
   1   2  11 272.920 146.474   3
  -1  -3  12 169.584 167.908   3
  -1  -3  11 120.621 135.069   3
  -1  -3  10 1901.69 378.883   3
  -1  -3  10 1487.45 162.167   1
  -1  -3   9 712.048 219.313   3
   1   3  -9 644.074 189.109   3
   1   3  -9 483.467 103.933   2
   1   3  -8 26.5906 44.2971   2
  -1  -3   8-7.67292 77.0058   3
   1   3  -8 38.1646 52.5477   3
  -1  -3   8 69.6469 82.5453   4
  -1  -3   7 292.176 126.730   3
   1   3  -7 195.269 93.0003   3
  -1  -3   7 205.191 98.4100   4
   1   3  -7 288.535 82.0523   2
   1   3  -6 1119.84 153.703   2
  -1  -3   6 1367.00 236.722   3
   1   3  -6 1111.71 187.590   3
  -1  -3   6 1152.50 188.346   4
   1   3  -5 18340.1 618.591   2
   1   3  -5 20049.6 707.916   3
  -1  -3   5 18902.1 770.190   3
  -1  -3   5 18003.3 688.573   4
  -1  -3   4 11979.7 522.096   4
  -1  -3   4 12282.2 554.210   3
   1   3  -4 12411.0 508.445   3
  -1  -3   3 2201.59 211.257   4
   1   3  -3 2499.09 205.702   3
  -1  -3   3 2352.14 217.434   3
   1   3  -3 2160.85 198.393   4
   1   3  -2 10214.7 429.156   4
  -1  -3   2 10000.9 432.858   4
   1   3  -2 11176.8 393.573   3
   1   3  -1 3805.89 274.460   4
  -1  -3   1 3965.62 276.316   4
  -1  -3   0 1254.41 164.945   4
   1   3   0 1246.46 169.413   4
   1   3   1 940.800 156.985   4
   1   3   1 810.725 93.0337   3
   1   3   2 34215.2 984.742   4
   1   3   2 33644.3 658.730   3
   1   3   3 3003.39 323.038   4
   1   3   3 3680.74 284.042   2
   1   3   3 3446.22 250.478   3
  -1  -3  -4 3340.75 278.731   3
   1   3   4 3502.31 286.516   3
   1   3   4 3496.40 265.556   2
   1   3   5 3.48204 47.4818   2
  -1  -3  -5-61.8342 53.5375   3
  -1  -3  -6 22.3235 54.2845   3
   1   3   6-94.4787 57.5675   2
   1   3   6-51.1395 63.2439   3
   1   3   7 6061.38 523.879   3
  -1  -3  -7 5510.12 459.688   3
   1   3   7 6008.40 334.996   2
  -1  -3  -8 641.130 102.914   1
   1   3   8 678.112 204.750   3
   1   3   9 150.284 127.101   3
   1   3  10 89.2353 113.130   3
  -1  -4  12 153.554 166.513   3
  -1  -4  12 282.778 149.755   4
  -1  -4  11 195.844 168.530   3
  -1  -4  11 158.481 114.638   4
  -1  -4  10 177.755 118.800   4
  -1  -4  10 76.0204 98.1940   3
  -1  -4   9 946.671 225.868   4
   1   4  -9 1760.43 285.849   3
  -1  -4   9 1301.09 310.431   3
   1   4  -9 1407.77 195.257   2
   1   4  -8 240.376 109.820   3
  -1  -4   8 165.778 149.044   3
  -1  -4   8 265.004 131.708   4
  -1  -4   7 5209.78 435.734   4
   1   4  -7 5326.47 427.910   3
  -1  -4   7 5756.22 510.344   3
  -1  -4   6 7243.52 472.387   4
   1   4  -6 7701.20 472.563   3
  -1  -4   6 7606.20 538.536   3
  -1  -4   5 923.299 166.995   4
  -1  -4   5 945.175 184.689   3
   1   4  -5 824.879 145.897   3
  -1  -4   4 11065.3 504.474   4
   1   4  -4 11597.7 479.983   3
  -1  -4   4 10716.8 511.189   3
   1   4  -3 5064.48 317.261   4
   1   4  -3 4842.93 277.723   3
  -1  -4   3 5181.43 332.469   4
   1   4  -2 4235.59 295.729   4
  -1  -4   2 4038.36 295.724   4
   1   4  -2 4301.13 227.710   3
  -1  -4   1 4255.59 311.006   4
   1   4  -1 4719.90 322.898   4
   1   4  -1 4330.59 202.770   3
   1   4   0 6988.00 421.990   4
   1   4   0 6684.44 206.972   3
   1   4   1 7386.42 255.775   3
   1   4   1 7021.02 460.601   4
   1   4   1 7868.81 455.281   2
   1   4   2 25202.6 922.530   4
   1   4   2 26126.0 591.028   3
   1   4   2 27446.8 843.258   2
   1   4   3 11309.7 669.116   4
   1   4   3 12551.3 484.963   3
   1   4   3 13395.9 586.283   2
   1   4   4 294.800 147.934   4
   1   4   4 218.103 81.6722   3
   1   4   4 265.675 98.1605   2
   1   4   5 432.593 116.483   2
  -1  -4  -5 345.436 113.943   3
   1   4   6 679.517 179.328   3
  -1  -4  -6 777.160 177.113   3
   1   4   6 735.285 147.714   2
  -1  -4  -7 256.312 109.673   3
   1   4   7 309.893 148.461   3
   1   4   7 182.919 100.155   2
   1   4   8 135.231 122.534   3
  -1  -4  -8 160.027 67.7549   1
   1   4   9 778.232 233.060   3
  -1  -4  -9 763.124 125.959   1
   1   4  10 5223.26 642.698   3
  -1  -5  12 221.464 124.966   4
  -1  -5  12 159.444 163.813   3
  -1  -5  11 1329.24 310.010   4
  -1  -5  11 1742.21 401.143   3
  -1  -5  10 42.6073 94.9944   3
  -1  -5  10 163.284 113.057   4
   1   5  -9 2386.21 331.844   3
  -1  -5   9 2392.81 342.586   4
  -1  -5   9 2909.50 429.876   3
  -1  -5   8 1774.21 286.517   4
   1   5  -8 1684.17 263.706   3
  -1  -5   8 2166.10 357.249   3
  -1  -5   7 178.142 105.195   4
  -1  -5   7 186.540 105.352   3
   1   5  -7 264.774 105.552   3
   1   5  -7 214.672 93.8493   2
   1   5  -6 371.530 120.749   2
  -1  -5   6 289.465 121.413   3
   1   5  -6 372.378 111.855   3
  -1  -5   6 448.922 126.397   4
  -1  -5   5 2394.07 272.713   3
  -1  -5   5 2288.91 249.347   4
   1   5  -5 2468.78 240.900   3
   1   5  -4 3517.58 253.076   3
  -1  -5   4 3272.15 280.698   4
  -1  -5   4 3580.44 297.921   3
   1   5  -3 13583.8 531.960   4
  -1  -5   3 13298.5 555.521   4
   1   5  -3 13938.1 432.363   3
   1   5  -2 9.57622 20.7112   3
   1   5  -2 18.6874 46.0662   4
  -1  -5   2-109.024 65.4532   4
  -1  -5   1 1665.28 209.172   4
   1   5  -1 1930.19 224.261   4
   1   5  -1 1342.45 90.7733   3
   1   5   0 5165.09 387.132   4
   1   5   0 4666.88 142.630   3
   1   5   1 5528.30 431.068   4
   1   5   1 5430.27 417.181   2
   1   5   1 5124.47 211.154   3
   1   5   2 2102.06 283.859   4
   1   5   2 1862.80 164.459   3
   1   5   2 1975.71 252.992   2
   1   5   3 689.313 130.204   3
   1   5   3 535.191 148.969   2
   1   5   3 611.010 170.481   4
   1   5   4 934.879 165.805   3
   1   5   4 918.045 180.126   2
   1   5   4 1227.66 250.620   4
   1   5   5 65.3709 101.308   4
   1   5   5 116.204 92.7094   2
   1   5   6 401.674 138.157   3
   1   5   6 361.408 129.722   2
  -1  -5  -7-82.8011 74.3698   3
   1   5   7 135.721 101.516   3
   1   5   7 140.510 85.4453   2
   1   5   8 47.6695 90.1164   3
   1   5   9 2011.37 377.476   3
  -1  -6  11-0.55732 70.7423   4
  -1  -6  11 122.666 154.227   3
   1   6 -10 84.8434 76.7227   2
  -1  -6  10 235.970 143.999   3
  -1  -6  10-53.0529 74.7036   4
   1   6  -9 6899.79 562.078   3
   1   6  -9 7572.92 545.835   2
  -1  -6   9 8553.91 723.443   3
  -1  -6   9 6418.64 570.015   4
  -1  -6   8 9052.46 616.450   4
   1   6  -8 9156.68 607.774   3
   1   6  -8 10016.0 621.677   2
  -1  -6   8 9876.79 731.600   3
  -1  -6   7 2815.55 328.361   4
   1   6  -7 2987.24 323.013   3
   1   6  -7 2735.60 325.579   2
  -1  -6   7 3024.58 372.505   3
   1   6  -6 1057.74 205.935   2
  -1  -6   6 729.660 159.662   4
  -1  -6   6 1071.83 199.589   3
   1   6  -6 771.285 156.989   3
   1   6  -5 172.167 75.9106   3
  -1  -6   5 1.75327 52.8669   4
  -1  -6   5 43.8578 55.2970   3
   1   6  -5 103.769 71.3945   2
   1   6  -4 267.976 78.1615   3
   1   6  -4 336.439 126.904   2
   1   6  -4 199.705 77.0370   4
  -1  -6   4 218.956 87.3815   4
  -1  -6   3 12526.0 562.579   4
   1   6  -3 11860.7 363.963   3
   1   6  -3 12291.5 521.713   4
   1   6  -3 11244.7 649.799   2
  -1  -6   2 46.2074 58.4957   4
   1   6  -2 55.3692 58.8451   4
   1   6  -2 23.3788 15.3470   3
   1   6  -1 277.263 98.2746   4
   1   6   0 7285.37 523.038   2
   1   6   0 7241.33 487.452   4
   1   6   1 6487.53 499.150   4
   1   6   1 5767.32 470.904   2
   1   6   1 4561.66 190.742   3
   1   6   2 3752.50 407.790   4
   1   6   2 2556.81 195.121   3
   1   6   2 3438.01 358.929   2
   1   6   3-9.38397 35.1733   3
   1   6   3-26.5038 71.2759   4
   1   6   3-26.5582 78.6724   2
   1   6   4 833.578 188.528   2
   1   6   4 970.645 254.651   4
   1   6   4 935.772 173.411   3
   1   6   5 559.132 205.726   4
   1   6   5 1020.02 217.703   2
   1   6   6-7.94193 62.9000   2
   1   6   6 35.2034 70.3768   3
   1   6   7 6.44266 93.9395   2
   1   6   7-142.044 110.639   3
  -1  -6  -8 123.171 82.0615   1
   1   6   8-210.333 132.041   3
  -1  -7  11 542.890 237.299   3
  -1  -7  10 384.585 155.432   4
   1   7 -10 588.517 169.563   2
  -1  -7  10 818.340 268.248   3
   1   7  -9 385.439 175.911   2
  -1  -7   9 304.916 120.303   4
  -1  -7   9 406.010 181.134   3
   1   7  -9 550.621 176.324   3
   1   7  -8-56.0129 91.1029   2
  -1  -7   8-140.332 87.0999   4
   1   7  -8-29.0344 70.8834   3
  -1  -7   8-195.778 115.146   3
   1   7  -7 104.168 88.9808   2
   1   7  -7 103.097 77.1041   3
  -1  -7   7 161.474 102.972   4
  -1  -7   7 47.5822 79.2217   3
  -1  -7   6 571.146 145.026   4
   1   7  -6 342.220 101.959   3
   1   7  -6 485.492 158.077   2
  -1  -7   6 392.967 127.888   3
  -1  -7   5 78.8283 69.4476   4
   1   7  -5 38.2589 47.4819   3
   1   7  -5-38.6493 97.9743   2
  -1  -7   4 22.4878 59.1615   4
   1   7  -4-5.14397 37.3527   4
   1   7  -4 33.7994 37.5069   3
   1   7  -4 85.9214 92.9443   2
   1   7  -3 111.646 98.2726   2
   1   7  -3 113.558 63.3549   4
   1   7  -3 43.5943 22.8086   3
  -1  -7   3 150.179 68.8714   4
   1   7  -2 1506.38 208.479   4
   1   7  -2 1737.49 280.594   2
   1   7  -1 20538.9 811.521   4
   1   7  -1 19768.4 930.746   2
   1   7   0 1004.82 218.177   2
   1   7   0 1021.35 200.320   4
   1   7   1 39.6887 104.247   2
   1   7   1-20.9401 77.9481   4
   1   7   2-5.32958 21.6188   3
   1   7   2 102.045 121.979   4
   1   7   2-181.018 112.711   2
   1   7   3 86.0644 102.624   2
   1   7   3-26.8309 43.2853   3
   1   7   3-27.5553 82.7960   4
   1   7   4 617.327 199.733   4
   1   7   4 627.893 144.608   3
   1   7   4 432.045 170.645   2
   1   7   5 465.804 153.377   2
   1   7   6 2235.64 331.487   3
   1   7   6 2193.55 336.750   2
  -1  -7  -7-30.4733 52.8123   1
   1   7   7-43.4001 79.3357   3
   1   7   8 494.555 199.542   3
  -1  -7  -8 539.920 159.774   1
   1   8 -10 1932.36 338.094   2
  -1  -8  10 2004.90 376.987   3
  -1  -8   9 2095.32 352.965   3
   1   8  -9 1827.26 331.255   2
   1   8  -8 69.9179 57.9779   3
  -1  -8   8-142.528 77.0815   4
   1   8  -8 161.582 127.823   2
  -1  -8   8 23.6064 70.1759   3
   1   8  -7 1531.72 220.827   3
   1   8  -7 1803.28 323.981   2
  -1  -8   7 1289.95 207.756   4
  -1  -8   7 1403.14 256.234   3
  -1  -8   6 1334.56 204.069   4
   1   8  -6 894.874 237.221   2
   1   8  -6 1076.58 175.670   3
  -1  -8   5 5773.07 403.345   4
   1   8  -5 4293.42 285.802   3
   1   8  -5 4416.45 489.614   2
   1   8  -4 2634.30 379.715   2
   1   8  -3 1378.72 185.142   4
   1   8  -3 1178.61 264.445   2
   1   8  -2 24086.2 1121.42   2
   1   8  -2 24720.1 850.837   4
   1   8  -1-25.0372 60.6167   4
   1   8  -1-24.0675 92.2349   2
   1   8   0 625.781 174.051   4
   1   8   0 447.007 164.988   2
   1   8   1 869.444 225.555   2
   1   8   1 999.382 230.606   4
   1   8   2 98.9262 102.816   4
   1   8   2 7.37940 110.657   2
   1   8   3 1072.46 250.269   2
   1   8   3 1236.76 296.003   4
   1   8   3 733.089 112.034   3
   1   8   4-38.0168 97.7602   2
   1   8   4 112.143 64.4483   3
   1   8   5 418.332 185.343   2
   1   8   6-33.3031 106.769   2
   1   8   6 30.8931 46.6115   3
   1   9  -9 551.524 204.235   2
   1   9  -8 513.694 194.783   2
   1   9  -7 1089.51 280.676   2
   1   9  -6 257.784 82.2296   3
   1   9  -6 400.064 202.775   2
   1   9  -5 42.6661 99.8098   2
   1   9  -4 4069.79 515.409   2
   1   9  -3-169.034 132.664   2
   1   9  -3-89.6967 62.0718   4
   1   9  -2 32.6017 100.251   2
   1   9  -2 56.0357 67.7173   4
   1   9  -1 15242.6 755.882   4
   1   9  -1 17059.8 1031.69   2
   1   9   0 582.628 186.628   4
   1   9   0 467.002 210.899   2
   1   9   1-86.9599 124.583   2
   1   9   1-28.4955 95.3233   4
   1   9   2 1099.82 277.475   2
   1   9   2 492.967 229.719   4
   1   9   3 2915.93 446.180   2
   1   9   4 15.8684 105.834   2
   1   9   5 198.341 151.131   2
   1  10  -7 321.813 176.294   2
   1  10  -6 227.132 151.211   2
   1  10  -5 724.231 262.073   2
   1  10  -4-206.932 153.914   2
   1  10  -3 103.429 130.452   2
   1  10  -2 11348.4 912.202   2
   1  10  -1 1763.46 388.829   2
   1  10   0 4019.31 554.817   2
   1  10   1 1528.01 362.753   2
   1  10   2 1207.40 323.417   2
   1  10   3 609.364 237.002   2
   1  11  -5 572.967 252.573   2
   1  11  -4 1360.84 380.553   2
   1  11  -3 331.011 201.646   2
   1  11  -2 23.2401 135.368   2
   1  11  -1-166.583 163.796   2
   1  11   0-199.007 185.333   2
   2 -12   0-59.9205 114.024   1
   2 -12   1 43.4897 128.573   1
   2 -12   2 2751.76 520.825   1
   2 -12   3 694.074 280.438   1
  -2  11   4-170.501 108.580   4
   2 -11  -4-240.373 169.606   1
  -2  11   3 142.036 82.6731   4
   2 -11  -3-194.212 133.798   1
   2 -11  -2-106.741 129.333   1
   2 -11  -1 299.017 178.385   1
   2 -11   0-7.41027 81.6086   1
   2 -11   1 855.176 271.499   1
   2 -11   2 104.407 114.791   1
   2 -11   3 1333.63 351.765   1
   2 -11   4 252.477 171.687   1
   2 -11   5 141.462 130.447   1
   2 -11   6 129.114 139.193   1
   2 -10  -6 216.546 164.295   1
   2 -10  -5 195.731 160.433   1
   2 -10  -4-55.7930 109.900   1
  -2  10   3 61.9071 85.1692   4
   2 -10  -3 58.4884 112.481   1
   2 -10  -2 39.4269 97.6374   1
  -2  10   1 196.430 85.6520   4
  -2  10   1 262.007 82.8089   4
   2 -10  -1 221.344 51.6298   3
   2 -10  -1 472.452 206.465   1
  -2  10   0 74.8888 31.2453   4
  -2  10   0 40.8337 28.3562   4
   2 -10   0 93.0775 37.2801   3
   2 -10   0 136.924 50.8437   3
   2 -10   0 71.7282 110.272   1
   2 -10   1 508.804 80.2301   3
   2 -10   1 585.461 118.317   3
   2 -10   1 1003.25 274.073   1
   2 -10   2 846.262 119.830   3
   2 -10   2 1502.26 330.781   1
   2 -10   3 40.9333 42.9947   3
   2 -10   3 451.998 197.175   1
   2 -10   4 177.328 131.118   1
   2 -10   4 412.262 111.233   3
   2 -10   5 389.536 120.533   3
   2 -10   5 584.513 223.760   1
   2 -10   6-36.9888 102.160   1
   2 -10   6 199.612 109.389   3
   2 -10   7 249.056 133.829   1
   2 -10   7 156.363 104.945   3
   2  -9  -7 195.685 148.429   1
   2  -9  -6 312.058 169.037   1
   2  -9  -5 110.181 123.008   1
   2  -9  -4 502.324 177.712   1
   2  -9  -4 470.012 124.690   3
   2  -9  -3 14.4562 40.4790   3
   2  -9  -3-40.1313 102.825   1
   2  -9  -2 32.1065 43.5937   3
   2  -9  -2-6.19415 81.2210   1
  -2   9   1 1159.09 177.506   4
   2  -9  -1 1338.86 290.084   1
   2  -9  -1 1283.69 169.547   3
   2  -9   0 246.714 90.9958   3
  -2   9   0 243.577 66.9072   4
   2  -9   0 257.792 138.056   1
   2  -9   1-38.0328 92.4314   1
   2  -9   1 24.1388 32.0130   3
   2  -9   2 27.6531 36.8423   3
   2  -9   2-6.31449 76.1348   1
   2  -9   3 74.7539 58.8442   3
   2  -9   3-190.774 123.379   1
   2  -9   4 2487.53 411.310   1
   2  -9   4 1783.55 222.529   3
   2  -9   5 2.49248 72.8346   1
   2  -9   5 55.5695 64.4632   3
   2  -9   6 470.386 199.389   1
   2  -9   6 242.021 108.080   3
   2  -9   7 167.419 146.131   1
   2  -9   7-72.0015 86.4348   3
   2  -9   8 383.214 155.769   3
   2  -9   8 442.828 196.930   1
   2  -8  -8 705.382 228.312   1
   2  -8  -7 88.8161 77.6637   3
   2  -8  -7-82.4368 100.654   1
   2  -8  -6 239.978 107.411   3
   2  -8  -6 156.226 120.992   1
   2  -8  -5 10.8893 46.6210   3
   2  -8  -5 97.4250 104.773   2
   2  -8  -5-100.066 103.052   1
   2  -8  -4-130.497 112.009   1
   2  -8  -4 375.542 158.570   2
   2  -8  -4 103.312 72.0995   3
   2  -8  -3 540.787 125.363   3
   2  -8  -3 490.785 159.759   2
   2  -8  -3 492.475 175.684   1
   2  -8  -2 45.7493 55.1951   3
  -2   8   2 168.930 69.5558   4
   2  -8  -2 29.6875 50.1281   1
   2  -8  -2 88.9321 76.9785   2
  -2   8   1 4382.66 325.176   4
   2  -8  -1 6607.69 547.716   2
   2  -8  -1 5564.05 551.252   1
   2  -8  -1 4788.74 354.445   3
   2  -8   0 1509.80 289.447   1
   2  -8   0 1753.06 288.158   2
  -2   8   0 1111.48 135.570   4
   2  -8   1 1558.51 270.634   2
   2  -8   1 1260.93 158.452   3
   2  -8   1 1435.82 289.040   1
   2  -8   2 2691.24 241.542   3
   2  -8   2 2627.08 384.079   1
   2  -8   2 2722.25 353.320   2
   2  -8   3 1.21430 65.7045   2
   2  -8   3 114.281 55.9000   3
   2  -8   3 50.7027 79.9579   1
   2  -8   4 379.276 148.716   2
   2  -8   4 428.477 168.405   1
   2  -8   4 477.070 122.390   3
   2  -8   5 7022.44 561.533   2
   2  -8   5 6348.38 619.467   1
   2  -8   5 5733.51 429.993   3
   2  -8   6 28.7461 57.6880   3
   2  -8   6 95.1371 106.382   2
   2  -8   6 83.6882 118.794   1
   2  -8   7 1454.08 256.667   2
   2  -8   7 1519.17 263.385   3
   2  -8   7 1347.55 306.287   1
   2  -8   8-1.43157 87.7124   3
   2  -8   8-72.9306 108.526   1
   2  -8   9 1940.83 358.725   1
   2  -8   9 1909.72 358.907   3
   2  -7  -9 286.168 141.960   1
   2  -7  -8 319.868 117.772   2
   2  -7  -8 673.578 207.929   1
   2  -7  -7 20.9003 47.2622   3
   2  -7  -7-66.7584 79.2493   2
   2  -7  -7-59.7956 91.7087   1
   2  -7  -6 872.600 193.983   3
   2  -7  -6 986.527 241.892   1
   2  -7  -6 1099.76 230.425   2
   2  -7  -5 94.1258 87.7352   3
   2  -7  -5-0.95099 97.6676   1
   2  -7  -5-179.030 98.4932   2
   2  -7  -4 418.962 142.225   2
   2  -7  -4 279.159 101.531   3
   2  -7  -4 89.5958 82.7757   1
   2  -7  -3 287.542 122.595   2
   2  -7  -3 227.595 120.847   1
   2  -7  -3 193.414 95.6768   3
  -2   7   2 1655.26 216.767   4
   2  -7  -2 1803.60 295.081   1
   2  -7  -2 2117.45 300.152   2
   2  -7  -2 1405.22 209.121   3
  -2   7   1 2971.65 268.838   4
   2  -7  -1 3115.85 387.131   1
   2  -7  -1 3435.14 381.618   2
  -2   7   0 12.1202 38.0801   4
   2  -7   0 17.2201 63.1732   2
   2  -7   0 55.4476 72.9552   1
   2  -7   1 835.854 189.880   2
  -2   7  -1 460.704 65.5829   4
   2  -7   1 811.603 201.053   1
   2  -7   2 2437.52 235.428   3
   2  -7   2 2156.97 326.850   1
   2  -7   2 2663.37 332.360   2
   2  -7   3-11.6661 59.9230   2
   2  -7   3 49.0266 49.9165   3
   2  -7   3-6.41399 61.4877   1
   2  -7   4 1173.16 223.003   2
   2  -7   4 1271.60 258.199   1
   2  -7   4 1155.69 182.993   3
   2  -7   5 2062.71 288.118   2
   2  -7   5 789.201 97.4114   4
   2  -7   5 1703.66 242.583   3
   2  -7   5 1850.59 324.375   1
   2  -7   6 1462.59 184.184   4
   2  -7   6 2034.54 281.844   3
   2  -7   6 2270.88 307.058   2
   2  -7   6 2414.75 373.976   1
   2  -7   7 12768.1 646.446   4
   2  -7   7 12684.0 749.526   3
   2  -7   7 14922.5 755.006   2
   2  -7   7 14224.4 903.714   1
   2  -7   8 115.872 98.7109   3
   2  -7   8-227.422 106.128   2
   2  -7   8 31.7239 65.2980   1
   2  -7   9 93.9487 134.632   1
   2  -7   9 42.2087 79.3282   3
   2  -7  10 508.499 222.047   3
  -2   6  10-163.677 154.573   3
  -2   6   9 1116.76 303.480   3
   2  -6  -9 464.179 143.893   2
   2  -6  -8 691.738 194.580   3
   2  -6  -8 499.254 136.111   2
   2  -6  -8 667.321 196.939   1
   2  -6  -7 200.295 104.614   2
   2  -6  -7 30.6943 69.7982   3
   2  -6  -7 316.830 149.239   1
   2  -6  -6 78.3009 74.3383   2
   2  -6  -6 124.707 81.6812   3
   2  -6  -6 61.4700 78.2139   1
   2  -6  -5 752.093 170.534   3
   2  -6  -5 938.496 225.514   1
   2  -6  -5 930.327 189.231   2
   2  -6  -4 55.4933 83.9421   1
   2  -6  -4-41.6840 96.0081   2
   2  -6  -4-13.9735 53.5206   3
   2  -6  -3 1368.64 227.239   2
   2  -6  -3 1663.89 225.962   3
   2  -6  -3 1455.77 258.109   1
  -2   6   2 1183.16 181.706   4
   2  -6  -2 1191.59 218.419   2
   2  -6  -2 1348.24 245.256   1
   2  -6  -2 1056.01 180.212   3
   2  -6  -1 5290.77 432.897   2
  -2   6   1 4555.47 325.407   4
   2  -6   0 7324.55 514.549   2
  -2   6   0 6649.40 339.422   4
  -2   6  -1 795.216 100.969   4
   2  -6   1 1078.82 202.827   2
   2  -6   2 2202.18 225.950   3
   2  -6   2 2031.01 300.257   1
   2  -6   2 2250.55 285.491   2
   2  -6   3 1845.05 131.025   4
   2  -6   3 3179.28 291.272   3
   2  -6   3 3405.74 392.653   1
   2  -6   3 3460.69 353.225   2
   2  -6   4 2081.88 247.380   3
   2  -6   4 2231.02 328.122   1
   2  -6   4 1994.06 275.226   2
   2  -6   4 1518.32 156.331   4
   2  -6   5 69.4581 77.0666   2
   2  -6   5 119.117 64.8985   4
   2  -6   5-19.6172 72.5777   1
   2  -6   5 5.64325 58.5527   3
   2  -6   6 28763.1 950.973   4
   2  -6   6 29470.9 1051.75   3
   2  -6   6 31374.0 1021.25   2
   2  -6   6 30636.9 1211.08   1
   2  -6   7 4421.30 417.752   4
   2  -6   7 4132.62 430.288   3
   2  -6   7 4514.73 391.263   2
   2  -6   7 4678.79 478.469   1
   2  -6   8 320.771 142.141   4
   2  -6   8 148.055 94.6044   2
   2  -6   8 279.930 135.533   1
   2  -6   8 389.023 150.761   3
   2  -6   9 309.290 152.193   3
   2  -6   9 165.311 121.597   4
   2  -6  10 100.641 122.262   3
  -2   5  11 151.680 157.828   3
  -2   5  10 13.0627 62.3756   3
   2  -5  -9 114.141 71.0690   2
  -2   5   9 57.5863 99.0179   3
   2  -5  -8 185.720 74.6181   2
   2  -5  -8-163.888 117.501   3
  -2   5   8 107.699 110.673   3
   2  -5  -7 600.497 167.892   3
   2  -5  -7 355.445 118.791   2
   2  -5  -6 709.472 175.230   3
   2  -5  -6 648.628 150.221   2
   2  -5  -5 3079.90 342.084   3
   2  -5  -5 3532.53 330.772   2
   2  -5  -4 24373.8 925.687   3
   2  -5  -4 22262.3 827.574   2
  -2   5   3 15841.2 720.286   1
   2  -5  -3 17821.8 742.676   3
  -2   5   2 21989.3 747.976   4
  -2   5   2 20845.1 822.639   1
   2  -5  -2 21302.9 770.412   3
  -2   5   1 3369.99 275.967   4
  -2   5   1 3538.85 342.574   1
  -2   5   0 7988.65 380.626   4
  -2   5   0 8331.52 523.777   1
  -2   5  -1 37293.1 737.829   4
  -2   5  -1 35728.1 1089.74   1
   2  -5   1 37240.5 662.449   4
  -2   5  -2 663.992 153.224   1
   2  -5   2 504.095 87.0152   4
   2  -5   2 518.825 150.113   1
  -2   5  -2 396.958 80.3925   4
   2  -5   3 586.531 167.152   1
   2  -5   3 470.116 140.636   2
  -2   5  -3 390.539 120.011   1
   2  -5   3 630.057 133.199   3
   2  -5   3 602.099 108.114   4
   2  -5   4 2122.03 224.853   4
   2  -5   4 2367.04 271.368   3
   2  -5   4 1973.16 289.830   1
   2  -5   4 2079.19 253.854   2
   2  -5   5 1426.83 210.799   4
   2  -5   5 1176.52 228.561   1
   2  -5   5 1189.93 196.244   2
   2  -5   5 1367.05 214.471   3
   2  -5   6 1618.04 267.583   1
   2  -5   6 1650.22 252.467   4
   2  -5   6 1485.30 245.543   3
   2  -5   6 2144.53 253.928   2
   2  -5   7 10840.2 681.844   4
   2  -5   7 11696.1 712.944   1
   2  -5   7 11380.8 704.838   3
   2  -5   7 12317.9 586.574   2
   2  -5   8 404.157 155.770   3
   2  -5   8 448.889 168.945   4
   2  -5   8 379.747 105.620   2
   2  -5   9 1623.90 316.413   3
   2  -5   9 1303.02 280.784   4
   2  -5   9 1733.99 215.337   2
   2  -5  10 223.630 126.063   3
   2  -5  11 1510.40 373.641   3
  -2   4  11 79.9091 103.084   3
  -2   4  10 489.777 223.132   3
   2  -4  -9 1078.48 162.431   2
  -2   4   9 1061.16 349.582   3
   2  -4  -8 756.607 220.717   3
  -2   4   8 1017.10 292.577   3
   2  -4  -8 739.659 135.709   2
   2  -4  -7 1743.40 288.106   3
  -2   4   7 1750.44 343.484   3
   2  -4  -7 1457.60 197.864   2
  -2   4   6 3230.93 303.294   1
   2  -4  -6 3278.10 367.693   3
   2  -4  -6 3990.19 327.759   2
  -2   4   5 12691.2 600.785   1
   2  -4  -5 14238.8 727.922   3
  -2   4   4 35149.4 994.910   1
   2  -4  -4 29907.1 1017.08   3
  -2   4   3 17121.8 694.187   4
  -2   4   3 15948.5 678.802   1
   2  -4  -3 15769.7 698.621   3
  -2   4   2 4292.03 330.777   4
  -2   4   2 4365.65 358.977   1
  -2   4   1 7588.58 472.885   1
  -2   4   1 7430.93 409.289   4
  -2   4   0 6011.74 338.340   4
   2  -4   0 6228.66 308.939   4
  -2   4   0 5506.61 402.413   1
  -2   4  -1 66.1244 54.6368   1
   2  -4   1-9.92146 40.0883   4
  -2   4  -1 13.4287 45.1672   4
   2  -4   2 3609.00 256.324   4
  -2   4  -2 3546.74 247.218   4
  -2   4  -2 3668.80 328.856   1
   2  -4   2 3171.51 334.884   1
   2  -4   3 58.5073 79.7059   1
  -2   4  -3 39.1044 45.0564   1
   2  -4   3 21.8372 52.8607   4
   2  -4   3 41.3879 47.6011   3
   2  -4   4 2831.35 322.167   1
  -2   4  -4 2358.97 260.510   1
   2  -4   4 2679.07 283.954   3
   2  -4   4 2698.99 273.410   4
   2  -4   5 4339.15 376.206   4
   2  -4   5 4406.10 405.159   1
  -2   4  -5 4255.58 340.571   1
   2  -4   5 4047.21 370.706   3
   2  -4   6 24521.3 973.580   4
   2  -4   6 25547.2 970.198   3
   2  -4   6 25933.0 812.733   2
   2  -4   7 268.366 93.3016   2
   2  -4   7 498.732 166.811   4
   2  -4   7 566.580 169.444   3
   2  -4   8 4678.51 494.690   4
   2  -4   8 5272.58 512.685   3
   2  -4   8 5484.10 339.356   2
   2  -4   9 2847.90 429.704   4
   2  -4   9 3485.45 257.678   2
   2  -4   9 3178.46 441.923   3
   2  -4  10 410.453 176.007   3
   2  -4  11-238.551 164.763   3
  -2   3  12 785.367 307.496   3
  -2   3  11 442.159 210.143   3
  -2   3  10-166.141 139.926   3
   2  -3 -10 13.1426 29.1066   2
   2  -3  -9-53.3359 48.7821   2
  -2   3   9 100.703 105.209   3
   2  -3  -8-58.9197 82.7718   3
   2  -3  -8-30.2307 49.7348   2
  -2   3   8 162.398 115.615   3
   2  -3  -7 138.642 95.2748   3
  -2   3   7 195.519 135.390   3
  -2   3   7 23.9012 40.5174   1
   2  -3  -6 24.7172 63.4731   3
  -2   3   6 17.0561 44.3248   1
  -2   3   6 3.13384 79.1951   3
  -2   3   5 17315.6 661.159   1
   2  -3  -5 15063.4 751.837   3
  -2   3   4 31782.1 907.206   1
   2  -3  -4 34328.3 1087.45   3
   2  -3  -3 6229.45 465.040   1
   2  -3  -3 5694.31 425.753   3
  -2   3   3 5202.17 370.320   1
  -2   3   3 5880.30 405.753   4
  -2   3   2 18588.9 678.717   4
  -2   3   2 17693.9 688.619   1
  -2   3   1 25811.4 756.099   4
   2  -3  -1 25983.8 686.468   4
  -2   3   1 26669.2 850.205   1
  -2   3   0 1305.49 171.012   4
   2  -3   0 1312.43 159.242   4
  -2   3   0 1331.16 198.196   1
  -2   3  -1 45.4974 62.3238   1
   2  -3   1 5.50521 47.7842   4
  -2   3  -1 13.6169 45.8934   4
  -2   3  -2 17384.8 589.564   4
   2  -3   2 17481.1 752.172   1
  -2   3  -2 18618.9 710.737   1
   2  -3   2 17734.4 623.024   4
   2  -3   3 6615.61 465.604   1
   2  -3   3 6910.72 427.195   3
  -2   3  -3 7389.41 441.726   1
   2  -3   3 6903.89 418.812   4
   2  -3   4 983.060 177.005   4
  -2   3  -4 841.925 152.351   1
   2  -3   4 968.666 176.270   3
   2  -3   5 168.596 101.429   4
  -2   3  -5 404.507 107.283   1
   2  -3   5 203.650 95.1063   3
   2  -3   6 1940.61 291.828   4
  -2   3  -6 2329.98 228.751   1
   2  -3   6 2154.47 288.665   3
   2  -3   7 624.768 175.028   3
   2  -3   7 457.993 101.098   2
   2  -3   7 560.272 176.938   4
   2  -3   8 139.137 103.539   3
   2  -3   8-1.25671 31.8397   2
   2  -3   8 205.662 125.080   4
   2  -3   9 0.44254 21.2498   2
   2  -3   9 211.811 141.391   4
   2  -3   9-111.808 108.092   3
   2  -3  10 1310.05 314.812   3
   2  -3  11 180.182 145.712   3
  -2   2  12 174.898 154.528   3
  -2   2  11-155.116 146.611   3
  -2   2  10 5.10046 73.7657   3
   2  -2 -10 82.5467 36.0765   2
   2  -2  -9 15.2469 33.5158   2
  -2   2   9 69.5251 100.847   3
   2  -2  -8 1195.46 254.368   3
  -2   2   8 1314.30 302.075   3
  -2   2   8 1133.12 153.435   1
  -2   2   7-25.1208 81.0679   3
   2  -2  -7-51.2549 80.4920   3
  -2   2   7 47.3973 41.4994   1
  -2   2   6 37280.4 935.959   1
   2  -2  -6 38658.4 1256.97   3
   2  -2  -5 49066.2 1376.97   3
  -2   2   5 41415.1 1014.30   1
   2  -2  -4 4495.86 401.732   3
  -2   2   4 4261.80 325.425   1
   2  -2  -3 1273.14 223.361   3
  -2   2   3 1631.32 204.406   1
   2  -2  -2 158.869 72.8632   4
  -2   2   2 129.959 71.8698   1
  -2   2   1 46068.3 1108.32   1
   2  -2  -1 46752.1 975.554   4
   2  -2   0 2192.96 218.699   4
  -2   2   0 2404.90 261.403   1
  -2   2  -1 9089.64 451.547   4
   2  -2   1 8566.04 442.683   4
  -2   2  -1 9508.25 507.039   1
   2  -2   2 6632.72 409.384   4
  -2   2  -2 7205.79 409.280   4
  -2   2  -2 7162.32 427.973   1
   2  -2   3 24203.5 826.648   4
  -2   2  -3 23945.6 782.220   1
   2  -2   4 7350.22 494.018   4
  -2   2  -4 8318.73 456.538   1
   2  -2   5 2676.38 325.212   4
  -2   2  -5 3337.74 278.254   1
  -2   2  -6 52.5982 38.8572   1
   2  -2   6 151.754 99.2253   4
   2  -2   6 168.041 98.1848   3
   2  -2   7 257.710 117.684   3
  -2   2  -7 423.155 90.4922   1
   2  -2   7 417.409 179.156   4
   2  -2   8 267.483 124.964   3
   2  -2   8 250.968 133.107   4
   2  -2   8 165.644 56.5267   2
   2  -2   9 410.811 174.892   3
   2  -2  10 47.9081 99.2009   3
   2  -2  11-57.0606 129.359   3
  -2   1  12-192.069 141.731   3
  -2   1  11 536.289 230.462   3
   2  -1 -10 36.3840 30.6083   2
  -2   1  10 189.231 136.237   3
  -2   1   9 722.738 113.633   1
  -2   1   9 741.699 236.431   3
   2  -1  -8 126.193 99.8651   3
  -2   1   8 210.420 144.529   3
  -2   1   8 272.289 82.3576   1
   2  -1  -7 3697.80 404.636   3
  -2   1   7 3936.85 294.126   1
   2  -1  -6 558.118 154.947   3
  -2   1   6 295.491 96.6899   1
  -2   1   5 11637.6 553.277   1
   2  -1  -5 12302.5 691.056   3
   2  -1  -4 6166.20 466.945   3
   2  -1  -3 6778.64 412.472   4
   2  -1  -3 5847.35 431.037   3
   2  -1  -2 855.922 148.532   4
   2  -1  -1 4462.16 319.645   4
   2  -1   0 12575.6 539.553   4
   2  -1   1 27207.4 817.597   4
   2  -1   2 2942.74 294.715   4
   2  -1   3 92228.4 1688.98   4
   2  -1   4-68.9969 71.7223   4
  -2   1  -4-89.6410 63.3296   1
   2  -1   5 2570.71 336.954   4
  -2   1  -5 2934.90 263.277   1
  -2   1  -6 28.5830 48.4428   1
   2  -1   6 60.5774 74.9339   4
   2  -1   6 4.43288 48.7310   3
   2  -1   7 1848.67 331.573   4
  -2   1  -7 2619.50 207.347   1
   2  -1   7 2230.08 319.550   3
  -2   1  -8 3788.69 192.193   1
   2  -1   8 4360.65 465.340   3
   2  -1   9 175.688 113.632   3
   2  -1  10 1106.55 309.808   3
   2  -1  11 1091.35 296.457   3
  -2   0  12-74.3085 99.8300   3
  -2   0  11 338.542 199.604   3
  -2   0  10-23.3521 89.1704   3
  -2   0  10-30.1983 29.7057   1
  -2   0   9 1708.60 354.506   3
  -2   0   9 1262.95 158.649   1
   2   0  -8 5429.87 502.246   3
  -2   0   8 5161.34 515.955   4
  -2   0   8 4246.33 510.580   3
  -2   0   8 5137.90 352.784   1
   2   0  -7 1239.59 232.822   3
  -2   0   7 1129.98 237.281   4
  -2   0   7 1277.49 263.358   3
   2   0  -6 2672.82 328.415   3
  -2   0   6 2615.19 323.262   4
   2   0  -5 24822.4 966.555   3
   2   0  -4 599.720 162.785   3
   2   0  -3 198.472 84.1250   4
   2   0  -3 129.205 74.2004   3
   2   0  -2 48938.2 1105.65   4
   2   0  -1 6014.09 386.309   4
   2   0   0 56797.9 1203.90   4
   2   0   1 4369.43 351.161   4
   2   0   2 15952.4 696.337   4
   2   0   3 43559.0 1216.57   4
   2   0   4 3446.51 372.601   4
   2   0   5 9635.56 660.875   4
   2   0   6 2006.33 321.648   4
  -2   0  -6 2469.14 246.327   1
   2   0   6 2077.12 282.448   3
   2   0   7 91.2174 86.8326   3
   2   0   7 236.408 137.781   4
  -2   0  -7 106.640 51.9539   1
   2   0   8-91.2073 93.1140   3
  -2   0  -8 152.401 45.7085   1
   2   0   9 305.369 161.027   3
   2   0  10 143.142 146.121   3
   2   0  11 402.143 195.559   3
  -2  -1  12 485.845 211.136   4
  -2  -1  12 230.287 163.876   3
   2   1 -11 456.499 65.2032   2
  -2  -1  11 826.124 278.210   3
  -2  -1  11 1285.63 307.169   4
  -2  -1  10 215.935 131.588   4
  -2  -1  10 232.034 181.125   3
   2   1 -10 28.6106 35.6630   2
  -2  -1  10 88.6231 50.3777   1
  -2  -1   9 356.012 147.378   4
  -2  -1   9 247.274 154.811   3
   2   1  -8 323.889 136.864   3
  -2  -1   8 284.992 173.907   3
  -2  -1   8 231.123 134.411   4
  -2  -1   7 7969.66 587.466   4
   2   1  -7 8456.69 612.104   3
  -2  -1   7 7826.03 648.868   3
  -2  -1   6 291.479 134.212   3
   2   1  -6 344.939 137.991   3
  -2  -1   6 169.820 105.415   4
  -2  -1   5 4254.88 399.894   4
   2   1  -5 4787.19 427.955   3
  -2  -1   5 4153.40 417.565   3
   2   1  -4 6759.81 442.906   4
  -2  -1   4 6277.37 455.390   4
   2   1  -4 6468.36 453.729   3
   2   1  -3 2776.09 289.634   3
   2   1  -3 3064.58 292.804   4
   2   1  -2 1873.57 227.432   4
   2   1  -1 927.850 163.411   4
   2   1   0 23672.2 815.645   4
   2   1   1 19293.7 765.600   4
   2   1   2 7577.17 503.532   4
   2   1   3 816.279 188.794   4
   2   1   4 903.433 208.591   4
   2   1   5 38.0916 67.0015   3
   2   1   5-30.0012 81.4659   4
   2   1   6 1118.35 210.703   3
   2   1   6 1008.17 238.017   4
   2   1   7 7.25251 65.4977   3
   2   1   8 4.48191 35.7235   2
   2   1   8-139.909 110.976   3
  -2  -1  -8 12.3244 28.4797   1
   2   1   9 167.925 119.210   3
   2   1  10 2276.50 407.968   3
  -2  -2  12 119.380 117.413   4
  -2  -2  12 178.116 171.011   3
   2   2 -11 187.359 61.5396   2
  -2  -2  11 112.885 109.208   4
  -2  -2  11 82.2361 130.962   3
  -2  -2  10 1295.95 299.781   4
  -2  -2  10 1816.44 388.240   3
   2   2 -10 1469.48 171.936   2
  -2  -2   9 2247.38 388.560   3
  -2  -2   9 2218.43 354.574   4
  -2  -2   8 9465.12 693.107   4
   2   2  -8 10591.2 694.803   3
  -2  -2   8 10234.0 768.154   3
   2   2  -7 6773.24 523.914   3
  -2  -2   7 6743.15 586.813   3
  -2  -2   7 6410.85 536.337   4
  -2  -2   6 1147.94 219.399   4
   2   2  -6 1294.93 224.337   3
  -2  -2   6 1111.88 233.678   3
  -2  -2   5 5670.79 455.304   4
   2   2  -5 6200.21 463.466   3
   2   2  -4 5126.04 395.745   3
  -2  -2   4 4982.60 402.778   4
   2   2  -4 4939.97 384.639   4
  -2  -2   3 11686.8 604.437   4
   2   2  -3 12341.2 571.300   3
   2   2  -3 12700.5 609.919   4
   2   2  -2 8150.71 484.140   4
  -2  -2   2 8564.55 504.144   4
  -2  -2   1 23967.4 851.931   4
   2   2  -1 23928.7 846.318   4
   2   2   0 692.089 160.344   4
  -2  -2   0 692.590 152.380   4
   2   2   1 4774.69 406.507   4
   2   2   2 1128.21 207.860   4
   2   2   2 1153.17 163.864   3
   2   2   3 530.095 157.345   4
   2   2   4 1202.00 251.918   4
   2   2   5 861.141 170.647   3
   2   2   5 474.265 173.238   4
   2   2   6 6.32002 79.8786   3
   2   2   6-9.69148 77.0700   4
   2   2   7 149.051 98.8546   3
   2   2   7 266.355 88.0480   2
   2   2   8 8084.90 660.804   3
   2   2   8 9082.88 393.268   2
   2   2   9 131.748 108.398   3
   2   2  10 196.676 138.764   3
  -2  -3  12 449.896 188.271   4
  -2  -3  12 585.247 255.816   3
  -2  -3  11 372.815 174.100   4
   2   3 -11 53.7988 51.0916   2
  -2  -3  11-24.7853 98.2583   3
  -2  -3  10 3645.52 481.753   4
  -2  -3  10 3334.73 512.478   3
  -2  -3   9 29.1249 89.3704   4
  -2  -3   9-177.914 141.065   3
   2   3  -8 817.023 215.975   3
  -2  -3   8 849.357 256.095   3
  -2  -3   8 843.541 211.306   4
   2   3  -7 2841.38 339.156   3
  -2  -3   7 2280.80 353.007   3
  -2  -3   7 2797.11 361.456   4
  -2  -3   6 5067.43 463.648   4
   2   3  -6 4569.64 415.503   3
  -2  -3   6 4955.31 466.016   3
   2   3  -5 6795.32 468.778   3
  -2  -3   5 6088.60 475.585   4
   2   3  -4 6040.36 421.447   3
   2   3  -4 5874.91 435.598   4
  -2  -3   4 5397.10 428.744   4
   2   3  -3 142.957 75.1844   4
  -2  -3   3 112.814 78.8166   4
   2   3  -3 146.270 68.2661   3
  -2  -3   2 4751.19 395.339   4
   2   3  -2 4765.80 391.889   4
  -2  -3   1 34597.2 1070.40   4
   2   3  -1 35553.5 1066.96   4
  -2  -3   0 25687.3 942.434   4
   2   3   0 27477.4 967.548   4
  -2  -3  -1 2296.74 298.351   4
   2   3   1 2948.65 335.028   4
   2   3   2 7472.19 558.787   4
   2   3   2 7725.46 400.820   3
   2   3   3 214.594 112.602   4
   2   3   4 4306.83 495.889   4
   2   3   5-78.2522 69.6666   3
   2   3   5-236.462 132.193   4
   2   3   6 4047.54 328.700   2
   2   3   6 3112.30 353.865   3
   2   3   7 5048.84 488.607   3
   2   3   7 6676.43 406.927   2
   2   3   8-153.123 70.2757   2
   2   3   8 68.5164 119.769   3
   2   3   9 10.0998 82.7016   3
   2   3  10-155.953 132.190   3
  -2  -4  12 722.076 248.700   4
  -2  -4  12 707.749 273.885   3
  -2  -4  11 1546.01 337.659   4
  -2  -4  11 1794.16 393.556   3
  -2  -4  10 200.833 141.591   4
   2   4 -10 338.228 111.899   2
  -2  -4  10 583.469 222.973   3
  -2  -4   9 1312.03 276.157   4
   2   4  -9 1151.57 200.682   2
  -2  -4   9 787.156 241.063   3
   2   4  -8 2605.25 292.796   2
   2   4  -8 2331.64 327.439   3
  -2  -4   8 2194.23 366.981   3
  -2  -4   8 2224.91 348.598   4
  -2  -4   7 1881.43 298.823   4
   2   4  -7 1927.71 277.593   3
  -2  -4   7 2049.65 329.314   3
  -2  -4   6-28.6786 59.4333   4
   2   4  -6-19.0848 58.4703   3
   2   4  -5 373.881 110.343   4
  -2  -4   5 276.453 116.267   4
   2   4  -5 516.570 135.636   3
   2   4  -4 446.100 132.150   4
  -2  -4   4 444.339 142.426   4
   2   4  -4 496.209 133.212   3
  -2  -4   3 6346.75 474.035   4
   2   4  -3 6776.01 472.991   4
   2   4  -3 6711.54 406.434   3
  -2  -4   2 15388.8 726.971   4
   2   4  -2 15683.9 579.396   3
   2   4  -2 14987.3 721.162   4
  -2  -4   1 17323.9 797.053   4
   2   4  -1 18173.1 803.227   4
   2   4   0 1196.42 218.749   4
  -2  -4   0 925.878 197.159   4
   2   4   1 2226.65 314.093   4
   2   4   1 2189.81 196.614   3
   2   4   2 1427.00 267.478   4
   2   4   2 999.718 145.350   3
   2   4   3 3811.86 451.515   4
   2   4   4-18.0604 100.848   4
   2   4   4 183.498 102.808   2
   2   4   5 1961.46 256.418   2
   2   4   5 1764.61 246.831   3
   2   4   6-54.0319 72.0272   3
   2   4   6-18.6329 88.1868   2
   2   4   7 1006.57 182.386   2
   2   4   7 1211.24 261.049   3
   2   4   8 14325.9 911.641   3
   2   4   8 18626.0 744.359   2
   2   4   9 585.557 205.624   3
  -2  -5  11-249.238 136.725   4
   2   5 -11-38.7922 67.3354   2
  -2  -5  11-115.801 137.794   3
  -2  -5  10 676.292 216.596   4
   2   5 -10 755.171 174.437   2
  -2  -5  10 757.757 250.393   3
   2   5  -9 764.338 175.484   2
  -2  -5   9 1054.45 258.829   4
  -2  -5   9 820.874 252.241   3
   2   5  -8 744.174 191.077   3
  -2  -5   8 451.424 181.188   3
  -2  -5   8 663.637 203.654   4
   2   5  -8 703.550 176.207   2
   2   5  -7 63.4608 77.0297   3
  -2  -5   7 12.5820 73.9155   4
   2   5  -7-1.05060 49.7464   2
  -2  -5   6 6447.99 519.560   4
   2   5  -6 6041.92 482.370   2
   2   5  -6 6353.20 461.138   3
  -2  -5   5 4203.78 406.669   4
   2   5  -5 3746.91 348.670   4
   2   5  -5 4250.39 410.243   2
   2   5  -5 3765.81 330.276   3
  -2  -5   4 2297.51 294.572   4
   2   5  -4 2498.27 253.125   3
   2   5  -4 2401.79 292.232   4
  -2  -5   3 3705.80 378.542   4
   2   5  -3 3119.05 335.397   4
   2   5  -3 3529.13 292.066   3
   2   5  -2 3.73083 72.5469   4
  -2  -5   2-6.65384 90.0105   4
   2   5  -2-16.8829 44.0088   3
   2   5  -1 155.701 86.9381   4
  -2  -5   1 198.604 107.950   4
  -2  -5   0 2357.18 320.117   4
   2   5   0 2672.44 344.418   4
   2   5   1 1901.36 302.891   4
   2   5   1 1624.75 166.631   3
   2   5   2 873.647 218.548   4
   2   5   2 894.079 132.969   3
   2   5   2 889.249 206.187   2
   2   5   3 596.472 203.808   4
   2   5   3 427.550 142.798   2
   2   5   4 551.877 216.794   4
   2   5   4 636.766 170.811   2
   2   5   5 76.5081 82.1735   2
   2   5   5-71.8318 72.6114   3
   2   5   6 78.8207 73.9301   2
   2   5   6 30.9875 64.1225   3
   2   5   7 9102.38 694.834   3
   2   5   7 9824.69 606.662   2
   2   5   8-42.0803 66.5134   3
  -2  -6  11 59.4809 76.0590   4
   2   6 -11 150.693 85.7717   2
  -2  -6  11 191.139 177.079   3
   2   6 -10-79.7220 95.4442   2
  -2  -6  10-42.1480 91.8771   4
  -2  -6  10 239.340 158.572   3
   2   6  -9 91.8848 87.6357   2
  -2  -6   9 197.289 118.095   4
  -2  -6   9 397.221 175.076   3
   2   6  -8 1124.50 228.680   3
   2   6  -8 1020.83 215.235   2
  -2  -6   8 953.506 228.712   4
  -2  -6   7 2770.30 366.166   4
   2   6  -7 2755.33 349.197   2
   2   6  -7 2357.00 294.335   3
  -2  -6   6 4621.92 452.115   4
   2   6  -6 5016.51 474.540   2
   2   6  -6 4876.92 398.796   3
   2   6  -5 331.538 119.744   4
  -2  -6   5 278.061 127.658   4
   2   6  -5 518.247 159.076   2
   2   6  -5 318.768 104.621   3
  -2  -6   4 29688.6 1104.86   4
   2   6  -4 28504.8 1004.69   4
   2   6  -4 29033.2 1151.08   2
   2   6  -4 29310.4 813.026   3
  -2  -6   3 6497.80 520.585   4
   2   6  -3 6125.93 529.653   2
   2   6  -3 6524.77 363.829   3
   2   6  -3 5810.18 467.887   4
   2   6  -2 585.481 111.488   3
   2   6  -2 718.293 180.223   4
  -2  -6   2 766.627 187.024   4
   2   6  -2 685.197 176.773   2
   2   6  -1 1374.42 244.873   4
  -2  -6   1 1413.37 246.917   4
   2   6  -1 1211.47 150.085   3
   2   6  -1 1110.52 232.864   2
   2   6   0 512.458 163.448   4
   2   6   0 540.405 172.278   2
   2   6   0 423.017 73.2982   3
   2   6   1-43.7524 91.1997   4
   2   6   1 49.6938 86.0198   2
   2   6   1 56.8833 42.7250   3
   2   6   2-7.37226 32.1862   3
   2   6   2 161.669 118.779   2
   2   6   2-52.1750 106.588   4
   2   6   3 162.269 81.7602   3
   2   6   3 26.4083 86.2878   4
   2   6   3 118.317 93.6041   2
   2   6   4 2292.72 327.412   2
   2   6   5 4547.39 420.589   3
   2   6   5 5678.58 500.102   2
   2   6   6 1862.78 296.845   3
   2   6   6 2347.21 330.787   2
   2   6   7 381.772 152.694   3
   2   6   7 781.474 203.484   2
  -2  -7  10 108.223 116.664   4
   2   7 -10 71.7910 101.668   2
  -2  -7   9 207.956 131.623   4
   2   7  -9 96.8728 106.183   2
   2   7  -8 736.772 178.359   3
  -2  -7   8 477.685 159.921   4
   2   7  -8 220.540 112.610   2
   2   7  -7-49.3167 90.5027   2
   2   7  -7 5.60761 60.6920   3
  -2  -7   7 69.9906 81.7742   4
   2   7  -6 2135.59 332.756   2
  -2  -7   6 2130.39 318.759   4
   2   7  -6 2215.63 255.886   3
  -2  -7   5 5752.24 512.062   4
   2   7  -5 4979.01 346.144   3
   2   7  -5 5072.90 519.228   2
   2   7  -5 5099.77 422.088   4
  -2  -7   4 9595.84 652.658   4
   2   7  -4 8243.03 653.771   2
   2   7  -4 8544.05 402.652   3
   2   7  -4 8597.61 561.623   4
  -2  -7   3 14643.1 804.626   4
   2   7  -3 13965.5 854.063   2
   2   7  -3 13571.6 461.999   3
   2   7  -3 13913.5 740.752   4
   2   7  -2 2009.74 297.816   4
   2   7  -2 2132.47 340.351   2
  -2  -7   2 1766.83 292.356   4
   2   7  -2 1881.29 156.096   3
   2   7  -1 270.421 132.364   4
   2   7  -1 171.678 51.3021   3
   2   7  -1 252.739 44.7443   3
   2   7  -1 78.4241 98.1304   2
   2   7   0-44.0470 24.3470   3
   2   7   0 61.3558 119.038   4
   2   7   0-51.6341 32.8207   3
   2   7   0 45.0315 94.9856   2
   2   7   1 3992.15 487.466   4
   2   7   1 3135.30 199.278   3
   2   7   1 4808.03 502.381   2
   2   7   2 184.922 118.348   2
   2   7   2 172.094 66.4005   3
   2   7   2 404.991 177.619   4
   2   7   3 2674.70 367.349   2
   2   7   3 1741.59 206.246   3
   2   7   4 1923.11 323.325   2
   2   7   5-131.296 114.431   2
   2   7   5 356.589 127.900   3
   2   7   6 48.6370 102.748   2
   2   7   6-45.3946 58.0091   3
   2   8  -9 544.855 192.027   2
   2   8  -8-46.6879 98.6434   2
   2   8  -8 3.13734 46.7432   3
  -2  -8   8 66.1925 104.479   4
   2   8  -7 3501.19 343.716   3
   2   8  -7 3549.80 462.737   2
  -2  -8   7 4128.54 459.404   4
   2   8  -6 416.995 156.506   2
   2   8  -6 348.375 88.6573   3
  -2  -8   6 762.188 198.589   4
   2   8  -5-60.1990 77.0051   4
   2   8  -5 24.2479 45.0873   3
  -2  -8   5 58.1324 85.5405   4
   2   8  -5-114.664 110.971   2
  -2  -8   4 27737.9 1129.06   4
   2   8  -4 24306.7 951.449   4
   2   8  -4 24519.9 580.517   3
   2   8  -4 24493.7 1197.94   2
   2   8  -3 261.801 149.873   2
   2   8  -3 213.397 110.334   4
   2   8  -3 116.696 32.7049   3
  -2  -8   3 57.4411 83.8933   4
   2   8  -2 13104.5 778.096   4
   2   8  -2 12875.4 870.474   2
   2   8  -1 3663.72 434.874   4
   2   8  -1 3189.59 452.696   2
   2   8   0 438.528 175.441   2
   2   8   0 217.478 129.340   4
   2   8   1 191.283 140.205   2
   2   8   1 196.022 155.746   4
   2   8   2 309.685 161.930   2
   2   8   2 120.522 48.2517   3
   2   8   3 378.673 169.524   2
   2   8   3 9.43126 38.8173   3
   2   8   4 4160.08 505.842   2
   2   8   5 1124.77 284.999   2
   2   9  -8 811.507 253.156   2
   2   9  -7 72.9470 80.3187   2
   2   9  -6 10.9522 95.9789   2
   2   9  -5 633.370 217.342   2
  -2  -9   5 744.015 211.673   4
   2   9  -4 2461.94 406.899   2
   2   9  -4 2066.66 281.655   4
   2   9  -3 441.430 172.539   2
   2   9  -3 426.330 144.908   4
   2   9  -2 356.205 191.304   2
   2   9  -2 263.963 140.661   4
   2   9  -1 2058.88 375.689   2
   2   9  -1 2256.14 352.222   4
   2   9   0 122.398 148.278   2
   2   9   0 241.269 157.945   4
   2   9   1 1181.61 304.999   2
   2   9   2 94.7582 122.090   2
   2   9   3 220.946 187.828   2
   2  10  -6 936.808 276.818   2
   2  10  -5 379.688 193.977   2
   2  10  -4 61.0927 119.810   2
   2  10  -3 101.154 114.221   2
   2  10  -2 14.2940 102.133   2
   2  10  -1-252.092 162.802   2
   2  10   0 1574.89 352.374   2
   2  10   1-48.5584 145.556   2
   3 -11  -4 279.167 182.303   1
   3 -11  -3 34.6922 143.270   1
   3 -11  -2 763.680 276.063   1
   3 -11  -1 144.137 146.597   1
   3 -11   0 401.323 218.764   1
   3 -11   1-0.83846 172.893   1
   3 -11   2 46.2222 137.655   1
   3 -11   3-118.874 142.484   1
   3 -11   4 849.399 309.582   1
   3 -11   5 271.707 196.628   1
   3 -10  -6 155.635 144.212   1
  -3  10   6 28.3466 97.3476   4
  -3  10   5 0.56611 89.4023   4
   3 -10  -5 120.948 137.394   1
  -3  10   4 283.670 145.656   4
   3 -10  -4 202.943 165.162   1
  -3  10   3-54.2869 81.6413   4
   3 -10  -3 94.9619 118.386   1
   3 -10  -2 330.241 189.825   1
  -3  10   1 323.420 105.761   4
   3 -10  -1 675.687 262.117   1
   3 -10   0 739.900 279.541   1
  -3  10   0 278.594 74.0879   4
   3 -10   1 595.128 233.831   1
   3 -10   1 400.129 104.240   3
   3 -10   2-55.7062 119.829   1
   3 -10   2 81.6307 65.1837   3
   3 -10   3 156.450 154.485   1
   3 -10   3 70.4623 69.4445   3
   3 -10   4 775.228 172.311   3
   3 -10   4 1247.52 345.082   1
   3 -10   5 388.320 136.474   3
   3 -10   5 528.901 236.172   1
   3 -10   6 507.006 162.047   3
   3 -10   6 924.554 305.747   1
  -3   9   7-188.925 156.998   4
   3  -9  -7 210.866 164.564   1
  -3   9   6 210.037 141.565   4
   3  -9  -6 374.465 189.954   1
   3  -9  -5 1.90426 59.4859   3
  -3   9   5 31.1969 76.0011   4
   3  -9  -5 84.5514 117.074   1
  -3   9   4 621.621 202.100   4
   3  -9  -4 212.676 110.136   3
   3  -9  -4 521.287 206.893   1
  -3   9   3 702.800 189.443   4
   3  -9  -3 414.364 150.166   3
   3  -9  -3 580.044 220.451   1
   3  -9  -2 335.988 123.624   3
   3  -9  -2 735.702 237.706   1
  -3   9   1 182.353 83.0222   4
   3  -9  -1 69.3754 116.265   1
  -3   9   0 44.9190 49.4827   4
   3  -9   0 120.193 118.735   1
   3  -9   1 52.9185 109.029   1
  -3   9  -1 8.77105 21.2560   4
   3  -9   2 1591.73 356.142   1
   3  -9   2 1684.27 231.907   3
   3  -9   3 166.598 94.8404   3
   3  -9   3 283.291 172.710   1
   3  -9   4 2942.67 334.609   3
   3  -9   4 2675.91 464.570   1
   3  -9   5 830.412 184.653   3
   3  -9   5 1129.36 301.765   1
   3  -9   6 1283.59 317.567   1
   3  -9   6 1363.08 256.715   3
   3  -9   7 773.576 207.080   3
   3  -9   7 1210.82 337.680   1
   3  -9   8 236.153 141.195   3
   3  -9   8 294.585 181.671   1
  -3   8   8-172.062 151.428   4
   3  -8  -8 63.3820 117.442   1
  -3   8   7-48.1948 102.941   4
   3  -8  -7-6.93446 89.4779   1
  -3   8   6 481.322 190.759   4
   3  -8  -6 351.056 142.647   3
   3  -8  -6 588.099 222.891   1
   3  -8  -5 615.451 221.728   1
   3  -8  -5 643.702 192.667   3
  -3   8   5 558.918 185.351   4
  -3   8   4 68.1442 95.3566   4
   3  -8  -4 60.8551 95.8679   3
   3  -8  -4 47.2343 98.9880   1
  -3   8   3 253.056 127.611   4
   3  -8  -3 189.067 105.528   3
   3  -8  -3 203.339 139.393   1
   3  -8  -2 14.6325 64.2589   3
   3  -8  -2 20.9589 80.6036   1
  -3   8   1 74.2930 67.0520   4
   3  -8  -1 52.3977 112.965   1
  -3   8   0 269.023 87.4796   4
   3  -8   0 417.408 181.491   1
  -3   8  -1-24.7883 37.4877   4
   3  -8   1 26.3102 85.6162   1
   3  -8   2 1488.04 221.544   3
   3  -8   2 1545.94 331.169   1
   3  -8   3 427.681 192.055   1
   3  -8   3 368.332 120.830   3
   3  -8   4 7618.03 538.940   3
   3  -8   4 7814.83 741.909   1
   3  -8   5 1054.87 131.848   4
   3  -8   5 2212.27 304.748   3
   3  -8   5 2312.95 407.286   1
   3  -8   6-107.362 135.948   1
   3  -8   6 161.875 115.550   3
   3  -8   7 335.784 142.069   3
   3  -8   7 542.504 228.323   1
   3  -8   8 329.242 152.728   3
   3  -8   8 243.400 173.417   1
  -3   7   9-90.1216 113.147   4
   3  -7  -8 673.665 207.593   2
  -3   7   8 274.957 171.058   4
  -3   7   7 1547.11 328.138   4
   3  -7  -7 1575.69 289.856   3
   3  -7  -7 2064.55 312.015   2
   3  -7  -7 1802.23 364.413   1
   3  -7  -6 4168.03 531.804   1
   3  -7  -6 3966.08 442.676   3
   3  -7  -6 3843.44 438.324   2
  -3   7   6 3877.30 474.854   4
   3  -7  -5 9385.55 690.247   3
   3  -7  -5 9213.90 654.138   2
   3  -7  -5 8802.69 751.842   1
  -3   7   5 8307.49 659.827   4
  -3   7   4 9528.51 674.837   4
   3  -7  -4 9055.27 647.875   3
   3  -7  -4 11126.5 719.059   2
   3  -7  -4 9210.81 742.171   1
  -3   7   3 2791.76 369.081   1
   3  -7  -3 2964.40 370.947   3
   3  -7  -3 3586.10 413.954   2
   3  -7  -3 2797.73 411.414   1
  -3   7   3 2600.43 338.268   4
  -3   7   2 1042.75 230.573   1
   3  -7  -2 702.541 209.576   1
  -3   7   1 2253.13 270.829   4
  -3   7   1 2105.56 323.428   1
   3  -7  -1 2167.07 363.064   1
  -3   7   0 180.543 82.6307   4
  -3   7   0 200.798 100.575   1
   3  -7   0 108.016 101.446   1
  -3   7  -1 410.649 147.144   1
  -3   7  -1 499.052 117.327   4
   3  -7   1 533.264 184.813   1
   3  -7   2 949.082 214.092   2
  -3   7  -2 430.539 152.669   1
  -3   7  -2 564.236 114.600   4
   3  -7   2 548.284 188.513   1
   3  -7   3 6683.94 360.723   4
   3  -7   3 6542.24 480.351   3
   3  -7   3 6769.13 558.895   2
   3  -7   3 6016.34 602.870   1
   3  -7   4 25668.7 782.513   4
   3  -7   4 23999.5 964.000   3
   3  -7   4 26227.4 1097.92   2
   3  -7   4 25300.3 1265.71   1
   3  -7   5 3753.28 340.616   4
   3  -7   5 4523.56 563.093   1
   3  -7   5 3691.41 398.700   3
   3  -7   5 3844.89 430.758   2
   3  -7   6 2289.94 331.400   2
   3  -7   6 2183.56 295.760   4
   3  -7   6 2530.31 422.607   1
   3  -7   6 2099.56 313.018   3
   3  -7   7 223.739 117.821   3
   3  -7   7 236.852 117.106   2
   3  -7   7 252.228 170.151   1
   3  -7   8 123.303 119.052   3
   3  -7   9 1267.19 298.473   3
  -3   6  10 113.555 155.253   4
   3  -6  -9 283.875 110.162   2
  -3   6   9 88.7829 128.361   4
   3  -6  -8 140.119 98.2917   2
  -3   6   8 423.107 188.670   4
  -3   6   7 1100.89 265.181   4
   3  -6  -7 952.962 244.780   3
   3  -6  -7 1161.90 233.062   2
   3  -6  -6 1563.05 288.467   3
  -3   6   6 1304.51 243.560   1
   3  -6  -6 1989.40 363.224   1
   3  -6  -6 2545.53 333.586   2
  -3   6   6 2721.22 386.449   4
   3  -6  -5 3251.67 450.908   1
  -3   6   5 2514.81 329.081   1
   3  -6  -5 2593.39 362.967   3
  -3   6   5 2726.41 374.988   4
  -3   6   4 432.597 151.319   1
  -3   6   4 496.032 165.326   4
   3  -6  -4 627.983 207.501   1
   3  -6  -4 455.057 158.630   3
  -3   6   3 1762.13 281.992   1
   3  -6  -3 1527.63 266.823   3
   3  -6  -3 1925.19 331.510   1
  -3   6   2 13.1352 52.0530   1
   3  -6  -2-148.546 117.108   1
  -3   6   1 1090.04 194.299   4
  -3   6   1 1216.03 237.126   1
   3  -6  -1 1266.21 265.428   1
   3  -6   0 254.785 139.325   1
  -3   6   0 277.039 117.741   1
  -3   6   0 375.381 120.177   4
   3  -6   1 445.369 106.749   4
  -3   6  -1 759.799 187.724   1
   3  -6   1 704.581 214.757   1
  -3   6  -1 527.267 128.557   4
   3  -6   2 228.988 86.0040   4
  -3   6  -2 233.399 108.831   1
  -3   6  -2 142.470 74.9985   4
   3  -6   2 240.973 129.649   1
  -3   6  -3 645.457 191.727   1
   3  -6   3 835.458 157.765   4
   3  -6   3 893.667 252.824   1
   3  -6   3 758.573 173.672   3
  -3   6  -4 12720.3 743.737   1
   3  -6   4 12873.5 716.688   3
   3  -6   4 14433.3 683.109   4
   3  -6   4 13225.1 894.419   1
   3  -6   5 678.986 217.906   1
   3  -6   5 795.343 183.100   4
   3  -6   5 781.684 186.782   2
  -3   6  -5 649.647 173.299   1
   3  -6   5 697.971 182.244   3
   3  -6   6 13479.5 785.179   4
   3  -6   6 11650.4 733.402   3
   3  -6   6 12568.3 722.627   2
   3  -6   7 2197.64 304.431   2
   3  -6   7 2225.99 354.998   4
   3  -6   7 2289.43 347.401   3
   3  -6   8 282.356 151.809   3
   3  -6   8 627.411 163.757   2
   3  -6   8 196.618 130.829   4
   3  -6   9 864.373 252.175   3
  -3   5  11 77.2861 138.730   4
  -3   5  10 679.091 296.917   4
   3  -5  -9 360.582 133.288   2
  -3   5   9 322.230 187.160   4
   3  -5  -8 2854.00 326.009   2
  -3   5   8 2562.59 429.706   4
  -3   5   7 1301.69 231.457   1
  -3   5   7 1690.50 324.734   4
   3  -5  -7 1785.12 323.352   3
  -3   5   6 7286.55 620.218   4
  -3   5   6 5929.10 482.078   1
   3  -5  -6 5775.00 559.815   3
  -3   5   5 12802.1 709.970   1
   3  -5  -5 13601.0 826.244   3
  -3   5   5 14374.6 837.516   4
  -3   5   4 11399.1 669.561   1
   3  -5  -4 11815.1 743.822   3
   3  -5  -4 12177.2 823.532   1
  -3   5   4 12621.0 752.526   4
   3  -5  -3 1791.39 319.610   1
  -3   5   3 1429.59 245.330   1
  -3   5   2 1009.26 206.754   1
  -3   5   1-10.1060 52.9988   4
  -3   5   1 75.3921 88.5950   1
  -3   5   0 2163.50 258.116   4
  -3   5   0 2286.99 312.417   1
   3  -5   0 2403.30 253.090   4
  -3   5  -1 1460.00 211.132   4
   3  -5   1 1322.55 192.061   4
   3  -5   1 1638.54 307.690   1
  -3   5  -1 1539.18 257.768   1
   3  -5   2 690.378 152.200   4
  -3   5  -2 615.931 144.096   4
  -3   5  -2 773.533 186.125   1
   3  -5   2 660.677 196.529   1
  -3   5  -3 2259.65 263.760   4
   3  -5   3 2713.41 301.748   4
  -3   5  -3 2210.33 304.944   1
   3  -5   3 2543.37 380.817   1
   3  -5   4 21392.3 897.084   4
  -3   5  -4 20126.6 898.389   1
   3  -5   4 20311.2 887.705   3
   3  -5   5 509.233 166.966   4
  -3   5  -5 520.777 153.189   1
   3  -5   5 750.130 194.846   3
  -3   5  -6 650.585 163.286   1
   3  -5   6 182.246 121.340   4
   3  -5   6 523.794 165.072   3
   3  -5   7 6.14143 71.5571   3
   3  -5   7-126.525 94.7074   2
   3  -5   7 186.452 126.341   4
   3  -5   8 198.308 124.509   3
   3  -5   8 62.3432 68.5657   2
   3  -5   8 302.120 170.803   4
   3  -5   9 1080.05 271.298   3
   3  -5  10 118.881 127.151   3
  -3   4  11-91.2037 144.416   4
  -3   4  10-187.039 142.852   4
  -3   4   9-91.5964 68.8541   1
  -3   4   9 133.052 120.681   4
  -3   4   8 3374.22 347.120   1
  -3   4   8 3836.79 506.019   4
  -3   4   7 5646.30 570.608   4
  -3   4   7 5451.00 445.094   1
   3  -4  -7 5821.92 565.245   3
  -3   4   6 86.6042 98.0704   4
   3  -4  -6 260.746 137.673   3
  -3   4   6 28.8244 58.3717   1
  -3   4   5 267.685 131.107   4
   3  -4  -5 451.700 173.908   3
  -3   4   5 397.271 127.255   1
  -3   4   4 5478.29 491.804   4
  -3   4   4 4558.78 419.681   1
   3  -4  -4 4182.35 439.331   3
  -3   4   3 2172.89 292.584   1
  -3   4   2 6092.68 492.667   1
   3  -4  -2 6064.34 431.566   4
   3  -4  -1 13.2139 44.1443   4
  -3   4   1 15.8401 67.2989   1
  -3   4   1 61.8411 81.8908   4
  -3   4   0 5806.36 434.496   4
  -3   4   0 6095.69 501.896   1
   3  -4   0 5783.55 411.752   4
   3  -4   1 1279.07 206.099   4
  -3   4  -1 1184.49 205.307   4
  -3   4  -1 1430.55 242.894   1
  -3   4  -2 1105.14 215.338   1
   3  -4   2 932.680 182.180   4
  -3   4  -2 1062.14 191.840   4
   3  -4   3 474.870 144.514   4
  -3   4  -3 598.261 145.618   4
  -3   4  -3 553.877 152.603   1
   3  -4   4 64.8847 73.3419   4
  -3   4  -4 84.4923 87.8848   1
   3  -4   4 65.2823 75.2984   3
   3  -4   5 216.139 126.323   4
  -3   4  -5 362.119 119.055   1
   3  -4   5 214.726 122.183   3
  -3   4  -6-94.2151 75.1616   1
   3  -4   6 187.768 125.155   3
   3  -4   6-58.4227 97.1664   4
   3  -4   7 20.3365 90.0465   3
  -3   4  -7 81.6058 59.9254   1
   3  -4   7-234.377 149.490   4
   3  -4   8 841.597 232.132   3
   3  -4   8 684.933 153.340   2
   3  -4   8 924.441 253.977   4
   3  -4   9 480.480 197.460   3
   3  -4  10 503.009 207.379   3
  -3   3  11-70.1183 111.997   4
  -3   3  10 270.955 186.247   4
  -3   3   9 1627.43 338.700   4
  -3   3   9 1365.67 212.324   1
  -3   3   8 11347.9 615.932   1
  -3   3   8 11655.8 857.413   4
  -3   3   7 1419.89 299.523   4
   3  -3  -7 1746.75 323.288   3
  -3   3   7 1559.72 237.452   1
   3  -3  -6 1016.36 248.672   3
  -3   3   6 1457.11 231.468   1
  -3   3   6 1874.90 323.717   4
  -3   3   5 221.892 120.887   4
   3  -3  -5 182.942 93.2389   3
  -3   3   5 285.698 102.792   1
  -3   3   4 3214.80 348.587   1
   3  -3  -4 3079.72 371.753   3
  -3   3   4 3679.46 402.023   4
  -3   3   3 735.712 173.176   1
  -3   3   2 1836.32 264.127   1
   3  -3  -2 1363.65 217.151   4
  -3   3   1 25.5527 64.7760   1
   3  -3  -1 54.3942 52.0600   4
  -3   3   1-15.2923 64.8934   4
  -3   3   0 2291.55 287.102   4
   3  -3   0 1963.63 255.145   4
  -3   3   0 2070.20 284.108   1
   3  -3   1 67747.9 1498.72   4
  -3   3  -1 69623.7 1523.03   4
  -3   3  -1 67473.9 1613.92   1
   3  -3   2 19791.4 839.550   4
  -3   3  -2 19869.2 828.616   4
  -3   3  -2 20533.2 896.843   1
   3  -3   3 5383.76 470.235   4
  -3   3  -3 5118.08 453.666   1
  -3   3  -4 1012.21 208.962   1
   3  -3   4 818.190 205.295   4
   3  -3   4 758.079 182.138   3
   3  -3   5 5562.39 524.967   4
   3  -3   5 5456.14 481.147   3
  -3   3  -5 6372.83 483.814   1
   3  -3   6 2187.15 360.713   4
   3  -3   6 2547.53 346.073   3
  -3   3  -6 2243.58 279.339   1
   3  -3   7 4731.72 553.917   4
  -3   3  -7 4822.76 388.729   1
   3  -3   7 4549.46 479.099   3
   3  -3   8 1742.97 320.910   3
  -3   3  -8 1659.99 214.748   1
   3  -3   9-27.7777 103.553   3
   3  -3  10 256.899 164.603   3
  -3   2  12-164.308 145.585   4
  -3   2  12 315.470 205.650   3
  -3   2  11-309.312 179.469   4
  -3   2  11 32.3266 170.502   3
  -3   2  10 545.315 225.021   4
  -3   2  10 775.269 158.924   1
  -3   2   9 141.423 107.022   4
  -3   2   9 5.57295 51.7059   1
  -3   2   8 239.732 138.634   4
  -3   2   8-51.0697 70.0511   1
  -3   2   7 7589.57 652.505   4
   3  -2  -7 7931.17 676.663   3
  -3   2   7 6451.99 473.833   1
  -3   2   6 307.549 124.312   1
   3  -2  -6 310.143 156.050   3
  -3   2   6 402.287 153.087   4
  -3   2   5 110.278 74.9506   1
   3  -2  -5 88.7994 102.285   3
  -3   2   4 4078.36 414.903   1
   3  -2  -4 4137.23 439.480   3
   3  -2  -3 19571.7 805.857   4
  -3   2   3 20048.2 920.449   1
   3  -2  -2 386.672 130.691   4
  -3   2   2 300.445 124.311   1
  -3   2   1 12282.3 726.599   1
   3  -2  -1 12953.0 670.058   4
  -3   2   0 33177.9 1080.72   4
  -3   2   0 34059.2 1201.59   1
   3  -2   0 32065.2 1047.36   4
  -3   2  -1 1399.34 248.541   1
   3  -2   1 1349.28 229.746   4
  -3   2  -2 9640.42 635.499   1
   3  -2   2 8855.64 590.924   4
   3  -2   3 4653.48 450.491   4
  -3   2  -3 4691.82 443.901   1
   3  -2   4 2926.97 381.147   4
   3  -2   4 2504.37 314.066   3
  -3   2  -4 2622.00 318.048   1
   3  -2   5 38.4480 84.7549   4
  -3   2  -5-23.9066 59.4397   1
   3  -2   5-30.4725 66.1107   3
   3  -2   6 2344.58 383.647   4
   3  -2   6 2919.82 369.727   3
  -3   2  -6 3057.30 331.108   1
   3  -2   7 102.726 83.7841   3
   3  -2   7 244.875 151.104   4
  -3   2  -7 118.505 68.9934   1
   3  -2   8 1026.29 255.858   3
  -3   2  -8 1147.66 176.765   1
   3  -2   9 822.259 245.104   3
   3  -2  10 119.444 108.911   3
  -3   1  12-196.398 167.093   4
  -3   1  12 348.412 197.338   3
  -3   1  11 651.874 241.052   4
  -3   1  11 1013.77 320.043   3
  -3   1  10 55.6757 97.4304   4
  -3   1  10-119.579 73.8670   1
  -3   1  10 32.9444 113.141   3
  -3   1   9 720.697 236.418   4
  -3   1   9 638.828 148.195   1
  -3   1   8 6941.94 651.288   4
   3  -1  -8 6836.71 617.804   3
  -3   1   8 6581.99 495.121   1
  -3   1   7 292.559 140.386   4
  -3   1   7 52.5247 62.4780   1
   3  -1  -7 80.6715 93.1670   3
  -3   1   6 1436.42 280.014   4
   3  -1  -6 1535.87 292.882   3
   3  -1  -5 2937.84 395.596   3
   3  -1  -4 1479.64 238.739   4
   3  -1  -4 1610.65 266.209   3
   3  -1  -3 11923.1 651.236   4
   3  -1  -2 1647.91 247.126   4
   3  -1  -1 702.307 169.637   4
   3  -1   0 1004.93 199.709   4
   3  -1   1 11841.4 672.389   4
   3  -1   2-5.62347 54.5626   4
   3  -1   3-60.7931 85.9133   4
  -3   1  -3-42.5691 72.6745   4
   3  -1   4 1209.33 249.270   4
   3  -1   4 1206.15 222.025   3
   3  -1   5 17.3352 80.1968   4
   3  -1   5 14.4650 62.5676   3
  -3   1  -5-63.8888 76.0321   1
   3  -1   6-82.0454 79.1750   3
   3  -1   6 137.631 114.840   4
  -3   1  -6 25.0048 58.7583   1
   3  -1   7 1560.39 289.460   3
  -3   1  -7 1411.23 221.368   1
   3  -1   8 3633.37 464.611   3
  -3   1  -8 3689.81 318.071   1
   3  -1   9 307.649 165.137   3
   3  -1  10 351.734 177.942   3
  -3   0  12 800.266 279.433   4
  -3   0  12 1258.75 368.104   3
  -3   0  11 106.868 111.481   4
  -3   0  11 97.6993 146.854   3
  -3   0  10 4115.54 554.975   4
  -3   0  10 4708.91 624.437   3
  -3   0  10 3113.68 333.646   1
  -3   0   9 462.862 145.472   1
  -3   0   9 282.478 161.190   4
  -3   0   8 4316.16 512.879   4
   3   0  -8 4724.43 509.426   3
  -3   0   7 1172.10 262.528   4
   3   0  -7 1530.00 288.391   3
   3   0  -6 4105.66 469.266   3
  -3   0   6 3990.21 467.967   4
   3   0  -5 3943.76 420.791   3
   3   0  -4 81.9257 82.2047   4
   3   0  -4-5.27576 83.2254   3
   3   0  -3 10273.6 626.455   4
   3   0  -2 181.110 94.2165   4
   3   0  -1 1759.95 266.510   4
   3   0   0 1412.82 243.959   4
   3   0   1 1094.98 214.236   4
   3   0   2 905.362 198.141   4
   3   0   3 775.404 207.807   4
   3   0   3 608.742 149.042   3
   3   0   4-32.8035 77.9357   4
   3   0   4 39.0115 69.4435   3
   3   0   5-24.7367 84.8291   4
   3   0   5 50.2146 71.7691   3
   3   0   6-24.0285 67.1555   3
   3   0   7 991.033 231.654   3
  -3   0  -7 1078.66 205.822   1
   3   0   8 135.077 107.128   3
  -3   0  -8 25.5652 55.6964   1
   3   0   9 322.875 156.907   3
   3   0  10-218.805 145.902   3
  -3  -1  12 2353.22 481.494   4
  -3  -1  12 2741.81 523.025   3
  -3  -1  11-47.4618 129.573   4
  -3  -1  11 101.122 386.249   3
  -3  -1  10 787.209 244.983   4
  -3  -1  10 683.137 254.884   3
  -3  -1   9 52.5401 112.182   4
  -3  -1   8 2542.50 396.832   4
   3   1  -8 2118.38 361.791   3
   3   1  -7 3573.98 428.786   3
  -3  -1   7 3062.21 416.731   4
  -3  -1   6 1321.33 273.373   4
   3   1  -6 873.013 222.854   3
   3   1  -5 764.759 189.119   4
  -3  -1   5 919.543 213.145   4
   3   1  -5 965.382 215.610   3
  -3  -1   4 3800.00 421.469   4
   3   1  -4 3565.88 381.709   3
   3   1  -4 4144.95 420.397   4
   3   1  -3 586.846 165.904   4
   3   1  -2 5535.05 472.724   4
   3   1  -1 1460.69 246.753   4
   3   1   0 3079.51 363.344   4
   3   1   1 7396.37 570.651   4
   3   1   2 68.4927 81.7129   4
   3   1   3 292.653 137.461   4
   3   1   3 434.068 128.140   3
   3   1   4 5347.55 552.424   4
   3   1   4 4959.81 431.672   3
   3   1   5 10369.3 805.541   4
   3   1   5 10202.5 649.336   3
   3   1   6 3820.67 417.869   3
   3   1   7-41.8402 76.9137   3
   3   1   8 146.998 109.628   3
   3   1   9 391.186 165.409   3
  -3  -2  12 458.277 214.757   4
  -3  -2  12 270.685 239.632   3
  -3  -2  11 15.4643 101.632   4
  -3  -2  11 42.2482 140.008   3
  -3  -2  10 266.826 161.121   4
  -3  -2   9 2183.93 399.881   4
   3   2  -8 2600.88 374.861   3
  -3  -2   8 2410.29 392.236   4
  -3  -2   7 188.375 117.119   4
   3   2  -7 282.236 132.042   3
  -3  -2   6 600.002 187.415   4
   3   2  -6 473.074 162.732   3
   3   2  -5 1219.77 239.483   4
  -3  -2   5 1383.42 268.080   4
   3   2  -5 1351.71 251.642   3
   3   2  -4 211.641 111.582   4
  -3  -2   4 252.886 125.574   4
   3   2  -4 139.082 91.8798   3
  -3  -2   3 45689.3 1412.58   4
   3   2  -3 46998.8 1411.51   4
   3   2  -2 691.621 175.363   4
  -3  -2   2 523.806 167.892   4
   3   2  -1 8425.58 601.220   4
  -3  -2   1 8784.09 633.660   4
   3   2   0 142.880 106.216   4
  -3  -2   0 14.2148 66.6014   4
   3   2   1 24311.3 1085.57   4
  -3  -2  -1 22425.5 1050.52   4
  -3  -2  -2 1698.59 298.823   4
   3   2   2 2456.09 365.012   4
   3   2   3 207.369 137.052   4
   3   2   3 300.663 104.128   3
   3   2   4 1474.99 305.903   4
   3   2   4 1799.27 259.421   3
   3   2   5 9948.20 635.410   3
   3   2   6 12403.0 744.158   3
   3   2   7 2034.30 325.462   3
   3   2   8 120.566 108.395   3
   3   2   9-128.458 116.455   3
  -3  -3  12 180.850 155.728   4
  -3  -3  11 962.087 298.771   4
   3   3 -11 635.409 150.240   2
  -3  -3  10 3555.77 538.958   4
  -3  -3   9 3464.10 491.818   4
  -3  -3   8 433.620 174.049   4
   3   3  -8 931.016 226.261   3
  -3  -3   7 1509.91 290.813   4
   3   3  -7 1901.41 307.839   3
  -3  -3   6 819.025 212.193   4
   3   3  -6 679.504 195.448   3
   3   3  -6 714.188 193.919   4
   3   3  -5 54.6009 76.7721   4
  -3  -3   5 242.719 122.923   4
   3   3  -5 221.865 110.975   3
   3   3  -4 106.656 85.1785   4
  -3  -3   4 7.86788 59.3443   4
   3   3  -4 39.5227 76.7051   3
   3   3  -3 262.847 116.434   4
  -3  -3   3 321.594 141.008   4
   3   3  -2 310.545 128.423   4
  -3  -3   2 302.334 134.840   4
   3   3  -1 30.1297 67.3503   4
  -3  -3   1-19.5513 104.510   4
   3   3   0 120.424 100.995   4
  -3  -3   0 59.4622 85.6167   4
   3   3   1 606.875 195.013   4
  -3  -3  -1 653.234 192.153   4
   3   3   2 3804.14 453.918   4
   3   3   2 3606.68 331.093   3
   3   3   3 307.567 164.804   4
   3   3   3 255.364 95.2806   3
   3   3   4-10.6270 45.5983   3
   3   3   5 20991.3 912.128   3
   3   3   6 2087.98 314.753   3
   3   3   7 4266.73 391.733   2
   3   3   7 3444.21 426.657   3
   3   3   8 214.038 128.922   3
  -3  -4  11 138.045 146.182   4
   3   4 -11 202.252 86.7723   2
  -3  -4  10-126.498 132.320   4
   3   4 -10-16.6149 55.6906   2
  -3  -4   9 8906.12 797.648   4
   3   4  -8 384.891 151.143   3
  -3  -4   8 544.702 196.730   4
  -3  -4   7 1686.66 317.181   4
   3   4  -7 1466.32 262.422   3
  -3  -4   6 8196.54 663.198   4
   3   4  -6 7835.33 589.390   3
   3   4  -6 7486.80 595.263   4
  -3  -4   5 3552.32 430.518   4
   3   4  -5 3579.90 384.847   3
   3   4  -5 3788.55 415.021   4
  -3  -4   4 3804.11 437.863   4
   3   4  -4 2968.58 331.421   3
   3   4  -4 3563.98 407.897   4
  -3  -4   3 7537.58 604.587   4
   3   4  -3 7424.85 506.440   3
   3   4  -3 7371.75 587.154   4
   3   4  -2 2790.48 368.128   4
  -3  -4   2 2932.67 388.128   4
   3   4  -1 883.821 226.359   4
  -3  -4   1 776.807 187.678   4
   3   4   0 843.833 213.346   4
  -3  -4   0 923.949 243.010   4
   3   4   1 586.847 200.835   4
  -3  -4  -1 163.585 128.599   4
   3   4   2 3599.86 475.556   4
   3   4   3 5759.06 428.286   3
   3   4   4 16351.8 750.755   3
   3   4   5 348.279 125.211   3
   3   4   6 244.986 119.311   3
   3   4   6 179.565 108.343   2
   3   4   7 92.0100 86.3009   3
   3   4   7-192.944 108.682   2
   3   4   8-32.1333 87.2685   3
  -3  -5  11-151.098 134.370   4
   3   5 -11 147.395 91.0697   2
  -3  -5  10-157.425 137.872   4
   3   5 -10-93.8935 95.8214   2
  -3  -5   9 13.2734 86.9386   4
   3   5  -9 69.1341 88.9042   2
   3   5  -8 1532.14 276.120   3
  -3  -5   8 1376.53 302.496   4
  -3  -5   7 3621.30 472.464   4
   3   5  -7 3142.54 380.242   3
  -3  -5   6 18334.7 1018.54   4
   3   5  -6 19965.3 903.416   3
   3   5  -6 19069.6 951.410   4
  -3  -5   5 7921.83 660.825   4
   3   5  -5 7227.19 583.386   4
   3   5  -5 7803.69 557.627   3
  -3  -5   4 4745.31 504.787   4
   3   5  -4 4794.42 425.175   3
   3   5  -4 5883.15 533.406   4
  -3  -5   3 4033.84 480.940   4
   3   5  -3 3969.62 367.469   3
   3   5  -3 4120.73 453.878   4
   3   5  -2 344.379 140.898   4
  -3  -5   2 318.729 118.362   4
   3   5  -1 4092.34 481.627   4
  -3  -5   1 4067.05 476.013   4
   3   5   0 4851.18 534.281   4
  -3  -5   0 3807.48 474.310   4
   3   5   1 1903.83 365.461   4
   3   5   2-7.76127 97.4238   4
   3   5   3 1558.89 221.889   3
   3   5   4 86.8111 74.6934   3
   3   5   4 84.6139 92.5860   2
   3   5   5-40.2975 69.6039   3
   3   5   5 1.27357 76.7836   2
   3   5   6 358.223 137.078   3
   3   5   6 368.762 147.942   2
   3   5   7 440.386 156.582   2
   3   5   7 215.775 117.536   3
  -3  -6  10 1236.53 315.808   4
   3   6 -10 1375.26 268.917   2
  -3  -6   9-2.55165 95.1191   4
   3   6  -9 132.933 99.5457   2
   3   6  -8 1997.35 320.017   3
  -3  -6   8 2225.38 389.250   4
   3   6  -8 2267.64 349.276   2
  -3  -6   7 4999.58 553.839   4
   3   6  -7 5033.60 512.728   2
   3   6  -7 4934.33 457.553   3
  -3  -6   6 14613.6 924.997   4
   3   6  -6 14375.3 741.097   3
   3   6  -6 14859.8 830.509   4
   3   6  -5 491.399 152.001   4
   3   6  -5 708.496 159.414   3
  -3  -6   5 834.944 215.468   4
   3   6  -4 937.179 240.343   4
   3   6  -4 824.366 177.055   3
  -3  -6   4 837.739 246.678   4
  -3  -6   3 5106.63 543.550   4
   3   6  -3 5032.75 400.002   3
   3   6  -3 5147.58 522.801   4
   3   6  -2 778.400 223.727   4
  -3  -6   2 462.165 164.549   4
   3   6  -2 413.006 118.448   3
   3   6  -1 4894.81 529.065   4
  -3  -6   1 5031.31 552.440   4
   3   6   0 26.5326 94.3408   4
   3   6   0 133.989 63.8951   3
   3   6   1 3298.06 477.200   4
   3   6   2 5298.87 539.523   2
   3   6   3 1706.23 224.940   3
   3   6   3 1743.22 317.512   2
   3   6   4 1915.98 259.737   3
   3   6   4 2577.07 385.063   2
   3   6   5 732.160 176.877   3
   3   6   5 558.137 198.612   2
   3   6   6-12.0760 69.1494   2
   3   6   6 200.924 109.276   3
   3   7  -9 650.148 209.824   2
  -3  -7   9 597.065 215.969   4
  -3  -7   8 115.943 106.944   4
   3   7  -8 441.959 170.817   2
  -3  -7   7 2209.66 376.220   4
   3   7  -7 2285.37 312.250   3
   3   7  -7 2510.00 386.411   2
  -3  -7   6 6932.08 651.913   4
   3   7  -6 6236.71 614.214   2
   3   7  -6 6325.44 476.701   3
   3   7  -6 6272.30 544.052   4
   3   7  -5 196.083 132.668   4
   3   7  -5 388.583 118.433   3
  -3  -7   5 405.275 162.435   4
   3   7  -5 290.980 164.057   2
   3   7  -4 1355.45 268.710   4
   3   7  -4 1592.62 217.674   3
  -3  -7   4 1391.17 288.742   4
   3   7  -4 1466.16 307.872   2
   3   7  -3-104.940 112.841   4
   3   7  -3 227.703 93.0703   3
  -3  -7   3 148.461 114.858   4
   3   7  -3 152.872 103.795   2
   3   7  -2 108.709 103.989   4
   3   7  -2-2.87503 48.1896   3
  -3  -7   2 27.0638 97.1054   4
   3   7  -2 102.418 123.768   2
   3   7  -1 199.622 134.131   4
   3   7  -1-41.2633 59.0722   3
  -3  -7   1 128.384 112.183   4
   3   7  -1-51.0569 105.142   2
   3   7   0 985.248 267.072   2
   3   7   0 917.071 132.704   3
   3   7   1 590.385 212.176   2
   3   7   1 626.880 116.950   3
   3   7   2 761.842 240.077   2
   3   7   3 1079.29 180.785   3
   3   7   3 1275.08 277.268   2
   3   7   4 101.688 116.671   2
   3   7   4 154.907 75.1509   3
   3   8  -8 8.42977 76.5666   2
  -3  -8   8 33.3741 132.084   4
   3   8  -7 558.167 197.060   2
  -3  -8   7 278.147 223.622   4
   3   8  -6-88.6085 82.5549   4
  -3  -8   6-42.1892 105.762   4
   3   8  -6 53.1462 81.1197   2
   3   8  -5 75.4781 106.243   4
  -3  -8   5-82.0801 97.7547   4
   3   8  -5 136.238 98.2581   2
   3   8  -4 1361.80 280.174   4
  -3  -8   4 606.045 227.166   4
   3   8  -4 1152.83 300.569   2
   3   8  -3 1682.80 354.984   2
   3   8  -3 1830.15 336.357   4
  -3  -8   3 1511.24 321.840   4
   3   8  -2 393.488 169.701   4
   3   8  -2 106.171 40.2753   3
   3   8  -2 307.307 175.931   2
   3   8  -1 983.512 296.208   2
   3   8   0-154.450 146.086   2
   3   8   1 2536.88 411.810   2
   3   8   2 981.782 266.273   2
   3   8   3-159.357 139.048   2
   3   9  -6 1.37768 101.377   2
   3   9  -5 73.8220 106.360   2
   3   9  -4 1260.65 310.523   2
  -3  -9   4 1892.40 368.636   4
   3   9  -3 788.854 260.602   2
   3   9  -2 250.167 175.539   2
   3   9  -1-210.802 165.383   2
   3   9   0-18.8455 94.7954   2
   4 -11  -2 806.285 314.816   1
   4 -11  -1 449.626 234.148   1
   4 -11   0 166.377 172.632   1
   4 -11   1 217.470 169.849   1
   4 -11   2-109.294 167.702   1
   4 -11   2 52.4115 73.5753   3
   4 -11   3-109.932 138.625   1
   4 -11   3 111.682 93.1116   3
  -4  10   5-25.8612 65.5712   4
   4 -10  -5 552.015 263.413   1
  -4  10   4 685.366 189.889   4
   4 -10  -4 194.850 158.652   1
  -4  10   3 35.1429 67.8520   4
   4 -10  -3 387.487 222.461   1
  -4  10   2 201.847 114.903   4
   4 -10  -2 200.602 171.319   1
   4 -10  -1 566.677 251.229   1
   4 -10   0 149.815 139.525   1
   4 -10   1 1411.89 379.318   1
   4 -10   2 694.782 278.991   1
   4 -10   2 293.238 125.702   3
   4 -10   3 288.296 199.116   1
   4 -10   3 297.435 128.160   3
   4 -10   4 1994.10 309.528   3
   4 -10   4 3084.45 563.430   1
   4 -10   5 511.970 264.670   1
   4 -10   5 781.328 209.766   3
  -4   9   7 1664.95 382.567   4
  -4   9   6 715.275 248.231   4
   4  -9  -6 652.746 278.463   1
  -4   9   5 30.9443 72.7978   4
   4  -9  -5 213.814 168.565   1
  -4   9   4 146.215 112.166   4
   4  -9  -4-19.2192 125.741   1
   4  -9  -4 88.2899 93.3770   3
  -4   9   3 53.8951 81.9252   4
   4  -9  -3 145.917 121.604   3
   4  -9  -3-53.7764 125.743   1
  -4   9   2 318.467 135.575   4
   4  -9  -2 495.174 230.874   1
   4  -9  -1 183.974 171.980   1
  -4   9   0 502.239 137.430   4
   4  -9   0 407.658 210.872   1
  -4   9  -1 372.836 110.870   4
   4  -9   1 346.553 184.941   1
  -4   9  -2 13691.4 539.981   4
   4  -9   2 13481.2 1112.67   1
   4  -9   3 729.853 279.842   1
   4  -9   3 556.005 161.356   3
   4  -9   4 2008.60 448.347   1
   4  -9   4 2378.13 344.496   3
   4  -9   5 694.817 281.222   1
   4  -9   5 586.816 189.218   3
   4  -9   6 119.969 160.640   1
   4  -9   6-198.671 120.832   3
  -4   8   8 458.597 231.185   4
  -4   8   7 349.468 198.366   4
  -4   8   6 1122.91 301.986   4
  -4   8   5-99.3911 114.544   4
   4  -8  -5-83.8671 145.234   1
   4  -8  -5 101.653 116.229   3
  -4   8   4 84.3262 95.9483   4
   4  -8  -4 127.885 158.655   1
   4  -8  -4-54.7821 87.5320   3
  -4   8   3 277.469 143.459   4
   4  -8  -3-33.1788 79.7635   3
   4  -8  -3 309.275 193.832   1
  -4   8   2 60.7690 88.8723   4
   4  -8  -2 79.3246 116.443   1
   4  -8  -1 445.630 215.639   1
   4  -8   0 4680.80 630.146   1
  -4   8  -1 10850.5 597.335   4
   4  -8   1 8939.82 866.120   1
  -4   8  -2 794.417 167.697   4
   4  -8   2 960.258 300.756   1
   4  -8   2 892.048 178.674   4
   4  -8   3 129.099 122.342   1
   4  -8   3 52.6008 52.7124   4
   4  -8   3-6.97526 64.2782   3
   4  -8   4 637.051 252.454   1
   4  -8   4 302.129 133.812   3
   4  -8   5 3226.07 415.533   3
   4  -8   6-35.2182 90.4460   3
   4  -8   7 716.301 225.799   3
  -4   7   9 158.654 156.702   4
  -4   7   8 1328.17 337.790   4
  -4   7   7 4013.63 560.583   4
  -4   7   6 3122.35 472.357   4
  -4   7   5 1787.63 352.679   4
   4  -7  -5 2128.36 386.778   3
  -4   7   4 161.968 129.453   4
   4  -7  -4 299.766 154.750   3
  -4   7   3-19.6175 83.5389   4
   4  -7  -3 187.123 158.562   1
   4  -7  -2 345.234 191.791   1
  -4   7   2-37.2810 77.3071   4
   4  -7  -1 1097.73 310.779   1
   4  -7   0 52.2354 120.331   1
   4  -7   1 758.395 178.230   4
   4  -7   1 916.943 284.355   1
   4  -7   2 17670.8 1185.47   1
   4  -7   2 19529.5 836.352   4
   4  -7   3 80.4107 81.9137   4
   4  -7   3 131.647 90.3246   3
   4  -7   4 2272.36 314.932   4
   4  -7   4 2053.22 323.332   3
   4  -7   5 169.932 102.918   4
   4  -7   5 418.744 160.918   3
   4  -7   6 296.483 161.250   3
   4  -7   7-48.1988 72.6743   3
   4  -7   8-149.691 130.696   3
  -4   6   9 728.866 284.129   4
  -4   6   8 190.426 157.294   4
  -4   6   7 41.7790 108.901   4
  -4   6   6 261.688 153.354   4
  -4   6   5 1994.48 364.083   4
  -4   6   5 1938.47 321.936   1
   4  -6  -5 1917.12 363.380   3
  -4   6   4 769.786 225.124   4
  -4   6   4 701.719 209.451   1
   4  -6  -4 316.666 150.373   3
  -4   6   3 83.0814 104.985   4
  -4   6   3 437.922 162.149   1
  -4   6   2 170.554 111.892   4
  -4   6   2 123.638 100.993   1
  -4   6   1 38.0472 74.3801   4
  -4   6   1-57.7651 76.2261   1
   4  -6  -1 39.6679 76.4060   4
   4  -6   0 97.3382 84.7088   4
  -4   6   0 24.0750 72.9130   1
  -4   6  -1 5808.21 564.072   1
   4  -6   1 6325.69 492.639   4
   4  -6   2 1188.47 230.766   4
  -4   6  -2 1226.54 268.476   1
   4  -6   3 964.747 206.809   4
  -4   6  -3 917.578 225.819   1
   4  -6   4 240.260 125.310   4
  -4   6  -4 149.496 84.9797   1
   4  -6   4 321.803 145.300   3
  -4   6  -5 319.153 143.121   1
   4  -6   5 445.851 170.796   4
   4  -6   5 74.7217 94.7271   3
  -4   6  -6-179.668 98.1196   1
   4  -6   6 266.237 160.490   4
   4  -6   6 115.032 117.823   3
  -4   6  -7 524.538 171.472   1
   4  -6   7 394.004 176.697   3
   4  -6   8 608.138 215.284   3
  -4   5  10 4045.08 633.778   4
  -4   5   9-20.8338 173.877   4
  -4   5   8 263.840 171.009   4
  -4   5   8 108.129 85.0982   1
  -4   5   7-15.0334 132.647   4
  -4   5   7 70.9952 93.2050   1
  -4   5   6 1.83223 94.1361   4
  -4   5   6 258.532 122.468   1
  -4   5   5 543.066 201.533   4
   4  -5  -5 301.993 157.327   3
  -4   5   5 218.486 113.539   1
  -4   5   4 797.072 232.488   4
   4  -5  -4 726.404 215.404   3
  -4   5   4 884.542 218.567   1
  -4   5   3 2200.78 352.071   4
  -4   5   3 1732.89 306.022   1
  -4   5   2 3102.72 396.639   4
  -4   5   2 2452.21 362.623   1
   4  -5  -2 2684.86 329.837   4
  -4   5   1 21154.5 992.046   4
  -4   5   1 18112.2 995.550   1
   4  -5  -1 20714.0 897.119   4
  -4   5   0 11328.5 782.515   1
   4  -5   0 11861.6 687.458   4
  -4   5  -1 8515.60 683.190   1
   4  -5   1 8895.74 616.266   4
   4  -5   2 17.7085 80.1336   4
  -4   5  -2 197.505 107.491   4
  -4   5  -2 71.9105 81.8021   1
   4  -5   3 2415.54 351.841   4
  -4   5  -3 1828.33 303.288   4
  -4   5  -3 2683.00 380.659   1
   4  -5   4 5426.51 545.931   4
   4  -5   4 5413.57 517.673   3
  -4   5  -4 5559.07 540.651   1
   4  -5   5 694.163 226.031   4
  -4   5  -5 655.900 187.192   1
   4  -5   5 709.977 202.859   3
   4  -5   6 293.268 160.558   4
  -4   5  -6 315.086 138.346   1
   4  -5   6 479.896 187.581   3
  -4   5  -7 72.2339 74.1883   1
   4  -5   7-248.606 152.737   4
   4  -5   7 26.4995 80.0194   3
   4  -5   8 46.9356 102.067   3
  -4   4  11 304.089 225.664   4
  -4   4  10 178.306 174.549   4
  -4   4   9 2238.00 449.252   4
  -4   4   9 1561.32 262.806   1
  -4   4   8 411.932 199.965   4
  -4   4   8 282.644 125.657   1
  -4   4   7 1132.47 232.271   1
  -4   4   7 1194.66 295.352   4
  -4   4   6-48.8059 72.8250   1
  -4   4   6 36.4828 106.865   4
   4  -4  -6-504.440 192.997   3
  -4   4   5 896.040 258.734   4
  -4   4   5 813.477 209.751   1
   4  -4  -5 767.162 223.125   3
  -4   4   4 257.994 144.422   4
  -4   4   4 509.146 165.881   1
  -4   4   3 5885.06 558.167   4
  -4   4   3 5319.67 533.449   1
   4  -4  -3 5608.61 486.488   4
  -4   4   2 6863.41 586.547   4
  -4   4   2 6335.03 583.911   1
   4  -4  -2 7391.18 555.485   4
   4  -4  -1 947.315 208.395   4
  -4   4   1 1074.90 235.651   4
  -4   4   1 969.655 235.361   1
   4  -4   0 19.2551 80.7687   4
  -4   4   0 32.2143 78.2170   4
  -4   4   0 57.5679 104.228   1
   4  -4   1 1813.33 304.952   4
  -4   4  -1 2367.85 337.912   4
  -4   4  -1 2191.01 349.081   1
   4  -4   2 898.898 214.750   4
  -4   4  -2 699.124 197.129   4
  -4   4  -2 1207.55 261.660   1
   4  -4   3 4184.98 468.313   4
  -4   4  -3 3464.60 421.951   4
  -4   4  -3 3758.53 453.361   1
  -4   4  -4 240.536 122.260   1
   4  -4   4 239.191 154.613   4
   4  -4   4 134.755 122.623   3
   4  -4   5 209.340 136.705   4
   4  -4   5 50.0039 85.7190   3
  -4   4  -5 179.483 119.908   1
   4  -4   6 192.697 134.332   4
  -4   4  -6-11.8710 54.3573   1
   4  -4   6 5.88883 67.0891   3
  -4   4  -7 1141.29 229.306   1
   4  -4   7 1133.46 278.609   3
   4  -4   8 15.0375 84.4912   3
   4  -4   9 163.012 147.839   3
  -4   3  11 243.729 209.239   4
  -4   3  10 4042.50 624.190   4
  -4   3   9-41.9878 60.8348   1
  -4   3   9 513.331 230.452   4
  -4   3   8 250.936 175.199   4
  -4   3   8 352.328 132.792   1
  -4   3   7 701.763 243.777   4
  -4   3   7 726.022 200.469   1
  -4   3   6 1711.18 352.049   4
   4  -3  -6 1247.10 318.133   3
  -4   3   6 1429.52 268.719   1
  -4   3   5 53.2064 80.1324   1
  -4   3   5-9.42286 83.8636   4
   4  -3  -5 53.2990 100.831   3
  -4   3   4 233.215 145.934   4
  -4   3   4 274.404 134.149   1
   4  -3  -4 269.542 121.752   4
  -4   3   3 8018.41 665.115   4
   4  -3  -3 8126.35 601.896   4
  -4   3   3 8282.64 678.057   1
   4  -3  -2 904.232 217.164   4
  -4   3   2 1299.10 264.871   4
  -4   3   2 1114.58 251.807   1
   4  -3  -1 97.8240 82.4690   4
  -4   3   1 25.4592 87.4459   4
  -4   3   1 38.0624 78.5716   1
  -4   3   0 2684.98 366.899   4
  -4   3   0 3498.74 448.931   1
   4  -3   0 2341.69 334.011   4
   4  -3   1 4008.58 448.556   4
  -4   3  -1 4040.10 452.378   4
  -4   3  -1 3832.98 469.166   1
   4  -3   2 7231.20 612.581   4
  -4   3  -2 6632.37 581.148   4
  -4   3  -2 7256.01 624.560   1
  -4   3  -3 1800.24 314.229   4
   4  -3   3 1600.34 320.837   4
  -4   3  -3 2095.83 327.877   1
   4  -3   4 53.4698 95.3502   4
  -4   3  -4 0.47556 82.0622   1
   4  -3   4-108.467 95.9792   3
   4  -3   5 293.903 144.936   4
  -4   3  -5 223.066 123.987   1
   4  -3   5 315.595 151.448   3
   4  -3   6 5649.18 575.135   3
  -4   3  -6 6360.79 557.280   1
  -4   3  -7 11.2413 48.6924   1
   4  -3   7 1.15332 81.4399   3
   4  -3   8 705.273 229.056   3
   4  -3   9 9.09265 102.575   3
  -4   2  11 1081.59 324.837   4
  -4   2  10 120.151 151.839   4
  -4   2  10-66.8674 72.4669   1
  -4   2   9 453.230 202.809   4
  -4   2   9 214.604 87.0631   1
  -4   2   8 42.0013 125.184   4
  -4   2   8 170.166 105.337   1
  -4   2   7 533.327 213.935   4
  -4   2   7 705.732 212.920   1
  -4   2   6 2149.08 381.069   4
   4  -2  -6 2251.92 379.312   3
  -4   2   6 2076.28 349.286   1
  -4   2   5 311.034 157.622   4
   4  -2  -5 420.245 169.197   3
  -4   2   5 577.950 209.124   1
   4  -2  -4 166.927 105.273   4
  -4   2   4 267.198 150.246   4
  -4   2   4 183.077 120.244   1
  -4   2   3 2702.02 384.774   4
   4  -2  -3 2239.77 330.013   4
   4  -2  -2 631.012 188.018   4
  -4   2   2 395.231 179.157   4
  -4   2   1 7167.04 606.277   4
   4  -2  -1 6711.00 567.616   4
  -4   2   0 2275.55 345.292   4
   4  -2   0 1574.32 289.016   4
   4  -2   1 90.8621 90.9315   4
  -4   2  -1-152.040 113.282   4
  -4   2  -2 326.515 139.703   1
   4  -2   2 486.267 178.310   4
  -4   2  -2 470.521 189.748   4
   4  -2   3 1380.45 288.531   4
  -4   2  -3 1212.96 283.964   4
  -4   2  -3 1931.92 343.880   1
  -4   2  -4 255.322 132.908   1
   4  -2   4 16.9512 79.1631   4
   4  -2   4 152.088 102.203   3
  -4   2  -5 342.858 142.668   1
   4  -2   5 620.581 219.010   4
   4  -2   5 347.361 133.638   3
  -4   2  -6 79.5317 84.1662   1
   4  -2   6 71.5822 95.6178   3
  -4   2  -7 201.276 119.816   1
   4  -2   7 12.0234 70.3169   3
   4  -2   8 20.0017 90.1059   3
   4  -2   9 429.302 175.323   3
  -4   1  11 91.3166 127.424   4
  -4   1  10 81.9807 76.3952   1
  -4   1  10 292.179 181.004   4
  -4   1   9 158.413 128.665   1
  -4   1   9 216.436 163.894   4
  -4   1   8 95.0117 106.724   4
  -4   1   8 93.9946 97.1132   1
  -4   1   7 3523.23 501.589   4
  -4   1   6 37.6255 92.2328   4
   4  -1  -6 143.720 116.616   3
  -4   1   5 2457.30 389.950   4
   4  -1  -5 2116.65 371.334   3
   4  -1  -5 2578.87 366.851   4
  -4   1   4 5141.37 544.071   4
   4  -1  -4 4459.10 488.020   4
   4  -1  -3 2148.87 331.179   4
   4  -1  -2 2219.48 335.176   4
   4  -1  -1-63.1244 79.9174   4
  -4   1   1-0.48577 71.2819   4
   4  -1   0 2485.97 361.505   4
  -4   1   0 2721.06 388.550   4
   4  -1   1 516.705 168.768   4
  -4   1  -1 745.704 209.533   4
   4  -1   2 245.546 132.065   4
  -4   1  -2 77.4646 90.8863   4
   4  -1   3 97.1856 120.925   4
  -4   1  -3 27.3295 82.9531   4
   4  -1   4 717.838 243.387   4
   4  -1   4 961.348 226.298   3
  -4   1  -5 1047.57 256.045   1
   4  -1   5 1067.91 240.298   3
   4  -1   6 2437.01 372.158   3
  -4   1  -6 2357.06 357.704   1
   4  -1   7 304.486 149.566   3
  -4   1  -7 382.035 145.048   1
   4  -1   8 666.986 233.235   3
  -4   0  11 204.493 172.927   4
  -4   0  10 50.6667 120.134   4
  -4   0  10 401.466 161.515   1
  -4   0   9 961.926 283.912   4
  -4   0   8 657.569 234.319   4
  -4   0   7 901.315 262.489   4
  -4   0   6 1483.77 313.458   4
   4   0  -6 1881.40 335.317   3
  -4   0   5 4961.81 550.391   4
   4   0  -5 4282.22 470.606   4
   4   0  -5 4912.25 524.181   3
   4   0  -4 838.013 219.958   4
  -4   0   4 601.617 197.951   4
  -4   0   3 3825.30 468.869   4
   4   0  -3 4362.64 483.155   4
  -4   0   2 9058.41 706.604   4
   4   0  -2 8818.07 678.834   4
   4   0  -1 3254.25 413.447   4
  -4   0   0 2217.49 362.336   4
   4   0   0 1882.27 322.700   4
   4   0   1 1153.05 265.648   4
  -4   0  -1 1496.57 300.435   4
   4   0   2 5829.14 589.992   4
  -4   0  -2 5976.01 590.419   4
   4   0   3 32235.7 1412.18   4
  -4   0  -3 26967.6 1256.72   4
   4   0   4 4267.40 460.753   3
   4   0   5 3742.13 450.141   3
   4   0   6 174.147 118.053   3
   4   0   7 387.188 163.882   3
  -4   0  -7 417.859 158.851   1
   4   0   8 191.681 165.620   3
  -4  -1  11 876.089 302.211   4
  -4  -1  10 901.328 307.778   4
  -4  -1   9 238.088 183.178   4
  -4  -1   8 147.886 126.444   4
  -4  -1   7 561.257 219.849   4
  -4  -1   6 2803.23 430.582   4
   4   1  -6 2663.15 397.439   3
   4   1  -6 2769.84 404.005   4
  -4  -1   5 7060.10 659.612   4
   4   1  -5 7578.41 645.358   3
   4   1  -5 7156.47 622.631   4
   4   1  -4 465.737 173.955   4
  -4  -1   4 435.004 174.526   4
  -4  -1   3 2075.50 350.236   4
   4   1  -3 2653.74 386.364   4
   4   1  -2 2776.67 385.755   4
  -4  -1   2 2238.41 361.667   4
   4   1  -1 907.748 237.901   4
  -4  -1   1 761.070 217.096   4
   4   1   0 343.987 167.141   4
  -4  -1   0 148.038 123.212   4
   4   1   1 1174.62 288.452   4
  -4  -1  -1 1060.74 262.938   4
   4   1   2 4917.90 559.679   4
  -4  -1  -2 5016.25 555.267   4
  -4  -1  -3 11715.7 848.571   4
   4   1   3 13229.6 768.206   3
   4   1   4-107.093 94.2304   3
   4   1   5-50.1128 78.1276   3
   4   1   6 18.8674 62.2883   3
   4   1   7 428.143 172.091   3
   4   1   8 267.166 153.218   3
  -4  -2  11 1638.17 411.908   4
  -4  -2  10-27.8651 179.739   4
  -4  -2   9 2537.97 471.611   4
  -4  -2   8 303.630 170.863   4
  -4  -2   7 2818.26 456.149   4
   4   2  -6 2181.98 350.759   4
  -4  -2   6 2201.10 382.624   4
   4   2  -6 2851.25 403.472   3
   4   2  -5 795.016 220.343   4
  -4  -2   5 941.597 262.825   4
   4   2  -5 896.701 238.374   3
   4   2  -4 1197.77 270.027   4
  -4  -2   4 1321.56 287.837   4
   4   2  -3 731.068 216.370   4
  -4  -2   3 1010.59 241.011   4
   4   2  -2 111.943 106.926   4
  -4  -2   2 311.462 149.748   4
   4   2  -1 745.903 223.156   4
  -4  -2   1 881.268 233.435   4
   4   2   0 10757.4 804.552   4
  -4  -2   0 10250.3 788.876   4
   4   2   1 3973.66 498.931   4
  -4  -2  -1 3468.88 474.987   4
  -4  -2  -2 28800.5 1358.64   4
   4   2   3 13088.6 756.262   3
   4   2   4 2401.23 336.068   3
   4   2   5 240.854 125.601   3
   4   2   6 23.0225 71.9109   3
   4   2   7 162.643 113.983   3
  -4  -3  11 647.170 274.690   4
  -4  -3  10 429.316 202.214   4
  -4  -3   9 758.737 251.704   4
  -4  -3   8 8386.62 809.131   4
  -4  -3   7 7917.03 759.561   4
  -4  -3   6 13675.4 959.080   4
   4   3  -6 14291.5 899.260   3
   4   3  -6 14126.6 907.351   4
   4   3  -5 1246.14 273.662   4
  -4  -3   5 1376.49 313.298   4
   4   3  -5 1337.92 267.977   3
   4   3  -4 1010.11 240.739   4
  -4  -3   4 563.901 204.815   4
   4   3  -4 644.712 195.926   3
   4   3  -3 1035.19 260.207   4
  -4  -3   3 984.481 259.003   4
   4   3  -2 2572.88 396.712   4
  -4  -3   2 1810.57 337.056   4
   4   3  -1 5673.30 591.441   4
  -4  -3   1 4753.51 546.593   4
   4   3   0 794.217 238.017   4
  -4  -3   0 612.740 211.042   4
  -4  -3  -1 194.486 142.702   4
  -4  -3  -2 3686.13 505.282   4
   4   3   3 1444.70 248.286   3
   4   3   4 3.79928 62.4431   3
   4   3   5 249.983 122.936   3
   4   3   6 149.723 109.115   3
   4   3   7-146.945 105.364   3
  -4  -4  10 1217.94 327.394   4
  -4  -4   9 9521.34 889.902   4
  -4  -4   8 1782.62 371.314   4
  -4  -4   7 72.6221 112.568   4
  -4  -4   6 127.363 119.928   4
   4   4  -6 320.743 148.391   3
   4   4  -5 747.006 185.773   4
  -4  -4   5 939.803 263.008   4
   4   4  -5 757.373 215.551   3
   4   4  -4 1071.81 265.813   4
  -4  -4   4 1108.81 274.403   4
   4   4  -4 666.972 192.634   3
  -4  -4   3 4302.89 539.080   4
   4   4  -3 4327.21 523.747   4
   4   4  -2 4480.68 548.539   4
  -4  -4   2 4426.69 543.427   4
  -4  -4   1 3010.43 451.758   4
  -4  -4   0 6056.94 643.570   4
  -4  -4  -1 733.883 251.566   4
   4   4   2 2105.20 286.212   3
   4   4   3-85.6864 78.1888   3
   4   4   4 897.372 199.796   3
   4   4   5 126.586 96.0336   3
   4   4   6 1019.35 244.226   3
  -4  -5  10 622.932 239.374   4
  -4  -5   9 2028.03 415.853   4
  -4  -5   8 2577.57 453.936   4
   4   5  -7 405.472 167.169   3
  -4  -5   7 506.429 190.822   4
  -4  -5   6 555.178 217.848   4
   4   5  -6 321.454 150.041   3
  -4  -5   5 3316.56 478.372   4
   4   5  -5 3594.50 427.005   3
  -4  -5   4 1043.54 270.727   4
   4   5  -4 1192.60 240.513   3
  -4  -5   3 4039.53 519.497   4
   4   5  -3 3408.12 393.135   3
  -4  -5   2 2499.25 430.183   4
  -4  -5   1 692.201 254.262   4
  -4  -5   0 1835.48 387.976   4
   4   5   1 1099.63 199.258   3
   4   5   2 781.286 172.393   3
   4   5   3 749.704 178.094   3
   4   5   4 54.5990 57.5459   3
   4   5   5 170.944 94.7193   3
   4   5   5 635.019 194.712   2
  -4  -6   9 3289.90 541.694   4
   4   6  -9 2932.54 432.970   2
  -4  -6   8 242.238 163.030   4
  -4  -6   7 184.340 144.671   4
   4   6  -6 932.624 221.577   3
  -4  -6   6 1006.39 281.247   4
   4   6  -5 36.5483 74.4700   3
  -4  -6   5-237.422 145.769   4
  -4  -6   4 169.572 147.319   4
   4   6  -4-57.1196 73.2930   3
  -4  -6   3 2325.02 427.063   4
   4   6  -3 2015.20 300.742   3
  -4  -6   2 6400.24 686.115   4
  -4  -6   1 135.905 121.327   4
  -4  -6   0 769.053 248.919   4
   4   6   1 157.807 75.1802   3
   4   6   2-111.540 68.5562   3
   4   6   3 1015.13 196.754   3
   4   6   3 1719.49 344.016   2
  -4  -7   7 1009.84 292.081   4
   4   7  -7 399.475 192.986   2
  -4  -7   6 862.388 280.944   4
   4   7  -6 732.697 239.345   2
  -4  -7   5-330.990 179.742   4
  -4  -7   4-245.804 175.407   4
  -4  -7   3-47.6630 117.691   4
  -4  -7   2 1694.44 383.097   4
  -4  -7   1 1804.20 385.705   4
   4   7   0 243.447 150.856   2
   4   7   0-113.085 61.7383   3
   4   7   1 717.003 270.607   2
   4   7   2-47.3863 120.395   2
  -4  -8   5 246.031 177.698   4
   4   8  -5-309.741 172.031   2
  -4  -8   4 1830.23 392.388   4
   4   8  -4 1103.74 279.953   2
  -4  -8   3 1683.12 386.793   4
   4   8  -3 1221.33 330.775   2
  -4  -8   2 185.884 155.305   4
   4   8  -2 92.1805 145.464   2
   4   8  -1 198.285 168.072   2
  -5  10   3 391.878 179.633   4
  -5  10   2 411.893 176.807   4
   5 -10  -1 5538.38 802.147   1
   5 -10   0 325.074 218.133   1
   5 -10   2-16.8145 47.2416   3
  -5   9   5 535.451 224.580   4
  -5   9   4-125.675 148.189   4
  -5   9   3 590.476 216.290   4
  -5   9   2 1494.19 303.081   4
  -5   9   1 279.951 128.110   4
  -5   9   0 3158.26 395.327   4
  -5   9  -1 301.559 131.102   4
  -5   9  -2 76.8765 76.8674   4
   5  -9   3 708.095 182.513   3
   5  -9   4 88.0718 104.695   3
  -5   8   7-352.631 131.317   4
  -5   8   6-112.693 143.241   4
  -5   8   5-89.1665 130.018   4
  -5   8   4 278.720 171.560   4
  -5   8   3 110.627 117.747   4
  -5   8   2-5.06613 80.4443   4
  -5   8   1 7128.55 634.037   4
  -5   8   0 1851.70 320.182   4
   5  -8   1 203.106 111.121   4
  -5   8  -1 366.924 140.759   4
  -5   8  -2 507.069 162.658   4
   5  -8   3 835.371 221.019   3
   5  -8   4 96.0746 115.537   3
   5  -8   5 232.546 138.797   3
  -5   7   8 246.197 204.779   4
  -5   7   7 600.352 254.463   4
  -5   7   6-17.7405 110.207   4
  -5   7   5 333.435 171.723   4
  -5   7   4 873.965 266.271   4
  -5   7   3 3214.75 469.444   4
  -5   7   2 10258.8 796.768   4
  -5   7   1 655.738 204.491   4
   5  -7  -1 384.221 149.522   4
   5  -7   0 265.081 133.463   4
  -5   7   0 58.9804 103.092   4
   5  -7   1 162.729 108.078   4
  -5   7  -1 226.380 111.196   4
   5  -7   2-95.2591 108.866   4
  -5   7  -2-422.656 156.914   4
   5  -7   3 800.134 231.574   4
  -5   7  -3 999.259 249.298   4
   5  -7   4-80.0397 95.9479   3
   5  -7   5 24.6589 83.0964   3
   5  -7   6 58.6596 97.7470   3
  -5   6   8 123.401 149.897   4
  -5   6   7 163.937 162.280   4
  -5   6   6 261.612 175.827   4
  -5   6   5 46.1293 115.953   4
  -5   6   4 502.502 217.203   4
  -5   6   3 1056.21 281.664   4
   5  -6  -2 194.661 96.4792   4
  -5   6   2 100.568 86.9475   4
   5  -6  -1-27.5445 81.4403   4
  -5   6   1 14.0107 74.4017   4
   5  -6   0-126.769 109.066   4
  -5   6   0 95.3670 111.663   4
   5  -6   1 236.078 125.274   4
  -5   6  -1 60.4718 89.4002   4
   5  -6   2 1316.36 285.401   4
  -5   6  -2 1323.48 279.682   4
   5  -6   3-176.586 127.542   4
  -5   6  -3 104.856 107.150   4
   5  -6   4 409.708 189.968   4
   5  -6   4 946.659 248.747   3
   5  -6   5 939.751 253.527   3
   5  -6   6 472.074 192.080   3
  -5   5   9-7.32258 119.558   4
  -5   5   8 269.396 209.809   4
  -5   5   7-137.901 149.784   4
  -5   5   6 246.117 171.895   4
  -5   5   5 7132.79 742.648   4
  -5   5   4 208.508 137.187   4
   5  -5  -3 799.427 223.030   4
  -5   5   3 1176.09 295.449   4
   5  -5  -2 710.831 200.139   4
  -5   5   2 778.475 241.661   4
  -5   5   1 2825.21 428.925   4
   5  -5  -1 2281.39 356.983   4
   5  -5   0 417.929 172.473   4
  -5   5   0 495.551 191.316   4
   5  -5   1 49.9086 97.6676   4
  -5   5  -1 364.335 143.339   4
   5  -5   2 132.186 129.662   4
  -5   5  -2-120.669 113.588   4
   5  -5   3 438.245 188.296   4
  -5   5  -3 654.425 237.791   4
   5  -5   4 1712.54 347.256   4
   5  -5   4 1616.57 323.348   3
   5  -5   5 165.888 129.952   3
   5  -5   6 928.066 269.277   3
   5  -5   7 1274.53 316.189   3
  -5   4  10-219.562 183.116   4
  -5   4   9 216.748 189.966   4
  -5   4   8-118.089 153.565   4
  -5   4   7 124.730 142.142   4
  -5   4   6 4.39121 91.8104   4
  -5   4   5 27.8103 104.438   4
  -5   4   4 1021.46 301.115   4
  -5   4   3 2918.07 460.272   4
   5  -4  -3 2554.08 373.321   4
   5  -4  -2 156.872 118.682   4
  -5   4   2 442.094 192.856   4
   5  -4  -1 742.476 216.163   4
  -5   4   1 606.947 212.577   4
   5  -4   0 1.65375 80.8025   4
  -5   4   0 178.412 129.706   4
   5  -4   1 3709.51 478.153   4
  -5   4  -1 3980.81 506.673   4
   5  -4   2 417.204 189.680   4
  -5   4  -2 81.5904 107.542   4
  -5   4  -3 2669.64 431.390   4
   5  -4   3 3040.72 443.941   4
   5  -4   4 123.032 124.740   3
   5  -4   5 134.255 125.129   3
   5  -4   6 421.408 195.110   3
   5  -4   7 172.400 135.647   3
  -5   3  10 392.926 227.863   4
  -5   3   9-55.7843 145.422   4
  -5   3   8 596.937 260.220   4
  -5   3   7 2422.14 473.379   4
  -5   3   6 2658.51 470.144   4
  -5   3   5 116.019 133.532   4
  -5   3   4 3334.16 490.755   4
   5  -3  -3 667.349 226.511   4
  -5   3   3 921.754 267.568   4
   5  -3  -2 961.446 251.469   4
  -5   3   2 818.827 253.082   4
   5  -3  -1 139.818 113.030   4
  -5   3   1 14.0000 99.8689   4
   5  -3   0-135.750 108.393   4
  -5   3   0-60.3511 95.6020   4
   5  -3   1 289.132 162.140   4
  -5   3  -1 737.399 255.630   4
   5  -3   2 5241.49 597.485   4
  -5   3  -2 5846.26 630.990   4
  -5   3  -3 4369.80 542.896   4
   5  -3   4 1132.61 286.218   3
   5  -3   5 1923.14 361.456   3
   5  -3   6 69.9703 112.057   3
   5  -3   7 201.133 159.017   3
  -5   2  10-97.7076 152.813   4
  -5   2   9 2621.48 525.838   4
  -5   2   8-49.1635 120.187   4
  -5   2   7 1276.46 360.382   4
  -5   2   6 811.046 273.650   4
  -5   2   5 1503.06 359.602   4
  -5   2   4 424.191 206.870   4
  -5   2   3 2601.68 450.296   4
   5  -2  -3 2600.12 416.919   4
   5  -2  -2 425.850 175.160   4
  -5   2   2 297.607 165.081   4
   5  -2  -1 6.36526 78.7315   4
  -5   2   1-222.553 155.080   4
   5  -2   0-8.28275 83.1853   4
  -5   2   0 63.2003 115.319   4
  -5   2  -1 2367.27 415.473   4
  -5   2  -2 3320.59 487.350   4
  -5   2  -3 6736.27 691.740   4
   5  -2   4 329.471 160.798   3
   5  -2   5 209.335 135.484   3
   5  -2   6-218.483 141.832   3
   5  -2   7-0.68836 121.527   3
  -5   1  10-69.9216 124.672   4
  -5   1   9 13.9257 134.093   4
  -5   1   8 136.358 150.067   4
  -5   1   7 2688.95 492.822   4
  -5   1   6 414.359 197.662   4
  -5   1   5 24.4749 116.106   4
  -5   1   4 4.73399 84.5424   4
  -5   1   3-59.2724 115.004   4
  -5   1   2 3216.56 489.601   4
  -5   1   1 931.062 270.516   4
  -5   1   0 32220.3 1500.32   4
  -5   1  -1 2275.77 417.352   4
  -5   1  -2-120.545 128.877   4
  -5   1  -3 1325.69 331.216   4
   5  -1   4 193.288 119.509   3
   5  -1   5 319.525 133.435   3
   5  -1   6 6.41068 95.6542   3
  -5   0  10-105.857 138.664   4
  -5   0   9 158.695 490.950   4
  -5   0   8 3689.57 588.987   4
  -5   0   7 445.373 208.268   4
  -5   0   6 68.6449 113.567   4
  -5   0   5 2274.17 421.747   4
  -5   0   4-43.3537 94.1066   4
  -5   0   3 119.405 127.707   4
  -5   0   2-14.0147 106.026   4
  -5   0   1 4522.47 567.763   4
  -5   0   0 13732.5 995.549   4
  -5   0  -1 2345.83 420.445   4
  -5   0  -2 194.611 142.924   4
  -5   0  -3-255.289 151.864   4
   5   0   4 1049.26 266.885   3
   5   0   5 131.700 105.479   3
   5   0   6 1043.30 273.810   3
  -5  -1  10 5281.78 734.707   4
  -5  -1   9 5457.09 735.907   4
  -5  -1   8 4801.29 673.807   4
  -5  -1   7 1285.32 329.854   4
  -5  -1   6 1014.77 299.920   4
  -5  -1   5-67.1894 113.843   4
  -5  -1   4 1001.04 285.196   4
  -5  -1   3 153.942 140.525   4
  -5  -1   2 1293.25 317.607   4
  -5  -1   1 1069.66 297.430   4
  -5  -1   0 35834.6 1635.64   4
  -5  -1  -1-94.5453 120.177   4
  -5  -1  -2 3571.18 534.014   4
  -5  -1  -3 371.291 190.398   4
   5   1   3 715.868 206.114   3
   5   1   4 727.238 218.062   3
   5   1   5 58.5870 84.7290   3
   5   1   6-74.1854 101.705   3
  -5  -2  10 157.329 174.237   4
  -5  -2   9-307.934 209.927   4
  -5  -2   8 846.223 296.691   4
  -5  -2   7-127.506 139.116   4
  -5  -2   6 611.942 243.976   4
  -5  -2   5 1878.86 397.251   4
  -5  -2   4 1027.96 289.345   4
  -5  -2   3 2523.35 443.100   4
  -5  -2   2-138.241 135.351   4
  -5  -2   1 754.687 259.144   4
  -5  -2   0 862.241 283.312   4
  -5  -2  -1 339.540 185.712   4
  -5  -2  -2 141.658 152.691   4
   5   2   3 2156.24 352.075   3
   5   2   4 976.855 246.395   3
   5   2   5 3239.00 450.083   3
  -5  -3   9-63.2098 145.059   4
  -5  -3   8 1415.17 365.705   4
  -5  -3   7 4032.34 600.639   4
  -5  -3   6 2295.00 445.763   4
  -5  -3   5 847.582 273.459   4
  -5  -3   4-188.652 151.319   4
  -5  -3   3 3565.06 535.247   4
  -5  -3   2 2254.74 438.051   4
  -5  -3   1 698.057 265.844   4
  -5  -3   0 2972.04 511.412   4
  -5  -3  -1 302.065 184.709   4
  -5  -3  -2 1403.95 359.563   4
   5   3   2 1651.38 291.178   3
   5   3   3 21.6421 66.8341   3
   5   3   4-164.515 108.219   3
  -5  -4   9 499.700 264.625   4
  -5  -4   8 326.581 180.966   4
  -5  -4   7 234.550 157.433   4
  -5  -4   6 1851.88 406.279   4
  -5  -4   5 155.565 155.001   4
  -5  -4   4 7073.62 771.705   4
  -5  -4   3 243.204 174.811   4
  -5  -4   2 622.798 244.967   4
  -5  -4   1 1080.25 328.587   4
  -5  -4   0 718.220 291.054   4
  -5  -4  -1-171.846 163.938   4
   5   4   2 3232.06 399.865   3
   5   4   3 95.9381 97.4551   3
  -5  -5   7 159.560 163.161   4
  -5  -5   6 281.468 164.109   4
  -5  -5   5 699.128 266.739   4
  -5  -5   4-139.644 145.043   4
  -5  -5   3 584.781 250.035   4
  -5  -5   2 55.5672 117.217   4
  -5  -5   1 560.284 235.802   4
  -5  -5   0 3776.03 592.151   4
   5   5   1 239.882 116.282   3
   5   5   2-105.282 77.6828   3
  -5  -6   5 3550.18 569.005   4
  -5  -6   4 178.410 177.632   4
  -5  -6   3 339.339 209.802   4
  -5  -6   2-78.7956 140.251   4
  -5  -6   1 1116.01 335.808   4
  -6   8   4 677.624 233.990   4
  -6   8   3 1235.26 332.946   4
  -6   8   2 90.8536 129.285   4
  -6   8   1-130.506 140.085   4
  -6   8   0 626.365 218.502   4
  -6   8  -1 1762.69 344.860   4
  -6   8  -2 1242.86 314.128   4
  -6   7   6 442.749 242.956   4
  -6   7   5-87.9705 144.491   4
  -6   7   4 93.2767 159.851   4
  -6   7   3 454.901 224.746   4
  -6   7   2 684.291 254.492   4
  -6   7   1-293.099 176.679   4
  -6   7   0 926.249 287.999   4
  -6   7  -1 22.0858 107.058   4
  -6   7  -2-180.027 137.617   4
  -6   7  -3 432.667 178.909   4
  -6   6   7 239.137 178.887   4
  -6   6   6 190.836 184.788   4
  -6   6   5 365.994 240.276   4
  -6   6   4 115.068 143.203   4
  -6   6   3 387.573 212.477   4
  -6   6   2 103.373 127.512   4
  -6   6   1 591.296 237.499   4
  -6   6   0 284.464 151.485   4
  -6   6  -1 212.159 147.519   4
  -6   6  -2 510.238 214.548   4
  -6   6  -3 209.566 148.113   4
   6  -6   4-161.994 136.195   3
  -6   5   7 33.4171 135.123   4
  -6   5   6 959.342 351.797   4
  -6   5   5 231.336 181.673   4
  -6   5   4 275.117 187.773   4
  -6   5   3 265.584 178.440   4
  -6   5   2 1247.72 333.778   4
  -6   5   1 1923.10 402.595   4
  -6   5   0 961.613 291.312   4
  -6   5  -1 3424.31 526.552   4
  -6   5  -2-52.7614 105.597   4
  -6   5  -3-95.4946 120.559   4
   6  -5   4 484.676 202.476   3
  -6   4   8 201.076 206.426   4
  -6   4   7 637.141 282.640   4
  -6   4   6 96.3612 151.767   4
  -6   4   5-51.4785 123.952   4
  -6   4   4 522.692 229.920   4
  -6   4   3 123.261 166.943   4
  -6   4   2 25.6773 148.845   4
  -6   4   1 1095.51 340.689   4
  -6   4   0 2139.92 423.827   4
  -6   4  -1 2437.75 454.672   4
  -6   4  -2-389.081 200.481   4
  -6   4  -3 1294.70 337.749   4
   6  -4   4-117.346 125.371   3
  -6   3   8 620.931 280.492   4
  -6   3   7 433.119 233.555   4
  -6   3   6 380.685 223.386   4
  -6   3   5 1313.98 369.750   4
  -6   3   4 1779.81 413.124   4
  -6   3   3 1505.32 376.684   4
  -6   3   2 8802.01 876.922   4
  -6   3   1 1131.36 323.479   4
  -6   3   0 308.884 184.430   4
  -6   3  -1 3242.10 539.021   4
  -6   3  -2 1132.65 334.899   4
  -6   3  -3 59.1346 99.1279   4
   6  -3   4 127.136 117.170   3
  -6   2   8 231.891 189.071   4
  -6   2   7-20.7056 200.370   4
  -6   2   6 517.468 270.498   4
  -6   2   5 67.8027 156.116   4
  -6   2   4 3410.83 565.286   4
  -6   2   3 9348.16 910.450   4
  -6   2   2 25.1718 119.450   4
  -6   2   1 156.157 152.028   4
  -6   2   0 381.040 209.019   4
  -6   2  -1 97.9269 132.611   4
  -6   2  -2 1819.31 438.973   4
  -6   2  -3 631.687 254.006   4
   6  -2   4-203.743 147.899   3
  -6   1   8 133.800 165.837   4
  -6   1   7 763.304 290.484   4
  -6   1   6 959.700 330.703   4
  -6   1   5-46.4814 116.234   4
  -6   1   4-392.474 219.217   4
  -6   1   3-97.1040 151.990   4
  -6   1   2 24471.9 1474.68   4
  -6   1   1 1966.81 436.412   4
  -6   1   0 2353.09 459.798   4
  -6   1  -1 585.448 249.839   4
  -6   1  -2-130.404 131.934   4
  -6   1  -3 1671.46 411.670   4
   6  -1   4 63.7569 77.3289   3
  -6   0   8 173.863 164.718   4
  -6   0   7 33.1700 92.8061   4
  -6   0   6 2303.30 488.842   4
  -6   0   5 765.045 286.026   4
  -6   0   4 3822.22 614.489   4
  -6   0   3 2846.88 531.131   4
  -6   0   2 4738.52 679.899   4
  -6   0   1 771.955 281.729   4
  -6   0   0 540.247 244.798   4
  -6   0  -1 1583.42 404.725   4
  -6   0  -2-163.703 166.970   4
  -6   0  -3 2134.04 443.641   4
   6   0   3 2602.18 429.833   3
  -6  -1   8 1241.91 389.025   4
  -6  -1   7 1752.35 450.881   4
  -6  -1   6 412.849 213.978   4
  -6  -1   5 2267.79 485.029   4
  -6  -1   4 131.861 120.009   4
  -6  -1   3 456.618 240.467   4
  -6  -1   2 8366.51 887.608   4
  -6  -1   1 1417.20 386.123   4
  -6  -1   0 451.849 224.166   4
  -6  -1  -1-171.260 159.932   4
  -6  -1  -2 336.050 200.245   4
   6   1   3 339.574 157.185   3
  -6  -2   7 333.057 185.487   4
  -6  -2   6 5115.90 734.124   4
  -6  -2   5 733.156 298.159   4
  -6  -2   4 517.914 238.361   4
  -6  -2   3 840.387 293.687   4
  -6  -2   2-82.2036 130.721   4
  -6  -2   1 552.714 255.948   4
  -6  -2   0 2790.14 541.399   4
  -6  -2  -1 224.587 185.880   4
  -6  -2  -2 1377.40 401.921   4
  -6  -3   6 281.083 180.508   4
  -6  -3   5 621.582 266.204   4
  -6  -3   4 500.359 247.949   4
  -6  -3   3 1018.42 315.407   4
  -6  -3   2-157.597 150.019   4
  -6  -3   1 489.972 261.388   4
  -6  -3   0 776.746 291.711   4
  -7   5   2 288.711 213.814   4
  -7   4   4 99.1917 142.510   4
  -7   4   3 447.420 247.908   4
  -7   4   2 1552.26 417.081   4
  -7   4   1 1584.30 414.965   4
  -7   3   4 7434.79 935.145   4
  -7   3   3 234.697 202.987   4
  -7   3   2 765.678 315.033   4
  -7   3   1 2057.29 499.647   4
  -7   2   4 1226.08 421.654   4
  -7   2   3 156.096 176.652   4
  -7   2   2-2.02701 163.721   4
  -7   2   1 624.221 275.768   4
  -7   1   4 1817.37 494.693   4
  -7   1   3 811.934 337.077   4
  -7   1   2-1.03278 226.678   4
   0   0   0    0.00    0.00   0
TITL exp_467 in P-1
REM P-1 (#2 in standard setting)
CELL 0.71073   5.993150  10.222201  10.853157  95.6896 101.1919 103.5615
ZERR    2.00   0.000639   0.001071   0.001137   0.0086   0.0090   0.0091
LATT  1
SFAC C H N O
UNIT 40.00 40.00 6.00 6.00
TREF
HKLF 4
END
;
_shelx_hkl_checksum              9982
_olex2_date_sample_data_collection 2018-07-02
_olex2_submission_special_instructions 'No special instructions were received'
loop_
_space_group_symop_operation_xyz
'x, y, z'
'-x, -y, -z'
loop_
_atom_site_label
_atom_site_type_symbol
_atom_site_fract_x
_atom_site_fract_y
_atom_site_fract_z
_atom_site_U_iso_or_equiv
_atom_site_adp_type
_atom_site_occupancy
_atom_site_site_symmetry_order
_atom_site_calc_flag
_atom_site_refinement_flags_posn
O5 O 0.2992(3) 0.52304(17) 0.10650(17) 0.0310(5) Uani 1 1 d .
O4 O 0.7028(3) 0.87279(18) -0.06642(18) 0.0335(5) Uani 1 1 d .
N3 N 0.7410(4) 0.7023(2) 0.1441(2) 0.0270(6) Uani 1 1 d .
N2 N 0.5511(4) 0.7083(2) 0.0503(2) 0.0263(6) Uani 1 1 d .
N1 N 0.1903(4) 0.6249(2) -0.0681(2) 0.0287(6) Uani 1 1 d .
C6 C 0.9252(5) 0.8026(3) 0.1692(3) 0.0284(7) Uani 1 1 d .
H6 H 0.927897 0.880788 0.128371 0.034 Uiso 1 1 calc R
N4 N 1.7493(4) 0.7667(2) 0.5103(2) 0.0374(7) Uani 1 1 d .
C7 C 1.1326(5) 0.7938(2) 0.2630(2) 0.0257(7) Uani 1 1 d .
O1 O 1.7557(4) 0.6565(2) 0.5441(2) 0.0548(7) Uani 1 1 d .
C5 C 0.3356(5) 0.6067(2) 0.0345(3) 0.0255(6) Uani 1 1 d .
O2 O 1.9161(4) 0.8672(2) 0.5434(2) 0.0601(8) Uani 1 1 d .
C8 C 1.1341(5) 0.6795(3) 0.3233(3) 0.0310(7) Uani 1 1 d .
H8 H 0.994904 0.607278 0.308134 0.037 Uiso 1 1 calc R
C10 C 1.5328(5) 0.7772(3) 0.4264(3) 0.0289(7) Uani 1 1 d .
C9 C 1.3349(5) 0.6703(3) 0.4045(3) 0.0303(7) Uani 1 1 d .
H9 H 1.336701 0.591866 0.444434 0.036 Uiso 1 1 calc R
C12 C 1.3351(5) 0.9008(3) 0.2882(3) 0.0305(7) Uani 1 1 d .
H12 H 1.334387 0.979147 0.248054 0.037 Uiso 1 1 calc R
C4 C 0.5442(5) 0.7827(2) -0.0494(2) 0.0258(7) Uani 1 1 d .
C11 C 1.5376(5) 0.8943(3) 0.3711(3) 0.0322(7) Uani 1 1 d .
H11 H 1.675642 0.967674 0.389709 0.039 Uiso 1 1 calc R
C2 C 0.3254(5) 0.6682(3) -0.2661(3) 0.0358(7) Uani 1 1 d .
H2A H 0.401149 0.593523 -0.255719 0.054 Uiso 1 1 calc GR
H2B H 0.421585 0.738430 -0.302903 0.054 Uiso 1 1 calc GR
H2C H 0.168858 0.633223 -0.322629 0.054 Uiso 1 1 calc GR
C1 C 0.1748(5) 0.8421(3) -0.1474(3) 0.0368(8) Uani 1 1 d .
H1A H 0.014119 0.804498 -0.198600 0.055 Uiso 1 1 calc GR
H1B H 0.259949 0.913304 -0.187968 0.055 Uiso 1 1 calc GR
H1C H 0.168923 0.881172 -0.062247 0.055 Uiso 1 1 calc GR
C3 C 0.3015(5) 0.7292(3) -0.1370(3) 0.0277(7) Uani 1 1 d .
H1 H 0.045(7) 0.579(3) -0.090(3) 0.057(11) Uiso 1 1 d .
loop_
_atom_site_aniso_label
_atom_site_aniso_U_11
_atom_site_aniso_U_22
_atom_site_aniso_U_33
_atom_site_aniso_U_23
_atom_site_aniso_U_13
_atom_site_aniso_U_12
O5 0.0201(12) 0.0354(11) 0.0369(12) 0.0149(9) 0.0082(9) 0.0011(9)
O4 0.0189(12) 0.0350(11) 0.0437(12) 0.0156(9) 0.0068(9) -0.0022(9)
N3 0.0147(13) 0.0347(13) 0.0304(13) 0.0061(9) 0.0043(10) 0.0044(10)
N2 0.0153(13) 0.0296(12) 0.0329(14) 0.0091(10) 0.0047(10) 0.0024(10)
N1 0.0154(14) 0.0325(13) 0.0346(14) 0.0116(10) 0.0041(11) -0.0022(11)
C6 0.0236(17) 0.0272(14) 0.0331(17) 0.0076(11) 0.0059(13) 0.0033(12)
N4 0.0248(16) 0.0422(15) 0.0417(16) 0.0156(12) 0.0033(12) 0.0012(12)
C7 0.0216(17) 0.0276(14) 0.0284(16) 0.0049(11) 0.0089(12) 0.0047(12)
O1 0.0356(15) 0.0471(13) 0.0750(17) 0.0293(12) -0.0046(12) 0.0032(11)
C5 0.0129(15) 0.0286(14) 0.0338(16) 0.0054(12) 0.0056(12) 0.0025(11)
O2 0.0305(15) 0.0524(14) 0.0785(18) 0.0277(12) -0.0141(12) -0.0119(11)
C8 0.0256(18) 0.0294(15) 0.0341(17) 0.0073(12) 0.0059(13) -0.0008(12)
C10 0.0200(17) 0.0342(15) 0.0307(16) 0.0095(12) 0.0024(12) 0.0045(13)
C9 0.0249(18) 0.0288(14) 0.0332(17) 0.0100(12) 0.0033(13) 0.0000(12)
C12 0.0255(18) 0.0264(14) 0.0389(17) 0.0123(12) 0.0067(13) 0.0024(12)
C4 0.0189(16) 0.0279(15) 0.0303(16) 0.0062(11) 0.0059(12) 0.0041(12)
C11 0.0213(17) 0.0331(15) 0.0365(17) 0.0077(12) 0.0048(13) -0.0035(12)
C2 0.0244(18) 0.0422(16) 0.0377(18) 0.0098(13) 0.0059(14) 0.0020(13)
C1 0.0233(18) 0.0442(17) 0.047(2) 0.0188(14) 0.0111(14) 0.0098(14)
C3 0.0179(16) 0.0319(15) 0.0332(16) 0.0118(12) 0.0076(12) 0.0020(12)
loop_
_atom_type_symbol
_atom_type_description
_atom_type_scat_dispersion_real
_atom_type_scat_dispersion_imag
_atom_type_scat_source
C C 0.0033 0.0016 'International Tables Vol C Tables 4.2.6.8 and 6.1.1.4'
H H 0.0000 0.0000 'International Tables Vol C Tables 4.2.6.8 and 6.1.1.4'
N N 0.0061 0.0033 'International Tables Vol C Tables 4.2.6.8 and 6.1.1.4'
O O 0.0106 0.0060 'International Tables Vol C Tables 4.2.6.8 and 6.1.1.4'
loop_
_geom_angle_atom_site_label_1
_geom_angle_atom_site_label_2
_geom_angle_atom_site_label_3
_geom_angle
C6 N3 N2 117.9(2)
N3 N2 C5 117.89(19)
C4 N2 N3 130.0(2)
C4 N2 C5 110.9(2)
C5 N1 C3 113.8(2)
C5 N1 H1 122(2)
C3 N1 H1 125(2)
N3 C6 H6 120.8
N3 C6 C7 118.4(2)
C7 C6 H6 120.8
O1 N4 C10 118.4(2)
O2 N4 O1 122.5(2)
O2 N4 C10 119.1(2)
C8 C7 C6 122.0(2)
C12 C7 C6 118.7(2)
C12 C7 C8 119.3(3)
O5 C5 N2 124.1(2)
O5 C5 N1 129.1(3)
N1 C5 N2 106.8(2)
C7 C8 H8 119.6
C9 C8 C7 120.8(3)
C9 C8 H8 119.6
C9 C10 N4 118.8(2)
C9 C10 C11 122.8(3)
C11 C10 N4 118.4(2)
C8 C9 H9 120.8
C10 C9 C8 118.4(2)
C10 C9 H9 120.8
C7 C12 H12 119.6
C11 C12 C7 120.7(2)
C11 C12 H12 119.6
O4 C4 N2 127.0(3)
O4 C4 C3 125.6(2)
N2 C4 C3 107.4(2)
C10 C11 H11 121.0
C12 C11 C10 117.9(2)
C12 C11 H11 121.0
H2A C2 H2B 109.5
H2A C2 H2C 109.5
H2B C2 H2C 109.5
C3 C2 H2A 109.5
C3 C2 H2B 109.5
C3 C2 H2C 109.5
H1A C1 H1B 109.5
H1A C1 H1C 109.5
H1B C1 H1C 109.5
C3 C1 H1A 109.5
C3 C1 H1B 109.5
C3 C1 H1C 109.5
N1 C3 C4 100.8(2)
N1 C3 C2 112.1(2)
N1 C3 C1 111.5(2)
C4 C3 C2 109.4(2)
C4 C3 C1 110.4(2)
C2 C3 C1 112.0(2)
loop_
_geom_bond_atom_site_label_1
_geom_bond_atom_site_label_2
_geom_bond_distance
O5 C5 1.224(3)
O4 C4 1.216(3)
N3 N2 1.389(3)
N3 C6 1.281(3)
N2 C5 1.424(3)
N2 C4 1.383(3)
N1 C5 1.332(3)
N1 C3 1.470(3)
N1 H1 0.86(4)
C6 H6 0.9500
C6 C7 1.473(4)
N4 O1 1.225(3)
N4 O2 1.221(3)
N4 C10 1.467(4)
C7 C8 1.395(3)
C7 C12 1.390(4)
C8 H8 0.9500
C8 C9 1.375(4)
C10 C9 1.374(4)
C10 C11 1.388(3)
C9 H9 0.9500
C12 H12 0.9500
C12 C11 1.383(4)
C4 C3 1.519(4)
C11 H11 0.9500
C2 H2A 0.9800
C2 H2B 0.9800
C2 H2C 0.9800
C2 C3 1.523(4)
C1 H1A 0.9800
C1 H1B 0.9800
C1 H1C 0.9800
C1 C3 1.525(4)
loop_
_geom_hbond_atom_site_label_D
_geom_hbond_atom_site_label_H
_geom_hbond_atom_site_label_A
_geom_hbond_distance_DH
_geom_hbond_distance_HA
_geom_hbond_distance_DA
_geom_hbond_angle_DHA
_geom_hbond_site_symmetry_A
C6 H6 O4 0.95 2.26 2.885(3) 122.6 .
C9 H9 O1 0.95 2.49 3.377(3) 155.5 2_866
C11 H11 O2 0.95 2.55 3.486(4) 169.4 2_976
C1 H1C O4 0.98 2.62 3.378(4) 134.6 2_675
N1 H1 O5 0.86(4) 2.05(4) 2.896(3) 170(3) 2_565
loop_
_geom_torsion_atom_site_label_1
_geom_torsion_atom_site_label_2
_geom_torsion_atom_site_label_3
_geom_torsion_atom_site_label_4
_geom_torsion
O4 C4 C3 N1 -179.7(3)
O4 C4 C3 C2 62.0(3)
O4 C4 C3 C1 -61.7(3)
N3 N2 C5 O5 8.0(4)
N3 N2 C5 N1 -173.5(2)
N3 N2 C4 O4 -10.0(5)
N3 N2 C4 C3 168.7(2)
N3 C6 C7 C8 0.8(4)
N3 C6 C7 C12 178.3(3)
N2 N3 C6 C7 -176.5(2)
N2 C4 C3 N1 1.6(3)
N2 C4 C3 C2 -116.7(2)
N2 C4 C3 C1 119.6(2)
C6 N3 N2 C5 -171.4(2)
C6 N3 N2 C4 22.4(4)
C6 C7 C8 C9 175.9(3)
C6 C7 C12 C11 -177.0(3)
N4 C10 C9 C8 -178.5(3)
N4 C10 C11 C12 177.5(3)
C7 C8 C9 C10 1.0(4)
C7 C12 C11 C10 1.0(4)
O1 N4 C10 C9 9.8(4)
O1 N4 C10 C11 -169.4(3)
C5 N2 C4 O4 -176.9(3)
C5 N2 C4 C3 1.8(3)
C5 N1 C3 C4 -4.8(3)
C5 N1 C3 C2 111.5(3)
C5 N1 C3 C1 -122.0(3)
O2 N4 C10 C9 -170.6(3)
O2 N4 C10 C11 10.2(4)
C8 C7 C12 C11 0.6(4)
C9 C10 C11 C12 -1.7(4)
C12 C7 C8 C9 -1.7(4)
C4 N2 C5 O5 176.7(3)
C4 N2 C5 N1 -4.8(3)
C11 C10 C9 C8 0.7(4)
C3 N1 C5 O5 -175.5(3)
C3 N1 C5 N2 6.0(3)
