#------------------------------------------------------------------------------
#$Date: 2018-12-07 03:40:10 +0200 (Fri, 07 Dec 2018) $
#$Revision: 212424 $
#$URL: file:///home/coder/svn-repositories/cod/cif/7/05/80/7058018.cif $
#------------------------------------------------------------------------------
#
# This file is available in the Crystallography Open Database (COD),
# http://www.crystallography.net/
#
# All data on this site have been placed in the public domain by the
# contributors.
#
data_7058018
loop_
_publ_author_name
'Domasevitch, Konstantin V.'
'Gospodinov, Ivan'
'Krautscheid, Harald'
'Klapoetke, Thomas M.'
'Stierstorfer, Joerg'
_publ_section_title
;
 Facile and selective polynitrations at the 4-pyrazolyl dual backbone: A
 straightforward access to a series of high-density energetic materials
;
_journal_name_full               'New Journal of Chemistry'
_journal_paper_doi               10.1039/C8NJ05266B
_journal_year                    2018
_chemical_formula_moiety         'C6 H4 N6 O4'
_chemical_formula_sum            'C6 H4 N6 O4'
_chemical_formula_weight         224.15
_chemical_name_systematic
;
3,3'-Dinitro-4,4'-bipyrazole
;
_space_group_crystal_system      monoclinic
_space_group_IT_number           15
_space_group_name_Hall           '-C 2yc'
_space_group_name_H-M_alt        'C 1 2/c 1'
_symmetry_space_group_name_Hall  '-C 2yc'
_symmetry_space_group_name_H-M   'C 1 2/c 1'
_atom_sites_solution_hydrogens   difmap
_atom_sites_solution_primary     direct
_atom_sites_solution_secondary   difmap
_audit_creation_method           SHELXL-2014/7
_audit_update_record
;
2018-04-11 deposited with the CCDC.
2018-12-06 downloaded from the CCDC.
;
_cell_angle_alpha                90
_cell_angle_beta                 118.739(10)
_cell_angle_gamma                90
_cell_formula_units_Z            4
_cell_length_a                   15.9744(9)
_cell_length_b                   6.5428(8)
_cell_length_c                   8.9414(8)
_cell_measurement_reflns_used    3236
_cell_measurement_temperature    213(2)
_cell_measurement_theta_max      28.031
_cell_measurement_theta_min      2.909
_cell_volume                     819.41(15)
_computing_cell_refinement       'IPDS Software (Stoe & Cie, 2000)'
_computing_data_collection       'IPDS Software (Stoe & Cie, 2000)'
_computing_data_reduction        'IPDS Software (Stoe & Cie, 2000)'
_computing_molecular_graphics    'Diamond 2.1e (Brandenburg, 1999)'
_computing_publication_material  'WinGX 1.70.01 (Farrugia, 1999)'
_computing_structure_refinement  'SHELXL-2014/7 (Sheldrick, 2014)'
_computing_structure_solution    'SHELXS-97 (Sheldrick, 2008)'
_diffrn_ambient_temperature      213(2)
_diffrn_measured_fraction_theta_full 0.989
_diffrn_measured_fraction_theta_max 0.990
_diffrn_measurement_device_type  'Stoe Image Plate Diffraction System'
_diffrn_measurement_method       '\f oscillation scans'
_diffrn_radiation_type           MoK\a
_diffrn_radiation_wavelength     0.71073
_diffrn_reflns_av_R_equivalents  0.0232
_diffrn_reflns_av_unetI/netI     0.0163
_diffrn_reflns_Laue_measured_fraction_full 0.989
_diffrn_reflns_Laue_measured_fraction_max 0.990
_diffrn_reflns_limit_h_max       20
_diffrn_reflns_limit_h_min       -20
_diffrn_reflns_limit_k_max       8
_diffrn_reflns_limit_k_min       -8
_diffrn_reflns_limit_l_max       11
_diffrn_reflns_limit_l_min       -11
_diffrn_reflns_number            3236
_diffrn_reflns_point_group_measured_fraction_full 0.989
_diffrn_reflns_point_group_measured_fraction_max 0.990
_diffrn_reflns_theta_full        25.242
_diffrn_reflns_theta_max         28.031
_diffrn_reflns_theta_min         2.909
_diffrn_source                   'fine-focus sealed tube'
_exptl_absorpt_coefficient_mu    0.156
_exptl_absorpt_correction_type   none
_exptl_crystal_colour            pale-yellow
_exptl_crystal_density_diffrn    1.817
_exptl_crystal_description       prism
_exptl_crystal_F_000             456
_exptl_crystal_size_max          0.260
_exptl_crystal_size_mid          0.240
_exptl_crystal_size_min          0.200
_refine_diff_density_max         0.291
_refine_diff_density_min         -0.235
_refine_diff_density_rms         0.056
_refine_ls_extinction_method     none
_refine_ls_goodness_of_fit_ref   1.045
_refine_ls_hydrogen_treatment    refall
_refine_ls_matrix_type           full
_refine_ls_number_parameters     81
_refine_ls_number_reflns         986
_refine_ls_number_restraints     0
_refine_ls_restrained_S_all      1.045
_refine_ls_R_factor_all          0.0416
_refine_ls_R_factor_gt           0.0366
_refine_ls_shift/su_max          0.000
_refine_ls_shift/su_mean         0.000
_refine_ls_structure_factor_coef Fsqd
_refine_ls_weighting_details
'w=1/[\s^2^(Fo^2^)+(0.0698P)^2^+0.0723P] where P=(Fo^2^+2Fc^2^)/3'
_refine_ls_weighting_scheme      calc
_refine_ls_wR_factor_gt          0.0944
_refine_ls_wR_factor_ref         0.0969
_reflns_Friedel_coverage         0.000
_reflns_number_gt                829
_reflns_number_total             986
_reflns_threshold_expression     'I > 2\s(I)'
_cod_data_source_file            c8nj05266b2.cif
_cod_data_source_block           2
_cod_database_code               7058018
_shelx_shelxl_version_number     2014/7
_shelx_space_group_comment
;
The symmetry employed for this shelxl refinement is uniquely defined
by the following loop, which should always be used as a source of
symmetry information in preference to the above space-group names.
They are only intended as comments.
;
_shelx_estimated_absorpt_t_min   0.961
_shelx_estimated_absorpt_t_max   0.970
_shelx_res_file
;

    ip1341.res created by SHELXL-2014/7

TITL ip1341 in C2/c
CELL  0.71073  15.9744   6.5428   8.9414   90.000  118.739   90.000
ZERR     4.00   0.0009   0.0008   0.0008    0.000    0.010    0.000
LATT   7
SYMM  - X,   Y, 1/2 - Z
SFAC  C    H    N    O
UNIT  24   16   24   16
MERG   2
EQIV $1 0.5-X, -0.5+Y, 0.5-Z
EQIV $2 -X, -1+Y, 0.5-Z
EQIV $3 X, -Y, -0.5+Z
RTAB XHY N1 H1N N2_$1
RTAB XHY N1 H1N O2_$1
RTAB XHY C1 H1 O1_$2
RTAB XHY C1 H1 O1_$3
RTAB H..O H1N N2_$1
RTAB H..O H1N O2_$1
RTAB H..O H1 O1_$2
RTAB H..O H1 O1_$3
RTAB O..O N1 N2_$1
RTAB O..O N1 O2_$1
RTAB O..O C1 O1_$2
RTAB O..O C1 O1_$3
FMAP   2
PLAN    5
SIZE     0.20   0.24   0.26
ACTA
BOND
BOND   $H
CONF
L.S.   4
TEMP   -60.00
WGHT    0.069800    0.072300
FVAR       1.32235
O1    4    0.067397    0.480682    0.435362    11.00000    0.03669    0.03711 =
         0.05909   -0.01774    0.03460   -0.00772
O2    4    0.184614    0.568133    0.392444    11.00000    0.02908    0.02547 =
         0.05072    0.00049    0.02103   -0.00722
N1    3    0.168328    0.006797    0.220159    11.00000    0.02049    0.03067 =
         0.03445   -0.00277    0.01632    0.00524
N2    3    0.192980    0.193334    0.287324    11.00000    0.01889    0.02910 =
         0.03084    0.00079    0.01493    0.00145
N3    3    0.123938    0.446937    0.382399    11.00000    0.01876    0.02352 =
         0.03089    0.00043    0.01251   -0.00100
C1    1    0.082474   -0.053997    0.196808    11.00000    0.02077    0.02458 =
         0.02944   -0.00098    0.01292    0.00277
C2    1    0.046094    0.103526    0.251630    11.00000    0.01698    0.02105 =
         0.02401    0.00149    0.01116    0.00125
C3    1    0.119048    0.251125    0.306250    11.00000    0.01650    0.02274 =
         0.02506    0.00234    0.01192    0.00093
H1N   2    0.211699   -0.058875    0.207122    11.00000    0.04171
H1    2    0.056529   -0.184142    0.150233    11.00000    0.02900
HKLF    4

REM  ip1341 in C2/c
REM R1 =  0.0366 for     829 Fo > 4sig(Fo)  and  0.0416 for all     986 data
REM     81 parameters refined using      0 restraints

END

WGHT      0.0702      0.0640

REM Highest difference peak  0.291,  deepest hole -0.235,  1-sigma level  0.056
Q1    1   0.0800  0.1876  0.2796  11.00000  0.05    0.29
Q2    1   0.0585  0.0215  0.2255  11.00000  0.05    0.25
Q3    1   0.1560  0.2281  0.3092  11.00000  0.05    0.19
Q4    1   0.0000  0.0999  0.2500  10.50000  0.05    0.18
Q5    1   0.1219 -0.0187  0.1949  11.00000  0.05    0.18
;
_shelx_res_checksum              89083
_shelx_hkl_file
;
  20   0  -3   -2.08   11.17
 -20   0   3   -0.24    7.79
 -20   0   4  256.49   11.53
  20   0  -4  272.85   11.72
 -20   0   5    2.96    7.62
  20   0  -5    0.88    7.79
  20   0  -6  149.83    8.27
 -20   0   6  148.04   11.25
 -20   0   7   -0.47   10.88
  20   0  -7    5.29    7.69
  20   0  -8    6.08   11.04
 -20   0   8    2.33    7.81
  20  -2  -4   11.02    7.81
  20   2  -4   11.36   11.07
 -20   2   4   11.52    7.88
 -20  -2   4   12.64    7.96
  20  -2  -5   25.61   10.99
 -20   2   5   16.82   11.19
  20   2  -5   34.13   10.95
 -20  -2   5   19.64    7.98
  20   2  -6   16.28    7.80
 -20  -2   6   14.53    7.85
 -20   2   6   14.36    7.88
  20  -2  -6   15.05    7.80
 -20  -2   7    6.61    8.00
  20  -2  -7    7.88    7.86
 -20   2   7    7.93    7.93
  20   2  -7    6.88    7.79
 -19  -1   1   23.23   11.29
  19   1  -1   25.66   11.32
  19  -1  -1   30.35   11.31
 -19   1   1   25.97   11.27
 -19  -1   2  337.71   11.90
  19   1  -2  348.08   11.93
 -19   1   2  337.10   11.88
  19  -1  -2  348.83    8.92
 -19  -1   3   11.03   10.99
  19   1  -3   11.14   10.96
  19  -1  -3   15.68   10.94
 -19   1   3   24.72   10.85
 -19  -1   4   28.66    6.84
  19  -1  -4   24.52    6.83
 -19   1   4   29.77    6.74
  19   1  -4   28.52    9.55
 -19   1   5   -0.25    6.66
 -19  -1   5    4.43    6.64
  19   1  -5    1.53    6.68
  19  -1  -5    4.24    9.39
  19   1  -6   71.93    9.53
  19  -1  -6   69.73    6.92
 -19  -1   6   71.74    9.54
 -19   1   6   62.01    9.51
 -19   1   7   -2.94   10.15
 -19  -1   7    0.84    7.55
  19   1  -7    7.24   10.14
  19  -1  -7    1.63    6.74
 -19   1   8   35.26   11.00
  19   1  -8   30.54    7.85
  19  -1  -8   30.28    7.88
 -19  -1   8   35.76   10.90
 -19   1   9   21.61    7.86
  19  -1  -9   20.09   11.16
 -19  -1   9   27.12    7.87
  19   1  -9   21.91    7.95
  19   3  -3    9.99    7.64
  19  -3  -3   10.12   11.01
 -19  -3   3    9.93   11.30
 -19   3   3    3.25   11.25
 -19   3   4   52.01    8.10
  19  -3  -4   63.66   11.00
  19   3  -4   55.09    7.81
 -19  -3   4   57.11   11.39
  19   3  -5  120.67    8.05
 -19   3   5  119.51    8.20
  19  -3  -5  121.50   11.23
 -19  -3   5  123.62   11.40
 -19  -3   6   12.74    7.82
  19   3  -6   11.04   10.83
  19  -3  -6    8.74   10.97
 -19   3   6   11.40   11.14
 -19  -3   7   -1.60    7.98
  19  -3  -7    4.20   10.96
  19   3  -7    5.91    7.66
 -19   3   7   -1.12   11.18
 -18   0   1    5.24   10.94
  18   0  -1   -4.76    7.96
 -18   0   2 1151.90   12.72
  18   0  -2 1178.59   12.93
 -18   0   3   -3.41    9.40
  18   0  -3   -0.09    9.56
 -18   0   4    7.70    9.27
  18   0  -4    4.30    6.65
  18   0  -5   -2.99    6.59
 -18   0   5    1.27    6.48
 -18   0   6    9.32    9.16
  18   0  -6   12.46    6.56
  18   0  -7    1.70    6.60
 -18   0   7   -1.41    6.53
  18   0  -8  329.92   10.35
 -18   0   8  303.52   10.29
  18   0  -9   10.66   10.77
 -18   0   9   -3.25    7.63
 -18   0  10  154.60    8.32
  18   0 -10  174.34   11.49
  18   2  -1    5.31   10.91
 -18  -2   1    3.67    7.81
  18  -2  -1    3.20   10.93
 -18   2   1    3.32    7.81
 -18  -2   2  332.03    8.89
  18   2  -2  339.84    8.78
 -18   2   2  334.29    8.79
  18  -2  -2  339.32    8.05
 -18   2   3   47.33    6.80
  18  -2  -3   48.88    6.75
  18   2  -3   46.07    6.77
 -18  -2   3   41.52    6.89
 -18   2   4  122.78    7.06
  18   2  -4  142.83    9.69
 -18  -2   4  134.02    9.81
  18  -2  -4  137.33    7.08
 -18  -2   5   13.20    9.39
 -18   2   5   11.59    6.61
  18   2  -5    8.17    6.61
  18  -2  -5    7.28    6.61
  18  -2  -6    3.47    6.56
 -18  -2   6    6.39    6.56
 -18   2   6   -0.88    9.35
  18   2  -6    8.59    6.48
  18  -2  -7    4.17    9.38
 -18  -2   7   -2.70    9.44
  18   2  -7    2.69    6.57
 -18   2   7    3.64    6.59
 -18   2   8   90.35    8.00
  18   2  -8   91.93    7.83
 -18  -2   8   89.45   11.11
  18  -2  -8  100.14    7.99
  18  -2  -9   25.58   10.97
  18   2  -9   19.17   10.95
 -18  -2   9   28.70   11.00
 -18   2   9   14.47   11.14
 -18  -4   3  316.54    9.06
  18   4  -3  332.41    8.93
  18  -4  -3  340.95   12.07
 -18   4   3  312.86   12.29
 -18  -4   4   10.52   11.24
 -18   4   4    8.97   11.30
  18  -4  -4    4.83   11.14
  18   4  -4    8.51   10.93
  18   4  -5   43.16   11.02
 -18   4   5   35.53    8.20
 -18  -4   5   46.05   11.25
  18  -4  -5   42.21   11.12
  18  -4  -6   75.93    8.06
 -18  -4   6   61.51    8.17
 -18   4   6   64.90   11.51
  18   4  -6   71.61   11.14
  18   4  -7  124.14    8.19
 -18   4   7  112.53    8.57
  18  -4  -7  130.50   11.50
  17  -1  -1  304.92   10.41
 -17   1   1  294.23   10.17
 -17  -1   1  299.44   10.31
  17   1  -1  298.90   10.44
  17   1  -2  102.88    9.67
 -17  -1   2   98.81    6.98
 -17   1   2   92.66    6.99
  17  -1  -2  100.54    6.94
  17  -1  -3  359.25   10.29
  17   1  -3  354.93    7.83
 -17   1   3  343.34    7.88
 -17  -1   3  363.38   10.42
  17   1  -4 1797.03   14.29
  17  -1  -4 1842.63   14.38
 -17   1   4 1757.54   14.34
 -17  -1   4 1744.95   12.40
  17  -1  -5  227.72    7.42
 -17   1   5  222.68    9.93
 -17  -1   5  212.26    7.27
  17   1  -5  238.36    9.90
 -17  -1   6  110.86    6.90
 -17   1   6  131.54    9.53
  17  -1  -6  127.97    9.56
  17   1  -6  118.80    6.94
 -17   1   7   15.82    6.48
 -17  -1   7   14.09    6.53
  17   1  -7   16.11    6.62
  17  -1  -7   11.95    6.58
 -17  -1   8   52.64    6.72
  17   1  -8   54.42    9.55
 -17   1   8   57.09    6.77
  17  -1  -8   55.32    9.44
  17   1  -9    5.95    9.54
  17  -1  -9    0.70    6.72
 -17  -1   9    7.84    9.40
 -17   1   9    0.81    9.48
 -17  -1  10  243.37    8.49
 -17   1  10  255.96    8.61
  17  -1 -10  256.30    8.71
  17   1 -10  281.50   11.67
 -17  -3   1   10.56   11.08
 -17   3   1    9.14    7.72
  17   3  -1    9.21   10.83
  17  -3  -1   10.45    7.71
 -17   3   2   25.52    9.59
  17   3  -2   29.63    9.38
  17  -3  -2   32.29    6.64
 -17  -3   2   25.97    6.85
  17  -3  -3    3.23    9.27
 -17  -3   3   14.86    9.47
  17   3  -3    4.17    9.17
 -17   3   3    0.54    6.65
 -17   3   4  243.01    7.61
  17   3  -4  237.27    9.88
  17  -3  -4  252.74   10.04
 -17  -3   4  241.61    7.59
 -17  -3   5   29.48    9.44
  17   3  -5   27.03    6.57
  17  -3  -5   30.47    6.63
 -17   3   5   29.17    6.70
  17   3  -6   35.65    6.69
 -17   3   6   45.21    6.85
  17  -3  -6   40.42    6.79
 -17  -3   6   34.34    6.83
 -17   3   7    4.05    9.58
 -17  -3   7    2.03    9.52
  17  -3  -7    4.95    6.60
  17   3  -7    4.05    6.61
  17  -3  -8    1.77   10.68
 -17  -3   8    3.59   10.99
  17   3  -8    3.68    7.65
 -17   3   8    4.36    7.75
  17   3  -9   -3.43    7.77
  17  -3  -9    4.77   10.88
 -17   3   9   -1.01   11.20
 -17  -3   9    5.05   11.11
  17   5  -4  206.06    8.76
  17  -5  -4  195.92   12.02
 -17   5   4  184.05    9.02
 -17  -5   4  191.18   11.91
  17  -5  -5    0.71    8.02
 -17   5   5    4.36   11.46
  17   5  -5   -2.66   11.21
 -16   0   1    1.53    6.59
  16   0  -1    0.18    6.74
  16   0  -2   29.84    9.40
 -16   0   2   26.57    6.58
 -16   0   3    0.27    9.14
  16   0  -3    0.53    6.52
 -16   0   4 1018.38   11.92
  16   0  -4 1013.65   11.98
 -16   0   5   -2.06    6.44
  16   0  -5    1.24    6.50
 -16   0   6  771.82    9.29
  16   0  -6  831.40    9.31
 -16   0   7   -1.97    9.15
  16   0  -7   -4.20    9.26
  16   0  -8   33.52    6.59
 -16   0   8   23.86    9.23
 -16   0   9    0.10    9.26
  16   0  -9   -3.40    9.32
  16   0 -10    9.58    7.74
 -16   0  10    9.43   10.79
  16   0 -11    3.69    7.77
 -16  -2   1   49.44    6.79
  16   2  -1   50.04    6.71
 -16   2   1   47.66    6.78
  16  -2  -1   53.91    9.34
  16  -2  -2  852.91   11.88
 -16   2   2  779.71    9.49
 -16  -2   2  786.57    9.58
  16   2  -2  812.27    9.56
 -16   2   3  279.84   10.16
  16   2  -3  280.54    7.54
 -16  -2   3  265.76   10.13
  16  -2  -3  282.68   10.16
 -16  -2   4  963.09    9.85
  16   2  -4 1009.40   10.06
  16  -2  -4 1001.01   10.25
 -16   2   4  925.08   10.02
 -16   2   5  343.34   10.30
  16   2  -5  343.10    7.71
  16  -2  -5  347.12    7.74
 -16  -2   5  342.73   10.15
 -16   2   6  913.56   10.09
 -16  -2   6  911.66    9.83
  16   2  -6  926.70    9.61
  16  -2  -6  966.80   10.09
  16  -2  -7   84.55    6.88
 -16  -2   7   77.52    6.91
 -16   2   7   85.55    9.59
  16   2  -7   83.91    6.83
  16  -2  -8  355.39    7.91
  16   2  -8  397.48   10.36
 -16   2   8  368.47   10.60
 -16  -2   8  361.91    7.94
 -16   2   9   21.52    6.90
 -16  -2   9   22.12    6.80
  16   2  -9   33.14    9.41
  16  -2  -9   27.12    9.47
 -16   2  10  131.79    8.36
 -16  -2  10  133.09    8.20
  16   2 -10  142.88   11.30
  16  -2 -10  138.36    8.35
 -16  -4   1   64.15   11.15
  16  -4  -1   64.68   10.94
 -16   4   1   58.40    8.06
  16   4  -1   65.02   10.92
  16   4  -2    3.63    6.63
 -16  -4   2    0.65    9.57
 -16   4   2    5.29    6.79
  16  -4  -2    9.80    6.58
  16  -4  -3    8.87    6.65
  16   4  -3    6.27    9.28
 -16  -4   3    7.04    6.70
 -16   4   3    6.93    9.53
  16   4  -4   42.75    9.43
 -16  -4   4   44.58    6.85
  16  -4  -4   45.09    6.86
 -16   4   4   48.62    9.63
  16  -4  -5    2.67    6.62
 -16  -4   5   -0.15    9.43
  16   4  -5    2.37    9.25
 -16   4   5    0.16    6.86
  16   4  -6   60.39    9.46
  16  -4  -6   58.55    9.54
 -16  -4   6   50.90    9.60
 -16   4   6   51.00    7.07
  16   4  -7    0.21   10.09
 -16  -4   7   -3.14    7.73
  16  -4  -7    7.47   10.04
 -16   4   7    0.36    6.84
  16   4  -8    2.48   10.83
  16  -4  -8   -1.15    7.78
 -16   4   8    0.15   11.17
 -16  -4   8    0.38    7.88
  16  -4  -9   13.62   11.16
  16   4  -9   19.89    7.80
 -16   4   9   17.34    8.06
  15   1  -1   63.44    6.91
 -15  -1   1   65.18    9.41
  15  -1  -1   67.13    9.44
 -15   1   1   68.54    9.32
  15  -1  -2  227.41    7.34
 -15  -1   2  205.41    9.82
 -15   1   2  219.13    7.36
  15   1  -2  222.37    9.70
 -15   1   3  128.19    6.90
  15   1  -3  133.11    9.49
 -15  -1   3  137.62    6.93
  15  -1  -3  131.14    9.48
  15  -1  -4  373.96    7.84
 -15  -1   4  370.59    7.84
 -15   1   4  369.39    7.79
  15   1  -4  384.09   10.16
  15  -1  -5  354.38   10.13
 -15  -1   5  335.68   10.11
  15   1  -5  330.27    7.79
 -15   1   5  319.02    7.79
  15   1  -6 3372.96   17.48
  15  -1  -6 3476.47   19.47
 -15  -1   6 3260.08   17.06
 -15   1   6 3223.15   17.68
 -15   1   7  186.39    7.30
  15  -1  -7  195.92    7.34
  15   1  -7  196.08    7.28
 -15  -1   7  200.73    7.23
  15  -1  -8   13.98    6.59
  15   1  -8   12.41    6.64
 -15  -1   8   12.97    6.53
 -15   1   8   13.44    6.55
  15  -1  -9  124.90    9.52
  15   1  -9  117.16    6.93
 -15  -1   9   99.29    6.89
 -15   1   9  106.53    6.97
 -15   1  10   18.75    6.78
 -15  -1  10   23.63    6.60
  15  -1 -10   22.04    6.76
  15   1 -10   22.88    6.83
  15  -1 -11   60.92    8.08
  15   1 -11   71.96    8.02
 -15  -1  11   63.09   11.08
 -15   1  11   63.15    8.01
  15   3  -1   12.60    9.17
  15  -3  -1    8.08    6.57
 -15   3   1    9.98    6.63
 -15  -3   1    7.93    9.39
  15  -3  -2    0.03    6.46
 -15  -3   2   -4.81    6.62
  15   3  -2    3.33    6.35
 -15   3   2    2.56    9.22
 -15  -3   3    1.25    6.51
  15  -3  -3    0.06    9.07
 -15   3   3    2.53    6.50
  15   3  -3    0.40    6.35
 -15  -3   4   46.21    6.64
 -15   3   4   45.94    6.75
  15  -3  -4   50.65    9.20
  15   3  -4   53.10    9.12
 -15   3   5  232.71    9.95
  15  -3  -5  232.06    7.41
  15   3  -5  225.95    7.39
 -15  -3   5  216.57    7.44
 -15  -3   6  434.56    8.28
  15   3  -6  434.87   10.54
  15  -3  -6  454.90   10.66
 -15   3   6  427.86    8.48
 -15   3   7  437.26    8.52
  15  -3  -7  441.63    8.48
  15   3  -7  439.93    8.21
 -15  -3   7  452.79   10.76
  15  -3  -8  335.02   10.52
 -15   3   8  330.94   10.60
 -15  -3   8  312.76    7.86
  15   3  -8  322.25    7.74
  15  -3  -9   69.39    7.08
  15   3  -9   75.24    6.97
 -15   3   9   67.34    7.19
 -15  -3   9   70.64   10.44
  15   3 -10  258.59    8.64
 -15  -3  10  248.28    8.83
  15  -3 -10  268.40   11.86
 -15   3  10  242.93    9.00
 -15  -5   1   19.89   11.24
  15  -5  -1   27.35   11.08
  15   5  -1   20.13   11.18
 -15   5   1   21.67   11.19
 -15   5   2   -2.32    7.83
  15   5  -2   -0.13    7.76
  15  -5  -2    2.21   10.90
 -15  -5   2   -1.26   11.07
 -15  -5   3   85.77    7.18
  15  -5  -3   87.37   10.48
 -15   5   3   85.99   10.07
  15   5  -3   88.30    8.06
 -15   5   4    9.44    9.75
 -15  -5   4    8.50    6.77
  15   5  -4   11.30    6.78
  15  -5  -4   12.23    9.48
  15  -5  -5    4.02    9.43
  15   5  -5    3.20    6.71
 -15  -5   5    2.49    6.74
 -15   5   5    5.21    6.85
  15   5  -6    9.01    7.72
  15  -5  -6    2.70   10.91
 -15  -5   6    7.71    7.72
 -15   5   6    9.35   11.12
 -15  -5   7   28.23   11.11
 -15   5   7   31.47   11.25
  15  -5  -7   37.03   11.00
  15   5  -7   32.59    7.86
  15  -5  -8    5.47    7.92
  15   5  -8    5.59   11.11
 -15   5   8    8.53   11.33
 -14   0   1   -0.59    9.30
  14   0  -1   -3.13    9.50
  14   0  -2 7417.06   29.84
 -14   0   2 7384.22   29.83
 -14   0   3    9.06    6.68
  14   0  -3    6.35    6.82
  14   0  -4 1285.73   12.72
 -14   0   4 1265.52   12.62
 -14   0   5    6.66    9.05
  14   0  -5    1.60    6.55
 -14   0   6 1379.52   11.46
  14   0  -6 1503.90   13.53
 -14   0   7    3.58    9.38
  14   0  -7    1.88    6.68
 -14   0   8 4199.33   22.31
  14   0  -8 4310.92   20.87
  14   0  -9    6.61    9.35
 -14   0   9   -1.42    6.61
  14   0 -10   63.34    6.94
 -14   0  10   62.79    6.86
  14   0 -11    3.25    7.66
 -14   0  11   -3.66    7.72
  14   2  -1  449.25   10.35
  14  -2  -1  452.35   10.41
 -14   2   1  425.30    7.95
 -14  -2   1  426.70    8.03
  14   2  -2  609.27   10.67
  14  -2  -2  610.19   10.87
 -14   2   2  615.35   10.88
 -14  -2   2  607.15   10.91
 -14  -2   3   -0.54    6.33
 -14   2   3    0.03    9.00
  14   2  -3    0.82    8.85
  14  -2  -3    0.06    8.95
  14   2  -4  361.31    9.98
 -14   2   4  346.21    7.74
  14  -2  -4  362.06    7.80
 -14  -2   4  349.65   10.04
  14  -2  -5  345.04    7.69
  14   2  -5  339.86    9.97
 -14  -2   5  342.39   10.10
 -14   2   5  329.42    7.78
 -14  -2   6  105.38    6.88
  14  -2  -6  108.91    9.31
  14   2  -6  107.10    9.31
 -14   2   6  104.40    9.39
  14   2  -7  341.59   10.12
 -14   2   7  323.14   10.25
  14  -2  -7  336.40   10.18
 -14  -2   7  337.79   10.09
 -14   2   8 1222.36   11.55
  14   2  -8 1239.91   11.02
  14  -2  -8 1221.45   11.34
 -14  -2   8 1216.47   10.95
 -14  -2   9   22.00    6.65
  14  -2  -9   23.72    9.35
 -14   2   9   16.00    6.75
  14   2  -9   21.85    9.35
 -14  -2  10   87.56   10.39
  14   2 -10   88.47    7.06
 -14   2  10   82.62    7.17
  14  -2 -10   89.33    7.11
  14  -2 -11    2.13    7.84
  14   2 -11    6.63    7.74
 -14   2  11   -0.34    7.90
 -14  -2  11    1.47    7.74
  14  -4  -1   47.97    6.69
 -14  -4   1   47.61    9.49
 -14   4   1   42.40    6.83
  14   4  -1   45.63    9.36
 -14   4   2  851.92   12.45
  14   4  -2  851.77   12.17
  14  -4  -2  853.77   12.34
 -14  -4   2  828.95    9.99
 -14   4   3  557.02    9.24
 -14  -4   3  585.55   11.28
  14   4  -3  572.57    8.78
  14  -4  -3  592.76   11.41
  14  -4  -4  307.42   10.33
 -14  -4   4  294.94    7.78
  14   4  -4  309.36   10.19
 -14   4   4  294.52    8.00
  14  -4  -5   44.70    9.25
 -14  -4   5   33.77    6.72
  14   4  -5   34.47    6.64
 -14   4   5   37.66    6.84
  14  -4  -6   10.47    9.19
 -14   4   6    6.81    6.73
  14   4  -6   10.60    9.18
 -14  -4   6   10.63    9.27
  14  -4  -7   48.20    6.73
  14   4  -7   51.08    6.70
 -14   4   7   46.01    9.67
 -14  -4   7   45.90    6.82
 -14  -4   8  107.54    7.31
 -14   4   8  109.01    7.36
  14   4  -8  121.19    7.10
  14  -4  -8  126.17    9.86
  14   4  -9  143.05    8.16
  14  -4  -9  137.20   11.46
 -14   4   9  121.55    8.47
 -14  -4   9  141.41    8.41
  14  -6  -1    7.10   11.31
 -14  -6   1    5.80    8.09
 -14  -6   2    8.74   11.28
  14  -6  -2    5.23   11.09
 -14   6   2    5.23    8.02
  14   6  -2    3.15    8.01
 -14   6   3   70.50   11.54
  14   6  -3   72.62    8.23
  14  -6  -3   72.80   11.37
 -14  -6   3   54.82    8.16
 -14   6   4   21.36    8.06
  14   6  -4   23.57    8.00
  14  -6  -4   19.67    7.96
 -14  -6   4   20.93    7.90
  14  -6  -5   35.78    8.07
 -14   6   5   31.11   11.46
 -14  -6   5   33.43    8.02
  14   6  -5   38.48    7.98
  14   6  -6    4.84    7.95
  14  -6  -6    2.54   11.17
 -14  -6   6    3.64   11.14
 -14   6   6    5.18   11.36
 -13   1   1 2266.22   13.96
  13   1  -1 2307.13   15.78
  13  -1  -1 2348.86   14.14
 -13  -1   1 2189.72   14.16
  13   1  -2   63.62    6.75
 -13   1   2   60.86    6.77
 -13  -1   2   61.98    6.70
  13  -1  -2   67.12    9.48
 -13   1   3 1935.49   13.17
  13   1  -3 2043.13   14.96
 -13  -1   3 1965.91   13.32
  13  -1  -3 2030.22   12.90
  13   1  -4 3903.00   18.74
  13  -1  -4 3715.14   17.92
 -13   1   4 3784.63   19.99
 -13  -1   4 3686.10   19.39
 -13  -1   5   15.26    6.50
  13  -1  -5   20.28    6.59
  13   1  -5   24.99    6.49
 -13   1   5   14.67    6.56
  13   1  -6  645.00   10.83
  13  -1  -6  630.34    8.91
 -13  -1   6  600.45    8.51
 -13   1   6  631.85   11.00
 -13  -1   7   26.31    6.45
  13  -1  -7   30.64    6.45
 -13   1   7   26.51    9.05
  13   1  -7   30.87    6.46
  13   1  -8   32.46    6.60
  13  -1  -8   37.18    6.55
 -13   1   8   38.49    9.23
 -13  -1   8   36.69    9.13
 -13  -1   9   57.54    9.36
 -13   1   9   60.67    9.38
  13  -1  -9   61.17    6.78
  13   1  -9   60.64    6.72
 -13   1  10  969.31   10.76
  13   1 -10 1036.91   12.75
  13  -1 -10 1083.00   13.11
 -13  -1  10 1021.97   12.70
 -13   1  11  101.19   11.26
  13   1 -11  109.02    8.25
 -13  -1  11  112.91    8.10
  13  -1 -11  119.41   11.34
 -13  -3   1  129.84    6.98
  13   3  -1  133.23    6.88
 -13   3   1  127.36    7.06
  13  -3  -1  136.06    9.49
 -13  -3   2 1074.91   10.80
 -13   3   2 1091.89   10.79
  13  -3  -2 1115.14   12.88
  13   3  -2 1082.82   12.71
 -13   3   3  183.91    7.34
 -13  -3   3  196.33    7.22
  13  -3  -3  193.96    7.21
  13   3  -3  194.16    9.57
  13   3  -4  254.97    7.30
  13  -3  -4  258.05    7.50
 -13  -3   4  259.71    9.80
 -13   3   4  266.24    9.92
 -13   3   5  373.94    8.16
  13  -3  -5  385.15    7.96
 -13  -3   5  396.31    8.01
  13   3  -5  378.92    7.90
 -13  -3   6   54.49    6.62
  13  -3  -6   57.97    9.20
 -13   3   6   61.68    6.71
  13   3  -6   60.55    6.62
 -13   3   7  113.97    7.06
  13   3  -7  111.78    6.86
  13  -3  -7  119.09    9.53
 -13  -3   7  113.27    6.91
 -13   3   8    7.06    9.42
 -13  -3   8   14.19    9.33
  13   3  -8    5.32    9.25
  13  -3  -8    4.87    6.57
  13  -3  -9  604.03    9.46
 -13  -3   9  583.49   11.29
 -13   3   9  561.56    9.45
  13   3  -9  600.23   11.29
 -13  -3  10  390.83   12.23
  13  -3 -10  431.50   12.34
  13   3 -10  423.80    9.35
 -13   3  10  402.61    9.52
 -13   5   1  582.72    9.83
  13   5  -1  603.86    9.62
 -13  -5   1  566.32    9.44
  13  -5  -1  591.44    9.58
 -13   5   2  167.87   10.22
  13   5  -2  170.94   10.09
  13  -5  -2  165.72   10.12
 -13  -5   2  165.04   10.11
 -13   5   3  317.95   10.98
  13  -5  -3  344.21   10.73
  13   5  -3  339.44    8.23
 -13  -5   3  347.24   10.63
  13  -5  -4   21.99    9.34
 -13  -5   4   18.49    6.69
  13   5  -4   23.43    6.68
 -13   5   4   22.51    9.62
  13   5  -5  469.44   11.07
 -13   5   5  430.70   11.59
 -13  -5   5  448.38   10.92
  13  -5  -5  446.19   11.40
 -13   5   6   35.50    7.05
 -13  -5   6   39.94    6.88
  13  -5  -6   44.91    9.52
  13   5  -6   41.45    6.83
  13   5  -7   74.96    6.97
 -13   5   7   69.60   10.01
  13  -5  -7   75.22    7.10
 -13  -5   7   67.55    9.77
 -13   5   8   77.49    8.34
  13   5  -8   92.06   11.25
  13  -5  -8   98.50   11.29
 -13  -5   8   90.17   11.31
 -13   5   9   24.53    8.29
  13   5  -9   33.27    7.96
  12   0  -1   -2.01    6.47
 -12   0   1   -3.85    9.03
  12   0  -2  205.06    7.20
 -12   0   2  201.84    7.24
 -12   0   3    2.64    9.04
  12   0  -3    9.87    6.35
 -12   0   4 2467.84   14.69
  12   0  -4 2585.93   14.60
  12   0  -5    3.93    6.34
 -12   0   5    1.10    6.36
  12   0  -6   88.92    9.15
 -12   0   6   86.35    6.56
 -12   0   7    6.03    8.82
  12   0  -7   -2.42    8.96
  12   0  -8   22.16    8.96
 -12   0   8   19.79    8.92
  12   0  -9   -2.00    6.42
 -12   0   9   -0.56    6.37
  12   0 -10   77.30    9.44
 -12   0  10   70.41    6.85
  12   0 -11   -1.82    7.66
 -12   0  11    0.52    7.59
  12   2  -1    3.99    6.39
  12  -2  -1    3.66    6.37
 -12   2   1    3.87    6.34
 -12  -2   1    8.04    8.99
  12  -2  -2  537.10    8.57
 -12   2   2  530.19    8.61
 -12  -2   2  551.91    8.50
  12   2  -2  529.00    8.45
 -12   2   3  560.81    8.71
  12  -2  -3  599.32   10.89
  12   2  -3  568.46    8.47
 -12  -2   3  582.44   10.79
  12  -2  -4  626.35   11.08
 -12   2   4  631.36   10.96
 -12  -2   4  603.10    8.84
  12   2  -4  627.01    8.80
  12   2  -5  905.53    9.79
  12  -2  -5  829.16    9.90
 -12  -2   5  871.23    9.48
 -12   2   5  892.39   11.86
  12  -2  -6 1843.73   13.82
  12   2  -6 1915.96   14.53
 -12   2   6 1870.91   15.34
 -12  -2   6 1754.58   12.81
  12  -2  -7  257.58    7.61
 -12   2   7  256.64   10.16
  12   2  -7  259.17    7.50
 -12  -2   7  241.02    7.49
  12   2  -8 1706.58   14.36
 -12  -2   8 1585.63   12.30
  12  -2  -8 1608.02   12.80
 -12   2   8 1649.60   15.28
 -12  -2   9   35.83    9.38
  12   2  -9   40.08    6.75
  12  -2  -9   50.11    9.41
 -12   2   9   43.89    9.52
 -12   2  10  144.27    7.30
 -12  -2  10  145.85    7.14
  12  -2 -10  147.27    7.33
  12   2 -10  153.70    9.79
 -12   2  11   30.70   11.26
  12  -2 -11   35.35    8.05
  12   2 -11   33.66    7.87
 -12  -2  11   35.59   10.97
 -12   4   1  104.78    6.96
 -12  -4   1  114.41    9.60
  12  -4  -1  111.37    6.88
  12   4  -1  110.71    9.37
 -12   4   2   35.74    9.34
 -12  -4   2   35.80    9.26
  12   4  -2   39.81    6.61
  12  -4  -2   41.11    9.19
  12  -4  -3  539.67    9.15
  12   4  -3  572.66   11.14
 -12  -4   3  551.33    8.97
 -12   4   3  542.72    9.23
 -12   4   4 1686.03   14.30
  12   4  -4 1742.27   13.48
 -12  -4   4 1718.58   13.58
  12  -4  -4 1742.23   16.29
  12  -4  -5 1491.65   13.57
  12   4  -5 1487.27   12.78
 -12   4   5 1484.20   13.64
 -12  -4   5 1545.39   14.68
 -12   4   6  288.66    8.11
  12   4  -6  375.53    8.07
  12  -4  -6  365.59    8.30
 -12  -4   6  375.07    8.18
 -12  -4   7   46.58    9.39
  12   4  -7   42.41    9.26
  12  -4  -7   38.86    9.32
 -12   4   7   39.29    9.52
  12   4  -8   87.52    9.48
  12  -4  -8   85.55    6.95
 -12  -4   8   86.67    6.97
 -12   4   8   84.47    9.80
  12  -4  -9   10.20    6.67
  12   4  -9   10.08    6.73
 -12  -4   9   11.48   10.24
 -12   4   9    7.26    6.83
 -12  -4  10  259.13   12.02
  12   4 -10  281.12   11.90
 -12   4  10  253.89    9.06
  12  -6  -1  137.63   10.98
 -12  -6   1  134.88    7.62
 -12   6   1  129.64    7.75
  12   6  -1  143.47    8.56
  12   6  -2    2.30    6.87
  12  -6  -2    4.17    6.71
 -12  -6   2    7.73    9.60
 -12   6   2    8.09    9.66
 -12   6   3    0.43    6.81
 -12  -6   3   -0.02    9.54
  12   6  -3   -1.65    9.54
  12  -6  -3   -0.32    9.42
 -12  -6   4  371.78    8.90
 -12   6   4  359.20   12.05
  12  -6  -4  365.42    9.56
  12   6  -4  418.61   11.45
 -12  -6   5   -2.36    9.56
  12   6  -5    0.78    6.82
  12  -6  -5    0.14    9.64
 -12   6   5    1.68    9.74
 -12   6   6  119.62   11.83
  12  -6  -6  121.84    8.62
 -12  -6   6  124.19   11.42
  12   6  -6  130.79   11.50
  12  -6  -7  676.60   16.89
 -12  -6   7  671.46   14.15
 -12   6   7  639.64   16.50
  12   6  -7  688.29   11.73
 -11  -1   1   32.44    9.07
  11  -1  -1   28.30    9.14
  11   1  -1   30.94    9.19
 -11   1   1   31.90    6.46
 -11   1   2  933.02    9.96
 -11  -1   2  952.62   11.78
  11  -1  -2  959.27   11.90
  11   1  -2  959.19   11.74
 -11   1   3 1473.62   11.72
 -11  -1   3 1453.00   13.28
  11  -1  -3 1446.10   11.73
  11   1  -3 1486.87   11.72
  11  -1  -4  128.72    6.79
 -11   1   4  128.49    6.88
 -11  -1   4  130.14    9.28
  11   1  -4  137.45    6.85
  11  -1  -5  694.12    9.13
  11   1  -5  692.06    8.86
 -11   1   5  651.63    8.97
 -11  -1   5  664.95    8.85
 -11  -1   6 1258.06   12.69
  11  -1  -6 1248.28   11.13
  11   1  -6 1283.98   10.99
 -11   1   6 1218.75   11.20
 -11  -1   7    5.23    6.28
  11   1  -7    8.84    6.31
  11  -1  -7    8.69    6.33
 -11   1   7    2.91    6.33
 -11   1   8   36.67    9.03
 -11  -1   8   37.81    9.00
  11  -1  -8   32.96    9.11
  11   1  -8   36.08    6.50
 -11  -1   9   28.68    6.52
  11  -1  -9   33.74    6.55
 -11   1   9   29.66    6.58
  11   1  -9   30.47    6.52
 -11   1  10  355.70    8.13
 -11  -1  10  362.17   10.44
  11  -1 -10  391.58   10.63
  11   1 -10  341.21    7.97
 -11   1  11   17.86    7.76
 -11  -1  11   22.40   10.76
 -11   3   1 2047.87   15.02
  11  -3  -1 2166.65   16.74
  11   3  -1 2091.74   14.91
 -11  -3   1 2070.74   16.29
 -11  -3   2  222.52    9.75
  11  -3  -2  228.77    9.80
 -11   3   2  210.60    7.33
  11   3  -2  225.61    7.19
  11   3  -3   25.62    8.96
 -11   3   3   17.78    6.59
 -11  -3   3   18.23    9.12
  11  -3  -3   23.85    6.42
  11   3  -4   42.74    9.21
 -11   3   4   36.35    9.17
  11  -3  -4   38.38    9.05
 -11  -3   4   36.49    9.14
  11  -3  -5 1177.35   13.44
  11   3  -5 1144.19   12.75
 -11   3   5 1129.72   13.30
 -11  -3   5 1115.72   10.98
  11   3  -6  699.73    9.43
 -11   3   6  681.25    9.89
  11  -3  -6  693.65    9.65
 -11  -3   6  723.15   11.69
  11  -3  -7 2556.00   19.00
 -11   3   7 2606.09   19.29
 -11  -3   7 2494.13   16.15
  11   3  -7 2552.42   15.84
 -11  -3   8   45.57    6.73
  11   3  -8   44.44    6.69
  11  -3  -8   40.18    6.71
 -11   3   8   43.49    9.54
 -11   3   9    3.06    6.60
 -11  -3   9    3.10    9.25
  11   3  -9   -0.23    6.52
  11  -3  -9    2.67    9.17
 -11   3  10   15.62    6.83
 -11  -3  10   15.91    7.65
  11   3 -10   21.31   10.13
  11  -3 -10   18.08    6.80
 -11   3  11   67.10   11.43
  11   5  -1  476.66    9.17
  11  -5  -1  486.66   11.56
 -11  -5   1  477.02    9.19
 -11   5   1  451.19    9.23
  11   5  -2 1394.96   15.43
 -11   5   2 1289.73   13.77
 -11  -5   2 1397.61   15.30
  11  -5  -2 1403.02   15.86
  11  -5  -3  590.01   12.08
  11   5  -3  568.72    9.53
 -11   5   3  489.81    9.75
 -11  -5   3  585.38   11.67
  11  -5  -4  293.89   10.70
  11   5  -4  292.64   10.47
 -11  -5   4  273.54    7.83
 -11   5   4  271.08   10.83
 -11   5   5  122.45    7.55
  11  -5  -5  133.12    7.34
  11   5  -5  144.72    9.84
 -11  -5   5  137.25    7.17
  11   5  -6 1332.39   12.83
 -11  -5   6 1335.67   14.73
 -11   5   6 1294.02   16.46
  11  -5  -6 1359.09   16.98
  11   5  -7   89.99    7.14
 -11   5   7   58.54    7.22
  11  -5  -7   86.90    7.18
 -11  -5   7   81.55    7.12
  11   5  -8  600.28   11.86
 -11   5   8  521.72   10.37
  11  -5  -8  586.75   12.71
 -11  -5   8  554.08   11.83
 -11  -5   9  267.17    8.96
  11   5  -9  310.20    9.14
 -11   5   9  291.41   12.75
  11  -7  -1   35.33   11.22
 -11  -7   1   35.28   11.43
  11   7  -1   35.54   11.46
  11  -7  -2   30.71   11.37
 -11   7   2   23.86   13.51
  11   7  -2   24.01    8.08
 -11  -7   2   22.61   11.34
 -11   7   3  245.84   15.57
  11  -7  -3  261.11   13.69
  11   7  -3  288.13   12.78
 -11  -7   3  265.56   12.75
  11   7  -4  129.49   11.85
 -11  -7   4  121.34   11.93
  11  -7  -4  119.10   14.98
 -11   7   4  107.35   14.47
 -11   7   5   48.14   15.89
 -11  -7   5   57.11   11.63
  11   7  -5   60.57    8.32
 -10   0   1   -0.43    6.38
  10   0  -1   -0.44    6.44
 -10   0   2  421.99    8.09
  10   0  -2  427.16    8.06
 -10   0   3    1.62    6.32
  10   0  -3   -0.92    9.05
  10   0  -4 3328.75   18.37
 -10   0   4 3208.92   17.00
  10   0  -5    2.78    6.27
 -10   0   5   -1.62    6.23
 -10   0   6   91.59    6.58
  10   0  -6   95.16    6.66
 -10   0   7   -3.56    8.82
  10   0  -7   -0.01    6.27
 -10   0   8   24.86    8.87
  10   0  -8   21.74    6.32
 -10   0   9    1.51    8.95
  10   0  -9    0.80    6.40
  10   0 -10  308.81   10.33
 -10   0  10  289.67    7.68
 -10   0  11   -3.25   10.75
  10  -2  -1  673.93    9.13
  10   2  -1  679.56    9.08
 -10   2   1  682.53   11.21
 -10  -2   1  685.03   11.30
 -10   2   2  789.36    9.82
 -10  -2   2  835.78   11.67
  10  -2  -2  830.06    9.86
  10   2  -2  863.81   11.77
 -10   2   3 3130.45   19.14
  10   2  -3 3256.36   17.71
  10  -2  -3 3196.18   17.99
 -10  -2   3 3064.87   17.01
  10  -2  -4   76.94    9.20
 -10  -2   4   74.71    6.64
  10   2  -4   88.35    9.14
 -10   2   4   77.98    6.66
  10  -2  -5   -1.04    8.95
  10   2  -5    1.12    6.26
 -10   2   5    1.31    6.34
 -10  -2   5    0.70    6.27
 -10  -2   6  138.72    9.35
  10   2  -6  143.07    6.92
 -10   2   6  129.22    7.04
  10  -2  -6  145.42    7.06
 -10   2   7   46.56    6.57
 -10  -2   7   42.62    9.03
  10   2  -7   42.32    9.17
  10  -2  -7   38.67    9.17
 -10   2   8  488.58    8.79
  10   2  -8  506.88    8.44
  10  -2  -8  512.29    8.75
 -10  -2   8  501.76   10.69
  10   2  -9  746.40    9.43
 -10   2   9  766.17   12.15
 -10  -2   9  721.86   11.70
  10  -2  -9  783.02   12.25
 -10  -2  10  387.99    8.13
 -10   2  10  395.54    8.55
  10   2 -10  431.62   10.75
 -10   2  11   48.71    8.13
 -10  -2  11   52.49   11.08
 -10   4   1 1394.96   13.27
  10  -4  -1 1443.16   13.05
 -10  -4   1 1434.67   12.78
  10   4  -1 1467.39   14.84
  10   4  -2  866.15   10.47
 -10  -4   2  861.89   10.43
 -10   4   2  860.33   12.90
  10  -4  -2  879.41   12.79
 -10   4   3 3141.14   21.95
  10  -4  -3 3139.80   22.27
 -10  -4   3 3086.75   19.09
  10   4  -3 3204.67   21.16
  10  -4  -4 2046.15   17.97
 -10   4   4 1836.04   15.87
  10   4  -4 1951.96   14.52
 -10  -4   4 1989.80   14.83
 -10  -4   5  194.78    9.81
  10  -4  -5  188.04    9.96
 -10   4   5  178.21   10.13
  10   4  -5  196.73    9.89
  10   4  -6  121.02    9.52
  10  -4  -6  109.10    7.07
 -10   4   6  103.72    9.84
 -10  -4   6  109.42    6.92
 -10  -4   7  175.68    9.84
  10   4  -7  176.26    7.24
  10  -4  -7  181.08    9.84
 -10   4   7  172.40   10.05
 -10  -4   8  383.44   10.60
  10  -4  -8  366.06    8.58
  10   4  -8  372.80    8.16
 -10   4   8  372.36   11.08
 -10  -4   9  130.54    9.91
 -10   4   9  133.97   10.14
  10   4  -9  127.77    7.31
 -10   4  10   95.07    8.44
 -10  -4  10  102.65    8.20
  10   6  -1   31.66    9.63
 -10   6   1   29.53    9.73
 -10  -6   1   29.96    9.65
  10  -6  -1   30.27    9.52
  10  -6  -2   -0.29    9.30
 -10   6   2    2.25    9.49
  10   6  -2   -0.70    9.43
 -10  -6   2   -0.13    9.37
  10  -6  -3  189.95   10.54
 -10  -6   3  188.10   10.33
  10   6  -3  193.30   10.34
 -10   6   3  169.49   10.78
  10  -6  -4   24.28    9.49
  10   6  -4   24.92    9.48
 -10  -6   4   29.87    9.39
 -10   6   4   22.64    9.70
  10   6  -5  227.53    8.03
  10  -6  -5  226.89   11.17
 -10  -6   5  219.88    7.80
 -10   6   5  210.49   11.29
 -10   6   6   60.97   10.10
  10   6  -6   75.42    9.82
 -10  -6   6   58.92    7.01
  10  -6  -6   68.31    9.94
 -10   6   7  142.76   12.06
  10   6  -7  155.88   11.59
 -10  -6   7  148.87   11.41
 -10   6   8   61.09   11.72
 -10  -6   8   67.62   11.40
  -9   1   1  455.95   10.56
   9   1  -1  472.71   10.62
   9  -1  -1  466.69   10.72
  -9  -1   1  469.04   10.62
  -9   1   2 1074.14   10.85
  -9  -1   2 1076.84   12.45
   9  -1  -2 1094.91   12.67
   9   1  -2 1099.97   12.53
   9   1  -3  534.23    8.67
   9  -1  -3  524.24   10.92
  -9   1   3  501.73    8.65
  -9  -1   3  514.91    8.61
  -9  -1   4 2217.48   15.82
   9   1  -4 2319.33   16.17
   9  -1  -4 2324.95   15.07
  -9   1   4 2282.92   15.14
   9  -1  -5 3615.56   20.52
   9   1  -5 3592.11   18.19
  -9  -1   5 3588.09   19.39
  -9   1   5 3566.34   20.62
  -9   1   6  239.10    9.84
  -9  -1   6  241.98    7.29
   9   1  -6  255.51    9.69
   9  -1  -6  247.50    9.89
   9   1  -7  846.41    9.60
  -9   1   7  809.61    9.72
  -9  -1   7  798.03    9.49
   9  -1  -7  828.83    9.65
  -9   1   8  341.43    7.80
   9   1  -8  337.33    7.60
   9  -1  -8  354.17    7.81
  -9  -1   8  334.83    9.93
   9   1  -9  318.94    7.71
   9  -1  -9  322.96    7.85
  -9  -1   9  322.25    7.59
  -9   1   9  316.70    7.81
  -9   1  10   80.20    6.85
  -9  -1  10   72.62    6.75
  -9   1  11  289.38   11.92
  -9  -1  11  319.66   11.73
  -9  -3   1    4.35    8.89
   9  -3  -1    1.20    8.89
  -9   3   1    2.38    8.89
   9   3  -1    2.49    8.84
  -9   3   2   14.03    8.92
  -9  -3   2    8.43    8.92
   9   3  -2    7.75    6.31
   9  -3  -2    8.02    6.31
   9  -3  -3 1250.54   13.87
   9   3  -3 1251.21   11.55
  -9  -3   3 1279.23   11.83
  -9   3   3 1227.31   12.33
   9  -3  -4   16.44    9.23
  -9   3   4   15.73    9.20
   9   3  -4   18.18    6.55
  -9  -3   4   13.73    6.58
   9  -3  -5 3944.96   23.91
   9   3  -5 4126.08   22.56
  -9   3   5 3797.05   22.39
  -9  -3   5 3849.27   20.66
  -9  -3   6 1367.12   13.87
   9   3  -6 1325.17   11.84
   9  -3  -6 1340.04   14.77
  -9   3   6 1294.03   12.74
  -9   3   7   55.42    9.50
  -9  -3   7   67.46    6.72
   9  -3  -7   63.24    9.37
   9   3  -7   56.22    6.71
  -9  -3   8   27.88    6.54
   9   3  -8   28.49    6.53
  -9   3   8   25.24    6.76
   9  -3  -8   26.11    6.57
  -9   3   9  412.61   11.06
  -9  -3   9  422.05   10.74
   9   3  -9  432.99   10.80
  -9  -3  10   59.15    9.58
  -9   3  10   60.27    7.06
  -9  -3  11   -2.41    7.89
  -9   3  11    6.62    7.91
  -9   3  11    6.13    7.96
   9   5  -1  828.10   13.19
  -9   5   1  733.25   11.22
   9  -5  -1  809.88   13.21
  -9  -5   1  789.64   10.91
  -9   5   2  208.83   10.51
  -9  -5   2  209.86    7.61
   9   5  -2  222.91   10.27
   9  -5  -2  209.69   10.21
  -9   5   3   49.99    6.94
   9  -5  -3   59.64    6.85
   9   5  -3   59.29    9.41
  -9  -5   3   53.96    9.32
  -9   5   4  151.35   10.30
   9   5  -4  155.13    7.42
  -9  -5   4  159.08    9.76
   9  -5  -4  153.47   10.03
   9   5  -5 1062.15   11.71
  -9   5   5  959.93   12.99
  -9  -5   5 1067.87   13.62
   9  -5  -5 1053.22   15.57
   9   5  -6    5.94    9.25
   9  -5  -6    4.09    6.47
  -9   5   6    6.10    6.61
  -9  -5   6    7.93    6.46
  -9  -5   7    0.46    6.53
   9   5  -7    0.44    6.58
   9  -5  -7   -1.02    6.47
  -9   5   7   -0.15    6.72
  -9  -5   8   73.29    7.07
  -9   5   8   74.92    9.97
  -9  -5   9   66.28    8.11
  -9   5   9   69.24    8.22
  -9   5   9   69.05    8.38
  -9  -7   1   17.44   11.07
   9  -7  -1   20.29   12.96
   9   7  -1   21.58   11.14
   9   7  -2  117.22   10.48
   9  -7  -2  104.78   13.08
  -9  -7   2  104.89   10.36
  -9  -7   3   26.20    9.81
   9   7  -3   29.64    9.80
  -9  -7   4   58.98   11.37
   9   7  -4   66.80   11.26
  -9  -7   5  339.96   12.84
  -9  -7   6    2.00    7.90
  -8   0   1    2.35    9.61
   8   0  -1    5.37    6.77
   8   0  -2 1631.82   13.26
  -8   0   2 1632.71   14.70
   8   0  -3    0.24    9.45
  -8   0   3   -2.49    6.66
   8   0  -4 2262.60   15.04
  -8   0   4 2202.80   16.20
  -8   0   5    1.61    6.46
   8   0  -5    5.05    9.10
  -8   0   6 5531.83   24.56
   8   0  -6 5730.82   25.78
   8   0  -7    3.09    6.29
  -8   0   7   -1.60    8.94
  -8   0   8    4.27    6.31
   8   0  -8    7.96    6.29
   8   0  -9   -0.86    6.40
  -8   0   9    2.01    6.26
  -8   0  10  146.29    7.10
  -8   0  11    0.40    7.65
   8  -2  -1 2500.67   16.51
  -8  -2   1 2535.16   16.42
   8   2  -1 2557.76   16.64
  -8   2   1 2517.59   16.68
  -8   2   2   19.94    9.16
  -8  -2   2   18.77    6.57
   8  -2  -2   17.29    6.65
   8   2  -2   16.09    6.67
   8  -2  -3  102.85    9.49
   8   2  -3  104.57    9.44
  -8   2   3  102.65    9.40
  -8  -2   3  106.47    9.40
   8  -2  -4   89.57    9.36
   8   2  -4   94.06    6.80
  -8   2   4   85.91    9.27
  -8  -2   4   89.47    9.23
  -8  -2   5  501.70    8.43
   8   2  -5  485.91    8.46
   8  -2  -5  496.76   10.86
  -8   2   5  464.71    8.70
  -8   2   6  223.91    7.54
  -8  -2   6  212.72    7.36
   8  -2  -6  229.11    7.51
   8   2  -6  228.32    7.33
   8   2  -7 2034.26   13.78
  -8  -2   7 2031.29   15.31
  -8   2   7 2069.97   16.81
   8  -2  -7 2065.51   15.15
  -8   2   8  546.77   11.19
   8   2  -8  529.00    8.55
   8  -2  -8  542.98    9.01
  -8  -2   8  534.58   10.89
  -8   2   9   64.49    6.83
  -8  -2   9   63.47    6.70
  -8   2  10    7.10    6.70
  -8  -2  10    6.80    9.21
  -8   2  11   43.00    8.10
  -8   2  11   44.64   11.31
  -8  -2  11   48.94   11.00
   8   4  -1   17.17    6.42
  -8  -4   1   17.79    6.41
  -8   4   1   17.86    8.98
   8  -4  -1   20.40    9.01
  -8  -4   2   34.20    6.50
   8   4  -2   33.29    9.21
  -8   4   2   35.17    9.11
   8  -4  -2   34.83    6.53
   8  -4  -3  779.63   11.02
  -8   4   3  742.77   10.87
   8   4  -3  800.98   10.35
  -8  -4   3  804.87   12.24
   8   4  -4   67.98    6.79
  -8   4   4   64.79    6.96
   8  -4  -4   65.56    9.40
  -8  -4   4   63.30    6.69
  -8  -4   5   63.58    6.76
   8   4  -5   64.15    9.37
  -8   4   5   63.51    6.89
   8  -4  -5   66.84    6.77
  -8  -4   6  533.80    8.82
   8   4  -6  555.73   11.21
   8  -4  -6  545.32   11.74
  -8   4   6  494.84    9.59
   8  -4  -7 1532.36   17.02
  -8  -4   7 1526.94   15.03
   8   4  -7 1539.14   15.07
  -8   4   7 1390.28   14.25
  -8   4   8    7.19    6.71
  -8  -4   8    9.73    6.55
  -8   4   9  132.07   10.06
  -8  -4   9  133.57    9.76
  -8   4  10   76.62   11.37
  -8   4  10   68.63   11.34
  -8  -4  10   74.17   11.17
  -8   6   1  145.42   10.49
   8   6  -1  164.17   10.37
   8  -6  -1  149.62   10.43
  -8  -6   1  155.90   10.37
  -8  -6   2  261.98   10.86
   8  -6  -2  253.77   11.37
   8   6  -2  265.68   10.92
  -8   6   2  245.83   13.52
   8   6  -3    8.22    6.54
  -8   6   3    7.41   11.61
  -8  -6   3    8.25    9.22
   8  -6  -3    7.97   11.16
  -8   6   4  107.75   12.76
  -8  -6   4  115.04    7.18
   8  -6  -4  116.48   12.26
   8   6  -4  123.88    9.83
   8   6  -5    4.58    9.32
  -8  -6   5    2.10    9.20
  -8   6   5    3.76   11.58
  -8   6   6   22.51   11.82
  -8   6   6   28.45   11.56
  -8  -6   6   25.52    9.30
  -8  -6   7  395.83   11.26
  -8   6   7  287.89   12.26
  -8   6   7  411.21   15.02
  -8  -6   8   35.06   11.15
  -8   6   8   27.75   11.50
  -8   6   8   31.55   11.30
  -7   1   1  455.65   11.26
  -7  -1   1  481.30    9.06
   7  -1  -1  483.48   11.46
   7   1  -1  480.76   11.30
  -7  -1   2 6952.70   31.79
   7  -1  -2 6959.32   31.57
  -7   1   2 6831.62   31.35
   7   1  -2 6874.60   31.35
   7  -1  -3 1345.66   13.65
   7   1  -3 1321.68   14.95
  -7   1   3 1323.83   13.44
  -7  -1   3 1296.96   12.99
  -7   1   4  279.54   10.28
   7  -1  -4  286.46    7.99
   7   1  -4  271.71    7.84
  -7  -1   4  282.36    7.78
  -7   1   5  116.33    7.04
  -7  -1   5  121.14    9.42
   7   1  -5  124.39    6.85
   7  -1  -5  125.90    7.06
  -7  -1   6  327.39    7.71
   7  -1  -6  333.38    7.82
  -7   1   6  323.13    7.79
   7   1  -6  328.87    7.62
  -7   1   7   -2.06    8.93
   7   1  -7   -0.29    8.87
   7  -1  -7   -1.22    8.99
  -7  -1   7   -1.53    6.24
  -7  -1   8  578.46   10.77
   7   1  -8  600.86   10.98
  -7   1   8  584.45   11.03
   7  -1  -8  589.45    9.06
  -7  -1   9   35.69    9.10
  -7   1   9   41.76    9.14
  -7   1  10   51.59    9.41
  -7  -1  10   49.58    9.35
  -7  -1  11    9.10   10.89
  -7   1  11    7.02   10.99
  -7  -1  11   12.91   10.97
  -7   1  11   12.56   11.16
  -7  -3   1  334.53   10.45
   7  -3  -1  335.81    8.32
  -7   3   1  311.66   10.36
   7   3  -1  334.27    8.08
  -7   3   2  210.19    7.72
  -7  -3   2  221.31    7.61
   7   3  -2  227.55    7.57
   7  -3  -2  222.01    7.72
   7  -3  -3  882.12   13.16
   7   3  -3  866.57   12.34
  -7   3   3  838.20   12.94
  -7  -3   3  849.57   10.35
  -7  -3   4    3.19    6.39
   7  -3  -4    2.50    8.94
   7   3  -4    2.35    6.38
  -7   3   4    2.37    8.89
   7  -3  -5  127.64    9.58
   7   3  -5  126.61    9.42
  -7  -3   5  126.72    9.39
  -7   3   5  121.07    9.58
  -7   3   6   22.89    9.17
   7  -3  -6   24.15    6.52
  -7  -3   6   27.20    6.43
   7   3  -6   26.57    9.07
   7   3  -7   94.17    6.76
  -7   3   7  101.52    6.98
   7  -3  -7   97.66    6.90
  -7  -3   7   95.58    6.82
  -7   3   8  621.42    9.85
  -7  -3   8  673.86   11.45
  -7   3   9  584.36   11.92
  -7  -3   9  576.49   11.23
  -7   3  10    9.02    6.85
  -7  -3  10   10.92    6.69
  -7   3  10   12.11    6.91
  -7  -5   1   -2.04    9.17
   7   5  -1    0.96    9.10
  -7   5   1    1.26    9.18
   7  -5  -1    0.49    6.36
   7  -5  -2   11.04    9.01
  -7  -5   2   11.35    9.03
   7   5  -2   12.40    9.13
  -7   5   2   10.26    9.28
   7  -5  -3  658.99   13.71
  -7   5   3  645.47   15.59
  -7  -5   3  691.12   12.29
   7   5  -3  716.79   10.57
   7  -5  -4    4.49    8.92
  -7   5   4    4.63    9.29
  -7  -5   4    8.29    8.90
   7   5  -4    5.35    9.09
  -7  -5   5  226.53    9.93
  -7   5   5  205.96   10.69
   7   5  -5  234.77    7.62
   7  -5  -5  231.24   12.32
   7   5  -6   66.24    9.41
  -7  -5   6   61.94    9.26
  -7   5   6   57.53    9.57
  -7  -5   7   19.65    6.59
  -7   5   7   17.40    9.48
  -7   5   8   -2.78    9.50
  -7  -5   8    1.49    9.36
  -7   5   8   -1.41    9.37
  -7   5   9  503.45   13.95
  -7  -5   9  517.97   10.34
  -7  -5   9  501.44   12.81
  -7   5   9  512.16   13.75
   7   7  -1    1.12   13.37
  -7  -7   1    0.67   11.53
  -7  -7   2   44.30   11.87
  -7  -7   3    8.46    9.57
  -7  -7   4  100.68   10.24
  -7  -7   5   27.54    7.81
  -7  -7   6   75.53   11.51
  -7  -7   6   71.28   11.34
   6   0  -1    3.00    7.07
  -6   0   1    0.10    7.00
  -6   0   2 2136.57   16.62
   6   0  -2 2134.21   18.08
   6   0  -3   -0.91    6.98
  -6   0   3    0.59    9.61
  -6   0   4 1598.56   13.48
   6   0  -4 1626.15   15.04
  -6   0   5    1.36    9.15
   6   0  -5   -1.26    6.57
  -6   0   6 1390.53   13.46
   6   0  -6 1414.15   11.85
  -6   0   7   -1.42    6.32
   6   0  -7   -0.50    6.37
  -6   0   8 1248.27   11.42
  -6   0   9    1.19    8.97
  -6   0  10   21.53    6.73
  -6   0  10   22.75    6.67
  -6   0  11   -0.64   10.90
  -6   0  11   -1.85   11.05
  -6  -2   1 7858.46   37.44
  -6   2   1 7953.87   38.19
   6  -2  -1 7952.95   37.25
   6   2  -1 7998.11   38.19
   6   2  -2 2152.21   16.44
  -6   2   2 2085.09   18.46
  -6  -2   2 2163.35   17.88
   6  -2  -2 2084.79   17.15
  -6  -2   3  733.20   12.19
   6  -2  -3  723.83   10.82
   6   2  -3  718.87   12.16
  -6   2   3  713.29   12.48
  -6   2   4  366.12    8.54
   6  -2  -4  394.44    8.80
   6   2  -4  391.82    8.32
  -6  -2   4  397.92   10.52
  -6   2   5   81.06    6.80
  -6  -2   5   76.70    6.72
   6  -2  -5   81.01    6.84
   6   2  -5   83.41    6.68
  -6   2   6  260.20    7.61
   6   2  -6  258.92    7.41
   6  -2  -6  275.32   10.01
  -6  -2   6  253.39    7.41
  -6  -2   7    0.26    6.28
  -6   2   7    0.49    6.37
   6  -2  -7    1.93    9.13
   6   2  -7    5.68    8.83
  -6   2   8  218.20    7.48
  -6  -2   8  206.58    7.16
  -6   2   9   37.32    9.41
  -6  -2   9   40.50    6.57
  -6   2  10  255.51   10.70
  -6   2  10  253.25   10.55
  -6  -2  10  259.86   10.32
  -6  -2  10  250.87    7.78
  -6   2  11   49.88    8.25
  -6   2  11   43.66    8.08
  -6  -2  11   50.60    7.92
  -6  -2  11   45.28   11.17
  -6   4   1 1819.07   18.71
   6   4  -1 1973.60   18.09
  -6  -4   1 1840.58   16.21
   6  -4  -1 1924.33   18.46
   6  -4  -2  576.48   12.48
   6   4  -2  604.19   11.94
  -6  -4   2  598.13   11.77
  -6   4   2  558.03   12.46
   6   4  -3  194.75    7.55
   6  -4  -3  186.81   10.20
  -6   4   3  183.49   10.27
  -6  -4   3  183.96    9.81
  -6  -4   4   11.08    6.48
   6  -4  -4   13.40    8.98
  -6   4   4   11.10    6.53
   6   4  -4   14.46    9.13
  -6  -4   5 1452.30   14.80
   6   4  -5 1406.43   13.09
   6  -4  -5 1402.99   16.72
  -6   4   5 1402.18   16.39
  -6   4   6   12.65    6.52
  -6  -4   6    9.83    9.15
   6   4  -6   13.86    6.37
  -6   4   7  334.96    8.49
  -6  -4   7  339.92    7.98
  -6   4   8   50.36    6.90
  -6  -4   8   50.39    9.38
  -6   4   8   59.86    9.42
  -6   4   9    2.24    9.39
  -6   4   9    1.78    9.47
  -6  -4   9    4.24    6.60
  -6  -4   9    5.33    6.73
  -6   4  10    0.31   11.12
  -6  -4  10   -1.80   10.92
  -6  -4  10    0.08    7.89
  -6   4  10    2.16    7.80
   6  -6  -1 1344.72   23.13
   6  -6  -1 1520.83   24.03
   6   6  -1 1481.41   20.13
  -6  -6   1 1431.65   21.19
   6   6  -2 1683.98   20.84
  -6  -6   2 1647.90   19.92
   6   6  -3  331.18   11.37
  -6  -6   3  324.20   11.32
  -6  -6   4 1160.57   15.65
  -6  -6   5    3.30    6.37
  -6  -6   6   47.61    6.70
  -6   6   6   41.82   12.07
  -6   6   6   47.91   12.05
  -6  -6   7   35.24    6.96
  -6  -6   7   35.81    9.53
  -6   6   7   35.01    9.95
  -6   6   7   35.92    9.84
  -6  -6   8    7.66   11.14
  -6  -6   8    1.64   11.05
  -6   6   8    4.83   11.12
  -6   6   8    8.42   11.21
  -6  -8   1   18.46   10.35
  -6  -8   2   27.31   12.82
  -6  -8   3    7.19   12.46
  -6  -8   4    7.04   14.11
  -6  -8   4    9.61   14.02
  -5   1   1   73.13    7.80
   5  -1  -1   72.54   10.73
   5   1  -1   72.90   10.69
  -5  -1   1   72.75   10.64
   5  -1  -2  624.10   20.89
   5   1  -2  637.26   10.77
  -5   1   2  627.35   13.10
  -5  -1   2  599.23   10.61
  -5   1   3 1419.71   15.88
  -5  -1   3 1368.97   13.41
   5  -1  -3 2501.70   20.37
   5   1  -3 1380.95   15.13
  -5   1   4 3369.79   22.29
  -5  -1   4 3310.38   20.70
   5  -1  -4 3360.80   21.10
   5   1  -4 3311.82   19.55
   5   1  -5   28.85    6.44
  -5   1   5   27.46    9.10
   5  -1  -5   23.60    6.63
  -5  -1   5   25.20    9.08
   5   1  -6  117.59    6.79
  -5   1   6  118.98    6.80
   5  -1  -6  125.98    9.37
  -5  -1   6  123.80    9.12
  -5   1   7   23.78    6.38
  -5  -1   7   24.23    6.31
  -5   1   8  363.45   10.36
  -5  -1   8  373.47   10.11
  -5  -1   9    0.86    6.43
  -5   1   9    3.18    9.18
  -5   1   9    0.47    6.56
  -5   1  10  517.81    9.00
  -5  -1  10  538.37   11.44
  -5  -1  10  533.63    8.93
  -5   1  10  534.79   11.74
  -5  -1  11   11.70    7.71
  -5   1  11    6.27    7.94
  -5   1  11   11.67    7.73
  -5  -1  11    3.53    7.95
   5   3  -1   90.41    9.64
  -5   3   1   82.02    9.51
   5  -3  -1   88.47    9.73
  -5  -3   1   85.93    9.67
   5  -3  -2  673.77   13.44
  -5   3   2  652.06   13.28
   5   3  -2  702.09   12.59
  -5  -3   2  693.44   12.50
  -5  -3   3 5674.68   30.19
   5   3  -3 5787.27   31.83
   5  -3  -3 5631.65   35.81
  -5   3   3 5803.53   35.07
  -5   3   4  563.10   10.11
  -5  -3   4  564.03    9.24
   5  -3  -4  605.44   12.45
   5   3  -4  613.38   11.47
   5   3  -5  560.33    8.84
  -5   3   5  554.05   11.77
  -5  -3   5  571.78   11.02
   5  -3  -5  575.94   11.76
  -5   3   6   24.46    6.58
  -5  -3   6   29.60    8.91
   5   3  -6   26.81    6.48
  -5  -3   7   81.19    6.69
  -5   3   7   90.61    6.86
  -5   3   8  214.66    7.61
  -5  -3   8  199.72    7.25
  -5   3   8  219.92   10.15
  -5   3   9  170.07    7.59
  -5  -3   9  167.58    7.32
  -5   3   9  161.81    7.59
  -5  -3   9  157.88    7.26
  -5  -3  10  382.04   12.06
  -5   3  10  389.12    9.78
  -5  -3  10  375.16    9.42
  -5   3  10  363.31    9.65
   5   5  -1  346.17   11.58
  -5   5   1  313.96   13.94
  -5  -5   1  322.61   11.44
   5  -5  -1  310.81   11.91
   5   5  -2    4.56    9.10
   5  -5  -2    5.85   12.62
  -5  -5   2    6.47    8.94
  -5   5   2    5.03   13.00
  -5   5   3  348.17   17.99
   5   5  -3  420.43   11.29
  -5  -5   3  391.31   11.08
  -5  -5   4  539.11   11.52
  -5   5   4  496.65   15.87
  -5   5   4  547.94   15.75
   5   5  -4  574.30   11.93
  -5  -5   5   47.94    6.65
  -5   5   5   44.93    9.55
  -5   5   5   46.01    9.43
  -5   5   6  233.24   10.69
  -5  -5   6  246.12   10.11
  -5   5   6  232.44   10.78
  -5   5   7    7.60    9.34
  -5  -5   7    6.56    6.61
  -5  -5   7    6.23    6.53
  -5   5   7    7.60    9.33
  -5   5   8   16.52    9.56
  -5  -5   8   14.61    9.38
  -5   5   8   17.78    9.50
  -5  -5   8   19.61    6.74
  -5  -5   9   25.19   11.21
  -5   5   9   22.90   11.12
  -5  -5   9   19.57    7.78
  -5   5   9   28.52   11.14
  -5  -7   1  311.26   12.48
  -5  -7   2   83.42   16.36
  -5  -7   2   93.26   16.07
  -5  -7   3  562.72   15.91
  -5  -7   3  532.48   14.65
  -5  -7   4  186.31   10.90
  -5  -7   4  199.13   12.79
  -5  -7   5  101.54   10.24
  -5  -7   5   98.28   10.00
  -5  -7   6  346.22   12.72
  -5  -7   6  365.23   10.28
  -4   0   1    6.73   12.24
   4   0  -1    3.28    8.49
  -4   0   2 6863.03   38.08
   4   0  -2 6999.01   39.25
   4   0  -3    4.17    7.25
  -4   0   3    4.22   10.25
  -4   0   4  388.12    8.77
   4   0  -4  404.94   11.21
   4   0  -5    0.68    6.49
  -4   0   5    0.57    6.41
  -4   0   6  858.45    9.76
  -4   0   7   -3.71    8.87
  -4   0   8   11.68    8.88
  -4   0   9   -1.62    6.41
  -4   0   9   -0.99    9.24
  -4   0  10  222.29   10.40
  -4   0  10  226.43    7.61
  -4   0  11   -2.89    7.88
  -4   0  11    2.30    7.97
   4   2  -1    3.15    6.89
  -4   2   1    2.12    9.74
  -4  -2   1    0.37   10.03
   4  -2  -1    2.68    7.11
  -4  -2   2  682.84   11.18
   4  -2  -2  699.51   14.30
   4   2  -2  707.95   11.32
  -4   2   2  684.70   12.20
  -4   2   3   38.98    9.75
  -4  -2   3   39.33    7.07
   4   2  -3   40.24    9.73
   4  -2  -3   39.67    9.99
  -4   2   4  188.85    7.80
  -4  -2   4  192.12    7.50
   4  -2  -4  199.94   10.31
   4   2  -4  191.55    7.56
  -4  -2   5  418.49    8.25
  -4   2   5  423.01   10.69
   4  -2  -5  438.54   11.03
   4   2  -5  427.82    8.30
  -4  -2   6  676.28    9.18
  -4   2   6  698.04   11.75
  -4  -2   7    9.63    8.89
  -4   2   7   12.14    9.13
  -4   2   8    7.27    6.48
  -4   2   8    6.88    6.45
  -4  -2   8    3.97    8.88
  -4   2   9   14.43    9.40
  -4  -2   9    9.85    6.54
  -4   2   9   12.19    9.33
  -4  -2   9   10.59    6.51
  -4  -2  10   42.86    9.73
  -4  -2  10   46.18    6.89
  -4   2  10   50.95    6.97
  -4   2  10   46.73    9.95
   4   4  -1    4.92    9.00
  -4   4   1    4.30   11.02
   4  -4  -1    3.73    8.97
  -4  -4   1    4.80    9.00
   4  -4  -2   24.06   11.28
  -4   4   2   20.70   11.17
   4   4  -2   22.32    6.53
  -4  -4   2   22.34    9.04
  -4  -4   3   62.14    9.23
  -4   4   3   59.41    9.60
   4   4  -3   68.12    9.30
   4  -4  -3   61.56   11.52
  -4  -4   4  686.21   12.05
   4   4  -4  673.94   12.02
  -4   4   4  634.51   13.38
  -4   4   5 1843.37   19.01
  -4  -4   5 1797.73   14.41
  -4   4   5 1822.37   19.03
  -4  -4   6   92.11    9.30
  -4   4   6   91.47    7.11
  -4   4   6   92.46    9.54
  -4  -4   7  574.73    9.11
  -4  -4   7  607.17    9.36
  -4   4   7  566.81    9.70
  -4   4   7  604.74   12.32
  -4  -4   8  190.47    7.41
  -4   4   8  149.47    7.46
  -4  -4   8  184.50    9.73
  -4   4   8  188.18   10.16
  -4   4   9   65.67    9.76
  -4  -4   9   60.53    7.05
  -4   4   9   59.01    9.92
  -4  -4   9   59.48    9.60
  -4   4  10   28.51    8.24
  -4  -4  10   35.46    7.93
  -4   4  10   32.97    8.13
  -4  -4  10   37.17   11.49
  -4  -6   1    9.53   14.89
  -4  -6   2  614.99   14.07
  -4  -6   3   81.86    9.81
  -4  -6   3   82.89    9.59
  -4  -6   4  383.05   11.18
  -4  -6   4  375.55   11.44
  -4  -6   5    0.29    9.10
  -4  -6   5    0.37    9.26
  -4  -6   6   76.53    9.74
  -4  -6   6   78.90    9.52
  -4   6   6   76.32   12.39
  -4   6   6   67.31   12.31
  -4  -6   7   10.04    6.63
  -4   6   7    9.90    9.68
  -4  -6   7   10.75    9.62
  -4   6   7    8.41   11.89
  -4   6   8    4.73   11.27
  -4  -6   8   -1.68   11.09
  -4   6   8    0.39   13.68
  -4  -6   8    9.47   11.24
  -4  -8   1    0.14   10.29
  -4  -8   2  197.03   14.72
  -4  -8   3    1.16   11.53
  -4  -8   4   -0.30   13.72
  -4  -8   4    0.08   13.90
   3   1  -1  149.42   12.96
  -3   1   1  146.65   13.36
   3  -1  -1  147.46   10.04
  -3  -1   1  144.81    9.91
  -3  -1   218180.91   11.50
  -3   1   3   60.74   10.46
  -3  -1   3   62.01    7.55
   3   1  -3   63.72    7.60
   3  -1  -3 1174.42   16.74
  -3  -1   4 4237.09   22.74
   3   1  -4 4283.19   22.93
   3  -1  -4 4327.76   26.35
  -3   1   4 4196.11   24.25
  -3   1   5  100.21    9.46
  -3  -1   5   97.56    9.34
  -3  -1   6  109.46    6.78
  -3   1   6  108.57    9.37
  -3   1   7  359.95   10.30
  -3  -1   7  340.30    7.85
  -3   1   7  360.00    8.08
  -3  -1   8  259.72    7.58
  -3   1   8  268.18    7.61
  -3  -1   8  293.87    9.87
  -3   1   8  281.34   10.13
  -3  -1   9  134.13    9.85
  -3  -1   9  137.77    9.62
  -3   1   9  134.83    7.12
  -3   1   9  130.86    9.97
  -3   1  10    2.66    6.86
  -3  -1  10    5.37    6.67
  -3  -1  10    6.45    9.52
  -3   1  10   -2.14    9.52
  -3  -1  11   24.38    8.04
  -3  -3   2 2220.48   19.20
  -3   3   2 2107.50   26.36
   3  -3  -2 2189.70   27.52
   3   3  -2 2245.40   20.83
  -3   3   3  625.04   13.63
  -3  -3   3  657.63   12.26
   3   3  -3  633.39   10.15
   3  -3  -3  636.76   13.83
  -3   3   4    3.36    9.03
  -3  -3   4    7.24    8.91
  -3   3   5    2.14    6.37
  -3  -3   5    8.84    8.89
  -3   3   6  140.30    9.65
  -3   3   6  129.29    7.06
  -3  -3   6  129.88    9.26
  -3   3   7   73.23    6.77
  -3   3   7   73.67    9.50
  -3  -3   7   71.16    6.56
  -3  -3   7   73.95    6.70
  -3   3   8    2.59    9.24
  -3  -3   8    0.22    6.37
  -3  -3   8    1.44    6.51
  -3   3   8    2.68    6.51
  -3   3   9    9.01    9.63
  -3   3   9   10.27    6.82
  -3  -3   9   12.81    6.62
  -3  -3   9   14.62    6.64
  -3  -3  10   11.17    7.73
  -3   3  10    3.01   11.22
  -3  -3  10    1.73   11.16
  -3   3  10    7.90    7.92
  -3  -5   1  929.16   18.64
  -3  -5   2 2786.30   24.84
  -3  -5   3  179.47   10.00
  -3  -5   4   82.54    9.31
  -3   5   4   86.07   13.96
  -3   5   4   72.66   12.13
  -3  -5   4   84.07    6.86
  -3   5   5  161.20   10.49
  -3   5   5  158.16   12.38
  -3  -5   5  165.22    7.18
  -3  -5   5  156.16    9.82
  -3  -5   6  691.23   12.29
  -3  -5   6  684.10   11.92
  -3   5   6  630.04   13.55
  -3   5   6  648.64   13.87
  -3   5   7  248.49   10.94
  -3  -5   7  257.24   10.46
  -3  -5   7  254.94   10.17
  -3   5   7  242.73    8.36
  -3   5   8   99.92    7.42
  -3  -5   8   96.94    7.06
  -3   5   8   98.61   10.09
  -3  -5   8  107.15    7.35
  -3   5   9   34.97   11.40
  -3  -5   9   28.37    8.21
  -3   5   9   29.28    8.14
  -3  -5   9   45.68    7.97
  -3  -7   1    2.18    9.16
  -3  -7   3  110.73   10.63
  -3  -7   3  121.96   12.54
  -3  -7   4  547.25   13.26
  -3  -7   4  508.04   13.48
  -3  -7   5  237.86   10.78
  -3  -7   5  222.84    8.68
  -3  -7   6   31.94   11.11
  -3  -7   6   28.78    8.07
  -2   0   1    4.07   10.05
   2   0  -1    2.16   13.49
  -2   0   212497.84   18.11
   2   0  -3   18.23    7.50
  -2   0   3   -1.72   10.49
  -2   0   4 1043.46   11.54
  -2   0   5    0.34    6.39
  -2   0   6  303.00    7.63
  -2   0   6  318.07   10.09
  -2   0   7    1.16    8.90
  -2   0   7    0.91    6.37
  -2   0   8   31.73    9.17
  -2   0   8   32.53    6.50
  -2   0   9   -4.85    6.54
  -2   0   9    0.41    6.65
  -2   0  10  228.87   10.56
  -2   0  10  214.93    7.67
  -2  -2   1  380.58   13.54
   2  -2  -1  359.61   17.15
  -2   2   1  353.98   15.12
   2   2  -1  387.25   13.54
  -2   2   2  684.60   15.67
  -2  -2   2  675.46   11.77
   2   2  -2  685.80   13.79
   2  -2  -2  660.59   15.79
  -2   2   3 4260.82   29.35
  -2  -2   3 4157.23   26.00
   2   2  -3 4266.30   26.60
  -2   2   4 8544.12   42.69
  -2  -2   4 8271.83   36.99
  -2   2   5  938.76   13.11
  -2  -2   5  920.16   12.36
  -2   2   5  947.10   13.29
  -2  -2   6 3169.42   19.28
  -2   2   6 3178.76   19.84
  -2  -2   6 3283.91   19.95
  -2   2   6 3242.53   21.47
  -2  -2   7  427.75    8.30
  -2   2   7  461.62   11.00
  -2   2   7  485.41   10.94
  -2  -2   7  458.60    8.26
  -2  -2   8  530.09    8.69
  -2   2   8  569.70   11.34
  -2  -2   8  510.01    8.63
  -2   2   8  544.52   11.62
  -2   2   9  263.58    8.14
  -2   2   9  256.80    7.90
  -2  -2   9  259.87    7.74
  -2  -2   9  268.89    7.84
  -2  -2  10   -0.39   10.95
  -2   2  10    0.39   10.88
  -2   2  10    7.80   11.17
  -2  -2  10    7.59   10.87
  -2  -4   1   79.68   11.69
  -2  -4   2  310.40   11.03
  -2   4   3 1414.84   22.09
  -2  -4   3 1526.08   14.73
  -2   4   3 1600.25   23.92
  -2   4   4 1054.42   16.09
  -2  -4   4 1091.38   11.89
  -2   4   4 1097.17   16.15
  -2  -4   4 1065.59   12.03
  -2   4   5   91.70    9.58
  -2  -4   5   88.01    9.43
  -2  -4   5   89.07    6.62
  -2   4   5   88.30    9.59
  -2  -4   6   11.47    9.06
  -2   4   6   13.49    6.45
  -2  -4   6   14.16    6.30
  -2   4   6   10.53    9.16
  -2   4   7    5.69    9.30
  -2  -4   7    4.20    6.53
  -2  -4   7    6.47    8.97
  -2   4   7    7.10    6.56
  -2   4   8  173.05    7.71
  -2  -4   8  185.15    7.40
  -2   4   8  170.98   10.29
  -2  -4   8  194.03   10.23
  -2  -4   9   -0.97   11.02
  -2  -4   9   -1.82    7.60
  -2   4   9    1.42    7.80
  -2   4   9    3.20    7.76
  -2  -6   1 1254.43   12.65
  -2  -6   2 2024.49   25.37
  -2  -6   2 1870.98   25.89
  -2  -6   3   13.80    9.19
  -2  -6   3   14.15   11.69
  -2  -6   4 1186.05   16.46
  -2  -6   4 1197.83   16.13
  -2  -6   5   22.02    9.23
  -2  -6   5   17.43    6.78
  -2   6   6    0.41    9.50
  -2  -6   6    0.59    6.57
  -2  -6   6    4.94    9.35
  -2   6   6   -0.49    9.54
  -2   6   7   22.05   11.29
  -2  -6   7   21.76   10.88
  -2  -6   7   23.65    7.90
  -2   6   7   17.68   11.24
  -2  -8   1  247.58   10.77
  -2  -8   2   33.26   10.62
  -2  -8   3   24.61   11.38
  -2  -8   4   21.31   11.29
  -2  -8   4   22.96   11.72
  -1   1   1 8412.12   17.27
  -1   1   2  136.50    9.35
  -1  -1   2  130.07    9.18
   1   1  -2  131.93    9.06
  -1  -1   3 8259.04   40.22
  -1  -1   4 7713.85   35.64
  -1   1   4 7885.05   38.48
  -1   1   4 7600.93   37.20
  -1  -1   5 3843.06   20.04
  -1   1   5 3783.10   21.22
  -1  -1   5 3871.01   20.07
  -1   1   5 3832.83   21.20
  -1   1   6   23.08    9.25
  -1   1   6   21.90    9.14
  -1  -1   6   19.23    9.11
  -1  -1   6   24.37    6.43
  -1  -1   7  401.38   10.45
  -1   1   7  413.23    8.23
  -1  -1   7  405.86    7.85
  -1   1   7  412.81    8.37
  -1   1   8  303.84    7.78
  -1   1   8  327.48   10.14
  -1  -1   8  338.42   10.20
  -1  -1   8  306.25    7.79
  -1   1   9   37.23    9.33
  -1  -1   9   42.57    9.54
  -1  -1   9   33.55    6.73
  -1   1   9   34.59    6.84
  -1   1  10   41.58   10.94
  -1  -1  10   46.12    7.88
  -1  -1  10   36.60    7.96
  -1   1  10   42.52   11.33
  -1  -3   1  780.50   15.94
  -1   3   2 1137.60   22.77
  -1  -3   2 1182.59   15.92
  -1   3   2 1183.62   22.42
  -1   3   3  994.10   16.66
  -1   3   3  950.35   16.73
  -1  -3   3 1001.28   12.63
  -1   3   4   42.68    9.24
  -1   3   4   31.36    6.61
  -1  -3   4   33.16    8.89
  -1  -3   4   46.07    9.04
  -1   3   5  200.35    9.99
  -1   3   5  193.43    7.61
  -1  -3   5  191.50    7.09
  -1  -3   5  192.33    7.22
  -1  -3   6 1488.73   12.73
  -1   3   6 1523.55   15.72
  -1   3   6 1443.57   13.87
  -1  -3   6 1483.12   12.45
  -1   3   7  141.88    7.28
  -1  -3   7  144.08    6.95
  -1   3   7  133.38    9.85
  -1  -3   7  141.62    9.61
  -1  -3   8  612.51   11.71
  -1   3   8  616.46   11.86
  -1  -3   8  575.83    9.04
  -1   3   8  551.64    9.47
  -1  -3   9  304.74    8.14
  -1   3   9  299.19    8.32
  -1  -3   9  299.26   10.58
  -1   3   9  289.65    8.40
  -1  -5   0  109.33   12.66
  -1  -5   1   98.26   12.55
  -1  -5   1  110.36   12.38
  -1  -5   2  216.03   12.26
  -1  -5   2  209.44   10.69
  -1  -5   3   40.50    9.38
  -1  -5   3   37.93    9.14
  -1  -5   4    9.84    6.50
  -1   5   4   10.42   11.37
  -1   5   4    9.39   11.22
  -1  -5   4   11.57    8.88
  -1  -5   5  154.64    7.33
  -1   5   5  133.77   10.25
  -1  -5   5  165.94    9.68
  -1   5   5  160.57   10.49
  -1  -5   6  244.07    7.91
  -1   5   6  220.84   10.69
  -1   5   6  238.50   11.02
  -1  -5   6  247.08    9.99
  -1   5   7    0.47    9.38
  -1   5   7    7.45    9.58
  -1  -5   7   -0.69    9.21
  -1  -5   7    5.18    9.50
  -1   5   8   -1.50   10.98
  -1  -5   8    0.05    7.66
  -1   5   8   -1.27    7.86
  -1  -5   8    3.49    7.77
  -1  -7   0    0.23   11.18
  -1  -7   1   51.68   12.56
  -1  -7   3  494.23   13.40
  -1  -7   3  461.94   15.52
  -1  -7   4  228.90   10.82
  -1  -7   4  228.38   11.30
  -1  -7   5   26.36   11.36
  -1  -7   5   22.88   10.95
  -1  -7   6  206.10   12.35
  -1  -7   6  195.44   12.05
   0   0   226074.80   19.33
   0   0   3   -3.44   10.42
   0   0   4  124.29    9.88
   0   0   4  129.08    9.76
   0   0   5   -5.42    9.13
   0   0   5   -0.06    9.04
   0   0   6 1681.11   14.47
   0   0   6 1687.77   14.74
   0   0   7   -5.06    9.09
   0   0   7   -1.77    9.00
   0   0   8    5.03    6.53
   0   0   8    2.95    6.45
   0   0   9    7.01    6.46
   0   0   9   -0.82    6.69
   0   0  10  255.41    8.89
   0   0  10  254.26   12.32
   0  -2   1 2226.42   26.27
   0   2   1 2255.77   38.11
   0  -2   1 2221.13   26.79
   0  -2   2  848.46   14.18
   0   2   2  845.04   16.05
   0   2   2  867.04   16.07
   0  -2   2  861.59   14.81
   0   2   3 1244.55   15.92
   0   2   3 1269.18   16.18
   0  -2   3 1214.16   12.97
   0  -2   3 1233.22   12.82
   0  -2   4  754.48    9.88
   0   2   4  773.95   12.57
   0  -2   4  742.27    9.82
   0   2   4  770.68   12.62
   0   2   5  533.35   11.51
   0  -2   5  524.81   10.96
   0  -2   5  524.72    8.78
   0   2   5  547.50   11.31
   0  -2   6 1057.30   10.33
   0   2   6 1096.68   11.30
   0   2   6 1309.54   14.10
   0  -2   6 1159.13   12.99
   0  -2   7  395.31   10.56
   0   2   7  402.55   10.77
   0  -2   7  408.03   10.35
   0   2   7  418.34   10.62
   0  -2   8  156.55    9.76
   0   2   8  162.44    9.77
   0  -2   8  148.02    7.10
   0   2   8  152.20    9.94
   0  -2   9   41.29    6.77
   0   2   9   44.18    9.51
   0  -2   9   41.25    6.83
   0   2   9   40.39    9.81
   0   2  10    7.01   11.45
   0   2  10    0.42    7.83
   0  -2  10    0.04    7.99
   0  -2  10    1.33    7.96
   0  -4   1 1001.70   17.07
   0  -4   1  949.26   17.11
   0  -4   2  159.37   10.28
   0  -4   2  160.66   10.01
   0  -4   3  135.56    7.39
   0   4   3  122.87   10.17
   0  -4   3  137.98    9.58
   0   4   3  132.57   10.32
   0  -4   4    6.17    9.02
   0   4   4    3.04    9.10
   0   4   4    0.81    6.36
   0  -4   4    1.19    6.22
   0   4   5    3.53    9.02
   0  -4   5    3.32    6.40
   0   4   5    1.73    9.15
   0  -4   5    1.63    6.22
   0   4   6   20.17    9.20
   0   4   6   17.80    6.57
   0  -4   6   21.69    9.14
   0  -4   6   21.38    8.86
   0   4   7  211.30   10.31
   0   4   7  206.69   10.34
   0  -4   7  212.10    9.81
   0  -4   7  205.73    7.50
   0   4   8  377.85    9.04
   0   4   8  400.62    9.15
   0  -4   8  429.90   10.96
   0  -4   8  420.93   11.16
   0   4   9   75.76   11.59
   0   4   9   72.36   11.61
   0  -4   9   68.19    8.14
   0  -4   9   73.05    8.28
   0  -6   1  138.09   12.59
   0  -6   2   66.64   11.37
   0  -6   2   62.28    9.80
   0  -6   3   26.47    9.44
   0  -6   3   28.68    9.06
   0  -6   4   92.19    9.89
   0  -6   4   87.03    9.55
   0  -6   5   23.05    9.56
   0   6   5   23.06   13.52
   0  -6   5   24.66    6.58
   0   6   5   23.63   11.71
   0  -6   6    7.70    9.54
   0   6   6    2.77   11.86
   0   6   6    4.02    9.62
   0  -6   6    6.87    9.43
   0   6   7    3.98   11.12
   0  -6   7    5.43    7.93
   0   6   7    1.65   11.17
   0  -6   7    4.63    7.87
   0   8   0   72.62   11.72
   0   8   1  240.35   15.63
   0   8   2   23.92   12.05
   0   8   3    0.43   11.68
  -1   1   0   80.30   15.18
  -1  -1   0   81.75   14.98
   1   1   0   86.14   11.30
   1  -1   0   82.68   14.84
   1   1   1 2395.82   27.48
  -1  -1  -1 2390.03   27.50
   1  -1   1 2384.45   23.67
  -1   1  -1 2372.40   23.75
   1   1   258640.60   37.84
   1   1   3  141.63   10.95
   1  -1   3  119.27    8.13
   1   1   4 4014.44   23.69
   1  -1   4 3956.55   22.55
   1  -1   5  581.82   11.14
   1   1   5  568.91    9.08
   1  -1   5  567.78    8.71
   1   1   5  568.70    9.19
   1  -1   6  116.99    9.38
   1  -1   6  119.88    6.87
   1   1   6  117.06    6.99
   1   1   6  118.40    6.83
   1  -1   7  198.17    7.24
   1  -1   7  207.60    7.19
   1   1   7  219.76    9.75
   1   1   7  191.75    7.17
   1   1   8  167.91    7.16
   1  -1   8  170.43    7.23
   1  -1   8  156.21    9.95
   1   1   8  172.98   10.00
   1  -1   9   25.46    9.46
   1  -1   9   17.75    9.67
   1   1   9   22.06    9.39
   1   1   9   21.84    6.88
   1   1  10   40.88    8.34
   1   1  10   46.73    7.98
   1  -3   0 2545.57   35.70
   1  -3   1   39.57    9.74
   1   3   1   42.69   12.25
   1  -3   1   36.04   10.04
   1  -3   2 7697.61   41.19
   1  -3   2 8151.93   44.17
   1  -3   3   98.52    7.22
   1   3   3  104.91    9.86
   1  -3   3  101.91    6.98
   1   3   4 1029.70   13.97
   1  -3   4 1020.12   11.10
   1   3   4 1005.59   12.15
   1  -3   4 1003.43   10.98
   1   3   5  488.12    9.07
   1  -3   5  529.14   11.15
   1  -3   5  519.73   10.83
   1   3   5  521.45   11.41
   1   3   6   12.75    6.52
   1   3   6   13.23    9.11
   1  -3   6   12.09    6.52
   1  -3   6   14.24    8.95
   1   3   7  808.89   12.77
   1  -3   7  791.58    9.88
   1   3   7  791.26   10.51
   1  -3   7  792.13    9.92
   1  -3   8  154.29    7.19
   1   3   8  150.75    7.47
   1   3   8  158.80   10.13
   1  -3   8  151.00    7.31
   1   3   9  483.57   10.41
   1   3   9  507.94   13.13
   1  -3   9  502.20    9.97
   1  -3   9  525.08   13.00
   1  -5   1    0.93   10.93
   1  -5   1    0.14   11.20
   1  -5   2    8.82    9.23
   1  -5   2    9.60    6.43
   1  -5   3  497.83   11.75
   1   5   3  468.50   17.66
   1  -5   3  519.37   11.60
   1   5   3  510.23   16.19
   1   5   4  118.54   10.21
   1   5   4  112.62   11.97
   1  -5   4  115.08    6.97
   1  -5   4  115.84    7.19
   1   5   5   97.07    9.79
   1  -5   5   99.55    6.92
   1  -5   5  100.62    9.74
   1   5   5  102.40   10.08
   1  -5   6   58.30    9.42
   1   5   6   61.73    9.93
   1   5   6   62.12    9.57
   1  -5   6   55.33    7.02
   1  -5   7    7.98    9.64
   1   5   7    6.00    9.60
   1  -5   7    4.90    9.39
   1   5   7    8.46    9.75
   1  -5   8   27.68    8.07
   1   5   8   16.63    8.05
   1  -5   8   21.12    7.98
   1   5   8   24.02    8.22
   1  -7   1  324.01   12.60
   1  -7   2  172.13   13.55
   1  -7   2  150.87   13.45
   1  -7   3  568.23   13.82
   1  -7   3  523.06   13.89
   1  -7   4    0.59    6.60
   1  -7   4   -1.14    9.75
   1  -7   5   -0.60   10.92
   1  -7   5    4.07    7.93
  -2   0   0   45.11   10.61
   2   0   0   49.08   14.08
   2   0   1    2.45    9.02
  -2   0  -1    1.77    9.16
   2   0   218800.83   17.30
  -2   0  -3   -2.62    6.96
   2   0   3   -2.31    6.97
   2   0   4 2461.51   16.01
   2   0   5   -0.27    9.17
   2   0   6  411.76   10.47
   2   0   6  407.93    8.10
   2   0   7    0.14    6.39
   2   0   7   -0.34    6.41
   2   0   8   53.61    6.75
   2   0   8   54.63    6.76
   2   0   9    3.91    7.68
   2   0   9  -10.13   10.21
   2  -2   0  961.53   18.20
  -2  -2   0 1019.79   18.89
  -2   2   0  990.25   16.67
   2   2   0 1030.23   18.63
  -2  -2  -1  925.42   16.38
   2   2   1  927.73   16.31
  -2   2  -1  945.33   15.30
   2  -2   1  916.86   13.47
  -2  -2  -2  566.71   12.30
   2   2   2  566.15   10.21
   2  -2   2  560.12    9.81
  -2  -2  -3   27.19    6.66
   2   2   3  118.44    9.84
   2  -2   3   24.74    6.81
   2   2   4 9683.54   42.95
   2  -2   4 9625.23   38.11
   2   2   5   12.49    9.55
   2  -2   5   14.74    6.74
   2  -2   5   16.99    6.66
   2   2   6 2289.67   15.62
   2  -2   6 2501.62   17.43
   2   2   6 2469.94   18.83
   2  -2   6 2315.99   15.03
   2   2   7    4.07    9.32
   2  -2   7   -2.13    6.54
   2   2   7   16.19    9.11
   2  -2   7    8.35    9.23
   2   2   8   10.83    6.75
   2   2   8   17.75    9.18
   2  -2   8   13.43    9.32
   2  -2   8   11.88    6.69
   2  -2   9   71.54   11.14
   2   2   9   51.58    8.17
   2   2   9   53.51    7.84
   2  -2   9   56.69    7.99
  -2  -4   0   62.78   13.72
   2  -4   0   58.57   10.02
   2   4   0   66.48   13.77
   2  -4   0   66.99   11.75
   2   4   1  179.28   13.33
  -2  -4  -1  180.90   13.49
   2  -4   1  184.90   10.22
   2  -4   1  165.36   10.27
   2  -4   2 2606.00   21.16
   2   4   2 2773.38   26.72
   2  -4   2 2554.82   19.69
   2  -4   3  899.92   13.22
   2   4   3  889.07   14.38
   2  -4   3  901.28   12.94
   2  -4   4  152.67    6.96
   2   4   4  164.12    9.98
   2   4   4  153.37    7.57
   2  -4   4  155.16    7.30
   2  -4   5   21.63    8.84
   2   4   5   18.18    6.48
   2   4   5   14.21    9.28
   2  -4   5   15.33    6.49
   2   4   6   50.77    6.88
   2  -4   6   52.74    6.56
   2   4   6   54.62    9.39
   2  -4   6   49.35    6.82
   2  -4   7    4.08    6.75
   2  -4   7    8.37    6.47
   2   4   7    6.51    6.65
   2   4   7    9.44    6.66
   2  -4   8   37.36    8.11
   2   4   8   45.74   11.25
   2  -4   8   41.43    7.87
   2   4   8   41.23    8.09
   2  -6   1  459.80   16.78
   2  -6   1  399.06   16.95
   2  -6   2   78.17    9.38
   2  -6   2   71.51    9.82
   2  -6   3  229.07   10.37
   2  -6   3  220.14   10.73
   2   6   4   82.31   12.50
   2  -6   4   92.61    9.96
   2  -6   4   97.14    9.71
   2   6   4   93.80   12.46
   2   6   5  541.88   14.66
   2  -6   5  574.48   12.64
   2   6   5  571.92   16.30
   2  -6   5  579.01   12.30
   2   6   6    2.15   11.01
   2  -6   6   -3.68   11.22
   2   6   6    2.50   11.00
   2  -6   6    1.82   11.00
   2  -8   0  112.77   13.93
   2  -8   1    0.01   10.32
   2  -8   2   31.07   11.55
   2  -8   3   16.19   14.34
   2  -8   3   12.65   13.55
   3  -1   0  537.20   12.38
  -3  -1   0  574.25   15.41
   3   1   0  561.37   12.65
  -3   1   0  559.64   12.51
   3  -1   1 6513.60   35.22
  -3   1  -1 6379.18   35.70
   3  -1   2  998.52   13.97
  -3  -1  -2 1004.96   14.28
   3   1   2  983.35   14.30
  -3   1  -2 1036.10   14.19
   3  -1   3 2245.60   15.34
  -3  -1  -3 2305.47   16.36
   3   1   3 2262.44   17.52
  -3   1  -3 2277.78   17.05
   3   1   4 2466.64   15.95
   3  -1   4 2402.82   15.14
   3   1   5    2.86    9.11
   3  -1   5   -0.69    6.43
   3  -1   6  360.76   10.34
   3   1   6  370.26   10.36
   3  -1   7   78.13    9.51
   3   1   7   81.78    9.62
   3  -1   7   86.43    6.76
   3   1   7   84.45    9.28
   3  -1   8  372.68   10.93
   3   1   8  385.55   10.92
   3  -1   8  389.05    8.26
   3   1   8  398.34   10.60
   3  -1   9   86.58    8.32
   3   1   9   98.08   11.06
   3   1   9   98.56    8.28
   3  -1   9   91.11    8.21
   3   3   0   27.51    9.76
  -3  -3   0   32.75    9.98
  -3   3   0   28.91    9.77
   3  -3   0   34.13    9.95
  -3  -3  -1  290.97    9.14
   3   3   1  300.63   11.25
   3  -3   1  290.11   10.90
  -3   3  -1  290.24   10.81
   3   3   2  293.56   10.67
   3  -3   2  294.78   10.52
  -3  -3  -2  304.70   10.77
   3  -3   3    4.84    9.11
  -3  -3  -3    6.90    6.31
   3   3   3    4.07    9.10
   3  -3   4 1084.47   13.21
   3   3   4 1078.91   13.80
   3  -3   5  386.31    8.28
   3   3   5  367.29    8.22
   3  -3   5  394.54    8.19
   3   3   6    9.55    6.38
   3  -3   6   12.17    9.09
   3   3   6    9.08    6.51
   3  -3   6    7.58    6.38
   3  -3   7   -2.94    9.37
   3   3   7   -0.97    6.64
   3  -3   7    0.92    9.20
   3   3   7    1.06    9.19
   3  -3   8   -0.23   10.33
   3   3   8    3.66    7.78
   3  -3   8    1.94    7.65
   3   3   8    2.32   10.76
   3  -5   0 4160.03   40.08
   3  -5   0 3763.08   37.49
   3  -5   1 1447.21   18.05
   3   5   1 1638.55   29.09
   3  -5   1 1587.09   18.75
   3  -5   2  232.71   10.39
   3  -5   2  210.89   10.53
   3   5   2  232.32   13.30
   3  -5   3  962.44   11.61
   3  -5   3 1005.90   14.10
   3   5   3 1026.19   17.60
   3   5   3  979.40   16.26
   3   5   4  354.13   11.55
   3  -5   4  355.83   10.89
   3  -5   4  336.72    8.12
   3   5   4  354.00   11.50
   3   5   5   16.67    9.59
   3  -5   5   17.02    9.45
   3  -5   5   20.71    6.51
   3   5   5   17.43    9.44
   3   5   6   99.89   10.27
   3  -5   6   96.66    7.32
   3   5   6   95.25   10.04
   3  -5   6   99.13    9.66
   3  -5   7   41.22   11.32
   3   5   7   36.91    8.18
   3  -5   7   48.33   11.00
   3   5   7   41.41    8.22
   3  -7   0  547.77    9.94
   3  -7   1  456.88   10.53
   3  -7   2    7.77    9.32
   3  -7   2    9.31    9.50
   3  -7   3   19.28    9.77
   3  -7   3   20.74    9.42
   3  -7   4    7.59   10.94
   3  -7   4    8.78    8.00
   3  -7   5    8.15    8.02
   3  -7   5    5.60   11.58
  -4   0  -1   -0.60    7.49
   4   0   1   19.82   10.83
  -4   0  -2   77.89    7.35
   4   0   2   85.33    7.53
   4   0   3   -3.76    9.33
  -4   0  -3    1.87    6.57
   4   0   4 2276.64   14.64
  -4   0  -4 2388.90   16.82
   4   0   5    0.98    6.40
   4   0   6  -10.76    9.07
   4   0   7    3.17    6.56
   4   0   7    0.66    6.47
   4   0   8  160.41    7.60
   4   0   8  172.54    7.41
   4   0   9    2.83   11.26
   4   0   9   -3.48    7.82
  -4  -2   0 1600.41   17.87
   4  -2   0 1583.67   17.60
  -4   2   0 1562.54   16.16
   4   2   0 1583.67   17.67
   4   2   1 5190.52   30.94
  -4  -2  -1 5083.53   30.84
  -4   2  -1 5085.18   28.48
   4  -2   1 5156.10   29.75
   4  -2   2   68.34    9.59
  -4  -2  -2   69.83    9.49
  -4   2  -2   67.20    7.02
   4   2   2   66.74    7.02
   4  -2   3   21.12    9.37
  -4   2  -3   30.06    9.14
  -4  -2  -3   27.70    6.39
   4   2   3   22.20    6.64
  -4  -2  -4  150.53    7.13
   4  -2   4  152.04    7.23
   4   2   4  151.88    7.21
   4  -2   5   84.45    9.51
   4   2   5   77.12    6.76
   4  -2   6  803.16    9.78
   4   2   6  799.96   12.29
   4  -2   7   84.49    6.92
   4  -2   7   80.04    9.62
   4   2   7   77.27    6.95
   4   2   7   79.82    6.74
   4  -2   8  274.62   11.18
   4   2   8  264.06   11.30
   4  -2   8  257.46    8.70
   4   2   8  249.40    7.70
  -4   4   0 2093.40   21.33
   4   4   0 2114.52   21.36
   4  -4   0 2104.56   20.66
  -4  -4   0 2100.18   21.37
   4   4   1 2154.29   20.82
  -4  -4  -1 2102.72   21.01
   4  -4   1 1977.98   17.27
   4   4   2 2306.79   20.49
  -4  -4  -2 2165.47   19.33
   4  -4   2 2138.76   16.84
   4   4   3  608.85   10.18
   4  -4   3  604.53   11.75
  -4  -4  -3  642.03   12.55
   4   4   4    6.81    9.33
   4  -4   4    6.19    9.28
   4  -4   5 1168.68   14.08
   4  -4   5 1165.76   13.74
   4   4   5 1158.20   14.98
   4  -4   6   46.46    9.66
   4  -4   6   43.88    6.67
   4   4   6   51.15    9.58
   4   4   6   44.30    6.96
   4  -4   7   19.06    8.06
   4  -4   7   25.13   10.78
   4   4   7   30.13   10.34
   4   4   7   20.79   10.57
   4  -6   0  145.80   14.38
   4  -6   0  126.50   14.55
   4  -6   1  573.09   13.42
   4  -6   1  648.42   15.40
   4  -6   2  292.32   11.14
   4   6   2  339.64   18.71
   4   6   2  261.94   17.05
   4  -6   2  318.74   10.99
   4   6   3  140.00   12.64
   4  -6   3  132.65    7.67
   4   6   3  147.23   12.71
   4  -6   3  154.22    9.99
   4   6   4    5.19    9.44
   4  -6   4    5.19    6.65
   4   6   4    2.01    9.53
   4  -6   4    1.55    6.87
   4   6   5  128.65   11.83
   4   6   5  127.16   11.79
   4  -6   5  140.13    8.26
   4  -6   5  127.26    8.52
   4   6   6   32.79   11.49
   4   6   6   35.89   11.39
   4  -6   6   36.35   11.57
   4  -8   0    0.43   14.40
   4  -8   1    2.95   17.49
   4  -8   2  846.29   35.61
   4  -8   2  601.22   30.01
  -5  -1   0 1087.00   12.76
   5  -1   0 1071.15   14.66
   5   1   0 1087.98   14.58
  -5   1   0 1049.68   14.41
   5   1   1    0.55    9.91
  -5   1  -1    1.03    6.98
  -5  -1  -1    1.37    9.85
   5  -1   1    1.50    7.04
  -5   1  -2   59.00    9.52
   5  -1   2   52.36    6.95
  -5  -1  -2   55.92    6.77
   5   1   2   57.36    9.64
   5  -1   3 1460.36   12.21
  -5   1  -3 1456.84   12.11
   5   1   3 1479.84   14.31
  -5  -1  -3 1544.40   14.38
  -5   1  -4    4.21    6.49
   5  -1   4   -4.65    9.19
   5   1   4    4.33    9.10
  -5  -1  -4   -0.17    8.92
   5  -1   5  301.42    7.57
   5   1   5  298.65   10.10
   5  -1   6  374.20    8.02
   5   1   6  362.41    8.20
   5  -1   7    8.04    9.39
   5   1   7    7.87    9.34
   5  -1   8   -1.81    7.81
   5   1   8    3.06    7.75
   5  -1   8   12.42   10.77
   5   1   8    6.95    7.52
  -5   3   0   13.09    9.04
   5  -3   0   10.51    6.48
   5   3   0    8.94    9.13
  -5  -3   0    9.49    6.61
  -5   3  -1  609.83   11.65
  -5  -3  -1  621.14   11.96
   5   3   1  606.26   11.80
   5  -3   1  596.29   11.58
  -5   3  -2  533.37   11.08
   5   3   2  538.43   11.35
  -5  -3  -2  530.76   11.23
   5  -3   2  536.67   11.04
   5   3   3  756.52   12.31
  -5   3  -3  754.19   11.93
  -5  -3  -3  694.07    9.93
   5  -3   3  744.79   11.98
  -5  -3  -4  506.44    8.79
   5  -3   4  511.57   11.01
   5   3   4  494.14    8.88
   5  -3   5  178.01    7.25
   5   3   5  178.58    7.36
   5  -3   6   35.43    6.82
   5   3   6   25.85    6.81
   5  -3   7  706.69    9.94
   5  -3   7  751.35   12.27
   5   3   7  690.05   10.27
   5   3   7  677.33   10.21
   5  -3   8    0.01    7.96
   5   3   8    0.29   10.95
   5   5   0 1399.59   18.33
  -5  -5   0 1302.09   17.74
   5  -5   0 1281.35   16.92
   5   5   1  565.41   13.03
   5  -5   1  546.39   12.32
  -5  -5  -1  568.12   13.21
   5  -5   2  475.61   11.58
  -5  -5  -2  507.55   12.48
   5   5   2  502.41   12.37
   5   5   3  667.19   13.20
   5  -5   3  659.08   10.14
   5   5   4   71.76    9.86
   5  -5   4   73.74    9.46
   5  -5   4   72.42    9.73
   5   5   5   -1.93    9.67
   5  -5   5    4.35    6.73
   5  -5   5    3.81    6.53
   5   5   5    1.22    6.70
   5   5   6   -0.08    8.03
   5  -5   6   -0.56    7.63
   5  -5   6   -6.87   11.18
   5   5   6    2.20   10.97
   5  -7   0  101.17   12.96
   5  -7   1   93.15   10.12
   5  -7   1   90.75   12.24
   5  -7   2   69.25   10.12
   5  -7   2   81.55    9.94
   5  -7   3  267.21    9.72
   5  -7   3  289.90   12.70
   5  -7   4  178.86   12.59
   5   7   4  202.82   18.23
   5   7   4  179.98   18.94
   5  -7   4  188.48   12.30
   6   0   0  158.68    7.95
  -6   0   0  152.49   10.45
   6   0   1    3.61    9.70
  -6   0  -1    0.08    9.60
  -6   0  -2  896.96   10.13
   6   0   2  923.88   10.28
  -6   0  -3    8.88    9.27
   6   0   3   -2.08    9.29
  -6   0  -4  252.13    7.54
   6   0   4  261.68    9.95
  -6   0  -5   -0.09    6.35
   6   0   5   -1.98    6.39
   6   0   6    3.56    9.20
   6   0   7   -2.84    6.67
   6   0   8   46.46   11.23
   6   0   8   42.01    7.85
   6  -2   0   49.02    6.95
  -6   2   0   43.82    6.84
   6   2   0   43.96    6.91
  -6  -2   0   45.69    9.68
   6  -2   1  122.45    9.62
   6   2   1  121.23    9.65
  -6  -2  -1  114.62    9.53
  -6   2  -1  115.87    7.07
   6   2   2   28.80    9.24
  -6   2  -2   31.99    6.61
   6  -2   2   32.78    9.22
  -6  -2  -2   33.98    9.01
  -6  -2  -3  853.23   12.14
  -6   2  -3  822.88    9.71
   6  -2   3  840.74   11.97
   6   2   3  800.39   10.20
   6  -2   4    5.50    6.45
  -6   2  -4    3.29    9.06
   6   2   4    3.08    8.99
  -6  -2  -4    6.57    8.75
   6  -2   5   23.54    6.60
   6   2   5   21.99    6.50
   6  -2   6   23.84    6.67
   6   2   6   18.66    9.39
   6  -2   7   15.56    6.82
   6   2   7   21.28    9.57
   6  -2   8   78.24    8.29
   6   2   8   72.88    8.18
   6   2   8   80.40    8.39
   6  -4   0   22.50    9.12
  -6   4   0   25.10    9.13
  -6  -4   0   23.78    6.56
   6   4   0   26.22    9.18
  -6  -4  -1   11.38    9.02
   6  -4   1   12.45    9.04
  -6   4  -1    9.27    6.41
   6   4   1   11.22    9.03
  -6   4  -2  677.40   11.72
  -6  -4  -2  696.66   12.46
   6   4   2  680.45   12.30
   6  -4   2  646.21    9.77
  -6  -4  -3  404.73   11.13
   6   4   3  394.08   11.12
   6  -4   3  407.13   10.73
   6   4   4  690.94   12.56
   6  -4   4  696.90   11.99
   6   4   5  377.09    8.69
   6  -4   5  404.19   11.03
   6   4   6   31.64    9.85
   6  -4   6   31.54    6.94
   6  -4   6   26.85    6.78
   6   4   7   40.58   11.52
   6  -4   7   40.75    7.95
   6  -4   7   30.36    8.29
   6   4   7   42.80   11.27
   6   6   0   33.36    9.60
  -6  -6   0   33.30   11.74
   6  -6   0   30.48    9.56
  -6  -6  -1  128.49   12.47
   6   6   1  123.70   12.43
   6  -6   1  115.53   10.04
   6  -6   1  131.06    9.94
   6   6   2  118.73   10.25
   6  -6   2  108.34   10.10
   6  -6   2  123.73    9.87
   6  -6   3  112.57    7.42
   6  -6   3  115.19   10.02
   6   6   3  116.37   10.35
   6  -6   4   41.20    7.08
   6  -6   4   37.94    7.93
   6   6   4   42.91   11.14
   6   6   4   37.60   10.55
   6   6   5   66.87    8.42
   6  -6   5   76.28    8.32
   6   6   5   71.50   11.55
   6  -6   5   75.26   11.75
   6  -8   0    2.15    9.56
   6  -8   1   28.41   10.91
   7  -1   0    0.91    9.61
   7   1   0    2.80    9.44
  -7   1   0    5.65    9.38
  -7  -1   0    4.77    6.69
   7  -1   1  485.39   10.87
  -7   1  -1  468.67    8.47
   7   1   1  480.11   10.88
  -7  -1  -1  471.15    8.62
   7   1   2  512.45    8.73
  -7   1  -2  510.21    8.56
  -7  -1  -2  510.79   10.79
   7  -1   2  531.69   10.84
  -7  -1  -3    7.45    6.37
   7  -1   3   -2.86    9.33
   7   1   3   -2.12    9.25
  -7   1  -3    6.23    6.53
  -7  -1  -4   29.79    6.45
   7  -1   4   25.51    6.46
   7   1   4   25.03    9.16
  -7   1  -4   28.07    9.08
  -7   1  -5  208.71    7.36
   7  -1   5  200.03    7.30
   7   1   5  193.64    7.28
  -7  -1  -5  196.64    7.18
   7  -1   6   56.23    9.52
   7   1   6   56.01    6.72
   7  -1   7   30.24    7.79
   7   1   7   33.57    7.81
  -7   3   0 1557.49   15.17
   7  -3   0 1556.93   15.05
   7   3   0 1567.45   15.39
  -7  -3   0 1553.10   15.26
   7  -3   1 1714.73   15.59
  -7  -3  -1 1666.63   13.91
   7   3   1 1720.49   15.95
  -7   3  -1 1717.05   14.12
   7   3   2  119.41    6.95
  -7  -3  -2  117.91    9.38
  -7   3  -2  118.98    6.85
   7  -3   2  118.11    9.52
   7   3   3   34.18    9.16
  -7   3  -3   29.13    6.40
   7  -3   3   28.42    9.21
  -7  -3  -3   31.01    9.04
   7   3   4  357.10   10.61
   7  -3   4  375.64   10.55
  -7  -3  -4  357.99    8.20
   7   3   5  583.56   11.70
   7  -3   5  570.27   11.52
   7   3   6  469.62   11.54
   7  -3   6  443.48    8.89
   7   3   7    4.95    7.93
   7  -3   7    2.90   10.96
   7  -3   7   -1.08   11.29
   7   5   0  282.85   10.71
  -7   5   0  272.65   10.75
  -7  -5   0  253.23    8.22
   7  -5   0  251.14    8.13
   7  -5   1 2428.54   20.57
  -7   5  -1 2412.16   21.58
  -7  -5  -1 2447.34   21.77
   7   5   1 2519.82   22.21
   7  -5   2   37.81    6.81
   7   5   2   37.22    9.63
  -7  -5  -2   38.65    9.61
   7  -5   3  761.64   10.67
  -7  -5  -3  806.22   13.83
   7   5   3  776.93   13.61
   7   5   4    7.50    9.66
   7  -5   4    3.15    6.82
   7   5   5   24.41   11.34
   7  -5   5   22.96   10.90
   7  -5   5   24.89   11.23
  -7  -7   0  418.14   17.75
   7  -7   0  465.19   13.99
   7   7   0  494.93   21.74
   7  -7   0  419.82   13.53
   7   7   1   29.17   14.20
   7  -7   1   30.82    9.55
   7  -7   1   26.76    9.69
   7   7   2  135.78   14.96
   7  -7   2  127.78   11.81
   7  -7   2  127.41   11.61
   7   7   2  118.13   14.86
   7  -7   3    1.64   11.41
   7   7   3    1.90   13.74
   8   0   010795.84   39.55
  -8   0   010058.69   37.87
   8   0   1    2.42    6.50
  -8   0  -1    2.03    9.20
   8   0   2  271.82    7.79
  -8   0  -2  279.02    7.52
  -8   0  -3   -0.24    6.45
   8   0   3   -4.38    6.53
  -8   0  -4  454.39   10.60
   8   0   4  465.49   10.64
   8   0   5    3.96    9.26
  -8   0  -5    2.12    6.50
   8   0   6  160.54    7.32
   8   0   7   -3.75    7.86
   8  -2   0 3139.71   19.46
  -8   2   0 3061.46   17.81
   8   2   0 3138.74   18.44
  -8  -2   0 3122.78   19.45
  -8   2  -1 1896.26   13.44
   8  -2   1 1959.97   15.56
   8   2   1 1925.98   14.31
  -8  -2  -1 1889.37   15.50
   8  -2   2   65.30    6.81
   8   2   2   67.44    6.76
  -8   2  -2   66.22    9.28
  -8  -2  -2   63.71    9.21
   8   2   3   68.97    6.65
  -8  -2  -3   73.68    6.60
  -8   2  -3   76.28    6.66
   8  -2   3   64.27    6.80
   8   2   4  230.84    7.42
  -8  -2  -4  237.12    9.82
  -8   2  -4  236.61    9.80
   8  -2   4  240.22    9.97
   8   2   5   18.98    9.43
  -8  -2  -5   28.08    9.17
   8  -2   5   12.81    9.47
   8  -2   6    8.97    6.80
   8   2   6   10.80    9.61
   8  -2   7  103.55   11.71
   8   2   7  108.02   11.67
   8  -4   0    3.08    8.93
  -8  -4   0    3.90    8.95
  -8   4   0    1.95    8.89
   8   4   0    4.02    8.88
  -8   4  -1   66.44    9.13
  -8  -4  -1   56.80    6.71
   8  -4   1   59.77    9.25
   8   4   1   59.22    6.63
   8  -4   2  468.40    8.72
  -8   4  -2  503.96   10.97
   8   4   2  490.75   11.22
  -8  -4  -2  495.77   11.29
   8  -4   3  870.98   10.38
   8   4   3  827.30   10.70
  -8  -4  -3  895.64   11.14
  -8   4  -3  865.15   10.41
  -8  -4  -4   29.35    9.42
   8   4   4   26.61    9.62
   8  -4   4   27.16    6.83
   8   4   5  202.13   10.58
   8  -4   5  215.82   10.53
   8   4   6    1.13    8.19
   8  -4   6    8.24    8.06
  -8  -6   0  251.10   10.99
   8   6   0  252.77   11.02
   8  -6   0  240.85   10.77
  -8  -6  -1   89.62    9.98
   8   6   1   79.73    9.92
   8  -6   1   78.13    7.19
   8  -6   2    1.01    9.49
  -8  -6  -2   -0.60    9.53
   8   6   2    0.21    9.54
   8  -6   3  242.73   12.19
   8   6   3  239.94   12.29
   8  -6   4    1.99   11.46
   8  -6   4    5.38   11.31
   8   6   4    1.17    7.98
   9  -1   0  597.35    8.90
   9   1   0  577.78    8.74
  -9   1   0  572.29    8.74
  -9  -1   0  577.53   10.84
  -9   1  -1   56.90    6.67
   9  -1   1   60.51    9.39
   9   1   1   55.19    6.79
  -9  -1  -1   54.92    6.60
   9  -1   2 3224.65   18.66
   9   1   2 3333.27   19.57
  -9   1  -2 3211.18   18.77
  -9  -1  -2 3070.37   17.04
   9  -1   3   39.72    6.65
   9   1   3   40.07    9.26
  -9   1  -3   37.58    6.66
  -9  -1  -3   35.76    6.58
   9   1   4  169.67    9.70
  -9   1  -4  165.43    7.19
  -9  -1  -4  161.88    7.03
   9  -1   4  163.13    7.22
   9   1   5   -1.32    9.36
  -9  -1  -5    3.45    9.28
  -9   1  -5    5.52    9.31
   9  -1   5    3.55    6.65
   9   1   6  184.53    8.49
   9  -1   6  187.46    8.38
  -9   3   0    0.20    6.29
   9  -3   0    0.43    6.31
   9   3   0   -2.74    8.87
  -9  -3   0    3.80    6.26
   9  -3   1  574.69   11.07
  -9  -3  -1  584.10   11.23
   9   3   1  548.00    8.86
  -9   3  -1  569.52   10.88
   9  -3   2  769.69    9.79
  -9   3  -2  781.38    9.84
   9   3   2  765.68    9.87
  -9  -3  -2  810.71   12.10
   9  -3   3  791.83   12.02
  -9  -3  -3  768.09    9.93
  -9   3  -3  755.45    9.71
   9   3   3  770.00   12.28
   9  -3   4   78.42    7.03
  -9  -3  -4   89.49    9.42
   9   3   4   81.12    9.59
  -9   3  -4   87.12    9.41
   9   3   5   26.74    6.86
  -9  -3  -5   23.16    9.46
   9  -3   5   27.73    6.93
   9   3   6  125.78    8.53
   9  -3   6  115.89   11.81
   9   5   0    1.46    9.24
  -9   5   0    3.34    9.27
  -9  -5   0    4.53    9.25
   9  -5   0    0.46    9.17
  -9   5  -1   72.66    9.51
   9  -5   1   70.86    9.55
   9   5   1   75.44    9.64
  -9  -5  -1   72.32    7.03
  -9  -5  -2    3.15    6.69
   9  -5   2    3.02    6.65
  -9   5  -2    5.60    9.33
   9   5   2    2.99    9.43
   9  -5   3   91.17    9.90
   9   5   3   83.56   10.05
  -9  -5  -3   89.73    9.90
   9  -5   4  129.37   11.61
   9   5   4  130.70    8.68
  -9  -7   0    2.13   10.98
   9   7   0    0.26   13.60
   9  -7   0    0.88   10.86
  -9  -7  -1    6.32   11.14
   9   7   1    7.34   13.73
   9  -7   1    8.33   11.09
   9  -7   1    8.23   11.16
  10   0   0  169.14    9.68
 -10   0   0  150.84    7.06
 -10   0  -1    9.07    8.95
  10   0   1    5.17    9.13
  10   0   2   61.47    6.72
 -10   0  -2   62.45    6.67
  10   0   3   -2.81    6.51
 -10   0  -3   11.07    9.09
  10   0   4 1701.15   14.84
 -10   0  -4 1618.80   12.38
  10   0   5    0.12    9.49
 -10   0  -5   -6.39    9.52
  10   0   6  315.74    9.19
  10  -2   0  563.11    8.74
 -10   2   0  547.01    8.62
  10   2   0  553.80    8.72
 -10  -2   0  550.08    8.74
 -10   2  -1  222.64    7.26
  10  -2   1  231.49    9.84
 -10  -2  -1  222.56    9.74
  10   2   1  234.94    9.90
  10  -2   2  233.89    9.86
  10   2   2  231.96    9.87
 -10   2  -2  223.08    9.73
 -10  -2  -2  225.47    9.86
  10  -2   3   24.13    6.65
  10   2   3   25.84    9.27
 -10  -2  -3   33.19    9.17
 -10   2  -3   26.28    6.58
  10  -2   4  680.19   11.64
  10   2   4  663.96   11.75
 -10  -2  -4  608.11    9.21
 -10   2  -4  658.31   11.44
  10  -2   5   83.01    9.90
  10   2   5   83.56    7.10
 -10   2  -5   90.03    7.00
 -10  -2  -5   77.03    6.98
  10  -2   6   13.16    8.04
  10   2   6   15.04   11.29
  10  -4   0   53.70    6.64
 -10  -4   0   56.44    9.34
 -10   4   0   59.41    9.21
  10   4   0   61.70    9.14
 -10  -4  -1   13.14    6.47
 -10   4  -1   11.83    6.48
  10  -4   1   11.96    6.40
  10   4   1   12.46    9.05
  10  -4   2    6.85    6.47
 -10   4  -2   10.02    6.43
  10   4   2    7.83    9.22
 -10  -4  -2    4.75    6.58
  10  -4   3   27.12    9.48
 -10   4  -3   25.41    6.56
  10   4   3   26.01    9.57
 -10  -4  -3   29.69    6.74
  10  -4   4  114.45   10.75
  10   4   4  122.02    8.32
 -10  -4  -4  112.59   10.66
  10  -4   5  217.71   12.17
  10   4   5  202.67    9.04
 -10  -6   0   34.44    9.77
  10   6   0   30.67    9.74
 -10   6   0   29.11    9.85
  10  -6   0   31.56    9.65
  10   6   1  376.55   11.73
 -10  -6  -1  368.54   11.84
  10  -6   1  356.22    9.02
 -10  -6  -2  149.65   11.95
  10  -6   2  145.65   11.85
  10   6   2  145.05   11.94
  11  -1   0   89.45    9.37
 -11   1   0   86.80    6.70
  11   1   0   85.18    6.77
 -11  -1   0   78.59    6.61
 -11   1  -1  369.59   10.15
 -11  -1  -1  355.44    7.85
  11  -1   1  364.11    7.98
  11   1   1  361.76    8.01
  11  -1   2   23.61    6.63
  11   1   2   25.90    9.24
 -11   1  -2   28.10    9.17
 -11  -1  -2   23.12    9.27
 -11   1  -3  164.66    7.14
  11  -1   3  165.77    9.88
  11   1   3  157.00    7.15
 -11  -1  -3  157.84    7.08
  11  -1   4   48.29    6.94
  11   1   4   54.82    6.90
 -11   1  -4   58.19    9.53
 -11  -1  -4   46.39    9.63
  11  -1   5  108.38    8.30
  11   1   5  115.03    8.22
 -11  -1  -5  104.41    8.15
 -11   1  -5  105.90    8.15
 -11   3   0  152.42    9.62
  11  -3   0  144.89    9.58
 -11  -3   0  147.04    9.60
  11   3   0  140.71    6.95
 -11  -3  -1  658.25   11.56
  11  -3   1  655.56    9.13
  11   3   1  655.95    9.10
 -11   3  -1  645.99   11.20
 -11   3  -2   30.58    9.19
  11  -3   2   29.03    9.24
  11   3   2   32.33    6.53
 -11  -3  -2   28.12    6.61
 -11  -3  -3   64.31    6.79
  11  -3   3   62.40    6.94
 -11   3  -3   62.58    9.42
  11   3   3   63.27    6.87
 -11   3  -4   19.52    9.35
  11  -3   4   14.94    9.68
 -11  -3  -4   10.45    6.80
  11   3   4   17.75    9.53
  11  -3   5  116.20   11.82
  11   3   5  111.84    8.52
 -11  -3  -5  111.24    8.38
 -11   5   0  963.84   11.67
 -11  -5   0  934.81   11.51
  11  -5   0  986.40   13.64
  11   5   0 1016.46   13.85
  11  -5   1  421.09    8.87
 -11   5  -1  416.07    8.77
  11   5   1  422.55    8.93
 -11  -5  -1  426.20    9.08
 -11  -5  -2   71.71    9.97
  11  -5   2   77.97    9.85
 -11   5  -2   69.90    7.04
  11   5   2   76.11    9.93
 -11  -5  -3    5.59    8.07
  11  -5   3    6.67   11.21
  11   5   3    8.20   11.30
  12   0   0  153.61    7.05
 -12   0   0  146.48    9.45
 -12   0  -1   -5.31    6.50
  12   0   1   -1.48    6.49
  12   0   2  479.56   10.83
 -12   0  -2  453.13   10.68
 -12   0  -3    0.28    6.61
  12   0   3    4.04    9.38
  12   0   4   65.57    7.04
 -12   0  -4   68.68    7.00
 -12   0  -5   -4.33   11.19
  12   0   5   -3.41    7.94
 -12   2   0 1085.05   12.46
  12  -2   0 1054.11   10.35
 -12  -2   0 1058.94   12.55
  12   2   0 1107.24   12.63
 -12   2  -1  533.20   10.84
 -12  -2  -1  514.37    8.64
  12  -2   1  530.26    8.50
  12   2   1  521.44    8.64
  12  -2   2  854.92   12.10
  12   2   2  811.18    9.69
 -12   2  -2  809.90    9.73
 -12  -2  -2  816.28    9.95
  12  -2   3  619.56   11.54
 -12  -2  -3  586.07    9.10
  12   2   3  592.13   11.47
 -12   2  -3  568.06    9.00
  12  -2   4  449.88    9.62
  12   2   4  461.17   12.44
 -12  -2  -4  409.36    9.39
 -12   2  -4  431.35   12.31
 -12  -4   0   76.64    9.55
  12  -4   0   81.30    9.38
 -12   4   0   81.13    9.44
  12   4   0   84.22    6.78
 -12  -4  -1   90.72    7.02
 -12   4  -1   90.87    9.54
  12  -4   1   95.37    6.91
  12   4   1   97.49    9.53
  12  -4   2  153.68    7.36
 -12  -4  -2  156.16   10.18
  12   4   2  156.80   10.02
 -12   4  -2  144.95    7.31
  12  -4   3   60.97   11.22
  12   4   3   68.71   11.21
 -12   4  -3   62.11   10.97
 -12  -4  -3   60.99    8.19
  12   6   0  408.82   12.97
 -12   6   0  386.80   12.92
  12  -6   0  385.73    9.86
 -12  -6   0  376.04   13.11
  12   6   1   18.12   11.39
 -12  -6  -1   15.88    8.26
 -12   6  -1   17.35   11.52
  12  -6   1   12.77    8.15
 -13   1   0  238.04    7.48
  13  -1   0  239.57    7.52
 -13  -1   0  237.51    7.38
  13   1   0  254.22    7.47
 -13   1  -1  593.82    8.81
 -13  -1  -1  588.39    8.81
  13  -1   1  634.69   11.16
  13   1   1  620.32    9.00
  13  -1   2    7.10    9.37
  13   1   2    2.77    6.60
 -13   1  -2    7.52    9.24
 -13  -1  -2    5.01    9.24
 -13   1  -3  204.62    7.55
 -13  -1  -3  206.52    7.64
  13  -1   3  222.22   10.17
  13   1   3  196.92    7.52
 -13   1  -4   10.41    7.83
  13  -1   4   18.01    7.87
  13   1   4   20.33   11.08
 -13  -1  -4   10.28    7.87
 -13   3   0  690.49   11.37
 -13  -3   0  640.42    8.97
  13  -3   0  664.45    8.98
  13   3   0  679.07    9.29
 -13  -3  -1   76.99    6.96
  13  -3   1   82.82    6.83
  13   3   1   78.78    6.85
 -13   3  -1   80.23    6.84
 -13   3  -2  292.20    7.86
  13  -3   2  299.18    7.94
  13   3   2  300.84   10.42
 -13  -3  -2  288.99    7.95
 -13  -3  -3   19.25    7.86
  13  -3   3   20.06    7.95
 -13   3  -3   25.04   10.84
  13   3   3   24.56    7.76
 -13  -5   0   32.92    9.83
 -13   5   0   33.83    9.77
  13  -5   0   38.62    6.97
  13   5   0   33.69    7.00
  13  -5   1   13.10    7.86
 -13   5  -1   13.41    7.87
 -13  -5  -1   14.65    7.97
  13   5   1   17.46   11.07
  13  -5   2   12.91   11.12
 -14   0   0  472.31    8.18
  14   0   0  478.70    8.42
 -14   0  -1   -3.08    9.36
  14   0   1    1.96    6.66
  14   0   2  318.03    7.90
 -14   0  -2  310.00    7.74
 -14   0  -3   -0.91   11.01
  14   0   3   -2.98    7.79
 -14   2   0   24.66    9.32
 -14  -2   0   34.46    6.64
  14  -2   0   34.51    9.28
  14   2   0   31.22    9.31
 -14  -2  -1  428.99    8.36
  14  -2   1  447.09    8.42
  14   2   1  437.93    8.34
 -14   2  -1  442.66    8.21
  14  -2   2   83.27    9.77
 -14   2  -2   87.17    9.68
  14   2   2   88.42    6.99
 -14  -2  -2   84.94    9.71
 -14  -2  -3   33.28   11.14
  14  -2   3   30.02   11.20
  14   2   3   34.55    7.92
 -14   2  -3   27.59   11.15
 -14  -4   0    5.16    6.82
  14  -4   0    7.10    9.33
 -14   4   0    7.45    6.66
  14   4   0    8.74    6.66
 -14   4  -1  361.77    9.23
  14  -4   1  387.32    9.24
  14   4   1  397.18    9.35
 -14  -4  -1  388.48   12.31
  14  -4   2   38.54    8.08
 -14  -4  -2   48.28   11.42
 -14   4  -2   47.12   11.11
  14   4   2   43.82    8.17
 -15   1   0  804.54    9.50
 -15  -1   0  800.08    9.67
  15  -1   0  844.08   11.92
  15   1   0  839.77    9.79
 -15  -1  -1  126.04    7.21
  15  -1   1  125.09    9.82
  15   1   1  129.36    7.15
 -15   1  -1  124.67    9.80
  15  -1   2  144.08    7.52
  15   1   2  153.13   10.82
 -15   1  -2  143.26   10.75
 -15  -1  -2  141.15    8.23
 -15  -1  -3  100.66    8.34
  15  -1   3  100.90   11.68
  15   1   3  101.07   11.50
 -15   1  -3   90.43    8.44
 -15   3   0  822.42    9.99
 -15  -3   0  822.08   10.14
  15  -3   0  852.13   12.25
  15   3   0  862.45   12.31
 -15  -3  -1  270.35    8.77
  15  -3   1  277.31    8.75
 -15   3  -1  274.94    8.72
  15   3   1  274.54    8.66
 -15   3  -2  168.87   11.54
  15  -3   2  175.88   11.72
 -15  -3  -2  165.75    8.62
  15   3   2  167.10   11.73
 -15   5   0   13.59    8.01
  15  -5   0   14.96    7.95
 -16   0   0 1582.76   12.36
  16   0   0 1635.33   12.17
 -16   0  -1   -0.44    6.80
  16   0   1   -0.66    6.84
  16   0   2   39.51   11.30
 -16   0  -2   26.12    8.08
 -16   2   0    1.96    9.43
 -16  -2   0    6.79    9.43
  16  -2   0    1.86    6.67
  16   2   0    4.88    9.40
 -16  -2  -1   34.47    7.90
  16  -2   1   41.68    7.82
  16   2   1   34.06   11.06
 -16   2  -1   37.04    7.77
 -16   2  -2  324.40    8.83
 -16  -4   0  129.43    8.50
 -16   4   0  124.80   11.51
  16  -4   0  126.91    8.33
  16   4   0  129.04    8.23
 -17   1   0  277.74   11.07
 -17  -1   0  260.01    8.68
  17  -1   0  277.32    7.82
  17   1   0  273.16   11.08
  17  -1   1   58.87   11.39
  17   1   1   56.20   11.38
 -17   1  -1   51.75   11.33
 -17  -1  -1   50.84    8.17
 -17  -3   0   27.32    8.03
  17  -3   0   29.51    7.83
  17   3   0   24.81    7.92
 -17   3   0   27.54    7.91
 -18   0   0    4.97   11.13
  18   0   0   -0.91    7.99
;
_shelx_hkl_checksum              11511
loop_
_space_group_symop_operation_xyz
'x, y, z'
'-x, y, -z+1/2'
'x+1/2, y+1/2, z'
'-x+1/2, y+1/2, -z+1/2'
'-x, -y, -z'
'x, -y, z-1/2'
'-x+1/2, -y+1/2, -z'
'x+1/2, -y+1/2, z-1/2'
loop_
_atom_site_label
_atom_site_type_symbol
_atom_site_fract_x
_atom_site_fract_y
_atom_site_fract_z
_atom_site_U_iso_or_equiv
_atom_site_adp_type
_atom_site_occupancy
_atom_site_site_symmetry_order
_atom_site_calc_flag
O1 O 0.06740(6) 0.48068(16) 0.43536(13) 0.0395(3) Uani 1 1 d
O2 O 0.18461(6) 0.56813(15) 0.39244(12) 0.0343(3) Uani 1 1 d
N1 N 0.16833(6) 0.00680(17) 0.22016(13) 0.0272(3) Uani 1 1 d
N2 N 0.19298(6) 0.19333(16) 0.28732(12) 0.0250(3) Uani 1 1 d
N3 N 0.12394(6) 0.44694(16) 0.38240(12) 0.0242(3) Uani 1 1 d
C1 C 0.08247(7) -0.05400(19) 0.19681(14) 0.0246(3) Uani 1 1 d
C2 C 0.04609(7) 0.10353(17) 0.25163(13) 0.0201(3) Uani 1 1 d
C3 C 0.11905(6) 0.25113(17) 0.30625(12) 0.0206(3) Uani 1 1 d
H1N H 0.2117(11) -0.059(3) 0.207(2) 0.042(4) Uiso 1 1 d
H1 H 0.0565(10) -0.184(2) 0.1502(19) 0.029(4) Uiso 1 1 d
loop_
_atom_site_aniso_label
_atom_site_aniso_U_11
_atom_site_aniso_U_22
_atom_site_aniso_U_33
_atom_site_aniso_U_23
_atom_site_aniso_U_13
_atom_site_aniso_U_12
O1 0.0367(5) 0.0371(6) 0.0591(7) -0.0177(4) 0.0346(5) -0.0077(4)
O2 0.0291(4) 0.0255(5) 0.0507(6) 0.0005(4) 0.0210(4) -0.0072(3)
N1 0.0205(5) 0.0307(6) 0.0344(5) -0.0028(4) 0.0163(4) 0.0052(4)
N2 0.0189(4) 0.0291(6) 0.0308(5) 0.0008(4) 0.0149(4) 0.0015(4)
N3 0.0188(4) 0.0235(5) 0.0309(5) 0.0004(3) 0.0125(4) -0.0010(3)
C1 0.0208(5) 0.0246(6) 0.0294(5) -0.0010(4) 0.0129(4) 0.0028(4)
C2 0.0170(5) 0.0211(6) 0.0240(5) 0.0015(4) 0.0112(3) 0.0012(4)
C3 0.0165(5) 0.0227(6) 0.0251(5) 0.0023(4) 0.0119(4) 0.0009(4)
loop_
_atom_type_symbol
_atom_type_description
_atom_type_scat_dispersion_real
_atom_type_scat_dispersion_imag
_atom_type_scat_source
C C 0.0033 0.0016 'International Tables Vol C Tables 4.2.6.8 and 6.1.1.4'
H H 0.0000 0.0000 'International Tables Vol C Tables 4.2.6.8 and 6.1.1.4'
N N 0.0061 0.0033 'International Tables Vol C Tables 4.2.6.8 and 6.1.1.4'
O O 0.0106 0.0060 'International Tables Vol C Tables 4.2.6.8 and 6.1.1.4'
loop_
_geom_angle_atom_site_label_1
_geom_angle_atom_site_label_2
_geom_angle_atom_site_label_3
_geom_angle
_geom_angle_site_symmetry_3
N2 N1 C1 113.52(9) .
N2 N1 H1N 115.5(11) .
C1 N1 H1N 130.7(12) .
C3 N2 N1 103.31(9) .
O2 N3 O1 124.13(11) .
O2 N3 C3 118.33(9) .
O1 N3 C3 117.54(9) .
N1 C1 C2 107.19(11) .
N1 C1 H1 122.0(8) .
C2 C1 H1 130.8(8) .
C1 C2 C3 102.43(9) .
C1 C2 C2 125.79(8) 2
C3 C2 C2 131.78(7) 2
N2 C3 C2 113.55(10) .
N2 C3 N3 117.80(9) .
C2 C3 N3 128.61(9) .
loop_
_geom_bond_atom_site_label_1
_geom_bond_atom_site_label_2
_geom_bond_distance
_geom_bond_site_symmetry_2
O1 N3 1.2248(12) .
O2 N3 1.2217(12) .
N1 N2 1.3334(15) .
N1 C1 1.3444(14) .
N1 H1N 0.869(18) .
N2 C3 1.3261(12) .
N3 C3 1.4352(15) .
C1 C2 1.3835(15) .
C1 H1 0.951(16) .
C2 C3 1.4078(14) .
C2 C2 1.4589(19) 2
loop_
_geom_torsion_atom_site_label_1
_geom_torsion_atom_site_label_2
_geom_torsion_atom_site_label_3
_geom_torsion_atom_site_label_4
_geom_torsion
_geom_torsion_site_symmetry_1
_geom_torsion_site_symmetry_4
C1 N1 N2 C3 -0.11(12) . .
N2 N1 C1 C2 0.26(13) . .
N1 C1 C2 C3 -0.27(12) . .
N1 C1 C2 C2 179.56(12) . 2
N1 N2 C3 C2 -0.08(12) . .
N1 N2 C3 N3 178.00(9) . .
C1 C2 C3 N2 0.22(12) . .
C2 C2 C3 N2 -179.60(12) 2 .
C1 C2 C3 N3 -177.59(10) . .
C2 C2 C3 N3 2.6(2) 2 .
O2 N3 C3 N2 15.42(14) . .
O1 N3 C3 N2 -163.66(10) . .
O2 N3 C3 C2 -166.84(10) . .
O1 N3 C3 C2 14.08(16) . .
