#------------------------------------------------------------------------------
#$Date: 2018-12-07 03:40:10 +0200 (Fri, 07 Dec 2018) $
#$Revision: 212424 $
#$URL: file:///home/coder/svn-repositories/cod/cif/7/05/80/7058020.cif $
#------------------------------------------------------------------------------
#
# This file is available in the Crystallography Open Database (COD),
# http://www.crystallography.net/
#
# All data on this site have been placed in the public domain by the
# contributors.
#
data_7058020
loop_
_publ_author_name
'Domasevitch, Konstantin V.'
'Gospodinov, Ivan'
'Krautscheid, Harald'
'Klapoetke, Thomas M.'
'Stierstorfer, Joerg'
_publ_section_title
;
 Facile and selective polynitrations at the 4-pyrazolyl dual backbone: A
 straightforward access to a series of high-density energetic materials
;
_journal_name_full               'New Journal of Chemistry'
_journal_paper_doi               10.1039/C8NJ05266B
_journal_year                    2018
_chemical_formula_moiety         'C6 H4 N6 O4'
_chemical_formula_sum            'C6 H4 N6 O4'
_chemical_formula_weight         224.15
_chemical_name_systematic
;
3,5-Dinitro-4,4'-bipyrazole
;
_space_group_crystal_system      monoclinic
_space_group_IT_number           15
_space_group_name_Hall           '-C 2yc'
_space_group_name_H-M_alt        'C 1 2/c 1'
_symmetry_space_group_name_Hall  '-C 2yc'
_symmetry_space_group_name_H-M   'C 1 2/c 1'
_atom_sites_solution_hydrogens   difmap
_atom_sites_solution_primary     direct
_atom_sites_solution_secondary   difmap
_audit_creation_method           SHELXL-2014/7
_audit_update_record
;
2018-04-11 deposited with the CCDC.
2018-12-06 downloaded from the CCDC.
;
_cell_angle_alpha                90
_cell_angle_beta                 107.434(10)
_cell_angle_gamma                90
_cell_formula_units_Z            4
_cell_length_a                   6.1653(7)
_cell_length_b                   15.7789(12)
_cell_length_c                   8.7387(10)
_cell_measurement_reflns_used    3458
_cell_measurement_temperature    213(2)
_cell_measurement_theta_max      27.942
_cell_measurement_theta_min      3.555
_cell_volume                     811.06(15)
_computing_cell_refinement       'IPDS Software (Stoe & Cie, 2000)'
_computing_data_collection       'IPDS Software (Stoe & Cie, 2000)'
_computing_data_reduction        'IPDS Software (Stoe & Cie, 2000)'
_computing_molecular_graphics    'Diamond 2.1e (Brandenburg, 1999)'
_computing_publication_material  'WinGX 1.70.01 (Farrugia, 1999)'
_computing_structure_refinement  'SHELXL-2014/7 (Sheldrick, 2014)'
_computing_structure_solution    'SHELXS-97 (Sheldrick, 2008)'
_diffrn_ambient_temperature      213(2)
_diffrn_measured_fraction_theta_full 0.988
_diffrn_measured_fraction_theta_max 0.985
_diffrn_measurement_device_type  'Stoe Image Plate Diffraction System'
_diffrn_measurement_method       '\f oscillation scans'
_diffrn_radiation_type           MoK\a
_diffrn_radiation_wavelength     0.71073
_diffrn_reflns_av_R_equivalents  0.0235
_diffrn_reflns_av_unetI/netI     0.0188
_diffrn_reflns_Laue_measured_fraction_full 0.988
_diffrn_reflns_Laue_measured_fraction_max 0.985
_diffrn_reflns_limit_h_max       8
_diffrn_reflns_limit_h_min       -7
_diffrn_reflns_limit_k_max       20
_diffrn_reflns_limit_k_min       -20
_diffrn_reflns_limit_l_max       11
_diffrn_reflns_limit_l_min       -11
_diffrn_reflns_number            3458
_diffrn_reflns_point_group_measured_fraction_full 0.988
_diffrn_reflns_point_group_measured_fraction_max 0.985
_diffrn_reflns_theta_full        25.242
_diffrn_reflns_theta_max         27.942
_diffrn_reflns_theta_min         3.555
_diffrn_source                   'fine-focus sealed tube'
_exptl_absorpt_coefficient_mu    0.157
_exptl_absorpt_correction_type   none
_exptl_crystal_colour            pale-yellow
_exptl_crystal_density_diffrn    1.836
_exptl_crystal_description       plate
_exptl_crystal_F_000             456
_exptl_crystal_size_max          0.270
_exptl_crystal_size_mid          0.250
_exptl_crystal_size_min          0.220
_refine_diff_density_max         0.344
_refine_diff_density_min         -0.193
_refine_diff_density_rms         0.045
_refine_ls_extinction_method     none
_refine_ls_goodness_of_fit_ref   1.089
_refine_ls_hydrogen_treatment    refall
_refine_ls_matrix_type           full
_refine_ls_number_parameters     82
_refine_ls_number_reflns         959
_refine_ls_number_restraints     0
_refine_ls_restrained_S_all      1.089
_refine_ls_R_factor_all          0.0387
_refine_ls_R_factor_gt           0.0337
_refine_ls_shift/su_max          0.000
_refine_ls_shift/su_mean         0.000
_refine_ls_structure_factor_coef Fsqd
_refine_ls_weighting_details
'w=1/[\s^2^(Fo^2^)+(0.0604P)^2^+0.1849P] where P=(Fo^2^+2Fc^2^)/3'
_refine_ls_weighting_scheme      calc
_refine_ls_wR_factor_gt          0.0896
_refine_ls_wR_factor_ref         0.0910
_reflns_Friedel_coverage         0.000
_reflns_number_gt                835
_reflns_number_total             959
_reflns_threshold_expression     'I > 2\s(I)'
_cod_data_source_file            c8nj05266b2.cif
_cod_data_source_block           3
_cod_database_code               7058020
_shelx_shelxl_version_number     2014/7
_shelx_space_group_comment
;
The symmetry employed for this shelxl refinement is uniquely defined
by the following loop, which should always be used as a source of
symmetry information in preference to the above space-group names.
They are only intended as comments.
;
_shelx_estimated_absorpt_t_min   0.959
_shelx_estimated_absorpt_t_max   0.966
_shelx_res_file
;

    ip1_1858.res created by SHELXL-2014/7

TITL ip1_1858 in C2/c
CELL  0.71073   6.1653  15.7789   8.7387   90.000  107.434   90.000
ZERR     4.00   0.0007   0.0012   0.0010    0.000    0.010    0.000
LATT   7
SYMM  - X,   Y, 1/2 - Z
SFAC  C    H    N    O
UNIT  24   16   24   16
MERG   2
EQIV $1 0.5-X, -0.5+Y, 0.5-Z
EQIV $2 1-X, Y, 0.5-Z
EQIV $3 X, -Y, -0.5+Z

RTAB XHY N1 H1N N2_$1
RTAB XHY N1 H1N O1_$1
RTAB XHY C1 H1 O2_$2
RTAB XHY C1 H1 O2_$3

RTAB H..O H1N N2_$1
RTAB H..O H1N O1_$1
RTAB H..O H1 O2_$2
RTAB H..O H1 O2_$3

RTAB O..O N1 N2_$1
RTAB O..O N1 O1_$1
RTAB O..O C1 O2_$2
RTAB O..O C1 O2_$3

FMAP   2
PLAN    8
SIZE     0.22   0.25   0.27
ACTA
BOND
BOND   $H
CONF
L.S.   5
TEMP   -60.00
WGHT    0.060400    0.184900
FVAR       1.13243
O1    4    0.545068    0.214511    0.423275    11.00000    0.02010    0.02889 =
         0.03398   -0.00082    0.00374   -0.01230
O2    4    0.461788    0.082957    0.441940    11.00000    0.02369    0.02019 =
         0.06258    0.00454   -0.00689    0.00383
N1    3    0.088853   -0.109938    0.220730    11.00000    0.02854    0.01132 =
         0.03535   -0.00170    0.00553    0.00402
N2    3    0.111290    0.254763    0.288510    11.00000    0.01989    0.01140 =
         0.02448    0.00040    0.00567   -0.00152
N3    3    0.409842    0.156014    0.397695    11.00000    0.01591    0.01672 =
         0.02333   -0.00136    0.00442   -0.00203
C1    1    0.146653   -0.030364    0.202823    11.00000    0.02074    0.01308 =
         0.03090   -0.00163    0.00677    0.00133
C2    1    0.000000    0.023238    0.250000    10.50000    0.01532    0.01054 =
         0.02150    0.00000    0.00276    0.00000
C3    1    0.000000    0.115899    0.250000    10.50000    0.01450    0.00996 =
         0.02073    0.00000    0.00633    0.00000
C4    1    0.176484    0.173456    0.312524    11.00000    0.01504    0.01167 =
         0.02103    0.00011    0.00635   -0.00123
H1N   2    0.168233   -0.161694    0.209666    11.00000    0.06529
H1    2    0.271830   -0.018689    0.163758    11.00000    0.03095
HKLF    4

REM  ip1_1858 in C2/c
REM R1 =  0.0337 for     835 Fo > 4sig(Fo)  and  0.0387 for all     959 data
REM     82 parameters refined using      0 restraints

END

WGHT      0.0603      0.1863

REM Highest difference peak  0.344,  deepest hole -0.193,  1-sigma level  0.045
Q1    1   0.1007  0.1396  0.2877  11.00000  0.05    0.34
Q2    1   0.0000  0.0682  0.2500  10.50000  0.05    0.28
Q3    1   0.0959  0.0035  0.2409  11.00000  0.05    0.26
Q4    1   0.2830  0.1643  0.3396  11.00000  0.05    0.25
Q5    1   0.1452  0.2161  0.3286  11.00000  0.05    0.24
Q6    1   0.4674  0.0992  0.3601  11.00000  0.05    0.21
Q7    1   0.0000 -0.1111  0.2500  10.50000  0.05    0.21
Q8    1   0.0909 -0.0717  0.1825  11.00000  0.05    0.18
;
_shelx_res_checksum              21420
_shelx_hkl_file
;
  -7   5  -1  101.75    8.46   2
  -5  -1  -3   83.28    5.56   2
  -5   5   2   61.64    4.33   2
  -1  -5  -9   -2.38    6.20   2
   1   1   0  390.64    9.19   2
   3   5   0  338.93    5.66   2
   3  15   2   49.18    6.39   2
   3  17   2   43.21    7.39   2
   6  14  -2    2.23    9.39   2
  -5  13   4  230.50    9.78   3
  -4   2   1    2.60    4.63   3
  -3  -3  -3 1227.37   10.37   3
   2  -2  -3  209.08    7.81   3
   4  16   1   35.10   11.04   3
   5  -1 -10   16.19   10.22   3
   5  -1  -9    8.67    8.79   3
  -7   7   0   27.88    8.29   3
  -7   9   1  108.42    8.57   3
  -6   2  -2  206.73    6.81   3
  -6   4   0  124.76    5.77   3
  -6   8   2  208.44    6.30   3
  -6  12   3    4.15    7.01   3
  -5  -1  -4   18.68    5.28   3
  -5   1  -1  413.14    6.32   3
  -4  -2  -3  386.38    5.99   3
  -4   4   2  635.29    7.60   3
  -2  -4  -4    2.78    3.95   3
  -1  -5  -6  357.43    6.86   3
   2  16   3   19.13    6.22   3
   2  18   3   55.91    8.65   3
   4   0  -4  116.00    5.06   3
   4   8   0  148.81    4.90   3
   4  14   1  553.24    8.11   3
   6   2  -7   51.59    6.39   3
   6   6  -4  584.70    7.57   3
   6   8  -3    2.68    5.31   3
   6  12  -2  286.95    7.93   3
   7   7  -6   23.33    8.46   3
   7   9  -5    4.35    8.42   3
   1  -5  -9   33.56    9.54   3
  -6   6   1    0.64    7.46   4
  -5  -1  -6   -3.36   11.67   4
  -5  -1  -5    9.62    8.62   4
  -5  15   4   -1.35   11.65   4
  -1  -5  -8   33.60    7.71   4
  -1  -5  -7  112.51    7.22   4
   2   8   2 1600.91   12.03   4
   3  13   2  117.09    7.85   4
   5  -1  -8  140.79    8.28   4
   5   1  -5   71.49    6.83   4
   5   9  -1   79.03    7.20   4
   6   4  -5  113.02    7.84   4
  -6   2  -3  313.74    7.82   4
  -5   9   3  200.59    5.88   4
  -2  -4  -9  106.80    8.81   4
   2  14   3  174.05    6.28   4
   4  12   1  256.19    6.43   4
   5  15   0   58.90    8.63   4
   7   5  -7  122.75    8.70   4
   1  -5  -7  755.60   16.48   4
  -4  -2  -4  170.81    7.01   5
  -4   0  -1   -0.17    5.47   5
  -3  -3  -4   32.79    5.73   5
  -3  -1  -1 2037.09   12.22   5
   0   4   2  363.86   10.77   5
   1   9   3  538.85    9.11   5
   3   7   1  442.99    7.66   5
   4  -2  -6    2.34    5.57   5
   5  13   0   75.64    9.48   5
  -6   2  -4  259.05    8.92   5
  -6   4  -1  454.92    7.00   5
  -4  -2  -7    3.56    7.03   5
  -4  -2  -6   67.98    6.35   5
  -4  -2  -5  239.50    6.38   5
  -3  -3  -8    4.58    7.13   5
  -2  -4  -5   21.03    4.04   5
   2   2   0   71.35    4.02   5
   3  -1  -3 3349.72   17.60   5
   3  11   2  110.09    5.27   5
   5   5  -2   61.70    4.24   5
   6   2  -6  454.92    7.26   5
   6  10  -2   -2.05    6.07   5
   7   7  -5  384.34    8.34   5
   1  -5  -8   18.57    9.31   5
  -6  10   2    5.18    8.56   6
  -5   1  -2   14.99    6.30   6
  -5   3   0  331.24    7.23   6
  -4  12   4  135.84    8.36   6
  -2  -4  -8  524.57   10.77   6
   0  -4  -4   39.70    5.50   6
   0  12   4   82.23    7.15   6
   4   4  -1  146.97    6.34   6
   5  -1  -7   23.02    7.14   6
   5   3  -3  505.86    7.68   6
   7   9  -4   26.94   11.76   6
  -5   7   2   14.95    4.64   6
  -3  -3  -7    8.55    6.11   6
  -3  -3  -5  336.90    6.29   6
  -2  -4  -7  109.45    6.00   6
  -2  -4  -6  142.13    5.52   6
   2   4   1 1249.80   10.58   6
   2  12   3   39.77    4.85   6
   4   2  -2   27.02    3.61   6
   4  10   1   53.50    4.82   6
   5   7  -1   45.56    4.72   6
   5  11   0    7.87    5.34   6
   6   6  -3  250.49    6.36   6
   7   5  -6   -3.35    7.12   6
  -6   6   0   99.47    7.80   7
  -6   8   1  177.76    9.07   7
  -5   5   1 1284.63   10.70   7
  -4   8   3   11.17    5.40   7
  -3  -3  -6  173.43    8.12   7
  -2   6   3   95.62    6.54   7
   1   5   2  287.93    7.56   7
   1  17   4  204.25   10.88   7
   4   6   0  145.73    6.16   7
   6   0  -9   -0.39   10.03   7
   6   4  -4  411.35    8.91   7
   7   3  -8    2.93   11.92   7
  -6   4  -2   10.20    5.98   7
  -5   1  -3   82.23    5.60   7
   2   0  -1    3.14    3.38   7
   5   1  -4   38.64    4.17   7
   6   8  -2  208.75    6.20   7
   6  12  -1   81.18    7.42   7
   2  -4 -11   11.03   20.54   6
  -5  11   3 1346.21   12.64   8
  -4   0  -2  260.83    6.54   8
  -4   2   0  409.36    6.64   8
  -2  -2  -2 4978.69   20.02   8
   1  15   4  286.45    9.57   8
   3  -3  -5   23.89    5.07   8
   5  -1  -6  281.32    7.91   8
   6   0  -8    4.02    8.56   8
  -6   4  -3   41.65    6.99   8
  -6  12   2  284.77    8.18   8
  -5   1  -6   -2.15    8.21   8
  -5   1  -5   11.52    6.05   8
  -5   1  -4   14.37    5.24   8
  -5   3  -1   14.53    4.53   8
  -3   1   0 1662.95   11.16   8
   3   3   0  515.39    6.68   8
   3   9   2 2983.96   13.90   8
   4   0  -3    0.80    3.35   8
   4  16   2   -0.11    8.48   8
   5   9   0  434.20    7.00   8
   6   2  -5   14.73    5.35   8
   7   3  -7  422.90    8.65   8
   7   5  -5  253.62    7.80   8
   7   7  -4   -3.03    7.04   8
  -6   4  -4  118.41   11.81   9
  -6   6  -1  259.40    9.25   9
  -4  14   4  134.12    9.33   9
  -3  -1  -2    0.89    4.50   9
  -3   7   3  301.92    7.38   9
  -3  11   4  194.78    8.37   9
   0  -4 -10   11.04   10.05   9
   4  -2  -5  975.06   10.82   9
   4  14   2   27.69    9.38   9
   5  15   1   18.08   12.67   9
   6  10  -1  214.61    9.23   9
   7   9  -3   13.18   11.67   9
  -4   0  -3    0.21    3.78   9
  -4   4   1  137.35    4.91   9
  -4   6   2  274.91    5.82   9
  -1  -3  -3  265.45    6.33   9
   2   6   2  288.11    5.67   9
   2  10   3  303.78    6.05   9
   3   1  -1  326.14    6.07   9
   3  17   3    0.93    8.41   9
   4   8   1   37.60    4.87   9
   6   0  -7   -0.69    6.07   9
  -6   8   0   88.53    8.76  10
  -6  10   1  212.82    9.27  10
  -5  13   3  135.85    9.07  10
   1  -1  -1  403.49   11.95  10
   1  13   4  123.17    7.21  10
   3   5   1  219.66    5.93  10
   3  15   3  713.93   11.55  10
   5   3  -2  386.27    7.31  10
   5  13   1    1.27    9.95  10
  -6   6  -2   51.93    6.15  10
  -5   3  -2  146.53    5.23  10
  -5   5   0  552.97    7.12  10
  -5   9   2  110.04    5.23  10
  -4   0  -7    0.64    6.97  10
  -1  -3 -10   88.84    8.68  10
   4  12   2  188.05    6.18  10
   5   5  -1 1259.93    9.12  10
   6   4  -3  247.41    6.30  10
   6   6  -2 1586.49   10.21  10
   7   3  -6  350.43    8.29  10
  -2  10   4  335.48   14.53   9
  -5   7   1   42.76    6.52  11
  -4   0  -6  224.62    9.22  11
  -4   0  -4   31.90    6.34  11
  -4  16   4  103.85   10.56  11
  -3   3   1 8664.18   27.55  11
  -2   2   1  127.74    5.79  11
   3  13   3   50.47    7.73  11
   5  -1  -5   69.81    6.89  11
  -6   6  -4  105.10    9.49  11
  -6   6  -3   31.96    7.09  11
  -6  12   1   75.52    8.45  11
  -4   0  -5    1.30    5.16  11
  -4   2  -1 1832.75   10.82  11
  -3  -1  -3    8.30    4.01  11
  -3   5   2 1696.19   12.75  11
   5   1  -3  179.93    5.13  11
   5   7   0  423.41    6.38  11
   5  11   1 1188.71    9.99  11
   6   0  -6  162.07    6.17  11
   6   2  -4 1214.48    9.26  11
   6   8  -1  170.72    6.73  11
   6  12   0   19.49    8.32  11
   7   5  -4  315.41    8.00  11
   7   7  -3    5.00    7.03  11
  -6   8  -1  133.03    8.93  12
  -5   3  -3  669.50    9.47  12
  -5  15   3   19.61   11.53  12
  -4  10   3  692.43    9.93  12
  -3  -1  -8  541.85   11.68  12
  -2  -2  -9   22.94   10.13  12
  -2  -2  -3 5011.95   19.49  12
  -2   4   2 2041.08   17.96  12
   0  -4  -9  578.52   11.80  12
   0  -4  -5  252.92    7.64  12
   4   2  -1   34.25    4.88  12
   4   4   0   29.74    5.82  12
   7   1  -8   -0.30   11.85  12
  -6  10   0   42.61    7.09  12
  -5   3  -6  128.33    8.61  12
  -5   3  -5  299.31    7.96  12
  -5   3  -4   11.25    6.08  12
  -1  -1  -1 3608.84   23.13  12
   1   7   3  441.40    7.50  12
   3   7   2 1498.85   10.39  12
   7   3  -5   27.96    6.24  12
   7   9  -2   16.42    8.40  12
  -6   8  -2   28.31    9.86  13
  -5   5  -1  647.55    8.33  13
  -3  -1  -7   10.65    8.59  13
  -3  -1  -4  976.85    9.37  13
  -1  -3  -9   57.03    8.90  13
   0  10   4  204.11    7.81  13
   2  16   4   55.34   10.19  13
   3  -1  -2  596.49    8.63  13
   4  10   2    7.08    7.40  13
   7   1  -7   13.28   10.14  13
  -5  11   2    5.40    5.31  13
  -3  -1  -6  336.20    6.33  13
  -3  -1  -5  287.46    6.07  13
  -3   1  -1 2047.67   11.77  13
  -1  -3  -4    1.54    3.27  13
   3  11   3  652.66    7.75  13
   4  -2  -4 1648.84   11.94  13
   4   6   1   33.32    4.14  13
   5   9   1   25.13    5.32  13
   6  10   0   45.33    7.12  13
  -6   8  -3   64.46   11.71  14
  -4   2  -2  538.93    7.62  14
  -4   4   0   31.74    5.60  14
  -2  -2  -8  369.70   10.01  14
  -2  -2  -4 2191.55   13.15  14
   0  -4  -8  148.28    7.58  14
   0   6   3  404.26   10.16  14
   1  11   4  297.99    8.31  14
   2   8   3  798.45    9.52  14
   2  14   4  161.78    9.26  14
   3  -3  -4   25.70    5.02  14
   4   0  -2 4130.27   16.84  14
   5  -3  -9   12.68    8.74  14
   6   0  -5    2.89    7.43  14
   6   4  -2   48.92    7.65  14
  -6  10  -1   53.18    7.29  14
  -6  12   0   15.73    8.23  14
  -5   5  -2  669.06    7.74  14
  -5   7   0  405.07    6.48  14
  -5   9   1   67.24    5.55  14
  -2   0  -1   -1.37    2.91  14
   0  -4  -6   39.91    4.47  14
   6   2  -3 1017.90    8.49  14
   6   6  -1   -0.56    5.30  14
   7   5  -3   60.87    6.32  14
   7   7  -2    3.81    7.05  14
   2  -4  -5   46.52    7.93  14
  -4   2  -7   -0.10    9.93  15
  -4   6   1  650.71    8.42  15
  -4   8   2    4.98    5.52  15
  -3  13   4  109.98    8.27  15
  -2  -2  -7   -0.41    6.90  15
  -1  -3  -8   29.88    7.63  15
   0  -4  -7   -0.48    6.40  15
   2  -2  -2 1398.29   14.71  15
   5  -3  -8  147.07    8.54  15
   5  -1  -4   42.57    5.73  15
   5   3  -1 4079.18   15.66  15
   5   5   0  567.78    8.42  15
   5  13   2   -1.04   11.77  15
   6  -2  -9   18.68   10.18  15
   7   1  -6  343.46   10.99  15
   7   3  -4   83.94    8.83  15
  -6  10  -2   10.72    8.27  15
  -5   5  -6   22.06    9.27  15
  -5   5  -3  125.28    5.65  15
  -5  13   2   90.51    6.47  15
  -4   2  -3  384.07    5.88  15
  -2  -2  -6  940.20    9.07  15
  -2  -2  -5  124.01    4.88  15
  -1  -3  -5    8.97    3.98  15
   4   8   2  120.19    5.12  15
   4  14   3   96.65    7.50  15
   6   8   0   84.74    6.35  15
   2  -4 -10   79.16   13.09  15
   5  -3 -10   35.62   14.66  15
  -6  12  -1  458.19   13.47  16
  -5   5  -5   10.90    9.73  16
  -5   5  -4  206.31    9.11  16
  -4   2  -6   79.70    8.70  16
  -4   2  -4  169.50    7.03  16
  -4  12   3  216.90    8.59  16
  -1  -3  -7   86.43    6.97  16
   1  -3 -11  205.45   13.11  16
   2  12   4 2212.20   15.28  16
   5  -3  -7  651.82   11.07  16
   5   1  -2  261.15    6.82  16
   6  -2  -8  105.41    9.14  16
   6  12   1  460.42   13.61  16
   7   9  -1   97.98   12.14  16
  -5   7  -1  646.24    7.33  16
  -4   2  -5  251.68    6.31  16
  -3   1  -2   -0.43    3.26  16
  -1  -3  -6  793.90    8.80  16
   2   2   1 1639.02   12.15  16
   3   3   1    2.50    3.35  16
   3   9   3  474.78    7.04  16
   5   7   1  650.94    7.30  16
   4  -4  -8  735.26   14.67  16
  -5  15   2  113.05   11.19  17
  -4   4  -1 1875.38   11.50  17
  -3   9   3  312.36    8.14  17
   2   4   2 2518.86   14.76  17
   3   1   0 1757.04   11.98  17
   4  12   3  176.21    9.24  17
   5  11   2    5.95    9.37  17
   6  -2  -7   58.82    8.88  17
   6   0  -4  198.58    7.47  17
   7   1  -5  305.67    9.65  17
  -5   9   0  452.68    7.19  17
  -5  11   1   30.98    5.41  17
  -3   1  -8  549.95    9.02  17
  -3   3   0  543.03    6.96  17
   3   5   2    1.61    3.99  17
   3  15   4  221.09    8.25  17
   4   2   0  404.00    5.79  17
   6  10   1   63.04    7.42  17
   7   5  -2   14.47    7.02  17
   4  -4  -9   21.66   10.86  17
   4  -4  -7   17.22    8.15  17
  -5   7  -2  100.37    7.74  18
  -4  14   3   21.26    8.54  18
   4  -2  -3  283.57    6.59  18
   4   4   1 1903.20   11.66  18
   5  -3  -6  437.84    8.93  18
   6   4  -1  570.20    9.37  18
   7  -1  -8    1.68   11.79  18
   7   3  -3   17.89    8.65  18
   7   7  -1   83.56   10.33  18
  -3   1  -7    8.18    6.07  18
  -3   1  -3    1.58    4.00  18
  -2   0  -9   -2.04    7.09  18
  -1  -1 -10   44.90    8.42  18
   5  -1  -3  186.83    5.17  18
   6   2  -2    0.39    4.51  18
   6   6   0   99.11    5.71  18
  -3  15   4  374.84   12.84  18
   0  18   5    1.84   14.38  18
  -5   7  -5   93.21   11.68  19
  -5   7  -4    8.44    9.01  19
  -5   7  -3    4.00    8.49  19
  -5  13   1  232.95    9.37  19
  -4   4  -7   52.72   10.93  19
  -4   4  -2 2239.84   12.14  19
  -4   6   0  143.03    6.23  19
  -4  10   2  220.31    7.71  19
   0  -2  -2  249.58   10.19  19
   0  16   5  492.71   12.60  19
   1   9   4  515.38    9.26  19
   3  13   4    3.11    8.67  19
   4  10   3  219.30    8.24  19
   5   9   2   93.62    8.78  19
   6  -2  -6  492.44    9.66  19
   7  -1  -7   12.45   10.18  19
  -5   9  -1   21.61    5.32  19
  -3   1  -6  347.60    6.36  19
  -3   1  -4  964.86    8.27  19
  -3   5   1   58.74    3.88  19
  -2   0  -2   69.30    4.20  19
   2   6   3  242.02    5.34  19
   2  10   4 1191.76   10.44  19
   4   0  -1   -0.53    3.41  19
   4   6   2 1200.65    9.33  19
   5   3   0  293.17    5.53  19
   7   1  -4  101.38    6.47  19
  -5  11   0    4.15    7.97  20
  -4   4  -6   53.85    8.69  20
  -4   4  -3  254.09    7.33  20
  -4   8   1 1013.80    9.68  20
  -4  16   3    6.40    9.84  20
  -3   1  -5  304.76    7.67  20
  -3   7   2    9.59    4.63  20
  -3  17   4    1.40    9.91  20
   0  -2 -10  156.99   10.70  20
   1  -3 -10    2.83    8.79  20
   1   3   2   97.75    5.47  20
   1  17   5   43.09   11.85  20
   3  -1  -1  337.08    7.19  20
   4  -4  -6  804.44   11.24  20
   6   0  -3    2.13    6.40  20
   6   8   1  133.84    8.97  20
  -5  15   1    2.50    8.19  20
  -4   4  -5    8.69    5.29  20
  -4   4  -4  105.71    5.00  20
  -2   0  -8  162.44    6.80  20
  -2   2   0   72.41    4.02  20
   3  -3  -3  714.25    9.11  20
   3   7   3   55.72    4.28  20
   5  -3  -5   47.58    4.99  20
   5   1  -1    8.51    4.01  20
   5   5   1  649.01    6.87  20
   5  13   3  292.64   10.24  20
   7  -1  -6  338.64    8.38  20
  -5   9  -2   88.87    8.71  21
  -1  -1  -9   -1.23    8.59  21
   1  15   5   13.07    8.63  21
   3  11   4   21.22    7.54  21
   6  -2  -5   14.64    7.48  21
   7   3  -2  257.54    9.33  21
   7   5  -1   68.90   10.05  21
  -5   9  -5  189.13    9.69  21
  -5   9  -4   13.99    6.95  21
  -5   9  -3   63.76    6.23  21
  -4   6  -1   36.78    4.08  21
  -3   3  -8    9.01    7.07  21
  -3   3  -1    2.40    3.21  21
   1   1   1 3527.37   23.18  21
   2  -4  -9  451.88   13.95  21
  -5  11  -1 1170.21   11.63  22
  -5  13   0   69.64    9.44  22
  -4   6  -7    6.35   11.52  22
  -4  12   2 1562.71   12.76  22
  -2   0  -7   -2.03    6.38  22
  -2   0  -3    0.65    4.68  22
   0  14   5   38.31    7.88  22
   1   5   3  572.68    9.17  22
   4   8   3 1620.64   11.60  22
   4  14   4    4.06   11.91  22
   5   7   2  101.05    7.80  22
   6   2  -1  169.15    7.45  22
   6   4   0  132.61    7.87  22
   7   7   0   24.82   11.75  22
   2  16   5  238.32    9.49  22
   4  -4  -5  582.04    8.40  22
   5  -1  -2  269.42    5.52  22
   5  11   3  571.75    9.00  22
   6  10   2   20.00    8.37  22
   7  -1  -5  282.04    7.29  22
   7   1  -3   23.54    6.11  22
   8   2  -4   30.01    8.48  22
  -5  11  -2    0.16    8.64  23
  -5  15   0   58.42   11.80  23
  -3  11   3 1143.45   12.75  23
  -2   0  -6 1635.39   12.09  23
   1  13   5  171.38    8.55  23
   4  -2  -2   26.97    4.88  23
   6   6   1  263.49    9.18  23
  -5  11  -4  258.93    9.04  23
  -5  11  -3  575.90    8.80  23
  -5  13  -1    0.76    6.95  23
  -4   6  -6   75.84    7.24  23
  -4   6  -2 1186.21    8.83  23
  -4   8   0  156.76    4.76  23
  -4  10   1 3830.24   15.95  23
  -3   3  -7    4.11    6.10  23
  -3   3  -2   33.22    3.44  23
  -2   0  -5    1.75    4.00  23
  -2   0  -4    6.13    3.37  23
  -1  -1  -8  214.01    6.58  23
   0  -2  -9   26.47    5.54  23
   4   2   1 1979.09   11.12  23
   4  12   4  167.60    7.71  23
   5  -3  -4  752.95    8.18  23
   6  -2  -4 1224.09    9.73  23
   6   0  -2  624.40    7.31  23
  -4   6  -5  528.01    9.59  24
  -4   6  -3   15.58    6.41  24
  -4  14   2  369.88    9.59  24
  -2   2  -9   23.64   10.07  24
  -2   8   3 2784.35   22.39  24
  -1   1   0  400.89   10.16  24
   0   8   4 1309.90   16.36  24
   1  -3  -9   47.03    7.95  24
   2   8   4  358.09    7.72  24
   2  14   5    0.97    8.68  24
   3   3   2   30.51    4.86  24
   3   9   4   21.16    6.56  24
   4   4   2 2272.28   12.51  24
  -5  13  -2   -1.67    8.19  24
  -5  15  -1   19.08    8.43  24
  -4   6  -4  728.76    7.93  24
  -3   3  -6  161.01    5.97  24
  -3   5   0  331.70    5.75  24
   3   1   1 2074.72   11.88  24
   4   0   0  505.29    6.39  24
   5   3   1   16.10    4.58  24
   5   9   3   62.40    6.47  24
   6   8   2   36.05    7.12  24
   7   3  -1  361.50    7.40  24
   7   5   0  167.49    7.69  24
   8   0  -5    1.31    9.31  24
  -2  12   4 2041.22   22.46  24
  -5  13  -3  283.20   12.98  25
  -4  16   2   -4.58    9.82  25
  -3   3  -3 1240.77    9.97  25
  -2   4   1   25.04    4.38  25
  -1   1 -10   40.15   11.89  25
   5   1   0   58.82    5.72  25
   7  -1  -4   98.71    8.90  25
   8   2  -3  274.92   13.09  25
  -4   8  -1   42.81    4.75  25
  -4  18   2    3.42    9.29  25
  -3   3  -5  316.08    5.99  25
  -3   3  -4   39.00    4.05  25
  -3   5  -8   12.18    8.27  25
  -1  -1  -7  738.06    8.44  25
  -1  -1  -3 2171.05   14.88  25
   2  -2  -1  124.75    4.95  25
   3   5   3  332.11    6.05  25
   3  15   5   20.60    8.53  25
   4   6   3   15.12    4.66  25
   4  10   4  215.93    7.07  25
   5   5   2  715.33    7.84  25
   7   1  -2  170.81    6.64  25
   7   7   1   89.15    8.69  25
  -4   8  -6   38.65    9.80  26
  -4  12   1  394.50    8.94  26
  -3   7   1   26.22    4.73  26
  -3   9   2    3.99    5.44  26
  -2   2  -8  377.95    9.91  26
   0  -2  -8  154.94    7.48  26
   1   7   4  578.31    9.58  26
   2  12   5   90.77    8.10  26
   4  -4  -4  385.61    8.17  26
   6  -4  -8   -1.67    9.95  26
   6   2   0  263.70    8.25  26
   7  -3  -8    5.60   11.94  26
   7  -3  -7  437.27   11.74  26
  -4   8  -5   50.77    6.26  26
  -4   8  -2  123.52    5.15  26
  -4  10   0  895.35    8.47  26
  -2   2  -1 1592.47   11.64  26
  -2   6   2  196.43    6.18  26
   2   2   2 4762.03   19.43  26
   3  -3  -2   29.38    3.86  26
   3  -1   0 1693.07   11.37  26
   5  -3  -3  488.31    6.79  26
   5  -1  -1    9.08    3.98  26
   6  -4  -7   20.73    6.19  26
   6  -2  -3 1050.78    8.86  26
   6   4   1  446.81    7.04  26
   2  -4  -4  193.63    9.83  26
  -3   5  -7  159.47    9.06  27
  -3  13   3   16.00    6.32  27
  -1  -1  -6   72.22    6.06  27
   1  -1 -11   22.06   11.95  27
   1  11   5   65.00    6.79  27
   2   4   3   10.94    4.75  27
   3  13   5   12.10   10.06  27
   5   7   3    5.76    8.50  27
   6  -4  -9   81.32   12.26  27
   6   0  -1    0.91    6.31  27
   8   0  -4   59.67   11.96  27
  -4   8  -4   60.06    5.43  27
  -4   8  -3 1556.02    9.71  27
  -3   5  -1  214.07    4.75  27
  -1  -1  -5 2522.96   14.32  27
  -1  -1  -4 5469.93   21.25  27
   4  -2  -1    3.94    3.37  27
   6  -4  -6   34.21    5.55  27
   6   6   2   57.47    6.32  27
   7  -3  -6  359.64    8.48  27
   7  -1  -3   26.94    6.14  27
   8   2  -2   89.59    9.57  27
   0  12   5    0.74    7.68  27
   2  -4  -8  265.59   11.19  27
   3  -3 -11    0.95   14.44  27
  -4  10  -6  389.92   12.30  28
  -4  14   1  119.60    8.40  28
  -2   2  -7   -3.25    6.93  28
  -2   4  -9  111.84   11.18  28
  -1   1  -9    1.22    8.60  28
   1  -3  -8   14.23    6.46  28
   3   7   4   65.71    6.70  28
   5  11   4  276.85   12.68  28
   7   3   0    7.63    9.80  28
  -4  10  -1   47.24    4.66  28
  -4  12   0  141.31    5.98  28
  -4  16   1   61.45    7.15  28
  -3   5  -6   53.64    5.56  28
  -3   7  -8  112.28    8.69  28
   0   0 -10  266.86    8.36  28
   2   0   1   -0.24    2.96  28
   4   8   4   60.19    5.60  28
   7   1  -1   28.36    6.21  28
   7   5   1  103.00    8.52  28
   2  -2 -11   68.76   14.82  28
  -4  10  -5  129.79   10.14  29
  -3  15   3  119.55    8.10  29
  -3  17   3   22.82    9.87  29
   0  -2  -7   49.60    5.83  29
   2  10   5   88.61    6.96  29
   3  11   5   53.80    8.78  29
   6  -4  -5  108.61    7.92  29
   7  -3  -5   32.97    8.75  29
   8   0  -3   -4.62   11.86  29
  -4  10  -4  216.49    6.79  29
  -4  10  -3  191.13    6.01  29
  -4  10  -2    8.72    5.16  29
  -3   5  -5 1341.59    9.46  29
  -3   5  -2    3.76    3.86  29
  -2   2  -6  926.62    8.56  29
  -2   2  -2 4692.43   18.26  29
   2   6   4   26.95    4.19  29
   4  -4  -3 1064.08    9.76  29
   4   2   2  516.46    6.53  29
   5   1   1  413.28    6.39  29
   5   3   2  147.43    5.26  29
   6  -2  -2    4.77    4.48  29
   6   8   3   68.76    8.56  29
  -4  14   0  569.09   10.23  30
  -3   5  -4  433.24    7.29  30
  -3   5  -3  331.15    6.85  30
  -3   7  -7  273.77   10.65  30
  -3   7   0 1254.93   10.08  30
  -3  11   2   24.41    5.48  30
  -1   3 -10   90.65   12.00  30
   4   0   1    0.09    5.52  30
   4   4   3  248.29    7.42  30
   5  -5  -7  235.79    9.20  30
   5  -5  -6    3.64    6.43  30
   5  -3  -2  369.53    7.43  30
   5   9   4   13.99   10.08  30
   6   2   1  285.84    8.36  30
   7  -1  -2  164.71    9.03  30
  -4  12  -5  160.79    8.60  30
  -4  12  -1  259.57    6.38  30
  -2   2  -5  123.36    4.79  30
  -2   2  -3 4768.73   17.73  30
  -2   4  -8  509.30    8.13  30
  -1   1  -8  209.70    6.36  30
   1  -1   0  385.17    9.34  30
   4  12   5  161.63    9.02  30
   5  -1   0   58.73    4.22  30
   5   5   3  121.99    5.87  30
   6   0   0    5.00    5.23  30
   6   4   2    8.25    6.07  30
  -2  14   4  380.14   12.08  30
  -4  12  -4  165.38   10.19  31
  -4  12  -2  188.65    7.99  31
  -4  16   0   11.36    9.89  31
  -3   9   1 1394.91   11.39  31
  -2   2  -4 2221.24   12.52  31
   0  -2  -6   82.85    6.33  31
   3   1   2    2.12    4.62  31
   3   3   3 1243.01   10.32  31
   5  -5  -8   11.21    8.64  31
   6  -4  -4  399.30    9.05  31
   7  -3  -4   85.50    8.89  31
  -4  12  -3  155.45    6.55  31
  -4  14  -1  504.68    7.96  31
  -3   7  -6  609.50    7.71  31
  -2   4   0  377.17    6.49  31
  -2   6  -9    6.43    8.33  31
   5  -5  -5   29.87    4.75  31
   7   3   1  104.04    7.50  31
   8  -2  -4   29.37    8.46  31
   8   0  -2  565.33   10.86  31
  -4  14  -4    1.02   11.57  32
  -4  16  -1   31.05   10.76  32
   0  -2  -5  320.12    7.65  32
   0  -2  -4  883.87   11.90  32
   0   0  -9    0.97    7.46  32
   1  -3  -7  461.50    9.66  32
   1  -1 -10    7.11    8.62  32
   3  -3  -1 8624.67   27.40  32
   3   9   5   82.26    7.87  32
   4   6   4  720.18    9.94  32
   6   6   3   28.82   10.16  32
   7   1   0  354.64   10.81  32
  -4  14  -3   96.16    7.25  32
  -4  14  -2   23.22    6.99  32
  -4  16  -2   -5.47    8.29  32
  -3   7  -5 1106.28    9.01  32
  -3   7  -1  437.10    6.42  32
  -3   9  -7  145.62    7.42  32
  -2   4  -7  113.07    5.84  32
   3  -1   1 2096.72   11.79  32
   3   5   4  453.79    6.53  32
   4  -2   0  396.02    5.85  32
   4  10   5  132.53    7.65  32
   5   7   4    6.36    6.10  32
   6  -2  -1  167.18    5.40  32
  -2  16   4  591.88   14.26  32
  -2  18   4   10.69   12.20  32
  -3  13   2  948.51   10.71  33
  -1   1  -7  775.78    9.72  33
  -1   3  -9   60.77    8.75  33
   1   9   5  485.72    9.71  33
   4  -4  -2  652.08    8.79  33
   7  -3  -3   16.05    8.65  33
   7  -1  -1   28.59    8.65  33
  -3   7  -4   68.02    4.85  33
  -3   7  -2 1487.30    9.81  33
  -1   1  -1 3707.63   22.31  33
  -1   5 -10    7.19    8.30  33
   1   3   3  263.17    6.33  33
   2  -2   0   71.23    4.14  33
   2   8   5 1685.67   12.29  33
   5  -5  -4  908.10    9.28  33
   5  -3  -1 4139.94   15.62  33
   6  -4  -3  235.44    6.49  33
   8  -2  -3  254.20    9.11  33
   3  -5  -6    8.24    8.02  33
   3  -5  -5  589.96   12.76  33
  -3   7  -3   58.25    5.66  34
  -3   9  -6    3.45    8.52  34
  -3  11  -7   25.83   12.41  34
  -3  15   2  116.65    7.91  34
  -3  19   2   -0.63   11.70  34
  -2   6  -8  889.97   11.45  34
  -2  10   3  216.74    7.67  34
   2  14   6    6.23   10.89  34
   5   1   2   12.03    6.44  34
  -3   9   0  107.41    4.72  34
  -3  11   1   64.48    4.34  34
  -3  17   2  110.06    7.45  34
  -2   4  -6  132.54    5.15  34
   0   2 -10  153.64    7.70  34
   2   2   3 4702.01   18.41  34
   4   2   3  437.56    6.07  34
   5   3   3  663.68    7.77  34
   6   0   1    0.22    5.21  34
   6   2   2  204.82    6.75  34
   2  -4  -7  171.39    9.67  34
   2  -4  -3 1926.74   20.98  34
   5  -5  -9   15.68   12.35  34
  -1   1  -6   72.44    6.06  35
   1  -3  -6  454.98   10.09  35
   1   1 -11   24.70   11.90  35
   1   5   4  330.82    7.40  35
   2  -2 -10   53.56    8.97  35
   3  13   6  202.48   12.54  35
   4   0   2  255.62    6.66  35
   4   8   5   60.78    8.81  35
   5  -1   1  433.49    7.98  35
   6   4   3   39.10   10.09  35
   7  -5  -7  121.51   12.33  35
   7  -5  -6   -2.03    9.99  35
  -3   9  -5   80.15    5.57  35
  -3  11  -6    4.05    6.84  35
  -2   4  -5   20.60    4.01  35
  -2   4  -1 1246.20   10.13  35
  -2   6   1 3038.92   17.45  35
  -1   3  -8   33.55    5.40  35
  -1   3   1 1704.42   20.42  35
   0   0  -8  419.79    7.14  35
   2   4   4    0.99    3.97  35
   3  -5  -4 1213.38   13.28  35
   3   7   5 1062.45    9.41  35
   4   4   4  109.66    5.10  35
   5  -5  -3   12.98    4.70  35
   5   5   4  207.83    6.92  35
   5   9   5  202.52   10.11  35
   7  -3  -2  251.81    7.08  35
   7   1   1  432.56    8.41  35
   7   3   2   64.34    8.60  35
  -3   9  -1  382.09    7.27  36
  -2   6  -7   21.04    7.51  36
   0   4   3   60.31    6.23  36
   1  -1  -9  367.19    9.59  36
   1  15   6   73.48   10.47  36
   2   0   2   71.02    5.55  36
   2  12   6  557.26   11.48  36
   6  -4  -2   46.24    7.70  36
   6  -2   0  263.51    8.32  36
   7  -5  -5  250.44   10.85  36
   7  -1   0  388.83   10.81  36
  -3   9  -4   19.60    4.61  36
  -3   9  -3  448.44    6.58  36
  -3   9  -2 2981.17   13.10  36
  -3  13  -6  169.58    8.69  36
  -3  13   1  278.28    6.18  36
  -2   4  -4    2.35    3.89  36
  -2   4  -2 2434.06   13.01  36
  -2   8  -8    8.04    7.07  36
  -2   8   2 1705.41   14.07  36
  -1   1  -5 2574.91   13.67  36
  -1   5  -9    0.29    6.98  36
   4  -4  -1  144.94    5.02  36
   6   6   4  109.99    8.87  36
   0  10   5   63.87    8.56  36
  -3  11  -5   48.65    8.60  37
  -3  11   0  164.83    6.32  37
  -3  19   1   84.07   11.92  37
  -2   4  -3   47.27    4.81  37
   3  -3   0  543.12    7.81  37
   3   1   3    4.53    5.56  37
   3  11   6    0.78   10.08  37
   4  -2   1 1958.46   11.86  37
   5  -3   0  330.71    7.34  37
  -3  15   1  137.34    6.01  37
  -3  17   1    0.69    6.87  37
  -1   1  -4 5736.42   20.60  37
   3   3   4   32.99    4.25  37
   7  -5  -4  312.53    8.26  37
   3  -3 -10    2.72   10.67  37
  -3  11  -4   23.37    7.43  38
  -3  13  -5   18.27    9.78  38
  -2   6  -6   32.15    6.42  38
  -2  10  -8   -4.23   11.70  38
  -1   1  -3 2148.77   14.33  38
   0   2  -9   29.50    7.61  38
   1  -3  -5  375.37    9.91  38
   1  13   6  717.96   13.28  38
   2   6   5  463.33    8.13  38
   3  -5  -3 1168.88   12.40  38
   4   6   5  525.31    9.96  38
   5  -5  -2   63.30    6.42  38
   5   7   5  106.93   11.98  38
   6  -6  -7   40.84    8.86  38
   6  -6  -6    3.16    8.60  38
   6  -6  -5  292.58    8.97  38
   7  -3  -1  381.27    9.72  38
  -3  11  -3  662.75    7.28  38
  -3  11  -2  113.19    5.16  38
  -3  11  -1 3739.94   14.66  38
  -3  13   0   80.31    4.98  38
  -3  15  -5   11.76    9.25  38
  -3  19   0   40.78    9.54  38
  -2   8  -7   85.97    6.36  38
  -1   3  -7   84.14    5.00  38
   0   0  -7    0.27    3.92  38
   3  -1   2    1.77    3.27  38
   5   1   3   85.40    5.62  38
   6  -4  -1  558.59    7.54  38
   6   0   2   31.89    6.22  38
   6   2   3  324.79    8.08  38
  -3  13  -4    9.08    8.48  39
  -2  12   3 2037.89   16.69  39
   0   4 -10   11.13   10.01  39
   0   6   4 1433.01   17.37  39
   1   7   5   43.76    5.93  39
   2   0 -11    1.35   11.67  39
   2  10   6  781.50   11.46  39
   4  10   6  402.54   13.14  39
   5  -1   2   12.69    6.44  39
   5   3   4    4.58    8.70  39
   7  -5  -3   59.62    8.86  39
   7   1   2   14.89   11.81  39
  -3  13  -3   50.61    5.48  39
  -3  13  -1  336.42    6.20  39
  -3  15  -4  214.53    7.66  39
  -3  15   0  170.47    6.13  39
  -3  17   0  139.58    7.50  39
  -2   6  -5  449.18    6.21  39
  -2   6   0 4084.35   18.38  39
  -1   5  -8   35.54    5.45  39
  -1   7  -9   95.88    7.41  39
   1   1 -10    5.23    6.07  39
   3   5   5 1376.47   10.19  39
   3   9   6    8.23    6.12  39
   6  -6  -4  567.47    8.13  39
   6  -2   1  287.56    6.43  39
   6   4   4  123.98    8.74  39
   7  -1   1  425.20    8.34  39
  -3  13  -2  110.59    7.74  40
  -3  17  -3   -3.60   11.67  40
  -3  17  -1    5.31    9.86  40
   1   3 -11  219.18   12.64  40
   2  -4  -2 2003.38   17.90  40
   4  -6  -5  959.09   12.14  40
   4  -6  -4   54.27    6.03  40
   4   0   3    0.12    5.42  40
   4   2   4  174.58    7.08  40
   6  -6  -8   27.47   10.30  40
  -3  15  -3  672.65    8.35  40
  -3  15  -2   56.76    6.21  40
  -3  15  -1    6.27    5.20  40
  -3  17  -2   40.47    7.15  40
  -2   8  -6    0.40    5.25  40
  -2  10  -7   33.77    6.21  40
  -2  18   3  134.42    7.72  40
   2  -2   1 1576.32   11.78  40
   4  -4   0   32.25    4.22  40
   5  -3   1   11.53    4.58  40
   7  -3   0   -3.26    6.99  40
   4  -6  -6    0.68    7.92  40
  -2   6  -4   31.39    5.55  41
  -2  14   3  109.82    7.14  41
  -2  16   3   82.45    7.96  41
  -1   3  -6  787.96    8.93  41
   0   2   2  229.36    9.80  41
   1  -1  -8    5.66    6.39  41
   1  11   6  111.05    8.27  41
   2  -2  -9   12.98    7.58  41
   3  -5  -2 1689.39   13.32  41
   4   8   6   26.34   10.22  41
   5  -5  -1 1291.22   10.81  41
   5   5   5    6.87   10.01  41
   6  -6  -3  251.78    8.47  41
   7  -5  -2   20.51    9.26  41
  -2   6  -3  228.47    4.81  41
  -2   6  -1   16.52    3.46  41
  -2  12  -7  113.84    8.43  41
  -1   9  -9   17.74    8.25  41
   0   0  -6 3082.95   15.97  41
   0   2  -8  152.70    5.45  41
   1  -1   1 3604.19   22.03  41
   3  -3   1    3.82    3.29  41
   4  -2   2  515.34    6.51  41
   4   4   5   10.99    5.32  41
   6  -4   0  123.13    5.85  41
  -2   6  -2  282.83    6.14  42
  -2   8   1  183.47    6.11  42
  -2  10   2   70.07    6.10  42
   0   6 -10   93.89   11.93  42
   2   2   4 2162.36   13.21  42
   2   8   6    2.32    7.47  42
   4  -6  -3  751.17    9.61  42
  -2   8  -5 1689.47   10.30  42
  -2  10  -6  721.26    8.04  42
  -1   5  -7  117.59    5.09  42
  -1   7  -8  317.75    7.31  42
   0   4  -9  563.61    8.47  42
   3   7   6  627.19    8.39  42
   6  -2   2  199.94    6.71  42
   6   0   3   -0.11    6.09  42
   6   2   4  272.20    9.03  42
   7  -1   2   19.69    8.29  42
  -1   3  -5    9.74    5.63  43
   2   0   3    0.64    4.73  43
   3  -1 -11   62.44   12.09  43
   3   1   4  953.07    9.31  43
   5  -1   3   81.35    7.60  43
   5   1   4   22.39    7.55  43
   6  -6  -2 1581.83   12.31  43
  -2  12  -6  535.83    7.79  43
   2   4   5   17.84    4.06  43
   3  -1   3    5.18    3.93  43
   3   3   5  309.40    6.19  43
   5  -5   0  542.45    6.98  43
   7  -5  -1   65.76    7.14  43
   7  -3   1  113.85    7.38  43
   2  -4  -6  155.79   10.81  43
  -2   8  -4  324.64    6.84  44
  -2  14  -6    7.81   10.69  44
   1   1  -9  356.91    9.21  44
   1   3   4    2.16    4.57  44
   2  -4  -1   24.14    4.39  44
   3  -5  -1   58.70    5.23  44
   4  -6  -2  268.93    7.13  44
   4  -4   1 1794.99   11.39  44
   4   6   6   79.47   10.18  44
   5  -7  -5  386.34    8.84  44
   5   3   5  310.03   10.72  44
   7  -7  -6   23.41   11.86  44
   7  -7  -5  410.80   11.43  44
  -2   8   0  323.79    5.82  44
  -2  10  -5   79.12    4.93  44
  -2  18   2   60.26    7.19  44
  -1   9  -8  707.29    8.83  44
   0   8 -10    2.18    8.29  44
   1   3 -10    4.35    6.11  44
   2   0 -10   -2.91    6.16  44
   4   0   4   28.91    4.59  44
   5  -7  -4  184.13    5.91  44
   5  -3   2  152.70    5.23  44
   6  -4   1  450.35    7.02  44
  -1   5   2  892.55   16.95  44
  -2   8  -3  754.78    8.47  45
  -2  12   2  394.17    8.11  45
  -2  20   1   24.86   13.18  45
  -1   3  -4   -0.61    4.63  45
  -1   5  -6  361.46    7.15  45
   0   0  -5    1.75    4.66  45
   1   1   3 2113.24   15.08  45
   1   9   6  407.09    9.40  45
   2   2 -11   70.20   11.98  45
   3  11   7   19.99   12.87  45
   5  -7  -6   71.33    8.02  45
   6  -6  -9    4.58   11.93  45
   6  -6  -1   -0.77    7.48  45
   7  -7  -7  319.60   14.59  45
   7  -7  -4   -4.56   10.04  45
  -2   8  -2 1469.28    9.71  45
  -2   8  -1  116.16    4.22  45
  -2  10  -4 1086.42    8.59  45
  -2  12  -5   83.41    5.63  45
  -2  14  -5    8.69    5.92  45
  -2  16  -5  230.47    8.84  45
  -2  16   2 1036.52   10.48  45
  -1   7  -7   13.75    5.24  45
  -1  11  -8   19.64    7.07  45
   0   2  -7   49.38    4.25  45
   1   5   5  564.87    8.17  45
   4  -2   3  382.12    5.88  45
   4   2   5  242.22    6.29  45
   5  -7  -3  371.23    6.79  45
   7  -5   0  172.00    7.69  45
  -2  10   1 2101.64   13.94  46
  -2  14   2  546.56    9.29  46
  -1  19   4  224.57   13.02  46
   0   6  -9   12.17    8.53  46
   1  -1  -7   21.85    5.70  46
   2  -2   2 4740.07   18.85  46
   2   6   6   25.58    6.51  46
   3  -3   2   31.98    4.75  46
   3   5   6   51.94    7.70  46
   4  -6  -1  657.50    8.54  46
   5   5   6   35.03   12.67  46
   6   0   4  106.54   11.12  46
   7  -7  -3    5.05    9.92  46
  -2  20   0    6.42    9.21  46
  -1   3  -3  258.02    5.52  46
  -1  13  -8   57.26    9.36  46
   0   4  -8  145.95    5.31  46
   2  12   7   95.61    8.95  46
   5  -5   1  648.99    6.75  46
   6  -2   3  295.44    7.94  46
   7  -3   2   53.02    8.51  46
  -1   7   3  271.62   11.46  46
   0   8   5  414.27   11.42  46
  -2  10  -3  289.29    6.67  47
  -2  12  -4 2043.51   12.61  47
  -2  16  -4   47.92    9.89  47
  -2  18   1    8.40    9.70  47
   3  -3  -9   63.03    8.20  47
   3   9   7  141.04   10.74  47
   4  -2 -11  195.76   13.14  47
   4   4   6   54.92    8.79  47
   5  -7  -2   15.75    6.43  47
   5  -1   4   15.61    7.50  47
  -2  10   0  669.70    7.68  47
  -2  14  -4  148.54    6.53  47
  -2  18  -3   55.39    8.32  47
  -1   3  -2   96.88    4.21  47
  -1   5  -5  548.28    6.84  47
  -1   9  -7  110.81    5.78  47
   3  -5   0  320.05    5.65  47
   4  -4   2 2062.16   11.08  47
   5   1   5   10.21    6.05  47
   6  -6   0   91.57    5.69  47
   6  -4   2    9.97    6.11  47
   7  -7  -2    8.50    7.01  47
   4  -6  -7    6.98   10.19  46
  -2  10  -2   82.26    5.77  48
  -2  10  -1    1.51    5.43  48
  -2  12  -3   40.92    6.43  48
  -2  12   1  220.10    6.72  48
  -2  16  -3   24.56    8.56  48
  -2  16   1  167.35    8.33  48
  -2  18  -2    2.14    9.90  48
  -2  18   0    2.88    9.76  48
  -1   7  -6  485.82    8.20  48
   0   0  -4 1499.05   13.46  48
   0   8  -9   10.92    9.83  48
   1   5 -10    7.98    9.90  48
   2  -4   0  385.80    7.17  48
   2  -2  -8  104.29    7.35  48
   2  10   7   36.87    8.84  48
   5  -3   3  646.67    9.45  48
  -2  14  -3  175.38    6.00  48
  -2  14   1   31.12    4.70  48
  -2  18  -1   32.95    7.09  48
  -1  11  -7  394.43    7.52  48
   3  -1   4  951.12    8.29  48
   3   1   5  285.05    6.06  48
   4  -6   0  141.82    4.92  48
   5  -7  -1   39.89    4.74  48
   5   3   6  130.33    8.80  48
   6  -8  -5   20.05    6.16  48
   6  -8  -4  157.71    6.95  48
   7  -5   1  103.05    8.66  48
  -2  12  -2  195.13    7.11  49
  -2  12   0   24.54    5.54  49
  -2  16  -2   14.81    8.52  49
  -2  16   0  211.98    8.05  49
  -1  13  -7  155.15   10.32  49
   0   2  -6   82.71    6.19  49
   1   1  -8    6.81    6.39  49
   1   3  -9   51.32    7.69  49
   2   0   4    6.96    4.71  49
   2   2   5  131.80    6.42  49
   5  -7  -7  250.59    9.90  49
   6  -8  -3    0.50    7.50  49
   7  -7  -1   91.85   10.20  49
  -2  12  -1  255.93    5.42  49
  -2  14  -2  232.13    6.20  49
  -2  14  -1  494.73    6.82  49
  -2  14   0  214.81    5.74  49
  -2  16  -1  606.63    7.79  49
   0   6  -8   18.75    5.35  49
   0  10  -9  317.21    9.20  49
   1   7   6  473.01    8.16  49
   2   4 -11   12.41    8.37  49
   3   3   6  165.47    6.14  49
   3   7   7  264.22    8.33  49
   4  -2   4  173.49    5.35  49
   4   0   5   -0.67    5.24  49
   4   6   7    1.16    8.46  49
   5  -5   2  685.66    7.27  49
   6  -8  -6    4.74    6.15  49
   6  -6   1  256.83    6.93  49
  -1  17   4   95.03   11.07  49
  -1   5  -4  312.23    6.32  50
  -1   9  -6  417.95    7.83  50
   0   4  -7    3.40    6.42  50
   6  -8  -2  213.30    8.30  50
   6  -2   4  277.78   12.25  50
  -1   7  -5   43.69    4.15  50
   1   7 -10   37.70    7.18  50
   2   4   6  140.09    5.39  50
   3  -5   1  213.62    4.90  50
   3  -3   3 1159.11    8.89  50
   4   2   6   67.91    6.37  50
   5  -7   0  402.47    6.44  50
   6  -4   3   40.44    7.13  50
  -1  11   4   34.85    8.08  50
  -1  11  -6  110.93    7.78  51
   0   0  -3    7.79    4.47  51
   1  -1  -6  387.62    8.02  51
   2  -2   3 4847.05   18.17  51
   2   0  -9    0.71    7.44  51
   2   2 -10   56.69    8.84  51
   2   8   7   91.49    9.07  51
   3  -1 -10  107.23    9.31  51
   3   1 -11   61.74   12.04  51
   4  -6   1   39.78    5.70  51
   4  -4   3  246.25    7.31  51
   5  -1   5    8.72    8.65  51
   7  -7   0   27.62   11.81  51
  -1  13  -6  671.24    8.35  51
  -1  15  -6   67.78    7.22  51
   0   8  -8  216.22    6.23  51
   2  -4   1 1266.07   10.37  51
   5  -3   4   13.84    6.04  51
   6  -8  -1  180.81    6.75  51
  -1  15   4   10.49    9.19  51
  -1   5  -3  561.23    7.66  52
  -1  19   3    6.89   11.54  52
   1   1   4 5604.77   22.20  52
   1   3   5    6.31    5.75  52
   1   9 -10   13.92   11.86  52
   3   5   7  167.75    9.36  52
   5   1   6   -0.09   11.80  52
   6  -8  -7  293.65   11.87  52
  -1   9  -5  460.05    6.70  52
  -1  17  -5   34.70    8.22  52
   0  10  -8    0.32    6.03  52
   1  -3  -1 1645.67   20.34  52
   1   5  -9   29.81    5.45  52
   4   4   7   53.03    8.54  52
   6  -6   2   55.85    6.28  52
   7  -9  -5    4.34    8.46  52
   7  -9  -4   26.56    8.33  52
  -1  13   4   99.81    8.71  52
  -1   7  -4  542.00    7.80  53
   0   2  -5  333.93    6.84  53
   0   4   4   37.40    5.37  53
   0   6  -7   18.66    6.33  53
   5  -7   1  640.06    9.01  53
   5  -5   3  134.91    7.80  53
   7  -9  -3   16.19   11.67  53
   7  -7   1   84.45   12.73  53
  -1   5   1  110.03    5.11  53
  -1  11  -5   60.06    4.71  53
  -1  13  -5  162.99    5.94  53
  -1  15  -5   10.91    6.00  53
   0  12  -8   73.11    7.22  53
   0  14  -8    3.15    8.22  53
   2   6   7   15.08    5.38  53
   3  -5   2   -5.87    4.26  53
   3  -1   5  276.74    5.93  53
   3   1   6  346.28    6.35  53
   4  -2   5  236.56    6.32  53
   6  -8   0   80.99    6.42  53
   6  -4   4  119.33    8.54  53
   7  -9  -2   16.95    8.37  53
   1  13   7  156.40   13.47  53
  -1   5  -2  272.47    6.63  54
   0   4  -6   46.29    5.71  54
   1   1  -7   19.92    5.66  54
   1   3  -8   10.38    6.42  54
   1   5   6  368.56    8.07  54
   1  11   7  398.23   11.50  54
   4  -8  -3    9.68    5.51  54
   4  -8  -2    5.87    5.55  54
   4  -6   2 1128.17    9.76  54
   4   0   6  226.77    9.21  54
  -1  17  -4  194.01    7.56  54
  -1  19  -3   20.56    8.32  54
   2   0   5   -3.65    4.10  54
   2   4 -10   75.48    6.56  54
   3  -3   4   36.32    4.10  54
   4  -4   4  104.67    5.01  54
  -1   5  -1 1018.24   10.28  55
  -1   9  -4  481.52    7.40  55
  -1  17   3    6.45    8.42  55
  -1  19   2   50.67   10.08  55
   0   8  -7  251.29    7.24  55
   1  -3   0 4306.48   25.92  55
   1  -1   3 2080.59   14.16  55
   1   7  -9    6.70    8.46  55
   2  -4   2 2401.33   13.38  55
   2   2   6  983.68   10.38  55
   3  -7  -2   13.92    4.67  55
   3   3   7    5.14    8.62  55
   4  -8  -4   11.38    5.57  55
   4  -8  -1  940.02    9.56  55
   4   2   7    3.56   10.03  55
   5  -9  -3  200.27    7.44  55
   5  -3   5  304.82   10.68  55
   5  -1   6   -5.89   11.75  55
   6  -6   3   33.23   10.03  55
   7  -9  -1  102.51   12.06  55
  -1   5   0  691.55    9.30  55
  -1   7  -3  431.93    5.98  55
  -1  11  -4  282.16    5.79  55
  -1  15  -4  266.15    6.46  55
  -1  19  -2    3.83    8.09  55
   2  -2   4 2103.46   11.76  55
   3  -7  -1   26.69    3.56  55
   3   3 -11    2.72    8.28  55
   5  -9  -2  109.37    5.11  55
   5  -7   2   98.80    5.57  55
   6  -8   1  127.10    6.58  55
   4  -4  -9   16.40   10.69  55
  -1  13  -4  120.73    6.73  56
  -1  17  -3   92.21    8.78  56
  -1  19  -1    0.40    9.87  56
  -1  19   1    3.51    9.81  56
   0   6   5  417.30   10.17  56
   0  10  -7  532.73    9.13  56
   0  14  -7   31.48    9.82  56
   1   9  -9  258.89   10.53  56
   1   9   7  120.99    8.42  56
   2  -2  -7  953.67   12.35  56
   3  -7  -3  283.94    7.42  56
   3   7   8  131.49   12.39  56
   5  -9  -4  656.37   10.65  56
   5  -9  -1   68.84    7.17  56
   5  -5   4  206.93    9.05  56
  -1  19   0    3.46    7.02  56
   0   6  -6  209.43    5.18  56
   0  12  -7   10.90    6.04  56
   1  11  -9  277.64    9.03  56
   2   2  -9   13.98    5.31  56
   3  -5   3  318.36    5.73  56
   4  -8   0  144.85    4.85  56
   4  -6   3   14.08    4.61  56
   4   0 -11   -0.77    8.44  56
  -1   9  -3  533.44    7.65  57
  -1  15  -3 1255.28   10.97  57
  -1  15   3  321.67    9.24  57
  -1  17  -2  242.53    9.14  57
   0   2  -4  836.18    9.68  57
   1   5  -8   21.24    6.42  57
   2   4   7  110.32    8.01  57
   2   6 -10   41.57   10.07  57
   2  10   8    2.03   11.80  57
   3  -7   0 1230.71   10.14  57
   6 -10  -3   46.16    8.72  57
  -1   7  -2  668.88    7.35  57
  -1  13  -3  381.30    6.12  57
  -1  17   2   13.11    6.04  57
   0   4  -5  242.40    5.13  57
   2   0  -8    2.90    4.56  57
   3  -1   6  340.81    6.20  57
   3   1 -10  103.99    6.74  57
   4  -2   6   73.24    6.35  57
   5  -9   0  414.53    7.10  57
   6 -10  -4    5.57    6.10  57
   6 -10  -2    0.79    6.12  57
   6  -8   2   26.50    7.14  57
  -1   9   3  272.56    9.01  57
   0  18   5    2.68   14.23  57
  -1   7   2   26.36    5.17  58
  -1  11  -3  308.72    6.79  58
  -1  17  -1  635.67   10.34  58
   0  16  -6  124.27   10.96  58
   1  -1  -5  120.56    6.12  58
   3  -3  -8  126.22    7.87  58
   3  -3   5  324.33    7.66  58
   3   5 -11    7.40   12.52  58
   3   5   8   17.78   11.08  58
   4  -8   1   45.93    6.63  58
   4  -4   5   13.41    7.40  58
   4  -2 -10    5.51    9.99  58
   5  -9  -5   85.75    8.01  58
   5  -7   3    6.44    8.47  58
   6 -10  -1  211.98    9.30  58
   6  -6   4  116.49   12.83  58
  -1  15  -2  127.89    5.73  58
  -1  17   0  511.79    7.63  58
  -1  17   1  496.53    7.85  58
   0   8  -6  175.15    5.46  58
   1   1   5 2459.35   14.18  58
   2  -4   3   13.55    3.40  58
   2   8 -10   26.01    8.31  58
   2   8   8    8.61    7.12  58
   3  -7   1  425.19    6.42  58
   3   1   7    8.21    6.09  58
   4   0   7    1.57    7.10  58
   5  -3   6  124.19    8.75  58
  -1   7  -1  205.71    6.24  59
  -1   9  -2 3638.37   15.22  59
  -1  11   3  666.53   10.84  59
  -1  13   3  789.44   11.32  59
   0  14  -6  115.31    8.80  59
   0  18  -5    4.23   11.49  59
   1   3  -7  459.20    7.91  59
   1   3   6  777.83    9.86  59
   1   7  -8   51.74    7.57  59
   1   7   7   10.75    7.46  59
   2  10 -10    8.35   12.60  59
   3  -1  -9 1412.74   14.80  59
   4  -8  -5   41.29    6.82  59
   5  -9   1   26.14    7.43  59
   5  -5   5   14.47    9.86  59
   6 -10  -5    5.49    9.95  59
  -1  11  -2   12.75    3.79  59
  -1  13  -2  780.00    7.89  59
  -1  15  -1  500.81    6.85  59
  -1  15   2  279.50    6.46  59
   0  10  -6   57.88    4.73  59
   0  12  -6  103.27    5.76  59
   1   1  -6  363.36    6.32  59
   2  -2   5  128.09    4.77  59
   2   0   6 1518.61   10.49  59
   3  -5   4  429.99    6.01  59
   4  -6   4  684.34    7.81  59
   6 -10   0   37.46    7.15  59
   6  -8   3   64.42    8.46  59
   3  -7  -4  218.03    9.14  59
   6  -8  -8    8.15   14.53  59
   1  -1   4 5472.06   20.72  60
   1   9  -8  102.64    7.76  60
   1  13  -8   46.49   10.03  60
   2  -6  -1 2858.60   17.48  60
   2   4  -9  460.99    9.48  60
   4  -8   2  127.60    6.85  60
  -1   7   0 6268.78   25.19  60
  -1   7   1   48.86    4.26  60
  -1  13  -1    9.29    4.00  60
  -1  15   0  183.11    5.55  60
  -1  15   1  450.02    7.14  60
   0   6  -5  411.83    6.33  60
   0  16  -5  456.53    7.61  60
   1  -3   2   98.00    4.20  60
   1  11  -8    1.84    6.03  60
   2  -6   0 3936.26   18.18  60
   2   2   7   -2.98    5.31  60
   2   6   8  861.02   10.49  60
   3  -7   2 1483.62    9.86  60
   3   3   8    9.54    7.19  60
   5  -7   4    2.83    6.15  60
   2  -4  -5   41.42    7.69  60
  -1   9  -1  299.47    6.42  61
  -1  13   2    4.41    5.36  61
   0  18  -4   39.83   10.06  61
   5  -9   2   84.61    8.74  61
   6 -10   1   63.75   10.14  61
  -1  11  -1    6.01    3.94  61
  -1  13   0 4676.52   17.48  61
   0  14  -5   41.15    5.41  61
   2  -6  -2  198.01    6.23  61
   2  -6   1   19.50    3.53  61
   2  -4   4   -0.30    3.93  61
   3   3 -10    0.95    6.15  61
   4  -4   6   53.29    6.26  61
   4  -2   7    3.92    7.12  61
   4   2 -11  201.95    9.29  61
   0  10   6   61.25   10.01  61
  -1   9   0  122.14    5.50  62
  -1   9   2   25.19    4.93  62
  -1  11   2  831.73   10.66  62
  -1  13   1 1172.88   10.91  62
   0   4  -4   44.84    4.99  62
   0   8  -5  416.05    7.26  62
   0  20  -2   51.02   11.77  62
   1   5  -7  767.58    8.77  62
   1   5   7  119.66    7.10  62
   2   6  -9  100.18    7.99  62
   3  -3   6  170.83    8.01  62
   3  -1   7    6.88    8.62  62
   6 -10  -6  154.10   10.92  62
  -1   9   1 1611.49   12.77  62
  -1  11   0   31.14    4.21  62
   0   0   1    8.16    4.44  62
   0  10  -5   60.76    4.82  62
   0  12  -5    0.96    4.42  62
   0  16  -4  172.47    6.64  62
   1  15  -7   67.50    7.19  62
   3  -7   3   57.44    4.26  62
   4  -8   3 1575.29    9.69  62
   4  -6   5  479.46    7.25  62
   5  -5   6   29.14    9.39  62
   6 -10   2   15.97    8.31  62
   5  -9  -6    1.41    9.19  62
  -1  11   1 1459.26   12.17  63
   0   4   5  242.96    7.48  63
   0  18  -3  398.32   10.77  63
   0  20  -1  182.02   12.13  63
   2  -6   2  284.97    6.29  63
   2   2  -8  110.66    7.03  63
   2   4   8  529.34   11.04  63
   2   8  -9    1.59    8.61  63
   3  -5   5 1383.59   10.79  63
   5  -9   3   66.03    8.84  63
   0  20   2   46.50    8.43  63
   1  -3   3  268.00    5.66  63
   1   1   6   82.08    4.58  63
   1   7  -7  111.92    5.06  63
   1  13  -7  375.78    7.47  63
   2  -2   6  934.30    8.51  63
   2  10  -9   22.39    7.05  63
   2  12  -9  517.27    9.79  63
   3   1   8  531.93    9.17  63
   4 -10  -1 3586.03   15.28  63
   5 -11  -1   27.16    5.45  63
   5  -7   5   93.84    8.51  63
   0   8   6  183.75   10.02  63
   0   2   4  846.93   11.73  64
   0  18   4   42.89   10.11  64
   0  20   0  136.78   12.14  64
   0  20   1  191.83   12.11  64
   1  -1   5 2479.76   14.13  64
   1   9  -7  204.30    7.11  64
   1  11  -7  227.11    8.17  64
   1  17  -6  290.79   12.21  64
   2   0   7   -0.90    6.36  64
   3   5 -10  292.70   11.01  64
   4 -10  -2  203.56    7.73  64
   4 -10   0  900.39    9.78  64
   5 -11  -2    7.25    7.54  64
   5 -11   0    2.44    7.52  64
   0   6  -4 1344.79    9.61  64
   0  14  -4 1118.69    8.88  64
   0  18  -2    9.01    6.02  64
   1   3  -6  441.77    6.77  64
   2  -4   5   18.95    4.04  64
   4  -8   4   55.14    5.53  64
   5 -11  -3 1231.21   10.82  64
   6 -12  -2  261.34    8.08  64
   0  16   5  485.38   13.97  64
   0  16  -3    7.52    7.44  65
   1   3   7   86.58    6.87  65
   2  -6   3  231.02    5.86  65
   2   0  -7   -1.04    5.60  65
   3  -7   4   68.26    6.66  65
   3   1  -9 1407.42   13.82  65
   3   7 -10   14.86    9.98  65
   4 -10   1   41.13    6.52  65
   4  -4   7   54.92   11.05  65
   4   0 -10  561.59   12.76  65
   5 -11   1 1139.03   11.59  65
   5  -9   4   11.64   10.04  65
   6 -12  -1   85.33   11.14  65
   0   8  -4 1259.75    9.19  65
   0  12  -4   82.68    4.89  65
   1  15  -6   79.88    6.25  65
   2   2   8  352.25    7.77  65
   3  -9   0  108.85    4.79  65
   3  -3   7    6.54    6.05  65
   3   9 -10   13.48    8.43  65
   4  -6   6   78.82    7.19  65
   6 -12  -3    1.31    7.10  65
   6 -12   0   13.66    8.37  65
   0  10  -4  202.27    6.33  66
   0  18  -1   -2.57    8.48  66
   2  -2  -6 3350.96   22.09  66
   2   4  -8  270.46    7.63  66
   3  -9  -1 1365.30   11.36  66
   3  -9   1  374.80    7.39  66
   3  -5   6   54.31    7.66  66
   3  -1   8  548.66   11.62  66
   4 -10  -3  647.15    9.99  66
   4 -10   2    8.35    7.42  66
   5  -3 -10   31.81   11.97  66
   0   4  -3   57.93    4.10  66
   0  14  -3  541.86    6.87  66
   0  18   3  376.58    8.93  66
   1  -3   4    1.14    3.27  66
   1   1  -5  117.49    4.68  66
   2  14  -8  163.51    8.64  66
   5 -11   2    6.21    6.12  66
   6 -12   1  420.33   10.48  66
   1   9   8  752.47   15.26  66
   0   2  -2  237.64    7.65  67
   0   6   6  216.65    7.98  67
   0  16  -2  267.15    8.19  67
   0  18   0   -3.15    8.54  67
   1  -1  -4  762.74   11.89  67
   1   5  -6  526.14    8.02  67
   1   7   8  325.96   10.46  67
   1  13  -6  346.30    8.48  67
   1  17  -5  114.95   10.05  67
   1  19  -4  247.00   12.11  67
   2   6   9    6.42   11.98  67
   3  -9  -2    2.94    5.55  67
   3  -9   2 2926.03   13.75  67
   4  -8   5   62.03    8.71  67
   5 -11  -4  692.14   11.25  67
   6 -12  -4    8.54   10.90  67
   0  18   1    3.49    6.00  67
   0  18   2   10.17    6.01  67
   2  -6   4   27.31    4.09  67
   2  -2   7    0.97    5.21  67
   2   6  -8   -0.03    4.51  67
   2  12  -8   52.50    7.17  67
   3  -7   5 1013.38    8.44  67
   4 -10   3  198.20    6.09  67
   5  -9   5  187.37    9.85  67
   1  11   8   18.37   12.40  67
   2  -6  -3   92.13    7.39  67
   0   0   3    2.28    4.29  68
   0  12  -3  331.25    6.80  68
   1  -1   6   70.31    6.05  68
   1   7  -6  202.66    6.46  68
   1  11  -6  248.96    7.25  68
   2  -4   6  135.83    6.94  68
   2   8  -8   60.13    7.64  68
   2  10  -8   34.23    8.62  68
   3  -1  -8  349.37    8.93  68
   3   3  -9   69.48    7.83  68
   5 -11   3  600.59   11.42  68
   0   6  -3  406.62    6.17  68
   0  16  -1  186.42    6.07  68
   1   1   7  711.23    8.38  68
   1   9  -6    0.76    4.54  68
   1  15  -5  675.84    8.20  68
   2   0   8  157.85    6.87  68
   2  16  -7  109.57    8.48  68
   3  -9   3  434.70    6.57  68
   4  -6   7   -2.46    8.37  68
   5  -5  -9   12.07   12.19  68
   0   2   5  317.48    7.57  69
   0  10  -3   48.49    5.71  69
   0  14  -2 4386.14   16.63  69
   0  16   4  189.86    9.60  69
   1   5   8   31.27    7.68  69
   1  19  -3   12.48   11.50  69
   2   4   9  116.88   11.52  69
   3  -5   7  157.35    9.03  69
   4 -10  -4  328.30    8.68  69
   4  -2  -9   64.10    8.00  69
   4   2 -10    5.85    9.90  69
   0   8  -3 1644.84   10.27  69
   1  -5   1  987.78    9.87  69
   1  -5   2  268.00    5.67  69
   1  -3   5    9.22    4.01  69
   1  17  -4   84.56    6.26  69
   2  -6   5  434.22    6.05  69
   2   2  -7  932.70    9.14  69
   3  -3   8    8.28    7.14  69
   4 -10   4  201.11    6.75  69
   4  -8   6   19.89    7.12  69
   5 -11   4  251.15    9.05  69
   6 -10  -7  616.25   18.18  69
   0  16   0  719.34    9.87  70
   2  -8   1  116.53    5.37  70
   2  14  -7   -1.29    9.71  70
   3  -7   6  607.79    9.46  70
   3   5  -9   60.28    7.80  70
   3  11  -9   12.53   11.57  70
   6 -12  -5   25.12   11.80  70
   1  -5   0  688.10    9.34  70
   1  -5   3  541.09    6.77  70
   1   3  -5  345.87    6.09  70
   1  13  -5  753.56    7.92  70
   2  -8   0  320.69    5.79  70
   2  -8   2 1415.67    9.66  70
   3  -9   4   23.35    4.59  70
   3   7  -9   47.54    6.33  70
   3   9  -9   78.63    7.27  70
   5 -13   0   69.66    6.41  70
   0   0   4 1479.32   13.41  71
   0   4   6   40.34    5.87  71
   0  12  -2   27.32    5.49  71
   0  16   1  189.71    8.19  71
   0  16   3    7.16    7.41  71
   1   3   8   32.51    7.62  71
   1  19  -2   48.49    9.98  71
   2   2   9   26.04   10.22  71
   3  -9  -3  284.27    7.84  71
   4 -12   0  144.51    7.98  71
   4 -12   1  259.26    8.28  71
   4   4 -10    6.77    9.99  71
   5 -13  -1  222.07    9.31  71
   5 -13   1    0.21    9.90  71
   5 -11  -5 1024.61   14.12  71
   0   4  -2  372.25    6.60  71
   0  14  -1  115.41    5.18  71
   0  16   2  268.17    6.83  71
   1  11  -5  101.64    5.03  71
   1  15  -4   11.44    5.22  71
   2  -8   3  755.78    7.42  71
   2  -4   7  111.21    5.74  71
   2  -2   8  354.99    7.64  71
   2  12  -7  459.89    7.65  71
   2  16  -6   13.15    6.87  71
   4 -12  -1  355.95    6.98  71
   4 -10   5  130.19    7.46  71
   4   6 -10   53.11    7.37  71
   5 -13   2   -2.32    8.18  71
   4  -8  -6   66.83   10.07  71
   0  14   5   38.48    9.39  71
   1  -1   7  727.13    9.52  72
   1  17  -3    6.18    8.51  72
   2  -8  -1  171.14    6.08  72
   2   4  -7  176.51    6.43  72
   2  18  -5   14.93   11.60  72
   3  -9   5   79.20    7.66  72
   3  -3  -7  451.05    9.92  72
   4 -12   2  183.44    8.06  72
   4   8 -10   17.81   11.82  72
   5 -13  -2   85.47    8.97  72
   0  10  -2  269.51    5.07  72
   1  -5   4  297.21    5.39  72
   1  -3   6  746.93    7.78  72
   1   5  -5  273.26    5.29  72
   1   9  -5 1744.62   10.45  72
   1  19  -1    2.18    6.94  72
   2  -8   4  309.84    5.60  72
   2  -6   6   29.46    4.54  72
   2   6  -7   46.91    4.74  72
   2   8  -7  177.27    5.36  72
   2  10  -7  256.66    6.36  72
   3  -5   8   18.49    8.30  72
   0  14   0  982.60   10.02  73
   1   7  -5  101.76    6.02  73
   2   0   9   -0.40   10.15  73
   3 -11   1 3517.88   15.56  73
   3  -7   7  262.96   10.65  73
   3   1  -8  336.21    8.39  73
   3  13  -8   36.70   10.82  73
   4 -12  -2 1492.54   12.70  73
   4 -12   3  159.02    8.95  73
   4  -4  -8  569.54   12.28  73
   5 -13   3  283.94   13.09  73
   5  -1 -10   14.52   10.12  73
   0   6  -2  231.22    5.93  73
   0   8  -2 4248.32   16.60  73
   0  12  -1  261.32    5.56  73
   1   1   8  203.27    6.53  73
   1  13  -4   88.76    4.91  73
   2  14  -6   -1.10    5.99  73
   3 -11   0  158.98    4.99  73
   3 -11   2  108.91    5.18  73
   4 -10   6  359.26    9.49  73
   5 -13  -3  125.60    6.82  73
   0   0   5   -0.12    4.63  74
   0   2   6   78.96    6.36  74
   1  17  -2   11.42    8.48  74
   1  19   0    0.49    9.91  74
   2   0  -6 5035.89   22.85  74
   3 -11   3  657.19    8.54  74
   4 -12   4  177.38   10.31  74
   4   0  -9   -1.77    7.52  74
   0   2  -1 2521.70   21.77  74
   0  14   1  112.55    5.33  74
   1  -5   5  555.03    6.81  74
   1   1  -4  769.17    9.61  74
   1  15  -3  293.21    6.51  74
   2  -8   5 1657.02   10.19  74
   2  -4   8  508.84    8.16  74
   2  16  -5    8.90    5.98  74
   2  18  -4   10.15    6.96  74
   3 -11  -1   58.77    4.33  74
   3  -9   6    6.86    6.04  74
   3  11  -8   19.38    6.20  74
   0  14   4 1146.64   13.78  75
   1   5   9    0.69    9.28  75
   1   7   9   93.28   10.53  75
   1  19   1   -2.32    9.91  75
   1  19   3   20.02   11.66  75
   2  -6   7   17.53    7.61  75
   2  12  -6  501.67    8.93  75
   3 -11   4   22.09    7.50  75
   3   3  -8  134.81    7.13  75
   3  15  -7  352.98   12.29  75
   0  10  -1 1867.27   11.45  75
   1  -5  -1  104.39    5.04  75
   1  -3   7   80.28    4.99  75
   1  11  -4   33.31    3.99  75
   1  19   2   -1.66    8.16  75
   2  -2   9   18.80    7.28  75
   3  -7   8  115.50    8.73  75
   3   9  -8  443.58    7.19  75
   4 -12   5  158.82    8.73  75
   3  -7  -5  288.95   14.63  74
   0   6   7    4.50    6.33  76
   0  12   0  670.15    8.60  76
   0  14   2 4504.46   20.03  76
   0  14   3  554.49    9.82  76
   1  -1   8  211.35    8.37  76
   1   3   9   59.22    8.94  76
   1  17  -1  502.83    9.09  76
   3   5  -8  202.17    7.24  76
   3   7  -8  218.32    8.24  76
   4 -12  -3  199.55    8.64  76
   4   2  -9   64.28    7.85  76
   4  10  -9   50.08   11.83  76
   5   1 -10   15.92   10.07  76
   6 -12  -6  496.18   14.66  76
   0  -2   2  226.30    6.54  76
   0   4   7    0.13    4.47  76
   1  -5   6  356.67    6.09  76
   2 -10   2   79.06    4.45  76
   2  -8  -2 1555.97   13.44  76
   2  -8   6    0.59    5.28  76
   2  10  -6  248.15    5.69  76
   3 -11   5   51.14    6.16  76
   3  -9   7  141.88    7.53  76
   5 -15   1   17.46    8.42  76
   3  -5  -6    6.63    7.87  76
   1   9   9   17.06   14.51  76
   0  -2   4  861.10    9.80  77
   0   0   6 3089.87   16.89  77
   1  -7   2  681.64    8.18  77
   1  -7   3  441.34    6.96  77
   1   9  -4    5.24    5.47  77
   1  13  -3  764.44    8.91  77
   1  15  -2  281.80    7.42  77
   2 -10   1    0.82    5.50  77
   2 -10   3  291.19    6.84  77
   2   2  -6 3253.81   16.91  77
   2  14  -5  449.37    8.81  77
   3  13  -7 1011.35   11.21  77
   4   8  -9   11.30    9.88  77
   5 -15   0   58.61   11.91  77
   5 -13  -4  210.01    9.81  77
   0   8  -1  165.49    4.79  77
   1  -7   4  544.98    6.80  77
   1   3  -4 3381.87   16.67  77
   2 -10   4 1130.78    8.63  77
   2  -6   8  857.28    9.21  77
   2   8  -6   22.94    3.87  77
   2  16  -4  553.05    7.86  77
   2  18  -3  131.64    7.38  77
   2  20  -1   27.80    9.34  77
   3 -11  -2   22.54    4.11  77
   4 -14   1  511.73    7.99  77
   4 -14   2   33.95    6.99  77
   4   4  -9   20.33    6.11  77
   4   6  -9  215.27    7.07  77
   5 -15  -1    0.85    8.31  77
   5   3 -10   33.21    8.35  77
   0   8   7  233.99   10.81  77
   4 -10  -5   92.06    8.74  77
   0   2   7   47.77    5.85  78
   0  12   1  260.43    7.04  78
   1  -7   1  209.35    6.38  78
   1   1   9   -0.65    8.64  78
   1   7  -4  187.08    5.66  78
   1  17   0  536.86    9.23  78
   2  -4   9  118.76   11.28  78
   4 -14   0  549.73   10.23  78
   4 -14   3   95.31   10.24  78
   5   5 -10   16.53   11.79  78
   0  -2   5  316.36    5.89  78
   0   6  -1  189.89    4.97  78
   1  -7   5   36.16    4.19  78
   1  -3   8   31.05    5.44  78
   1   5  -4  409.76    6.19  78
   2 -10   0  692.58    7.85  78
   2  -8   7   85.29    6.43  78
   2   4  -6  155.44    5.13  78
   2   6  -6   72.50    4.42  78
   3 -11   6   -2.54    7.12  78
   3  -1  -7  874.95    9.98  78
   3  11  -7   97.43    5.72  78
   3  15  -6   19.98    6.97  78
   4 -14   4   -2.52    8.36  78
   0  10   0   13.90    4.72  79
   1  -5   7  116.26    6.84  79
   1  17   5   36.25   11.72  79
   2 -10   5   87.27    7.26  79
   2  12  -5  431.31    7.93  79
   3 -13   2  105.53    7.76  79
   3  17  -5   25.30   11.44  79
   4 -14  -1  114.57    8.49  79
   5  -3  -9   11.31    8.70  79
   1  -1   9   -0.90    6.12  79
   1  11  -3  630.70    6.92  79
   1  15  -1  428.02    6.51  79
   1  17   1  619.85    8.69  79
   2  18  -2   56.54    7.09  79
   3 -13   1  317.16    6.03  79
   3 -13   3   43.18    5.52  79
   4  12  -8   50.66    8.29  79
   5 -15  -2  108.27    8.62  79
   1  15   7   21.18   18.08  79
   4  -6  -7    6.96    9.02  79
   3  -9  -4  604.85   12.22  79
   0  12   2   25.23    5.61  80
   0  12   5    1.13    6.24  80
   2  -2  -5 7458.52   33.66  80
   3 -13   4    9.75    8.52  80
   4  -2  -8   14.04    7.49  80
   0  -2   1 2520.55   21.78  80
   0  -2   6   77.77    4.68  80
   0   0   7   -0.14    3.83  80
   1  -7   6  463.14    6.67  80
   1  13  -2    4.51    3.83  80
   1  17   2  230.65    7.21  80
   2 -10   6  730.36    8.07  80
   2  -6   9    8.20    8.47  80
   2  14  -4  343.62    6.63  80
   2  16  -3   79.90    5.62  80
   3 -13   0   73.58    4.98  80
   3 -11   7   22.99    9.46  80
   3   9  -7  151.71    5.93  80
   6  -6  -9    5.79   14.47  80
   1  -7   0 6274.46   25.48  81
   1  17   3   97.09    8.93  81
   1  17   4  192.13   10.69  81
   2  -8   8   13.06   10.07  81
   3 -13   5    8.56    9.94  81
   3  13  -6   91.61    8.73  81
   4  10  -8   27.38    9.27  81
   0  -4   4   36.41    3.76  81
   0   8   0  823.38    9.06  81
   0  12   3  308.66    6.76  81
   1  -5   8   32.59    5.44  81
   1   3  10   87.85    8.84  81
   1   5  10    0.09    8.45  81
   1   9  -3  242.71    5.01  81
   2 -10  -1 1991.59   12.98  81
   2  10  -5   24.65    3.93  81
   2  18  -1    8.55    6.82  81
   3   1  -7  851.08    8.93  81
   3   7  -7  205.36    5.57  81
   3  19  -3    1.02    9.14  81
   4 -14  -2  326.38    7.17  81
   4  14  -7  267.94    8.88  81
   5 -11  -6  102.71   11.54  81
   0  -4   3   56.07    5.55  82
   0   4   8  145.45    7.51  82
   0  10   1 1946.19   13.50  82
   0  12   4   80.64    7.00  82
   1  -9   3  523.59    7.75  82
   1  -7   7   11.95    7.43  82
   1  -3   9   61.99    8.80  82
   1   1  10   45.41   11.96  82
   1  15   0  177.78    7.16  82
   2 -12   3   33.80    6.54  82
   2 -10   7   36.05    8.74  82
   3   5  -7   11.79    6.43  82
   3  15  -5  814.24   10.55  82
   3  17  -4   -2.56    9.81  82
   4 -12  -4  120.26    8.30  82
   5 -15  -3   14.89   10.94  82
   5   9  -9   33.99   11.80  82
   0  -4   5  241.99    5.12  82
   0   2   8  145.15    5.71  82
   1  -9   4  472.80    6.26  82
   2 -12   2  181.08    5.52  82
   2 -12   4 1988.96   11.26  82
   3 -13  -1  250.48    6.10  82
   3 -13   6  162.96    8.79  82
   3   3  -7  458.68    6.69  82
   4 -16   2    1.71    8.26  82
   4   8  -8   19.36    6.08  82
   4  16  -6   70.71    9.35  82
   5  -1  -9    9.83    6.11  82
   0  -2   7   46.87    5.72  83
   0   6   8   18.28    7.52  83
   1  -9   2 3697.94   15.42  83
   1  -9   5  446.56    8.10  83
   2 -12   5   85.05    7.79  83
   2   8  -5  616.77    7.96  83
   2  12  -4 1748.82   11.31  83
   3 -11  -3 1050.50   12.30  83
   3  11  -6  215.97    8.06  83
   4 -16   1   22.69   10.09  83
   4   0  -8  158.74    7.37  83
   0  -4   2  351.95    6.58  83
   0  -4   6   40.94    4.20  83
   0   0   8  410.61    7.08  83
   1  -1  10   41.14    8.60  83
   1   7  -3  272.02    5.26  83
   1  11  -2  746.04    7.42  83
   1  13  -1 1069.18    8.69  83
   2 -12   1  241.63    5.37  83
   2  16  -2 1096.50    9.06  83
   2  18   0    2.64    6.89  83
   3  19  -2    2.68    8.20  83
   4   6  -8   11.85    5.32  83
   4  12  -7  151.54    7.39  83
   5   7  -9  122.24    7.50  83
   1  -9   6  396.86    7.82  84
   1  -5   9    1.52    9.33  84
   1  15   1  506.18    8.48  84
   2 -10   8   -1.69   11.82  84
   2  14  -3  103.86    6.61  84
   4 -16   0    6.38    9.97  84
   4   2  -8   16.87    7.45  84
   4   4  -8  650.90   10.08  84
   5 -13  -5  381.12   12.18  84
   5   1  -9   12.74    8.60  84
   5   5  -9   14.47    9.92  84
   0   6   0  806.75    9.71  84
   1  -9   1  284.33    5.54  84
   1  -7   8  315.22    7.26  84
   2 -12   6  513.93    7.81  84
   2   0  -5    1.00    3.33  84
   2   6  -5    2.71    3.87  84
   3 -15   2   47.57    6.25  84
   3 -15   3  647.36    8.95  84
   3 -15   4  204.71    7.76  84
   5   3  -9    5.63    6.22  84
   0  10   2  276.15    6.98  85
   1  -3  10   88.00   12.26  85
   1   5  -3  726.44    8.77  85
   3 -15   1    2.30    8.00  85
   3  13  -5  177.35    7.90  85
   3  17  -3   15.96    9.89  85
   4  14  -6   12.22    9.77  85
   5  11  -8   66.53   11.85  85
   0  -4   7   -1.10    4.57  85
   0  -2   8  148.98    5.45  85
   1  -9   7  118.45    5.79  85
   2 -12   0   28.81    4.07  85
   2 -12   7  112.49    7.48  85
   2   4  -5  278.91    5.29  85
   2  18   1   33.77    7.03  85
   3 -15   5   16.88    9.32  85
   3   9  -6  230.53    5.62  85
   3  15  -4  321.94    7.10  85
   3  19  -1   69.40    8.53  85
   4 -14  -3   18.37    6.11  85
   4  16  -5   -2.94    8.17  85
   1  15   6   70.39   12.56  85
   0  -6   4 1343.66   10.32  86
   0  -6   5  409.24    7.49  86
   1   3  -3  812.31    9.61  86
   1  15   2  126.56    8.06  86
   2   2  -5 7318.38   24.60  86
   2  10  -4  297.62    6.71  86
   2  16  -1  168.97    8.04  86
   3 -13  -2  840.32   10.45  86
   4 -16  -1   54.10   10.03  86
   4  10  -7  419.23    9.77  86
   0  -6   3  380.93    6.12  86
   0  -6   6  211.19    5.23  86
   0   2   9   27.83    5.47  86
   0   8   1  165.89    5.21  86
   1 -11   4  281.98    5.79  86
   1  -7   9   95.08    7.35  86
   1   9  -2   24.35    3.40  86
   1  13   0 4395.18   16.80  86
   2  18   2    6.17    6.96  86
   0   0   9   -1.37    7.48  87
   0   4   0   65.55    6.27  87
   0   4   9  568.42   11.89  87
   1 -11   3  297.32    6.80  87
   1 -11   5   56.62    6.58  87
   1  -7  -1   64.62    5.67  87
   1  -5  10    0.47   12.00  87
   1  15   3 1218.03   12.52  87
   2 -14   3  163.68    8.00  87
   2 -14   4  154.56    9.01  87
   2 -10  -2   67.57    6.24  87
   2  -8  -3 2429.72   20.90  87
   2  14  -2  518.55    8.11  87
   2  18   3   57.86   11.71  87
   3 -15   0  158.99    7.96  87
   3  -3  -6  279.94    8.46  87
   5 -15  -4   -0.82   11.75  87
   5  -5  -8    7.68    8.57  87
   5   9  -8   -2.12    9.87  87
   5  13  -7   -1.20   11.62  87
   6  -4  -9   68.04   12.13  87
   0  -4   8  141.37    5.35  87
   1 -11   6  104.96    5.75  87
   1  -9   8  702.87    8.62  87
   1  11  -1 1391.10    9.70  87
   2 -14   2  214.65    6.16  87
   2 -14   5   -1.64    6.13  87
   2  12  -3 1727.81    9.82  87
   3   7  -6  139.17    4.72  87
   3  11  -5 1185.77    8.83  87
   3  17  -2  108.32    7.21  87
   3  19   0   38.68    9.43  87
   1  15   5   10.04   10.47  87
   0  -6   7    6.25    6.34  88
   0  -4   1 5920.20   26.75  88
   0  -2   9   28.18    7.63  88
   0  10   3   48.25    5.93  88
   1 -11   2    9.93    5.51  88
   1  -9   0  119.51    5.54  88
   1  15   4  272.39    9.42  88
   2 -14   6    4.96   10.82  88
   4   8  -7  586.64    9.53  88
   4  12  -6  193.98    8.99  88
   0  -6   2  231.87    5.89  88
   1 -11   7  390.39    7.42  88
   2   8  -4  240.98    5.35  88
   2  16   0  211.03    5.98  88
   3  13  -4  104.87    5.62  88
   3  15  -3  112.75    5.70  88
   6   6  -9    0.18    8.45  88
   0   8   8  192.07   11.67  88
   2 -14   1  481.00    8.22  89
   2 -12  -1  214.75    6.73  89
   3 -17   3   -5.90   11.78  89
   3   5  -6    5.13    5.56  89
   4 -16  -2    0.27    9.88  89
   4  -4  -7   15.22    6.53  89
   4  14  -5   21.93    8.49  89
   4  16  -4   95.68   10.03  89
   5   7  -8  147.92    8.98  89
   0  -8   4 1231.50    9.27  89
   0  -8   5  405.15    6.07  89
   0  -8   6  177.29    5.46  89
   0  -6   8   19.86    5.35  89
   0  -4   9  566.78    8.54  89
   1  -9   9   12.96    8.46  89
   1   7  -2   24.29    3.60  89
   1  13   1    9.54    3.98  89
   3 -17   2   37.38    7.16  89
   3 -15  -1  124.86    5.93  89
   4   6  -7    6.55    4.53  89
   5  11  -7    5.78    7.03  89
   0   6   9    7.59   10.48  89
   3  -1  -6   30.92    5.96  90
   3   3  -6  287.53    7.21  90
   3  17  -1   -2.40    9.16  90
   6  -2  -9   17.64   10.93  90
   6   4  -9   77.63   11.92  90
   0  -8   3 1636.13   10.43  90
   0  -8   7  241.78    5.70  90
   0   0  10  267.26    8.47  90
   1 -11   1    3.92    3.95  90
   1 -11   8   15.83    7.15  90
   2  10  -3  189.95    5.00  90
   2  14  -1   27.88    4.62  90
   2  16   1  575.69    7.82  90
   3 -17   1    4.49    7.04  90
   3   9  -5  360.60    6.18  90
   4  10  -6   42.72    5.37  90
   4  18  -2    3.76    9.20  90
   5   5  -8    8.42    6.08  90
   6   2  -9   18.09    8.30  90
   0  10   4  195.38    8.61  90
   0  -2  10  156.03   10.68  91
   0   2  10  150.63   10.81  91
   1 -13   4  120.57    6.81  91
   1 -13   5  158.77    8.09  91
   2   6  -4  164.38    5.51  91
   2  12  -2  373.25    7.09  91
   3   1  -6   32.77    5.87  91
   4   4  -7   13.63    6.47  91
   5  -3  -8  129.30    8.38  91
   5  13  -6    4.90   10.68  91
   6   0  -9   -1.53    9.99  91
   0  -6   9    2.73    6.17  91
   1 -13   3  362.58    6.27  91
   1 -13   6  637.83    8.19  91
   1   9  -1 1535.21   10.50  91
   1  11   0   33.76    4.07  91
   2 -16   3   10.95    6.14  91
   2 -16   4   52.94    7.15  91
   2 -16   5  238.70    8.88  91
   2 -14   0  204.79    5.69  91
   5   3  -8  131.89    5.95  91
   5  15  -5    2.40    8.12  91
   0  10   6   63.22   10.85  90
   1  -5  -2  851.72   16.78  91
   0  -8   8  214.12    8.27  92
   0   4  10   10.08   10.01  92
   0   6   1  190.36    6.44  92
   0   8   2 4523.97   23.88  92
   0  10   5   61.17    7.15  92
   1 -13   7  162.28   10.31  92
   1  13   2  788.04   10.01  92
   3 -13  -3   14.31    6.41  92
   3  11  -4  174.10    6.98  92
   3  15  -2  107.09    7.70  92
   4  -2  -7    3.28    6.36  92
   4  12  -5    9.20    7.42  92
   4  16  -3    9.93    9.69  92
   5   9  -7   21.50    8.53  92
   0 -10   5   64.31    4.87  92
   0 -10   6   57.61    4.76  92
   0  -4  10   10.26    7.19  92
   2 -16   2   13.02    6.09  92
   2  16   2   15.06    6.06  92
   3 -17   0  129.34    7.47  92
   3  13  -3   10.48    4.51  92
   3  17   0  128.46    7.42  92
   4 -18  -1    5.31    9.43  92
   4   2  -7    3.16    4.53  92
   4  14  -4  126.33    6.43  92
   5  -1  -8  114.42    6.02  92
   5   1  -8  119.85    6.05  92
   6   8  -8   12.88    8.22  92
   6  -8  -8    7.94   16.65  92
   0 -10   4  198.25    6.43  93
   0  -8   2 4317.47   17.36  93
   0  -6   1  194.50    5.94  93
   1 -13   2  771.86    9.18  93
   1   5  -2  920.49    9.79  93
   3   7  -5  292.07    6.85  93
   4 -14  -4  117.11    9.32  93
   4   0  -7   -0.10    6.33  93
   0 -10   7  519.33    7.32  93
   0  -8   9   13.77    7.04  93
   2   4  -4  176.77    4.80  93
   2  14   0  212.35    5.60  93
   3 -15  -2  103.88    5.96  93
   4   8  -6   62.90    4.88  93
  -1  -1   6  376.93    7.40  94
   0  -6  10   93.71   11.99  94
   1 -11   0   30.72    5.74  94
   1  -9  -1 1553.58   12.95  94
   1  13   3  376.89    8.37  94
   2  16   3   11.68    8.61  94
   3 -11  -4  171.95    8.33  94
   4 -16  -3    7.41    9.99  94
   5  11  -6  105.56    8.88  94
  -1  -1   5  118.50    4.69  94
  -1  -1   7   21.69    4.08  94
  -1   1   6  357.56    6.95  94
   0 -10   3   45.89    4.28  94
   0 -10   8   -0.84    6.04  94
   1 -15   5   11.71    6.08  94
   1 -15   6   76.42    7.22  94
   2 -16   1  583.04    7.72  94
   2   8  -3 2326.44   11.73  94
   2  16   4   42.94    7.16  94
   3  17   1    9.52    6.95  94
   4  16  -2    0.57    6.92  94
   5   7  -7  244.03    6.39  94
   5  15  -4    1.44    8.10  94
   6   6  -8   23.32    7.17  94
   6  10  -7  596.84    9.90  94
   1  13   7  155.43   13.23  94
   4 -12  -5   12.27    9.25  94
  -1  -3   6  452.69    8.04  95
  -1   1   7   21.16    5.77  95
   1 -15   4  275.23    8.85  95
   1  11   1    6.61    5.38  95
   2 -12  -2  366.20    8.00  95
   2  12  -1  213.89    6.41  95
   2  16   5  231.81   12.57  95
   3  15  -1  126.92    7.83  95
   5  13  -5  389.51   10.69  95
  -1  -3   5  348.31    6.04  95
  -1  -3   7  428.69    6.61  95
  -1   1   5  110.06    5.03  95
   0 -12   6  100.83    5.58  95
   0 -10   9  297.51    8.25  95
   0  -8  10    1.21    8.46  95
   1 -15   3 1183.82    9.17  95
   1 -15   7   69.30    9.49  95
   1 -13   1    9.13    4.01  95
   2 -14  -1   29.33    4.69  95
   2  10  -2   62.20    4.37  95
   3 -17  -1    2.79    6.07  95
   3   9  -4  577.06    6.68  95
   4  10  -5   92.74    4.89  95
  -1  -5   6  505.76    7.97  96
  -1  -1   8    6.27    6.35  96
   0 -12   5    2.70    6.30  96
   0 -12   7   11.79    8.58  96
   0   6  10   86.45   12.34  96
   1   7  -1   50.98    5.22  96
   1  13   4  122.07    7.13  96
   2 -18   3   57.87   11.74  96
   2   2  -4  170.70    6.19  96
   3   5  -5  545.94    8.07  96
   3  17   2   41.73   10.83  96
   4   6  -6    0.84    6.37  96
   4  14  -3   12.66    8.47  96
   6  12  -6  504.61   13.49  96
  -1  -5   5  280.39    5.39  96
  -1  -5   7  739.16    7.67  96
  -1  -3   8   10.69    4.58  96
   0 -12   4   80.18    4.97  96
   0 -10   2  263.74    5.11  96
   1   9   0  119.18    4.31  96
   2  14   1  501.19    6.98  96
   3  11  -3 1037.89    8.52  96
   3  13  -2  849.37    7.93  96
   4  12  -4  124.25    5.68  96
   6   4  -8    2.60    6.95  96
   5 -15  -5   -2.22   14.55  96
  -1  -3   4 3278.13   16.96  97
  -1  -1   4  768.34   10.22  97
  -1   1   8    6.40    6.40  97
   0 -12   8   78.94   10.17  97
   0  -8   1  164.56    6.03  97
   1  13   5  164.99    8.56  97
   1  13   6  702.75   12.88  97
   2 -16   0  211.41    8.06  97
   3  17   3    2.50   11.68  97
   5   5  -7  236.37    8.30  97
   5   9  -6    2.90    7.38  97
  -1  -5   8   19.90    4.61  97
   1 -15   2  124.82    5.80  97
   2 -18   2    8.11    7.01  97
   3  15   0  159.48    5.88  97
   4  16  -1   52.03    7.10  97
   6   8  -7  280.44    8.04  97
   2  -4  -4  170.21    9.41  97
  -1  -7   6  203.71    6.51  98
  -1  -7   7  114.89    6.84  98
  -1  -3   9   54.34    7.69  98
  -1  -1   9  357.45    9.42  98
  -1   3   6  429.62    9.83  98
  -1   3   7  443.05    9.51  98
   0 -12   3  311.26    6.82  98
   0  -4   0   69.18    6.39  98
   0   8   3 1683.64   16.51  98
   2 -10  -3  197.43    7.64  98
   2   0  -4 1071.32   11.92  98
   2   6  -3   92.93    5.24  98
   3 -19   0   44.44   12.65  98
   5  15  -3   13.06   10.64  98
   6  -6  -8   27.62   10.06  98
   6   2  -8   87.07    9.01  98
  -1  -7   5   98.23    4.63  98
  -1  -7   8   47.35    5.51  98
  -1  -5   4  411.65    6.26  98
  -1  -5   9   31.08    5.42  98
   0 -14   6  102.62    6.48  98
   1 -17   4  189.86    7.64  98
   1 -17   5   44.20    8.26  98
   3   3  -5   24.77    3.42  98
   4   4  -6  713.23    7.52  98
   4   8  -5   39.43    4.63  98
   5  11  -5 1005.74    9.32  98
   5  13  -4  205.82    6.79  98
  -1   1   4  754.97   11.83  99
  -1   1   9  354.32    9.70  99
   0 -14   5   36.61    7.62  99
   0 -14   7   32.93    9.95  99
   1 -13   0 4460.35   17.81  99
   1  11   2   12.50    5.39  99
   2  -2  -4  171.31    7.26  99
   2  12   0   27.49    5.42  99
   2  14   2  228.73    8.27  99
   5   3  -7  610.11    9.83  99
   6   0  -8    0.43    8.56  99
   6  10  -6  150.62   10.38  99
  -1  -9   7  195.35    5.38  99
  -1  -7   9   -4.12    6.14  99
   0 -14   8   10.30    8.29  99
   1 -17   3   86.27    6.44  99
   2 -18   1   33.83    7.06  99
   3   7  -4  202.83    5.16  99
   4  14  -2  329.54    6.66  99
   6  -4  -8    0.45    6.97  99
   6  -2  -8   85.83    6.58  99
  -1  -9   6    3.72    6.43 100
  -1  -7   4  185.42    5.69 100
  -1  -3  10    5.56    8.71 100
  -1  -1  10    4.40    8.66 100
  -1   3   5  347.07    9.60 100
  -1   3   8   10.52    6.36 100
   0 -14   4 1124.78   10.68 100
   1 -15   1  497.12    8.27 100
   1 -11  -1 1401.75   11.93 100
   1  -7  -2   25.57    5.28 100
   2   8  -2 1554.56   10.60 100
   3 -17  -2  100.92    9.71 100
   3 -15  -3  109.81    8.11 100
   3  13  -1  256.33    7.32 100
   3  15   1    3.41    7.95 100
   4  10  -4  322.64    7.40 100
   4  16   0   12.25    9.84 100
   5   7  -6   72.23    7.61 100
   6   6  -7   33.41    8.70 100
   6  12  -5   18.43   11.57 100
  -1  -9   5 1790.25   10.50 100
  -1  -9   8   93.30    5.73 100
  -1  -5  10    1.10    7.15 100
   0 -12   2   27.40    4.02 100
   0 -10   1 1888.73   11.57 100
   0  -6   0  793.28    9.78 100
   2  10  -1 2005.69   11.29 100
   4   2  -6   -1.53    3.93 100
   4  12  -3  198.45    6.08 100
   5   1  -7   20.05    5.40 100
   5  15  -2  104.31    8.35 100
   7   3  -8    2.97    8.34 100
   4  -8  -6   59.22   10.03 100
   5  -7  -7  225.08   11.07 100
  -1  -9   9  252.84   10.15 101
  -1  -7  10   35.11   10.22 101
  -1  -3   3  812.45    9.68 101
   2 -16  -1  167.71    8.34 101
   2 -14  -2  501.89    9.10 101
   2  14   3  178.67    8.22 101
   3   1  -5  175.62    6.10 101
   3   9  -3  281.84    6.63 101
   3  11  -2   23.05    5.41 101
  -1 -11   7  214.41    6.02 101
  -1  -5   3  721.49    8.11 101
  -1   1  10    5.96    6.05 101
   0 -14   3  521.29    6.96 101
   1 -17   2  230.68    6.96 101
   3 -19  -1   67.97    8.62 101
   7   7  -7  287.46   10.23 101
   0   8   9   10.10   15.59 100
  -1 -11   6  243.38    7.22 102
  -1 -11   8    5.58    8.51 102
  -1  -9   4    8.93    5.51 102
  -1  -3  11  216.66   12.76 102
  -1   3   9   50.31    7.71 102
   0 -16   6  133.57   10.33 102
   0   6   2  232.90    8.46 102
   1   5  -1  114.22    5.20 102
   1   9   1  288.80    6.67 102
   2 -18   0   -1.59    9.85 102
   4 -16  -4   88.05   10.51 102
   4   6  -5  889.46    8.87 102
   4  16   1   24.64   10.79 102
   5  -1  -7   18.08    7.05 102
   5   9  -5   84.21    7.64 102
   5  13  -3  131.11    8.84 102
  -1 -11   5  101.56    5.03 102
  -1  -9  10   23.17    8.49 102
  -1  -7   3  264.94    5.27 102
   0 -16   5  454.40    7.70 102
   2   4  -3 1670.26   11.58 102
   2  12   1  241.76    5.43 102
   2  14   4  147.74    6.77 102
   3  15   2   50.59    6.24 102
   4  14  -1  104.80    6.46 102
   5  11  -4  672.52    7.78 102
   6   4  -7   17.64    6.13 102
   6   8  -6    6.32    6.02 102
   7   1  -8    4.07    8.30 102
  -1 -11   9  289.28   11.79 103
  -1  -1  11   24.69   12.03 103
   1  11   3  302.02    7.43 103
   3  -1  -5  180.42    6.38 103
   3   5  -4 1168.46    9.61 103
   4   0  -6  143.99    6.40 103
   5  -5  -7  209.14    8.99 103
   5  -3  -7  569.73   10.68 103
   5   5  -6    4.99    6.31 103
   0 -16   4  175.75    6.65 103
   0  -8   0  829.35    9.12 103
   1 -19   3   21.71    8.25 103
   1 -15   0  179.15    5.57 103
   1   7   0 6259.98   23.86 103
   2  14   5    0.40    6.06 103
   3  13   0   70.42    4.85 103
   4  16   2    6.29    8.14 103
   5  15  -1    1.83    8.13 103
   6  10  -5    6.61    6.92 103
   6  12  -4    4.47    6.96 103
   3  -7  -5  260.81   14.57 102
  -1 -13   7  390.36    9.57 104
   0 -14   2 4273.95   16.58 104
   0 -12   1  256.89    6.78 104
   0   8   4 1258.93   15.73 104
   1 -17   1  622.67    9.96 104
   2  14   6    8.35   11.49 104
   3 -13  -4   97.61    8.28 104
   3  15   3  674.60   11.86 104
   4   8  -4   12.46    5.86 104
   4  12  -2 1486.20   11.08 104
   7  -1  -8    0.66   11.75 104
   7   5  -7  109.10   12.03 104
  -1 -13   6  337.84    6.63 104
  -1 -13   8   47.93    7.25 104
  -1 -11   4   32.40    4.04 104
  -1  -9   3  251.39    5.03 104
   1 -13  -1 1092.82    9.67 104
   4  -2  -6    1.56    3.87 104
   4  10  -3  616.76    7.10 104
   7  -3  -8    0.87    8.39 104
  -1 -13   5  789.12    9.47 105
  -1   1  11   24.15   11.96 105
  -1   3  10    4.28    8.62 105
   0 -16   3    9.40    7.55 105
   1  -9  -2   27.21    4.96 105
   2 -12  -3 1850.18   15.89 105
   2  10   0  698.27    8.53 105
   3  -3  -5   21.39    4.95 105
   3  15   4  202.31   10.73 105
   6   2  -7   46.21    8.78 105
   0 -18   5    7.49    8.23 105
   1 -19   2    2.44    7.01 105
   2   6  -2  198.83    4.97 105
   3   7  -3  280.07    5.10 105
   3  11  -1   59.51    4.25 105
   4   4  -5  583.98    7.09 105
   4  14   0  549.10    7.95 105
   5   7  -5  381.57    6.31 105
   5  13  -2   82.97    6.28 105
   5  15   0   58.19    8.43 105
   6   6  -6    2.05    6.05 105
   4  -6  -6    2.98    7.78 105
   1  11   4  299.37    8.27 106
   2  12   2  198.13    7.27 106
   3   9  -2   -2.51    5.47 106
   3  15   5   17.09   12.49 106
   4  -4  -6  732.78   10.86 106
   5   3  -6  398.11    8.15 106
  -1 -15   6   76.90    6.42 106
  -1 -15   7   72.70    7.24 106
  -1 -13   4   96.96    4.99 106
  -1 -11   3  637.94    7.05 106
  -1  -5   2  832.89    8.87 106
   0 -18   4   42.90    7.23 106
   0 -10   0   16.37    3.48 106
   2 -18  -1    1.14    7.00 106
   2   8  -1  168.07    4.54 106
   3 -19  -2   -1.72    8.42 106
   3  13   1  332.23    6.18 106
   5   9  -4  636.54    7.69 106
   5  11  -3 1243.68    9.43 106
   7   3  -7  394.16    9.52 106
   7   7  -6   26.13    8.26 106
   3  -5  -5  555.66   12.58 106
  -1  -7   2   24.29    5.21 107
   2 -16  -2 1145.49   12.23 107
   3 -17  -3   24.75    9.96 107
   6   0  -7    0.74    8.52 107
   6   8  -5   18.41    8.53 107
   6  12  -3   -0.13    9.87 107
   7   9  -5    6.89   11.64 107
  -2  -6   7   51.49    4.86 107
  -2  -6   8   -1.22    4.50 107
  -2  -6   9  100.39    5.88 107
  -2  -4   7  173.20    5.16 107
  -2  -4   8  263.52    6.14 107
  -1 -15   5  677.08    8.32 107
   0 -16   2  260.67    6.34 107
   0 -14   1  112.67    5.29 107
   1   9   2 3624.54   17.97 107
   2   2  -3  192.06    5.45 107
   3   3  -4   24.43    3.52 107
   4  12  -1  362.29    6.76 107
   4  14   1  491.12    7.84 107
   5  15   1   14.76    9.36 107
   6  10  -4    2.30    6.02 107
  -1   5   7  721.66   15.55 107
  -2  -8   7  185.35    7.19 108
  -2  -8   8   82.55    7.70 108
  -2  -8   9    4.35    8.61 108
  -2  -4   9  481.42    9.60 108
  -1   5   8   19.84    6.61 108
   1 -17   0  510.28    9.35 108
   1  11   5   62.80    6.77 108
  -2 -10   8   39.31    6.14 108
  -2  -6   6   65.93    4.46 108
  -2  -6  10   46.12    7.29 108
  -2  -2   8  107.40    5.32 108
  -1  -9   2   25.81    3.53 108
   0 -18   3  393.81    8.23 108
   1 -19   1    7.40    7.00 108
   4   6  -4   50.60    4.26 108
   5  13  -1  217.58    6.87 108
   6   4  -6   33.22    5.43 108
   1  11   8   19.35   12.39 108
   4 -14  -5   19.90   10.71 108
   6 -10  -7  580.59   18.07 108
  -2 -10   7  282.53    8.41 109
  -2 -10   9   24.66   10.08 109
  -2  -8   6   15.80    5.52 109
  -2  -8  10   29.81   11.08 109
  -2  -4   6  159.55    6.65 109
  -2  -4  10   87.43    9.12 109
  -2  -2   7  987.90   10.46 109
  -2  -2   9   20.44    7.52 109
  -1 -15   4   13.25    7.46 109
  -1 -13   3  781.49    9.05 109
  -1   3  11  209.22   13.26 109
   0 -12   0  674.25    8.67 109
   1 -15  -1  434.72    8.44 109
   1 -11  -2  785.19   10.47 109
   2  12   3   41.82    6.58 109
   3  13   2  111.84    7.82 109
   4   2  -5  917.26    9.65 109
   4  10  -2  210.25    7.20 109
   5   1  -6  269.35    7.69 109
   5   5  -5   30.48    6.48 109
   6  -2  -7   50.28    8.69 109
   7   1  -7   13.08   10.06 109
  -2 -10  10   13.82    8.45 109
  -1 -17   6  300.31    9.07 109
   2  10   1   -0.37    3.88 109
   3  11   0  150.48    4.76 109
   4   8  -3   22.93    3.92 109
   7   5  -6    4.72    7.04 109
  -2 -12   8   52.95   10.09 110
  -2 -10   6  269.38    7.34 110
  -2  -2  10   55.13    8.94 110
  -1 -11   2  792.05    8.73 110
   1   3  -1 1526.42   14.78 110
   1  11   6  109.21    8.22 110
   1  11   7  392.75   11.35 110
   4  14   2   30.83    9.22 110
   5  11  -2    7.53    7.39 110
   6  -4  -7   17.50    8.60 110
   6  12  -2  269.16   10.44 110
  -2 -12   7  466.46    7.72 110
  -2 -12   9  524.32    9.93 110
  -2  -8   5  608.54    6.98 110
  -2  -6   5    3.54    3.95 110
  -2  -4  11   12.88    8.49 110
  -2  -2   6 3236.57   16.12 110
  -1 -17   5  110.82    7.30 110
   0 -18   2   11.74    6.04 110
   0 -16   1  183.12    6.14 110
   3   5  -3 1089.11    8.86 110
   5   7  -4  176.37    5.41 110
   6   6  -5  277.29    6.49 110
   7   7  -5  374.71    8.29 110
  -1   5   9   30.38    9.41 110
  -2 -12   6  495.23    9.07 111
  -2  -4   5   40.74    5.02 111
  -2   0   8    3.66    6.39 111
   0   8   5  406.07   10.42 111
   1   7   1  202.18    6.47 111
   2 -20  -1   22.39   12.64 111
   2 -14  -3   97.21    7.18 111
   2  12   4 2085.89   14.88 111
   3   9  -1 1319.31   10.12 111
   3  13   3   54.00    7.54 111
   4  12   0  147.09    7.83 111
   5   9  -3  200.34    7.50 111
   5  13   0   63.14    9.39 111
   6  -8  -7  262.38   11.71 111
   6  -6  -7   29.69    8.80 111
   6  10  -3   42.47    8.54 111
   7  -1  -7   13.33   10.06 111
   7   9  -4   20.82   11.57 111
  -2 -14   8  170.11    8.79 111
  -2 -10   5   18.64    3.98 111
  -1 -17   4   83.18    6.37 111
  -1 -15   3  306.50    6.53 111
   2   4  -2 1853.87   12.42 111
   3   7  -2    7.14    3.25 111
   4  14   3   93.24    7.38 111
   6   2  -6  440.78    7.37 111
   6   8  -4  149.67    6.59 111
  -2 -14   7   -1.80    9.84 112
  -2  -2  11   73.16   12.12 112
  -2   0   7   -1.42    5.57 112
  -2   0   9   -1.25    7.43 112
  -1 -13   2    3.61    5.54 112
   0 -14   0  944.68   10.00 112
   1 -19   0    2.29    9.98 112
   2 -18  -2   56.35   10.07 112
   2   8   0  309.57    6.47 112
   3 -15  -4  307.96   10.68 112
   3   1  -4  808.62    9.32 112
   5  -1  -6  269.91    7.76 112
  -2 -12   5  422.96    6.34 112
   1   5   0  680.75    8.78 112
   4   4  -4  349.01    6.02 112
   6  12  -1   77.04    8.30 112
   7   3  -6  320.54    8.14 112
  -2 -14   6   -1.38    8.60 113
  -2  -8   4  253.22    6.76 113
  -2  -6   4  192.47    5.81 113
  -2  -2   5 7509.64   25.11 113
  -2   0  10    1.36    8.52 113
   1 -17  -1  488.66    9.45 113
   1 -13  -2    7.47    5.48 113
   1   9   3  520.94    8.97 113
   2   6  -1 2817.85   14.67 113
   2  12   5   87.33    7.91 113
   3  11   1 3516.57   15.60 113
   3  13   4    5.69    8.56 113
   4   0  -5    0.34    5.54 113
   4  10  -1 3639.73   15.06 113
   4  14   4   -0.12   11.76 113
   5   3  -5   52.30    6.58 113
   7  -3  -7  394.32   12.34 113
  -2 -10   4  292.21    5.60 113
  -1  -9   1 1561.62   10.52 113
  -1  -7   1   46.90    4.03 113
   0  -8  -1  170.96    5.40 113
   2   0  -3   -0.09    2.93 113
   5  11  -1   26.50    5.33 113
   5  13   1   -4.24    7.01 113
  -2 -16   7  118.43   12.07 114
  -2 -14   5  442.35    8.88 114
  -2   0   6 5140.64   23.20 114
  -1 -17   3    9.88    8.47 114
   0 -20   2   48.07   11.79 114
   0 -18   1    1.52    8.54 114
   0  -6  -1  193.27    6.61 114
   0   6   3  402.54   10.03 114
   2  10   2   83.88    5.91 114
   2  12   6  536.62   11.25 114
   2  12   7  124.38   12.10 114
   3  13   5   15.73    9.86 114
   4  12   1  258.96    8.27 114
   6   4  -5  112.22    7.73 114
   7   5  -5  242.70   10.49 114
  -2 -16   6   11.08    7.05 114
  -2 -12   4 1751.80   10.19 114
  -2  -4   4  178.55    4.88 114
  -1 -19   4  244.13    9.00 114
  -1 -15   2  279.50    5.84 114
  -1 -11   1 1404.47    9.73 114
  -1  -5   1  107.57    4.43 114
   0 -10  -1 1961.03   12.99 114
   4   6  -3  685.17    7.23 114
   4   8  -2    5.29    3.89 114
   5  -3  -6  371.55    7.05 114
   6   0  -6  153.28    6.18 114
   6  10  -2    1.45    5.96 114
   7  -5  -7  108.29    8.83 114
   7   7  -4    1.00    6.88 114
   7   9  -3   13.22    8.10 114
  -1   5   6  476.67   17.61 113
  -1   5  10    5.11   12.13 114
  -2   0  11   -2.10   11.76 115
   0 -16   0  721.97    9.88 115
   3  13   6  166.02   12.35 115
   5   5  -4  899.29    9.42 115
   5   9  -2  109.36    6.66 115
   6  12   0   12.54   11.59 115
   7  -7  -7  294.72   14.49 115
   7   1  -6  339.46   10.88 115
   5   7  -3  373.22    6.26 115
   5  13   2    4.65    8.15 115
   6   6  -4  558.85    7.56 115
   6   8  -3    3.53    5.27 115
  -2 -16   5    9.56    8.62 116
  -2 -14   4  347.85    8.60 116
   1 -15  -2  283.57    7.99 116
   2 -16  -3   78.83    8.11 116
   3   9   0  107.18    6.07 116
   3  11   2  113.29    6.94 116
  -3  -9   8  454.92    7.33 116
  -3  -9   9   86.51    7.40 116
  -3  -9  10   17.02    8.49 116
  -3  -7   9   56.02    6.35 116
  -2  -8   3 2438.39   12.20 116
  -1 -19   3    6.28    8.24 116
  -1 -17   2    7.77    6.07 116
  -1 -13   1 1117.39    8.84 116
   0 -12  -1  254.74    5.89 116
   3   3  -3  671.54    7.49 116
   4  12   2  185.19    6.09 116
   5   1  -5   67.18    4.90 116
   5  11   0    8.40    5.28 116
   5  13   3  249.88   10.02 116
   0   8   6  190.86    9.98 116
  -3 -11   8   26.49    8.65 117
  -3 -11   9    5.98   11.75 117
  -3  -7   8  216.65    8.40 117
  -3  -7  10   17.19   10.14 117
  -2 -10   3  202.14    6.54 117
  -2   2   8  106.86    7.22 117
  -2   2   9   12.35    7.54 117
   0 -20   1  180.58   12.12 117
   1 -19  -1    3.51    9.84 117
   3  -1  -4  832.66   10.10 117
   4  -2  -5  902.95   10.60 117
   4  10   0  886.59    9.39 117
   5  -5  -6    3.81    6.40 117
   6  12   1  418.27   13.27 117
  -3 -11   7   93.31    5.74 117
  -3  -9   7  151.68    5.96 117
  -3  -7   7  207.73    5.62 117
  -3  -5   9   62.28    5.66 117
  -2 -12   3 1836.41   10.46 117
  -2  -6   3   90.68    4.15 117
   1   9   4  481.42    7.79 117
   3   7  -1   27.61    3.43 117
   4   2  -4 1579.74   10.77 117
   6  -2  -6  434.96    7.55 117
   6  10  -1  207.91    6.67 117
   7   3  -5   31.48    6.17 117
   7   9  -2   13.01    8.19 117
  -3 -13   8   26.32   11.00 118
  -3  -5   8  205.96    7.39 118
  -3  -5  10  306.17   11.20 118
  -2 -18   5   15.22   11.72 118
  -2 -16   4  570.90   10.04 118
  -2  -2   4  173.05    6.31 118
  -2   0   5    0.31    4.79 118
  -2   2  10   55.13    8.97 118
   0 -18   0    4.22    8.51 118
   2   8   1  116.45    5.32 118
   2  10   3  293.92    7.25 118
   3   5  -2 1700.41   11.16 118
   6   2  -5   12.34    7.47 118
   7  -1  -6  325.03   10.94 118
  -3 -13   7  990.98    9.33 118
  -3  -5  11    3.50    8.54 118
  -1 -15   1  427.37    6.59 118
  -1  -3   1 1540.54   14.27 118
   0 -14  -1  111.56    5.39 118
   4  12   3  150.96    6.74 118
   5   9  -1   61.63    5.50 118
   7   5  -4  296.60    7.91 118
   7   7  -3    4.74    6.87 118
  -3 -11   6  206.64    8.15 119
  -3  -9   6  240.85    7.30 119
  -3  -5   7   17.81    6.46 119
  -2 -14   3  103.68    6.75 119
  -2   2   7  970.68   12.54 119
   1   7   2  693.48    9.47 119
   3 -17  -4   -0.44    9.99 119
   3  11   3  663.65    9.14 119
   4   8  -1  976.45    8.98 119
   5  -7  -6   67.89    7.94 119
   5  11   1 1137.02   11.53 119
   6   8  -2  204.80    8.57 119
  -3 -15   7  335.73    9.33 119
  -3 -13   6   87.95    6.27 119
  -3  -7   6  152.57    4.94 119
  -3  -3   9   70.07    5.77 119
  -3  -3  10    2.88    6.20 119
  -2  -4   3 1758.89   11.84 119
  -1 -19   2   51.40    7.24 119
   2   2  -2 1346.39   11.79 119
   4   4  -3 1047.29    8.66 119
   5   3  -4  715.40    7.47 119
   6   4  -4  391.13    6.95 119
   0   8   9   10.66   15.60 118
   5 -11  -6   95.67   11.57 119
  -3  -3   8  146.59    7.16 120
  -2 -18   4    7.98   10.83 120
   1 -17  -2   11.26    8.56 120
   3   9   1  372.11    7.32 120
   4   6  -2  269.35    6.69 120
   4  10   1   40.04    6.47 120
   4  12   4  157.10   10.44 120
   5  -9  -6   -1.42    7.51 120
   5   7  -2   14.32    6.29 120
   6  -4  -6   32.96    7.66 120
   6   6  -3  253.06    8.18 120
   6  10   0   29.29    9.88 120
   7   9  -1  100.98   11.74 120
  -3  -5   6    8.80    3.96 120
  -3  -3  11    1.71    8.41 120
  -2 -16   3   83.08    5.64 120
  -1 -17   1  488.89    7.35 120
   2   6   0 3862.64   17.02 120
   5  -1  -5   66.59    5.01 120
   5   5  -3   14.97    4.59 120
   7  -3  -6  332.38    8.47 120
   7   1  -5  270.58    7.15 120
  -2   2  11   75.45   14.74 120
   0   8   7  252.88   10.77 120
  -3 -15   6   23.11    9.92 121
  -3 -11   5 1284.99   10.30 121
  -3  -9   5  382.19    7.45 121
  -3  -3   7  517.79    8.16 121
  -2 -10   2   70.45    6.08 121
  -1 -11   0   36.94    5.73 121
  -1  -9   0  122.76    5.57 121
   0 -16  -1  190.32    8.22 121
   1   9   5  476.65    9.49 121
   2 -18  -3  125.01   10.56 121
   2  10   4 1173.89   11.58 121
   3  11   4   22.77    7.43 121
   4  -4  -5  567.83    9.59 121
   4  12   5  158.72   12.25 121
  -3 -13   5  180.67    6.04 121
  -3  -7   5  294.88    5.59 121
  -2 -12   2  380.21    6.03 121
  -2  -8   2 1588.49   10.42 121
   0 -20   0  135.84    8.86 121
   2   4  -1   23.24    3.30 121
   5  11   2    2.54    6.11 121
   6   0  -5    1.83    5.22 121
   7   7  -2    6.76    6.96 121
   0   8   8  217.55   11.78 121
  -1 -13   0 4705.98   17.84 122
   5   9   0  423.33    8.67 122
   6  -6  -6    2.36    8.56 122
   7   3  -4   83.06    8.80 122
  -3 -17   6    3.69    9.29 122
  -3 -15   5  800.24    8.72 122
  -2 -18   3  142.44    7.39 122
  -2 -14   2  529.44    6.92 122
  -1  -7   0 6279.07   24.84 122
   3  11   5   50.47    6.29 122
   4   0  -4  108.06    4.96 122
   6   8  -1  178.16    6.65 122
   6  10   1   64.85    7.12 122
   7  -5  -6   -0.50    7.10 122
   7   5  -3   57.38    6.31 122
  -3  -1   9 1560.66   14.30 123
  -3  -1  10  111.86    9.34 123
  -2  -6   2  192.27    6.19 123
  -2   2   6 3497.82   22.40 123
  -1 -19   1   -1.11    9.94 123
   0   4   2  369.61   10.75 123
   1   5   1 1016.80   11.41 123
   2  -2  -3  201.80    7.62 123
   2  10   5  101.42    7.42 123
   3   1  -3 3346.83   16.76 123
   3   7   0 1238.98    9.74 123
   4  10   2    5.03    7.30 123
   5  11   3  572.97   11.54 123
  -3 -11   4  175.87    5.49 123
  -3  -5   5  553.78    7.05 123
  -3  -3   6  293.13    6.01 123
  -3  -1   8  344.37    6.88 123
  -2 -16   2 1150.77    9.04 123
  -1 -15   0  182.86    5.53 123
   0 -18  -1    2.34    6.03 123
   1 -19  -2   50.77    7.24 123
   1   1  -1  390.90    9.29 123
   2   8   2 1483.13   10.69 123
   3  -3  -4   22.81    3.69 123
   3  11   6    5.44    6.94 123
   4   8   0  147.97    4.71 123
   6   2  -4 1172.92    9.21 123
   8   2  -4   28.89    8.39 123
   4 -16  -5    0.32   18.33 122
  -3 -17   5   16.48   11.70 124
  -3 -13   4  109.21    7.88 124
  -3  -9   4  613.76    7.93 124
  -3  -1  11   67.87   12.08 124
   1 -11  -3  662.25   10.93 124
   1   9   6  415.53    9.45 124
   3   9   2 2978.22   14.58 124
   3  11   7   27.18   12.49 124
   5   1  -4   43.19    5.61 124
   5  11   4  254.89   12.46 124
   6  -8  -6    2.23    8.66 124
   6   6  -2 1640.99   11.69 124
   7  -1  -5  283.31    9.50 124
  -4 -10   9   60.55    8.53 124
  -4  -8  10   12.27    8.61 124
  -2  -2   3  194.30    5.51 124
   5  -3  -5   44.75    4.92 124
   5   7  -1   37.94    4.61 124
   6   4  -3  225.94    6.19 124
   6  10   2   17.90    8.25 124
   7  -7  -6   19.97    8.43 124
   7   7  -1   80.92    7.21 124
  -4 -12   8   52.98   11.06 125
  -4 -10   8   -2.40    9.27 125
  -4  -8   9   11.03    9.98 125
  -3 -15   4  346.45    9.42 125
  -3  -7   4  219.83    6.57 125
  -2   0   4 1118.82   12.21 125
  -1 -17   0  518.49    9.25 125
   1 -13  -3  790.35   11.36 125
   1  -9  -3  259.65    8.24 125
   1   9   9   19.68   11.79 125
   2  10   6  744.41   11.12 125
   2  10   8    1.20   11.69 125
   3   3  -2   20.55    4.96 125
   3   5  -1   55.34    4.97 125
   4  -6  -5  868.00   11.80 125
   5   9   1   23.34    7.43 125
   6 -10  -6  140.49   10.90 125
   6  -2  -5   11.83    7.49 125
  -4  -8   8   19.21    6.12 125
  -3  -1   7  904.10    9.40 125
  -2 -18   2   59.05    7.10 125
   1   3   0 4280.80   24.40 125
   2  10   7   32.81    6.29 125
   4   2  -3  245.94    5.19 125
   4   6  -1  634.26    6.88 125
   4  10   3  193.40    6.20 125
   5   3  -3  459.22    6.35 125
   5   5  -2   61.42    4.89 125
   6   8   0   80.68    6.33 125
   2 -12  -4 1833.69   21.47 125
   6 -12  -6  491.65   17.78 125
  -4 -12   7  163.76    9.64 126
  -4 -10   7  452.75    9.84 126
  -4  -6   9  230.63    9.51 126
  -4  -6  10   55.69   11.24 126
  -3 -17   4   -1.83    9.90 126
  -1  -5   0  702.43    9.62 126
   0 -12  -2   26.48    5.75 126
   1   7   3  439.38    8.11 126
   1   9   7  123.00    8.31 126
   1   9   8  741.64   13.25 126
   7   1  -4   90.01    8.80 126
   7   5  -2   17.52    9.16 126
  -4 -14   7  275.78    9.06 126
  -4  -8   7  586.98    7.62 126
  -2 -12   1  222.69    5.24 126
  -2 -10   1 2085.07   11.76 126
  -2  -4   2 1876.21   12.55 126
   0 -20  -1  169.75    8.94 126
   0 -10  -2  276.08    6.19 126
   4   4  -2  612.01    6.96 126
   7   3  -3   16.02    6.03 126
   8   0  -4   44.30    8.51 126
  -4  -6   8   10.38    7.57 127
  -3 -13   3   14.11    6.50 127
  -3 -11   3 1101.28    9.93 127
  -3  -3   5   37.42    4.91 127
  -2 -14   1   33.20    6.50 127
   0 -14  -2 4481.21   20.05 127
   0   6   4 1406.68   17.03 127
   1 -15  -3  310.20    9.33 127
   3   9   3  460.70    8.46 127
   4   8   1   41.34    6.60 127
   4  10   4  226.27    9.27 127
   7  -3  -5   35.13    8.70 127
   7   7   0   21.23   11.54 127
   8   2  -3  248.33   12.94 127
  -4 -12   6  199.47    6.71 127
  -4 -10   6   42.88    5.46 127
  -3  -9   3  289.34    5.49 127
  -3  -5   4 1197.03    9.13 127
  -2 -20   2    4.72    9.28 127
  -2  -8   1  178.29    4.70 127
  -1 -19   0    8.27    6.99 127
   2   6   1   17.26    3.49 127
   5   9   2   79.75    6.27 127
   6   0  -4  184.07    5.63 127
   6   6  -1   -0.85    5.28 127
   6   8   1  122.16    6.44 127
   2 -10  -4  309.19   14.14 126
   2 -14  -4  357.95   12.00 127
  -4 -14   6   10.95    9.95 128
  -4  -4  10   15.53   10.10 128
  -3 -15   3  115.52    7.82 128
  -3  -1   6   32.45    5.96 128
  -2 -16   1  168.12    8.17 128
   2   8   3  784.58    9.53 128
   3   7   1  431.01    7.55 128
   5   7   0  419.37    7.87 128
  -4 -16   6   76.19    9.50 128
  -4  -8   6   68.18    4.85 128
  -4  -6   7    6.25    4.58 128
  -4  -4   9   17.85    6.19 128
  -4  -4  11   86.87    9.86 128
   0 -16  -2  267.50    6.80 128
   4  -2  -4 1541.04   11.52 128
   4  10   5  125.24    7.54 128
   5  -5  -5   28.37    4.78 128
   6  -4  -5  100.65    5.85 128
   6   2  -3  996.78    8.41 128
   6   4  -2   47.08    5.47 128
  -3 -17   3   22.26    9.97 129
  -3   1   9 1535.24   15.02 129
  -3   1  10  110.45    9.31 129
  -1 -13  -1    9.53    5.63 129
  -1 -11  -1    2.74    5.57 129
   0  -8  -2 4612.34   24.31 129
   1 -17  -3    2.95    8.60 129
   4  10   6  376.62   12.87 129
   5  -1  -4   39.90    5.65 129
   5   9   3   61.34    8.73 129
   7   5  -1   66.21    9.89 129
   7   7   1   80.35   12.51 129
  -4 -14   5   20.72    6.10 129
  -4 -12   5    9.61    5.37 129
  -4  -4   8  651.15    8.30 129
  -3  -7   3  272.59    5.07 129
  -2 -18   1    5.07    6.91 129
   3   9   4   22.23    4.58 129
   6   8   2   26.38    7.06 129
   7  -5  -5  227.73    7.99 129
   7  -1  -4   89.47    6.36 129
   8  -2  -4   21.85    8.50 129
  -4 -10   5  104.11    6.63 130
  -3   1   8  355.94    8.80 130
  -3   1  11   64.78   12.03 130
  -1 -15  -1  503.54    8.51 130
  -1  -1   1  391.54   10.07 130
   4  -8  -5   37.72    6.77 130
   4   6   0  144.63    6.09 130
   4   8   2  114.00    6.92 130
   5   5  -1 1223.29   10.10 130
   7   3  -2  252.76    9.21 130
  -4 -16   5   -1.14    8.27 130
  -4  -6   6    6.10    4.40 130
  -2  -6   1 2836.45   14.65 130
  -1  -9  -1  301.43    5.93 130
   0 -18  -2    8.38    6.15 130
   2   0  -2 2467.07   17.24 130
   3  -1  -3 3246.59   17.35 130
   5   1  -3  170.17    4.94 130
   5   9   4   11.71    7.00 130
   6   6   0   87.05    5.67 130
   7   1  -3   22.13    6.09 130
   8   0  -3    0.14    8.31 130
   8   2  -2   90.42    9.48 130
  -2   4   9  468.33   13.84 130
   2 -16  -4  550.65   13.99 130
  -4  -8   5   48.68    6.58 131
  -4  -4   7   15.64    6.49 131
  -3 -13   2  880.08    9.25 131
  -1 -17  -1  636.02   10.24 131
   2   4   0  389.33    6.86 131
   3  -5  -4 1228.72   14.12 131
   5   3  -2  357.49    7.20 131
   5   7   1  606.12    8.41 131
   6   8   3   63.44   11.75 131
  -3 -15   2  111.39    5.75 131
  -3 -11   2   27.71    4.02 131
  -3  -3   4   24.92    3.66 131
  -2 -20   1   21.98    9.44 131
   2   8   4  349.25    6.41 131
   3   5   0  341.72    5.59 131
   3   9   5   76.84    5.67 131
   4   0  -3   -1.77    3.40 131
   5   9   5  184.40    9.86 131
   6  -6  -5  275.63    7.03 131
   6  -2  -4 1203.76    9.53 131
   7   5   0  168.26    7.42 131
  -2   4  10   79.31   11.40 131
  -4  -2   9   79.61    7.97 132
  -4  -2  10    6.11   10.08 132
  -4  -2  11  232.09   12.94 132
  -3  -5   3 1176.13    9.75 132
   1 -19  -3    9.59   11.63 132
   1   7   4  591.64    9.65 132
   4   4  -1  152.93    6.15 132
   5  -7  -5  380.33    8.95 132
   7  -7  -5  402.20   11.46 132
  -5 -11   8   78.26    8.62 132
  -5  -9   9   35.54    8.53 132
  -4 -14   4  127.73    6.46 132
  -4 -12   4  130.09    5.81 132
  -3 -17   2  107.69    7.33 132
  -3  -9   2    2.34    3.95 132
  -3  -1   5  191.19    5.23 132
  -2 -14   0  210.58    5.64 132
  -2 -12   0   25.81    4.11 132
   2   2  -1  121.72    4.64 132
   3   7   2 1555.16   10.28 132
   3   9   6   10.69    6.11 132
   3   9   7  134.09    7.74 132
   4   2  -2   25.66    3.56 132
   4   8   3 1642.62   10.67 132
   6   4  -1  557.22    7.39 132
   7  -3  -4   80.42    6.46 132
  -2   4   8  273.86   11.26 132
  -4 -16   4   96.47   10.22 133
  -4 -10   4  352.11    7.70 133
  -3   1   7  994.92   11.66 133
  -2 -16   0  211.31    8.17 133
  -1 -19  -1    4.87    9.91 133
   0 -20  -2   44.39   11.98 133
   3   3  -1 8659.69   25.84 133
   6   0  -3    0.58    6.37 133
   6   6   1  260.57    9.17 133
   7   3  -1  368.89    9.55 133
  -5 -13   7   -1.09    8.37 133
  -5 -11   7    3.72    7.11 133
  -5  -9   8    3.19    7.01 133
  -4  -6   5  908.46    8.01 133
  -4  -4   6  759.66    7.81 133
  -4  -2   8   17.90    5.41 133
  -3 -19   2    0.95    8.35 133
  -2 -10   0  689.74    7.61 133
  -2  -2   2 1388.71   11.86 133
   1   5   2  283.32    6.49 133
   3   1  -2  577.24    7.39 133
   5  -3  -4  719.16    8.04 133
   5   5   0  534.40    6.87 133
   5   7   2  105.97    5.65 133
   6   2  -2   -0.17    4.50 133
   7   5   1   97.68    8.51 133
   8  -2  -3  242.58    9.11 133
   8   0  -2  558.18   10.76 133
  -5  -7   9  149.05   10.65 134
  -2 -18   0   -1.90    9.92 134
  -2   0   3    2.14    4.20 134
  -1  -7  -1  214.70    6.78 134
   2   6   2  290.94    6.60 134
   2   8   5 1782.76   13.68 134
   4 -10  -5   90.83    7.49 134
   4  -4  -4  370.24    8.10 134
   4   6   1   36.51    5.58 134
   7  -9  -5    8.05   11.85 134
   7  -1  -3   22.20    8.57 134
   7   1  -2  173.33    8.98 134
  -5  -9   7   24.11    6.16 134
  -4  -8   4   13.46    3.95 134
  -3  -7   2    8.58    3.37 134
  -1  -3   0 4499.04   24.83 134
   4   8   4   56.12    5.65 134
   6  -8  -5   19.69    6.13 134
   1  -7  -3  299.77   12.23 134
   2 -18  -4   12.32   12.34 134
  -5 -13   6    8.73   10.81 135
  -5  -7   8  146.89    9.22 135
   6   6   2   55.24    8.66 135
  -5 -11   6  109.36    6.67 135
  -4 -16   3   10.31    7.00 135
  -4 -14   3   15.93    6.12 135
  -4 -12   3  214.65    6.21 135
  -4  -2   7    2.86    4.57 135
  -3 -15   1  133.45    5.82 135
  -3 -13   1  263.71    5.86 135
  -2  -8   0  332.76    5.79 135
  -2  -4   1   22.10    3.31 135
   3   7   3   55.83    4.26 135
   4   8   5   52.77    6.34 135
   5   3  -1 4075.86   15.07 135
   5   7   3    0.96    6.01 135
   6  -4  -4  386.11    7.24 135
   6   4   0  126.47    5.76 135
   7  -5  -4  301.24    8.15 135
   7   3   0   -3.07    6.92 135
  -5  -5  10   14.22   11.97 136
   0  -6  -2  232.13    8.75 136
   1   7   5   42.83    5.88 136
   2   8   6   -1.77    7.42 136
   4   8   6   26.91   10.08 136
   5  -9  -5   81.56    8.02 136
   5  -1  -3  181.37    6.45 136
  -5  -9   6    1.42    5.28 136
  -5  -7   7  253.24    6.55 136
  -5  -5   9   11.73    7.18 136
  -4 -10   3  643.21    7.32 136
  -4  -4   5  573.24    7.05 136
  -3 -17   1    1.17    6.95 136
  -3 -11   1   57.99    4.29 136
   2   8   7   90.97    6.53 136
   2   8   8    9.20    7.05 136
   3   5   1  205.88    4.83 136
   5   1  -2  262.76    5.42 136
   5   7   4    4.96    6.00 136
   6   6   3   33.20    7.10 136
   0   6   5  436.88   11.06 136
  -4  -6   4   55.00    5.87 137
  -3  -3   3  700.57    8.46 137
  -3   1   6   34.32    5.94 137
   2  -4  -3 1772.08   20.00 137
   4   4   0   35.58    5.69 137
   4   6   2 1190.78   10.32 137
   5   5   1  647.30    8.25 137
   6 -10  -5    4.34    9.93 137
   6   2  -1  170.74    7.43 137
  -5 -15   5   -2.76    8.41 137
  -5 -13   5  398.57    8.21 137
  -5  -5   8   13.48    6.13 137
  -3 -19   1   81.11    8.49 137
  -1 -15  -2  126.64    6.02 137
   5   7   5   92.97    8.52 137
   6  -2  -3 1035.11    8.82 137
   6   6   4  115.25    8.57 137
   7  -3  -3   15.01    6.18 137
   7   1  -1   36.62    6.16 137
  -2   4  11   12.29   18.52 136
  -2   4   7  178.41    9.68 137
   4 -12  -5   10.71    9.37 137
  -5 -11   5 1106.29   11.43 138
  -4  -2   6    3.55    5.58 138
  -4   0   9   -0.80    7.53 138
  -4   0  10  639.33   13.05 138
  -4   0  11   -2.09   11.96 138
  -3  -9   1 1394.47   10.34 138
  -3  -5   2 1692.62   11.32 138
  -3  -1   4  852.56    9.56 138
  -1 -13  -2  815.10   10.10 138
   0 -14  -3  556.50    9.90 138
   3   7   4   64.24    6.74 138
   4  -2  -3  259.32    6.38 138
   5 -11  -5  964.95   13.95 138
   5  -5  -4  902.94   10.49 138
   6 -12  -5   24.51   11.86 138
   6   0  -2  625.51    8.44 138
   6   4   1  479.68    8.87 138
   7  -1  -2  158.53    9.00 138
   7   3   1  114.71   10.91 138
  -5  -7   6   67.64    5.60 138
  -4  -8   3    9.37    3.95 138
  -1 -17  -2  224.14    7.18 138
   0 -16  -3    7.54    5.37 138
   7  -7  -4    0.27    7.05 138
  -5  -9   5   90.56    7.72 139
  -5  -5   7  249.60    8.30 139
  -4 -16   2    1.01    9.88 139
  -4 -14   2  364.75    9.05 139
  -2 -16  -1  603.66    9.60 139
  -2 -14  -1  490.08    8.38 139
  -1 -11  -2   11.33    5.59 139
   0 -12  -3  335.04    8.10 139
   1   7   6  496.26    9.71 139
   2   4   1 1277.16   11.14 139
   2   6   3  235.40    6.26 139
   4   2  -1    6.10    4.57 139
   6  -6  -4  567.30    9.79 139
  -5 -15   4    0.29    8.20 139
  -5  -3  10   38.04    8.56 139
  -4 -18   2    6.59    9.23 139
  -4 -12   2 1503.29    9.70 139
  -4   0   8  169.77    5.84 139
  -2 -18  -1   36.00    7.11 139
  -2 -12  -1  251.14    5.52 139
  -2  -6   0 3992.59   17.45 139
   3  -3  -3  668.52    8.97 139
   4   0  -2 3940.86   16.12 139
   4   6   3   15.42    4.53 139
   5   3   0  329.16    5.94 139
   5   5   2  656.04    7.30 139
   7   3   2   58.61    8.43 139
  -5 -13   4  222.95    9.86 140
  -5  -3   9   13.01    8.75 140
  -2   2   4  176.40    7.29 140
  -1 -19  -2    1.41   10.83 140
   0 -18  -3  386.17   11.55 140
   1   7   9   96.56   10.41 140
   3   3   0  510.11    7.44 140
   3   7   5 1078.84   11.05 140
   4  -6  -4   48.32    5.99 140
   6   4   2    5.72    8.47 140
   7   1   0  363.91   10.64 140
  -5 -11   4  690.26    7.81 140
  -4 -10   2  196.26    5.60 140
  -4  -4   4  352.55    6.08 140
  -3 -15   0  164.97    5.94 140
  -3  -7   1   26.32    3.47 140
   1   7   7   12.23    5.27 140
   6   2   0  236.05    6.24 140
   7  -9  -4   22.71    8.38 140
   7  -5  -3   60.26    6.24 140
   4 -16  -5    1.13   20.16 139
   4 -14  -5   19.05   12.38 140
   5 -13  -5  389.27   14.34 140
  -5  -7   5  387.76    7.88 141
  -5  -3   8  142.91    8.11 141
  -4  -6   3  722.94    8.38 141
  -3 -17   0  136.36   10.21 141
  -3 -13   0   80.57    6.65 141
  -2 -10  -1    2.74    5.54 141
  -1  -5  -1 1021.15   11.38 141
   1   7   8  326.75   10.43 141
   3  -7  -4  205.81    8.13 141
   3   5   2   -1.90    5.48 141
   3   7   6  643.65   10.00 141
   3   7   7  269.40   10.83 141
   3   7   8  117.27   12.17 141
   4   4   1 1774.86   11.29 141
   5 -15  -5   -2.30   11.93 141
   5  -3  -3  485.23    7.87 141
   7  -1  -1   32.33    8.59 141
  -6 -10   7  642.45   10.18 141
  -5  -5   6    4.76    4.54 141
  -4  -2   5  918.76    8.71 141
   4   6   4  690.13    8.16 141
   5   1  -1    6.12    3.95 141
   5   5   3  117.37    5.76 141
   6  -4  -3  224.31    6.42 141
   6   4   3   38.40    7.03 141
   7  -3  -2  236.02    7.03 141
  -6  -8   8   15.36   11.85 142
  -5  -9   4  654.31    9.46 142
  -4   0   7   -1.45    6.42 142
  -3 -19   0   51.07   12.57 142
  -3 -11   0  163.59    6.30 142
  -3   1   5  187.38    6.46 142
  -3   3   9   69.87    8.17 142
  -3   3  10    2.36    8.65 142
  -1  -9  -2 3700.55   18.56 142
   1   5   3  552.25    9.04 142
   3   1  -1  322.52    6.91 142
   5  -1  -2  261.18    6.71 142
   6   0  -1   -1.76    6.25 142
   7   1   1  407.29   10.86 142
  -6 -12   6  532.93    9.87 142
  -5 -15   3    9.76    8.29 142
  -4  -8   2    5.25    4.03 142
   0 -10  -3   43.41    4.61 142
   2   6   4   29.79    4.13 142
   3  -1  -2  577.10    7.69 142
   4   6   5  485.06    7.38 142
   5  -7  -4  173.88    5.89 142
   5   3   1   13.97    4.46 142
   5   5   4  200.99    6.82 142
   6  -8  -4  149.18    6.79 142
   6  -2  -2    2.80    4.46 142
   6   4   4  116.43    8.49 142
   0   6   6  227.21    9.10 142
  -6  -6   9    4.09   11.98 143
  -5 -13   3  134.76    8.95 143
  -5  -3   7  634.27    9.94 143
  -4 -16   1   57.25    9.97 143
   0   6  10   88.00   12.28 143
   1 -15  -4    7.99    7.65 143
   4   6   6   72.28   10.09 143
   4   6   7    1.80   11.72 143
   6   2   1  285.78    8.29 143
  -6 -10   6  156.45    7.68 143
  -6  -8   7  305.67    8.13 143
  -4 -18   1    6.15    9.40 143
  -4 -14   1  123.88    6.51 143
  -3  -3   2   16.43    3.72 143
   2   2   0   72.55    3.98 143
   5   5   5    7.63    6.95 143
   5   5   6   23.77    9.30 143
   7  -7  -3    2.77    7.08 143
   7  -1   0  354.90    8.04 143
   7   1   2   15.41    8.18 143
  -3   3   8  145.04    9.20 143
   1 -17  -4   98.34   11.28 143
  -6  -6   8   35.05   10.13 144
  -5 -11   3 1352.75   11.15 144
  -5  -5   5   32.50    6.53 144
  -4 -12   1  381.76    8.30 144
  -3  -9   0  104.71    6.24 144
  -2  -8  -1  116.51    5.59 144
   0   4   3   60.08    6.28 144
   4   2   0  409.49    7.00 144
  -6 -12   5   26.30    8.33 144
  -5  -7   4  187.21    5.48 144
  -5  -1  10   14.20    7.24 144
  -3  -1   3 3340.94   16.49 144
  -2  -2   1  120.19    4.63 144
   3   5   3  324.64    5.93 144
   4   4   2 2156.69   11.36 144
   7  -5  -2   17.30    7.00 144
   7  -3  -1  350.69    7.33 144
  -3   3  11    0.27   14.42 144
   1 -13  -4   94.38    8.87 144
  -5  -1   9   12.27    8.73 145
  -4  -4   3 1070.72    9.68 145
  -4   0   6  148.89    6.58 145
  -3  -5   1   54.49    5.22 145
   1 -19  -4  244.56   13.17 145
   2  -2  -2 1378.67   14.65 145
   2   6   5  463.46    8.11 145
   4  -4  -3 1047.41   10.75 145
   6 -10  -4    4.45    8.70 145
   6   0   0    1.71    7.37 145
   6   2   2  192.75    9.10 145
  -6  -8   6    3.40    6.15 145
  -6  -6   7   38.57    6.24 145
  -5  -9   3  240.13    5.66 145
  -5  -3   6  402.04    6.57 145
  -4 -10   1 3595.93   14.32 145
  -2   0   2 2585.05   17.60 145
   2   0  -1    1.90    3.37 145
   2   4   2 2397.18   13.89 145
   2   6   9    6.85    8.33 145
   3   3   1    3.74    3.25 145
   5   1   0   56.89    4.22 145
   5   3   2  148.83    5.16 145
   6  -6  -3  236.06    6.48 145
   0   6   7    6.76    7.69 145
   0   6   9    8.44   10.46 145
  -6 -10   5    3.95    9.96 146
  -5 -15   2  110.35   11.12 146
  -4  -6   2  280.17    6.90 146
  -4  -2   4 1679.44   11.81 146
  -2 -18  -2    3.33   10.00 146
  -2 -16  -2   15.60    8.63 146
  -2 -14  -2  223.61    7.90 146
  -2  -4   0  400.30    7.05 146
   0   6   8   20.81    7.58 146
   4  -8  -4   11.61    5.55 146
   4   0  -1    4.63    4.57 146
   5  -5  -3   13.40    6.61 146
   7  -9  -3   11.14   11.76 146
   7  -1   1  434.00   10.86 146
  -6  -4   9   79.38    8.78 146
  -5 -13   2   89.60    6.43 146
  -5  -1   8  130.22    6.12 146
  -3 -17  -1   10.32    7.01 146
  -3 -15  -1    7.81    5.99 146
   1   1   0  364.23    8.84 146
   2   6   6   26.12    4.71 146
   2   6   8  830.25   10.20 146
   4  -2  -2   26.34    3.51 146
   4   4   3  229.04    5.74 146
   6  -4  -2   50.16    5.49 146
   6  -2  -1  164.83    5.27 146
   6   2   3  307.88    7.85 146
  -1   5   6  521.01   17.19 146
  -3 -13  -1  346.79    7.69 147
  -3   3   7  508.48   10.25 147
  -1 -17  -3  100.07    9.04 147
  -1 -15  -3 1238.78   12.66 147
   2   6   7   18.02    7.48 147
   3   5   4  443.23    7.57 147
   5  -9  -4  641.82   10.59 147
   5  -1  -1   11.16    5.62 147
   5   3   3  635.65    9.38 147
   6 -12  -4   10.30   10.84 147
   6   2   4  269.95   12.13 147
  -6 -12   4   11.24    7.07 147
  -6  -8   5   15.04    6.11 147
  -6  -4   8   -1.79    7.08 147
  -5 -11   2    6.84    5.34 147
  -5  -5   4  890.99    8.20 147
  -4 -16   0   11.38    7.04 147
  -3  -7   0 1231.88    9.17 147
  -2 -12  -2  187.66    5.76 147
   5  -3  -2  360.83    6.04 147
   6   0   1   -3.14    5.25 147
   7  -7  -2    6.86    7.05 147
   7  -3   0    1.00    6.91 147
   7  -1   2   16.41    8.17 147
  -6  -6   6   -0.13    8.57 148
  -5  -7   3  385.57    7.82 148
  -4 -14   0  556.41   10.16 148
  -4  -8   1  993.29    9.12 148
  -4   2   9   73.93    8.00 148
  -4   2  10    7.49    9.93 148
  -1 -19  -3   15.99   11.89 148
  -1 -13  -3  387.01    8.57 148
  -1  -7  -2  706.29    9.60 148
   1   5   4  320.67    7.35 148
   4   2   1 1896.39   11.59 148
   7  -5  -1   68.49   10.00 148
  -6 -10   4    4.85    6.07 148
  -5  -3   5   55.50    4.80 148
  -5  -1   7   21.98    5.40 148
  -3 -11  -1 3560.06   14.64 148
  -3   1   4  817.64    9.47 148
   3   5   5 1354.63   10.15 148
   3   5   8   16.00    8.23 148
   4   4   4  104.96    5.01 148
   5   1   1  400.73    6.35 148
   5   3   4    9.71    6.08 148
   6  -8  -3   -1.72    5.32 148
  -2   4   6  159.29   10.95 148
  -6  -4   7   13.39    8.75 149
  -4 -12   0  147.15    7.98 149
  -4   0   5   -2.89    5.65 149
  -4   2   8   17.66    7.40 149
  -4   2  11  217.62   13.39 149
   3   5   6   47.12    7.70 149
   3   5   7  158.86    9.25 149
   5   3   5  300.37   10.59 149
   5   3   6  131.65   12.03 149
  -5  -9   2   98.31    5.10 149
  -2  -6  -1   16.71    3.58 149
   3  -5  -3 1098.38   11.50 149
   3   1   0 1664.79   11.12 149
   4   4   5   14.79    5.29 149
   4   4   6   54.16    6.27 149
   4   4   7   50.97    8.35 149
   6  -2   0  242.55    6.28 149
   6   0   2   31.93    6.15 149
   7  -3   1  113.83    7.37 149
  -5 -15   1    4.06   11.63 150
  -2 -10  -2   88.63    6.03 150
   0  -8  -3 1784.23   17.02 150
   1  -1  -1  401.81   11.72 150
   3   3   2   30.69    4.73 150
   5 -11  -4  673.09   11.05 150
   7  -9  -2   18.16   11.75 150
  -6 -12   3    5.91    7.02 150
  -6  -8   4  158.13    6.58 150
  -6  -6   5  287.90    6.54 150
  -5 -13   1  218.12    6.94 150
  -4  -4   2  632.74    7.15 150
   1   5  10    2.01    8.30 150
   2   4   3   12.20    3.40 150
   5  -7  -3  367.32    6.76 150
   6  -6  -2 1546.85   10.44 150
   6  -4  -1  534.23    7.48 150
   6   0   3   -0.76    6.01 150
   7  -5   0  159.76    7.66 150
  -1   5  10    6.89   12.01 150
   1 -11  -4   33.60    7.31 150
  -6  -2   9   19.09   11.13 151
  -5  -1   6  282.64    7.74 151
  -4 -10   0  901.60    9.51 151
  -4  -2   3  261.95    6.22 151
  -3  -9  -1  390.10    7.42 151
  -3  -3   1 8634.40   25.33 151
  -1 -11  -3  314.06    7.68 151
   0 -16  -4  181.37    9.69 151
   3  -9  -4  594.74   11.50 151
   5  -1   0   59.65    5.62 151
   5   1   2   13.03    6.31 151
   7  -7  -1   88.85   10.17 151
   7  -3   2   62.54   11.78 151
  -7  -7   7  306.87   10.30 151
  -6 -10   3   44.12    6.20 151
  -6  -4   6   31.20    5.46 151
  -5  -5   3   16.66    4.81 151
  -4  -6   1  643.02    7.05 151
   1   5   5  572.62    8.22 151
   4  -6  -3  700.18    8.42 151
   4   0   0  470.93    6.03 151
   4   2   2  501.69    6.41 151
   6 -10  -3   44.71    6.24 151
   6   0   4  109.78    8.34 151
  -6  -2   8  101.05    9.15 152
  -5 -11   1   26.70    7.56 152
  -5  -7   2   19.42    6.44 152
  -5  -3   4  745.99    8.51 152
  -4   2   7    6.05    6.34 152
  -3  -1   2  586.65    8.37 152
  -3   3   6  303.81    8.56 152
   0 -18  -4   44.89   10.26 152
   1   3   2   98.71    5.36 152
   2   2   1 1554.09   12.19 152
   3  -3  -2   25.77    5.16 152
   3  -1  -1  320.17    7.08 152
   4 -10  -4  327.27    8.89 152
   6  -2   1  298.04    8.36 152
  -3 -17  -2   36.63    7.33 152
  -3  -5   0  324.67    5.63 152
  -1  -1   0  370.35    9.04 152
   1   5   9   -0.59    6.95 152
   5  -5  -2   58.00    4.21 152
   5  -3  -1 3988.98   14.83 152
   5   1   3   79.45    5.56 152
   7  -5   1   93.37    8.44 152
;
_shelx_hkl_checksum              80627
loop_
_space_group_symop_operation_xyz
'x, y, z'
'-x, y, -z+1/2'
'x+1/2, y+1/2, z'
'-x+1/2, y+1/2, -z+1/2'
'-x, -y, -z'
'x, -y, z-1/2'
'-x+1/2, -y+1/2, -z'
'x+1/2, -y+1/2, z-1/2'
loop_
_atom_site_label
_atom_site_type_symbol
_atom_site_fract_x
_atom_site_fract_y
_atom_site_fract_z
_atom_site_U_iso_or_equiv
_atom_site_adp_type
_atom_site_occupancy
_atom_site_site_symmetry_order
_atom_site_calc_flag
_atom_site_refinement_flags_posn
_atom_site_refinement_flags_adp
_atom_site_refinement_flags_occupancy
O1 O 0.54507(14) 0.21451(5) 0.42327(11) 0.0286(3) Uani 1 1 d . . .
O2 O 0.46179(16) 0.08296(6) 0.44194(14) 0.0398(3) Uani 1 1 d . . .
N1 N 0.08885(18) -0.10994(6) 0.22073(13) 0.0260(3) Uani 1 1 d . . .
N2 N 0.11129(15) 0.25476(5) 0.28851(11) 0.0188(3) Uani 1 1 d . . .
N3 N 0.40984(15) 0.15601(6) 0.39769(12) 0.0190(2) Uani 1 1 d . . .
C1 C 0.14665(18) -0.03036(7) 0.20282(14) 0.0218(3) Uani 1 1 d . . .
C2 C 0.0000 0.02324(9) 0.2500 0.0164(3) Uani 1 2 d S T P
C3 C 0.0000 0.11590(9) 0.2500 0.0148(3) Uani 1 2 d S T P
C4 C 0.17648(16) 0.17346(6) 0.31252(12) 0.0157(3) Uani 1 1 d . . .
H1N H 0.168(4) -0.1617(13) 0.210(3) 0.065(6) Uiso 1 1 d . . .
H1 H 0.272(3) -0.0187(9) 0.1638(19) 0.031(4) Uiso 1 1 d . . .
loop_
_atom_site_aniso_label
_atom_site_aniso_U_11
_atom_site_aniso_U_22
_atom_site_aniso_U_33
_atom_site_aniso_U_23
_atom_site_aniso_U_13
_atom_site_aniso_U_12
O1 0.0201(4) 0.0289(5) 0.0340(5) -0.0008(4) 0.0037(4) -0.0123(3)
O2 0.0237(5) 0.0202(5) 0.0626(7) 0.0045(4) -0.0069(4) 0.0038(3)
N1 0.0285(5) 0.0113(5) 0.0353(6) -0.0017(4) 0.0055(4) 0.0040(4)
N2 0.0199(5) 0.0114(5) 0.0245(5) 0.0004(3) 0.0057(4) -0.0015(3)
N3 0.0159(4) 0.0167(5) 0.0233(5) -0.0014(3) 0.0044(3) -0.0020(3)
C1 0.0207(5) 0.0131(5) 0.0309(6) -0.0016(4) 0.0068(4) 0.0013(4)
C2 0.0153(6) 0.0105(7) 0.0215(7) 0.000 0.0028(5) 0.000
C3 0.0145(6) 0.0100(7) 0.0207(7) 0.000 0.0063(5) 0.000
C4 0.0150(5) 0.0117(5) 0.0210(5) 0.0001(4) 0.0064(4) -0.0012(4)
loop_
_atom_type_symbol
_atom_type_description
_atom_type_scat_dispersion_real
_atom_type_scat_dispersion_imag
_atom_type_scat_source
C C 0.0033 0.0016 'International Tables Vol C Tables 4.2.6.8 and 6.1.1.4'
H H 0.0000 0.0000 'International Tables Vol C Tables 4.2.6.8 and 6.1.1.4'
N N 0.0061 0.0033 'International Tables Vol C Tables 4.2.6.8 and 6.1.1.4'
O O 0.0106 0.0060 'International Tables Vol C Tables 4.2.6.8 and 6.1.1.4'
loop_
_geom_angle_atom_site_label_1
_geom_angle_atom_site_label_2
_geom_angle_atom_site_label_3
_geom_angle
_geom_angle_site_symmetry_1
_geom_angle_site_symmetry_3
C1 N1 N1 108.90(7) . 2
C1 N1 H1N 128.5(12) . .
N1 N1 H1N 122.1(12) 2 .
N2 N2 C4 107.05(6) 2 .
O1 N3 O2 123.63(10) . .
O1 N3 C4 118.33(9) . .
O2 N3 C4 118.04(9) . .
N1 C1 C2 108.64(10) . .
N1 C1 H1 120.1(9) . .
C2 C1 H1 131.3(9) . .
C1 C2 C1 104.91(13) . 2
C1 C2 C3 127.55(7) . .
C1 C2 C3 127.55(7) 2 .
C4 C3 C4 98.89(12) 2 .
C4 C3 C2 130.56(6) 2 .
C4 C3 C2 130.56(6) . .
N2 C4 C3 113.50(9) . .
N2 C4 N3 118.12(9) . .
C3 C4 N3 128.38(9) . .
loop_
_geom_bond_atom_site_label_1
_geom_bond_atom_site_label_2
_geom_bond_distance
_geom_bond_site_symmetry_2
O1 N3 1.2187(12) .
O2 N3 1.2275(13) .
N1 C1 1.3272(15) .
N1 N1 1.341(2) 2
N1 H1N 0.97(2) .
N2 N2 1.3352(17) 2
N2 C4 1.3420(13) .
N3 C4 1.4346(13) .
C1 C2 1.3879(14) .
C1 H1 0.951(17) .
C2 C1 1.3879(14) 2
C2 C3 1.4621(19) .
C3 C4 1.3968(13) 2
C3 C4 1.3968(13) .
loop_
_geom_torsion_atom_site_label_1
_geom_torsion_atom_site_label_2
_geom_torsion_atom_site_label_3
_geom_torsion_atom_site_label_4
_geom_torsion
_geom_torsion_site_symmetry_1
_geom_torsion_site_symmetry_4
N1 N1 C1 C2 -0.56(15) 2 .
N1 C1 C2 C1 0.22(6) . 2
N1 C1 C2 C3 -179.79(6) . .
C1 C2 C3 C4 129.64(8) . 2
C1 C2 C3 C4 -50.36(8) 2 2
C1 C2 C3 C4 -50.36(8) . .
C1 C2 C3 C4 129.64(8) 2 .
N2 N2 C4 C3 0.95(14) 2 .
N2 N2 C4 N3 -178.41(10) 2 .
C4 C3 C4 N2 -0.37(5) 2 .
C2 C3 C4 N2 179.63(5) . .
C4 C3 C4 N3 178.91(13) 2 .
C2 C3 C4 N3 -1.09(13) . .
O1 N3 C4 N2 -10.79(15) . .
O2 N3 C4 N2 168.62(11) . .
O1 N3 C4 C3 169.96(9) . .
O2 N3 C4 C3 -10.63(16) . .
