#------------------------------------------------------------------------------
#$Date: 2019-11-08 02:57:04 +0200 (Fri, 08 Nov 2019) $
#$Revision: 224918 $
#$URL: file:///home/coder/svn-repositories/cod/cif/7/05/83/7058306.cif $
#------------------------------------------------------------------------------
#
# This file is available in the Crystallography Open Database (COD),
# http://www.crystallography.net/
#
# All data on this site have been placed in the public domain by the
# contributors.
#
data_7058306
loop_
_publ_author_name
'Hua, Guoxiong'
'Du, Junyi'
'Carpenter-Warren, Cameron L.'
'Cordes, David B.'
'Slawin, Alexandra M. Z.'
'Woollins, J. Derek'
_publ_section_title
;
 New insight into the chemistry of selenoureas: synthesis and single
 crystal structural study of diverse derivatives
;
_journal_issue                   18
_journal_name_full               'New Journal of Chemistry'
_journal_page_first              7035
_journal_paper_doi               10.1039/C9NJ01059A
_journal_volume                  43
_journal_year                    2019
_chemical_formula_moiety         'C15 H9 F5 N4 O3 S Se2'
_chemical_formula_sum            'C15 H9 F5 N4 O3 S Se2'
_chemical_formula_weight         578.23
_space_group_crystal_system      triclinic
_space_group_IT_number           2
_space_group_name_Hall           '-P 1'
_space_group_name_H-M_alt        'P -1'
_symmetry_space_group_name_Hall  '-P 1'
_symmetry_space_group_name_H-M   'P -1'
_atom_sites_solution_hydrogens   geom
_atom_sites_solution_primary     direct
_atom_sites_solution_secondary   difmap
_audit_creation_date             2019-02-12
_audit_creation_method           'by CrystalStructure 4.3'
_audit_update_record
;
2019-02-27 deposited with the CCDC.    2019-04-09 downloaded from the CCDC.
;
_cell_angle_alpha                95.96(10)
_cell_angle_beta                 100.66(8)
_cell_angle_gamma                109.54(6)
_cell_formula_units_Z            2
_cell_length_a                   7.680(4)
_cell_length_b                   10.671(10)
_cell_length_c                   13.825(8)
_cell_measurement_reflns_used    3585
_cell_measurement_temperature    125
_cell_measurement_theta_max      26.37
_cell_measurement_theta_min      2.06
_cell_volume                     1032.4(14)
_computing_cell_refinement       'CrystalClear-SM Expert 2.0 r5'
_computing_data_collection
'CrystalClear-SM Expert 2.0 r5 (Rigaku, 2010)'
_computing_data_reduction        'CrystalClear-SM Expert 2.0 r5'
_computing_molecular_graphics    'CrystalStructure 4.3'
_computing_publication_material  'CrystalStructure 4.3 (Rigaku, 2018)'
_computing_structure_refinement  'SHELXL Version 2018/3 (Sheldrick, 2008)'
_computing_structure_solution    'SHELXS97 (Sheldrick, 2008)'
_diffrn_ambient_temperature      125
_diffrn_detector_area_resol_mean 29.257
_diffrn_measured_fraction_theta_full 0.991
_diffrn_measured_fraction_theta_max 0.965
_diffrn_measurement_device_type  'Rigaku Saturn70'
_diffrn_measurement_method       \w
_diffrn_radiation_type           'Mo K\a'
_diffrn_radiation_wavelength     0.71075
_diffrn_reflns_av_R_equivalents  0.0793
_diffrn_reflns_av_unetI/netI     0.1099
_diffrn_reflns_Laue_measured_fraction_full 0.991
_diffrn_reflns_Laue_measured_fraction_max 0.965
_diffrn_reflns_limit_h_max       8
_diffrn_reflns_limit_h_min       -9
_diffrn_reflns_limit_k_max       13
_diffrn_reflns_limit_k_min       -13
_diffrn_reflns_limit_l_max       17
_diffrn_reflns_limit_l_min       -16
_diffrn_reflns_number            8540
_diffrn_reflns_point_group_measured_fraction_full 0.991
_diffrn_reflns_point_group_measured_fraction_max 0.965
_diffrn_reflns_theta_full        25.242
_diffrn_reflns_theta_max         26.385
_diffrn_reflns_theta_min         1.523
_diffrn_standards_number         0
_exptl_absorpt_coefficient_mu    3.752
_exptl_absorpt_correction_T_max  0.894
_exptl_absorpt_correction_T_min  0.539
_exptl_absorpt_correction_type   multi-scan
_exptl_absorpt_process_details   'REQAB (Rigaku, 1998)'
_exptl_crystal_colour            yellow
_exptl_crystal_density_diffrn    1.860
_exptl_crystal_density_method    'not measured'
_exptl_crystal_description       chip
_exptl_crystal_F_000             560.00
_exptl_crystal_size_max          0.150
_exptl_crystal_size_mid          0.030
_exptl_crystal_size_min          0.030
_refine_diff_density_max         1.00
_refine_diff_density_min         -1.10
_refine_ls_extinction_method     none
_refine_ls_goodness_of_fit_ref   1.108
_refine_ls_hydrogen_treatment    constr
_refine_ls_number_parameters     271
_refine_ls_number_reflns         4089
_refine_ls_number_restraints     0
_refine_ls_R_factor_all          0.1360
_refine_ls_R_factor_gt           0.0883
_refine_ls_shift/su_max          0.000
_refine_ls_structure_factor_coef Fsqd
_refine_ls_weighting_details
'w = 1/[\s^2^(Fo^2^)+(0.0719P)^2^+15.9343P] where P=(Fo^2^+2Fc^2^)/3'
_refine_ls_weighting_scheme      calc
_refine_ls_wR_factor_gt          0.1942
_refine_ls_wR_factor_ref         0.2546
_reflns_Friedel_coverage         0.000
_reflns_number_gt                2807
_reflns_number_total             4089
_reflns_threshold_expression     F^2^>2.0\s(F^2^)
_cod_data_source_file            c9nj01059a2.cif
_cod_data_source_block           9
_cod_depositor_comments
'Adding full bibliography for 7058295--7058306.cif.'
_cod_database_code               7058306
_shelx_res_file
;
TITL HW373-4-5
    shelxl.res
    created by SHELXL-2018/3 at 11:39:32 on 12-Feb-2019
CELL  0.71075 7.68000 10.67100 13.82530 95.964 100.663 109.536
ZERR  2 0.00354 0.00977 0.00809 0.096 0.080 0.059
LATT 1
SFAC C H F N O S SE
UNIT 30 18 10 8 6 2 4
OMIT      0  -1   1
L.S. 5 0 42
FMAP 2
PLAN 5
BOND $H
CONF
HTAB
EQIV $1 -x+1, -y+1, -z+1
HTAB N6 N4_$1
LIST 4
TEMP -148.0
ACTA
SIZE 0.030 0.030 0.150
ABIN
WGHT    0.071900   15.934299
FVAR       0.70503
SE1   7    0.409128    0.131148    0.269508    11.00000    0.04396    0.03009 =
         0.03294    0.00308    0.01203    0.01015
SE2   7    0.531528    0.350615    0.226569    11.00000    0.05327    0.03262 =
         0.03209    0.00716    0.01497    0.01146
S1    6    0.727630    0.912532    0.065818    11.00000    0.04969    0.04215 =
         0.03778    0.01444    0.01847    0.01794
F1    3    0.763782    1.000525   -0.019275    11.00000    0.07041    0.06443 =
         0.05189    0.02943    0.03467    0.02624
F2    3    0.663794    1.021811    0.117972    11.00000    0.08006    0.05144 =
         0.05165    0.02354    0.03208    0.03733
F3    3    0.518304    0.832711    0.000638    11.00000    0.06201    0.06125 =
         0.04950    0.02205    0.02357    0.01863
F4    3    0.801123    0.811348    0.007406    11.00000    0.07469    0.04978 =
         0.05121    0.01799    0.03390    0.03122
F5    3    0.939694    0.996586    0.123269    11.00000    0.05075    0.04032 =
         0.04471    0.01077    0.02144    0.00829
O14   5    0.291233   -0.046871    0.350552    11.00000    0.04783    0.03063 =
         0.03433    0.00232    0.00475    0.00548
O18   5   -0.075444   -0.477467    0.657633    11.00000    0.05134    0.02832 =
         0.05476    0.00205    0.00839    0.00936
O19   5   -0.063639   -0.311158    0.763949    11.00000    0.10138    0.03524 =
         0.07168    0.01954    0.05097    0.02263
N4    4    0.462982    0.350950    0.420129    11.00000    0.03461    0.03297 =
         0.02577    0.00750   -0.00206    0.01758
N6    4    0.568075    0.559845    0.376182    11.00000    0.05187    0.03716 =
         0.03453    0.01426    0.01212    0.01882
AFIX  43  0.9800
H6    2    0.574483    0.599343    0.444581    11.00000   -1.20000
AFIX   0
N13   4    0.341462    0.138498    0.465369    11.00000    0.04089    0.02480 =
         0.02280    0.00069    0.00175    0.01125
N18   4   -0.029838   -0.354407    0.686807    11.00000    0.02604    0.03171 =
         0.04738    0.00791    0.00771    0.00935
C3    1    0.515480    0.425847    0.352944    11.00000    0.04659    0.05867 =
         0.04171    0.03100    0.01535    0.01378
C5    1    0.406836    0.217548    0.397923    11.00000    0.03325    0.03610 =
         0.01757    0.00629    0.00742    0.01281
C7    1    0.615877    0.649503    0.306392    11.00000    0.05100    0.02927 =
         0.03257    0.00841    0.01632    0.00974
C8    1    0.483220    0.703422    0.267257    11.00000    0.05219    0.05356 =
         0.04390    0.02400    0.02597    0.02277
AFIX  43
H8    2    0.369214    0.686290    0.289768    11.00000   -1.20000
AFIX   0
C9    1    0.519841    0.784471    0.193203    11.00000    0.04865    0.05695 =
         0.04675    0.02213    0.02221    0.03429
AFIX  43
H9    2    0.429027    0.820395    0.164079    11.00000   -1.20000
AFIX   0
C10   1    0.685461    0.810263    0.164313    11.00000    0.03193    0.03025 =
         0.04338   -0.00347    0.01093    0.00277
C11   1    0.822969    0.758761    0.204264    11.00000    0.04523    0.05175 =
         0.03894    0.01048    0.01537    0.02451
AFIX  43
H11   2    0.938226    0.778573    0.182716    11.00000   -1.20000
AFIX   0
C12   1    0.785919    0.675807    0.278114    11.00000    0.02054    0.04485 =
         0.03241    0.01195   -0.00147    0.01688
AFIX  43
H12   2    0.876282    0.639479    0.307182    11.00000   -1.20000
AFIX   0
C14   1    0.284447    0.003266    0.433088    11.00000    0.03607    0.02710 =
         0.02357    0.00003    0.01253    0.00220
C15   1    0.212835   -0.083496    0.503359    11.00000    0.02901    0.02403 =
         0.03423   -0.00499    0.00249    0.01013
C16   1    0.189059   -0.222018    0.481404    11.00000    0.02679    0.03075 =
         0.04420    0.00031    0.00486    0.01059
AFIX  43
H16   2    0.227464   -0.254607    0.425495    11.00000   -1.20000
AFIX   0
C17   1    0.107573   -0.311233    0.543582    11.00000    0.03674    0.02362 =
         0.03155    0.00495    0.01034    0.00539
AFIX  43
H17   2    0.092047   -0.404018    0.530903    11.00000   -1.20000
AFIX   0
C18   1    0.052233   -0.260509    0.621835    11.00000    0.02967    0.03894 =
         0.03934    0.01948    0.00226    0.00677
C19   1    0.078411   -0.126152    0.647791    11.00000    0.04649    0.03700 =
         0.03266    0.00078    0.01644    0.00121
AFIX  43
H19   2    0.041771   -0.094706    0.704766    11.00000   -1.20000
AFIX   0
C20   1    0.162160   -0.036510    0.586219    11.00000    0.03623    0.03319 =
         0.04440    0.01611    0.00469    0.02470
AFIX  43
H20   2    0.183448    0.056951    0.602409    11.00000   -1.20000
AFIX   0
HKLF 4




REM  HW373-4-5
REM wR2 = 0.2546, GooF = S = 1.108, Restrained GooF = 1.108 for all data
REM R1 = 0.0883 for 2807 Fo > 4sig(Fo) and 0.1360 for all 4089 data
REM 271 parameters refined using 0 restraints

END

WGHT      0.0719     15.9343

REM Instructions for potential hydrogen bonds
HTAB N6 N4_$1
HTAB C19 F5_$1

REM Highest difference peak  0.999,  deepest hole -1.103,  1-sigma level  0.229
Q1    1   0.6653  0.5877  0.1798  11.00000  0.05    1.00
Q2    1   0.5686  0.2378  0.3573  11.00000  0.05    0.93
Q3    1   0.3361  0.2813  0.2230  11.00000  0.05    0.92
Q4    1   0.5795  0.6799  0.1133  11.00000  0.05    0.88
Q5    1   0.4510  0.2347  0.2562  11.00000  0.05    0.84
;
_shelx_res_checksum              58688
_shelx_fab_file
;
    1    0    0     26.38      0.00
    2    0    0      3.14      0.00
    3    0    0     -2.54      0.00
    4    0    0     -2.31      0.00
    5    0    0     -0.32      0.00
    6    0    0     -0.39      0.00
    7    0    0      1.76      0.00
    8    0    0      0.75      0.00
   -8    1    0     -1.12      0.00
   -7    1    0     -0.86      0.00
   -6    1    0      0.68      0.00
   -5    1    0      1.14      0.00
   -4    1    0      2.65      0.00
   -3    1    0      2.26      0.00
   -2    1    0     -5.82      0.00
   -1    1    0    -28.44      0.00
    0    1    0    -67.32      0.00
    1    1    0    -13.40      0.00
    2    1    0      0.10      0.00
    3    1    0      2.10      0.00
    4    1    0      2.12      0.00
    5    1    0     -0.55      0.00
    6    1    0     -0.05      0.00
    7    1    0     -1.43      0.00
    8    1    0      0.51      0.00
   -9    2    0     -1.55      0.00
   -8    2    0     -0.08      0.00
   -7    2    0     -0.02      0.00
   -6    2    0     -0.39      0.00
   -5    2    0     -2.22      0.00
   -4    2    0     -2.98      0.00
   -3    2    0     -2.04      0.00
   -2    2    0      3.22      0.00
   -1    2    0     17.35      0.00
    0    2    0     38.30      0.00
    1    2    0      4.16      0.00
    2    2    0     -0.86      0.00
    3    2    0     -1.78      0.00
    4    2    0     -1.57      0.00
    5    2    0      1.19      0.00
    6    2    0      0.09      0.00
    7    2    0      0.78      0.00
   -9    3    0      2.24      0.00
   -8    3    0      1.17      0.00
   -7    3    0      0.07      0.00
   -6    3    0      0.61      0.00
   -5    3    0      3.58      0.00
   -4    3    0      3.09      0.00
   -3    3    0      2.50      0.00
   -2    3    0      1.24      0.00
   -1    3    0     -6.83      0.00
    0    3    0    -17.06      0.00
    1    3    0     -2.71      0.00
    2    3    0      1.33      0.00
    3    3    0      1.05      0.00
    4    3    0      0.22      0.00
    5    3    0     -0.94      0.00
    6    3    0     -0.16      0.00
    7    3    0     -0.76      0.00
   -9    4    0     -1.60      0.00
   -8    4    0     -1.50      0.00
   -7    4    0     -0.45      0.00
   -6    4    0     -1.69      0.00
   -5    4    0     -4.27      0.00
   -4    4    0     -3.09      0.00
   -3    4    0     -2.69      0.00
   -2    4    0     -2.25      0.00
   -1    4    0      3.96      0.00
    0    4    0      7.84      0.00
    1    4    0      2.96      0.00
    2    4    0     -1.51      0.00
    3    4    0      1.06      0.00
    4    4    0      0.56      0.00
    5    4    0     -0.14      0.00
    6    4    0      0.76      0.00
    7    4    0      0.98      0.00
   -9    5    0      0.52      0.00
   -8    5    0      1.41      0.00
   -7    5    0      0.98      0.00
   -6    5    0      1.98      0.00
   -5    5    0      3.74      0.00
   -4    5    0      3.63      0.00
   -3    5    0      2.65      0.00
   -2    5    0      1.55      0.00
   -1    5    0     -3.76      0.00
    0    5    0     -4.81      0.00
    1    5    0     -2.29      0.00
    2    5    0      0.23      0.00
    3    5    0     -2.65      0.00
    4    5    0      0.15      0.00
    5    5    0      0.50      0.00
    6    5    0     -1.81      0.00
   -9    6    0      0.25      0.00
   -8    6    0     -0.13      0.00
   -7    6    0     -0.21      0.00
   -6    6    0     -0.91      0.00
   -5    6    0     -2.90      0.00
   -4    6    0     -4.86      0.00
   -3    6    0     -2.95      0.00
   -2    6    0     -2.11      0.00
   -1    6    0      2.83      0.00
    0    6    0      4.29      0.00
    1    6    0      1.11      0.00
    2    6    0      0.70      0.00
    3    6    0      2.31      0.00
    4    6    0     -0.54      0.00
    5    6    0      0.64      0.00
    6    6    0      2.31      0.00
   -9    7    0     -1.06      0.00
   -8    7    0     -2.37      0.00
   -7    7    0     -1.17      0.00
   -6    7    0      0.18      0.00
   -5    7    0      2.42      0.00
   -4    7    0      5.48      0.00
   -3    7    0      2.52      0.00
   -2    7    0      2.56      0.00
   -1    7    0     -2.17      0.00
    0    7    0     -3.76      0.00
    1    7    0      0.59      0.00
    2    7    0     -0.25      0.00
    3    7    0     -1.74      0.00
    4    7    0     -0.33      0.00
    5    7    0     -1.52      0.00
   -8    8    0      3.87      0.00
   -7    8    0      1.29      0.00
   -6    8    0     -0.74      0.00
   -5    8    0     -1.72      0.00
   -4    8    0     -4.11      0.00
   -3    8    0     -0.54      0.00
   -2    8    0     -1.45      0.00
   -1    8    0      1.91      0.00
    0    8    0      1.97      0.00
    1    8    0     -1.54      0.00
    2    8    0     -0.43      0.00
    3    8    0      1.73      0.00
    4    8    0      0.78      0.00
   -8    9    0     -3.12      0.00
   -7    9    0     -0.46      0.00
   -6    9    0      1.36      0.00
   -5    9    0      0.16      0.00
   -4    9    0      1.37      0.00
   -3    9    0     -1.17      0.00
   -2    9    0      0.00      0.00
   -1    9    0     -1.46      0.00
    0    9    0     -0.26      0.00
    1    9    0      0.89      0.00
    2    9    0      0.93      0.00
    3    9    0     -1.48      0.00
    4    9    0     -0.14      0.00
   -8   10    0      1.54      0.00
   -7   10    0      0.35      0.00
   -6   10    0     -0.97      0.00
   -5   10    0      1.33      0.00
   -4   10    0      0.33      0.00
   -3   10    0      0.42      0.00
   -2   10    0      0.40      0.00
   -1   10    0      0.87      0.00
    0   10    0     -0.15      0.00
    1   10    0      0.31      0.00
    2   10    0     -1.13      0.00
    3   10    0      0.96      0.00
   -7   11    0     -0.89      0.00
   -6   11    0      0.43      0.00
   -5   11    0     -1.15      0.00
   -4   11    0     -0.03      0.00
   -3   11    0      1.94      0.00
   -2   11    0     -0.01      0.00
   -1   11    0     -0.41      0.00
    0   11    0     -0.56      0.00
    1   11    0     -1.11      0.00
    2   11    0      0.77      0.00
   -6   12    0     -0.68      0.00
   -5   12    0     -0.12      0.00
   -4   12    0     -0.46      0.00
   -3   12    0     -3.27      0.00
   -2   12    0     -0.41      0.00
   -1   12    0      0.27      0.00
    0   12    0      1.37      0.00
   -4   13    0     -0.14      0.00
   -3   13    0      2.76      0.00
   -2   13    0      0.63      0.00
    2  -13    1      1.09      0.00
    3  -13    1      3.17      0.00
    4  -13    1      0.02      0.00
    0  -12    1      0.79      0.00
    1  -12    1      0.08      0.00
    2  -12    1     -0.50      0.00
    3  -12    1     -3.29      0.00
    4  -12    1     -0.43      0.00
    5  -12    1      0.08      0.00
    6  -12    1     -1.38      0.00
   -2  -11    1      1.27      0.00
   -1  -11    1     -0.89      0.00
    0  -11    1     -0.13      0.00
    1  -11    1     -0.66      0.00
    2  -11    1     -0.44      0.00
    3  -11    1      1.80      0.00
    4  -11    1      0.45      0.00
    5  -11    1     -0.72      0.00
    6  -11    1      1.42      0.00
    7  -11    1     -0.76      0.00
   -3  -10    1      0.92      0.00
   -2  -10    1     -1.74      0.00
   -1  -10    1      0.20      0.00
    0  -10    1     -0.22      0.00
    1  -10    1      1.32      0.00
    2  -10    1      1.03      0.00
    3  -10    1      0.41      0.00
    4  -10    1     -0.68      0.00
    5  -10    1      0.78      0.00
    6  -10    1     -1.66      0.00
    7  -10    1      0.67      0.00
   -4   -9    1     -0.12      0.00
   -3   -9    1     -1.41      0.00
   -2   -9    1      1.50      0.00
   -1   -9    1      1.12      0.00
    0   -9    1     -0.23      0.00
    1   -9    1     -1.86      0.00
    2   -9    1     -0.92      0.00
    3   -9    1     -1.38      0.00
    4   -9    1      1.97      0.00
    5   -9    1     -0.07      0.00
    6   -9    1      1.61      0.00
    7   -9    1     -0.81      0.00
    8   -9    1     -3.22      0.00
   -5   -8    1      0.78      0.00
   -4   -8    1      0.87      0.00
   -3   -8    1      1.93      0.00
   -2   -8    1     -1.07      0.00
   -1   -8    1     -2.26      0.00
    0   -8    1      2.05      0.00
    1   -8    1      2.60      0.00
    2   -8    1      0.15      0.00
    3   -8    1      0.23      0.00
    4   -8    1     -3.56      0.00
    5   -8    1     -0.39      0.00
    6   -8    1     -0.89      0.00
    7   -8    1      1.11      0.00
    8   -8    1      3.25      0.00
   -5   -7    1     -1.52      0.00
   -4   -7    1     -0.98      0.00
   -3   -7    1     -2.30      0.00
   -2   -7    1      0.56      0.00
   -1   -7    1      1.85      0.00
    0   -7    1     -4.28      0.00
    1   -7    1     -3.24      0.00
    2   -7    1      0.55      0.00
    3   -7    1      1.43      0.00
    4   -7    1      3.67      0.00
    5   -7    1      0.24      0.00
    6   -7    1      0.70      0.00
    7   -7    1     -0.20      0.00
    8   -7    1     -1.18      0.00
    9   -7    1     -0.28      0.00
   -6   -6    1      1.84      0.00
   -5   -6    1      1.01      0.00
   -4   -6    1      0.71      0.00
   -3   -6    1      2.90      0.00
   -2   -6    1     -0.27      0.00
   -1   -6    1     -0.73      0.00
    0   -6    1      5.02      0.00
    1   -6    1      3.79      0.00
    2   -6    1      0.02      0.00
    3   -6    1     -1.50      0.00
    4   -6    1     -2.07      0.00
    5   -6    1     -0.72      0.00
    6   -6    1     -2.11      0.00
    7   -6    1     -1.46      0.00
    8   -6    1     -1.17      0.00
    9   -6    1     -0.37      0.00
   -6   -5    1     -1.47      0.00
   -5   -5    1     -0.05      0.00
   -4   -5    1     -1.03      0.00
   -3   -5    1     -2.73      0.00
   -2   -5    1      1.38      0.00
   -1   -5    1      0.35      0.00
    0   -5    1     -5.21      0.00
    1   -5    1     -4.58      0.00
    2   -5    1     -1.37      0.00
    3   -5    1      0.36      0.00
    4   -5    1      0.80      0.00
    5   -5    1      2.44      0.00
    6   -5    1      3.32      0.00
    7   -5    1      1.61      0.00
    8   -5    1      2.17      0.00
    9   -5    1      1.52      0.00
   -7   -4    1      0.67      0.00
   -6   -4    1      0.42      0.00
   -5   -4    1      0.01      0.00
   -4   -4    1      0.99      0.00
   -3   -4    1      0.44      0.00
   -2   -4    1     -2.73      0.00
   -1   -4    1     -0.17      0.00
    0   -4    1      8.01      0.00
    1   -4    1      5.49      0.00
    2   -4    1      2.26      0.00
    3   -4    1      0.39      0.00
    4   -4    1     -1.00      0.00
    5   -4    1     -3.49      0.00
    6   -4    1     -2.19      0.00
    7   -4    1     -0.50      0.00
    8   -4    1     -2.57      0.00
    9   -4    1     -3.01      0.00
   -7   -3    1     -0.12      0.00
   -6   -3    1      0.31      0.00
   -5   -3    1     -0.53      0.00
   -4   -3    1      0.56      0.00
   -3   -3    1      2.13      0.00
   -2   -3    1      2.03      0.00
   -1   -3    1     -0.41      0.00
    0   -3    1    -17.35      0.00
    1   -3    1     -9.13      0.00
    2   -3    1     -4.10      0.00
    3   -3    1     -0.74      0.00
    4   -3    1      1.55      0.00
    5   -3    1      2.51      0.00
    6   -3    1      0.36      0.00
    7   -3    1      0.23      0.00
    8   -3    1      2.26      0.00
    9   -3    1      3.03      0.00
   -7   -2    1     -0.06      0.00
   -6   -2    1     -0.28      0.00
   -5   -2    1      0.52      0.00
   -4   -2    1     -2.38      0.00
   -3   -2    1     -2.70      0.00
   -2   -2    1     -0.19      0.00
   -1   -2    1      3.60      0.00
    0   -2    1     37.28      0.00
    1   -2    1     18.20      0.00
    2   -2    1      7.09      0.00
    3   -2    1      0.68      0.00
    4   -2    1     -1.68      0.00
    5   -2    1     -1.02      0.00
    6   -2    1     -0.11      0.00
    7   -2    1     -0.04      0.00
    8   -2    1     -0.11      0.00
    9   -2    1     -1.33      0.00
   -8   -1    1      1.47      0.00
   -7   -1    1     -0.67      0.00
   -6   -1    1      0.11      0.00
   -5   -1    1      0.16      0.00
   -4   -1    1      3.02      0.00
   -3   -1    1      2.31      0.00
   -2   -1    1     -1.55      0.00
   -1   -1    1    -12.71      0.00
    0   -1    1    -61.49      0.00
    2   -1    1     -6.82      0.00
    3   -1    1      0.34      0.00
    4   -1    1      1.70      0.00
    5   -1    1      0.28      0.00
    6   -1    1      0.36      0.00
    7   -1    1     -1.52      0.00
    8   -1    1     -2.04      0.00
   -8    0    1     -0.06      0.00
   -7    0    1      1.20      0.00
   -6    0    1     -0.28      0.00
   -5    0    1     -0.88      0.00
   -4    0    1     -3.05      0.00
   -3    0    1     -2.56      0.00
   -2    0    1      3.08      0.00
   -1    0    1     22.05      0.00
    0    0    1     70.07      0.00
    1    0    1     20.42      0.00
    2    0    1      2.43      0.00
    3    0    1     -1.06      0.00
    4    0    1     -1.65      0.00
    5    0    1      0.36      0.00
    6    0    1      0.11      0.00
    7    0    1      2.67      0.00
    8    0    1      1.69      0.00
   -9    1    1      0.18      0.00
   -8    1    1     -0.95      0.00
   -7    1    1     -0.92      0.00
   -6    1    1      0.26      0.00
   -5    1    1      1.53      0.00
   -4    1    1      3.42      0.00
   -3    1    1      3.48      0.00
   -2    1    1     -1.70      0.00
   -1    1    1    -20.34      0.00
    0    1    1    -53.86      0.00
    1    1    1     -8.98      0.00
    2    1    1      0.55      0.00
    3    1    1      0.67      0.00
    4    1    1      1.43      0.00
    5    1    1     -1.24      0.00
    6    1    1     -0.42      0.00
    7    1    1     -2.05      0.00
   -9    2    1     -0.57      0.00
   -8    2    1      0.97      0.00
   -7    2    1      0.54      0.00
   -6    2    1     -0.03      0.00
   -5    2    1     -2.38      0.00
   -4    2    1     -3.85      0.00
   -3    2    1     -4.79      0.00
   -2    2    1     -3.63      0.00
   -1    2    1      9.62      0.00
    0    2    1     28.99      0.00
    1    2    1      3.71      0.00
    2    2    1     -0.55      0.00
    3    2    1     -0.45      0.00
    4    2    1     -0.93      0.00
    5    2    1      1.69      0.00
    6    2    1      0.19      0.00
    7    2    1      1.17      0.00
   -9    3    1      0.47      0.00
   -8    3    1     -0.40      0.00
   -7    3    1     -0.01      0.00
   -6    3    1      0.30      0.00
   -5    3    1      3.00      0.00
   -4    3    1      3.83      0.00
   -3    3    1      5.60      0.00
   -2    3    1      7.45      0.00
   -1    3    1     -2.68      0.00
    0    3    1    -13.09      0.00
    1    3    1     -4.78      0.00
    2    3    1      0.94      0.00
    3    3    1      0.29      0.00
    4    3    1      0.17      0.00
    5    3    1     -1.01      0.00
    6    3    1     -0.10      0.00
   -9    4    1     -0.04      0.00
   -8    4    1     -0.79      0.00
   -7    4    1     -0.98      0.00
   -6    4    1     -0.66      0.00
   -5    4    1     -2.95      0.00
   -4    4    1     -3.88      0.00
   -3    4    1     -5.10      0.00
   -2    4    1     -6.23      0.00
   -1    4    1      2.56      0.00
    0    4    1      6.52      0.00
    1    4    1      5.17      0.00
    2    4    1     -1.48      0.00
    3    4    1      0.79      0.00
    4    4    1     -0.38      0.00
    5    4    1     -0.51      0.00
    6    4    1      0.59      0.00
   -9    5    1      0.00      0.00
   -8    5    1      1.58      0.00
   -7    5    1      1.16      0.00
   -6    5    1      0.21      0.00
   -5    5    1      2.78      0.00
   -4    5    1      4.77      0.00
   -3    5    1      4.30      0.00
   -2    5    1      4.06      0.00
   -1    5    1     -2.74      0.00
    0    5    1     -3.74      0.00
    1    5    1     -3.77      0.00
    2    5    1      0.38      0.00
    3    5    1     -1.35      0.00
    4    5    1      1.78      0.00
    5    5    1      1.06      0.00
    6    5    1     -1.64      0.00
   -9    6    1      0.33      0.00
   -8    6    1     -0.29      0.00
   -7    6    1      0.17      0.00
   -6    6    1      0.62      0.00
   -5    6    1     -2.84      0.00
   -4    6    1     -6.01      0.00
   -3    6    1     -4.38      0.00
   -2    6    1     -4.36      0.00
   -1    6    1      1.22      0.00
    0    6    1      3.18      0.00
    1    6    1      2.28      0.00
    2    6    1      0.83      0.00
    3    6    1      0.56      0.00
    4    6    1     -2.22      0.00
    5    6    1      0.15      0.00
    6    6    1      2.17      0.00
   -9    7    1     -1.41      0.00
   -8    7    1     -2.22      0.00
   -7    7    1     -1.50      0.00
   -6    7    1     -0.76      0.00
   -5    7    1      2.72      0.00
   -4    7    1      6.27      0.00
   -3    7    1      4.21      0.00
   -2    7    1      4.79      0.00
   -1    7    1     -0.64      0.00
    0    7    1     -3.30      0.00
    1    7    1     -0.72      0.00
    2    7    1     -0.75      0.00
    3    7    1      0.06      0.00
    4    7    1      1.08      0.00
    5    7    1     -1.09      0.00
   -8    8    1      3.33      0.00
   -7    8    1      1.43      0.00
   -6    8    1     -0.02      0.00
   -5    8    1     -1.88      0.00
   -4    8    1     -4.51      0.00
   -3    8    1     -2.22      0.00
   -2    8    1     -2.99      0.00
   -1    8    1      1.18      0.00
    0    8    1      2.25      0.00
    1    8    1     -0.50      0.00
    2    8    1     -0.02      0.00
    3    8    1      0.04      0.00
    4    8    1     -0.25      0.00
   -8    9    1     -2.42      0.00
   -7    9    1     -0.71      0.00
   -6    9    1      0.57      0.00
   -5    9    1      0.03      0.00
   -4    9    1      1.34      0.00
   -3    9    1     -0.17      0.00
   -2    9    1      0.65      0.00
   -1    9    1     -1.17      0.00
    0    9    1     -0.59      0.00
    1    9    1      0.63      0.00
    2    9    1      0.77      0.00
    3    9    1     -0.17      0.00
   -8   10    1      1.13      0.00
   -7   10    1      0.87      0.00
   -6   10    1      0.03      0.00
   -5   10    1      1.68      0.00
   -4   10    1      0.55      0.00
   -3   10    1      0.12      0.00
   -2   10    1      0.19      0.00
   -1   10    1      0.50      0.00
    0   10    1      0.00      0.00
    1   10    1      0.09      0.00
    2   10    1     -0.95      0.00
   -7   11    1     -1.67      0.00
   -6   11    1     -0.63      0.00
   -5   11    1     -1.27      0.00
   -4   11    1      0.09      0.00
   -3   11    1      1.77      0.00
   -2   11    1     -0.16      0.00
   -1   11    1     -0.19      0.00
    0   11    1     -0.80      0.00
    1   11    1     -0.79      0.00
   -6   12    1      0.09      0.00
   -5   12    1     -0.43      0.00
   -4   12    1     -0.79      0.00
   -3   12    1     -2.53      0.00
   -2   12    1      0.30      0.00
   -1   12    1      0.34      0.00
    0   12    1      1.56      0.00
   -4   13    1     -0.04      0.00
   -3   13    1      1.72      0.00
    2  -13    2      0.70      0.00
    3  -13    2      2.66      0.00
    4  -13    2      0.21      0.00
    0  -12    2     -0.30      0.00
    1  -12    2     -0.32      0.00
    2  -12    2      0.16      0.00
    3  -12    2     -2.58      0.00
    4  -12    2     -0.53      0.00
    5  -12    2      0.23      0.00
    6  -12    2     -1.55      0.00
   -2  -11    2      1.99      0.00
   -1  -11    2      0.19      0.00
    0  -11    2      0.78      0.00
    1  -11    2     -0.55      0.00
    2  -11    2     -1.21      0.00
    3  -11    2      1.43      0.00
    4  -11    2      1.13      0.00
    5  -11    2     -0.25      0.00
    6  -11    2      1.73      0.00
    7  -11    2     -1.60      0.00
   -3  -10    2     -0.04      0.00
   -2  -10    2     -2.80      0.00
   -1  -10    2     -0.71      0.00
    0  -10    2     -0.76      0.00
    1  -10    2      1.29      0.00
    2  -10    2      1.66      0.00
    3  -10    2      0.07      0.00
    4  -10    2     -1.87      0.00
    5  -10    2      0.35      0.00
    6  -10    2     -1.57      0.00
    7  -10    2      1.86      0.00
   -4   -9    2      0.70      0.00
   -3   -9    2      0.21      0.00
   -2   -9    2      2.54      0.00
   -1   -9    2      1.72      0.00
    0   -9    2      0.11      0.00
    1   -9    2     -1.78      0.00
    2   -9    2     -1.62      0.00
    3   -9    2     -0.93      0.00
    4   -9    2      2.41      0.00
    5   -9    2     -0.80      0.00
    6   -9    2      1.15      0.00
    7   -9    2     -1.54      0.00
    8   -9    2     -2.72      0.00
   -5   -8    2      0.56      0.00
   -4   -8    2     -0.44      0.00
   -3   -8    2      0.36      0.00
   -2   -8    2     -1.87      0.00
   -1   -8    2     -2.77      0.00
    0   -8    2      1.81      0.00
    1   -8    2      2.58      0.00
    2   -8    2      1.32      0.00
    3   -8    2      0.49      0.00
    4   -8    2     -2.30      0.00
    5   -8    2      1.81      0.00
    6   -8    2     -0.50      0.00
    7   -8    2      0.77      0.00
    8   -8    2      1.79      0.00
   -5   -7    2     -1.15      0.00
   -4   -7    2     -0.08      0.00
   -3   -7    2     -1.26      0.00
   -2   -7    2      1.25      0.00
   -1   -7    2      2.69      0.00
    0   -7    2     -4.07      0.00
    1   -7    2     -3.30      0.00
    2   -7    2     -1.03      0.00
    3   -7    2      0.36      0.00
    4   -7    2      0.80      0.00
    5   -7    2     -3.07      0.00
    6   -7    2      0.64      0.00
    7   -7    2      1.07      0.00
    8   -7    2      0.73      0.00
   -6   -6    2      1.19      0.00
   -5   -6    2      1.04      0.00
   -4   -6    2      0.55      0.00
   -3   -6    2      2.17      0.00
   -2   -6    2     -1.16      0.00
   -1   -6    2     -2.41      0.00
    0   -6    2      4.63      0.00
    1   -6    2      3.86      0.00
    2   -6    2      1.77      0.00
    3   -6    2      0.15      0.00
    4   -6    2      1.63      0.00
    5   -6    2      2.91      0.00
    6   -6    2     -2.36      0.00
    7   -6    2     -2.97      0.00
    8   -6    2     -2.74      0.00
    9   -6    2     -0.79      0.00
   -7   -5    2     -0.23      0.00
   -6   -5    2     -0.90      0.00
   -5   -5    2     -0.30      0.00
   -4   -5    2     -1.09      0.00
   -3   -5    2     -2.00      0.00
   -2   -5    2      2.57      0.00
   -1   -5    2      3.07      0.00
    0   -5    2     -4.31      0.00
    1   -5    2     -4.84      0.00
    2   -5    2     -3.38      0.00
    3   -5    2     -1.65      0.00
    4   -5    2     -2.64      0.00
    5   -5    2     -0.73      0.00
    6   -5    2      3.45      0.00
    7   -5    2      2.60      0.00
    8   -5    2      3.16      0.00
    9   -5    2      1.83      0.00
   -7   -4    2      0.03      0.00
   -5   -4    2     -0.08      0.00
   -4   -4    2      1.05      0.00
   -3   -4    2     -0.12      0.00
   -2   -4    2     -4.00      0.00
   -1   -4    2     -3.53      0.00
    0   -4    2      5.98      0.00
    1   -4    2      5.81      0.00
    2   -4    2      4.45      0.00
    3   -4    2      2.44      0.00
    4   -4    2      1.49      0.00
    5   -4    2     -0.82      0.00
    6   -4    2     -1.75      0.00
    7   -4    2     -0.85      0.00
    8   -4    2     -3.12      0.00
    9   -4    2     -3.02      0.00
   -7   -3    2      0.66      0.00
   -6   -3    2      0.88      0.00
   -5   -3    2     -0.27      0.00
   -4   -3    2      0.22      0.00
   -3   -3    2      2.29      0.00
   -2   -3    2      2.89      0.00
   -1   -3    2      2.86      0.00
    0   -3    2    -12.29      0.00
    1   -3    2     -7.78      0.00
    2   -3    2     -5.41      0.00
    3   -3    2     -2.59      0.00
    4   -3    2     -0.13      0.00
    5   -3    2      0.21      0.00
    6   -3    2     -0.46      0.00
    7   -3    2      0.10      0.00
    8   -3    2      2.14      0.00
    9   -3    2      2.31      0.00
   -7   -2    2     -0.70      0.00
   -6   -2    2     -0.46      0.00
   -5   -2    2      0.51      0.00
   -4   -2    2     -1.82      0.00
   -3   -2    2     -2.34      0.00
   -2   -2    2     -0.06      0.00
   -1   -2    2     -0.22      0.00
    0   -2    2     25.26      0.00
    1   -2    2     12.29      0.00
    2   -2    2      6.66      0.00
    3   -2    2      2.49      0.00
    4   -2    2     -0.65      0.00
    5   -2    2      0.50      0.00
    6   -2    2      0.71      0.00
    7   -2    2      0.68      0.00
    8   -2    2      0.74      0.00
   -8   -1    2      1.82      0.00
   -7   -1    2     -0.32      0.00
   -6   -1    2     -0.17      0.00
   -5   -1    2     -0.03      0.00
   -4   -1    2      2.56      0.00
   -3   -1    2      1.35      0.00
   -2   -1    2     -1.78      0.00
   -1   -1    2     -5.26      0.00
    0   -1    2    -39.80      0.00
    1   -1    2    -14.99      0.00
    2   -1    2     -5.78      0.00
    3   -1    2     -1.66      0.00
    4   -1    2      1.62      0.00
    5   -1    2     -0.21      0.00
    6   -1    2     -0.45      0.00
    7   -1    2     -2.54      0.00
    8   -1    2     -2.74      0.00
   -8    0    2     -0.05      0.00
   -7    0    2      1.05      0.00
   -6    0    2      0.26      0.00
   -5    0    2     -0.63      0.00
   -4    0    2     -2.81      0.00
   -3    0    2     -1.73      0.00
   -2    0    2      0.84      0.00
   -1    0    2      9.37      0.00
    0    0    2     43.12      0.00
    1    0    2     10.94      0.00
    2    0    2      2.75      0.00
    3    0    2      0.72      0.00
    4    0    2     -2.42      0.00
    5    0    2      0.35      0.00
    6    0    2      0.78      0.00
    7    0    2      3.20      0.00
    8    0    2      1.73      0.00
   -9    1    2     -0.90      0.00
   -8    1    2     -1.38      0.00
   -7    1    2     -1.03      0.00
   -6    1    2     -0.38      0.00
   -5    1    2      1.22      0.00
   -4    1    2      3.51      0.00
   -3    1    2      3.94      0.00
   -2    1    2      3.61      0.00
   -1    1    2     -6.73      0.00
    0    1    2    -31.61      0.00
    1    1    2     -5.16      0.00
    2    1    2     -0.92      0.00
    3    1    2     -0.31      0.00
    4    1    2      2.26      0.00
    5    1    2     -1.25      0.00
    6    1    2     -0.62      0.00
    7    1    2     -1.97      0.00
   -9    2    2      0.68      0.00
   -8    2    2      1.89      0.00
   -7    2    2      0.70      0.00
   -6    2    2      0.42      0.00
   -5    2    2     -1.73      0.00
   -4    2    2     -4.06      0.00
   -3    2    2     -6.15      0.00
   -2    2    2     -8.99      0.00
   -1    2    2      1.18      0.00
    0    2    2     17.13      0.00
    1    2    2      4.52      0.00
    2    2    2      0.19      0.00
    3    2    2     -0.22      0.00
    4    2    2     -1.29      0.00
    5    2    2      1.69      0.00
    6    2    2     -0.07      0.00
   -9    3    2     -0.57      0.00
   -8    3    2     -1.15      0.00
   -7    3    2      0.36      0.00
   -6    3    2     -0.12      0.00
   -5    3    2      1.47      0.00
   -4    3    2      3.61      0.00
   -3    3    2      6.56      0.00
   -2    3    2     10.38      0.00
   -1    3    2     -0.06      0.00
    0    3    2     -9.00      0.00
    1    3    2     -6.27      0.00
    3    3    2      0.60      0.00
    4    3    2      0.51      0.00
    5    3    2     -0.79      0.00
    6    3    2      0.40      0.00
   -9    4    2      0.14      0.00
   -8    4    2     -0.90      0.00
   -7    4    2     -1.67      0.00
   -6    4    2      0.29      0.00
   -5    4    2     -0.65      0.00
   -4    4    2     -3.34      0.00
   -3    4    2     -5.54      0.00
   -2    4    2     -7.66      0.00
   -1    4    2      1.91      0.00
    0    4    2      5.17      0.00
    1    4    2      5.51      0.00
    2    4    2     -3.13      0.00
    3    4    2     -0.35      0.00
    4    4    2     -1.14      0.00
    5    4    2     -0.80      0.00
    6    4    2     -0.03      0.00
   -9    5    2      0.58      0.00
   -8    5    2      2.17      0.00
   -7    5    2      1.47      0.00
   -6    5    2     -1.14      0.00
   -5    5    2      0.66      0.00
   -4    5    2      4.46      0.00
   -3    5    2      5.07      0.00
   -2    5    2      5.73      0.00
   -1    5    2     -1.49      0.00
    0    5    2     -2.86      0.00
    1    5    2     -3.46      0.00
    2    5    2      2.13      0.00
    3    5    2      0.44      0.00
    4    5    2      2.59      0.00
    5    5    2      1.27      0.00
    6    5    2     -0.83      0.00
   -9    6    2     -0.11      0.00
   -8    6    2     -0.85      0.00
   -7    6    2      0.25      0.00
   -6    6    2      1.75      0.00
   -5    6    2     -1.44      0.00
   -4    6    2     -6.01      0.00
   -3    6    2     -5.85      0.00
   -2    6    2     -6.42      0.00
   -1    6    2     -0.37      0.00
    0    6    2      2.74      0.00
    1    6    2      2.36      0.00
    2    6    2     -0.12      0.00
    3    6    2     -1.18      0.00
    4    6    2     -2.84      0.00
    5    6    2     -0.26      0.00
   -9    7    2     -1.47      0.00
   -8    7    2     -1.48      0.00
   -7    7    2     -1.65      0.00
   -6    7    2     -1.60      0.00
   -5    7    2      1.85      0.00
   -4    7    2      6.44      0.00
   -3    7    2      6.09      0.00
   -2    7    2      6.36      0.00
   -1    7    2      0.24      0.00
    0    7    2     -3.69      0.00
    1    7    2     -1.65      0.00
    2    7    2     -0.80      0.00
    3    7    2      1.69      0.00
    4    7    2      1.84      0.00
    5    7    2     -0.38      0.00
   -8    8    2      2.25      0.00
   -7    8    2      1.75      0.00
   -6    8    2      0.77      0.00
   -5    8    2     -1.40      0.00
   -4    8    2     -4.80      0.00
   -3    8    2     -3.85      0.00
   -2    8    2     -3.55      0.00
   -1    8    2      1.17      0.00
    0    8    2      3.18      0.00
    1    8    2      0.62      0.00
    2    8    2      0.29      0.00
    3    8    2     -1.71      0.00
    4    8    2     -1.05      0.00
   -8    9    2     -1.45      0.00
   -7    9    2     -1.31      0.00
   -6    9    2     -0.15      0.00
   -5    9    2     -0.14      0.00
   -4    9    2      1.64      0.00
   -3    9    2      0.73      0.00
   -2    9    2      0.59      0.00
   -1    9    2     -1.30      0.00
    0    9    2     -1.33      0.00
    1    9    2      0.15      0.00
    2    9    2      0.65      0.00
    3    9    2      1.30      0.00
   -8   10    2      0.60      0.00
   -7   10    2      1.55      0.00
   -6   10    2      0.63      0.00
   -5   10    2      1.65      0.00
   -4   10    2      0.17      0.00
   -3   10    2     -0.06      0.00
   -2   10    2      0.29      0.00
   -1   10    2      0.29      0.00
    0   10    2      0.37      0.00
    1   10    2     -0.03      0.00
    2   10    2     -0.84      0.00
   -7   11    2     -2.21      0.00
   -6   11    2     -1.11      0.00
   -5   11    2     -1.05      0.00
   -4   11    2      0.63      0.00
   -3   11    2      1.30      0.00
   -2   11    2     -0.38      0.00
   -1   11    2      0.06      0.00
    0   11    2     -1.03      0.00
    1   11    2     -0.45      0.00
   -6   12    2      0.45      0.00
   -5   12    2     -0.76      0.00
   -4   12    2     -1.30      0.00
   -3   12    2     -1.49      0.00
   -2   12    2      0.82      0.00
   -1   12    2      0.18      0.00
    0   12    2      1.60      0.00
    2  -13    3     -0.23      0.00
    3  -13    3      1.58      0.00
    4  -13    3      0.24      0.00
   -1  -12    3     -0.91      0.00
    0  -12    3     -1.46      0.00
    1  -12    3     -0.90      0.00
    2  -12    3      1.00      0.00
    3  -12    3     -1.47      0.00
    4  -12    3     -0.35      0.00
    5  -12    3      0.47      0.00
    6  -12    3     -1.07      0.00
   -2  -11    3      2.48      0.00
   -1  -11    3      1.61      0.00
    0  -11    3      1.86      0.00
    1  -11    3      0.09      0.00
    2  -11    3     -1.78      0.00
    3  -11    3      0.78      0.00
    4  -11    3      1.29      0.00
    5  -11    3      0.01      0.00
    6  -11    3      1.22      0.00
    7  -11    3     -2.87      0.00
   -3  -10    3     -1.28      0.00
   -2  -10    3     -3.59      0.00
   -1  -10    3     -2.00      0.00
    0  -10    3     -1.67      0.00
    1  -10    3      0.67      0.00
    2  -10    3      2.01      0.00
    3  -10    3     -0.07      0.00
    4  -10    3     -2.31      0.00
    5  -10    3      0.20      0.00
    6  -10    3     -0.77      0.00
    7  -10    3      3.17      0.00
   -4   -9    3      1.98      0.00
   -3   -9    3      2.22      0.00
   -2   -9    3      3.29      0.00
   -1   -9    3      2.50      0.00
    0   -9    3      0.78      0.00
    1   -9    3     -1.28      0.00
    2   -9    3     -2.05      0.00
    3   -9    3     -0.67      0.00
    4   -9    3      1.99      0.00
    5   -9    3     -1.63      0.00
    6   -9    3      0.33      0.00
    7   -9    3     -2.12      0.00
    8   -9    3     -1.89      0.00
   -5   -8    3      0.15      0.00
   -4   -8    3     -2.49      0.00
   -3   -8    3     -1.70      0.00
   -2   -8    3     -2.24      0.00
   -1   -8    3     -2.95      0.00
    0   -8    3      1.20      0.00
    1   -8    3      2.08      0.00
    2   -8    3      2.18      0.00
    3   -8    3      1.11      0.00
    4   -8    3     -0.41      0.00
    5   -8    3      3.64      0.00
    6   -8    3     -0.03      0.00
    7   -8    3      0.44      0.00
    8   -8    3      0.38      0.00
   -5   -7    3     -0.43      0.00
   -4   -7    3      1.81      0.00
   -3   -7    3      0.31      0.00
   -2   -7    3      1.25      0.00
   -1   -7    3      2.85      0.00
    0   -7    3     -3.10      0.00
    1   -7    3     -2.66      0.00
    2   -7    3     -2.26      0.00
    3   -7    3     -1.15      0.00
    4   -7    3     -1.95      0.00
    5   -7    3     -5.55      0.00
    6   -7    3      0.24      0.00
    7   -7    3      1.83      0.00
    8   -7    3      2.17      0.00
   -6   -6    3      0.42      0.00
   -5   -6    3      0.66      0.00
   -4   -6    3     -0.69      0.00
   -3   -6    3      1.06      0.00
   -2   -6    3     -1.17      0.00
   -1   -6    3     -3.32      0.00
    0   -6    3      3.17      0.00
    1   -6    3      3.17      0.00
    2   -6    3      2.71      0.00
    3   -6    3      1.68      0.00
    4   -6    3      4.30      0.00
    5   -6    3      5.82      0.00
    6   -6    3     -1.65      0.00
    7   -6    3     -3.77      0.00
    8   -6    3     -3.85      0.00
   -7   -5    3      0.58      0.00
   -5   -5    3     -0.23      0.00
   -4   -5    3     -0.42      0.00
   -3   -5    3     -1.39      0.00
   -2   -5    3      2.81      0.00
   -1   -5    3      5.05      0.00
    0   -5    3     -2.23      0.00
    1   -5    3     -4.12      0.00
    2   -5    3     -3.40      0.00
    3   -5    3     -2.63      0.00
    4   -5    3     -4.74      0.00
    5   -5    3     -3.78      0.00
    6   -5    3      2.54      0.00
    7   -5    3      3.35      0.00
    8   -5    3      3.77      0.00
   -7   -4    3     -0.71      0.00
   -6   -4    3     -0.62      0.00
   -5   -4    3     -0.14      0.00
   -4   -4    3      1.28      0.00
   -3   -4    3      0.16      0.00
   -2   -4    3     -4.71      0.00
   -1   -4    3     -6.57      0.00
    0   -4    3      2.35      0.00
    1   -4    3      4.65      0.00
    2   -4    3      3.38      0.00
    3   -4    3      2.99      0.00
    4   -4    3      2.94      0.00
    5   -4    3      1.86      0.00
    6   -4    3     -0.96      0.00
    7   -4    3     -1.35      0.00
    8   -4    3     -3.02      0.00
   -8   -3    3      1.43      0.00
   -7   -3    3      1.07      0.00
   -6   -3    3      1.09      0.00
   -5   -3    3     -0.54      0.00
   -4   -3    3     -1.36      0.00
   -3   -3    3      1.32      0.00
   -2   -3    3      4.32      0.00
   -1   -3    3      6.85      0.00
    0   -3    3     -4.72      0.00
    1   -3    3     -4.65      0.00
    2   -3    3     -3.22      0.00
    3   -3    3     -3.06      0.00
    4   -3    3     -0.89      0.00
    5   -3    3     -1.57      0.00
    6   -3    3     -1.06      0.00
    7   -3    3     -0.04      0.00
    8   -3    3      1.35      0.00
   -8   -2    3     -2.20      0.00
   -7   -2    3     -0.68      0.00
   -6   -2    3     -0.29      0.00
   -5   -2    3      1.39      0.00
   -4   -2    3      0.54      0.00
   -3   -2    3     -1.31      0.00
   -2   -2    3     -1.95      0.00
   -1   -2    3     -5.90      0.00
    0   -2    3     10.26      0.00
    1   -2    3      5.53      0.00
    2   -2    3      3.91      0.00
    3   -2    3      3.16      0.00
    4   -2    3     -0.86      0.00
    5   -2    3      1.08      0.00
    6   -2    3      1.34      0.00
    7   -2    3      1.43      0.00
    8   -2    3      1.35      0.00
   -8   -1    3      1.27      0.00
   -7   -1    3     -0.41      0.00
   -6   -1    3     -0.55      0.00
   -5   -1    3     -1.17      0.00
   -4   -1    3      0.44      0.00
   -2   -1    3      0.56      0.00
   -1   -1    3      3.91      0.00
    0   -1    3    -16.63      0.00
    1   -1    3     -6.29      0.00
    2   -1    3     -4.33      0.00
    3   -1    3     -2.45      0.00
    4   -1    3      3.03      0.00
    5   -1    3      0.12      0.00
    6   -1    3     -1.18      0.00
    7   -1    3     -3.05      0.00
    8   -1    3     -2.28      0.00
   -8    0    3      0.52      0.00
   -7    0    3      0.74      0.00
   -6    0    3      0.58      0.00
   -5    0    3      0.34      0.00
   -4    0    3     -1.42      0.00
   -3    0    3     -1.06      0.00
   -2    0    3     -2.42      0.00
   -1    0    3     -2.58      0.00
    0    0    3     18.18      0.00
    1    0    3      5.28      0.00
    2    0    3      3.57      0.00
    3    0    3      0.90      0.00
    4    0    3     -4.54      0.00
    5    0    3     -0.19      0.00
    6    0    3      1.31      0.00
    7    0    3      2.89      0.00
    8    0    3      0.63      0.00
   -9    1    3     -1.76      0.00
   -8    1    3     -1.55      0.00
   -7    1    3     -0.38      0.00
   -6    1    3     -0.60      0.00
   -5    1    3      0.35      0.00
   -4    1    3      2.70      0.00
   -3    1    3      3.47      0.00
   -2    1    3      6.65      0.00
   -1    1    3      2.93      0.00
    0    1    3    -13.98      0.00
    1    1    3     -4.56      0.00
    2    1    3     -2.16      0.00
    3    1    3      0.46      0.00
    4    1    3      3.84      0.00
    5    1    3     -1.04      0.00
    6    1    3     -0.75      0.00
    7    1    3     -1.30      0.00
   -9    2    3      0.95      0.00
   -8    2    3      1.70      0.00
   -7    2    3      0.06      0.00
   -6    2    3      0.68      0.00
   -5    2    3     -0.54      0.00
   -4    2    3     -3.28      0.00
   -3    2    3     -5.20      0.00
   -2    2    3     -9.61      0.00
   -1    2    3     -2.57      0.00
    0    2    3      9.13      0.00
    1    2    3      5.58      0.00
    2    2    3     -0.23      0.00
    3    2    3     -1.07      0.00
    4    2    3     -1.67      0.00
    5    2    3      1.64      0.00
    6    2    3     -0.27      0.00
   -9    3    3      0.01      0.00
   -8    3    3     -0.86      0.00
   -7    3    3      0.67      0.00
   -6    3    3     -0.64      0.00
   -5    3    3     -0.36      0.00
   -4    3    3      2.46      0.00
   -3    3    3      4.92      0.00
   -2    3    3      9.07      0.00
   -1    3    3      0.26      0.00
    0    3    3     -6.20      0.00
    1    3    3     -5.73      0.00
    2    3    3      3.47      0.00
    3    3    3      1.09      0.00
    4    3    3      0.37      0.00
    5    3    3     -0.69      0.00
    6    3    3      0.78      0.00
   -9    4    3     -0.97      0.00
   -8    4    3     -0.92      0.00
   -7    4    3     -1.39      0.00
   -6    4    3      1.07      0.00
   -5    4    3      1.49      0.00
   -4    4    3     -2.12      0.00
   -3    4    3     -4.36      0.00
   -2    4    3     -7.17      0.00
   -1    4    3      1.05      0.00
    0    4    3      3.92      0.00
    1    4    3      3.69      0.00
    2    4    3     -5.36      0.00
    3    4    3     -1.13      0.00
    4    4    3     -0.93      0.00
    5    4    3     -0.71      0.00
    6    4    3     -0.65      0.00
   -9    5    3      1.39      0.00
   -8    5    3      1.74      0.00
   -7    5    3      0.77      0.00
   -6    5    3     -1.75      0.00
   -5    5    3     -1.19      0.00
   -4    5    3      3.53      0.00
   -3    5    3      5.18      0.00
   -2    5    3      6.90      0.00
   -1    5    3      0.21      0.00
    0    5    3     -2.57      0.00
    1    5    3     -1.75      0.00
    2    5    3      4.39      0.00
    3    5    3      1.51      0.00
    4    5    3      1.85      0.00
    5    5    3      0.95      0.00
    6    5    3      0.16      0.00
   -9    6    3     -0.17      0.00
   -8    6    3     -0.42      0.00
   -7    6    3      0.85      0.00
   -6    6    3      2.04      0.00
   -5    6    3     -0.01      0.00
   -4    6    3     -5.24      0.00
   -3    6    3     -6.63      0.00
   -2    6    3     -7.58      0.00
   -1    6    3     -1.28      0.00
    0    6    3      3.30      0.00
    1    6    3      1.45      0.00
    2    6    3     -1.65      0.00
    3    6    3     -1.82      0.00
    4    6    3     -1.66      0.00
    5    6    3     -0.29      0.00
   -9    7    3     -1.74      0.00
   -8    7    3     -1.25      0.00
   -7    7    3     -2.03      0.00
   -6    7    3     -1.85      0.00
   -5    7    3      0.75      0.00
   -4    7    3      5.64      0.00
   -3    7    3      6.59      0.00
   -2    7    3      6.30      0.00
   -1    7    3      0.01      0.00
    0    7    3     -4.58      0.00
    1    7    3     -1.73      0.00
    2    7    3     -0.45      0.00
    3    7    3      2.03      0.00
    4    7    3      1.03      0.00
    5    7    3      0.09      0.00
   -8    8    3      1.43      0.00
   -7    8    3      2.16      0.00
   -6    8    3      1.10      0.00
   -5    8    3     -0.74      0.00
   -4    8    3     -4.12      0.00
   -3    8    3     -3.90      0.00
   -2    8    3     -2.83      0.00
   -1    8    3      1.66      0.00
    0    8    3      3.96      0.00
    1    8    3      1.20      0.00
    2    8    3      0.55      0.00
    3    8    3     -2.25      0.00
    4    8    3     -0.72      0.00
   -8    9    3     -0.60      0.00
   -7    9    3     -1.73      0.00
   -6    9    3     -0.36      0.00
   -5    9    3     -0.29      0.00
   -4    9    3      1.44      0.00
   -3    9    3      0.74      0.00
   -2    9    3      0.26      0.00
   -1    9    3     -1.28      0.00
    0    9    3     -1.72      0.00
    1    9    3     -0.20      0.00
    2    9    3      0.33      0.00
    3    9    3      1.83      0.00
   -8   10    3     -0.01      0.00
   -7   10    3      1.69      0.00
   -6   10    3      0.56      0.00
   -5   10    3      1.37      0.00
   -4   10    3     -0.23      0.00
   -3   10    3     -0.04      0.00
   -2   10    3      0.01      0.00
   -1   10    3     -0.21      0.00
    0   10    3      0.47      0.00
    1   10    3     -0.06      0.00
    2   10    3     -0.56      0.00
   -7   11    3     -1.95      0.00
   -6   11    3     -0.83      0.00
   -5   11    3     -0.60      0.00
   -4   11    3      1.22      0.00
   -3   11    3      0.79      0.00
   -2   11    3      0.02      0.00
   -1   11    3      0.62      0.00
    0   11    3     -1.02      0.00
    1   11    3     -0.23      0.00
   -6   12    3      0.24      0.00
   -5   12    3     -0.96      0.00
   -4   12    3     -1.64      0.00
   -3   12    3     -0.54      0.00
   -2   12    3      0.55      0.00
    2  -13    4     -1.07      0.00
    3  -13    4      0.49      0.00
    4  -13    4     -0.03      0.00
    0  -12    4     -1.77      0.00
    1  -12    4     -1.33      0.00
    2  -12    4      1.49      0.00
    3  -12    4     -0.22      0.00
    4  -12    4      0.37      0.00
    5  -12    4      0.85      0.00
    6  -12    4     -0.19      0.00
   -2  -11    4      2.06      0.00
   -1  -11    4      2.16      0.00
    0  -11    4      2.18      0.00
    1  -11    4      0.81      0.00
    2  -11    4     -1.89      0.00
    3  -11    4     -0.23      0.00
    4  -11    4      0.59      0.00
    5  -11    4     -0.04      0.00
    6  -11    4      0.22      0.00
    7  -11    4     -3.58      0.00
   -3  -10    4     -1.78      0.00
   -2  -10    4     -3.07      0.00
   -1  -10    4     -2.52      0.00
    0  -10    4     -2.09      0.00
    1  -10    4     -0.03      0.00
    2  -10    4      2.05      0.00
    3  -10    4      0.40      0.00
    4  -10    4     -1.68      0.00
    5  -10    4      0.25      0.00
    6  -10    4      0.32      0.00
    7  -10    4      3.68      0.00
   -4   -9    4      2.92      0.00
   -3   -9    4      2.89      0.00
   -2   -9    4      2.81      0.00
   -1   -9    4      2.73      0.00
    0   -9    4      1.15      0.00
    1   -9    4     -0.87      0.00
    2   -9    4     -2.29      0.00
    3   -9    4     -1.08      0.00
    4   -9    4      0.86      0.00
    5   -9    4     -1.99      0.00
    6   -9    4     -0.39      0.00
    7   -9    4     -2.09      0.00
   -5   -8    4     -0.50      0.00
   -4   -8    4     -3.91      0.00
   -3   -8    4     -2.40      0.00
   -2   -8    4     -1.66      0.00
   -1   -8    4     -2.66      0.00
    0   -8    4      0.62      0.00
    1   -8    4      1.58      0.00
    2   -8    4      2.77      0.00
    3   -8    4      2.21      0.00
    4   -8    4      1.16      0.00
    5   -8    4      3.89      0.00
    6   -8    4      0.13      0.00
    7   -8    4      0.20      0.00
    8   -8    4     -0.45      0.00
   -5   -7    4      0.47      0.00
   -4   -7    4      3.23      0.00
   -3   -7    4      0.91      0.00
   -2   -7    4      0.52      0.00
   -1   -7    4      2.52      0.00
    0   -7    4     -1.77      0.00
    1   -7    4     -1.72      0.00
    2   -7    4     -2.94      0.00
    3   -7    4     -2.65      0.00
    4   -7    4     -2.92      0.00
    5   -7    4     -5.51      0.00
    6   -7    4     -0.08      0.00
    7   -7    4      1.72      0.00
    8   -7    4      2.62      0.00
   -6   -6    4     -0.58      0.00
   -5   -6    4      0.05      0.00
   -4   -6    4     -1.78      0.00
   -3   -6    4      0.58      0.00
   -2   -6    4     -0.43      0.00
   -1   -6    4     -3.54      0.00
    0   -6    4      1.17      0.00
    1   -6    4      1.81      0.00
    2   -6    4      2.50      0.00
    3   -6    4      2.54      0.00
    4   -6    4      4.17      0.00
    5   -6    4      6.06      0.00
    6   -6    4     -0.67      0.00
    7   -6    4     -3.57      0.00
    8   -6    4     -4.17      0.00
   -7   -5    4      1.48      0.00
   -6   -5    4      0.46      0.00
   -5   -5    4     -0.09      0.00
   -4   -5    4      0.12      0.00
   -3   -5    4     -1.37      0.00
   -2   -5    4      2.17      0.00
   -1   -5    4      6.04      0.00
    0   -5    4      0.23      0.00
    1   -5    4     -2.35      0.00
    2   -5    4     -1.58      0.00
    3   -5    4     -2.67      0.00
    4   -5    4     -4.15      0.00
    5   -5    4     -4.58      0.00
    6   -5    4      1.55      0.00
    7   -5    4      3.72      0.00
    8   -5    4      3.99      0.00
   -7   -4    4     -1.20      0.00
   -6   -4    4     -0.74      0.00
   -5   -4    4      0.05      0.00
   -4   -4    4      1.88      0.00
   -3   -4    4      1.05      0.00
   -2   -4    4     -4.79      0.00
   -1   -4    4     -8.58      0.00
    0   -4    4     -1.06      0.00
    1   -4    4      2.65      0.00
    2   -4    4      0.50      0.00
    3   -4    4      2.99      0.00
    4   -4    4      2.47      0.00
    5   -4    4      2.55      0.00
    6   -4    4     -0.76      0.00
    7   -4    4     -2.04      0.00
    8   -4    4     -2.72      0.00
   -8   -3    4      1.54      0.00
   -7   -3    4      0.83      0.00
   -6   -3    4      0.88      0.00
   -5   -3    4     -1.14      0.00
   -4   -3    4     -3.53      0.00
   -3   -3    4     -0.04      0.00
   -2   -3    4      6.04      0.00
   -1   -3    4      9.86      0.00
    0   -3    4      0.78      0.00
    1   -3    4     -2.43      0.00
    2   -3    4     -0.19      0.00
    3   -3    4     -3.25      0.00
    4   -3    4     -0.20      0.00
    5   -3    4     -1.50      0.00
    6   -3    4     -0.82      0.00
    7   -3    4      0.12      0.00
    8   -3    4      0.75      0.00
   -8   -2    4     -1.45      0.00
   -7   -2    4     -0.13      0.00
   -6   -2    4     -0.08      0.00
   -5   -2    4      2.50      0.00
   -4   -2    4      3.66      0.00
   -3   -2    4     -0.43      0.00
   -2   -2    4     -5.12      0.00
   -1   -2    4     -9.70      0.00
    0   -2    4      0.98      0.00
    1   -2    4      2.56      0.00
    2   -2    4      1.24      0.00
    3   -2    4      3.04      0.00
    4   -2    4     -2.20      0.00
    5   -2    4      0.51      0.00
    6   -2    4      1.48      0.00
    7   -2    4      1.63      0.00
    8   -2    4      1.11      0.00
   -8   -1    4      0.19      0.00
   -7   -1    4     -0.51      0.00
   -6   -1    4     -0.52      0.00
   -5   -1    4     -2.51      0.00
   -4   -1    4     -2.49      0.00
   -3   -1    4      0.16      0.00
   -2   -1    4      3.92      0.00
   -1   -1    4      8.65      0.00
    0   -1    4     -3.57      0.00
    1   -1    4     -3.27      0.00
    2   -1    4     -2.70      0.00
    3   -1    4     -1.64      0.00
    4   -1    4      4.78      0.00
    5   -1    4      0.57      0.00
    6   -1    4     -1.65      0.00
    7   -1    4     -2.66      0.00
    8   -1    4     -0.86      0.00
   -9    0    4      1.87      0.00
   -8    0    4      1.06      0.00
   -7    0    4      0.01      0.00
   -6    0    4      0.35      0.00
   -5    0    4      1.59      0.00
   -4    0    4      0.85      0.00
   -3    0    4     -0.56      0.00
   -2    0    4     -4.58      0.00
   -1    0    4     -7.21      0.00
    0    0    4      5.37      0.00
    1    0    4      4.11      0.00
    2    0    4      2.98      0.00
    3    0    4     -0.61      0.00
    4    0    4     -5.92      0.00
    5    0    4     -0.21      0.00
    6    0    4      1.68      0.00
    7    0    4      1.93      0.00
    8    0    4     -0.79      0.00
   -9    1    4     -1.74      0.00
   -8    1    4     -1.15      0.00
   -7    1    4      0.78      0.00
   -6    1    4     -0.47      0.00
   -5    1    4     -0.96      0.00
   -4    1    4      0.75      0.00
   -3    1    4      1.95      0.00
   -2    1    4      6.31      0.00
   -1    1    4      5.04      0.00
    0    1    4     -5.85      0.00
    1    1    4     -4.73      0.00
    2    1    4     -1.32      0.00
    3    1    4      1.94      0.00
    4    1    4      4.03      0.00
    5    1    4     -1.33      0.00
    6    1    4     -0.99      0.00
    7    1    4     -0.65      0.00
   -9    2    4      0.26      0.00
   -8    2    4      0.80      0.00
   -7    2    4     -0.65      0.00
   -6    2    4      1.06      0.00
   -5    2    4      1.16      0.00
   -4    2    4     -1.32      0.00
   -3    2    4     -2.61      0.00
   -2    2    4     -6.81      0.00
   -1    2    4     -2.20      0.00
    0    2    4      5.30      0.00
    1    2    4      4.39      0.00
    2    2    4     -1.72      0.00
    3    2    4     -1.36      0.00
    4    2    4     -0.79      0.00
    5    2    4      1.89      0.00
    6    2    4      0.01      0.00
   -9    3    4      1.16      0.00
   -8    3    4     -0.49      0.00
   -7    3    4      0.15      0.00
   -6    3    4     -1.52      0.00
   -5    3    4     -2.22      0.00
   -4    3    4      0.74      0.00
   -3    3    4      2.29      0.00
   -2    3    4      6.25      0.00
   -1    3    4      0.47      0.00
    0    3    4     -3.86      0.00
    1    3    4     -2.79      0.00
    2    3    4      4.64      0.00
    3    3    4      0.37      0.00
    4    3    4     -0.65      0.00
    5    3    4     -0.80      0.00
    6    3    4      0.58      0.00
   -9    4    4     -1.73      0.00
   -8    4    4      0.04      0.00
   -7    4    4      0.21      0.00
   -6    4    4      1.72      0.00
   -5    4    4      2.89      0.00
   -4    4    4     -0.88      0.00
   -3    4    4     -2.85      0.00
   -2    4    4     -6.50      0.00
   -1    4    4     -0.98      0.00
    0    4    4      2.57      0.00
    1    4    4      0.89      0.00
    2    4    4     -6.19      0.00
    3    4    4     -0.68      0.00
    4    4    4      0.06      0.00
    5    4    4     -0.31      0.00
   -9    5    4      1.17      0.00
   -8    5    4     -0.13      0.00
   -7    5    4     -0.84      0.00
   -6    5    4     -1.63      0.00
   -5    5    4     -2.14      0.00
   -4    5    4      2.32      0.00
   -3    5    4      4.51      0.00
   -2    5    4      7.41      0.00
   -1    5    4      1.99      0.00
    0    5    4     -2.79      0.00
    1    5    4      0.13      0.00
    2    5    4      5.61      0.00
    3    5    4      1.42      0.00
    4    5    4      0.14      0.00
    5    5    4      0.25      0.00
   -9    6    4      0.58      0.00
   -8    6    4      1.06      0.00
   -7    6    4      1.75      0.00
   -6    6    4      1.52      0.00
   -5    6    4      0.96      0.00
   -4    6    4     -3.41      0.00
   -3    6    4     -5.53      0.00
   -2    6    4     -7.07      0.00
   -1    6    4     -1.35      0.00
    0    6    4      4.14      0.00
    1    6    4      0.15      0.00
    2    6    4     -2.91      0.00
    3    6    4     -1.29      0.00
    4    6    4      0.63      0.00
    5    6    4      0.15      0.00
   -9    7    4     -2.14      0.00
   -8    7    4     -1.66      0.00
   -7    7    4     -2.41      0.00
   -6    7    4     -1.51      0.00
   -5    7    4     -0.28      0.00
   -4    7    4      3.21      0.00
   -3    7    4      4.62      0.00
   -2    7    4      4.67      0.00
   -1    7    4     -0.61      0.00
    0    7    4     -4.86      0.00
    1    7    4     -1.01      0.00
    2    7    4      0.08      0.00
    3    7    4      1.12      0.00
    4    7    4     -0.90      0.00
   -8    8    4      1.12      0.00
   -7    8    4      2.34      0.00
   -6    8    4      0.97      0.00
   -5    8    4      0.04      0.00
   -3    8    4     -2.15      0.00
   -2    8    4     -1.75      0.00
   -1    8    4      1.65      0.00
    0    8    4      3.62      0.00
    1    8    4      1.00      0.00
    2    8    4      0.66      0.00
    3    8    4     -1.48      0.00
   -8    9    4     -0.14      0.00
   -7    9    4     -1.67      0.00
   -6    9    4     -0.20      0.00
   -5    9    4     -0.51      0.00
   -4    9    4      0.40      0.00
   -3    9    4      0.21      0.00
   -2    9    4      0.58      0.00
   -1    9    4     -0.56      0.00
    0    9    4     -1.24      0.00
    1    9    4     -0.14      0.00
    2    9    4     -0.05      0.00
    3    9    4      1.28      0.00
   -8   10    4     -0.42      0.00
   -7   10    4      1.19      0.00
   -6   10    4      0.15      0.00
   -5   10    4      0.95      0.00
   -4   10    4     -0.44      0.00
   -3   10    4     -0.16      0.00
   -2   10    4     -1.01      0.00
   -1   10    4     -1.04      0.00
    0   10    4      0.06      0.00
    1   10    4     -0.18      0.00
    2   10    4     -0.19      0.00
   -7   11    4     -1.05      0.00
   -6   11    4     -0.19      0.00
   -5   11    4     -0.07      0.00
   -4   11    4      1.59      0.00
   -3   11    4      0.46      0.00
   -2   11    4      0.97      0.00
   -1   11    4      1.27      0.00
    0   11    4     -0.67      0.00
   -6   12    4     -0.24      0.00
   -5   12    4     -0.97      0.00
   -4   12    4     -1.53      0.00
   -3   12    4      0.24      0.00
   -2   12    4     -0.21      0.00
    2  -13    5     -1.47      0.00
    3  -13    5     -0.35      0.00
    0  -12    5     -0.85      0.00
    1  -12    5     -1.22      0.00
    2  -12    5      1.52      0.00
    3  -12    5      0.94      0.00
    4  -12    5      1.37      0.00
    5  -12    5      1.20      0.00
   -2  -11    5      0.56      0.00
   -1  -11    5      1.29      0.00
    0  -11    5      1.31      0.00
    1  -11    5      1.13      0.00
    2  -11    5     -1.53      0.00
    3  -11    5     -1.33      0.00
    4  -11    5     -0.55      0.00
    5  -11    5     -0.20      0.00
    6  -11    5     -0.79      0.00
   -3  -10    5     -0.94      0.00
   -2  -10    5     -1.05      0.00
   -1  -10    5     -1.77      0.00
    0  -10    5     -1.62      0.00
    1  -10    5     -0.44      0.00
    2  -10    5      1.67      0.00
    3  -10    5      1.14      0.00
    4  -10    5     -0.57      0.00
    5  -10    5      0.34      0.00
    6  -10    5      1.31      0.00
    7  -10    5      3.02      0.00
   -4   -9    5      2.73      0.00
   -3   -9    5      1.43      0.00
   -2   -9    5      1.03      0.00
   -1   -9    5      2.22      0.00
    0   -9    5      1.04      0.00
    1   -9    5     -0.63      0.00
    2   -9    5     -2.09      0.00
    3   -9    5     -1.69      0.00
    4   -9    5     -0.20      0.00
    5   -9    5     -1.72      0.00
    6   -9    5     -0.79      0.00
    7   -9    5     -1.31      0.00
   -5   -8    5     -1.06      0.00
   -4   -8    5     -3.59      0.00
   -3   -8    5     -0.99      0.00
   -2   -8    5     -0.51      0.00
   -1   -8    5     -2.28      0.00
    0   -8    5      0.08      0.00
    1   -8    5      1.08      0.00
    2   -8    5      2.72      0.00
    3   -8    5      3.03      0.00
    4   -8    5      1.45      0.00
    5   -8    5      2.50      0.00
    6   -8    5     -0.13      0.00
    7   -8    5     -0.07      0.00
   -5   -7    5      1.10      0.00
   -4   -7    5      3.06      0.00
   -3   -7    5      0.06      0.00
   -2   -7    5     -0.12      0.00
   -1   -7    5      2.41      0.00
    0   -7    5     -0.25      0.00
    1   -7    5     -0.57      0.00
    2   -7    5     -2.73      0.00
    3   -7    5     -3.33      0.00
    4   -7    5     -1.45      0.00
    5   -7    5     -2.99      0.00
    6   -7    5      0.02      0.00
    7   -7    5      1.08      0.00
    8   -7    5      2.32      0.00
   -6   -6    5     -1.58      0.00
   -5   -6    5     -0.35      0.00
   -4   -6    5     -1.78      0.00
   -3   -6    5      0.86      0.00
   -2   -6    5      0.13      0.00
   -1   -6    5     -3.69      0.00
    0   -6    5     -0.90      0.00
    1   -6    5     -0.08      0.00
    2   -6    5      1.31      0.00
    3   -6    5      2.51      0.00
    4   -6    5      1.21      0.00
    5   -6    5      3.54      0.00
    6   -6    5     -0.14      0.00
    7   -6    5     -2.72      0.00
    8   -6    5     -3.86      0.00
   -7   -5    5      2.00      0.00
   -6   -5    5      0.97      0.00
   -5   -5    5     -0.16      0.00
   -4   -5    5      0.04      0.00
   -3   -5    5     -1.65      0.00
   -2   -5    5      1.34      0.00
   -1   -5    5      6.29      0.00
    0   -5    5      2.35      0.00
    1   -5    5      0.23      0.00
    2   -5    5      0.84      0.00
    3   -5    5     -2.51      0.00
    4   -5    5     -1.30      0.00
    5   -5    5     -2.81      0.00
    6   -5    5      1.17      0.00
    7   -5    5      3.66      0.00
    8   -5    5      3.82      0.00
   -7   -4    5     -1.15      0.00
   -6   -4    5     -0.55      0.00
   -5   -4    5      0.40      0.00
   -4   -4    5      2.49      0.00
   -3   -4    5      1.89      0.00
   -2   -4    5     -4.20      0.00
   -1   -4    5     -9.12      0.00
    0   -4    5     -3.11      0.00
    1   -4    5      0.26      0.00
    2   -4    5     -1.98      0.00
    3   -4    5      3.68      0.00
    4   -4    5      0.62      0.00
    5   -4    5      1.10      0.00
    6   -4    5     -1.24      0.00
    7   -4    5     -2.53      0.00
    8   -4    5     -2.32      0.00
   -8   -3    5      1.06      0.00
   -7   -3    5      0.19      0.00
   -6   -3    5      0.55      0.00
   -5   -3    5     -1.49      0.00
   -4   -3    5     -5.05      0.00
   -3   -3    5     -1.16      0.00
   -2   -3    5      6.84      0.00
   -1   -3    5     10.60      0.00
    0   -3    5      2.61      0.00
    1   -3    5     -1.33      0.00
    2   -3    5      1.50      0.00
    3   -3    5     -4.29      0.00
    4   -3    5      1.07      0.00
    5   -3    5     -0.10      0.00
    6   -3    5     -0.13      0.00
    7   -3    5      0.37      0.00
    8   -3    5      0.48      0.00
   -8   -2    5     -0.38      0.00
   -7   -2    5      0.40      0.00
   -6   -2    5     -0.21      0.00
   -5   -2    5      2.93      0.00
   -4   -2    5      5.97      0.00
   -3   -2    5      0.26      0.00
   -2   -2    5     -7.36      0.00
   -1   -2    5     -9.97      0.00
    0   -2    5     -1.02      0.00
    1   -2    5      2.43      0.00
    2   -2    5     -0.28      0.00
    3   -2    5      3.11      0.00
    4   -2    5     -3.11      0.00
    5   -2    5     -0.18      0.00
    6   -2    5      1.35      0.00
    7   -2    5      1.29      0.00
    8   -2    5      0.37      0.00
   -8   -1    5     -0.74      0.00
   -7   -1    5     -0.38      0.00
   -6   -1    5     -0.06      0.00
   -5   -1    5     -3.20      0.00
   -4   -1    5     -5.02      0.00
   -3   -1    5     -0.15      0.00
   -2   -1    5      6.12      0.00
   -1   -1    5      8.09      0.00
    0   -1    5     -0.79      0.00
    1   -1    5     -3.11      0.00
    2   -1    5     -0.75      0.00
    3   -1    5     -0.53      0.00
    4   -1    5      4.82      0.00
    5   -1    5      0.23      0.00
    6   -1    5     -1.74      0.00
    7   -1    5     -1.62      0.00
    8   -1    5      0.49      0.00
   -9    0    5      1.41      0.00
   -8    0    5      1.31      0.00
   -7    0    5     -0.59      0.00
   -6    0    5     -0.01      0.00
   -5    0    5      2.54      0.00
   -4    0    5      3.35      0.00
   -3    0    5      0.32      0.00
   -2    0    5     -5.07      0.00
   -1    0    5     -5.90      0.00
    0    0    5      2.41      0.00
    1    0    5      3.42      0.00
    2    0    5      0.78      0.00
    3    0    5     -1.91      0.00
    4    0    5     -4.78      0.00
    5    0    5      0.55      0.00
    6    0    5      1.61      0.00
    7    0    5      0.86      0.00
   -9    1    5     -1.19      0.00
   -8    1    5     -0.77      0.00
   -7    1    5      1.35      0.00
   -6    1    5     -0.48      0.00
   -5    1    5     -2.27      0.00
   -4    1    5     -1.93      0.00
   -3    1    5     -0.12      0.00
   -2    1    5      4.62      0.00
   -1    1    5      3.41      0.00
    0    1    5     -3.49      0.00
    1    1    5     -2.77      0.00
    2    1    5      0.62      0.00
    3    1    5      2.21      0.00
    4    1    5      2.14      0.00
    5    1    5     -1.83      0.00
    6    1    5     -1.16      0.00
    7    1    5     -0.43      0.00
   -9    2    5     -0.18      0.00
   -8    2    5      0.24      0.00
   -7    2    5     -0.59      0.00
   -6    2    5      1.65      0.00
   -5    2    5      2.88      0.00
   -4    2    5      1.25      0.00
   -3    2    5     -0.06      0.00
   -2    2    5     -4.23      0.00
   -1    2    5     -1.64      0.00
    0    2    5      3.00      0.00
    1    2    5      0.89      0.00
    2    2    5     -2.42      0.00
    3    2    5     -0.11      0.00
    4    2    5      0.95      0.00
    5    2    5      1.97      0.00
    6    2    5      0.63      0.00
   -9    3    5      1.28      0.00
   -8    3    5     -0.60      0.00
   -7    3    5     -0.93      0.00
   -6    3    5     -2.37      0.00
   -5    3    5     -3.67      0.00
   -4    3    5     -0.96      0.00
   -3    3    5      0.40      0.00
   -2    3    5      4.61      0.00
   -1    3    5      2.05      0.00
    0    3    5     -1.54      0.00
    1    3    5      0.70      0.00
    2    3    5      3.61      0.00
    3    3    5     -1.43      0.00
    4    3    5     -1.61      0.00
    5    3    5     -0.77      0.00
   -9    4    5     -1.13      0.00
   -8    4    5      1.30      0.00
   -7    4    5      1.77      0.00
   -6    4    5      1.94      0.00
   -5    4    5      3.53      0.00
   -4    4    5      0.19      0.00
   -3    4    5     -1.54      0.00
   -2    4    5     -5.95      0.00
   -1    4    5     -3.36      0.00
    0    4    5      1.49      0.00
    1    4    5     -1.07      0.00
    2    4    5     -4.69      0.00
    3    4    5      0.47      0.00
    4    4    5      0.75      0.00
    5    4    5     -0.02      0.00
   -9    5    5      0.02      0.00
   -8    5    5     -1.81      0.00
   -7    5    5     -1.83      0.00
   -6    5    5     -1.00      0.00
   -5    5    5     -2.54      0.00
   -4    5    5      0.62      0.00
   -3    5    5      2.61      0.00
   -2    5    5      6.43      0.00
   -1    5    5      2.99      0.00
    0    5    5     -3.05      0.00
    1    5    5      1.04      0.00
    2    5    5      5.08      0.00
    3    5    5      0.79      0.00
    4    5    5     -1.14      0.00
    5    5    5     -0.33      0.00
   -9    6    5      1.36      0.00
   -8    6    5      2.10      0.00
   -7    6    5      1.93      0.00
   -6    6    5      0.81      0.00
   -5    6    5      1.77      0.00
   -4    6    5     -0.48      0.00
   -3    6    5     -2.41      0.00
   -2    6    5     -4.92      0.00
   -1    6    5     -1.02      0.00
    0    6    5      4.23      0.00
    1    6    5     -0.64      0.00
    2    6    5     -3.24      0.00
    3    6    5     -0.47      0.00
    4    6    5      2.38      0.00
    5    6    5      0.63      0.00
   -9    7    5     -2.04      0.00
   -8    7    5     -1.92      0.00
   -6    7    5     -1.17      0.00
   -5    7    5     -1.23      0.00
   -4    7    5     -0.29      0.00
   -3    7    5      1.17      0.00
   -2    7    5      2.66      0.00
   -1    7    5     -0.63      0.00
    0    7    5     -3.97      0.00
    1    7    5     -0.33      0.00
    2    7    5      0.50      0.00
    3    7    5      0.07      0.00
    4    7    5     -2.49      0.00
   -8    8    5      1.11      0.00
   -7    8    5      2.11      0.00
   -6    8    5      0.86      0.00
   -5    8    5      0.65      0.00
   -4    8    5      0.92      0.00
   -3    8    5     -0.11      0.00
   -2    8    5     -1.43      0.00
   -1    8    5      0.76      0.00
    0    8    5      2.43      0.00
    1    8    5      0.64      0.00
    2    8    5      0.54      0.00
    3    8    5     -0.44      0.00
   -8    9    5     -0.17      0.00
   -7    9    5     -1.25      0.00
   -6    9    5     -0.13      0.00
   -5    9    5     -0.49      0.00
   -4    9    5     -0.70      0.00
   -3    9    5      0.12      0.00
   -2    9    5      1.66      0.00
   -1    9    5      0.40      0.00
    0    9    5     -0.44      0.00
    1    9    5      0.04      0.00
    2    9    5     -0.22      0.00
   -8   10    5     -0.37      0.00
   -7   10    5      0.51      0.00
   -6   10    5     -0.06      0.00
   -5   10    5      0.34      0.00
   -4   10    5     -0.65      0.00
   -3   10    5     -0.65      0.00
   -2   10    5     -2.11      0.00
   -1   10    5     -1.49      0.00
    0   10    5     -0.42      0.00
    1   10    5     -0.35      0.00
   -7   11    5     -0.19      0.00
   -6   11    5      0.18      0.00
   -5   11    5      0.43      0.00
   -4   11    5      1.68      0.00
   -3   11    5      0.21      0.00
   -2   11    5      1.62      0.00
   -1   11    5      1.44      0.00
    0   11    5     -0.21      0.00
   -5   12    5     -0.80      0.00
   -4   12    5     -1.00      0.00
    0  -12    6      0.45      0.00
    1  -12    6     -0.74      0.00
    2  -12    6      1.20      0.00
    3  -12    6      1.68      0.00
    4  -12    6      1.99      0.00
    5  -12    6      1.19      0.00
   -1  -11    6     -0.08      0.00
    0  -11    6      0.08      0.00
    1  -11    6      1.12      0.00
    2  -11    6     -0.77      0.00
    3  -11    6     -1.86      0.00
    4  -11    6     -1.23      0.00
    5  -11    6     -0.21      0.00
    6  -11    6     -1.43      0.00
   -3  -10    6      0.76      0.00
   -2  -10    6      1.30      0.00
   -1  -10    6     -0.60      0.00
    0  -10    6     -0.92      0.00
    1  -10    6     -0.73      0.00
    2  -10    6      0.76      0.00
    3  -10    6      1.39      0.00
    4  -10    6      0.20      0.00
    5  -10    6      0.40      0.00
    6  -10    6      1.89      0.00
   -4   -9    6      1.38      0.00
   -3   -9    6     -1.23      0.00
   -2   -9    6     -0.85      0.00
   -1   -9    6      1.65      0.00
    0   -9    6      0.96      0.00
    1   -9    6     -0.26      0.00
    2   -9    6     -1.22      0.00
    3   -9    6     -1.75      0.00
    4   -9    6     -0.58      0.00
    5   -9    6     -1.17      0.00
    6   -9    6     -0.83      0.00
    7   -9    6     -0.12      0.00
   -5   -8    6     -1.05      0.00
   -4   -8    6     -1.76      0.00
   -3   -8    6      1.45      0.00
   -2   -8    6      0.20      0.00
   -1   -8    6     -2.31      0.00
    0   -8    6     -0.66      0.00
    1   -8    6      0.41      0.00
    2   -8    6      1.89      0.00
    3   -8    6      2.91      0.00
    4   -8    6      0.45      0.00
    5   -8    6      0.51      0.00
    6   -8    6     -0.64      0.00
    7   -8    6     -0.41      0.00
   -5   -7    6      1.14      0.00
   -4   -7    6      1.59      0.00
   -3   -7    6     -1.33      0.00
   -2   -7    6      0.07      0.00
   -1   -7    6      2.89      0.00
    0   -7    6      1.27      0.00
    1   -7    6      0.64      0.00
    2   -7    6     -1.77      0.00
    3   -7    6     -2.87      0.00
    4   -7    6      1.48      0.00
    5   -7    6      0.32      0.00
    6   -7    6      0.47      0.00
    7   -7    6      0.36      0.00
   -6   -6    6     -2.20      0.00
   -5   -6    6     -0.43      0.00
   -4   -6    6     -0.88      0.00
   -3   -6    6      1.33      0.00
   -2   -6    6     -0.05      0.00
   -1   -6    6     -4.10      0.00
    0   -6    6     -2.59      0.00
    1   -6    6     -2.00      0.00
    2   -6    6     -0.11      0.00
    3   -6    6      1.91      0.00
    4   -6    6     -2.77      0.00
    5   -6    6      0.07      0.00
    6   -6    6     -0.12      0.00
    7   -6    6     -1.56      0.00
    8   -6    6     -2.96      0.00
   -7   -5    6      1.85      0.00
   -6   -5    6      1.22      0.00
   -5   -5    6     -0.33      0.00
   -4   -5    6     -0.47      0.00
   -3   -5    6     -1.82      0.00
   -2   -5    6      0.69      0.00
   -1   -5    6      6.11      0.00
    0   -5    6      3.71      0.00
    1   -5    6      2.90      0.00
    2   -5    6      2.42      0.00
    3   -5    6     -2.76      0.00
    4   -5    6      1.98      0.00
    5   -5    6     -0.11      0.00
    6   -5    6      1.13      0.00
    7   -5    6      2.91      0.00
    8   -5    6      3.03      0.00
   -7   -4    6     -0.76      0.00
   -6   -4    6     -0.37      0.00
   -5   -4    6      0.62      0.00
   -4   -4    6      2.68      0.00
   -3   -4    6      2.27      0.00
   -2   -4    6     -2.88      0.00
   -1   -4    6     -8.44      0.00
    0   -4    6     -3.98      0.00
    1   -4    6     -2.34      0.00
    2   -4    6     -2.67      0.00
    3   -4    6      5.37      0.00
    4   -4    6     -1.09      0.00
    5   -4    6     -0.82      0.00
    6   -4    6     -1.60      0.00
    7   -4    6     -2.27      0.00
    8   -4    6     -1.62      0.00
   -8   -3    6      0.36      0.00
   -7   -3    6     -0.21      0.00
   -6   -3    6      0.54      0.00
   -5   -3    6     -1.19      0.00
   -4   -3    6     -5.13      0.00
   -3   -3    6     -1.92      0.00
   -2   -3    6      5.79      0.00
   -1   -3    6      9.58      0.00
    0   -3    6      2.64      0.00
    1   -3    6      0.14      0.00
    2   -3    6      1.26      0.00
    3   -3    6     -6.30      0.00
    4   -3    6      1.52      0.00
    5   -3    6      1.01      0.00
    6   -3    6      0.30      0.00
    7   -3    6      0.37      0.00
    8   -3    6      0.24      0.00
   -8   -2    6      0.29      0.00
   -7   -2    6      0.38      0.00
   -6   -2    6     -0.75      0.00
   -5   -2    6      2.26      0.00
   -4   -2    6      6.44      0.00
   -3   -2    6      1.19      0.00
   -2   -2    6     -7.15      0.00
   -1   -2    6     -8.36      0.00
    0   -2    6     -0.29      0.00
    1   -2    6      1.71      0.00
    2   -2    6     -0.51      0.00
    3   -2    6      3.98      0.00
    4   -2    6     -2.41      0.00
    5   -2    6     -0.14      0.00
    6   -2    6      1.03      0.00
    7   -2    6      0.66      0.00
   -8   -1    6     -1.03      0.00
   -7   -1    6     -0.15      0.00
   -6   -1    6      0.47      0.00
   -5   -1    6     -2.77      0.00
   -4   -1    6     -6.10      0.00
   -3   -1    6     -1.20      0.00
   -2   -1    6      6.20      0.00
   -1   -1    6      5.93      0.00
    0   -1    6     -1.39      0.00
    1   -1    6     -1.81      0.00
    2   -1    6      0.76      0.00
    3   -1    6     -0.41      0.00
    4   -1    6      2.76      0.00
    5   -1    6     -0.58      0.00
    6   -1    6     -1.09      0.00
    7   -1    6     -0.37      0.00
   -8    0    6      1.43      0.00
   -7    0    6     -0.36      0.00
   -6    0    6     -0.07      0.00
   -5    0    6      2.50      0.00
   -4    0    6      5.03      0.00
   -3    0    6      1.88      0.00
   -2    0    6     -4.59      0.00
   -1    0    6     -3.93      0.00
    0    0    6      2.12      0.00
    1    0    6      0.93      0.00
    2    0    6     -1.14      0.00
    3    0    6     -1.84      0.00
    4    0    6     -1.99      0.00
    5    0    6      1.04      0.00
    6    0    6      0.75      0.00
    7    0    6      0.05      0.00
   -9    1    6     -0.91      0.00
   -8    1    6     -0.93      0.00
   -7    1    6      0.65      0.00
   -6    1    6     -0.68      0.00
   -5    1    6     -2.60      0.00
   -4    1    6     -4.15      0.00
   -3    1    6     -2.18      0.00
   -2    1    6      3.61      0.00
   -1    1    6      2.68      0.00
    0    1    6     -2.22      0.00
    1    1    6      0.58      0.00
    2    1    6      1.48      0.00
    3    1    6      1.28      0.00
    4    1    6     -0.09      0.00
    5    1    6     -1.56      0.00
    6    1    6     -0.92      0.00
   -9    2    6      0.33      0.00
   -8    2    6      0.26      0.00
   -7    2    6      0.11      0.00
   -6    2    6      1.87      0.00
   -5    2    6      3.49      0.00
   -4    2    6      3.35      0.00
   -3    2    6      1.67      0.00
   -2    2    6     -3.38      0.00
   -1    2    6     -2.59      0.00
    0    2    6      1.17      0.00
    1    2    6     -2.28      0.00
    2    2    6     -1.32      0.00
    3    2    6      1.31      0.00
    4    2    6      1.80      0.00
    5    2    6      1.39      0.00
    6    2    6      1.17      0.00
   -9    3    6      0.25      0.00
   -8    3    6     -0.45      0.00
   -7    3    6     -1.38      0.00
   -6    3    6     -2.37      0.00
   -5    3    6     -4.03      0.00
   -4    3    6     -2.19      0.00
   -3    3    6     -0.71      0.00
   -2    3    6      3.85      0.00
   -1    3    6      3.77      0.00
    0    3    6     -0.14      0.00
    1    3    6      2.49      0.00
    2    3    6      0.96      0.00
    3    3    6     -2.58      0.00
    4    3    6     -1.40      0.00
    5    3    6     -0.42      0.00
   -9    4    6      0.05      0.00
   -8    4    6      1.15      0.00
   -7    4    6      1.69      0.00
   -6    4    6      1.42      0.00
   -5    4    6      3.52      0.00
   -4    4    6      1.22      0.00
   -3    4    6      0.06      0.00
   -2    4    6     -4.36      0.00
   -1    4    6     -4.28      0.00
    0    4    6      1.03      0.00
    1    4    6     -1.35      0.00
    2    4    6     -1.92      0.00
    3    4    6      1.07      0.00
    4    4    6      0.40      0.00
    5    4    6     -0.06      0.00
   -9    5    6     -0.80      0.00
   -8    5    6     -1.50      0.00
   -7    5    6     -1.06      0.00
   -6    5    6     -0.35      0.00
   -5    5    6     -2.83      0.00
   -4    5    6     -1.34      0.00
   -3    5    6     -0.26      0.00
   -2    5    6      3.74      0.00
   -1    5    6      2.79      0.00
    0    5    6     -2.79      0.00
    1    5    6      0.71      0.00
    2    5    6      3.29      0.00
    3    5    6      0.47      0.00
    4    5    6     -1.07      0.00
    5    5    6     -0.34      0.00
   -9    6    6      1.29      0.00
   -8    6    6      1.55      0.00
   -7    6    6      0.94      0.00
   -6    6    6      0.62      0.00
   -5    6    6      2.42      0.00
   -4    6    6      2.26      0.00
   -3    6    6      1.03      0.00
   -2    6    6     -2.23      0.00
   -1    6    6     -0.82      0.00
    0    6    6      3.23      0.00
    1    6    6     -0.34      0.00
    2    6    6     -2.59      0.00
    3    6    6     -0.28      0.00
    4    6    6      2.43      0.00
   -9    7    6     -1.29      0.00
   -8    7    6     -1.53      0.00
   -7    7    6     -1.54      0.00
   -6    7    6     -1.30      0.00
   -5    7    6     -1.55      0.00
   -4    7    6     -2.86      0.00
   -3    7    6     -1.40      0.00
   -2    7    6      1.41      0.00
   -1    7    6      0.01      0.00
    0    7    6     -2.53      0.00
    1    7    6     -0.59      0.00
    2    7    6      0.64      0.00
    3    7    6     -0.08      0.00
    4    7    6     -2.58      0.00
   -8    8    6      1.20      0.00
   -7    8    6      1.58      0.00
   -6    8    6      0.99      0.00
   -5    8    6      0.40      0.00
   -4    8    6      2.54      0.00
   -3    8    6      0.66      0.00
   -2    8    6     -1.87      0.00
   -1    8    6     -0.15      0.00
    0    8    6      1.51      0.00
    1    8    6      0.86      0.00
    2    8    6      0.17      0.00
    3    8    6     -0.10      0.00
   -8    9    6     -0.56      0.00
   -7    9    6     -0.76      0.00
   -6    9    6     -0.32      0.00
   -5    9    6      0.16      0.00
   -4    9    6     -1.08      0.00
   -3    9    6      0.71      0.00
   -2    9    6      2.52      0.00
   -1    9    6      0.57      0.00
    0    9    6     -0.27      0.00
    1    9    6     -0.05      0.00
    2    9    6     -0.08      0.00
   -7   10    6      0.06      0.00
   -6   10    6      0.16      0.00
   -5   10    6     -0.45      0.00
   -4   10    6     -0.83      0.00
   -3   10    6     -1.08      0.00
   -2   10    6     -2.26      0.00
   -1   10    6     -0.95      0.00
    0   10    6     -0.46      0.00
    1   10    6     -0.42      0.00
   -6   11    6     -0.03      0.00
   -5   11    6      0.79      0.00
   -4   11    6      1.43      0.00
   -3   11    6     -0.14      0.00
   -2   11    6      1.38      0.00
   -1   11    6      0.94      0.00
    0  -12    7      0.90      0.00
    1  -12    7     -0.35      0.00
    2  -12    7      0.68      0.00
    3  -12    7      1.67      0.00
    4  -12    7      1.69      0.00
   -1  -11    7     -0.48      0.00
    0  -11    7     -0.34      0.00
    1  -11    7      1.02      0.00
    2  -11    7      0.16      0.00
    3  -11    7     -1.45      0.00
    4  -11    7     -1.00      0.00
    5  -11    7      0.10      0.00
   -3  -10    7      2.06      0.00
   -2  -10    7      2.45      0.00
   -1  -10    7     -0.23      0.00
    0  -10    7     -0.73      0.00
    1  -10    7     -0.93      0.00
    2  -10    7     -0.37      0.00
    3  -10    7      0.90      0.00
    4  -10    7      0.31      0.00
    5  -10    7      0.38      0.00
    6  -10    7      1.84      0.00
   -4   -9    7     -0.18      0.00
   -3   -9    7     -3.23      0.00
   -2   -9    7     -1.63      0.00
   -1   -9    7      1.49      0.00
    0   -9    7      1.11      0.00
    1   -9    7      0.08      0.00
    2   -9    7     -0.14      0.00
    3   -9    7     -1.15      0.00
    4   -9    7     -0.35      0.00
    5   -9    7     -0.73      0.00
    6   -9    7     -0.50      0.00
   -5   -8    7     -0.54      0.00
   -4   -8    7      0.12      0.00
   -3   -8    7      3.16      0.00
   -2   -8    7      0.10      0.00
   -1   -8    7     -2.46      0.00
    0   -8    7     -1.29      0.00
    1   -8    7     -0.12      0.00
    2   -8    7      0.80      0.00
    3   -8    7      1.91      0.00
    4   -8    7     -0.97      0.00
    5   -8    7     -0.86      0.00
    6   -8    7     -1.17      0.00
    7   -8    7     -0.62      0.00
   -5   -7    7      0.88      0.00
   -3   -7    7     -2.17      0.00
   -2   -7    7      0.74      0.00
   -1   -7    7      3.27      0.00
    0   -7    7      2.22      0.00
    1   -7    7      1.38      0.00
    2   -7    7     -0.69      0.00
    3   -7    7     -1.63      0.00
    4   -7    7      4.07      0.00
    5   -7    7      2.47      0.00
    6   -7    7      0.97      0.00
    7   -7    7     -0.27      0.00
   -6   -6    7     -2.29      0.00
   -5   -6    7     -0.54      0.00
   -4   -6    7      0.02      0.00
   -3   -6    7      1.59      0.00
   -2   -6    7     -0.44      0.00
   -1   -6    7     -4.25      0.00
    0   -6    7     -3.30      0.00
    1   -6    7     -3.06      0.00
    2   -6    7     -0.91      0.00
    3   -6    7      1.15      0.00
    4   -6    7     -5.62      0.00
    5   -6    7     -2.19      0.00
    6   -6    7     -0.28      0.00
    7   -6    7     -0.26      0.00
   -7   -5    7      1.27      0.00
   -6   -5    7      1.32      0.00
   -5   -5    7     -0.26      0.00
   -4   -5    7     -1.01      0.00
   -3   -5    7     -1.83      0.00
   -2   -5    7      0.05      0.00
   -1   -5    7      5.53      0.00
    0   -5    7      3.95      0.00
    1   -5    7      4.53      0.00
    2   -5    7      2.48      0.00
    3   -5    7     -3.22      0.00
    4   -5    7      3.97      0.00
    5   -5    7      1.55      0.00
    6   -5    7      0.90      0.00
    7   -5    7      1.48      0.00
   -7   -4    7     -0.45      0.00
   -6   -4    7     -0.47      0.00
   -5   -4    7      0.49      0.00
   -4   -4    7      2.39      0.00
   -3   -4    7      2.26      0.00
   -2   -4    7     -0.98      0.00
   -1   -4    7     -7.12      0.00
    0   -4    7     -4.02      0.00
    1   -4    7     -4.43      0.00
    2   -4    7     -1.70      0.00
    3   -4    7      6.92      0.00
    4   -4    7     -1.75      0.00
    5   -4    7     -1.60      0.00
    6   -4    7     -1.32      0.00
    7   -4    7     -1.25      0.00
   -7   -3    7      0.01      0.00
   -6   -3    7      0.96      0.00
   -5   -3    7     -0.35      0.00
   -4   -3    7     -3.90      0.00
   -3   -3    7     -2.36      0.00
   -2   -3    7      3.14      0.00
   -1   -3    7      7.98      0.00
    0   -3    7      2.75      0.00
    1   -3    7      2.35      0.00
    2   -3    7     -0.12      0.00
    3   -3    7     -7.86      0.00
    4   -3    7      0.98      0.00
    5   -3    7      1.01      0.00
    6   -3    7      0.33      0.00
    7   -3    7      0.14      0.00
   -8   -2    7      0.13      0.00
   -7   -2    7     -0.21      0.00
   -6   -2    7     -1.46      0.00
   -5   -2    7      0.80      0.00
   -4   -2    7      5.11      0.00
   -3   -2    7      2.41      0.00
   -2   -2    7     -4.65      0.00
   -1   -2    7     -6.96      0.00
    0   -2    7     -0.65      0.00
    1   -2    7     -0.69      0.00
    2   -2    7      0.10      0.00
    3   -2    7      4.71      0.00
    4   -2    7     -0.82      0.00
    5   -2    7      0.34      0.00
    6   -2    7      0.36      0.00
    7   -2    7     -0.01      0.00
   -8   -1    7     -0.72      0.00
   -7   -1    7     -0.07      0.00
   -6   -1    7      0.78      0.00
   -5   -1    7     -1.34      0.00
   -4   -1    7     -5.43      0.00
   -3   -1    7     -2.98      0.00
   -2   -1    7      4.42      0.00
   -1   -1    7      5.03      0.00
    0   -1    7     -0.60      0.00
    1   -1    7      0.94      0.00
    2   -1    7      1.15      0.00
    3   -1    7     -0.64      0.00
    4   -1    7      0.44      0.00
    5   -1    7     -0.86      0.00
    6   -1    7      0.26      0.00
    7   -1    7      0.57      0.00
   -8    0    7      1.55      0.00
   -7    0    7      0.72      0.00
   -6    0    7      0.17      0.00
   -5    0    7      1.21      0.00
   -4    0    7      5.16      0.00
   -3    0    7      3.92      0.00
   -2    0    7     -3.45      0.00
   -1    0    7     -3.80      0.00
    0    0    7      0.93      0.00
    1    0    7     -1.81      0.00
    2    0    7     -1.53      0.00
    3    0    7     -1.48      0.00
    4    0    7      0.07      0.00
    5    0    7      0.54      0.00
    6    0    7     -0.55      0.00
    7    0    7     -0.29      0.00
   -9    1    7     -1.07      0.00
   -8    1    7     -1.40      0.00
   -7    1    7     -0.88      0.00
   -6    1    7     -0.73      0.00
   -5    1    7     -1.34      0.00
   -4    1    7     -4.93      0.00
   -3    1    7     -4.13      0.00
   -2    1    7      2.97      0.00
   -1    1    7      3.40      0.00
    0    1    7     -1.02      0.00
    1    1    7      2.55      0.00
    2    1    7      0.84      0.00
    3    1    7      0.93      0.00
    4    1    7     -0.78      0.00
    5    1    7     -0.53      0.00
    6    1    7     -0.45      0.00
   -9    2    7      1.18      0.00
   -8    2    7      0.20      0.00
   -7    2    7      0.82      0.00
   -6    2    7      1.26      0.00
   -5    2    7      2.31      0.00
   -4    2    7      4.23      0.00
   -3    2    7      3.08      0.00
   -2    2    7     -2.81      0.00
   -1    2    7     -3.49      0.00
    0    2    7      0.56      0.00
    1    2    7     -3.00      0.00
    2    2    7      0.39      0.00
    3    2    7      1.09      0.00
    4    2    7      1.11      0.00
    5    2    7      0.60      0.00
    6    2    7      1.37      0.00
   -9    3    7     -0.67      0.00
   -8    3    7      0.68      0.00
   -7    3    7     -0.75      0.00
   -6    3    7     -1.29      0.00
   -5    3    7     -2.97      0.00
   -4    3    7     -2.82      0.00
   -3    3    7     -2.01      0.00
   -2    3    7      2.31      0.00
   -1    3    7      3.76      0.00
    0    3    7     -0.17      0.00
    1    3    7      2.21      0.00
    2    3    7     -1.20      0.00
    3    3    7     -1.95      0.00
    4    3    7     -0.31      0.00
    5    3    7     -0.14      0.00
   -9    4    7      0.52      0.00
   -8    4    7     -0.79      0.00
   -7    4    7      0.01      0.00
   -6    4    7      0.43      0.00
   -5    4    7      2.89      0.00
   -4    4    7      2.08      0.00
   -3    4    7      2.12      0.00
   -2    4    7     -1.42      0.00
   -1    4    7     -3.28      0.00
    0    4    7      0.88      0.00
    1    4    7     -0.65      0.00
    2    4    7      0.30      0.00
    3    4    7      0.68      0.00
    4    4    7     -0.52      0.00
   -9    5    7     -0.61      0.00
   -8    5    7      0.63      0.00
   -7    5    7      0.89      0.00
   -6    5    7     -0.08      0.00
   -5    5    7     -2.82      0.00
   -4    5    7     -2.57      0.00
   -3    5    7     -2.73      0.00
   -2    5    7      0.56      0.00
   -1    5    7      1.89      0.00
    0    5    7     -1.74      0.00
    1    5    7     -0.23      0.00
    2    5    7      1.31      0.00
    3    5    7      0.66      0.00
    4    5    7      0.02      0.00
   -9    6    7      0.59      0.00
   -8    6    7     -0.09      0.00
   -7    6    7     -0.57      0.00
   -6    6    7      1.02      0.00
   -5    6    7      2.27      0.00
   -4    6    7      3.08      0.00
   -3    6    7      2.68      0.00
   -2    6    7     -0.26      0.00
   -1    6    7     -0.79      0.00
    0    6    7      1.68      0.00
    1    6    7      0.80      0.00
    2    6    7     -1.47      0.00
    3    6    7     -0.83      0.00
    4    6    7      1.05      0.00
   -8    7    7     -0.76      0.00
   -7    7    7     -0.57      0.00
   -6    7    7     -1.68      0.00
   -5    7    7     -0.59      0.00
   -4    7    7     -2.99      0.00
   -3    7    7     -1.79      0.00
   -2    7    7      0.90      0.00
   -1    7    7      0.46      0.00
    0    7    7     -1.48      0.00
    1    7    7     -1.62      0.00
    2    7    7      0.64      0.00
    3    7    7      0.66      0.00
   -8    8    7      1.18      0.00
   -7    8    7      0.91      0.00
   -6    8    7      1.14      0.00
   -5    8    7     -0.93      0.00
   -4    8    7      2.43      0.00
   -3    8    7      0.23      0.00
   -2    8    7     -1.95      0.00
   -1    8    7     -0.12      0.00
    0    8    7      1.46      0.00
    1    8    7      1.52      0.00
    2    8    7     -0.30      0.00
   -8    9    7     -0.89      0.00
   -7    9    7     -0.33      0.00
   -6    9    7     -0.57      0.00
   -5    9    7      1.24      0.00
   -4    9    7     -1.06      0.00
   -3    9    7      1.13      0.00
   -2    9    7      2.13      0.00
   -1    9    7     -0.31      0.00
    0    9    7     -0.82      0.00
    1    9    7     -0.35      0.00
   -7   10    7     -0.10      0.00
   -6   10    7      0.60      0.00
   -5   10    7     -1.08      0.00
   -4   10    7     -0.51      0.00
   -3   10    7     -0.87      0.00
   -2   10    7     -1.28      0.00
   -1   10    7      0.16      0.00
    0   10    7     -0.09      0.00
   -6   11    7     -0.56      0.00
   -5   11    7      0.87      0.00
   -4   11    7      0.80      0.00
   -3   11    7     -0.61      0.00
   -2   11    7      0.59      0.00
    1  -12    8     -0.16      0.00
    2  -12    8      0.17      0.00
    3  -12    8      0.94      0.00
   -1  -11    8      0.43      0.00
    0  -11    8      0.09      0.00
    1  -11    8      0.69      0.00
    2  -11    8      0.81      0.00
    3  -11    8     -0.46      0.00
    4  -11    8     -0.24      0.00
    5  -11    8      0.57      0.00
   -2  -10    8      2.05      0.00
   -1  -10    8     -0.64      0.00
    0  -10    8     -0.75      0.00
    1  -10    8     -0.58      0.00
    2  -10    8     -0.99      0.00
    3  -10    8      0.13      0.00
    4  -10    8      0.11      0.00
    5  -10    8      0.25      0.00
    6  -10    8      1.13      0.00
   -3   -9    8     -3.58      0.00
   -2   -9    8     -1.46      0.00
   -1   -9    8      1.20      0.00
    0   -9    8      0.90      0.00
    1   -9    8     -0.14      0.00
    2   -9    8      0.47      0.00
    3   -9    8     -0.37      0.00
    4   -9    8      0.01      0.00
    5   -9    8     -0.53      0.00
    6   -9    8      0.10      0.00
   -4   -8    8      0.79      0.00
   -3   -8    8      3.41      0.00
   -2   -8    8      0.03      0.00
   -1   -8    8     -1.75      0.00
    0   -8    8     -1.17      0.00
    1   -8    8     -0.05      0.00
    2   -8    8      0.02      0.00
    3   -8    8      0.63      0.00
    4   -8    8     -1.89      0.00
    5   -8    8     -1.08      0.00
    6   -8    8     -1.54      0.00
   -5   -7    8      0.78      0.00
   -4   -7    8     -0.18      0.00
   -3   -7    8     -2.25      0.00
   -2   -7    8      0.67      0.00
   -1   -7    8      2.51      0.00
    0   -7    8      2.10      0.00
    1   -7    8      1.29      0.00
    2   -7    8      0.04      0.00
    3   -7    8     -0.24      0.00
    4   -7    8      5.09      0.00
    5   -7    8      2.66      0.00
    6   -7    8      1.31      0.00
    7   -7    8     -0.71      0.00
   -6   -6    8     -1.92      0.00
   -5   -6    8     -0.94      0.00
   -4   -6    8      0.34      0.00
   -3   -6    8      1.72      0.00
   -2   -6    8     -0.05      0.00
   -1   -6    8     -3.47      0.00
    0   -6    8     -2.75      0.00
    1   -6    8     -2.79      0.00
    2   -6    8     -0.96      0.00
    3   -6    8      0.37      0.00
    4   -6    8     -6.33      0.00
    5   -6    8     -2.43      0.00
    6   -6    8     -0.42      0.00
    7   -6    8      0.82      0.00
   -6   -5    8      1.24      0.00
   -5   -5    8      0.13      0.00
   -4   -5    8     -1.37      0.00
   -3   -5    8     -1.85      0.00
   -2   -5    8     -0.90      0.00
   -1   -5    8      4.40      0.00
    0   -5    8      2.87      0.00
    1   -5    8      4.35      0.00
    2   -5    8      1.56      0.00
    3   -5    8     -3.02      0.00
    4   -5    8      4.36      0.00
    5   -5    8      1.54      0.00
    6   -5    8      0.45      0.00
    7   -5    8     -0.06      0.00
   -7   -4    8     -0.25      0.00
   -6   -4    8     -0.72      0.00
   -5   -4    8      0.15      0.00
   -4   -4    8      1.93      0.00
   -3   -4    8      1.98      0.00
   -2   -4    8      0.97      0.00
   -1   -4    8     -5.47      0.00
    0   -4    8     -3.03      0.00
    1   -4    8     -4.99      0.00
    2   -4    8     -0.35      0.00
    3   -4    8      6.66      0.00
    4   -4    8     -1.72      0.00
    5   -4    8     -1.03      0.00
    6   -4    8     -0.61      0.00
    7   -4    8     -0.13      0.00
   -7   -3    8      0.49      0.00
   -6   -3    8      1.52      0.00
   -5   -3    8      0.51      0.00
   -4   -3    8     -2.17      0.00
   -3   -3    8     -2.43      0.00
   -2   -3    8      0.01      0.00
   -1   -3    8      6.28      0.00
    0   -3    8      2.76      0.00
    1   -3    8      4.05      0.00
    2   -3    8     -1.12      0.00
    3   -3    8     -7.13      0.00
    4   -3    8      0.40      0.00
    5   -3    8      0.21      0.00
    6   -3    8      0.23      0.00
    7   -3    8     -0.04      0.00
   -8   -2    8     -0.48      0.00
   -7   -2    8     -0.86      0.00
   -6   -2    8     -2.06      0.00
   -5   -2    8     -0.64      0.00
   -4   -2    8      2.94      0.00
   -3   -2    8      3.47      0.00
   -2   -2    8     -1.16      0.00
   -1   -2    8     -6.01      0.00
    0   -2    8     -1.90      0.00
    1   -2    8     -3.08      0.00
    2   -2    8      0.51      0.00
    3   -2    8      3.72      0.00
    4   -2    8      0.17      0.00
    5   -2    8      0.73      0.00
    6   -2    8     -0.47      0.00
    7   -2    8     -0.40      0.00
   -8   -1    8     -0.30      0.00
   -7   -1    8     -0.17      0.00
   -6   -1    8      0.93      0.00
   -5   -1    8      0.28      0.00
   -4   -1    8     -3.66      0.00
   -3   -1    8     -4.74      0.00
   -2   -1    8      1.60      0.00
   -1   -1    8      4.98      0.00
    0   -1    8      1.14      0.00
    1   -1    8      2.96      0.00
    2   -1    8      0.97      0.00
    3   -1    8      0.19      0.00
    4   -1    8     -0.57      0.00
    5   -1    8     -0.60      0.00
    6   -1    8      1.43      0.00
    7   -1    8      0.81      0.00
   -8    0    8      1.65      0.00
   -7    0    8      1.85      0.00
   -6    0    8      0.34      0.00
   -5    0    8     -0.60      0.00
   -4    0    8      3.96      0.00
   -3    0    8      5.77      0.00
   -2    0    8     -1.55      0.00
   -1    0    8     -4.13      0.00
    0    0    8     -0.28      0.00
    1    0    8     -2.61      0.00
    2    0    8     -1.07      0.00
    3    0    8     -2.08      0.00
    4    0    8      0.54      0.00
    5    0    8     -0.13      0.00
    6    0    8     -1.32      0.00
   -8    1    8     -1.58      0.00
   -7    1    8     -2.20      0.00
   -6    1    8     -0.46      0.00
   -5    1    8      0.86      0.00
   -4    1    8     -4.21      0.00
   -3    1    8     -5.76      0.00
   -2    1    8      1.58      0.00
   -1    1    8      3.52      0.00
    0    1    8     -0.83      0.00
    1    1    8      1.96      0.00
    2    1    8      0.04      0.00
    3    1    8      1.84      0.00
    4    1    8     -0.31      0.00
    5    1    8      0.09      0.00
    6    1    8     -0.20      0.00
   -9    2    8      1.35      0.00
   -8    2    8     -0.31      0.00
   -7    2    8      1.21      0.00
   -6    2    8      0.16      0.00
   -5    2    8     -0.10      0.00
   -4    2    8      3.83      0.00
   -3    2    8      4.54      0.00
   -2    2    8     -1.21      0.00
   -1    2    8     -2.84      0.00
    0    2    8      1.26      0.00
    1    2    8     -1.64      0.00
    2    2    8      1.09      0.00
    3    2    8     -0.51      0.00
    4    2    8      0.07      0.00
    5    2    8      0.42      0.00
   -9    3    8     -0.59      0.00
   -8    3    8      2.21      0.00
   -7    3    8      0.20      0.00
   -6    3    8      0.23      0.00
   -5    3    8     -0.86      0.00
   -4    3    8     -2.78      0.00
   -3    3    8     -3.68      0.00
   -2    3    8     -0.10      0.00
   -1    3    8      2.23      0.00
    0    3    8     -0.84      0.00
    1    3    8      1.08      0.00
    2    3    8     -1.68      0.00
    3    3    8     -0.36      0.00
    4    3    8      0.46      0.00
    5    3    8     -0.25      0.00
   -9    4    8      0.11      0.00
   -8    4    8     -2.98      0.00
   -7    4    8     -1.73      0.00
   -6    4    8     -0.60      0.00
   -5    4    8      1.62      0.00
   -4    4    8      2.37      0.00
   -3    4    8      3.89      0.00
   -2    4    8      1.32      0.00
   -1    4    8     -1.71      0.00
    0    4    8      0.48      0.00
    1    4    8     -0.01      0.00
    2    4    8      1.16      0.00
    3    4    8     -0.03      0.00
    4    4    8     -1.05      0.00
   -9    5    8     -0.04      0.00
   -8    5    8      2.68      0.00
   -7    5    8      2.53      0.00
   -6    5    8     -0.02      0.00
   -5    5    8     -2.05      0.00
   -4    5    8     -2.40      0.00
   -3    5    8     -3.56      0.00
   -2    5    8     -1.32      0.00
   -1    5    8      1.13      0.00
    0    5    8     -0.35      0.00
    1    5    8     -0.95      0.00
    2    5    8     -0.07      0.00
    3    5    8      0.91      0.00
    4    5    8      1.05      0.00
   -8    6    8     -1.47      0.00
   -7    6    8     -1.75      0.00
   -6    6    8      1.34      0.00
   -5    6    8      1.00      0.00
   -4    6    8      1.85      0.00
   -3    6    8      2.18      0.00
   -2    6    8      0.52      0.00
   -1    6    8     -0.58      0.00
    0    6    8      0.39      0.00
    1    6    8      1.77      0.00
    2    6    8     -0.51      0.00
    3    6    8     -1.44      0.00
   -8    7    8     -0.03      0.00
   -7    7    8      0.35      0.00
   -6    7    8     -1.71      0.00
   -5    7    8      1.21      0.00
   -4    7    8     -1.54      0.00
   -3    7    8     -0.92      0.00
   -2    7    8      0.38      0.00
   -1    7    8      0.05      0.00
    0    7    8     -1.00      0.00
    1    7    8     -2.37      0.00
    2    7    8      0.58      0.00
    3    7    8      1.34      0.00
   -7    8    8      0.22      0.00
   -6    8    8      1.07      0.00
   -5    8    8     -2.32      0.00
   -4    8    8      1.92      0.00
   -3    8    8     -0.03      0.00
   -2    8    8     -0.98      0.00
   -1    8    8      0.77      0.00
    0    8    8      1.72      0.00
    1    8    8      1.91      0.00
    2    8    8     -0.54      0.00
   -7    9    8      0.02      0.00
   -6    9    8     -0.71      0.00
   -5    9    8      1.86      0.00
   -4    9    8     -1.61      0.00
   -3    9    8      0.60      0.00
   -2    9    8      0.70      0.00
   -1    9    8     -1.38      0.00
    0    9    8     -1.35      0.00
    1    9    8     -0.61      0.00
   -6   10    8      0.84      0.00
   -5   10    8     -1.17      0.00
   -4   10    8      0.55      0.00
   -3   10    8     -0.03      0.00
   -2   10    8     -0.02      0.00
   -1   10    8      0.90      0.00
   -1  -11    9      1.50      0.00
    0  -11    9      0.41      0.00
    1  -11    9     -0.12      0.00
    2  -11    9      0.85      0.00
    3  -11    9      0.38      0.00
    4  -11    9      0.22      0.00
   -2  -10    9      1.16      0.00
   -1  -10    9     -0.84      0.00
    0  -10    9     -0.26      0.00
    1  -10    9      0.46      0.00
    2  -10    9     -0.86      0.00
    3  -10    9     -0.30      0.00
    4  -10    9      0.15      0.00
    5  -10    9      0.14      0.00
   -3   -9    9     -2.83      0.00
   -2   -9    9     -1.41      0.00
   -1   -9    9      0.15      0.00
    0   -9    9     -0.01      0.00
    1   -9    9     -0.92      0.00
    2   -9    9      0.46      0.00
    3   -9    9      0.11      0.00
    4   -9    9      0.08      0.00
    5   -9    9     -0.52      0.00
   -4   -8    9      0.33      0.00
   -3   -8    9      2.86      0.00
   -2   -8    9      0.85      0.00
   -1   -8    9      0.04      0.00
    0   -8    9     -0.34      0.00
    1   -8    9      0.40      0.00
    2   -8    9     -0.36      0.00
    3   -8    9     -0.34      0.00
    4   -8    9     -1.95      0.00
    5   -8    9     -0.44      0.00
    6   -8    9     -1.63      0.00
   -5   -7    9      0.84      0.00
   -4   -7    9      0.28      0.00
   -3   -7    9     -2.05      0.00
   -2   -7    9     -0.65      0.00
   -1   -7    9      0.66      0.00
    0   -7    9      1.26      0.00
    1   -7    9      0.73      0.00
    2   -7    9      0.49      0.00
    3   -7    9      0.81      0.00
    4   -7    9      4.47      0.00
    5   -7    9      1.45      0.00
    6   -7    9      1.47      0.00
   -6   -6    9     -1.07      0.00
   -5   -6    9     -1.37      0.00
   -4   -6    9      0.20      0.00
   -3   -6    9      1.88      0.00
   -2   -6    9      1.28      0.00
   -1   -6    9     -1.86      0.00
    0   -6    9     -1.42      0.00
    1   -6    9     -1.69      0.00
    2   -6    9     -0.80      0.00
    3   -6    9     -0.41      0.00
    4   -6    9     -5.30      0.00
    5   -6    9     -1.32      0.00
    6   -6    9     -0.60      0.00
   -6   -5    9      0.75      0.00
   -5   -5    9      0.58      0.00
   -4   -5    9     -1.51      0.00
   -3   -5    9     -1.86      0.00
   -2   -5    9     -2.02      0.00
   -1   -5    9      2.83      0.00
    0   -5    9      0.91      0.00
    1   -5    9      2.88      0.00
    2   -5    9      0.84      0.00
    3   -5    9     -1.74      0.00
    4   -5    9      3.76      0.00
    5   -5    9      0.55      0.00
    6   -5    9      0.07      0.00
    7   -5    9     -0.98      0.00
   -7   -4    9      0.23      0.00
   -6   -4    9     -0.76      0.00
   -5   -4    9     -0.13      0.00
   -4   -4    9      1.57      0.00
   -3   -4    9      1.48      0.00
   -2   -4    9      2.42      0.00
   -1   -4    9     -3.60      0.00
    0   -4    9     -1.05      0.00
    1   -4    9     -4.07      0.00
    2   -4    9      0.01      0.00
    3   -4    9      4.18      0.00
    4   -4    9     -1.59      0.00
    5   -4    9      0.18      0.00
    6   -4    9      0.03      0.00
    7   -4    9      0.47      0.00
   -7   -3    9      0.57      0.00
   -6   -3    9      1.88      0.00
   -5   -3    9      0.91      0.00
   -4   -3    9     -0.84      0.00
   -3   -3    9     -2.02      0.00
   -2   -3    9     -2.38      0.00
   -1   -3    9      4.39      0.00
    0   -3    9      1.83      0.00
    1   -3    9      4.33      0.00
    2   -3    9     -0.73      0.00
    3   -3    9     -4.05      0.00
    4   -3    9      0.29      0.00
    5   -3    9     -0.83      0.00
    6   -3    9      0.17      0.00
   -8   -2    9     -0.79      0.00
   -7   -2    9     -1.06      0.00
   -6   -2    9     -2.47      0.00
   -5   -2    9     -1.31      0.00
   -4   -2    9      1.12      0.00
   -3   -2    9      3.76      0.00
   -2   -2    9      1.75      0.00
   -1   -2    9     -4.73      0.00
    0   -2    9     -2.25      0.00
    1   -2    9     -3.87      0.00
    2   -2    9      0.00      0.00
    3   -2    9      1.16      0.00
    4   -2    9      0.31      0.00
    5   -2    9      1.11      0.00
    6   -2    9     -0.91      0.00
   -8   -1    9     -0.29      0.00
   -7   -1    9     -0.18      0.00
   -6   -1    9      1.22      0.00
   -5   -1    9      1.11      0.00
   -4   -1    9     -1.91      0.00
   -3   -1    9     -5.41      0.00
   -2   -1    9     -0.95      0.00
   -1   -1    9      4.24      0.00
    0   -1    9      1.75      0.00
    1   -1    9      2.95      0.00
    2   -1    9      1.01      0.00
    3   -1    9      1.75      0.00
    4   -1    9     -0.67      0.00
    5   -1    9     -0.67      0.00
    6   -1    9      1.58      0.00
   -8    0    9      1.68      0.00
   -7    0    9      2.05      0.00
   -6    0    9      0.12      0.00
   -5    0    9     -1.72      0.00
   -4    0    9      2.30      0.00
   -3    0    9      6.33      0.00
   -2    0    9      0.45      0.00
   -1    0    9     -3.25      0.00
    0    0    9     -0.21      0.00
    1    0    9     -1.36      0.00
    2    0    9     -0.77      0.00
    3    0    9     -2.84      0.00
    4    0    9      0.64      0.00
    5    0    9      0.12      0.00
    6    0    9     -1.09      0.00
   -8    1    9     -1.29      0.00
   -7    1    9     -2.43      0.00
   -6    1    9     -0.03      0.00
   -5    1    9      2.57      0.00
   -4    1    9     -2.56      0.00
   -3    1    9     -6.24      0.00
   -2    1    9     -0.24      0.00
   -1    1    9      2.19      0.00
    0    1    9     -1.58      0.00
    1    1    9      0.00      0.00
    2    1    9     -0.19      0.00
    3    1    9      2.51      0.00
    4    1    9     -0.25      0.00
    5    1    9     -0.27      0.00
   -8    2    9     -0.87      0.00
   -7    2    9      1.22      0.00
   -6    2    9     -0.79      0.00
   -5    2    9     -2.41      0.00
   -4    2    9      2.47      0.00
   -3    2    9      5.34      0.00
   -2    2    9      0.65      0.00
   -1    2    9     -1.28      0.00
    0    2    9      2.13      0.00
    1    2    9      0.14      0.00
    2    2    9      0.82      0.00
    3    2    9     -1.61      0.00
    4    2    9     -0.14      0.00
    5    2    9      0.73      0.00
   -8    3    9      2.93      0.00
   -7    3    9      0.67      0.00
   -6    3    9      1.50      0.00
   -5    3    9      1.39      0.00
   -4    3    9     -2.14      0.00
   -3    3    9     -4.85      0.00
   -2    3    9     -1.72      0.00
   -1    3    9      0.91      0.00
    0    3    9     -1.14      0.00
    1    3    9      0.16      0.00
    2    3    9     -1.11      0.00
    3    3    9      0.70      0.00
    4    3    9      0.44      0.00
   -8    4    9     -3.76      0.00
   -7    4    9     -2.45      0.00
   -6    4    9     -1.48      0.00
   -5    4    9      0.02      0.00
   -4    4    9      2.10      0.00
   -3    4    9      4.58      0.00
   -2    4    9      2.05      0.00
   -1    4    9     -1.04      0.00
    0    4    9     -0.07      0.00
    1    4    9      0.22      0.00
    2    4    9      1.14      0.00
    3    4    9     -0.37      0.00
    4    4    9     -0.91      0.00
   -8    5    9      3.29      0.00
   -7    5    9      3.10      0.00
   -6    5    9      0.30      0.00
   -5    5    9     -0.71      0.00
   -4    5    9     -1.52      0.00
   -3    5    9     -3.02      0.00
   -2    5    9     -1.14      0.00
   -1    5    9      0.85      0.00
    0    5    9      0.51      0.00
    1    5    9     -1.10      0.00
    2    5    9     -0.73      0.00
    3    5    9      0.85      0.00
   -8    6    9     -1.90      0.00
   -7    6    9     -2.28      0.00
   -6    6    9      0.98      0.00
   -5    6    9     -0.55      0.00
   -4    6    9      0.41      0.00
   -3    6    9      1.07      0.00
   -2    6    9      0.40      0.00
   -1    6    9     -0.06      0.00
    0    6    9     -0.18      0.00
    1    6    9      1.88      0.00
    2    6    9      0.07      0.00
    3    6    9     -1.42      0.00
   -8    7    9      0.50      0.00
   -7    7    9      1.01      0.00
   -6    7    9     -1.20      0.00
   -5    7    9      2.33      0.00
   -3    7    9     -0.49      0.00
   -2    7    9     -0.34      0.00
   -1    7    9     -0.83      0.00
    0    7    9     -0.73      0.00
    1    7    9     -2.17      0.00
    2    7    9      0.35      0.00
   -7    8    9     -0.28      0.00
   -4    8    9      2.47      0.00
   -3    8    9      0.54      0.00
   -2    8    9      0.38      0.00
   -1    8    9      1.58      0.00
    0    8    9      1.57      0.00
    1    8    9      1.69      0.00
   -7    9    9      0.19      0.00
   -6    9    9     -0.71      0.00
   -5    9    9      1.40      0.00
   -4    9    9     -2.86      0.00
   -3    9    9     -0.43      0.00
   -2    9    9     -0.59      0.00
   -1    9    9     -1.74      0.00
    0    9    9     -1.33      0.00
   -6   10    9      0.62      0.00
   -5   10    9     -0.79      0.00
   -4   10    9      1.79      0.00
   -3   10    9      0.74      0.00
   -2   10    9      0.63      0.00
    0  -11   10      0.04      0.00
    1  -11   10     -1.03      0.00
    2  -11   10      0.55      0.00
    3  -11   10      0.63      0.00
   -2  -10   10      0.80      0.00
   -1  -10   10     -0.37      0.00
    0  -10   10      0.66      0.00
    1  -10   10      1.48      0.00
    2  -10   10     -0.44      0.00
    3  -10   10     -0.24      0.00
    4  -10   10      0.61      0.00
    5  -10   10      0.22      0.00
   -3   -9   10     -2.07      0.00
   -2   -9   10     -1.88      0.00
   -1   -9   10     -1.15      0.00
    0   -9   10     -0.99      0.00
    1   -9   10     -1.47      0.00
    2   -9   10      0.28      0.00
    3   -9   10      0.13      0.00
    4   -9   10     -0.19      0.00
    5   -9   10     -0.62      0.00
   -4   -8   10     -0.26      0.00
   -3   -8   10      2.32      0.00
   -2   -8   10      2.17      0.00
   -1   -8   10      1.73      0.00
    0   -8   10      0.34      0.00
    1   -8   10      0.62      0.00
    2   -8   10     -0.51      0.00
    3   -8   10     -0.64      0.00
    4   -8   10     -1.36      0.00
    5   -8   10      0.40      0.00
   -5   -7   10      0.74      0.00
   -4   -7   10      0.74      0.00
   -3   -7   10     -1.84      0.00
   -2   -7   10     -2.30      0.00
   -1   -7   10     -1.02      0.00
    0   -7   10      0.50      0.00
    1   -7   10      0.27      0.00
    2   -7   10      0.76      0.00
    3   -7   10      1.13      0.00
    4   -7   10      2.94      0.00
    5   -7   10     -0.03      0.00
    6   -7   10      1.45      0.00
   -5   -6   10     -1.45      0.00
   -4   -6   10     -0.04      0.00
   -3   -6   10      1.85      0.00
   -2   -6   10      2.67      0.00
   -1   -6   10     -0.26      0.00
    0   -6   10     -0.18      0.00
    1   -6   10     -0.71      0.00
    2   -6   10     -0.87      0.00
    3   -6   10     -0.86      0.00
    4   -6   10     -3.47      0.00
    5   -6   10     -0.02      0.00
    6   -6   10     -0.80      0.00
   -6   -5   10     -0.06      0.00
   -5   -5   10      0.80      0.00
   -4   -5   10     -1.41      0.00
   -3   -5   10     -1.59      0.00
   -2   -5   10     -2.91      0.00
   -1   -5   10      1.23      0.00
    0   -5   10     -0.83      0.00
    1   -5   10      1.52      0.00
    2   -5   10      0.91      0.00
    3   -5   10     -0.20      0.00
    4   -5   10      2.70      0.00
    5   -5   10     -0.49      0.00
    6   -5   10     -0.04      0.00
   -7   -4   10      1.04      0.00
   -6   -4   10     -0.55      0.00
   -5   -4   10     -0.21      0.00
   -4   -4   10      1.30      0.00
   -3   -4   10      0.81      0.00
   -2   -4   10      3.14      0.00
   -1   -4   10     -1.89      0.00
    0   -4   10      0.80      0.00
    1   -4   10     -2.86      0.00
    2   -4   10     -0.68      0.00
    3   -4   10      1.20      0.00
    4   -4   10     -1.28      0.00
    5   -4   10      1.26      0.00
    6   -4   10      0.28      0.00
   -7   -3   10      0.09      0.00
   -6   -3   10      1.99      0.00
   -5   -3   10      0.74      0.00
   -4   -3   10     -0.21      0.00
   -3   -3   10     -1.20      0.00
   -2   -3   10     -3.38      0.00
   -1   -3   10      2.64      0.00
    0   -3   10      0.43      0.00
    1   -3   10      3.61      0.00
    2   -3   10      0.43      0.00
    3   -3   10     -0.87      0.00
    4   -3   10      0.14      0.00
    5   -3   10     -1.68      0.00
    6   -3   10      0.24      0.00
   -7   -2   10     -0.85      0.00
   -6   -2   10     -2.76      0.00
   -5   -2   10     -1.02      0.00
   -4   -2   10      0.20      0.00
   -3   -2   10      2.95      0.00
   -2   -2   10      2.94      0.00
   -1   -2   10     -3.15      0.00
    0   -2   10     -1.38      0.00
    1   -2   10     -3.08      0.00
    2   -2   10     -0.71      0.00
    3   -2   10     -0.82      0.00
    4   -2   10      0.45      0.00
    5   -2   10      1.54      0.00
    6   -2   10     -0.89      0.00
   -8   -1   10     -0.76      0.00
   -7   -1   10      0.24      0.00
   -6   -1   10      1.82      0.00
   -5   -1   10      0.84      0.00
   -4   -1   10     -0.73      0.00
   -3   -1   10     -4.37      0.00
   -2   -1   10     -2.00      0.00
   -1   -1   10      2.68      0.00
    0   -1   10      0.93      0.00
    1   -1   10      1.49      0.00
    2   -1   10      0.97      0.00
    3   -1   10      2.20      0.00
    4   -1   10     -0.94      0.00
    5   -1   10     -1.20      0.00
    6   -1   10      0.99      0.00
   -8    0   10      1.60      0.00
   -7    0   10      0.85      0.00
   -6    0   10     -0.58      0.00
   -5    0   10     -1.58      0.00
   -4    0   10      0.73      0.00
   -3    0   10      4.90      0.00
   -2    0   10      1.35      0.00
   -1    0   10     -1.45      0.00
    0    0   10      0.68      0.00
    1    0   10      0.48      0.00
    2    0   10     -0.45      0.00
    3    0   10     -2.20      0.00
    4    0   10      1.23      0.00
    5    0   10      0.92      0.00
   -8    1   10     -0.73      0.00
   -7    1   10     -1.20      0.00
   -6    1   10      0.44      0.00
   -5    1   10      2.94      0.00
   -4    1   10     -0.57      0.00
   -3    1   10     -4.87      0.00
   -2    1   10     -1.14      0.00
   -1    1   10      0.42      0.00
    0    1   10     -2.17      0.00
    1    1   10     -1.60      0.00
    2    1   10     -0.32      0.00
    3    1   10      1.64      0.00
    4    1   10     -0.81      0.00
    5    1   10     -0.75      0.00
   -8    2   10     -1.06      0.00
   -7    2   10      0.58      0.00
   -6    2   10     -1.28      0.00
   -5    2   10     -3.57      0.00
   -4    2   10      0.64      0.00
   -3    2   10      4.72      0.00
   -2    2   10      1.32      0.00
   -1    2   10     -0.19      0.00
    0    2   10      2.23      0.00
    1    2   10      1.18      0.00
    2    2   10      0.55      0.00
    3    2   10     -1.31      0.00
    4    2   10      0.08      0.00
    5    2   10      0.69      0.00
   -8    3   10      2.47      0.00
   -7    3   10      0.86      0.00
   -6    3   10      2.22      0.00
   -5    3   10      2.84      0.00
   -4    3   10     -1.19      0.00
   -3    3   10     -4.91      0.00
   -2    3   10     -1.47      0.00
   -1    3   10      0.80      0.00
    0    3   10     -0.97      0.00
    1    3   10     -0.28      0.00
    2    3   10     -0.64      0.00
    3    3   10      0.87      0.00
    4    3   10      0.27      0.00
   -8    4   10     -3.07      0.00
   -7    4   10     -2.37      0.00
   -6    4   10     -2.13      0.00
   -5    4   10     -1.17      0.00
   -4    4   10      1.77      0.00
   -3    4   10      4.38      0.00
   -2    4   10      0.64      0.00
   -1    4   10     -1.44      0.00
    0    4   10     -0.12      0.00
    1    4   10      0.29      0.00
    2    4   10      0.99      0.00
    3    4   10     -0.40      0.00
   -8    5   10      2.65      0.00
   -7    5   10      2.79      0.00
   -6    5   10      0.93      0.00
   -5    5   10      0.35      0.00
   -4    5   10     -1.16      0.00
   -3    5   10     -2.35      0.00
   -2    5   10      0.49      0.00
   -1    5   10      0.93      0.00
    0    5   10      0.27      0.00
    1    5   10     -0.93      0.00
    2    5   10     -1.00      0.00
    3    5   10      0.53      0.00
   -8    6   10     -1.59      0.00
   -7    6   10     -2.15      0.00
   -6    6   10      0.09      0.00
   -5    6   10     -1.23      0.00
   -4    6   10      0.45      0.00
   -3    6   10      0.78      0.00
   -2    6   10     -0.35      0.00
   -1    6   10      0.41      0.00
    0    6   10     -0.01      0.00
    1    6   10      1.33      0.00
    2    6   10      0.46      0.00
   -8    7   10      0.68      0.00
   -7    7   10      1.16      0.00
   -6    7   10     -0.50      0.00
   -5    7   10      1.82      0.00
   -4    7   10     -1.83      0.00
   -3    7   10     -0.95      0.00
   -2    7   10     -0.51      0.00
   -1    7   10     -1.35      0.00
    0    7   10     -0.45      0.00
    1    7   10     -1.40      0.00
   -7    8   10     -0.30      0.00
   -6    8   10      0.76      0.00
   -3    8   10      1.19      0.00
   -2    8   10      0.87      0.00
   -1    8   10      1.67      0.00
    0    8   10      0.98      0.00
   -6    9   10     -0.61      0.00
   -5    9   10      0.23      0.00
   -4    9   10     -3.78      0.00
   -3    9   10     -0.84      0.00
   -2    9   10     -0.91      0.00
   -1    9   10     -1.40      0.00
   -1  -10   11      0.16      0.00
    0  -10   11      1.20      0.00
    1  -10   11      1.63      0.00
    2  -10   11     -0.30      0.00
    3  -10   11      0.06      0.00
    4  -10   11      1.15      0.00
   -2   -9   11     -2.21      0.00
   -1   -9   11     -1.61      0.00
    0   -9   11     -1.25      0.00
    1   -9   11     -1.29      0.00
    2   -9   11      0.19      0.00
    3   -9   11     -0.22      0.00
    4   -9   11     -0.53      0.00
   -3   -8   11      1.84      0.00
   -2   -8   11      2.79      0.00
   -1   -8   11      2.09      0.00
    0   -8   11      0.46      0.00
    1   -8   11      0.59      0.00
    2   -8   11     -0.30      0.00
    3   -8   11     -0.22      0.00
    4   -8   11     -0.62      0.00
    5   -8   11      0.90      0.00
   -4   -7   11      0.74      0.00
   -3   -7   11     -1.44      0.00
   -2   -7   11     -3.00      0.00
   -1   -7   11     -1.58      0.00
    0   -7   11      0.01      0.00
    1   -7   11     -0.12      0.00
    2   -7   11      0.60      0.00
    3   -7   11      0.60      0.00
    4   -7   11      1.36      0.00
    5   -7   11     -0.95      0.00
   -5   -6   11     -1.17      0.00
   -4   -6   11     -0.17      0.00
   -3   -6   11      1.38      0.00
   -2   -6   11      3.27      0.00
   -1   -6   11      0.75      0.00
    0   -6   11      0.60      0.00
    1   -6   11     -0.27      0.00
    2   -6   11     -0.94      0.00
    3   -6   11     -0.53      0.00
    4   -6   11     -1.60      0.00
    5   -6   11      0.76      0.00
   -6   -5   11     -0.64      0.00
   -5   -5   11      0.74      0.00
   -4   -5   11     -1.04      0.00
   -3   -5   11     -1.03      0.00
   -2   -5   11     -3.31      0.00
   -1   -5   11      0.07      0.00
    0   -5   11     -1.40      0.00
    1   -5   11      1.21      0.00
    2   -5   11      1.23      0.00
    3   -5   11      0.30      0.00
    4   -5   11      1.41      0.00
    5   -5   11     -0.99      0.00
    6   -5   11      0.09      0.00
   -6   -4   11     -0.39      0.00
   -5   -4   11     -0.09      0.00
   -4   -4   11      0.93      0.00
   -3   -4   11      0.18      0.00
   -2   -4   11      3.21      0.00
   -1   -4   11     -0.90      0.00
    0   -4   11      1.21      0.00
    1   -4   11     -2.38      0.00
    2   -4   11     -1.18      0.00
    3   -4   11     -0.13      0.00
    4   -4   11     -0.59      0.00
    5   -4   11      1.65      0.00
    6   -4   11      0.05      0.00
   -7   -3   11     -0.42      0.00
   -6   -3   11      1.89      0.00
   -5   -3   11      0.19      0.00
   -4   -3   11      0.04      0.00
   -3   -3   11     -0.28      0.00
   -2   -3   11     -3.07      0.00
   -1   -3   11      1.70      0.00
    0   -3   11     -0.24      0.00
    1   -3   11      2.66      0.00
    2   -3   11      0.72      0.00
    3   -3   11      0.18      0.00
    4   -3   11     -0.34      0.00
    5   -3   11     -1.81      0.00
    6   -3   11      0.60      0.00
   -7   -2   11     -0.55      0.00
   -6   -2   11     -2.81      0.00
   -5   -2   11     -0.22      0.00
   -4   -2   11     -0.22      0.00
   -3   -2   11      1.41      0.00
   -2   -2   11      2.42      0.00
   -1   -2   11     -1.95      0.00
    0   -2   11     -0.34      0.00
    1   -2   11     -1.61      0.00
    2   -2   11     -0.33      0.00
    3   -2   11     -0.66      0.00
    4   -2   11      0.77      0.00
    5   -2   11      1.44      0.00
   -7   -1   11      1.01      0.00
   -6   -1   11      2.45      0.00
   -5   -1   11      0.07      0.00
   -4   -1   11      0.11      0.00
   -3   -1   11     -2.13      0.00
   -2   -1   11     -1.46      0.00
   -1   -1   11      1.17      0.00
    0   -1   11     -0.11      0.00
    1   -1   11     -0.11      0.00
    2   -1   11      0.16      0.00
    3   -1   11      0.92      0.00
    4   -1   11     -1.19      0.00
    5   -1   11     -1.30      0.00
   -8    0   11      1.38      0.00
   -7    0   11     -1.22      0.00
   -6    0   11     -1.44      0.00
   -5    0   11     -0.75      0.00
   -4    0   11     -0.62      0.00
   -3    0   11      2.20      0.00
   -2    0   11      0.88      0.00
   -1    0   11      0.06      0.00
    0    0   11      1.15      0.00
    1    0   11      1.52      0.00
    2    0   11      0.18      0.00
    3    0   11     -0.41      0.00
    4    0   11      1.53      0.00
    5    0   11      1.10      0.00
   -8    1   11     -0.18      0.00
   -7    1   11      1.01      0.00
   -6    1   11      0.85      0.00
   -5    1   11      2.25      0.00
   -4    1   11      1.26      0.00
   -3    1   11     -2.34      0.00
   -2    1   11     -0.77      0.00
   -1    1   11     -0.63      0.00
    0    1   11     -1.86      0.00
    1    1   11     -1.86      0.00
    2    1   11     -0.53      0.00
    3    1   11      0.10      0.00
    4    1   11     -0.87      0.00
   -8    2   11     -0.88      0.00
   -7    2   11     -0.73      0.00
   -6    2   11     -1.33      0.00
   -5    2   11     -3.42      0.00
   -4    2   11     -1.06      0.00
   -3    2   11      3.14      0.00
   -2    2   11      0.74      0.00
   -1    2   11      0.03      0.00
    0    2   11      1.61      0.00
    1    2   11      1.06      0.00
    2    2   11      0.46      0.00
    3    2   11     -0.62      0.00
    4    2   11     -0.22      0.00
   -8    3   11      1.48      0.00
   -7    3   11      1.27      0.00
   -6    3   11      2.26      0.00
   -5    3   11      3.02      0.00
   -4    3   11     -0.33      0.00
   -3    3   11     -4.23      0.00
   -2    3   11     -0.08      0.00
   -1    3   11      1.35      0.00
    0    3   11     -0.85      0.00
    1    3   11     -0.24      0.00
    2    3   11     -0.47      0.00
    3    3   11      0.88      0.00
    4    3   11      0.47      0.00
   -8    4   11     -1.91      0.00
   -7    4   11     -2.02      0.00
   -6    4   11     -2.21      0.00
   -5    4   11     -1.41      0.00
   -4    4   11      1.60      0.00
   -3    4   11      3.97      0.00
   -2    4   11     -1.48      0.00
   -1    4   11     -2.08      0.00
    0    4   11      0.63      0.00
    1    4   11      0.36      0.00
    2    4   11      1.00      0.00
    3    4   11     -0.46      0.00
   -8    5   11      1.63      0.00
   -7    5   11      1.94      0.00
   -6    5   11      1.33      0.00
   -5    5   11      0.65      0.00
   -4    5   11     -1.49      0.00
   -3    5   11     -2.27      0.00
   -2    5   11      2.41      0.00
   -1    5   11      1.13      0.00
    0    5   11     -0.85      0.00
    1    5   11     -0.84      0.00
    2    5   11     -1.20      0.00
   -7    6   11     -1.37      0.00
   -6    6   11     -0.73      0.00
   -5    6   11     -0.94      0.00
   -4    6   11      1.65      0.00
   -3    6   11      1.35      0.00
   -1    6   11      0.38      0.00
    0    6   11      0.64      0.00
    1    6   11      0.88      0.00
    2    6   11      0.77      0.00
   -7    7   11      0.67      0.00
   -6    7   11      0.07      0.00
   -5    7   11      0.33      0.00
   -2    7   11      0.39      0.00
   -1    7   11     -1.09      0.00
    0    7   11     -0.32      0.00
    1    7   11     -0.80      0.00
   -6    8   11      0.70      0.00
   -4    8   11      4.59      0.00
   -3    8   11      0.95      0.00
   -2    8   11      0.16      0.00
   -1    8   11      1.22      0.00
   -4    9   11     -3.38      0.00
   -3    9   11     -0.20      0.00
    0  -10   12      1.02      0.00
    1  -10   12      0.94      0.00
    2  -10   12     -0.42      0.00
   -2   -9   12     -1.79      0.00
   -1   -9   12     -1.03      0.00
    0   -9   12     -0.98      0.00
    1   -9   12     -0.81      0.00
    2   -9   12     -0.01      0.00
    3   -9   12     -0.66      0.00
    4   -9   12     -0.58      0.00
   -3   -8   12      1.19      0.00
   -2   -8   12      2.28      0.00
   -1   -8   12      1.31      0.00
    0   -8   12      0.60      0.00
    1   -8   12      0.89      0.00
    2   -8   12      0.43      0.00
    3   -8   12      0.56      0.00
    4   -8   12     -0.20      0.00
   -4   -7   12      0.39      0.00
   -3   -7   12     -0.85      0.00
   -2   -7   12     -2.52      0.00
   -1   -7   12     -1.30      0.00
    0   -7   12     -0.76      0.00
    1   -7   12     -0.85      0.00
    2   -7   12     -0.11      0.00
    3   -7   12     -0.36      0.00
    4   -7   12      0.29      0.00
   -5   -6   12     -0.71      0.00
   -4   -6   12     -0.13      0.00
   -3   -6   12      0.75      0.00
   -2   -6   12      2.98      0.00
   -1   -6   12      1.20      0.00
    0   -6   12      1.09      0.00
    1   -6   12     -0.20      0.00
    2   -6   12     -0.69      0.00
    3   -6   12      0.42      0.00
    4   -6   12     -0.22      0.00
    5   -6   12      0.84      0.00
   -5   -5   12      0.40      0.00
   -4   -5   12     -0.54      0.00
   -3   -5   12     -0.52      0.00
   -2   -5   12     -3.19      0.00
   -1   -5   12     -0.43      0.00
    0   -5   12     -0.76      0.00
    1   -5   12      1.81      0.00
    2   -5   12      1.07      0.00
    3   -5   12     -0.42      0.00
    4   -5   12      0.31      0.00
    5   -5   12     -0.78      0.00
   -6   -4   12     -0.36      0.00
   -5   -4   12      0.26      0.00
   -4   -4   12      0.41      0.00
   -3   -4   12     -0.09      0.00
   -2   -4   12      2.81      0.00
   -1   -4   12     -0.86      0.00
    0   -4   12      0.09      0.00
    1   -4   12     -2.55      0.00
    2   -4   12     -0.60      0.00
    3   -4   12      0.41      0.00
    4   -4   12      0.03      0.00
    5   -4   12      1.14      0.00
   -6   -3   12      1.44      0.00
   -5   -3   12     -0.50      0.00
   -4   -3   12      0.31      0.00
   -3   -3   12      0.28      0.00
   -2   -3   12     -2.10      0.00
   -1   -3   12      1.64      0.00
    0   -3   12      0.11      0.00
    1   -3   12      1.79      0.00
    2   -3   12     -0.40      0.00
    3   -3   12     -0.61      0.00
    4   -3   12     -0.55      0.00
    5   -3   12     -1.02      0.00
   -7   -2   12     -0.26      0.00
   -6   -2   12     -2.23      0.00
   -5   -2   12      0.49      0.00
   -4   -2   12     -0.69      0.00
   -3   -2   12      0.05      0.00
   -2   -2   12      1.28      0.00
   -1   -2   12     -1.29      0.00
    0   -2   12      0.16      0.00
    1   -2   12     -0.30      0.00
    2   -2   12      1.06      0.00
    3   -2   12      0.64      0.00
    4   -2   12      0.57      0.00
    5   -2   12      0.57      0.00
   -7   -1   12      1.51      0.00
   -6   -1   12      2.43      0.00
   -5   -1   12     -0.36      0.00
   -4   -1   12      0.96      0.00
   -3   -1   12     -0.20      0.00
   -2   -1   12     -0.55      0.00
   -1   -1   12      0.23      0.00
    0   -1   12     -0.42      0.00
    1   -1   12     -0.83      0.00
    2   -1   12     -0.91      0.00
    3   -1   12     -0.51      0.00
    4   -1   12     -0.59      0.00
    5   -1   12     -0.61      0.00
   -7    0   12     -2.85      0.00
   -6    0   12     -1.83      0.00
   -5    0   12     -0.21      0.00
   -4    0   12     -1.66      0.00
   -3    0   12      0.07      0.00
   -2    0   12      0.11      0.00
   -1    0   12      0.65      0.00
    0    0   12      0.58      0.00
    1    0   12      1.14      0.00
    2    0   12      0.46      0.00
    3    0   12      0.62      0.00
    4    0   12      0.71      0.00
   -7    1   12      2.90      0.00
   -6    1   12      0.90      0.00
   -5    1   12      1.40      0.00
   -4    1   12      2.46      0.00
   -3    1   12     -0.39      0.00
   -2    1   12     -0.07      0.00
   -1    1   12     -0.79      0.00
    0    1   12     -0.76      0.00
    1    1   12     -0.69      0.00
    2    1   12     -0.12      0.00
    3    1   12     -0.30      0.00
    4    1   12     -0.02      0.00
   -8    2   12     -0.51      0.00
   -7    2   12     -2.02      0.00
   -6    2   12     -0.89      0.00
   -5    2   12     -2.54      0.00
   -4    2   12     -2.16      0.00
   -3    2   12      1.86      0.00
   -2    2   12      0.09      0.00
   -1    2   12     -0.03      0.00
    0    2   12      0.84      0.00
    1    2   12     -0.12      0.00
    2    2   12     -0.12      0.00
    3    2   12     -0.69      0.00
   -8    3   12      0.66      0.00
   -7    3   12      1.71      0.00
   -6    3   12      1.52      0.00
   -5    3   12      2.28      0.00
   -4    3   12      0.35      0.00
   -3    3   12     -3.62      0.00
   -2    3   12      0.85      0.00
   -1    3   12      1.49      0.00
    0    3   12     -1.06      0.00
    1    3   12      0.35      0.00
    2    3   12     -0.19      0.00
    3    3   12      1.09      0.00
   -7    4   12     -1.51      0.00
   -6    4   12     -1.46      0.00
   -5    4   12     -1.02      0.00
   -4    4   12      1.25      0.00
   -3    4   12      3.73      0.00
   -2    4   12     -2.70      0.00
   -1    4   12     -2.13      0.00
    0    4   12      1.77      0.00
    1    4   12      0.34      0.00
    2    4   12      1.02      0.00
   -7    5   12      0.75      0.00
   -6    5   12      1.12      0.00
   -5    5   12      0.64      0.00
   -4    5   12     -1.59      0.00
   -3    5   12     -2.58      0.00
   -2    5   12      3.56      0.00
    0    5   12     -2.11      0.00
    1    5   12     -0.92      0.00
    2    5   12     -1.29      0.00
   -7    6   12     -0.22      0.00
   -6    6   12     -1.14      0.00
   -5    6   12     -0.60      0.00
   -4    6   12      2.43      0.00
   -3    6   12      1.97      0.00
   -2    6   12     -2.81      0.00
   -1    6   12     -0.12      0.00
    0    6   12      1.31      0.00
    1    6   12      0.80      0.00
   -6    7   12      0.47      0.00
   -5    7   12     -0.69      0.00
   -3    7   12     -1.42      0.00
   -2    7   12      1.80      0.00
   -1    7   12     -0.35      0.00
    0    7   12     -0.32      0.00
   -5    8   12      1.75      0.00
   -4    8   12      3.91      0.00
   -3    8   12      0.06      0.00
   -2    8   12     -0.91      0.00
   -1   -9   13     -0.37      0.00
    0   -9   13     -0.96      0.00
    1   -9   13     -0.62      0.00
    2   -9   13     -0.38      0.00
   -2   -8   13      1.38      0.00
   -1   -8   13      0.59      0.00
    0   -8   13      1.33      0.00
    1   -8   13      1.60      0.00
    2   -8   13      1.25      0.00
    3   -8   13      1.00      0.00
   -3   -7   13     -0.45      0.00
   -2   -7   13     -1.60      0.00
   -1   -7   13     -1.01      0.00
    0   -7   13     -1.89      0.00
    1   -7   13     -1.65      0.00
    2   -7   13     -0.78      0.00
    3   -7   13     -0.96      0.00
   -4   -6   13      0.10      0.00
   -3   -6   13      0.42      0.00
   -2   -6   13      2.17      0.00
   -1   -6   13      1.28      0.00
    0   -6   13      1.36      0.00
    1   -6   13     -0.34      0.00
    2   -6   13     -0.40      0.00
    3   -6   13      1.13      0.00
    4   -6   13      0.40      0.00
   -5   -5   13     -0.24      0.00
   -4   -5   13     -0.16      0.00
   -3   -5   13     -0.39      0.00
   -2   -5   13     -2.54      0.00
   -1   -5   13     -0.31      0.00
    0   -5   13      0.40      0.00
    1   -5   13      2.54      0.00
    2   -5   13      0.57      0.00
    3   -5   13     -1.19      0.00
    4   -5   13     -0.10      0.00
   -5   -4   13      0.85      0.00
   -4   -4   13     -0.11      0.00
   -3   -4   13      0.12      0.00
   -2   -4   13      2.05      0.00
   -1   -4   13     -1.29      0.00
    0   -4   13     -1.34      0.00
    1   -4   13     -2.61      0.00
    2   -4   13      0.48      0.00
    3   -4   13      1.08      0.00
    4   -4   13     -0.02      0.00
   -6   -3   13      0.54      0.00
   -5   -3   13     -1.15      0.00
   -4   -3   13      0.67      0.00
   -3   -3   13      0.22      0.00
   -2   -3   13     -1.16      0.00
   -1   -3   13      1.67      0.00
    0   -3   13      0.51      0.00
    1   -3   13      0.98      0.00
    2   -3   13     -1.68      0.00
    3   -3   13     -1.17      0.00
    4   -3   13     -0.09      0.00
   -6   -2   13     -0.89      0.00
   -5   -2   13      0.84      0.00
   -4   -2   13     -1.21      0.00
   -3   -2   13     -0.33      0.00
   -2   -2   13      0.66      0.00
   -1   -2   13     -0.61      0.00
    0   -2   13      0.41      0.00
    1   -2   13      0.33      0.00
    2   -2   13      1.97      0.00
    3   -2   13      1.06      0.00
    4   -2   13     -0.24      0.00
   -7   -1   13      1.17      0.00
   -6   -1   13      1.44      0.00
   -5   -1   13     -0.14      0.00
   -4   -1   13      1.62      0.00
   -3   -1   13      0.23      0.00
   -2   -1   13     -0.42      0.00
   -1   -1   13     -0.33      0.00
    0   -1   13     -0.06      0.00
    1   -1   13     -0.40      0.00
    2   -1   13     -1.06      0.00
    3   -1   13     -0.50      0.00
    4   -1   13      0.54      0.00
   -7    0   13     -2.98      0.00
   -6    0   13     -1.34      0.00
   -5    0   13     -0.43      0.00
   -4    0   13     -2.08      0.00
   -3    0   13     -0.20      0.00
   -2    0   13      0.04      0.00
   -1    0   13      0.48      0.00
    0    0   13     -0.62      0.00
    1    0   13     -0.29      0.00
    2    0   13     -0.29      0.00
    3    0   13     -0.05      0.00
    4    0   13     -0.49      0.00
   -7    1   13      3.32      0.00
   -6    1   13      0.46      0.00
   -5    1   13      1.10      0.00
   -4    1   13      2.69      0.00
   -3    1   13     -0.17      0.00
   -2    1   13      0.02      0.00
   -1    1   13     -0.48      0.00
    0    1   13      0.40      0.00
    1    1   13      1.13      0.00
    2    1   13      1.22      0.00
    3    1   13      0.65      0.00
   -7    2   13     -2.40      0.00
   -6    2   13     -0.13      0.00
   -5    2   13     -1.77      0.00
   -4    2   13     -2.42      0.00
   -3    2   13      1.73      0.00
   -2    2   13      0.27      0.00
   -1    2   13      0.20      0.00
    0    2   13      0.44      0.00
    1    2   13     -1.67      0.00
    2    2   13     -1.28      0.00
    3    2   13     -1.25      0.00
   -7    3   13      1.67      0.00
   -6    3   13      0.36      0.00
   -5    3   13      1.43      0.00
   -4    3   13      0.82      0.00
   -3    3   13     -3.50      0.00
   -2    3   13      0.47      0.00
   -1    3   13      0.77      0.00
    0    3   13     -1.53      0.00
    1    3   13      1.17      0.00
    2    3   13      0.30      0.00
   -7    4   13     -0.77      0.00
   -6    4   13     -0.23      0.00
   -5    4   13     -0.65      0.00
   -4    4   13      0.46      0.00
   -3    4   13      3.63      0.00
   -2    4   13     -2.33      0.00
   -1    4   13     -1.40      0.00
    0    4   13      2.68      0.00
    1    4   13      0.14      0.00
    2    4   13      0.89      0.00
   -7    5   13     -0.38      0.00
   -6    5   13      0.46      0.00
   -5    5   13      0.85      0.00
   -4    5   13     -0.86      0.00
   -3    5   13     -2.78      0.00
   -2    5   13      3.42      0.00
    0    5   13     -2.79      0.00
    1    5   13     -0.90      0.00
   -6    6   13     -1.12      0.00
   -5    6   13     -0.82      0.00
   -4    6   13      1.97      0.00
   -3    6   13      2.21      0.00
   -2    6   13     -3.24      0.00
   -1    6   13     -0.66      0.00
    0    6   13      1.51      0.00
   -3    7   13     -1.12      0.00
   -2    7   13      2.59      0.00
   -1   -8   14      0.58      0.00
    0   -8   14      2.13      0.00
    1   -8   14      1.88      0.00
    2   -8   14      1.34      0.00
   -2   -7   14     -0.89      0.00
   -1   -7   14     -0.93      0.00
    0   -7   14     -2.54      0.00
    1   -7   14     -1.72      0.00
    2   -7   14     -0.67      0.00
   -3   -6   14      0.51      0.00
   -2   -6   14      1.13      0.00
   -1   -6   14      0.97      0.00
    0   -6   14      1.16      0.00
    1   -6   14     -0.73      0.00
    2   -6   14     -0.52      0.00
    3   -6   14      1.00      0.00
   -4   -5   14      0.10      0.00
   -3   -5   14     -0.54      0.00
   -2   -5   14     -1.37      0.00
   -1   -5   14      0.14      0.00
    0   -5   14      1.22      0.00
    1   -5   14      2.75      0.00
    2   -5   14      0.36      0.00
    3   -5   14     -0.97      0.00
   -5   -4   14      1.38      0.00
   -4   -4   14     -0.47      0.00
   -3   -4   14      0.56      0.00
   -2   -4   14      1.02      0.00
   -1   -4   14     -1.39      0.00
    0   -4   14     -1.70      0.00
    1   -4   14     -2.09      0.00
    2   -4   14      0.87      0.00
    3   -4   14      0.58      0.00
   -5   -3   14     -1.54      0.00
   -4   -3   14      0.82      0.00
   -3   -3   14     -0.31      0.00
   -2   -3   14     -0.55      0.00
   -1   -3   14      0.94      0.00
    0   -3   14     -0.02      0.00
    1   -3   14      0.26      0.00
    2   -3   14     -1.74      0.00
    3   -3   14     -0.44      0.00
   -6   -2   14      0.59      0.00
   -5   -2   14      0.82      0.00
   -4   -2   14     -1.36      0.00
   -3   -2   14      0.20      0.00
   -2   -2   14      0.75      0.00
   -1   -2   14      0.56      0.00
    0   -2   14      0.94      0.00
    1   -2   14      0.30      0.00
    2   -2   14      1.50      0.00
    3   -2   14      0.25      0.00
   -6   -1   14      0.01      0.00
   -5   -1   14      0.45      0.00
   -4   -1   14      1.63      0.00
   -3   -1   14     -0.63      0.00
   -2   -1   14     -1.01      0.00
   -1   -1   14     -0.85      0.00
    0   -1   14      0.30      0.00
    1   -1   14      0.52      0.00
    2   -1   14     -0.22      0.00
    3   -1   14      0.48      0.00
   -6    0   14     -0.36      0.00
   -5    0   14     -1.14      0.00
   -4    0   14     -1.65      0.00
   -3    0   14      0.97      0.00
   -2    0   14      0.56      0.00
   -1    0   14      0.09      0.00
    0    0   14     -1.48      0.00
    1    0   14     -1.53      0.00
    2    0   14     -1.45      0.00
    3    0   14     -1.28      0.00
   -6    1   14     -0.13      0.00
   -5    1   14      1.36      0.00
   -4    1   14      1.93      0.00
   -2    1   14     -0.47      0.00
   -1    1   14     -0.16      0.00
    0    1   14      0.85      0.00
    1    1   14      2.26      0.00
    2    1   14      2.50      0.00
   -6    2   14      0.46      0.00
   -5    2   14     -1.45      0.00
   -4    2   14     -1.79      0.00
   -3    2   14      2.45      0.00
   -2    2   14      1.13      0.00
   -1    2   14      0.73      0.00
    0    2   14      0.66      0.00
    1    2   14     -2.48      0.00
    2    2   14     -2.15      0.00
   -6    3   14     -0.55      0.00
   -5    3   14      0.89      0.00
   -4    3   14      0.82      0.00
   -3    3   14     -3.67      0.00
   -2    3   14     -0.78      0.00
   -1    3   14     -0.40      0.00
    0    3   14     -2.06      0.00
    1    3   14      1.59      0.00
   -6    4   14      0.75      0.00
   -5    4   14     -0.45      0.00
   -4    4   14     -0.27      0.00
   -3    4   14      3.44      0.00
   -2    4   14     -0.92      0.00
   -1    4   14     -0.29      0.00
    0    4   14      3.00      0.00
    1    4   14     -0.12      0.00
   -5    5   14      1.05      0.00
   -4    5   14      0.16      0.00
   -3    5   14     -2.61      0.00
   -2    5   14      2.24      0.00
   -1    5   14      0.63      0.00
    0    5   14     -2.64      0.00
   -4    6   14      0.82      0.00
   -3    6   14      2.06      0.00
   -2    6   14     -2.62      0.00
   -1   -7   15     -0.77      0.00
    0   -7   15     -2.06      0.00
    1   -7   15     -0.83      0.00
   -3   -6   15      0.66      0.00
   -2   -6   15      0.07      0.00
   -1   -6   15      0.44      0.00
    0   -6   15      0.53      0.00
    1   -6   15     -1.08      0.00
    2   -6   15     -0.88      0.00
   -3   -5   15     -0.67      0.00
   -2   -5   15     -0.06      0.00
   -1   -5   15      0.35      0.00
    0   -5   15      1.18      0.00
    1   -5   15      2.13      0.00
    2   -5   15      0.52      0.00
   -4   -4   15     -0.61      0.00
   -3   -4   15      0.89      0.00
   -2   -4   15      0.07      0.00
   -1   -4   15     -0.61      0.00
    0   -4   15     -0.67      0.00
    1   -4   15     -1.02      0.00
    2   -4   15      0.38      0.00
   -4   -3   15      0.57      0.00
   -3   -3   15     -0.81      0.00
   -2   -3   15     -0.21      0.00
   -1   -3   15     -0.63      0.00
    0   -3   15     -1.41      0.00
    1   -3   15     -0.34      0.00
    2   -3   15     -0.77      0.00
   -5   -2   15      0.57      0.00
   -4   -2   15     -0.84      0.00
   -3   -2   15      0.78      0.00
   -2   -2   15      0.94      0.00
   -1   -2   15      2.00      0.00
    0   -2   15      1.80      0.00
    1   -2   15      0.16      0.00
    2   -2   15      0.47      0.00
   -5   -1   15      0.88      0.00
   -4   -1   15      0.89      0.00
   -3   -1   15     -1.42      0.00
   -2   -1   15     -1.39      0.00
   -1   -1   15     -1.38      0.00
    0   -1   15      0.10      0.00
    1   -1   15      0.86      0.00
    2   -1   15      0.45      0.00
   -5    0   15     -1.63      0.00
   -4    0   15     -0.56      0.00
   -3    0   15      2.00      0.00
   -2    0   15      0.88      0.00
   -1    0   15     -0.10      0.00
    0    0   15     -1.32      0.00
    1    0   15     -1.50      0.00
    2    0   15     -1.79      0.00
   -5    1   15      1.61      0.00
   -4    1   15      0.56      0.00
   -3    1   15     -2.29      0.00
   -2    1   15     -0.86      0.00
   -1    1   15     -0.06      0.00
    0    1   15      0.35      0.00
    1    1   15      1.87      0.00
   -5    2   15     -1.26      0.00
   -4    2   15     -0.52      0.00
   -3    2   15      3.05      0.00
   -2    2   15      1.80      0.00
   -1    2   15      1.15      0.00
    0    2   15      1.25      0.00
   -5    3   15      0.48      0.00
   -4    3   15      0.17      0.00
   -3    3   15     -3.54      0.00
   -2    3   15     -1.79      0.00
   -1    3   15     -1.21      0.00
    0    3   15     -2.31      0.00
   -4    4   15     -0.35      0.00
   -3    4   15      2.81      0.00
   -2    4   15      0.37      0.00
   -1    4   15      0.52      0.00
   -3    5   15     -1.91      0.00
   -2    5   15      0.91      0.00
   -1   -6   16      0.12      0.00
    0   -6   16     -0.03      0.00
   -2   -5   16      0.73      0.00
   -1   -5   16     -0.06      0.00
    0   -5   16      0.43      0.00
    1   -5   16      0.87      0.00
   -3   -4   16      0.90      0.00
   -2   -4   16     -0.40      0.00
   -1   -4   16      0.76      0.00
    0   -4   16      0.82      0.00
    1   -4   16      0.13      0.00
   -3   -3   16     -0.84      0.00
   -2   -3   16     -0.03      0.00
   -1   -3   16     -2.19      0.00
    0   -3   16     -2.54      0.00
    1   -3   16     -0.74      0.00
   -4   -2   16      0.04      0.00
   -3   -2   16      0.64      0.00
   -2   -2   16      0.71      0.00
   -1   -2   16      2.96      0.00
    0   -2   16      2.38      0.00
    1   -2   16      0.28      0.00
   -4   -1   16     -0.17      0.00
   -3   -1   16     -1.12      0.00
   -2   -1   16     -1.04      0.00
   -1   -1   16     -1.73      0.00
    0   -1   16     -0.48      0.00
    1   -1   16      0.31      0.00
   -4    0   16      0.58      0.00
   -3    0   16      1.78      0.00
   -2    0   16      0.64      0.00
   -1    0   16      0.01      0.00
    0    0   16     -0.47      0.00
    1    0   16     -0.41      0.00
   -4    1   16     -0.72      0.00
   -3    1   16     -2.19      0.00
   -2    1   16     -0.77      0.00
   -1    1   16     -0.04      0.00
    0    1   16     -0.41      0.00
   -4    2   16      0.71      0.00
   -3    2   16      2.68      0.00
   -2    2   16      1.67      0.00
   -1    2   16      0.99      0.00
    0    2   16      1.52      0.00
   -3    3   16     -2.60      0.00
   -2    3   16     -1.74      0.00
   -1    3   16     -1.11      0.00
   -2   -3   17      0.04      0.00
   -1   -3   17     -2.73      0.00
   -3   -2   17     -0.15      0.00
   -2   -2   17      0.19      0.00
   -1   -2   17      2.85      0.00
   -3   -1   17      0.06      0.00
   -2   -1   17     -0.34      0.00
   -1   -1   17     -1.64      0.00
   -3    0   17      0.50      0.00
   -2    0   17      0.18      0.00
   -1    0   17      0.18      0.00
   -9    1    0      0.56      0.00
    8    2    0     -0.81      0.00
   -9    8    0      1.61      0.00
    5    8    0      0.82      0.00
   -7   12    0      0.71      0.00
   -5   13    0      0.52      0.00
    1  -13    1     -0.08      0.00
    5  -13    1      0.17      0.00
   -1  -12    1      0.97      0.00
    8  -10    1      1.88      0.00
    9   -8    1      0.83      0.00
   -7   -5    1     -0.75      0.00
   -8   -2    1     -1.61      0.00
    1   -1    1    -25.30      0.00
    8    1    1     -0.24      0.00
    8    2    1     -0.23      0.00
    7    3    1     -0.92      0.00
    7    4    1      0.85      0.00
   -9    8    1      2.01      0.00
    4    9    1      0.37      0.00
    3   10    1      0.24      0.00
   -5   13    1      0.86      0.00
   -2   13    1     -0.24      0.00
    1  -13    2      0.40      0.00
    5  -13    2     -0.12      0.00
   -1  -12    2      0.21      0.00
    8  -10    2      2.15      0.00
    9   -7    2      0.39      0.00
   -6   -4    2     -0.15      0.00
   -8   -3    2      1.00      0.00
   -8   -2    2     -2.22      0.00
   -9    0    2      0.69      0.00
    8    1    2     -0.20      0.00
    7    2    2      0.93      0.00
    2    3    2      1.67      0.00
    7    3    2     -0.60      0.00
    7    4    2      0.30      0.00
    6    6    2      1.22      0.00
   -9    8    2      2.11      0.00
   -4   13    2      0.33      0.00
   -3   13    2      0.68      0.00
    1  -13    3      0.97      0.00
    5  -13    3     -0.37      0.00
    8  -10    3      2.14      0.00
   -6   -7    3     -0.47      0.00
    9   -6    3     -0.64      0.00
   -6   -5    3     -0.23      0.00
    9   -5    3      1.27      0.00
    9   -4    3     -1.89      0.00
   -3   -1    3      0.45      0.00
   -9    0    3      1.57      0.00
    8    1    3      0.46      0.00
    7    2    3      0.46      0.00
    7    3    3     -0.21      0.00
   -9    8    3      2.12      0.00
   -1   12    3     -0.25      0.00
    1  -13    4      1.26      0.00
   -1  -12    4     -1.47      0.00
    8   -9    4     -0.95      0.00
   -6   -7    4      0.19      0.00
    7    2    4      0.34      0.00
    7    3    4     -0.16      0.00
    6    4    4     -0.71      0.00
    6    5    4      0.62      0.00
   -9    8    4      1.92      0.00
   -4    8    4     -1.89      0.00
    4    8    4      0.55      0.00
   -1   12    4     -0.68      0.00
    4  -13    5     -0.53      0.00
   -1  -12    5     -0.96      0.00
    6  -12    5      0.63      0.00
    8   -8    5     -0.75      0.00
   -6   -7    5      1.08      0.00
    7    2    5      0.66      0.00
    6    3    5     -0.16      0.00
    6    4    5     -0.20      0.00
   -7    7    5     -2.27      0.00
   -9    8    5      1.38      0.00
   -3   12    5      0.90      0.00
   -2   12    5     -0.72      0.00
    2  -13    6     -1.45      0.00
    3  -13    6     -0.93      0.00
   -2  -11    6     -1.23      0.00
    7  -10    6      1.56      0.00
   -6   -7    6      1.72      0.00
    8   -7    6      1.59      0.00
    8   -2    6     -0.16      0.00
   -9    0    6      0.61      0.00
    7    1    6     -0.54      0.00
    6    3    6     -0.89      0.00
    6    4    6      0.33      0.00
   -4   12    6     -0.39      0.00
   -3   12    6      1.32      0.00
    5  -12    7      0.61      0.00
   -2  -11    7     -2.04      0.00
    6  -11    7     -1.46      0.00
    7   -9    7      0.85      0.00
   -4   -7    7      0.18      0.00
   -8   -3    7      0.08      0.00
    6    3    7     -1.08      0.00
    5    4    7     -0.30      0.00
    5    5    7      0.18      0.00
   -9    7    7     -0.51      0.00
    0  -12    8      0.24      0.00
    4  -12    8      0.66      0.00
   -2  -11    8     -1.45      0.00
   -3  -10    8      2.14      0.00
   -4   -9    8     -0.81      0.00
   -5   -8    8     -0.04      0.00
    7   -8    8     -0.49      0.00
   -7   -5    8      0.59      0.00
   -9    1    8     -1.23      0.00
    6    2    8      1.17      0.00
    5    4    8     -0.44      0.00
   -9    6    8      0.10      0.00
    4    6    8     -0.43      0.00
   -8    8    8      0.86      0.00
   -7   10    8     -0.16      0.00
   -5   11    8      0.70      0.00
   -4   11    8     -0.06      0.00
   -3   11    8     -0.96      0.00
    1  -12    9      0.12      0.00
    2  -12    9     -0.12      0.00
    3  -12    9      0.01      0.00
    5  -11    9      0.82      0.00
   -4   -9    9     -0.40      0.00
    6   -9    9      0.69      0.00
    7   -7    9     -0.82      0.00
    7   -6    9      1.30      0.00
    7   -3    9     -0.07      0.00
    6    1    9     -0.19      0.00
   -9    2    9      0.71      0.00
   -9    3    9      0.09      0.00
    5    3    9     -0.50      0.00
   -9    4    9     -0.36      0.00
    4    5    9      1.30      0.00
   -4    7    9     -0.81      0.00
   -8    8    9      0.28      0.00
   -6    8    9      0.87      0.00
   -5    8    9     -2.41      0.00
   -1  -11   10      1.64      0.00
    4  -11   10     -0.06      0.00
    6   -8   10     -1.41      0.00
   -6   -6   10      0.10      0.00
    6    0   10     -0.47      0.00
    4    4   10     -0.54      0.00
    2    7   10     -0.10      0.00
   -5    8   10     -0.96      0.00
   -4    8   10      3.85      0.00
    1    8   10      1.18      0.00
   -5   10   10     -0.37      0.00
   -4   10   10      2.22      0.00
   -3   10   10      0.81      0.00
    0  -11   11     -0.48      0.00
    1  -11   11     -1.31      0.00
    2  -11   11      0.36      0.00
   -2  -10   11      0.89      0.00
   -3   -9   11     -1.61      0.00
    5   -9   11     -0.66      0.00
   -4   -8   11     -0.34      0.00
   -5   -7   11      0.42      0.00
    6   -6   11     -0.87      0.00
    5    1   11     -0.45      0.00
    3    5   11      0.25      0.00
   -8    6   11     -0.87      0.00
   -2    6   11     -1.59      0.00
   -4    7   11     -3.46      0.00
   -3    7   11     -1.46      0.00
   -5    8   11      0.86      0.00
    0    8   11      0.37      0.00
   -5    9   11     -0.72      0.00
   -2    9   11     -0.49      0.00
   -1  -10   12      0.15      0.00
    3  -10   12      0.26      0.00
    5   -8   12      0.84      0.00
    5   -7   12     -1.11      0.00
   -6   -5   12     -0.60      0.00
   -8    1   12      0.12      0.00
    4    2   12     -0.84      0.00
   -8    4   12     -1.04      0.00
    3    4   12     -0.59      0.00
   -1    5   12      1.23      0.00
   -4    7   12     -4.03      0.00
   -6    8   12      0.55      0.00
    3   -9   13     -0.79      0.00
   -3   -8   13      0.51      0.00
    4   -8   13     -0.22      0.00
   -4   -7   13     -0.08      0.00
    4   -7   13     -0.11      0.00
   -6   -4   13     -0.23      0.00
   -1    5   13      1.06      0.00
   -5    7   13     -0.61      0.00
   -4    7   13     -3.17      0.00
   -1    7   13      0.36      0.00
    0   -9   14     -1.28      0.00
    1   -9   14     -0.59      0.00
   -2   -8   14      0.88      0.00
   -3   -7   14     -0.47      0.00
    3   -7   14     -0.76      0.00
   -4   -6   14      0.34      0.00
   -5   -5   14     -0.95      0.00
    4   -5   14      0.12      0.00
    4   -4   14     -0.48      0.00
   -6   -3   14     -0.42      0.00
    4   -3   14      0.41      0.00
    4   -2   14     -0.67      0.00
   -7    1   14      2.32      0.00
   -3    1   14     -1.26      0.00
    3    1   14      1.61      0.00
   -7    2   14     -1.79      0.00
   -7    3   14      1.13      0.00
    2    3   14      0.60      0.00
   -6    5   14     -0.21      0.00
   -5    6   14     -1.18      0.00
   -1    6   14     -0.90      0.00
    0   -8   15      2.05      0.00
   -2   -7   15     -0.42      0.00
    2   -7   15      0.09      0.00
   -4   -5   15      0.38      0.00
    3   -5   15     -0.07      0.00
    3   -4   15     -0.56      0.00
   -5   -3   15     -1.42      0.00
    3   -3   15      0.63      0.00
    3   -2   15     -0.48      0.00
   -6   -1   15     -0.82      0.00
   -6    0   15      0.31      0.00
   -6    1   15     -0.35      0.00
    2    1   15      2.62      0.00
   -6    2   15      0.50      0.00
    1    2   15     -2.00      0.00
   -6    3   15     -0.75      0.00
   -5    4   15     -0.13      0.00
    0    4   15      2.66      0.00
   -5    5   15      0.76      0.00
   -4    5   15      0.70      0.00
   -2   -6   16     -0.60      0.00
    1   -6   16     -0.88      0.00
   -3   -5   16     -0.60      0.00
    2   -4   16     -0.22      0.00
   -4   -3   16      0.04      0.00
    2   -3   16      0.04      0.00
    2   -2   16      0.07      0.00
   -5   -1   16      0.81      0.00
   -5    0   16     -1.37      0.00
   -5    1   16      1.29      0.00
   -5    2   16     -0.83      0.00
   -4    3   16     -0.65      0.00
   -3    4   16      1.59      0.00
   -1   -4   17      1.77      0.00
    0   -3   17     -2.36      0.00
    0   -2   17      2.00      0.00
    0   -1   17     -0.73      0.00
   -3    1   17     -1.02      0.00
   -2    1   17     -0.34      0.00
    0    0    0      0.00      0.00
# SQUEEZE RESULTS (Version =  60119)
# Note: Data are Listed for all Voids in the P1 Unit Cell
# i.e. Centre of Gravity, Solvent Accessible Volume,
# Recovered number of Electrons in the Void and
# Details about the Squeezed Material
loop_
  _platon_squeeze_void_nr
  _platon_squeeze_void_average_x
  _platon_squeeze_void_average_y
  _platon_squeeze_void_average_z
  _platon_squeeze_void_volume
  _platon_squeeze_void_count_electrons
  _platon_squeeze_void_content
   1  0.021  0.500  0.000       149        75 ' '
# Missing Reflections Below sin(th)/lambda = 0.25
loop_
  _platon_missing_refln_index_h
  _platon_missing_refln_index_k
  _platon_missing_refln_index_l
  _platon_missing_refln_theta
    1   -1    1     3.403
   -3   -1    3     9.608
_platon_squeeze_void_probe_radius                  1.20
_platon_squeeze_details
)
TITL shelxl           P -1         R = 0.12
CELL    7.6800   10.6710   13.8250     95.96    100.66    109.54
SPGR P-1
# Solvent Accessible Volume =       149
# Electrons Found in S.A.V. =        75
# Note: Atoms in Void are Labelled as Cxxx and Qxxx for all Others
C101 0.846 0.488 0.045 !       6.10 eA-3
C102 0.068 0.564 0.060 !       2.68 eA-3
C103 0.860 0.374 0.002 !       2.41 eA-3
C104 0.132 0.484 0.030 !       2.30 eA-3
C105 1.015 0.445 0.047 !       2.25 eA-3
C106 0.990 0.389 0.002 !       2.15 eA-3
Q107 0.121 0.405 0.034 !       1.83 eA-3
C108 0.967 0.476 0.002 !       1.82 eA-3
Q109 0.167 0.565 0.144 !       1.55 eA-3
Q110 0.244 0.427 0.091 !       1.49 eA-3
Q111 0.294 0.568 0.048 !       1.48 eA-3
Q112 0.397 0.660 0.031 !       1.48 eA-3
Q113 0.736 0.361 0.143 !       1.44 eA-3
Q114 0.284 0.341 0.142 !       1.38 eA-3
Q115 0.154 0.657 0.073 !       1.37 eA-3
Q116 1.003 0.700 0.091 !       1.34 eA-3
Q117 0.909 0.656 0.013 !       1.33 eA-3
Q118 0.823 0.560 0.078 !       1.33 eA-3
Q119 0.724 0.523 0.123 !       1.33 eA-3
Q120 0.475 0.467 0.158 !       1.33 eA-3
Q121 0.381 0.387 0.045 !       1.32 eA-3
Q122 0.464 0.485 0.346 !       1.31 eA-3
Q123 0.962 0.372 0.102 !       1.31 eA-3
Q124 0.707 0.595 0.189 !       1.31 eA-3
Q125 0.538 0.654 0.154 !       1.29 eA-3
Q126 0.401 0.937 0.300 !       1.29 eA-3
Q127 0.083 0.694 0.153 !       1.28 eA-3
Q128 0.130 0.789 0.203 !       1.28 eA-3
Q129 0.697 0.467 0.093 !       1.28 eA-3
Q130 0.344 0.472 0.267 !       1.25 eA-3
Q131 0.182 0.400 0.171 !       1.24 eA-3
Q132 0.940 0.552 0.172 !       1.23 eA-3
Q133 0.240 0.721 0.251 !       1.23 eA-3
Q134 0.348 0.498 0.142 !       1.22 eA-3
Q135 0.192 0.899 0.326 !       1.21 eA-3
Q136 0.779 0.203 0.096 !       1.21 eA-3
Q137 0.194 0.142 0.186 !       1.20 eA-3
Q138 0.033 0.322 0.047 !       1.20 eA-3
Q139 0.454 0.561 0.108 !       1.18 eA-3
Q140 0.274 0.744 0.127 !       1.18 eA-3
Q141 0.312 0.823 0.063 !       1.16 eA-3
Q142 0.542 0.578 0.064 !       1.15 eA-3
Q143 0.623 0.466 0.157 !       1.14 eA-3
Q144 0.171 0.519 0.220 !       1.14 eA-3
Q145 0.883 0.530 0.326 !       1.13 eA-3
Q146 0.662 0.326 0.184 !       1.12 eA-3
Q147 0.997 0.768 0.127 !       1.12 eA-3
Q148 0.552 0.542 0.113 !       1.11 eA-3
Q149 0.299 0.723 0.315 !       1.11 eA-3
Q150 0.281 0.515 0.191 !       1.10 eA-3
Q151 0.558 0.679 0.111 !       1.10 eA-3
Q152 0.539 0.250 0.183 !       1.10 eA-3
Q153 0.479 0.700 0.203 !       1.10 eA-3
Q154 0.751 0.611 0.013 !       1.08 eA-3
Q155 0.277 0.735 0.411 !       1.08 eA-3
Q156 0.713 0.641 0.309 !       1.08 eA-3
Q157 0.805 0.439 0.203 !       1.07 eA-3
Q158 0.045 0.721 0.308 !       1.06 eA-3
Q159 0.810 0.499 0.266 !       1.06 eA-3
Q160 0.677 0.720 0.481 !       1.06 eA-3
Q161 0.619 1.001 0.358 !       1.06 eA-3
Q162 0.454 0.485 0.201 !       1.05 eA-3
Q163 0.963 0.603 0.189 !       1.05 eA-3
Q164 0.122 0.829 0.250 !       1.05 eA-3
Q165 0.360 0.809 0.253 !       1.04 eA-3
Q166 0.225 0.609 0.267 !       1.04 eA-3
Q167 0.873 0.815 0.420 !       1.03 eA-3
Q168 0.291 0.857 0.297 !       1.03 eA-3
Q169 0.193 0.247 0.080 !       1.02 eA-3
Q170 0.259 0.605 0.107 !       1.02 eA-3
Q171 0.192 1.008 0.362 !       1.02 eA-3
Q172 0.622 0.374 0.095 !       1.01 eA-3
Q173 0.336 0.642 0.328 !       1.00 eA-3
Q174 0.114 0.219 0.451 !       1.00 eA-3
Q175 0.851 0.980 0.437 !       0.99 eA-3
Q176 0.440 0.754 0.062 !       0.99 eA-3
Q177 0.698 0.319 0.312 !       0.99 eA-3
Q178 0.466 0.813 0.484 !       0.99 eA-3
Q179 0.277 0.973 0.298 !       0.99 eA-3
Q180 0.990 0.658 0.232 !       0.98 eA-3
Q181 0.963 0.170 0.268 !       0.98 eA-3
Q182 1.001 0.869 0.393 !       0.98 eA-3
Q183 0.501 0.560 0.188 !       0.98 eA-3
Q184 0.190 0.829 0.341 !       0.97 eA-3
Q185 0.759 0.796 0.376 !       0.97 eA-3
Q186 0.343 0.547 0.330 !       0.97 eA-3
Q187 0.236 0.361 0.219 !       0.97 eA-3
Q188 0.768 0.689 0.220 !       0.96 eA-3
Q189 0.457 0.374 0.366 !       0.96 eA-3
Q190 0.335 0.423 0.199 !       0.96 eA-3
Q191 0.602 0.385 0.422 !       0.96 eA-3
Q192 0.391 0.627 0.169 !       0.96 eA-3
Q193 0.097 0.021 0.472 !       0.96 eA-3
Q194 0.443 0.236 0.253 !       0.96 eA-3
Q195 0.780 0.247 0.343 !       0.95 eA-3
Q196 0.445 0.953 0.107 !       0.95 eA-3
Q197 0.380 0.950 0.169 !       0.95 eA-3
Q198 0.707 0.527 0.453 !       0.95 eA-3
Q199 0.100 0.865 0.265 !       0.95 eA-3
)
;
_shelx_fab_checksum              26361
loop_
_space_group_symop_id
_space_group_symop_operation_xyz
1 +X,+Y,+Z
2 -X,-Y,-Z
loop_
_atom_site_label
_atom_site_type_symbol
_atom_site_fract_x
_atom_site_fract_y
_atom_site_fract_z
_atom_site_U_iso_or_equiv
_atom_site_adp_type
_atom_site_occupancy
_atom_site_site_symmetry_order
_atom_site_calc_flag
_atom_site_refinement_flags_posn
_atom_site_refinement_flags_adp
Se1 Se 0.40913(18) 0.13115(12) 0.26951(9) 0.0363(4) Uani 1 1 d . .
Se2 Se 0.53153(19) 0.35062(12) 0.22657(9) 0.0396(4) Uani 1 1 d . .
S1 S 0.7276(5) 0.9125(3) 0.0658(2) 0.0411(8) Uani 1 1 d . .
F1 F 0.7638(12) 1.0005(8) -0.0193(6) 0.057(2) Uani 1 1 d . .
F2 F 0.6638(12) 1.0218(8) 0.1180(6) 0.054(2) Uani 1 1 d . .
F3 F 0.5183(12) 0.8327(8) 0.0006(6) 0.056(2) Uani 1 1 d . .
F4 F 0.8011(12) 0.8113(8) 0.0074(6) 0.053(2) Uani 1 1 d . .
F5 F 0.9397(10) 0.9966(7) 0.1233(5) 0.0457(18) Uani 1 1 d . .
O14 O 0.2912(12) -0.0469(8) 0.3506(6) 0.041(2) Uani 1 1 d . .
O18 O -0.0754(13) -0.4775(8) 0.6576(7) 0.047(2) Uani 1 1 d . .
O19 O -0.0636(17) -0.3112(9) 0.7639(8) 0.065(3) Uani 1 1 d . .
N4 N 0.4630(13) 0.3509(9) 0.4201(7) 0.031(2) Uani 1 1 d . .
N6 N 0.5681(15) 0.5598(10) 0.3762(8) 0.040(2) Uani 1 1 d . .
H6 H 0.574483 0.599343 0.444581 0.048 Uiso 1 1 calc R U
N13 N 0.3415(13) 0.1385(9) 0.4654(7) 0.031(2) Uani 1 1 d . .
N18 N -0.0298(13) -0.3544(10) 0.6868(8) 0.035(2) Uani 1 1 d . .
C3 C 0.5155(19) 0.4258(15) 0.3529(10) 0.048(3) Uani 1 1 d . .
C5 C 0.4068(16) 0.2175(11) 0.3979(8) 0.029(2) Uani 1 1 d . .
C7 C 0.6159(18) 0.6495(12) 0.3064(9) 0.038(3) Uani 1 1 d . .
C8 C 0.483(2) 0.7034(14) 0.2673(10) 0.046(3) Uani 1 1 d . .
H8 H 0.369214 0.686290 0.289768 0.055 Uiso 1 1 calc R U
C9 C 0.5198(19) 0.7845(14) 0.1932(10) 0.044(3) Uani 1 1 d . .
H9 H 0.429027 0.820395 0.164079 0.053 Uiso 1 1 calc R U
C10 C 0.6855(17) 0.8103(12) 0.1643(9) 0.038(3) Uani 1 1 d . .
C11 C 0.8230(19) 0.7588(13) 0.2043(9) 0.043(3) Uani 1 1 d . .
H11 H 0.938226 0.778573 0.182716 0.051 Uiso 1 1 calc R U
C12 C 0.7859(15) 0.6758(12) 0.2781(8) 0.032(3) Uani 1 1 d . .
H12 H 0.876282 0.639479 0.307182 0.038 Uiso 1 1 calc R U
C14 C 0.2844(16) 0.0033(11) 0.4331(8) 0.031(2) Uani 1 1 d . .
C15 C 0.2128(15) -0.0835(11) 0.5034(9) 0.030(2) Uani 1 1 d . .
C16 C 0.1891(15) -0.2220(11) 0.4814(9) 0.035(3) Uani 1 1 d . .
H16 H 0.227464 -0.254607 0.425495 0.042 Uiso 1 1 calc R U
C17 C 0.1076(16) -0.3112(11) 0.5436(8) 0.032(3) Uani 1 1 d . .
H17 H 0.092047 -0.404018 0.530903 0.038 Uiso 1 1 calc R U
C18 C 0.0522(16) -0.2605(12) 0.6218(9) 0.037(3) Uani 1 1 d . .
C19 C 0.0784(18) -0.1262(12) 0.6478(9) 0.042(3) Uani 1 1 d . .
H19 H 0.041771 -0.094706 0.704766 0.050 Uiso 1 1 calc R U
C20 C 0.1622(16) -0.0365(12) 0.5862(9) 0.035(3) Uani 1 1 d . .
H20 H 0.183448 0.056951 0.602409 0.042 Uiso 1 1 calc R U
loop_
_atom_site_aniso_label
_atom_site_aniso_U_11
_atom_site_aniso_U_22
_atom_site_aniso_U_33
_atom_site_aniso_U_23
_atom_site_aniso_U_13
_atom_site_aniso_U_12
Se1 0.0440(7) 0.0301(6) 0.0329(7) 0.0031(5) 0.0120(5) 0.0102(5)
Se2 0.0533(8) 0.0326(7) 0.0321(7) 0.0072(5) 0.0150(6) 0.0115(6)
S1 0.0497(19) 0.0421(18) 0.0378(18) 0.0144(14) 0.0185(15) 0.0179(15)
F1 0.070(5) 0.064(5) 0.052(5) 0.029(4) 0.035(4) 0.026(4)
F2 0.080(6) 0.051(5) 0.052(5) 0.024(4) 0.032(4) 0.037(4)
F3 0.062(5) 0.061(5) 0.050(5) 0.022(4) 0.024(4) 0.019(4)
F4 0.075(6) 0.050(5) 0.051(5) 0.018(4) 0.034(4) 0.031(4)
F5 0.051(4) 0.040(4) 0.045(4) 0.011(3) 0.021(4) 0.008(3)
O14 0.048(5) 0.031(4) 0.034(5) 0.002(4) 0.005(4) 0.005(4)
O18 0.051(5) 0.028(5) 0.055(6) 0.002(4) 0.008(4) 0.009(4)
O19 0.101(9) 0.035(5) 0.072(7) 0.020(5) 0.051(7) 0.023(5)
N4 0.035(5) 0.033(5) 0.026(5) 0.007(4) -0.002(4) 0.018(4)
N6 0.052(6) 0.037(6) 0.035(6) 0.014(5) 0.012(5) 0.019(5)
N13 0.041(6) 0.025(5) 0.023(5) 0.001(4) 0.002(4) 0.011(4)
N18 0.026(5) 0.032(5) 0.047(6) 0.008(5) 0.008(5) 0.009(4)
C3 0.047(8) 0.059(9) 0.042(8) 0.031(7) 0.015(6) 0.014(7)
C5 0.033(6) 0.036(6) 0.018(5) 0.006(5) 0.007(4) 0.013(5)
C7 0.051(8) 0.029(6) 0.033(7) 0.008(5) 0.016(6) 0.010(5)
C8 0.052(8) 0.054(8) 0.044(8) 0.024(6) 0.026(6) 0.023(7)
C9 0.049(8) 0.057(8) 0.047(8) 0.022(7) 0.022(6) 0.034(7)
C10 0.032(6) 0.030(6) 0.043(7) -0.003(5) 0.011(5) 0.003(5)
C11 0.045(7) 0.052(8) 0.039(7) 0.010(6) 0.015(6) 0.025(6)
C12 0.021(5) 0.045(7) 0.032(6) 0.012(5) -0.001(5) 0.017(5)
C14 0.036(6) 0.027(6) 0.024(6) 0.000(5) 0.013(5) 0.002(5)
C15 0.029(6) 0.024(5) 0.034(6) -0.005(5) 0.002(5) 0.010(5)
C16 0.027(6) 0.031(6) 0.044(7) 0.000(5) 0.005(5) 0.011(5)
C17 0.037(6) 0.024(5) 0.032(6) 0.005(5) 0.010(5) 0.005(5)
C18 0.030(6) 0.039(7) 0.039(7) 0.019(6) 0.002(5) 0.007(5)
C19 0.046(7) 0.037(7) 0.033(7) 0.001(5) 0.016(6) 0.001(6)
C20 0.036(6) 0.033(6) 0.044(7) 0.016(5) 0.005(5) 0.025(5)
loop_
_atom_type_symbol
_atom_type_description
_atom_type_scat_dispersion_real
_atom_type_scat_dispersion_imag
_atom_type_scat_source
C C 0.0033 0.0016
;
International Tables for Crystallography
(Vol. C, Tables 4.2.6.8 and 6.1.1.4)
;
H H 0.0000 0.0000
;
International Tables for Crystallography
(Vol. C, Table 6.1.1.4)
;
F F 0.0171 0.0103
;
International Tables for Crystallography
(Vol. C, Tables 4.2.6.8 and 6.1.1.4)
;
N N 0.0061 0.0033
;
International Tables for Crystallography
(Vol. C, Tables 4.2.6.8 and 6.1.1.4)
;
O O 0.0106 0.0060
;
International Tables for Crystallography
(Vol. C, Tables 4.2.6.8 and 6.1.1.4)
;
S S 0.1246 0.1234
;
International Tables for Crystallography
(Vol. C, Tables 4.2.6.8 and 6.1.1.4)
;
Se Se -0.0929 2.2259
;
International Tables for Crystallography
(Vol. C, Tables 4.2.6.8 and 6.1.1.4)
;
loop_
_geom_angle_atom_site_label_1
_geom_angle_atom_site_label_2
_geom_angle_atom_site_label_3
_geom_angle
C5 Se1 O14 76.1(4)
C5 Se1 Se2 88.4(3)
O14 Se1 Se2 164.5(2)
C3 Se2 Se1 88.5(4)
F2 S1 F5 89.5(5)
F2 S1 F3 91.4(5)
F5 S1 F3 175.6(4)
F2 S1 F1 88.0(4)
F5 S1 F1 87.5(4)
F3 S1 F1 88.2(4)
F2 S1 F4 174.9(4)
F5 S1 F4 88.8(5)
F3 S1 F4 90.0(5)
F1 S1 F4 87.1(4)
F2 S1 C10 92.0(5)
F5 S1 C10 92.6(5)
F3 S1 C10 91.7(5)
F1 S1 C10 179.9(7)
F4 S1 C10 92.8(5)
C14 O14 Se1 106.4(7)
C3 N4 C5 120.3(11)
C3 N6 C7 123.6(11)
C3 N6 H6 118.2
C7 N6 H6 118.2
C14 N13 C5 115.1(9)
O19 N18 O18 121.4(10)
O19 N18 C18 120.0(10)
O18 N18 C18 118.4(11)
N4 C3 N6 119.4(13)
N4 C3 Se2 122.1(11)
N6 C3 Se2 118.4(9)
N4 C5 N13 120.6(10)
N4 C5 Se1 120.5(8)
N13 C5 Se1 118.8(8)
C12 C7 C8 122.2(11)
C12 C7 N6 120.2(11)
C8 C7 N6 117.5(11)
C7 C8 C9 119.0(12)
C7 C8 H8 120.5
C9 C8 H8 120.5
C10 C9 C8 119.3(12)
C10 C9 H9 120.3
C8 C9 H9 120.3
C9 C10 C11 122.5(12)
C9 C10 S1 118.6(10)
C11 C10 S1 118.9(9)
C10 C11 C12 118.4(11)
C10 C11 H11 120.8
C12 C11 H11 120.8
C7 C12 C11 118.5(10)
C7 C12 H12 120.7
C11 C12 H12 120.7
O14 C14 N13 123.6(10)
O14 C14 C15 120.2(10)
N13 C14 C15 116.2(10)
C20 C15 C16 119.8(11)
C20 C15 C14 122.4(10)
C16 C15 C14 117.7(10)
C17 C16 C15 119.4(11)
C17 C16 H16 120.3
C15 C16 H16 120.3
C18 C17 C16 118.2(11)
C18 C17 H17 120.9
C16 C17 H17 120.9
C17 C18 C19 124.2(11)
C17 C18 N18 117.5(11)
C19 C18 N18 118.1(12)
C18 C19 C20 117.5(12)
C18 C19 H19 121.3
C20 C19 H19 121.3
C15 C20 C19 120.7(11)
C15 C20 H20 119.6
C19 C20 H20 119.6
loop_
_geom_bond_atom_site_label_1
_geom_bond_atom_site_label_2
_geom_bond_distance
Se1 C5 1.920(11)
Se1 O14 2.313(8)
Se1 Se2 2.397(3)
Se2 C3 1.889(15)
S1 F2 1.568(8)
S1 F5 1.576(8)
S1 F3 1.584(9)
S1 F1 1.587(8)
S1 F4 1.591(8)
S1 C10 1.840(13)
O14 C14 1.227(13)
O18 N18 1.241(12)
O19 N18 1.224(14)
N4 C3 1.320(15)
N4 C5 1.325(14)
N6 C3 1.335(17)
N6 C7 1.438(14)
N6 H6 0.9800
N13 C14 1.358(14)
N13 C5 1.374(14)
N18 C18 1.477(15)
C7 C12 1.380(17)
C7 C8 1.384(18)
C8 C9 1.415(17)
C8 H8 0.9500
C9 C10 1.353(17)
C9 H9 0.9500
C10 C11 1.399(17)
C11 C12 1.426(16)
C11 H11 0.9500
C12 H12 0.9500
C14 C15 1.465(16)
C15 C20 1.375(17)
C15 C16 1.420(15)
C16 C17 1.417(16)
C16 H16 0.9500
C17 C18 1.359(17)
C17 H17 0.9500
C18 C19 1.378(17)
C19 C20 1.419(16)
C19 H19 0.9500
C20 H20 0.9500
loop_
_geom_hbond_atom_site_label_D
_geom_hbond_atom_site_label_H
_geom_hbond_atom_site_label_A
_geom_hbond_distance_DH
_geom_hbond_distance_HA
_geom_hbond_distance_DA
_geom_hbond_angle_DHA
_geom_hbond_site_symmetry_A
_geom_hbond_publ_flag
N6 H6 N4 0.98 1.99 2.956(15) 168.3 2_666 yes
loop_
_geom_torsion_atom_site_label_1
_geom_torsion_atom_site_label_2
_geom_torsion_atom_site_label_3
_geom_torsion_atom_site_label_4
_geom_torsion
C5 N4 C3 N6 178.7(11)
C5 N4 C3 Se2 -4.6(16)
C7 N6 C3 N4 -175.9(11)
C7 N6 C3 Se2 7.4(17)
Se1 Se2 C3 N4 3.9(10)
Se1 Se2 C3 N6 -179.4(10)
C3 N4 C5 N13 -176.2(11)
C3 N4 C5 Se1 2.2(15)
C14 N13 C5 N4 178.7(10)
C14 N13 C5 Se1 0.3(13)
C3 N6 C7 C12 -73.7(17)
C3 N6 C7 C8 104.3(15)
C12 C7 C8 C9 2(2)
N6 C7 C8 C9 -175.7(12)
C7 C8 C9 C10 -2(2)
C8 C9 C10 C11 1(2)
C8 C9 C10 S1 178.6(11)
F2 S1 C10 C9 47.6(11)
F5 S1 C10 C9 137.1(11)
F3 S1 C10 C9 -43.9(11)
F4 S1 C10 C9 -133.9(11)
F2 S1 C10 C11 -134.3(10)
F5 S1 C10 C11 -44.8(10)
F3 S1 C10 C11 134.2(10)
F4 S1 C10 C11 44.1(10)
C9 C10 C11 C12 0.1(19)
S1 C10 C11 C12 -177.9(9)
C8 C7 C12 C11 -1.6(19)
N6 C7 C12 C11 176.3(11)
C10 C11 C12 C7 0.4(18)
Se1 O14 C14 N13 -1.1(14)
Se1 O14 C14 C15 179.2(9)
C5 N13 C14 O14 0.7(17)
C5 N13 C14 C15 -179.6(10)
O14 C14 C15 C20 -165.1(11)
N13 C14 C15 C20 15.2(16)
O14 C14 C15 C16 12.4(16)
N13 C14 C15 C16 -167.3(10)
C20 C15 C16 C17 2.0(16)
C14 C15 C16 C17 -175.6(10)
C15 C16 C17 C18 0.9(16)
C16 C17 C18 C19 -3.3(18)
C16 C17 C18 N18 -179.1(10)
O19 N18 C18 C17 172.5(11)
O18 N18 C18 C17 -12.6(15)
O19 N18 C18 C19 -3.7(16)
O18 N18 C18 C19 171.3(10)
C17 C18 C19 C20 2.5(18)
N18 C18 C19 C20 178.3(10)
C16 C15 C20 C19 -2.8(17)
C14 C15 C20 C19 174.6(11)
C18 C19 C20 C15 0.7(17)
