#------------------------------------------------------------------------------
#$Date: 2019-11-08 02:34:44 +0200 (Fri, 08 Nov 2019) $
#$Revision: 224800 $
#$URL: file:///home/coder/svn-repositories/cod/cif/7/05/80/7058071.cif $
#------------------------------------------------------------------------------
#
# This file is available in the Crystallography Open Database (COD),
# http://www.crystallography.net/
#
# All data on this site have been placed in the public domain by the
# contributors.
#
data_7058071
loop_
_publ_author_name
'Wang, Guilong'
'Lu, Tian'
'Fan, Guijuan'
'Yin, Hongquan'
'Chen, Fu-Xue'
_publ_section_title
;
 Synthesis and properties of insensitive
 [1,2,4]triazolo[4,3-b]-1,2,4,5-tetrazine explosives
;
_journal_issue                   4
_journal_name_full               'New Journal of Chemistry'
_journal_page_first              1663
_journal_paper_doi               10.1039/C8NJ05220D
_journal_volume                  43
_journal_year                    2019
_chemical_formula_sum            'C3 H2 Cl N7'
_chemical_formula_weight         171.57
_space_group_crystal_system      orthorhombic
_space_group_IT_number           62
_space_group_name_Hall           '-P 2ac 2n'
_space_group_name_H-M_alt        'P n m a'
_symmetry_space_group_name_Hall  '-P 2ac 2n'
_symmetry_space_group_name_H-M   'P n m a'
_atom_sites_solution_hydrogens   geom
_audit_creation_method           SHELXL-2018/3
_audit_update_record
;
2018-12-05 deposited with the CCDC.
2018-12-17 downloaded from the CCDC.
;
_cell_angle_alpha                90
_cell_angle_beta                 90
_cell_angle_gamma                90
_cell_formula_units_Z            4
_cell_length_a                   7.5145(11)
_cell_length_b                   6.2774(9)
_cell_length_c                   13.7315(19)
_cell_measurement_reflns_used    4824
_cell_measurement_temperature    296(2)
_cell_measurement_theta_max      28.30
_cell_measurement_theta_min      2.97
_cell_volume                     647.74(16)
_computing_cell_refinement       'Bruker SAINT'
_computing_data_collection       'Bruker APEX2'
_computing_data_reduction        'Bruker SAINT'
_computing_molecular_graphics    'Bruker SHELXTL'
_computing_publication_material  'Bruker SHELXTL'
_computing_structure_refinement  'SHELXL-2014 (Sheldrick 2014)'
_computing_structure_solution    'SHELXS-97 (Sheldrick 2008)'
_diffrn_ambient_temperature      296(2)
_diffrn_measured_fraction_theta_full 0.998
_diffrn_measured_fraction_theta_max 0.997
_diffrn_measurement_device_type  'Bruker APEX-II CCD'
_diffrn_measurement_method       '\f and \w scans'
_diffrn_radiation_type           MoK\a
_diffrn_radiation_wavelength     0.71073
_diffrn_reflns_av_R_equivalents  0.0176
_diffrn_reflns_av_unetI/netI     0.0090
_diffrn_reflns_Laue_measured_fraction_full 0.998
_diffrn_reflns_Laue_measured_fraction_max 0.997
_diffrn_reflns_limit_h_max       9
_diffrn_reflns_limit_h_min       -9
_diffrn_reflns_limit_k_max       8
_diffrn_reflns_limit_k_min       -8
_diffrn_reflns_limit_l_max       18
_diffrn_reflns_limit_l_min       -18
_diffrn_reflns_number            7415
_diffrn_reflns_point_group_measured_fraction_full 0.998
_diffrn_reflns_point_group_measured_fraction_max 0.997
_diffrn_reflns_theta_full        25.242
_diffrn_reflns_theta_max         28.289
_diffrn_reflns_theta_min         2.967
_exptl_absorpt_coefficient_mu    0.525
_exptl_absorpt_correction_type   none
_exptl_crystal_colour            red
_exptl_crystal_density_diffrn    1.759
_exptl_crystal_description       cube
_exptl_crystal_F_000             344
_exptl_crystal_size_max          0.150
_exptl_crystal_size_mid          0.130
_exptl_crystal_size_min          0.100
_exptl_transmission_factor_max   0.949
_exptl_transmission_factor_min   0.925
_refine_diff_density_max         0.328
_refine_diff_density_min         -0.238
_refine_diff_density_rms         0.043
_refine_ls_extinction_method     none
_refine_ls_goodness_of_fit_ref   1.027
_refine_ls_hydrogen_treatment    constr
_refine_ls_matrix_type           full
_refine_ls_number_parameters     67
_refine_ls_number_reflns         869
_refine_ls_number_restraints     0
_refine_ls_restrained_S_all      1.027
_refine_ls_R_factor_all          0.0312
_refine_ls_R_factor_gt           0.0295
_refine_ls_shift/su_max          0.000
_refine_ls_shift/su_mean         0.000
_refine_ls_structure_factor_coef Fsqd
_refine_ls_weighting_details
'w=1/[\s^2^(Fo^2^)+(0.0628P)^2^+0.1282P] where P=(Fo^2^+2Fc^2^)/3'
_refine_ls_weighting_scheme      calc
_refine_ls_wR_factor_gt          0.0897
_refine_ls_wR_factor_ref         0.0919
_reflns_Friedel_coverage         0.000
_reflns_number_gt                814
_reflns_number_total             869
_reflns_threshold_expression     'I > 2\s(I)'
_cod_data_source_file            c8nj05220d2.cif
_cod_data_source_block           1_CCDC1
_cod_depositor_comments
'Adding full bibliography for 7058070--7058071.cif.'
_cod_database_code               7058071
_shelx_shelxl_version_number     2018/3
_shelx_space_group_comment
;
The symmetry employed for this shelxl refinement is uniquely defined
by the following loop, which should always be used as a source of
symmetry information in preference to the above space-group names.
They are only intended as comments.
;
_shelx_res_file
;
TITL 1_a.res in P-1 New: Pnma
    1.res
    created by SHELXL-2018/3 at 10:59:05 on 30-Nov-2018
CELL 0.71073 7.5145 6.2774 13.7315 90 90 90
ZERR 4 0.0011 0.0009 0.0019 0 0 0
LATT 1
SYMM 0.5-X,-Y,0.5+Z
SYMM 0.5+X,0.5-Y,0.5-Z
SYMM -X,0.5+Y,-Z
SFAC C  N  H  Cl
UNIT 12  28  8  4
L.S. 20
ACTA
BOND $H
FMAP 2
PLAN 5
HTAB N7 N3_$2
HTAB N7 N4_$2
HTAB N7 N1_$1
HTAB N7 N3_$2
HTAB N7 N4_$2
HTAB N7 N1_$1
HTAB N7 N3_$2
HTAB N7 N4_$2
HTAB N7 N1_$1
SIZE 0.15 0.13 0.1
htab
EQIV $1 x-1, y, z
HTAB N7 N1_$1
EQIV $2 x-1/2, y, -z+1/2
HTAB N7 N4_$2
HTAB N7 N3_$2
HTAB N7 N1_$1
HTAB N7 N4_$2
HTAB N7 N3_$2
TEMP 23
WGHT    0.062800    0.128200
FVAR       0.97272
CL1   4    0.271201    0.250000   -0.219094    10.50000    0.05219    0.06130 =
         0.02556    0.00000    0.00104    0.00000
N6    2    0.283948    0.250000   -0.024008    10.50000    0.02942    0.03625 =
         0.02546    0.00000   -0.00240    0.00000
N5    2    0.105152    0.250000   -0.005512    10.50000    0.02932    0.04726 =
         0.02703    0.00000    0.00020    0.00000
N2    2    0.546628    0.250000   -0.093869    10.50000    0.03552    0.04959 =
         0.04394    0.00000    0.00566    0.00000
N4    2    0.205896    0.250000    0.164184    10.50000    0.05034    0.05163 =
         0.02479    0.00000   -0.00236    0.00000
N1    2    0.573294    0.250000    0.004482    10.50000    0.03348    0.05506 =
         0.04573    0.00000   -0.00268    0.00000
N7    2   -0.089729    0.250000    0.123414    10.50000    0.04113    0.06948 =
         0.03336    0.00000    0.00926    0.00000
AFIX  93
H7A   3   -0.178309    0.250000    0.083758    10.50000   -1.20000
H7B   3   -0.108195    0.250000    0.185223    10.50000   -1.20000
AFIX   0
N3    2    0.370713    0.250000    0.141909    10.50000    0.04603    0.05260 =
         0.03075    0.00000   -0.01059    0.00000
C3    1    0.075765    0.250000    0.089166    10.50000    0.03797    0.03857 =
         0.02760    0.00000    0.00113    0.00000
C1    1    0.372064    0.250000   -0.110017    10.50000    0.03430    0.03954 =
         0.03069    0.00000    0.00380    0.00000
C2    1    0.412876    0.250000    0.045094    10.50000    0.03259    0.04159 =
         0.03208    0.00000   -0.00688    0.00000
HKLF 4 1 0 1 0 1 0 0 0 0 -1




REM  1_a.res in P-1 New: Pnma
REM wR2 = 0.0919, GooF = S = 1.027, Restrained GooF = 1.027 for all data
REM R1 = 0.0295 for 814 Fo > 4sig(Fo) and 0.0312 for all 869 data
REM 67 parameters refined using 0 restraints

END

WGHT      0.0580      0.1301

REM Instructions for potential hydrogen bonds
HTAB N7 N1_$1
HTAB N7 N4_$2
HTAB N7 N3_$2

REM Highest difference peak  0.328,  deepest hole -0.238,  1-sigma level  0.043
Q1    1   0.3461  0.2500  0.0129  10.50000  0.05    0.33
Q2    1   0.1569  0.2500  0.1181  10.50000  0.05    0.30
Q3    1   0.5050  0.2500  0.0284  10.50000  0.05    0.26
Q4    1   0.2235  0.2500 -0.0189  10.50000  0.05    0.25
Q5    1   0.3340  0.1564 -0.1993  11.00000  0.05    0.24
;
_shelx_res_checksum              42832
_shelx_hkl_file
;
   0   1   0   -0.20    0.20
   0   1   0   -0.50    0.10
   0   1   0   -0.30    0.10
   0  -1   0   -0.60    0.10
   0  -1   0   -0.30    0.20
   0  -1   0    0.20    0.10
   0   2   0  654.63   11.90
   0   2   0  666.83   11.60
   0   2   0  651.53   11.70
   0  -2   0  667.73   11.90
   0  -2   0  663.63   12.10
   0  -2   0  663.13   11.80
   0   3   0   -1.30    0.20
   0   3   0   -0.90    0.20
   0   3   0   -0.80    0.30
   0  -3   0   -1.20    0.20
   0  -3   0   -1.30    0.20
   0  -3   0   -1.30    0.30
   0   4   0   60.39    1.50
   0  -4   0   62.39    1.60
   0  -4   0   59.49    1.50
   0   5   0   -0.20    0.30
   0  -5   0    0.10    0.30
   0  -5   0    0.00    0.40
   0   6   0 1335.27   23.60
   0  -6   0 1318.57   23.60
   0  -6   0 1362.56   23.90
   0   7   0   -0.80    0.40
   0  -7   0    0.00    0.40
   0  -7   0    0.00    0.50
   0   8   0    0.30    0.50
   0  -8   0    0.60    0.60
   0   9   0   -0.20    0.50
   0   9   0   -0.20    0.50
   0  -9   0   -0.70    0.60
   1  -9   0   -0.70    0.60
  -1   9   0   -0.20    0.50
   1  -8   0   90.49    2.80
  -1   8   0   89.09    2.50
  -1   8   0   88.99    2.30
   1  -7   0   -0.70    0.50
   1  -7   0   -0.10    0.40
  -1   7   0   -0.40    0.40
   1  -6   0   14.40    0.80
   1  -6   0   11.70    1.10
  -1   6   0   13.10    0.80
   1  -5   0   -0.10    0.40
   1  -5   0    0.40    0.30
  -1   5   0    0.00    0.30
   1  -4   0 1229.18   21.50
   1  -4   0 1246.48   21.30
  -1   4   0 1218.88   21.40
  -1   4   0 1172.78   21.20
   1  -3   0   -0.70    0.20
  -1   3   0   -0.90    0.20
  -1   3   0   -1.00    0.20
   1  -2   0  451.75    8.60
   1  -2   0  478.95    8.40
  -1   2   0  506.85    8.60
  -1   2   0  494.45    8.70
  -1   2   0  488.35    8.60
   1  -1   0   -0.30    0.10
   1  -1   0   -0.30    0.20
  -1   1   0   -0.20    0.20
  -1   1   0   -0.20    0.20
   1   0   0   45.40    0.90
   1   0   0   43.30    0.80
   1   0   0   44.40    0.90
  -1   0   0   37.90    0.90
  -1   0   0   40.40    0.90
  -1   0   0   41.00    0.80
   1   1   0   -0.20    0.10
   1   1   0   -0.40    0.10
   1   1   0   -0.20    0.10
   1   1   0   -0.40    0.10
  -1  -1   0   -0.30    0.20
  -1  -1   0   -0.40    0.20
   1   2   0  502.65    8.90
   1   2   0  489.95    8.80
  -1  -2   0  525.35    8.80
  -1  -2   0  490.95    8.90
  -1  -2   0  501.85    8.90
   1   3   0   -0.60    0.30
   1   3   0   -1.00    0.20
  -1  -3   0   -0.70    0.20
  -1  -3   0   -0.50    0.30
  -1  -3   0   -1.10    0.20
   1   4   0 1264.47   21.80
  -1  -4   0 1252.77   22.40
  -1  -4   0 1220.98   21.90
   1   5   0    0.20    0.30
  -1  -5   0   -0.30    0.30
  -1  -5   0   -0.30    0.30
   1   6   0   11.40    0.90
  -1  -6   0   12.60    1.00
  -1  -6   0   14.30    1.00
   1   7   0   -0.40    0.40
  -1  -7   0    0.20    0.50
  -1  -7   0   -0.40    0.50
   1   8   0   93.09    2.50
  -1  -8   0   93.69    2.70
   1   9   0   -0.30    0.50
   1   9   0   -0.50    0.50
   2  -9   0   -0.30    0.70
  -2   9   0   -0.90    0.50
   2  -8   0   -0.30    0.70
  -2   8   0    0.40    0.50
   2  -7   0   -0.20    0.60
  -2   7   0   -0.40    0.30
  -2   7   0   -0.20    0.50
   2  -6   0  988.70   17.80
   2  -6   0  973.10   17.20
  -2   6   0  963.30   17.60
   2  -5   0    0.90    0.30
   2  -5   0   -0.20    0.40
  -2   5   0    1.20    0.20
  -2   5   0    0.10    0.40
   2  -4   0   23.70    0.70
   2  -4   0   24.30    1.00
  -2   4   0   24.20    0.70
  -2   4   0   24.70    0.90
   2  -3   0   -0.40    0.10
   2  -3   0   -0.70    0.30
  -2   3   0   -0.40    0.20
   2  -2   0  411.16    7.50
  -2   2   0  409.26    7.40
   2  -1   0    0.00    0.10
   2  -1   0   -0.10    0.30
   2  -1   0    0.00    0.10
   2  -1   0   -0.40    0.20
  -2   1   0   -0.40    0.20
   2   1   0   -0.50    0.20
   2   1   0   -0.20    0.20
   2   1   0   -0.30    0.20
  -2  -1   0    0.10    0.20
  -2  -1   0    0.00    0.20
  -2  -1   0   -0.50    0.20
   2   2   0  404.66    7.40
   2   2   0  427.26    7.50
   2   2   0  429.56    7.60
  -2  -2   0  416.96    7.60
  -2  -2   0  416.86    7.60
   2   3   0   -0.40    0.20
  -2  -3   0    0.40    0.30
  -2  -3   0   -0.80    0.30
   2   4   0   25.60    0.90
  -2  -4   0   24.50    1.10
  -2  -4   0   26.80    1.00
   2   5   0    0.60    0.30
  -2  -5   0   -0.20    0.40
  -2  -5   0   -0.10    0.40
   2   6   0  996.20   17.80
  -2  -6   0  993.30   18.00
  -2  -6   0 1014.00   18.10
   2   7   0    0.00    0.40
  -2  -7   0   -0.20    0.50
  -2  -7   0   -0.10    0.50
   2   8   0    0.20    0.50
  -2  -8   0    0.20    0.60
   2   9   0    0.20    0.60
   2   9   0   -0.20    0.50
   3  -9   0   -0.20    0.80
  -3   9   0    0.40    0.60
   3  -8   0   52.49    2.30
  -3   8   0   51.19    2.00
   3  -7   0    0.10    0.60
  -3   7   0    0.40    0.50
   3  -6   0    7.30    0.90
  -3   6   0    6.80    0.70
   3  -5   0    0.10    0.50
  -3   5   0   -0.20    0.30
   3  -4   0  540.15   10.10
  -3   4   0  528.45    9.90
   3  -3   0   -0.20    0.30
  -3   3   0   -0.50    0.30
   3  -2   0  133.09    3.00
  -3   2   0  138.29    2.80
   3  -1   0   -0.30    0.10
   3  -1   0   -0.30    0.10
   3  -1   0    0.00    0.30
  -3   1   0   -0.10    0.30
   3   0   0   -1.10    0.20
   3   0   0   -1.40    0.20
  -3   0   0   -1.70    0.30
  -3  -1   0   -0.50    0.20
  -3  -1   0   -0.30    0.30
  -3  -1   0    0.40    0.30
   3   2   0  146.79    2.90
  -3  -2   0  144.19    3.00
  -3  -2   0  144.09    3.00
   3   3   0   -0.60    0.20
  -3  -3   0    0.00    0.30
  -3  -3   0    0.20    0.30
   3   4   0  561.74   10.00
  -3  -4   0  551.24   10.20
  -3  -4   0  554.74   10.30
   3   5   0    0.00    0.40
  -3  -5   0    1.50    0.50
  -3  -5   0   -0.60    0.40
   3   6   0    7.90    0.70
  -3  -6   0    7.50    0.80
  -3  -6   0    7.80    0.90
   3   7   0    0.20    0.40
  -3  -7   0    0.40    0.60
  -3  -7   0   -0.60    0.50
   3   8   0   52.29    1.70
   3   8   0   54.39    2.10
   3   9   0    0.30    0.70
   4  -8   0    1.00    0.80
  -4   8   0   -0.80    0.60
   4  -7   0    0.30    0.70
  -4   7   0   -0.30    0.60
   4  -6   0  427.06    8.70
  -4   6   0  422.26    8.40
   4  -5   0    0.60    0.60
  -4   5   0    0.40    0.50
   4  -4   0    2.70    0.70
  -4   4   0    3.00    0.60
   4  -3   0   -0.20    0.40
  -4   3   0   -0.10    0.40
   4  -2   0  137.99    3.20
  -4   2   0  138.89    3.00
   4  -1   0    0.20    0.40
   4  -1   0    0.10    0.20
   4  -1   0    0.20    0.20
   4   0   0 9516.25  170.18
   4   0   0 9899.41  172.78
  -4   0   0 9999.00  171.18
   4   1   0   -0.40    0.30
  -4  -1   0   -0.10    0.40
  -4  -1   0    1.00    0.40
  -4  -2   0  144.19    3.20
   4   3   0    0.10    0.30
  -4  -3   0   -0.10    0.40
  -4  -3   0   -0.20    0.40
   4   4   0    3.10    0.50
  -4  -4   0    3.30    0.60
  -4  -4   0    1.40    0.50
   4   5   0    0.20    0.40
  -4  -5   0   -0.30    0.40
  -4  -5   0    0.00    0.50
   4   6   0  436.76    8.30
  -4  -6   0  443.36    8.60
   4   7   0   -0.60    0.60
   4   7   0    0.00    0.40
  -4  -7   0    0.10    0.50
   4   8   0    0.00    0.70
   5  -8   0   19.80    1.80
  -5   8   0   21.80    1.60
   5  -7   0   -0.80    0.60
  -5   7   0    0.40    0.60
   5  -6   0    3.50    0.90
  -5   6   0    2.50    0.70
   5  -5   0    0.70    0.60
  -5   5   0    0.50    0.60
   5  -4   0  150.28    3.80
  -5   4   0  148.79    3.60
   5  -3   0    0.60    0.60
  -5   3   0    0.60    0.50
   5  -2   0   28.70    0.70
   5  -2   0   31.20    1.50
  -5   2   0   27.90    1.20
   5  -1   0    0.90    0.60
   5  -1   0   -0.50    0.30
  -5   1   0   -0.20    0.40
   5   0   0    0.10    0.50
   5   0   0   -0.30    0.30
  -5   0   0   -1.10    0.40
   5   1   0   -0.60    0.40
  -5  -1   0    0.30    0.40
   5   2   0   27.30    1.20
  -5  -2   0   28.20    1.10
  -5  -2   0   29.90    1.30
   5   3   0    0.00    0.40
   5   3   0   -0.30    0.30
  -5  -3   0   -0.40    0.40
   5   4   0  153.88    3.30
   5   4   0  152.58    3.60
  -5  -4   0  151.28    3.60
   5   5   0   -0.70    0.50
   5   5   0   -1.40    0.40
  -5  -5   0   -0.20    0.50
   5   6   0    1.80    0.70
   5   6   0    3.80    0.60
  -5  -6   0    3.00    0.70
   5   7   0   -0.10    0.70
   5   8   0   21.80    1.70
   6  -6   0  123.69    3.80
  -6   6   0  127.29    3.60
   6  -5   0   -0.10    0.60
  -6   5   0   -0.20    0.60
   6  -4   0   -0.10    0.70
  -6   4   0    0.90    0.60
   6  -3   0   -0.50    0.50
  -6   3   0   -0.50    0.50
   6  -2   0   35.50    1.70
  -6   2   0   33.30    1.50
   6  -1   0    0.20    0.70
   6  -1   0    0.40    0.30
  -6   1   0   -1.00    0.60
   6   0   0 1692.53   31.10
   6   0   0 1743.83   30.40
  -6   0   0 1788.22   30.80
   6   1   0    0.10    0.40
   6   1   0   -0.40    0.70
  -6  -1   0   -0.20    0.50
   6   2   0   33.10    1.40
  -6  -2   0   32.80    1.30
   6   3   0    0.00    0.40
   6   3   0   -0.20    0.50
  -6  -3   0    0.50    0.50
   6   4   0    0.60    0.50
   6   4   0   -0.50    0.60
  -6  -4   0    0.70    0.60
   6   5   0    1.90    0.70
   6   5   0    0.40    0.60
  -6  -5   0    0.20    0.60
   6   6   0  138.69    3.90
   6   7   0   -1.00    0.80
   7  -5   0    0.70    0.90
  -7   5   0   -0.60    0.70
   7  -4   0   36.50    2.00
  -7   4   0   33.90    1.70
   7  -3   0   -0.20    0.70
  -7   3   0   -0.30    0.60
   7  -2   0    3.80    0.90
  -7   2   0    3.60    0.80
   7  -1   0    0.60    0.70
  -7   1   0   -0.60    0.60
   7   0   0   -0.20    0.70
  -7   0   0   -0.70    0.60
   7   1   0   -0.50    0.50
   7   1   0    0.50    0.70
  -7  -1   0    0.30    0.60
   7   2   0    4.50    0.70
   7   2   0    6.00    1.00
   7   3   0    0.30    0.50
   7   3   0   -0.40    0.50
   7   3   0   -0.40    0.60
   7   4   0   38.20    1.90
   7   5   0   -1.40    0.60
   8  -2   0    7.30    1.20
  -8   2   0    5.70    1.00
   8  -1   0    0.40    0.80
  -8   1   0   -0.80    0.80
   8   0   0  306.37    7.10
  -8   0   0  297.97    6.50
   8   1   0    0.50    0.90
  -8  -1   0   -0.10    0.70
   8   2   0    5.80    1.10
   8   2   0    6.00    0.80
   8   2  -1    1.10    0.80
   8   2  -1    1.80    0.60
  -8  -1   1    2.60    0.90
   8   1  -1    4.90    1.00
  -8   0   1    1.10    0.80
   8   0  -1    2.10    1.00
  -8   1   1    4.60    1.00
   8  -1  -1    4.80    1.10
  -8   2   1    0.70    0.80
   8  -2  -1    1.70    0.90
   7   5  -1    0.60    0.70
   7   4  -1   22.50    1.40
   7   4  -1   22.70    1.30
   7   4  -1   22.80    1.60
   7   3  -1   -0.20    0.50
   7   3  -1    0.10    0.60
   7   3  -1    0.20    0.50
   7   2  -1   23.60    1.30
   7   2  -1   20.70    1.50
  -7  -1   1   68.69    2.30
   7   1  -1   69.09    2.40
   7   1  -1   67.89    2.00
  -7   0   1   10.20    1.00
   7   0  -1    9.80    1.10
  -7   1   1   70.89    2.30
   7  -1  -1   68.59    2.50
  -7   2   1   23.20    1.40
   7  -2  -1   24.00    1.50
  -7   3   1    0.20    0.60
   7  -3  -1   -0.30    0.70
  -7   4   1   21.40    1.60
   7  -4  -1   23.80    1.80
  -7   5   1    1.40    0.80
   7  -5  -1    0.10    0.90
   6   6  -1   16.30    1.60
  -6  -5   1    2.80    0.70
   6   5  -1    4.00    0.80
   6   5  -1    3.40    0.60
  -6  -4   1   44.20    1.80
   6   4  -1   39.90    1.50
   6   4  -1   41.80    1.80
   6   3  -1    2.40    0.60
   6   3  -1    3.00    0.60
   6   2  -1    2.60    0.60
   6   2  -1    3.40    0.70
  -6  -1   1   19.90    1.20
   6   1  -1   21.80    1.30
   6   1  -1   20.70    1.10
   6   0  -1   -1.30    0.40
   6   0  -1    1.40    0.70
  -6   1   1   22.50    1.20
   6  -1  -1   19.30    1.40
  -6   2   1    2.20    0.60
   6  -2  -1    3.40    0.80
  -6   3   1    2.50    0.70
   6  -3  -1    2.20    0.70
  -6   4   1   41.10    1.80
   6  -4  -1   39.00    1.90
  -6   5   1    3.70    0.80
   6  -5  -1    2.20    0.80
  -6   6   1   16.30    1.50
   6  -6  -1   18.70    1.70
   5   8  -1    9.60    1.20
   5   7  -1   39.10    2.00
  -5  -6   1    6.40    0.90
   5   6  -1    5.70    0.70
  -5  -5   1    2.70    0.70
  -5  -5   1    6.70    0.80
   5   5  -1    4.60    0.60
  -5  -4   1  124.09    3.20
  -5  -4   1  128.69    3.10
   5   4  -1  122.49    2.90
  -5  -3   1    1.30    0.50
  -5  -3   1    2.70    0.60
   5   3  -1    2.80    0.50
  -5  -2   1  121.69    2.90
  -5  -1   1  305.17    6.00
   5   1  -1  303.37    6.20
   5   1  -1  313.67    5.90
  -5   0   1   40.30    1.40
   5   0  -1   38.40    1.50
   5   0  -1   37.30    1.10
  -5   1   1  318.87    6.20
   5  -1  -1  317.57    5.90
   5  -1  -1  301.37    6.40
   5  -1  -1  310.87    5.70
  -5   2   1  117.79    2.80
   5  -2  -1  114.39    3.00
  -5   3   1    1.40    0.50
   5  -3  -1    1.50    0.60
  -5   4   1  121.99    3.10
   5  -4  -1  121.59    3.30
  -5   5   1    6.00    0.80
   5  -5  -1    5.60    1.00
  -5   6   1    4.40    0.80
   5  -6  -1    4.10    0.90
  -5   7   1   42.20    1.90
   5  -7  -1   38.30    2.10
  -5   8   1    9.00    1.10
   5  -8  -1    9.00    1.30
  -4  -7   1    9.00    1.00
   4   7  -1    8.50    0.80
  -4  -6   1   76.69    2.50
  -4  -6   1   75.89    2.10
   4   6  -1   75.29    2.10
  -4  -5   1   12.70    1.10
  -4  -5   1   12.40    0.90
   4   5  -1   13.00    0.90
  -4  -4   1  211.68    4.60
  -4  -4   1  212.28    4.40
   4   4  -1  214.48    4.30
  -4  -3   1    4.20    0.60
  -4  -3   1    5.00    0.60
   4   3  -1    5.00    0.50
  -4  -2   1    4.90    0.60
  -4  -2   1    4.80    0.50
  -4  -1   1  114.59    2.60
  -4  -1   1  115.59    2.50
  -4   1   1  115.29    2.60
   4  -1  -1  115.49    2.20
   4  -1  -1  113.59    2.20
   4  -1  -1  110.99    2.70
  -4   2   1    4.00    0.50
   4  -2  -1    3.90    0.60
  -4   3   1    3.60    0.50
   4  -3  -1    4.00    0.60
  -4   4   1  207.98    4.50
   4  -4  -1  215.78    4.70
  -4   5   1   13.00    0.90
   4  -5  -1   12.30    1.10
  -4   6   1   71.99    2.30
   4  -6  -1   74.49    2.50
  -4   7   1    9.10    1.00
   4  -7  -1    8.10    1.10
  -4   8   1   29.10    1.60
   4  -8  -1   27.90    1.90
  -3  -8   1   23.40    1.50
   3   8  -1   20.00    1.20
  -3  -7   1   90.69    2.50
  -3  -7   1   95.09    2.80
   3   7  -1   95.39    2.40
  -3  -6   1   15.10    1.20
  -3  -6   1   15.60    1.00
   3   6  -1   14.50    0.90
  -3  -5   1   25.50    1.30
  -3  -5   1   25.80    1.10
   3   5  -1   27.30    1.10
  -3  -4   1  487.35    9.20
  -3  -4   1  490.85    9.00
   3   4  -1  485.25    8.90
  -3  -3   1   35.60    1.20
  -3  -3   1   31.60    1.00
   3   3  -1   30.80    1.00
  -3  -2   1  471.95    8.60
  -3  -2   1  470.25    8.50
   3   2  -1  463.35    8.40
  -3  -1   1 1410.96   24.80
  -3  -1   1 1429.66   24.70
  -3  -1   1 1378.06   25.30
  -3   0   1   72.19    1.50
  -3   0   1   71.69    1.70
   3   0  -1   75.29    1.60
   3   0  -1   73.09    1.80
  -3   1   1 1444.16   25.20
   3  -1  -1 1452.65   25.30
   3  -1  -1 1480.75   25.20
   3  -1  -1 1383.86   25.30
  -3   2   1  476.35    8.70
   3  -2  -1  469.65    8.80
  -3   3   1   31.60    1.10
   3  -3  -1   32.10    1.20
  -3   4   1  479.95    8.90
   3  -4  -1  475.45    9.10
  -3   5   1   27.40    1.20
   3  -5  -1   26.00    1.30
  -3   6   1   13.70    1.00
   3  -6  -1   15.70    1.30
  -3   7   1   87.39    2.50
   3  -7  -1   93.89    2.90
  -3   8   1   22.00    1.40
   3  -8  -1   19.70    1.60
  -3   9   1    0.70    0.60
   3  -9  -1    0.20    0.80
  -2  -9   1   -0.10    0.60
   2   9  -1   -0.10    0.50
  -2  -8   1   61.39    2.20
   2   8  -1   63.99    2.00
  -2  -7   1   17.90    1.30
  -2  -7   1   16.10    1.00
   2   7  -1   18.10    1.00
  -2  -6   1  192.68    4.30
  -2  -6   1  191.48    4.00
   2   6  -1  194.88    4.00
  -2  -5   1   37.90    1.20
  -2  -5   1   38.80    1.40
   2   5  -1   39.30    1.20
  -2  -4   1  737.63   13.30
  -2  -4   1  736.03   13.50
   2   4  -1  764.32   13.30
  -2  -3   1    6.90    0.50
  -2  -3   1    6.60    0.60
   2   3  -1    6.80    0.50
   2   3  -1    7.20    0.50
  -2  -2   1    0.60    0.30
  -2  -2   1    0.70    0.20
   2   2  -1    1.20    0.30
   2   2  -1    1.40    0.30
  -2  -1   1  543.55    9.60
  -2  -1   1  525.25    9.60
  -2  -1   1  545.65    9.70
   2   1  -1  540.25    9.70
   2   1  -1  564.94    9.70
  -2   0   1    0.80    0.30
   2   0  -1    0.90    0.30
  -2   1   1  535.05    9.60
  -2   1   1  544.85    9.50
   2  -1  -1  559.04    9.80
   2  -1  -1  546.15    9.50
   2  -1  -1  522.85    9.70
  -2   2   1    0.80    0.30
   2  -2  -1    0.80    0.30
  -2   3   1    6.40    0.50
  -2   3   1    8.10    0.30
   2  -3  -1    6.30    0.60
  -2   4   1  743.33   12.90
  -2   4   1  739.83   12.90
  -2   4   1  738.63   13.30
   2  -4  -1  741.83   13.50
  -2   5   1   36.60    1.00
  -2   5   1   38.50    1.00
  -2   5   1   39.70    1.30
   2  -5  -1   37.90    1.50
  -2   6   1  189.88    4.10
  -2   6   1  195.38    3.80
   2  -6  -1  192.58    4.40
  -2   7   1   17.00    0.80
  -2   7   1   15.90    1.10
   2  -7  -1   17.40    1.30
  -2   8   1   57.99    2.00
   2  -8  -1   62.79    2.40
  -2   9   1   -0.20    0.50
   2  -9  -1   -0.60    0.70
  -1  -9   1    0.20    0.60
   1   9  -1    1.20    0.60
  -1  -8   1   31.30    1.50
  -1  -8   1   27.80    1.40
   1   8  -1   31.60    1.40
  -1  -7   1  148.39    3.50
  -1  -7   1  145.69    3.40
   1   7  -1  150.88    3.40
  -1  -6   1   25.00    1.10
  -1  -6   1   23.50    1.20
   1   6  -1   24.60    1.10
  -1  -5   1   74.69    1.90
  -1  -5   1   73.89    1.90
   1   5  -1   74.49    1.80
  -1  -4   1 1148.29   20.00
  -1  -4   1 1093.39   20.30
   1   4  -1 1103.99   19.80
   1   4  -1 1173.28   20.10
  -1  -3   1  133.99    2.80
  -1  -3   1  134.09    2.60
   1   3  -1  135.29    2.70
   1   3  -1  132.99    2.60
  -1  -2   1 1360.46   24.40
  -1  -2   1 1299.57   24.70
  -1  -2   1 1349.56   24.30
   1   2  -1 1343.57   23.90
   1   2  -1 1413.26   24.10
  -1   0   1  125.69    2.30
  -1   0   1  126.99    2.30
  -1   0   1  123.89    2.30
   1   0  -1  121.09    2.30
   1   0  -1  127.79    2.30
   1   0  -1  123.19    2.30
  -1   1   1 4626.04   80.89
   1  -1  -1 4647.33   81.29
  -1   2   1 1350.86   23.50
  -1   2   1 1353.46   23.50
  -1   2   1 1284.17   24.10
  -1   2   1 1329.07   24.20
   1  -2  -1 1355.76   23.20
  -1   3   1  128.99    2.50
  -1   3   1  130.69    2.60
   1  -3  -1  130.89    2.80
  -1   4   1 1125.19   19.50
  -1   4   1 1104.99   19.30
   1  -4  -1 1114.69   19.60
   1  -4  -1 1089.79   19.70
  -1   5   1   70.69    1.80
   1  -5  -1   72.39    2.00
  -1   6   1   24.00    1.10
  -1   6   1   24.50    1.00
   1  -6  -1   22.40    1.30
  -1   7   1  145.69    3.40
  -1   7   1  146.89    3.20
   1  -7  -1  146.99    3.70
  -1   8   1   29.40    1.40
  -1   8   1   31.40    1.30
   1  -8  -1   29.50    1.60
  -1   9   1    1.10    0.60
   1  -9  -1    0.10    0.70
   0  -9   1   -0.20    0.80
   0  -9   1   -0.30    0.50
   0   9  -1    0.30    0.50
   0  -8   1   77.99    2.40
   0  -8   1   81.09    2.30
   0   8  -1   81.09    2.30
   0  -7   1   22.90    1.20
   0  -7   1   21.20    1.10
   0   7  -1   22.70    1.10
   0  -6   1  279.17    5.50
   0  -6   1  274.07    5.60
   0   6  -1  274.97    5.50
   0  -5   1   61.29    1.60
   0  -5   1   61.99    1.70
   0   5  -1   62.39    1.60
   0  -4   1 1223.78   21.70
   0  -4   1 1243.88   21.80
   0   4  -1 1249.97   22.20
   0  -3   1    9.20    0.50
   0  -3   1    8.90    0.50
   0   3  -1    8.30    0.40
   0   3  -1    8.80    0.40
   0   3  -1    7.00    0.40
   0  -2   1   -0.60    0.20
   0  -2   1    0.10    0.20
   0  -2   1    0.90    0.30
   0   2  -1    0.20    0.20
   0   2  -1    0.20    0.20
   0   2  -1    0.60    0.20
   0  -1   1 1034.00   19.30
   0  -1   1 1066.59   19.10
   0   1  -1 1110.69   19.10
   0   1  -1 1092.49   19.20
   0   0   1   -1.50    0.10
   0   0  -1   -1.60    0.10
   0   1   1 1090.59   19.80
   0   1   1 1056.89   19.60
   0   1   1 1115.89   19.40
   0  -1  -1 1131.49   19.40
   0  -1  -1 1059.79   19.90
   0  -1  -1 1115.39   19.40
   0   2   1    0.00    0.20
   0   2   1    0.80    0.30
   0   2   1    0.10    0.20
   0  -2  -1    0.00    0.30
   0  -2  -1    0.20    0.20
   0  -2  -1    0.20    0.20
   0   3   1    8.30    0.40
   0   3   1    8.70    0.70
   0   3   1    8.50    0.40
   0  -3  -1    9.00    0.50
   0  -3  -1    8.70    0.60
   0  -3  -1    9.80    0.40
   0   4   1 1232.18   22.20
   0  -4  -1 1238.58   21.60
   0  -4  -1 1239.48   22.20
   0   5   1   60.39    1.60
   0  -5  -1   63.69    1.80
   0  -5  -1   61.19    1.60
   0   6   1  275.47    5.40
   0  -6  -1  275.37    5.40
   0  -6  -1  274.67    5.70
   0   7   1   22.60    1.10
   0   7   1   22.40    1.10
   0  -7  -1   20.90    1.30
   0   8   1   79.49    2.20
   0   8   1   82.79    2.30
   0  -8  -1   77.59    2.50
   0   9   1    0.00    0.50
   0   9   1    0.50    0.50
   0  -9  -1   -0.30    0.60
   1  -9   1    0.30    0.70
  -1   9  -1    0.90    0.60
   1  -8   1   32.20    1.30
   1  -8   1   29.50    1.60
  -1   8  -1   30.60    1.40
   1  -7   1  149.39    3.70
   1  -7   1  151.98    3.30
  -1   7  -1  151.98    3.50
   1  -6   1   22.90    1.00
   1  -6   1   21.90    1.20
  -1   6  -1   25.60    1.10
   1  -5   1   68.79    1.90
   1  -5   1   73.49    1.70
  -1   5  -1   72.29    1.80
   1  -4   1 1132.69   19.80
   1  -4   1 1111.69   19.50
  -1   4  -1 1113.29   19.70
   1  -3   1  125.19    2.70
   1  -3   1  129.09    2.50
  -1   3  -1  132.09    2.70
  -1   3  -1  136.99    2.50
   1  -2   1 1341.97   23.90
   1  -2   1 1328.97   24.40
  -1   2  -1 1409.26   24.00
  -1   2  -1 1316.57   24.50
  -1   2  -1 1374.96   24.30
   1  -1   1 4418.96   77.39
   1   0   1  126.29    2.30
   1   0   1  126.99    2.30
  -1   0  -1  127.09    2.30
  -1   0  -1  123.19    2.30
   1   1   1 4895.51   82.29
   1   1   1 4581.24   81.99
   1   1   1 4624.34   81.99
   1   2   1 1326.37   23.60
   1   2   1 1346.87   24.00
  -1  -2  -1 1326.17   23.80
  -1  -2  -1 1335.37   24.40
   1   3   1  132.49    2.50
  -1  -3  -1  129.29    2.70
  -1  -3  -1  135.19    2.60
  -1  -3  -1  134.39    2.70
   1   4   1 1130.69   19.70
  -1  -4  -1 1124.59   20.00
  -1  -4  -1 1132.19   19.90
   1   5   1   74.29    1.70
  -1  -5  -1   72.09    2.00
  -1  -5  -1   73.39    1.90
   1   6   1   25.30    1.00
  -1  -6  -1   25.40    1.20
  -1  -6  -1   26.00    1.20
   1   7   1  153.98    3.40
  -1  -7  -1  148.79    3.60
   1   8   1   34.50    1.50
   1   8   1   32.80    1.30
  -1  -8  -1   30.90    1.60
   1   9   1    1.00    0.60
   1   9   1    0.90    0.60
  -1  -9  -1    1.30    0.70
   2  -9   1   -0.60    0.70
  -2   9  -1   -0.50    0.50
   2  -8   1   60.99    2.30
  -2   8  -1   59.59    2.10
   2  -7   1   17.50    1.30
   2  -7   1   17.30    0.90
  -2   7  -1   17.70    1.10
   2  -6   1  188.68    3.80
   2  -6   1  197.48    4.40
  -2   6  -1  195.68    4.20
   2  -5   1   38.70    1.10
   2  -5   1   38.80    1.40
  -2   5  -1   41.70    1.40
   2  -4   1  742.83   13.50
   2  -4   1  738.03   13.00
  -2   4  -1  737.73   13.40
  -2   4  -1  762.32   13.10
   2  -3   1    7.40    0.30
   2  -3   1    7.40    0.60
  -2   3  -1    7.40    0.50
  -2   3  -1    7.20    0.30
   2  -2   1    1.10    0.30
   2  -2   1    1.10    0.20
  -2   2  -1    0.80    0.20
  -2   2  -1    1.10    0.10
   2  -1   1  557.24    9.80
   2  -1   1  557.24    9.70
   2  -1   1  538.45    9.70
  -2   1  -1  551.54    9.60
  -2   1  -1  530.15    9.70
  -2   0  -1    0.60    0.30
   2   1   1  543.75    9.60
   2   1   1  540.65    9.60
   2   1   1  539.75    9.60
   2   1   1  537.15    9.40
  -2  -1  -1  542.15    9.50
  -2  -1  -1  528.85    9.60
   2   2   1    1.00    0.20
   2   2   1    1.20    0.20
  -2  -2  -1    0.30    0.30
  -2  -2  -1    1.10    0.30
  -2  -3  -1    7.50    0.40
  -2  -3  -1    7.30    0.50
  -2  -3  -1    5.50    0.50
   2   4   1  753.42   13.30
  -2  -4  -1  759.02   13.60
  -2  -4  -1  752.32   13.60
   2   5   1   39.50    1.10
  -2  -5  -1   39.70    1.40
  -2  -5  -1   37.10    1.40
   2   6   1  195.08    3.90
  -2  -6  -1  194.18    4.20
  -2  -6  -1  195.58    4.30
   2   7   1   16.80    1.20
   2   7   1   17.90    1.00
  -2  -7  -1   18.10    1.20
   2   8   1   64.39    2.20
   2   8   1   62.29    1.90
  -2  -8  -1   58.59    2.10
   2   9   1    0.30    0.60
   3  -9   1    0.00    0.80
  -3   9  -1    1.30    0.70
   3  -8   1   20.50    1.50
  -3   8  -1   18.60    1.30
   3  -7   1   94.99    2.90
  -3   7  -1   94.29    2.70
   3  -6   1   13.60    1.10
  -3   6  -1   14.70    1.00
   3  -5   1   26.70    1.30
   3  -5   1   25.80    0.70
  -3   5  -1   28.20    1.20
   3  -4   1  470.85    9.00
   3  -4   1  474.65    8.30
  -3   4  -1  480.15    8.30
  -3   4  -1  474.35    8.90
   3  -3   1   30.30    1.20
  -3   3  -1   33.00    1.10
   3  -2   1  476.55    8.30
   3  -2   1  484.65    8.90
  -3   2  -1  470.15    8.70
   3  -1   1 1463.05   25.50
   3  -1   1 1450.25   25.70
   3  -1   1 1430.56   25.40
  -3   1  -1 1446.46   25.20
   3   0   1   74.49    1.60
   3   0   1   74.79    1.60
  -3   0  -1   74.59    1.70
  -3   0  -1   74.39    1.80
   3   1   1 1439.96   24.80
   3   1   1 1413.26   25.40
  -3  -1  -1 1411.06   25.00
  -3  -1  -1 1432.46   25.30
   3   2   1  469.95    8.70
   3   2   1  472.85    8.50
   3   2   1  486.65    8.60
  -3  -2  -1  474.55    8.80
   3   3   1   33.90    0.90
  -3  -3  -1   32.90    1.10
   3   4   1  488.95    8.80
  -3  -4  -1  492.75    9.20
   3   5   1   29.10    1.00
  -3  -5  -1   26.80    1.20
   3   6   1   14.90    0.80
  -3  -6  -1   15.00    1.00
   3   7   1   96.19    2.30
   3   7   1   95.49    2.80
  -3  -7  -1   90.69    2.60
   3   8   1   22.50    1.50
  -3  -8  -1   20.40    1.40
   3   9   1    0.60    0.70
   4  -8   1   29.80    1.80
  -4   8  -1   29.00    1.60
   4  -7   1    6.40    1.00
  -4   7  -1    7.80    0.90
   4  -6   1   69.59    2.40
  -4   6  -1   72.19    2.30
   4  -5   1   11.10    1.00
  -4   5  -1   10.20    0.90
   4  -4   1  211.18    4.70
  -4   4  -1  209.48    4.50
   4  -3   1    4.80    0.70
  -4   3  -1    7.30    0.70
   4  -2   1    4.10    0.30
   4  -2   1    4.70    0.70
   4  -2   1    3.90    0.30
  -4   2  -1    5.20    0.50
   4  -1   1  113.19    2.80
   4  -1   1  113.39    2.30
   4  -1   1  112.39    2.30
  -4   1  -1  111.49    2.50
  -4   0  -1   -0.70    0.40
  -4  -1  -1  114.99    2.80
  -4  -1  -1  116.29    2.50
   4   2   1    3.90    0.50
  -4  -2  -1    4.20    0.40
  -4  -2  -1    3.80    0.60
   4   3   1    6.00    0.50
   4   3   1    4.50    0.60
  -4  -3  -1    4.90    0.60
   4   4   1  213.28    4.10
   4   4   1  213.58    4.50
  -4  -4  -1  207.08    4.50
   4   5   1   12.80    0.80
   4   5   1   10.50    1.00
  -4  -5  -1   11.80    0.90
   4   6   1   75.49    2.40
   4   6   1   74.19    1.90
  -4  -6  -1   76.89    2.30
   4   7   1    6.30    1.00
  -4  -7  -1    9.90    1.00
   4   8   1   28.40    1.70
   5  -8   1    7.10    1.20
  -5   8  -1    9.50    1.20
   5  -7   1   37.60    2.00
  -5   7  -1   40.70    1.90
   5  -6   1    6.70    1.00
  -5   6  -1    5.80    0.90
   5  -5   1    3.90    0.90
  -5   5  -1    5.50    0.80
   5  -4   1  126.89    3.40
  -5   4  -1  126.39    3.20
   5  -3   1    2.50    0.70
  -5   3  -1    2.60    0.60
   5  -2   1  121.69    2.40
   5  -2   1  124.19    3.20
  -5   2  -1  120.59    2.90
   5  -1   1  322.07    6.50
   5  -1   1  306.87    5.70
  -5   1  -1  305.47    6.10
   5   0   1   38.90    1.20
   5   0   1   37.00    1.50
  -5   0  -1   36.40    1.30
   5   1   1  312.37    6.10
  -5  -1  -1  325.67    6.50
  -5  -1  -1  319.27    6.10
   5   2   1  121.59    2.80
  -5  -2  -1  123.99    3.10
  -5  -2  -1  118.79    2.70
   5   3   1    1.80    0.50
   5   3   1    1.80    0.40
  -5  -3  -1    2.90    0.60
   5   4   1  127.59    3.20
   5   4   1  126.19    2.80
  -5  -4  -1  125.09    3.20
   5   5   1    5.50    0.60
   5   5   1    4.90    0.80
  -5  -5  -1    3.90    0.80
   5   6   1    3.80    0.90
  -5  -6  -1    5.20    0.80
   5   7   1   42.00    2.00
  -5  -7  -1   38.10    2.10
   5   8   1    9.10    1.20
   6  -6   1   17.90    1.60
  -6   6  -1   14.90    1.30
   6  -5   1    3.40    0.90
  -6   5  -1    3.90    0.80
   6  -4   1   41.50    2.00
  -6   4  -1   44.30    1.80
   6  -3   1    1.50    0.70
  -6   3  -1    2.90    0.70
   6  -2   1    2.40    0.80
  -6   2  -1    2.80    0.70
   6  -1   1   22.10    0.90
   6  -1   1   22.40    1.40
   6   0   1    0.00    0.90
  -6   0  -1   -0.80    0.60
   6   1   1   24.30    1.10
  -6  -1  -1   22.60    1.10
   6   2   1    1.50    0.60
  -6  -2  -1    3.40    0.70
  -6  -2  -1    3.10    0.60
   6   3   1    2.20    0.50
   6   3   1    2.70    0.60
  -6  -3  -1    3.20    0.70
   6   4   1   40.90    1.40
   6   4   1   44.20    1.90
  -6  -4  -1   41.70    1.80
   6   5   1    5.10    0.90
  -6  -5  -1    2.90    0.80
   6   6   1   17.10    1.70
  -6  -6  -1   16.40    1.40
   7  -5   1   -0.40    0.80
  -7   5  -1    1.20    0.80
   7  -4   1   23.70    1.70
  -7   4  -1   24.00    1.50
   7  -3   1    1.30    0.80
  -7   3  -1   -0.40    0.60
   7  -2   1   25.80    1.70
  -7   2  -1   23.60    1.50
   7  -1   1   69.19    2.60
  -7   1  -1   67.69    2.20
   7   0   1   12.70    1.40
  -7   0  -1    9.20    1.00
   7   1   1   69.39    2.50
   7   1   1   68.59    2.10
  -7  -1  -1   71.09    2.20
   7   2   1   24.50    1.30
   7   2   1   22.10    1.60
   7   3   1   -0.40    0.50
   7   3   1   -0.70    0.50
   7   4   1   21.40    1.50
  -7  -4  -1   21.10    1.60
   7   5   1    0.80    0.80
  -7  -5  -1    1.00    0.80
   8  -2   1    1.60    0.90
  -8   2  -1    1.20    0.70
   8  -1   1    5.40    1.10
  -8   1  -1   -0.50    0.90
   8   0   1    1.00    1.00
  -8   0  -1    1.30    0.80
   8   1   1    1.30    1.10
  -8  -1  -1    5.90    0.90
   8   2   1   -0.20    0.80
   8   2  -2   18.60    1.30
   8   2  -2   18.50    1.50
  -8  -1   2   -0.60    0.70
   8   1  -2    2.30    0.80
  -8   0   2    7.40    1.10
   8   0  -2    7.80    1.10
  -8   1   2   -0.30    0.70
   8  -1  -2    1.80    0.80
  -8   2   2   16.30    1.50
   8  -2  -2   18.90    1.60
   7   5  -2    0.10    0.70
   7   4  -2    5.10    0.90
   7   4  -2    7.60    1.10
   7   4  -2    6.00    0.80
   7   3  -2    1.50    0.70
   7   3  -2    1.30    0.60
   7   3  -2    1.30    0.60
   7   2  -2    5.20    0.70
   7   2  -2    6.40    0.90
   7   2  -2    7.60    0.80
  -7  -1   2   20.10    1.40
   7   1  -2   19.60    1.50
   7   1  -2   21.30    1.40
  -7   0   2    0.00    0.60
   7   0  -2    0.60    0.70
  -7   1   2   22.00    1.40
   7  -1  -2   18.70    1.50
  -7   2   2    6.60    0.90
   7  -2  -2    7.00    1.10
  -7   3   2    1.90    0.80
   7  -3  -2    2.30    0.90
  -7   4   2    3.20    0.80
   7  -4  -2    4.80    1.00
  -7   5   2    1.00    0.80
   7  -5  -2    2.20    1.00
   6   6  -2    7.10    0.80
   6   5  -2    2.50    0.60
   6   4  -2   64.29    2.00
   6   3  -2   28.50    1.30
   6   3  -2   27.50    1.30
   6   2  -2  113.99    3.00
  -6  -1   2   -1.20    0.50
   6   1  -2    0.40    0.50
   6   1  -2    0.00    0.40
  -6   0   2   24.10    1.30
   6   0  -2   25.50    1.40
  -6   1   2    0.90    0.60
   6  -1  -2    1.10    0.60
  -6   2   2  115.89    3.00
   6  -2  -2  114.89    3.30
  -6   3   2   27.80    1.40
   6  -3  -2   27.10    1.60
  -6   4   2   64.99    2.30
   6  -4  -2   66.59    2.50
  -6   5   2    2.60    0.80
   6  -5  -2    2.60    0.90
  -6   6   2    6.70    1.00
   6  -6  -2    6.40    1.20
  -5  -7   2   28.10    1.70
   5   7  -2   26.80    1.40
  -5  -6   2    1.30    0.70
   5   6  -2    1.50    0.60
  -5  -5   2    8.60    0.90
  -5  -5   2    7.10    0.90
   5   5  -2    6.00    0.70
  -5  -4   2   19.80    1.30
  -5  -4   2   22.00    1.10
   5   4  -2   21.10    1.00
  -5  -3   2    6.00    0.70
  -5  -3   2    7.30    0.70
   5   3  -2    6.80    0.70
  -5  -2   2   50.69    1.70
   5   2  -2   58.99    1.80
  -5  -1   2  111.69    2.60
  -5  -1   2  113.59    2.70
   5   1  -2  112.99    2.80
  -5   0   2   -0.50    0.40
   5   0  -2    0.10    0.40
  -5   1   2  110.09    2.70
   5  -1  -2  108.29    2.20
   5  -1  -2  114.79    2.90
   5  -1  -2  104.19    2.60
  -5   2   2   49.99    1.70
   5  -2  -2   49.99    1.80
  -5   3   2    7.80    0.80
   5  -3  -2    7.50    0.90
  -5   4   2   20.40    1.10
   5  -4  -2   20.60    1.40
  -5   5   2    6.60    0.80
   5  -5  -2    6.10    0.90
  -5   6   2    0.90    0.60
   5  -6  -2    1.00    0.70
  -5   7   2   29.30    1.60
   5  -7  -2   29.00    1.90
  -4  -8   2   19.20    1.50
   4   8  -2   18.30    1.20
  -4  -7   2   24.30    1.60
   4   7  -2   23.90    1.30
  -4  -6   2   18.50    1.40
  -4  -6   2   22.40    1.10
   4   6  -2   20.50    1.10
  -4  -5   2    4.10    0.50
  -4  -5   2    2.90    0.60
   4   5  -2    4.50    0.60
  -4  -4   2  264.67    5.40
  -4  -4   2  259.57    5.20
   4   4  -2  257.97    5.10
  -4  -3   2   97.69    2.50
  -4  -3   2   99.69    2.30
   4   3  -2  100.09    2.30
  -4  -2   2  593.64   10.70
  -4  -2   2  589.14   10.80
   4   2  -2  583.04   10.70
  -4  -1   2    1.00    0.50
  -4  -1   2    2.30    0.40
   4   1  -2    2.50    0.50
  -4   0   2  124.99    2.60
  -4   0   2  123.39    2.80
   4   0  -2  127.09    2.90
  -4   1   2    2.80    0.50
   4  -1  -2    2.40    0.30
   4  -1  -2    1.70    0.50
  -4   2   2  599.14   11.00
   4  -2  -2  596.24   11.20
  -4   3   2   98.39    2.40
   4  -3  -2   99.49    2.60
  -4   4   2  253.57    5.20
   4  -4  -2  251.17    5.40
  -4   5   2    3.30    0.60
   4  -5  -2    3.10    0.70
  -4   6   2   18.30    1.20
   4  -6  -2   18.60    1.50
  -4   7   2   22.80    1.40
   4  -7  -2   20.50    1.60
  -4   8   2   18.10    1.40
   4  -8  -2   20.90    1.80
  -3  -9   2    0.90    0.70
   3   9  -2    1.10    0.60
  -3  -8   2   11.00    1.20
   3   8  -2   11.60    1.10
  -3  -7   2   89.39    2.70
   3   7  -2   91.99    2.40
  -3  -6   2    6.00    0.80
  -3  -6   2    7.90    0.70
   3   6  -2    7.00    0.70
  -3  -5   2   28.40    1.30
  -3  -5   2   28.70    1.10
   3   5  -2   28.80    1.10
  -3  -4   2   90.49    2.40
  -3  -4   2   89.99    2.10
   3   4  -2   91.49    2.10
  -3  -3   2   25.40    0.90
  -3  -3   2   25.70    1.10
   3   3  -2   25.50    0.90
  -3  -2   2  292.97    5.60
  -3  -2   2  293.07    5.50
   3   2  -2  294.17    5.50
  -3  -1   2  653.73   11.60
  -3  -1   2  648.94   11.60
   3   1  -2  641.34   11.60
  -3   0   2    0.30    0.20
  -3   0   2    0.40    0.30
   3   0  -2   -0.10    0.20
   3   0  -2   -0.30    0.20
  -3   1   2  631.24   11.60
  -3   1   2  643.74   11.20
   3  -1  -2  652.03   11.20
   3  -1  -2  655.23   11.70
  -3   2   2  288.47    5.50
   3  -2  -2  289.27    5.70
  -3   3   2   25.20    1.00
   3  -3  -2   25.00    1.10
  -3   4   2   92.69    2.30
   3  -4  -2   89.39    2.50
  -3   5   2   28.30    1.20
   3  -5  -2   30.00    1.50
  -3   6   2    6.60    0.70
   3  -6  -2    6.10    0.90
  -3   7   2   85.29    2.50
   3  -7  -2   89.89    2.90
  -3   8   2   11.50    1.10
   3  -8  -2    8.80    1.20
  -3   9   2    1.80    0.70
   3  -9  -2    1.60    0.90
  -2  -9   2    4.40    0.90
   2   9  -2    3.40    0.70
  -2  -8   2   42.00    1.80
   2   8  -2   42.10    1.70
  -2  -7   2   48.20    1.60
  -2  -7   2   48.70    1.80
   2   7  -2   49.20    1.70
  -2  -6   2   40.30    1.60
  -2  -6   2   45.90    1.40
   2   6  -2   43.70    1.40
  -2  -5   2    5.70    0.60
  -2  -5   2    6.10    0.50
   2   5  -2    6.80    0.70
  -2  -4   2  756.02   13.70
  -2  -4   2  756.92   13.40
   2   4  -2  763.72   13.50
   2   4  -2  755.52   13.40
  -2  -3   2  274.67    5.00
  -2  -3   2  272.97    5.30
   2   3  -2  269.37    5.10
   2   3  -2  279.07    5.00
  -2  -2   2 2221.68   40.80
  -2  -2   2 2356.76   40.20
   2   2  -2 2297.67   40.00
   2   2  -2 2185.08   40.10
  -2  -1   2    5.70    0.50
  -2  -1   2    6.10    0.40
   2   1  -2    6.70    0.40
   2   1  -2    6.70    0.40
   2   1  -2    7.20    0.60
   2   1  -2    6.30    0.40
  -2   0   2  789.82   14.00
  -2   0   2  815.62   14.00
  -2   0   2  780.02   14.30
   2   0  -2  789.62   14.00
   2   0  -2  783.02   13.90
   2   0  -2  820.62   14.00
  -2   1   2    6.30    0.30
   2  -1  -2    5.90    0.50
  -2   2   2 2308.57   39.80
   2  -2  -2 2207.68   40.50
  -2   3   2  270.97    4.70
  -2   3   2  268.97    5.10
  -2   3   2  268.67    4.70
   2  -3  -2  271.37    5.30
  -2   4   2  746.53   13.30
  -2   4   2  740.43   12.90
  -2   4   2  734.13   12.90
   2  -4  -2  743.93   13.50
  -2   5   2    5.30    0.40
  -2   5   2    6.70    0.60
  -2   5   2    5.10    0.40
   2  -5  -2    5.60    0.80
  -2   6   2   41.90    1.40
  -2   6   2   42.50    1.20
   2  -6  -2   41.40    1.80
  -2   7   2   42.90    1.60
  -2   7   2   46.70    1.60
   2  -7  -2   48.90    2.00
  -2   8   2   40.50    1.60
   2  -8  -2   38.30    2.00
  -2   9   2    2.70    0.70
   2  -9  -2    3.20    1.00
  -1  -9   2    1.40    0.70
   1   9  -2    2.10    0.70
  -1  -8   2   22.40    1.30
  -1  -8   2   22.90    1.80
   1   8  -2   23.10    1.30
  -1  -7   2  162.68    3.60
  -1  -7   2  162.08    3.80
   1   7  -2  163.68    3.70
  -1  -6   2   11.90    0.90
  -1  -6   2   14.50    0.80
   1   6  -2   11.80    0.90
  -1  -5   2   60.49    1.70
  -1  -5   2   63.09    1.60
   1   5  -2   61.29    1.70
  -1  -4   2  262.87    5.20
  -1  -4   2  267.67    5.00
   1   4  -2  269.27    5.00
   1   4  -2  271.37    5.10
  -1  -3   2   68.89    1.60
  -1  -3   2   67.69    1.40
   1   3  -2   68.69    1.60
   1   3  -2   69.59    1.50
  -1  -2   2 1017.30   17.60
  -1  -2   2 1020.80   18.00
  -1  -2   2  993.20   17.70
   1   2  -2 1044.30   18.00
   1   2  -2  981.50   18.20
  -1  -1   2 2486.65   44.40
   1   1  -2 2508.65   44.30
   1   1  -2 2432.26   44.30
   1   1  -2 2587.34   43.60
  -1   0   2    0.50    0.10
  -1   0   2    0.10    0.10
  -1   0   2    0.20    0.20
   1   0  -2    0.30    0.10
   1   0  -2    0.10    0.10
  -1   1   2 2481.85   44.00
  -1   1   2 2521.35   44.40
  -1   1   2 2478.65   43.50
   1  -1  -2 2554.84   43.50
   1  -1  -2 2436.66   44.60
   1  -1  -2 2491.15   43.80
  -1   2   2 1031.40   18.20
  -1   2   2 1032.70   18.40
   1  -2  -2 1066.19   17.90
   1  -2  -2  987.70   18.60
   1  -2  -2 1025.20   18.20
  -1   3   2   66.89    1.50
  -1   3   2   67.19    1.40
  -1   3   2   66.69    1.40
   1  -3  -2   65.89    1.70
  -1   4   2  254.37    4.80
  -1   4   2  264.67    5.00
  -1   4   2  262.27    4.80
   1  -4  -2  263.47    5.20
  -1   5   2   57.19    1.40
  -1   5   2   58.59    1.60
   1  -5  -2   58.19    1.80
  -1   6   2   12.90    0.80
  -1   6   2   13.40    0.80
   1  -6  -2   13.10    1.20
  -1   7   2  163.08    3.60
  -1   7   2  156.38    3.40
   1  -7  -2  160.38    4.00
  -1   8   2   21.70    1.20
  -1   8   2   23.80    1.10
   1  -8  -2   23.50    1.50
  -1   9   2    1.80    0.60
   1  -9  -2    0.80    0.80
   0  -9   2    2.00    0.60
   0   9  -2    2.60    0.70
   0  -8   2   49.00    1.80
   0  -8   2   54.19    1.80
   0   8  -2   53.59    1.90
   0  -7   2   65.29    1.90
   0  -7   2   63.49    2.00
   0   7  -2   61.89    1.90
   0  -6   2   55.19    1.70
   0  -6   2   60.19    1.80
   0   6  -2   58.59    1.70
   0  -5   2    7.50    0.70
   0  -5   2    7.30    0.60
   0   5  -2    9.50    0.70
   0  -4   2 1152.78   20.30
   0  -4   2 1174.98   20.90
   0   4  -2 1159.98   20.20
   0   4  -2 1130.69   20.30
   0  -3   2  422.06    7.50
   0  -3   2  413.96    7.40
   0   3  -2  412.16    7.50
   0   3  -2  413.86    7.40
   0  -2   2 4164.68   74.59
   0   2  -2 4385.86   74.39
   0   2  -2 4177.88   74.69
   0  -1   2   16.40    0.40
   0  -1   2   15.90    0.40
   0  -1   2   16.20    0.50
   0  -1   2   16.50    0.50
   0   1  -2   15.40    0.50
   0   1  -2   16.60    0.50
   0   0   2 1656.63   28.30
   0   0   2 1620.14   28.50
   0   0   2 1687.23   28.50
   0   0  -2 1429.56   28.40
   0   0  -2 1711.13   28.50
   0   0  -2 1565.44   28.20
   0   1   2   16.10    0.40
   0   1   2   15.40    0.50
   0  -1  -2   15.90    0.60
   0  -1  -2   16.10    0.50
   0  -1  -2   16.60    0.40
   0   2   2 4356.36   76.59
   0   2   2 4299.77   75.29
   0   2   2 4350.46   75.79
   0  -2  -2 4312.07   76.79
   0   3   2  415.16    7.40
   0   3   2  392.16    7.50
   0   3   2  413.26    7.50
   0  -3  -2  436.16    7.40
   0  -3  -2  419.46    7.70
   0   4   2 1155.88   20.20
   0   4   2 1130.39   20.50
   0  -4  -2 1175.08   20.50
   0   5   2    6.60    0.50
   0   5   2    6.30    0.60
   0  -5  -2    6.10    0.70
   0   6   2   61.69    1.70
   0   6   2   62.09    1.70
   0  -6  -2   61.29    2.00
   0   7   2   61.49    1.80
   0   7   2   62.99    1.80
   0  -7  -2   63.69    2.20
   0   8   2   51.09    1.70
   0   8   2   51.49    1.70
   0  -8  -2   51.09    2.00
   0   9   2    3.80    0.70
   0   9   2    2.20    0.60
   0  -9  -2    3.00    0.80
   1  -9   2    2.30    1.30
  -1   9  -2    2.10    0.70
   1  -8   2   21.20    1.40
   1  -8   2   22.90    1.20
  -1   8  -2   21.30    1.30
   1  -7   2  161.48    3.50
   1  -7   2  162.58    3.80
  -1   7  -2  160.48    3.70
   1  -6   2   12.60    1.00
   1  -6   2   11.80    0.80
  -1   6  -2   11.70    0.80
   1  -5   2   57.29    1.50
   1  -5   2   58.39    1.70
  -1   5  -2   57.49    1.60
   1  -4   2  265.27    5.10
   1  -4   2  264.57    5.00
  -1   4  -2  271.57    5.20
   1  -3   2   67.99    1.50
   1  -3   2   67.29    1.60
  -1   3  -2   69.89    1.60
  -1   3  -2   74.89    1.50
  -1   3  -2   68.59    1.60
   1  -2   2 1063.09   18.20
   1  -2   2 1002.10   17.90
   1  -2   2 1030.50   18.10
  -1   2  -2 1006.80   18.00
  -1   2  -2 1010.40   18.60
  -1   2  -2 1028.80   17.80
   1  -1   2 2495.05   44.20
   1  -1   2 2554.04   44.60
   1  -1   2 2544.05   44.40
  -1   1  -2 2499.75   44.60
  -1   1  -2 2579.94   44.30
  -1   1  -2 2426.66   44.60
   1   0   2    0.10    0.10
   1   0   2    0.20    0.10
   1   0   2    0.00    0.10
  -1   0  -2    0.00    0.10
  -1   0  -2    0.30    0.10
  -1   0  -2    0.20    0.20
   1   1   2 2485.65   43.40
   1   1   2 2419.36   43.40
  -1  -1  -2 2450.75   43.70
   1   2   2 1017.10   18.20
   1   2   2 1029.40   18.00
   1   2   2 1017.60   17.80
  -1  -2  -2 1029.90   18.00
  -1  -2  -2  988.00   18.70
   1   3   2   68.09    1.60
   1   3   2   68.79    1.40
  -1  -3  -2   66.09    1.70
  -1  -3  -2   67.99    1.40
   1   4   2  267.57    4.90
   1   4   2  262.47    5.10
  -1  -4  -2  264.67    5.20
  -1  -4  -2  270.07    5.00
   1   5   2   60.69    1.50
   1   5   2   57.19    1.60
  -1  -5  -2   57.69    1.70
   1   6   2   12.80    0.70
   1   6   2   11.30    0.90
  -1  -6  -2   13.80    1.00
   1   7   2  163.68    3.50
   1   7   2  163.88    3.70
  -1  -7  -2  164.08    3.90
   1   8   2   22.50    1.30
   1   8   2   23.20    1.10
  -1  -8  -2   23.70    1.50
   1   9   2    2.00    0.60
   1   9   2    1.90    0.60
  -1  -9  -2    2.10    0.80
   2  -9   2    2.70    0.90
  -2   9  -2    2.90    0.70
   2  -8   2   39.70    1.90
  -2   8  -2   43.70    1.70
   2  -7   2   47.10    1.90
   2  -7   2   48.90    1.50
  -2   7  -2   47.00    1.70
   2  -6   2   43.50    1.30
   2  -6   2   44.80    1.60
  -2   6  -2   43.20    1.60
   2  -5   2    6.00    0.50
   2  -5   2    5.20    0.60
  -2   5  -2    6.40    0.60
   2  -4   2  749.62   13.60
   2  -4   2  743.83   13.20
  -2   4  -2  746.13   13.50
  -2   4  -2  767.62   13.20
   2  -3   2  268.77    4.90
   2  -3   2  275.27    5.30
  -2   3  -2  267.07    5.20
  -2   3  -2  276.37    4.90
   2  -2   2 2290.17   41.40
   2  -2   2 2342.67   40.50
  -2   2  -2 2329.17   40.50
  -2   2  -2 2241.68   40.90
   2  -1   2    5.90    0.40
   2  -1   2    6.50    0.40
  -2   1  -2    7.40    0.50
  -2   1  -2    6.00    0.40
  -2   1  -2    7.30    0.30
   2   0   2  779.02   14.10
   2   0   2  794.22   13.70
  -2   0  -2  771.72   13.90
  -2   0  -2  812.62   13.80
  -2   0  -2  789.22   13.70
   2   1   2    6.00    0.30
   2   1   2    6.60    0.40
  -2  -1  -2    6.50    0.30
  -2  -1  -2    6.90    0.50
   2   2   2 2319.37   40.30
   2   2   2 2364.36   40.40
   2   2   2 2241.48   40.70
  -2  -2  -2 2283.07   40.90
   2   3   2  278.27    5.30
   2   3   2  279.47    5.00
  -2  -3  -2  276.17    5.40
   2   4   2  749.82   13.20
   2   4   2  740.83   13.50
  -2  -4  -2  748.93   13.60
  -2  -4  -2  758.22   13.20
   2   5   2    4.90    0.60
   2   5   2    6.20    0.50
  -2  -5  -2    6.30    0.70
   2   6   2   43.20    1.30
   2   6   2   42.80    1.60
  -2  -6  -2   44.70    1.60
   2   7   2   49.40    1.80
   2   7   2   46.70    1.50
  -2  -7  -2   48.40    1.80
   2   8   2   41.10    1.40
   2   8   2   39.70    1.70
  -2  -8  -2   39.30    1.80
   2   9   2    3.40    0.70
  -2  -9  -2    1.40    0.70
   3  -9   2    0.80    0.90
  -3   9  -2    1.00    0.70
   3  -8   2    8.40    1.10
  -3   8  -2   10.20    1.10
   3  -7   2   88.89    2.70
  -3   7  -2   84.69    2.50
   3  -6   2    6.80    0.50
   3  -6   2    6.50    0.80
  -3   6  -2    7.30    0.80
   3  -5   2   28.00    0.80
   3  -5   2   28.70    1.30
  -3   5  -2   27.30    1.20
   3  -4   2   89.19    1.80
   3  -4   2   87.89    2.30
  -3   4  -2   91.19    1.80
  -3   4  -2   89.59    2.20
   3  -3   2   25.70    0.70
   3  -3   2   24.40    1.10
  -3   3  -2   25.60    1.00
  -3   3  -2   26.10    0.70
   3  -2   2  296.67    5.30
   3  -2   2  282.27    5.70
  -3   2  -2  295.27    5.60
  -3   2  -2  302.27    5.30
   3  -1   2  652.53   11.60
   3  -1   2  645.54   12.00
  -3   1  -2  677.13   11.60
  -3   1  -2  663.83   11.70
   3   0   2   -0.10    0.20
  -3   0  -2   -0.50    0.20
  -3   0  -2    0.00    0.30
   3   1   2  656.53   11.50
   3   1   2  645.54   11.60
  -3  -1  -2  653.93   11.80
  -3  -1  -2  649.04   11.50
   3   2   2  287.67    5.20
   3   2   2  291.87    5.50
   3   2   2  286.67    5.20
  -3  -2  -2  289.07    5.60
   3   3   2   23.20    1.00
   3   3   2   25.30    0.70
   3   3   2   25.20    0.70
  -3  -3  -2   26.20    1.10
   3   4   2   95.59    2.40
   3   4   2   94.19    2.00
  -3  -4  -2   93.99    2.40
   3   5   2   28.60    0.90
   3   5   2   26.80    1.30
  -3  -5  -2   29.10    1.30
   3   6   2    6.40    0.60
   3   6   2    5.40    0.80
  -3  -6  -2    7.60    0.80
   3   7   2   92.89    2.70
   3   7   2   88.59    2.20
  -3  -7  -2   86.89    2.60
   3   8   2   12.20    1.20
  -3  -8  -2   10.50    1.10
   3   9   2    0.70    0.70
   4  -8   2   18.10    1.50
  -4   8  -2   17.80    1.40
   4  -7   2   20.50    1.50
  -4   7  -2   22.60    1.40
   4  -6   2   19.80    1.40
  -4   6  -2   19.10    1.20
   4  -5   2    4.00    0.80
  -4   5  -2    4.00    0.60
   4  -4   2  256.27    5.50
  -4   4  -2  262.37    5.30
   4  -3   2   98.49    2.60
   4  -3   2   97.19    1.90
  -4   3  -2  103.99    2.50
   4  -2   2  568.64   10.90
   4  -2   2  589.04   10.20
   4  -2   2  577.54   10.20
  -4   2  -2  584.24   10.60
   4  -1   2    2.80    0.30
   4  -1   2    1.90    0.50
  -4   1  -2    1.60    0.50
   4   0   2  127.99    2.60
  -4   0  -2  124.39    2.60
  -4   0  -2  120.69    2.90
   4   1   2    2.60    0.40
  -4  -1  -2    1.90    0.50
  -4  -1  -2    2.10    0.40
   4   2   2  608.94   11.20
  -4  -2  -2  605.14   10.90
  -4  -2  -2  620.44   11.40
   4   3   2  103.19    2.50
   4   3   2   99.29    2.20
  -4  -3  -2  103.09    2.60
   4   4   2  261.37    5.00
   4   4   2  267.77    5.50
  -4  -4  -2  267.07    5.50
   4   5   2    3.90    0.40
   4   5   2    3.50    0.70
  -4  -5  -2    4.50    0.70
   4   6   2   20.30    0.90
   4   6   2   20.10    1.40
  -4  -6  -2   18.80    1.20
   4   7   2   21.40    1.50
  -4  -7  -2   21.60    1.30
   4   8   2   20.20    1.60
  -4  -8  -2   19.80    1.40
   5  -7   2   29.80    1.80
  -5   7  -2   29.60    1.70
   5  -6   2    2.00    0.80
  -5   6  -2    2.40    0.70
   5  -5   2    7.80    1.00
  -5   5  -2    8.30    0.90
   5  -4   2   20.50    1.30
  -5   4  -2   20.40    1.20
   5  -3   2    7.10    0.90
  -5   3  -2    7.60    0.80
   5  -2   2   48.50    1.80
   5  -2   2   49.60    1.20
  -5   2  -2   48.20    1.60
   5  -1   2  110.29    2.40
   5  -1   2  110.99    3.00
  -5   1  -2  111.39    2.60
   5   0   2   -0.40    0.30
  -5   0  -2   -0.90    0.40
   5   1   2  108.79    2.60
  -5  -1  -2  115.09    2.60
  -5  -1  -2  110.79    2.90
   5   2   2   49.80    1.60
  -5  -2  -2   49.70    1.40
  -5  -2  -2   48.00    1.70
   5   3   2    7.10    0.60
   5   3   2    6.70    0.70
  -5  -3  -2    7.30    0.80
   5   4   2   22.40    1.30
   5   4   2   21.60    0.90
  -5  -4  -2   21.40    1.30
   5   5   2    8.20    0.90
  -5  -5  -2    7.70    0.90
   5   6   2   -1.90    0.70
  -5  -6  -2    1.80    0.70
   5   7   2   29.30    1.80
  -5  -7  -2   29.50    1.70
   6  -6   2    7.10    1.10
  -6   6  -2    9.50    1.10
   6  -5   2    1.80    0.80
  -6   5  -2    1.70    0.70
   6  -4   2   67.49    2.50
  -6   4  -2   67.89    2.20
   6  -3   2   27.50    1.50
  -6   3  -2   28.60    1.40
   6  -2   2  118.19    3.30
  -6   2  -2  117.49    3.00
   6  -1   2    1.10    0.40
   6  -1   2    2.00    0.70
  -6   1  -2   -1.50    0.50
   6   0   2   23.40    1.50
   6   0   2   24.10    1.00
  -6   0  -2   20.90    1.10
   6   1   2    1.50    0.50
  -6  -1  -2    1.20    0.50
   6   2   2  118.79    2.90
  -6  -2  -2  120.39    3.30
  -6  -2  -2  113.29    2.70
   6   3   2   28.70    1.50
   6   3   2   28.10    1.10
  -6  -3  -2   27.40    1.60
   6   4   2   68.19    2.30
  -6  -4  -2   66.49    2.30
   6   5   2    2.10    0.80
  -6  -5  -2    3.50    0.80
   6   6   2    7.90    1.10
  -6  -6  -2    6.80    1.10
   7  -5   2    1.00    0.80
  -7   5  -2    1.40    0.80
   7  -4   2    5.70    1.10
  -7   4  -2    5.00    0.90
   7  -3   2    2.10    0.90
  -7   3  -2    2.00    0.70
   7  -2   2    6.10    1.00
  -7   2  -2    6.40    0.90
   7  -1   2   21.80    1.60
  -7   1  -2   18.40    1.20
   7   0   2   -0.80    0.70
  -7   0  -2   -0.50    0.60
   7   1   2   20.60    1.20
   7   1   2   20.00    1.50
  -7  -1  -2   19.80    1.20
   7   2   2    6.30    0.80
   7   3   2    1.40    0.60
  -7  -3  -2    0.60    0.80
   7   4   2    6.20    1.00
  -7  -4  -2    5.70    1.10
   7   5   2    0.70    0.80
  -7  -5  -2    0.10    0.80
   8  -2   2   15.20    1.50
  -8   2  -2   14.80    1.40
   8  -1   2    1.60    0.90
   8   0   2    8.30    1.30
  -8   0  -2    6.50    1.00
   8   2   2   16.90    1.70
   8   2  -3    1.20    0.70
   8   2  -3    1.50    0.70
  -8  -1   3   -0.90    0.70
   8   1  -3    0.80    0.70
  -8   0   3    0.10    0.70
   8   0  -3    0.20    0.70
  -8   1   3    1.00    0.80
   8  -1  -3    0.50    0.70
  -8   2   3    0.50    0.80
   8  -2  -3    0.90    0.80
   7   5  -3    0.30    0.70
   7   5  -3    0.20    0.60
   7   4  -3    2.40    0.70
   7   4  -3    0.40    0.60
   7   3  -3    5.40    0.80
   7   3  -3    6.40    0.90
   7   3  -3    7.20    0.90
   7   2  -3    6.00    0.80
   7   2  -3    8.50    0.90
   7   2  -3    8.70    1.00
  -7  -1   3    6.20    0.90
   7   1  -3    7.80    1.00
  -7   0   3   30.50    1.60
   7   0  -3   32.30    1.70
  -7   1   3    6.30    0.90
   7  -1  -3    7.80    1.00
  -7   2   3    5.50    0.90
   7  -2  -3    7.10    1.10
  -7   3   3    6.50    0.90
   7  -3  -3    6.10    1.10
  -7   4   3    2.10    0.80
   7  -4  -3    2.40    1.00
  -7   5   3    0.00    0.60
   7  -5  -3   -0.50    0.80
  -6  -6   3    9.30    1.10
   6   6  -3    9.10    0.90
  -6  -5   3    1.70    0.80
   6   5  -3    2.30    0.70
  -6  -4   3   -0.10    0.60
   6   4  -3    0.50    0.50
   6   4  -3    0.40    0.50
  -6  -3   3    3.40    0.70
   6   3  -3    2.80    0.60
   6   3  -3    2.70    0.60
  -6  -2   3    4.30    0.60
   6   2  -3    5.60    0.80
   6   2  -3    4.70    0.70
  -6  -1   3    0.10    0.50
   6   1  -3    0.90    0.50
  -6   0   3   -0.40    0.50
   6   0  -3    0.30    0.50
  -6   1   3    0.20    0.50
   6  -1  -3    0.90    0.60
  -6   2   3    6.40    0.90
   6  -2  -3    5.20    0.80
  -6   3   3    1.90    0.70
   6  -3  -3    2.30    0.70
  -6   4   3    0.40    0.70
   6  -4  -3   -0.40    0.60
  -6   5   3    2.50    0.80
   6  -5  -3    2.90    0.90
  -6   6   3    8.60    1.10
   6  -6  -3    6.40    1.20
  -5  -7   3   -0.10    0.70
   5   7  -3    0.20    0.60
  -5  -6   3   69.89    2.50
   5   6  -3   69.19    2.10
  -5  -5   3   -0.40    0.50
   5   5  -3    0.10    0.50
  -5  -4   3    9.90    1.00
   5   4  -3    9.10    0.80
  -5  -3   3   43.50    1.60
   5   3  -3   41.40    1.40
   5   3  -3   41.10    1.50
  -5  -2   3   51.49    1.60
   5   2  -3   49.50    1.60
   5   2  -3   52.09    1.60
  -5  -1   3   57.49    1.80
  -5  -1   3   57.09    1.60
   5   1  -3   55.39    1.80
  -5   0   3  194.98    4.20
  -5   0   3  190.68    3.80
   5   0  -3  194.08    4.30
  -5   1   3   54.89    1.80
   5  -1  -3   53.09    1.80
  -5   2   3   49.70    1.70
   5  -2  -3   52.69    1.90
  -5   3   3   39.60    1.50
   5  -3  -3   42.60    1.80
  -5   4   3    9.60    0.90
   5  -4  -3    9.10    1.10
  -5   5   3    0.40    0.60
   5  -5  -3    0.00    0.60
  -5   6   3   66.79    2.30
   5  -6  -3   69.29    2.60
  -5   7   3    1.40    0.70
   5  -7  -3    1.30    0.90
  -4  -8   3    7.30    1.10
   4   8  -3    6.90    0.90
  -4  -7   3   73.39    2.50
   4   7  -3   69.39    2.20
  -4  -6   3   35.20    1.70
   4   6  -3   35.60    1.50
  -4  -5   3    8.20    0.90
  -4  -5   3    5.80    0.60
   4   5  -3    7.10    0.70
  -4  -4   3   -0.20    0.50
  -4  -4   3    0.70    0.40
   4   4  -3    0.60    0.40
  -4  -3   3   13.50    0.80
  -4  -3   3   14.40    0.90
   4   3  -3   15.70    0.90
  -4  -2   3   50.49    1.50
   4   2  -3   50.49    1.50
   4   2  -3   52.29    1.50
  -4  -1   3    5.80    0.60
  -4  -1   3    5.80    0.50
   4   1  -3    6.50    0.60
  -4   0   3    0.10    0.40
  -4   0   3   -0.20    0.20
   4   0  -3   -0.20    0.40
  -4   1   3    6.70    0.60
  -4   1   3    5.80    0.40
   4  -1  -3    6.00    0.40
   4  -1  -3    5.70    0.60
  -4   2   3   53.99    1.60
   4  -2  -3   51.29    1.70
  -4   3   3   13.50    0.90
   4  -3  -3   14.80    1.10
  -4   4   3    1.10    0.50
   4  -4  -3    0.50    0.50
  -4   5   3    6.70    0.80
   4  -5  -3    5.00    0.80
  -4   6   3   33.50    1.60
   4  -6  -3   35.50    1.80
  -4   7   3   66.79    2.30
   4  -7  -3   68.89    2.60
  -4   8   3    8.50    1.00
   4  -8  -3    7.70    1.30
  -3  -9   3    9.50    1.10
   3   9  -3    9.10    1.00
  -3  -8   3    1.20    0.70
   3   8  -3    0.70    0.60
  -3  -7   3    2.10    0.70
   3   7  -3    2.30    0.60
  -3  -6   3  185.98    4.30
  -3  -6   3  185.48    3.80
   3   6  -3  190.28    4.10
  -3  -5   3    2.40    0.40
  -3  -5   3    1.70    0.60
   3   5  -3    2.00    0.50
  -3  -4   3   18.60    1.10
  -3  -4   3   19.00    0.70
   3   4  -3   18.30    0.90
  -3  -3   3  182.88    3.60
  -3  -3   3  183.58    3.90
   3   3  -3  187.38    3.60
   3   3  -3  188.48    3.80
  -3  -2   3  232.48    4.50
   3   2  -3  229.98    4.50
   3   2  -3  230.08    4.40
   3   2  -3  229.58    4.40
  -3  -1   3  274.47    5.20
  -3  -1   3  278.07    5.30
   3   1  -3  277.07    5.20
  -3   0   3  887.51   15.90
  -3   0   3  909.31   16.10
   3   0  -3  913.91   16.10
   3   0  -3  914.91   15.90
  -3   1   3  272.57    5.30
  -3   1   3  282.77    5.00
   3  -1  -3  282.57    5.00
   3  -1  -3  283.17    5.40
  -3   2   3  231.98    4.60
   3  -2  -3  229.78    4.70
  -3   3   3  183.28    3.80
   3  -3  -3  186.28    4.00
  -3   4   3   17.70    1.00
  -3   5   3    1.10    0.50
   3  -5  -3    1.30    0.60
  -3   6   3  176.68    4.00
   3  -6  -3  186.58    4.40
  -3   7   3    2.30    0.60
   3  -7  -3    1.80    0.80
  -3   8   3    0.30    0.60
   3  -8  -3    0.70    0.80
  -3   9   3    9.30    1.00
   3  -9  -3    8.00    1.30
  -2  -9   3   13.90    1.40
   2   9  -3   12.10    1.20
  -2  -8   3   20.80    1.40
   2   8  -3   19.20    1.20
  -2  -7   3  141.59    3.50
   2   7  -3  138.29    3.30
  -2  -6   3   80.39    2.40
  -2  -6   3   79.99    1.90
   2   6  -3   80.89    2.20
  -2  -5   3   15.60    0.70
  -2  -5   3   14.90    1.00
   2   5  -3   16.30    0.90
   2   5  -3   16.30    0.80
  -2  -4   3    6.20    0.40
  -2  -4   3    5.30    0.60
   2   4  -3    6.50    0.50
   2   4  -3    4.90    0.50
  -2  -3   3   45.70    1.00
   2   3  -3   46.90    1.10
   2   3  -3   45.60    1.20
  -2  -2   3  286.67    5.20
  -2  -2   3  288.57    5.40
   2   2  -3  284.77    5.40
   2   2  -3  293.47    5.20
  -2  -1   3   49.99    1.20
   2   1  -3   50.39    1.10
   2   1  -3   51.09    1.10
  -2   0   3    0.90    0.20
  -2   0   3    0.10    0.20
  -2   0   3    0.70    0.20
   2   0  -3    0.60    0.20
   2   0  -3    0.50    0.20
  -2   1   3   49.50    1.20
  -2   1   3   50.69    1.10
   2  -1  -3   53.09    1.30
   2  -1  -3   50.39    1.10
  -2   2   3  289.57    5.00
  -2   2   3  280.87    5.30
   2  -2  -3  285.17    5.00
   2  -2  -3  284.17    5.50
  -2   3   3   46.10    1.00
  -2   3   3   45.60    1.30
  -2   3   3   45.50    1.00
   2  -3  -3   44.40    1.40
  -2   4   3    6.30    0.40
  -2   4   3    6.90    0.60
  -2   4   3    6.00    0.40
   2  -4  -3    5.10    0.70
  -2   5   3   15.50    0.90
  -2   5   3   14.90    0.60
  -2   5   3   15.40    0.60
   2  -5  -3   15.30    1.20
  -2   6   3   78.99    1.80
  -2   6   3   78.79    2.10
   2  -6  -3   77.59    2.50
  -2   7   3  133.49    3.20
   2  -7  -3  134.89    3.70
  -2   8   3   21.50    1.20
   2  -8  -3   21.50    1.60
  -2   9   3   12.70    1.10
   2  -9  -3   12.10    1.40
  -1  -9   3   15.70    1.30
   1   9  -3   16.20    1.20
  -1  -8   3    0.30    0.50
   1   8  -3    2.10    0.60
  -1  -7   3    3.30    0.60
  -1  -7   3    3.00    0.60
   1   7  -3    3.40    0.60
  -1  -6   3  324.87    6.20
  -1  -6   3  326.97    6.50
   1   6  -3  330.97    6.40
  -1  -5   3    2.40    0.50
  -1  -5   3    3.50    0.40
   1   5  -3    3.00    0.50
   1   5  -3    2.90    0.40
  -1  -4   3   22.10    1.00
  -1  -4   3   24.30    0.70
   1   4  -3   24.10    0.70
   1   4  -3   23.60    0.90
  -1  -3   3  510.55    9.40
  -1  -3   3  526.65    9.10
   1   3  -3  519.75    9.00
   1   3  -3  512.95    9.30
  -1  -2   3  643.84   11.40
   1   2  -3  641.84   11.40
  -1  -1   3  889.61   16.10
   1   1  -3  897.61   15.90
   1   1  -3  908.51   15.70
  -1   0   3 3082.79   53.89
  -1   0   3 3021.90   53.89
  -1   0   3 3036.30   53.89
   1   0  -3 3187.28   53.89
   1   0  -3 3132.59   53.79
   1   0  -3 2918.51   53.79
  -1   1   3  889.51   15.60
  -1   1   3  918.21   15.80
  -1   1   3  882.01   15.80
   1  -1  -3  874.51   15.70
   1  -1  -3  869.51   15.60
   1  -1  -3  913.21   15.50
  -1   2   3  641.14   11.40
  -1   2   3  632.64   11.50
   1  -2  -3  670.63   11.30
   1  -2  -3  625.34   11.60
   1  -2  -3  660.33   11.40
  -1   3   3  511.35    9.00
  -1   3   3  518.65    9.10
  -1   3   3  515.35    9.20
   1  -3  -3  501.25    9.40
  -1   4   3   23.70    0.80
  -1   4   3   23.50    0.80
   1  -4  -3   23.80    1.10
  -1   5   3    3.00    0.40
  -1   5   3    3.30    0.40
   1  -5  -3    2.50    0.60
  -1   6   3  317.57    6.20
  -1   6   3  315.87    6.00
   1  -6  -3  320.77    6.70
  -1   7   3    3.60    0.60
  -1   7   3    3.40    0.50
   1  -7  -3    3.00    0.80
  -1   8   3    1.50    0.40
  -1   8   3    2.00    0.50
   1  -8  -3    2.20    0.80
  -1   9   3   15.10    1.10
   1  -9  -3   14.30    1.50
   0  -9   3   16.50    1.30
   0   9  -3   16.40    1.30
   0  -8   3   30.60    1.80
   0  -8   3   29.70    1.40
   0   8  -3   27.60    1.40
   0  -7   3  173.48    3.80
   0  -7   3  175.38    3.90
   0   7  -3  173.88    3.90
   0  -6   3  111.99    2.60
   0  -6   3  110.29    2.70
   0   6  -3  111.29    2.70
   0  -5   3   23.20    1.00
   0  -5   3   23.60    1.00
   0   5  -3   22.90    1.00
   0  -4   3   12.80    0.70
   0  -4   3   13.70    0.60
   0   4  -3   14.10    0.60
   0   4  -3   12.70    0.70
   0  -3   3   76.49    1.70
   0  -3   3   75.99    1.60
   0   3  -3   76.79    1.60
   0   3  -3   74.39    1.70
   0  -2   3  593.04   10.50
   0  -2   3  603.24   10.40
   0  -2   3  589.44   10.50
   0   2  -3  582.24   10.50
   0   2  -3  598.64   10.50
   0  -1   3  122.89    2.20
   0  -1   3  121.69    2.30
   0  -1   3  120.59    2.40
   0   1  -3  120.79    2.30
   0   1  -3  122.69    2.20
   0   0   3    0.10    0.10
   0   0   3    0.10    0.20
   0   0  -3    0.20    0.20
   0   0  -3    0.40    0.20
   0   0  -3    0.40    0.10
   0   1   3  121.09    2.20
   0   1   3  121.09    2.30
   0   1   3  125.59    2.50
   0  -1  -3  123.09    2.40
   0  -1  -3  118.99    2.30
   0  -1  -3  123.29    2.20
   0   2   3  575.94   10.40
   0   2   3  566.44   10.20
   0  -2  -3  614.24   10.30
   0  -2  -3  592.54   10.60
   0  -2  -3  589.84   10.40
   0   3   3   75.19    1.60
   0   3   3   75.09    1.70
   0  -3  -3   77.19    1.60
   0  -3  -3   73.79    1.90
   0   4   3   12.80    0.60
   0   4   3   13.60    0.60
   0  -4  -3   14.40    0.90
   0   5   3   23.30    0.90
   0   5   3   21.40    0.90
   0  -5  -3   23.20    1.10
   0   6   3  113.89    2.60
   0   6   3  110.89    2.50
   0  -6  -3  113.69    3.00
   0   7   3  168.78    3.70
   0   7   3  172.58    3.80
   0  -7  -3  177.78    4.20
   0   8   3   28.10    1.30
   0   8   3   27.60    1.20
   0  -8  -3   28.80    1.60
   0   9   3   15.40    1.00
   0   9   3   18.20    1.20
   0  -9  -3   17.90    1.50
   1  -9   3   17.20    1.30
  -1   9  -3   15.20    1.30
   1  -8   3    1.90    0.70
   1  -8   3    0.80    0.50
  -1   8  -3    1.00    0.60
   1  -7   3    3.30    0.60
   1  -7   3    3.40    0.70
  -1   7  -3    3.00    0.60
   1  -6   3  325.57    6.40
   1  -6   3  331.57    6.30
  -1   6  -3  325.77    6.50
   1  -5   3    3.10    0.50
   1  -5   3    3.20    0.40
  -1   5  -3    3.50    0.50
   1  -4   3   24.10    0.90
   1  -4   3   23.90    0.90
  -1   4  -3   24.20    1.00
   1  -3   3  519.95    9.20
   1  -3   3  512.95    9.10
  -1   3  -3  520.25    9.20
  -1   3  -3  494.45    9.20
   1  -2   3  655.73   11.50
   1  -2   3  644.74   11.40
   1  -2   3  651.63   11.50
  -1   2  -3  626.34   11.50
  -1   2  -3  669.33   11.40
   1  -1   3  901.31   16.00
   1  -1   3  918.91   15.70
   1  -1   3  884.71   16.10
  -1   1  -3  891.21   16.40
  -1   1  -3  899.01   16.10
  -1   1  -3  908.31   15.80
   1   0   3 2999.90   53.59
   1   0   3 3061.19   53.69
   1   0   3 3049.69   52.79
  -1   0  -3 3072.79   53.29
  -1   0  -3 2981.30   53.69
   1   2   3  658.83   11.40
   1   2   3  645.54   11.60
  -1  -2  -3  652.33   11.70
  -1  -2  -3  653.03   11.50
   1   3   3  517.55    9.40
   1   3   3  509.75    9.10
  -1  -3  -3  530.45    9.10
  -1  -3  -3  517.55    9.50
   1   4   3   22.20    0.90
   1   4   3   23.70    0.70
  -1  -4  -3   22.90    1.00
  -1  -4  -3   23.90    0.70
   1   5   3    2.60    0.30
   1   5   3    2.40    0.50
  -1  -5  -3    3.00    0.60
   1   6   3  319.07    6.00
   1   6   3  312.77    6.30
  -1  -6  -3  322.37    6.50
   1   7   3    3.40    0.60
   1   7   3    3.30    0.50
  -1  -7  -3    3.80    0.80
   1   8   3    2.20    0.50
   1   8   3    1.70    0.60
  -1  -8  -3    1.30    0.70
   1   9   3   14.50    1.20
  -1  -9  -3   13.50    1.30
  -2   9  -3   12.80    1.20
   2  -8   3   21.10    1.40
  -2   8  -3   21.50    1.30
   2  -7   3  142.19    3.40
   2  -7   3  136.99    3.10
  -2   7  -3  135.09    3.40
   2  -6   3   85.49    2.00
   2  -6   3   80.49    2.30
  -2   6  -3   77.99    2.20
   2  -5   3   15.20    1.00
   2  -5   3   15.50    0.70
  -2   5  -3   16.20    0.90
   2  -4   3    6.40    0.60
   2  -4   3    6.00    0.50
  -2   4  -3    5.80    0.60
   2  -3   3   48.50    1.40
   2  -3   3   46.60    1.20
  -2   3  -3   49.20    1.20
  -2   3  -3   47.00    1.30
   2  -2   3  292.37    5.20
   2  -2   3  286.57    5.40
  -2   2  -3  279.17    5.30
  -2   2  -3  288.37    5.20
   2  -1   3   53.09    1.20
   2  -1   3   49.60    1.20
  -2   1  -3   49.40    1.20
  -2   1  -3   52.99    1.20
   2   0   3    0.20    0.20
   2   0   3    0.70    0.20
  -2   0  -3    0.20    0.20
  -2   0  -3    0.60    0.20
  -2   0  -3    0.80    0.20
   2   1   3   47.80    1.20
   2   1   3   51.79    1.00
  -2  -1  -3   48.90    1.30
  -2  -1  -3   50.19    1.00
   2   2   3  282.97    5.30
   2   2   3  280.57    4.90
   2   2   3  278.87    4.90
  -2  -2  -3  288.27    5.40
   2   3   3   48.40    1.00
   2   3   3   47.30    1.00
   2   3   3   44.10    1.30
  -2  -3  -3   47.10    1.40
   2   4   3    5.70    0.60
   2   4   3    6.40    0.40
  -2  -4  -3    6.60    0.40
   2   5   3   14.40    0.60
   2   5   3   15.30    1.00
  -2  -5  -3   15.60    1.00
   2   6   3   82.09    2.30
   2   6   3   79.89    1.90
  -2  -6  -3   79.99    2.40
   2   7   3  137.49    2.90
   2   7   3  134.19    3.40
  -2  -7  -3  137.19    3.50
   2   8   3   19.60    1.30
  -2  -8  -3   20.60    1.40
   2   9   3   12.20    1.20
  -2  -9  -3   12.60    1.30
   3  -9   3    8.90    1.20
  -3   9  -3   10.20    1.20
   3  -8   3    0.20    0.70
  -3   8  -3    1.00    0.60
   3  -7   3    1.50    0.70
  -3   7  -3    2.20    0.60
   3  -6   3  185.28    3.70
   3  -6   3  187.88    4.20
  -3   6  -3  177.88    4.10
   3  -5   3    1.90    0.30
   3  -5   3    1.40    0.60
  -3   5  -3    1.70    0.50
   3  -4   3   19.10    1.00
   3  -4   3   20.40    0.70
  -3   4  -3   19.20    0.70
  -3   4  -3   18.50    0.90
   3  -3   3  183.58    3.50
   3  -3   3  183.18    3.90
  -3   3  -3  187.98    3.80
  -3   3  -3  183.78    3.50
   3  -2   3  231.28    4.30
   3  -2   3  233.88    4.70
  -3   2  -3  226.68    4.50
  -3   2  -3  236.28    4.30
   3  -1   3  277.07    5.10
  -3   1  -3  277.67    5.50
  -3   1  -3  279.77    5.20
  -3   1  -3  282.07    5.10
   3   0   3  922.11   16.20
   3   0   3  948.41   16.20
  -3   0  -3  906.91   16.50
  -3   0  -3  919.31   16.20
   3   1   3  279.07    5.00
   3   1   3  280.87    5.30
  -3  -1  -3  275.67    5.00
  -3  -1  -3  279.87    5.50
   3   2   3  234.28    4.20
   3   2   3  233.68    4.50
   3   2   3  224.88    4.20
  -3  -2  -3  231.28    4.70
   3   3   3  180.48    3.40
   3   3   3  183.78    3.90
   3   3   3  184.98    3.40
  -3  -3  -3  188.08    3.90
   3   4   3   18.00    0.60
   3   4   3   19.60    0.70
   3   4   3   17.20    1.00
  -3  -4  -3   21.20    1.10
   3   5   3    2.00    0.50
   3   5   3    2.00    0.30
  -3  -5  -3    1.80    0.60
   3   6   3  187.68    4.30
   3   6   3  188.58    3.70
  -3  -6  -3  185.08    4.30
   3   7   3    2.70    0.70
  -3  -7  -3    2.10    0.70
   3   8   3    0.30    0.60
  -3  -8  -3   -0.10    0.60
   3   9   3    6.90    1.00
  -3  -9  -3   10.30    1.20
   4  -8   3    7.90    1.10
  -4   8  -3    5.80    0.90
   4  -7   3   67.59    2.40
  -4   7  -3   68.49    2.30
   4  -6   3   32.60    1.60
  -4   6  -3   32.00    1.50
   4  -5   3    7.30    0.90
  -4   5  -3    6.80    0.80
   4  -4   3    0.70    0.50
   4  -4   3    1.10    0.30
  -4   4  -3    0.30    0.40
   4  -3   3   14.80    0.60
   4  -3   3   14.10    1.00
  -4   3  -3   15.00    0.60
  -4   3  -3   14.80    0.90
   4  -2   3   54.99    1.70
   4  -2   3   50.49    1.30
  -4   2  -3   51.99    1.50
  -4   2  -3   49.99    1.30
   4  -1   3    6.60    0.50
  -4   1  -3    5.80    0.60
   4   0   3   -0.10    0.30
  -4   0  -3   -0.20    0.30
  -4   0  -3    0.00    0.40
   4   1   3    7.00    0.60
  -4  -1  -3    5.10    0.60
  -4  -1  -3    6.00    0.50
   4   2   3   50.49    1.50
  -4  -2  -3   49.70    1.70
  -4  -2  -3   52.09    1.30
   4   3   3   14.50    0.60
   4   3   3   14.70    0.90
  -4  -3  -3   14.40    1.00
   4   4   3    1.00    0.30
   4   4   3    0.30    0.50
  -4  -4  -3    1.60    0.60
   4   5   3    6.10    0.80
   4   5   3    6.30    0.50
  -4  -5  -3    7.90    0.90
   4   6   3   35.30    1.70
  -4  -6  -3   34.40    1.70
   4   7   3   69.19    2.50
  -4  -7  -3   66.99    2.40
   4   8   3    6.30    1.00
  -4  -8  -3    9.40    1.10
   5  -7   3    0.40    0.70
  -5   7  -3    0.40    0.70
   5  -6   3   69.39    2.50
  -5   6  -3   67.39    2.30
   5  -5   3    0.10    0.60
  -5   5  -3   -0.40    0.50
   5  -4   3    9.10    1.00
  -5   4  -3    8.30    0.80
   5  -3   3   40.80    1.70
   5  -3   3   41.80    1.30
  -5   3  -3   42.80    1.50
   5  -2   3   52.79    1.90
   5  -2   3   51.69    1.30
  -5   2  -3   52.79    1.60
   5  -1   3   53.79    1.40
   5  -1   3   55.99    2.00
  -5   1  -3   53.19    1.60
   5   0   3  190.48    3.90
  -5   0  -3  189.78    4.30
  -5   0  -3  186.98    3.90
   5   1   3   55.99    1.60
  -5  -1  -3   54.49    1.50
  -5  -1  -3   56.59    1.90
   5   2   3   51.49    1.70
  -5  -2  -3   50.49    1.40
  -5  -2  -3   51.49    1.90
   5   3   3   41.40    1.20
   5   3   3   42.10    1.60
  -5  -3  -3   41.20    1.70
   5   4   3    8.20    0.90
   5   4   3    8.50    0.60
  -5  -4  -3    9.50    1.00
   5   5   3    0.10    0.60
  -5  -5  -3    1.00    0.60
   5   6   3   71.19    2.60
  -5  -6  -3   71.49    2.50
   5   7   3    0.80    0.70
  -5  -7  -3    0.70    0.70
   6  -6   3    7.80    1.20
  -6   6  -3    8.60    1.10
   6  -5   3    2.20    0.80
  -6   5  -3    4.00    0.80
   6  -4   3    0.30    0.60
  -6   4  -3   -0.30    0.60
   6  -3   3    3.00    0.80
  -6   3  -3    3.20    0.70
   6  -2   3    4.70    0.90
  -6   2  -3    4.60    0.70
   6  -1   3   -0.20    0.60
   6  -1   3    0.50    0.40
  -6   1  -3   -0.40    0.50
   6   0   3   -0.50    0.60
   6   0   3    0.60    0.40
  -6   0  -3    0.10    0.40
   6   1   3    1.20    0.50
  -6  -1  -3   -0.30    0.40
  -6  -1  -3    0.60    0.60
   6   2   3    4.50    0.70
  -6  -2  -3    5.70    0.60
  -6  -2  -3    5.80    0.90
   6   3   3    3.40    0.60
   6   3   3    3.30    0.70
  -6  -3  -3    1.90    0.70
   6   4   3   -0.70    0.60
  -6  -4  -3    0.40    0.70
   6   5   3    3.40    0.90
  -6  -5  -3    4.30    0.90
   6   6   3    8.60    1.10
  -6  -6  -3    9.90    1.20
   7  -5   3    0.60    0.80
  -7   5  -3   -0.10    0.60
   7  -4   3    2.60    0.90
  -7   4  -3    1.70    0.70
   7  -3   3    6.50    1.10
  -7   3  -3    6.30    0.90
   7  -2   3    7.60    1.10
  -7   2  -3    7.50    0.90
   7  -1   3    7.30    1.10
  -7   1  -3    6.70    0.80
   7   0   3   33.20    1.90
  -7   0  -3   30.80    1.40
   7   1   3    6.90    0.80
   7   1   3    6.60    1.10
  -7  -1  -3    7.60    0.80
   7   2   3    6.60    0.80
  -7  -2  -3    7.40    1.10
   7   3   3    6.30    0.90
  -7  -3  -3    6.70    1.10
   7   4   3    2.30    0.80
  -7  -4  -3    1.60    0.80
   7   5   3    0.20    0.80
  -7  -5  -3    0.80    0.80
   8  -2   3   -0.10    0.80
  -8   2  -3   -0.50    0.70
   8  -1   3    0.90    0.90
  -8   1  -3   -0.20    0.60
   8   0   3   -1.00    0.70
   8   1   3   -1.60    0.80
   8   2   3   -1.00    0.80
   8   1  -4    1.50    0.70
  -8   0   4    1.70    0.80
   8   0  -4    2.50    0.80
  -8   1   4    0.90    0.80
   8  -1  -4    0.90    0.80
  -7  -5   4    1.70    0.80
   7   5  -4    2.50    0.80
  -7  -4   4    9.70    1.10
   7   4  -4   12.00    1.10
   7   3  -4    2.00    0.70
   7   2  -4    7.80    0.90
   7   2  -4    6.70    0.90
  -7  -1   4    0.70    0.70
   7   1  -4    1.80    0.70
  -7   0   4   -0.20    0.70
   7   0  -4    0.50    0.60
  -7   1   4    1.90    0.80
   7  -1  -4    2.30    0.80
  -7   2   4    7.60    1.00
   7  -2  -4    8.40    1.20
  -7   3   4    1.30    0.80
   7  -3  -4    2.50    0.80
  -7   4   4   12.50    1.30
   7  -4  -4   12.60    1.40
  -7   5   4    1.40    0.80
   7  -5  -4    2.30    0.90
  -6  -6   4   17.60    1.70
   6   6  -4   18.80    1.40
  -6  -5   4   37.90    1.80
   6   5  -4   36.30    1.60
  -6  -4   4   49.60    1.90
   6   4  -4   46.50    1.80
  -6  -3   4    2.80    0.70
   6   3  -4    2.80    0.70
   6   3  -4    2.40    0.60
  -6  -2   4   61.19    1.90
   6   2  -4   59.39    2.00
   6   2  -4   59.09    1.90
  -6  -1   4    8.00    0.90
  -6  -1   4    8.10    0.80
   6   1  -4    8.50    0.90
  -6   0   4   12.90    1.10
  -6   0   4   13.20    0.80
   6   0  -4   13.90    1.10
  -6   1   4    7.20    0.90
   6  -1  -4    7.20    0.90
  -6   2   4   57.69    2.00
   6  -2  -4   60.49    2.20
  -6   3   4    2.90    0.70
   6  -3  -4    2.00    0.70
  -6   4   4   46.60    2.00
   6  -4  -4   48.00    2.20
  -6   5   4   41.20    1.90
   6  -5  -4   40.00    2.10
  -6   6   4   21.50    1.60
   6  -6  -4   22.90    1.90
  -5  -7   4    8.40    1.10
   5   7  -4    8.90    1.00
  -5  -6   4  186.78    4.60
   5   6  -4  181.48    4.20
  -5  -5   4   12.00    1.20
   5   5  -4   10.30    1.00
  -5  -4   4   63.49    2.10
   5   4  -4   67.19    2.00
   5   4  -4   62.39    1.80
  -5  -3   4   12.80    1.00
   5   3  -4   11.30    0.80
   5   3  -4   13.10    0.90
  -5  -2   4   51.59    1.70
   5   2  -4   47.80    1.60
   5   2  -4   50.19    1.60
  -5  -1   4    5.80    0.60
  -5  -1   4    5.90    0.70
   5   1  -4    5.60    0.70
  -5   0   4    0.60    0.50
  -5   0   4    0.20    0.30
   5   0  -4    0.10    0.50
  -5   1   4    4.90    0.70
  -5   1   4    6.40    0.50
   5  -1  -4    6.00    0.80
  -5   2   4   49.20    1.70
   5  -2  -4   47.70    1.80
  -5   3   4   11.00    1.00
   5  -3  -4   11.70    1.10
  -5   4   4   61.39    2.10
   5  -4  -4   62.39    2.30
  -5   5   4    9.40    1.00
   5  -5  -4    7.40    1.00
  -5   6   4  174.68    4.30
   5  -6  -4  180.38    4.70
  -5   7   4    8.20    1.00
   5  -7  -4    6.90    1.20
  -4  -8   4   -0.20    0.60
   4   8  -4   -0.20    0.60
  -4  -7   4    4.80    0.90
   4   7  -4    6.60    0.80
  -4  -6   4   63.69    2.30
   4   6  -4   64.09    2.00
  -4  -5   4  145.19    3.60
   4   5  -4  141.59    3.30
  -4  -4   4  173.58    4.00
   4   4  -4  182.78    3.90
  -4  -3   4    6.50    0.70
   4   3  -4    7.20    0.60
   4   3  -4    6.20    0.70
  -4  -2   4  254.67    5.10
   4   2  -4  257.87    5.10
   4   2  -4  247.38    4.90
  -4  -1   4   31.60    1.20
  -4  -1   4   31.10    1.10
   4   1  -4   31.00    1.10
  -4   0   4   38.70    1.10
  -4   0   4   37.90    1.30
   4   0  -4   41.90    1.40
  -4   1   4   31.90    1.20
  -4   1   4   31.10    0.90
   4  -1  -4   30.70    0.90
   4  -1  -4   30.50    1.20
  -4   2   4  250.67    4.40
  -4   2   4  250.37    5.10
   4  -2  -4  238.68    4.40
   4  -2  -4  252.77    5.20
  -4   3   4    6.10    0.70
   4  -3  -4    6.50    0.80
  -4   4   4  176.58    3.90
   4  -4  -4  176.98    4.20
  -4   5   4  129.99    3.20
   4  -5  -4  137.99    3.60
  -4   6   4   62.79    2.10
   4  -6  -4   62.09    2.40
  -4   7   4    4.90    0.80
   4  -7  -4    6.60    1.20
  -4   8   4    1.00    0.60
   4  -8  -4    0.00    0.80
  -3  -9   4   14.70    1.40
   3   9  -4   13.80    1.20
  -3  -8   4    7.00    1.00
   3   8  -4    5.90    0.80
  -3  -7   4   31.10    1.60
   3   7  -4   31.80    1.50
  -3  -6   4  492.15    9.70
   3   6  -4  495.65    9.40
  -3  -5   4   39.60    1.10
  -3  -5   4   41.10    1.60
   3   5  -4   40.80    1.50
  -3  -4   4  272.67    5.00
  -3  -4   4  274.47    5.60
   3   4  -4  272.97    5.40
   3   4  -4  270.87    5.10
  -3  -3   4   54.79    1.60
   3   3  -4   56.29    1.30
   3   3  -4   55.79    1.50
   3   3  -4   56.29    1.30
  -3  -2   4  304.77    5.80
   3   2  -4  299.77    5.80
   3   2  -4  305.97    5.60
   3   2  -4  302.17    5.60
  -3  -1   4   26.40    0.90
  -3  -1   4   26.50    1.00
   3   1  -4   26.90    0.90
  -3   0   4    0.10    0.20
  -3   0   4    1.30    0.40
   3   0  -4    0.70    0.30
  -3   1   4   25.30    0.70
  -3   1   4   23.90    0.90
   3  -1  -4   25.80    1.00
   3  -1  -4   26.30    0.70
  -3   2   4  294.27    5.70
  -3   2   4  296.57    5.30
   3  -2  -4  302.57    5.90
   3  -2  -4  299.07    5.30
  -3   3   4   55.49    1.60
   3  -3  -4   55.19    1.80
  -3   4   4  263.27    5.30
   3  -4  -4  267.97    5.60
  -3   5   4   39.60    1.50
   3  -5  -4   39.20    1.80
  -3   6   4  482.65    9.20
   3  -6  -4  473.75    9.60
  -3   7   4   28.80    1.40
   3  -7  -4   27.40    1.80
  -3   8   4    5.20    0.80
   3  -8  -4    5.20    1.10
  -3   9   4   10.90    1.10
   3  -9  -4   10.20    1.40
  -2  -9   4    0.00    0.60
   2   9  -4    0.10    0.60
  -2  -8   4    0.10    0.60
   2   8  -4   -0.20    0.50
  -2  -7   4   13.50    1.20
   2   7  -4   12.60    1.00
  -2  -6   4  135.09    3.30
  -2  -6   4  133.99    2.80
   2   6  -4  138.09    3.20
  -2  -5   4  336.37    6.70
  -2  -5   4  337.17    6.10
   2   5  -4  341.37    6.50
   2   5  -4  336.17    6.10
  -2  -4   4  475.05    8.40
  -2  -4   4  467.45    8.90
   2   4  -4  478.55    8.40
   2   4  -4  485.05    8.80
  -2  -3   4   27.40    1.00
   2   3  -4   28.30    0.70
   2   3  -4   28.50    1.00
  -2  -2   4  816.82   14.70
   2   2  -4  821.82   14.60
   2   2  -4  841.52   14.50
   2   2  -4  824.32   14.50
  -2  -1   4   76.69    1.70
   2   1  -4   76.49    1.60
   2   1  -4   77.49    1.60
   2   1  -4   74.19    1.70
  -2   0   4   73.99    1.70
  -2   0   4   70.49    1.60
  -2   0   4   75.09    1.60
   2   0  -4   70.19    1.60
   2   0  -4   72.99    1.60
  -2   1   4   75.89    1.60
  -2   1   4   73.39    1.70
   2  -1  -4   76.49    1.50
   2  -1  -4   75.49    1.80
  -2   2   4  824.32   14.70
  -2   2   4  823.82   14.60
   2  -2  -4  843.22   14.40
   2  -2  -4  819.22   14.80
  -2   3   4   28.00    0.70
  -2   3   4   29.80    1.00
   2  -3  -4   27.50    0.70
   2  -3  -4   28.10    1.20
  -2   4   4  470.65    8.40
  -2   4   4  479.05    8.80
  -2   4   4  473.85    8.40
   2  -4  -4  477.65    9.10
  -2   5   4  338.07    6.50
  -2   5   4  338.57    6.20
   2  -5  -4  333.47    6.90
  -2   6   4  132.79    3.10
  -2   6   4  133.59    2.80
   2  -6  -4  135.39    3.60
  -2   7   4   11.50    1.00
   2  -7  -4   10.00    1.20
  -2   8   4    0.00    0.50
   2  -8  -4   -0.20    0.70
  -2   9   4    0.40    0.60
   2  -9  -4    0.60    0.90
  -1  -9   4   23.70    1.50
   1   9  -4   21.50    1.40
  -1  -8   4    8.00    0.90
   1   8  -4    7.40    0.80
  -1  -7   4   53.39    1.90
   1   7  -4   53.39    1.80
  -1  -6   4  863.41   15.30
  -1  -6   4  878.51   15.70
   1   6  -4  843.32   15.60
  -1  -5   4   79.19    1.70
  -1  -5   4   77.49    2.10
   1   5  -4   78.89    2.10
   1   5  -4   80.79    1.70
  -1  -4   4  678.13   12.40
  -1  -4   4  690.23   11.90
   1   4  -4  692.03   12.00
   1   4  -4  679.83   12.30
  -1  -3   4  135.99    2.90
   1   3  -4  132.59    2.80
   1   2  -4 1038.50   18.40
  -1  -1   4   76.99    1.70
  -1  -1   4   77.29    1.50
   1   1  -4   88.69    1.70
   1   1  -4   79.79    1.90
   1   1  -4   77.09    1.50
  -1   0   4   -0.30    0.20
  -1   0   4   -0.40    0.20
  -1   0   4   -0.20    0.20
   1   0  -4   -0.20    0.20
   1   0  -4    0.10    0.20
   1   0  -4   -0.30    0.20
  -1   1   4   73.69    1.60
  -1   1   4   75.39    1.70
  -1   1   4   73.09    1.50
   1  -1  -4   73.39    1.50
   1  -1  -4   73.19    1.70
   1  -1  -4   74.59    1.60
  -1   2   4 1037.60   18.10
  -1   2   4 1039.40   17.80
   1  -2  -4  915.71   17.70
   1  -2  -4 1068.19   17.70
   1  -2  -4 1023.20   18.70
  -1   3   4  138.89    2.70
  -1   3   4  134.49    2.70
   1  -3  -4  129.89    3.00
   1  -3  -4  142.49    2.70
  -1   4   4  689.93   12.20
  -1   4   4  683.53   12.30
   1  -4  -4  689.23   12.70
  -1   5   4   79.79    1.90
  -1   5   4   77.19    1.90
   1  -5  -4   78.29    2.40
  -1   6   4  853.31   15.40
  -1   6   4  866.91   15.30
   1  -6  -4  850.21   16.00
  -1   7   4   51.99    1.60
  -1   7   4   51.19    1.60
   1  -7  -4   52.09    2.10
  -1   8   4    8.70    0.80
  -1   8   4    8.10    0.80
   1  -8  -4    9.30    1.20
  -1   9   4   21.80    1.20
   1  -9  -4   21.10    1.60
   0  -9   4    0.30    0.50
   0   9  -4    0.30    0.60
   0  -8   4    0.50    0.50
   0   8  -4    0.00    0.50
   0  -7   4   17.50    1.10
   0  -7   4   14.70    1.00
   0   7  -4   17.60    1.10
   0  -6   4  179.78    3.90
   0  -6   4  175.48    3.70
   0   6  -4  180.98    4.00
   0  -5   4  487.85    8.80
   0  -5   4  472.55    9.00
   0   5  -4  488.85    9.00
   0  -4   4  713.73   12.80
   0  -4   4  710.73   12.60
   0   4  -4  724.53   12.60
   0   4  -4  710.73   12.80
   0  -3   4   53.79    1.10
   0  -3   4   52.39    1.10
   0  -3   4   51.79    1.40
   0   3  -4   54.19    1.40
   0  -2   4 1437.86   24.70
   0  -2   4 1358.46   24.30
   0  -2   4 1411.66   24.70
   0   2  -4 1387.66   25.00
   0  -1   4  127.89    2.30
   0  -1   4  118.09    2.40
   0  -1   4  124.29    2.40
   0   1  -4  122.99    2.30
   0   1  -4  121.09    2.40
   0   0   4   97.29    1.90
   0   0   4   99.79    2.00
   0   0   4   90.29    1.80
   0   0  -4   93.19    1.90
   0   0  -4   94.19    1.90
   0   0  -4   94.49    1.90
   0   1   4  121.99    2.30
   0   1   4  122.29    2.40
   0   1   4  127.29    2.60
   0  -1  -4  122.09    2.50
   0  -1  -4  127.69    2.30
   0  -1  -4  126.59    2.40
   0   2   4 1388.36   25.00
   0   2   4 1345.97   25.30
   0  -2  -4 1493.85   25.10
   0  -2  -4 1456.35   25.20
   0  -2  -4 1434.76   25.80
   0   3   4   52.19    1.30
   0   3   4   53.19    1.20
   0  -3  -4   54.59    1.20
   0  -3  -4   52.99    1.60
   0   4   4  710.83   12.50
   0   4   4  720.13   12.70
   0  -4  -4  695.03   13.00
   0   5   4  471.05    8.60
   0   5   4  477.35    8.50
   0  -5  -4  453.65    9.00
   0   6   4  174.28    3.60
   0   6   4  176.48    3.70
   0  -6  -4  171.18    4.10
   0   7   4   16.00    0.90
   0   7   4   16.60    1.00
   0  -7  -4   16.90    1.30
   0   8   4   -0.10    0.40
   0   8   4    0.10    0.40
   0  -8  -4    0.00    0.60
   0   9   4    0.30    0.50
   0  -9  -4   -0.10    0.70
   1  -9   4   22.80    1.30
  -1   9  -4   22.30    1.50
   1  -8   4    9.50    0.90
  -1   8  -4    7.20    0.90
   1  -7   4   53.89    1.70
   1  -7   4   52.59    1.80
  -1   7  -4   54.29    1.90
   1  -6   4  854.71   15.70
   1  -6   4  873.51   15.70
  -1   6  -4  881.11   15.90
   1  -5   4   78.99    2.00
   1  -5   4   80.19    2.00
  -1   5  -4   77.69    2.10
   1  -4   4  688.33   12.20
   1  -4   4  685.13   12.10
  -1   4  -4  660.03   12.20
   1  -3   4  138.79    2.80
   1  -3   4  137.79    2.80
   1  -3   4  140.29    2.80
  -1   3  -4  138.29    2.90
   1  -2   4 1046.00   18.50
   1  -2   4 1069.49   19.10
   1  -2   4 1069.19   18.50
  -1   2  -4 1061.69   19.00
   1  -1   4   76.49    1.60
   1  -1   4   75.59    1.60
   1  -1   4   74.69    1.60
  -1   1  -4   76.09    1.60
  -1   1  -4   73.39    1.60
  -1   1  -4   77.39    1.60
   1   0   4   -0.10    0.20
   1   0   4   -0.50    0.20
   1   0   4   -0.30    0.20
  -1   0  -4   -0.50    0.10
  -1   0  -4   -0.60    0.20
   1   1   4   74.99    1.60
  -1  -1  -4   74.19    1.30
  -1  -1  -4   77.19    1.30
  -1  -1  -4   74.69    1.70
   1   2   4 1027.50   18.00
  -1  -2  -4 1019.10   18.40
   1   3   4  139.09    2.90
   1   3   4  138.19    2.60
  -1  -3  -4  139.79    3.10
  -1  -3  -4  143.39    2.60
   1   4   4  677.93   11.90
   1   4   4  674.23   12.30
  -1  -4  -4  679.23   12.50
  -1  -4  -4  695.93   12.00
   1   5   4   79.19    1.70
   1   5   4   79.79    2.00
  -1  -5  -4   77.49    2.20
   1   6   4  858.71   15.50
   1   6   4  853.71   15.20
  -1  -6  -4  857.51   15.80
   1   7   4   51.19    1.50
   1   7   4   49.80    1.70
  -1  -7  -4   49.10    2.00
   1   8   4    6.90    0.80
   1   8   4    8.30    0.80
  -1  -8  -4    7.20    1.00
   1   9   4   21.00    1.40
  -1  -9  -4   21.60    1.60
  -2   9  -4    0.10    0.60
   2  -8   4    0.00    0.60
  -2   8  -4   -0.10    0.60
   2  -7   4   12.30    1.10
   2  -7   4   14.00    0.90
  -2   7  -4   10.70    1.00
   2  -6   4  133.39    3.00
   2  -6   4  133.99    3.20
  -2   6  -4  134.39    3.20
   2  -5   4  344.17    6.70
   2  -5   4  336.67    6.40
  -2   5  -4  347.27    6.70
   2  -4   4  490.65    8.80
   2  -4   4  487.75    9.00
  -2   4  -4  477.75    9.00
   2  -3   4   27.30    0.90
   2  -3   4   27.30    1.00
  -2   3  -4   27.40    1.00
   2  -2   4  831.22   14.70
   2  -2   4  833.72   14.50
  -2   2  -4  816.12   14.60
   2  -1   4   77.29    1.60
   2  -1   4   76.69    1.70
  -2   1  -4   75.99    1.60
  -2   1  -4   74.69    1.80
   2   0   4   84.39    1.80
   2   0   4   80.59    1.60
  -2   0  -4   73.09    1.60
   2   1   4   77.09    1.40
   2   1   4   74.69    1.70
  -2  -1  -4   75.29    1.80
  -2  -1  -4   75.39    1.40
   2   2   4  849.61   15.00
  -2  -2  -4  833.62   15.10
   2   3   4   26.60    0.60
   2   3   4   27.60    0.60
   2   3   4   27.20    1.00
  -2  -3  -4   28.80    1.10
   2   4   4  485.95    8.50
   2   4   4  471.25    9.00
  -2  -4  -4  494.15    8.50
  -2  -4  -4  488.45    9.20
   2   5   4  341.27    6.70
   2   5   4  339.27    6.20
  -2  -5  -4  342.97    6.90
  -2  -5  -4  342.97    6.20
   2   6   4  133.89    3.20
   2   6   4  133.19    2.70
  -2  -6  -4  135.59    3.40
   2   7   4   10.20    1.00
   2   7   4   11.00    0.90
  -2  -7  -4   12.90    1.20
   2   8   4    0.00    0.50
  -2  -8  -4   -0.60    0.60
   2   9   4    0.20    0.60
  -2  -9  -4    0.00    0.70
  -3   9  -4   13.10    1.30
   3  -8   4    5.60    0.90
  -3   8  -4    4.80    0.90
   3  -7   4   27.40    1.50
  -3   7  -4   28.70    1.50
   3  -6   4  485.25    9.40
   3  -6   4  493.65    8.80
  -3   6  -4  465.55    9.30
   3  -5   4   40.50    1.20
   3  -5   4   38.00    1.50
  -3   5  -4   38.20    1.40
   3  -4   4  273.77    5.20
   3  -4   4  278.57    5.60
  -3   4  -4  273.17    5.50
   3  -3   4   57.99    1.40
   3  -3   4   54.69    1.70
  -3   3  -4   56.89    1.60
   3  -2   4  304.47    5.60
   3  -2   4  304.87    6.00
  -3   2  -4  306.67    5.80
   3  -1   4   25.60    0.90
  -3   1  -4   24.70    1.00
  -3   1  -4   25.90    0.80
   3   0   4    0.10    0.30
   3   0   4   -0.20    0.20
  -3   0  -4    0.20    0.40
  -3   0  -4   -0.20    0.20
   3   1   4   24.20    0.90
   3   1   4   26.20    0.70
  -3  -1  -4   25.90    1.00
  -3  -1  -4   26.00    0.70
   3   2   4  300.17    5.30
   3   2   4  302.87    5.30
   3   2   4  295.37    5.80
  -3  -2  -4  307.57    6.00
   3   3   4   57.89    1.10
   3   3   4   54.29    1.10
   3   3   4   53.29    1.60
  -3  -3  -4   59.39    1.80
   3   4   4  278.27    4.80
   3   4   4  262.67    4.80
   3   4   4  265.07    5.50
  -3  -4  -4  274.97    5.60
   3   5   4   40.30    1.00
   3   5   4   39.30    1.60
  -3  -5  -4   39.70    1.60
   3   6   4  486.75    9.40
  -3  -6  -4  481.05    9.50
   3   7   4   29.30    1.50
  -3  -7  -4   28.50    1.60
   3   8   4    4.80    0.90
  -3  -8  -4    7.80    1.10
   3   9   4   10.80    1.20
  -3  -9  -4   13.30    1.40
   4  -8   4    0.00    0.60
  -4   8  -4   -0.40    0.60
   4  -7   4    5.20    0.90
  -4   7  -4    6.50    0.90
   4  -6   4   60.89    2.20
  -4   6  -4   64.69    2.20
   4  -5   4  135.99    3.50
  -4   5  -4  141.59    3.40
   4  -4   4  175.98    4.10
   4  -4   4  181.58    3.50
  -4   4  -4  182.58    4.00
   4  -3   4    6.30    0.50
   4  -3   4    4.90    0.70
  -4   3  -4    6.40    0.60
   4  -2   4  254.27    4.80
   4  -2   4  253.97    5.30
  -4   2  -4  252.77    5.00
   4  -1   4   31.30    1.00
  -4   1  -4   31.80    1.30
  -4   1  -4   30.30    1.00
   4   0   4   38.10    1.20
  -4   0  -4   37.60    1.10
  -4   0  -4   38.50    1.40
   4   1   4   29.70    1.10
  -4  -1  -4   30.00    0.90
  -4  -1  -4   29.90    1.30
   4   2   4  252.87    5.00
   4   2   4  244.68    4.60
  -4  -2  -4  252.37    4.60
  -4  -2  -4  253.97    5.30
   4   3   4    6.20    0.70
   4   3   4    6.50    0.40
   4   3   4    7.60    0.40
  -4  -3  -4    6.20    0.70
   4   4   4  183.38    3.40
   4   4   4  179.08    4.10
  -4  -4  -4  184.48    4.20
   4   5   4  141.29    3.50
  -4  -5  -4  138.59    3.50
   4   6   4   67.59    2.30
  -4  -6  -4   61.89    2.30
   4   7   4    6.00    1.00
  -4  -7  -4    6.10    1.00
   4   8   4   -0.10    0.70
  -4  -8  -4   -0.50    0.60
   5  -7   4    9.30    1.20
  -5   7  -4    6.50    1.00
   5  -6   4  175.48    4.50
  -5   6  -4  178.18    4.30
   5  -5   4   10.20    1.10
  -5   5  -4   11.40    1.10
   5  -4   4   66.19    2.30
  -5   4  -4   68.19    2.10
   5  -3   4   12.80    1.10
   5  -3   4   13.50    0.70
  -5   3  -4   12.60    0.90
   5  -2   4   50.29    1.90
   5  -2   4   49.40    1.40
  -5   2  -4   50.19    1.60
   5  -1   4    5.90    0.50
   5  -1   4    5.00    0.80
  -5   1  -4    6.30    0.60
   5   0   4   -0.30    0.30
  -5   0  -4   -0.30    0.30
  -5   0  -4    0.30    0.60
   5   1   4    6.20    0.60
  -5  -1  -4    6.70    0.90
  -5  -1  -4    6.50    0.60
   5   2   4   49.80    1.70
  -5  -2  -4   49.50    1.30
  -5  -2  -4   51.89    1.90
   5   3   4   11.60    1.00
   5   3   4   13.80    0.60
  -5  -3  -4   13.60    1.10
   5   4   4   64.99    2.10
  -5  -4  -4   64.49    2.20
   5   5   4   13.00    1.30
  -5  -5  -4   11.00    1.20
   5   6   4  186.48    4.60
  -5  -6  -4  181.28    4.60
   5   7   4   10.20    1.20
  -5  -7  -4    9.30    1.20
   6  -6   4   22.20    1.70
  -6   6  -4   22.00    1.60
   6  -5   4   36.60    1.90
  -6   5  -4   37.60    1.70
   6  -4   4   48.30    2.10
  -6   4  -4   45.70    1.80
   6  -3   4    2.70    0.80
  -6   3  -4    2.90    0.60
   6  -2   4   57.49    2.20
  -6   2  -4   62.09    1.90
   6  -1   4    7.50    0.70
   6  -1   4    7.60    1.10
  -6   1  -4    7.80    0.70
   6   0   4   11.90    0.90
  -6   0  -4   10.40    0.80
   6   1   4    8.50    0.90
  -6  -1  -4    9.90    1.10
  -6  -1  -4    8.10    0.80
   6   2   4   61.79    2.00
  -6  -2  -4   63.39    2.30
  -6  -2  -4   57.09    2.10
   6   3   4    2.50    0.70
  -6  -3  -4    2.50    0.80
   6   4   4   50.79    2.10
  -6  -4  -4   48.80    2.10
   6   5   4   42.20    2.00
  -6  -5  -4   41.90    2.10
   6   6   4   18.80    1.70
  -6  -6  -4   22.00    1.70
   7  -5   4    1.10    0.90
  -7   5  -4    1.20    0.80
   7  -4   4    9.90    1.20
  -7   4  -4   11.80    1.10
   7  -3   4    1.50    0.90
  -7   3  -4    1.30    0.70
   7  -2   4    9.80    1.30
  -7   2  -4    7.20    0.90
   7  -1   4    1.50    0.90
  -7   1  -4    1.70    0.60
   7   0   4    0.20    0.80
  -7   0  -4   -0.50    0.50
   7   1   4    0.80    0.50
   7   2   4    8.50    1.00
  -7  -2  -4    9.20    1.20
   7   3   4    2.10    0.70
  -7  -3  -4    1.60    0.90
   7   4   4   11.40    1.20
  -7  -4  -4   14.00    1.50
   7   5   4    1.60    0.80
  -7  -5  -4    0.80    0.80
   8  -1   4    0.30    0.80
   8   0   4    2.00    0.90
   8   1   4    0.90    0.90
   8   1  -5    0.70    0.70
  -8   0   5   -0.90    0.70
   8   0  -5    1.30    0.70
  -8   1   5   -0.50    0.80
   8  -1  -5    1.00    0.80
  -7  -4   5   11.00    1.20
   7   4  -5   10.50    1.10
  -7  -3   5   35.50    1.70
   7   3  -5   37.10    1.70
  -7  -2   5   42.40    1.70
   7   2  -5   41.90    1.80
   7   2  -5   41.70    1.80
  -7  -1   5   35.80    1.80
   7   1  -5   37.20    1.70
  -7   0   5   37.50    1.80
   7   0  -5   36.30    1.80
  -7   1   5   38.10    1.80
   7  -1  -5   35.80    1.80
  -7   2   5   42.80    2.00
   7  -2  -5   40.80    2.00
  -7   3   5   38.70    1.90
   7  -3  -5   38.50    2.00
  -7   4   5   13.40    1.30
   7  -4  -5   12.60    1.50
  -6  -6   5    2.30    0.80
   6   6  -5    3.10    0.80
  -6  -5   5   10.80    1.20
   6   5  -5   10.90    1.10
  -6  -4   5    5.80    0.90
   6   4  -5    5.30    0.80
  -6  -3   5    0.40    0.50
   6   3  -5    1.00    0.60
   6   3  -5    0.20    0.40
  -6  -2   5    1.80    0.60
   6   2  -5    2.80    0.60
   6   2  -5    2.00    0.60
  -6  -1   5    1.00    0.60
  -6  -1   5    0.20    0.40
   6   1  -5   -0.30    0.50
  -6   0   5   -0.10    0.60
  -6   0   5    0.00    0.30
   6   0  -5   -0.10    0.50
  -6   1   5    0.80    0.60
   6  -1  -5    0.00    0.60
  -6   2   5    2.10    0.70
   6  -2  -5    2.50    0.70
  -6   3   5    0.30    0.60
   6  -3  -5    1.40    0.70
  -6   4   5    5.00    0.90
   6  -4  -5    5.90    1.10
  -6   5   5   10.80    1.20
   6  -5  -5   10.70    1.30
  -6   6   5    1.30    0.80
   6  -6  -5    2.60    1.00
  -5  -7   5    3.60    0.90
   5   7  -5    2.60    0.80
  -5  -6   5    0.90    0.80
   5   6  -5    1.40    0.70
  -5  -5   5   58.69    2.20
   5   5  -5   59.99    2.00
  -5  -4   5   44.20    1.80
   5   4  -5   43.00    1.60
  -5  -3   5  164.18    3.80
   5   3  -5  159.08    3.50
   5   3  -5  155.08    3.60
  -5  -2   5  186.38    4.00
   5   2  -5  178.68    3.90
   5   2  -5  183.88    4.00
  -5  -1   5  203.98    4.50
  -5  -1   5  205.38    4.30
   5   1  -5  203.68    4.40
  -5   0   5  228.88    4.90
  -5   0   5  237.18    4.60
   5   0  -5  232.38    4.90
  -5   1   5  201.98    4.50
  -5   1   5  204.28    3.90
   5  -1  -5  203.18    4.50
  -5   2   5  180.48    4.10
   5  -2  -5  178.28    4.20
  -5   3   5  166.48    3.90
   5  -3  -5  158.98    4.00
  -5   4   5   40.60    1.60
   5  -4  -5   40.40    1.90
  -5   5   5   60.39    2.10
   5  -5  -5   57.39    2.40
  -5   6   5    1.90    0.70
   5  -6  -5    1.90    0.80
  -5   7   5    3.00    0.80
   5  -7  -5    2.90    1.10
  -4  -8   5    3.70    0.90
   4   8  -5    3.80    0.80
  -4  -7   5  134.09    3.70
   4   7  -5  133.89    3.40
  -4  -6   5    7.50    1.00
   4   6  -5    6.20    0.80
  -4  -5   5   38.60    1.70
   4   5  -5   36.90    1.50
  -4  -4   5   13.30    1.00
   4   4  -5   14.00    1.00
   4   4  -5   15.60    0.70
  -4  -3   5    5.30    0.70
   4   3  -5    4.00    0.60
   4   3  -5    4.10    0.50
  -4  -2   5   17.60    1.00
   4   2  -5   18.10    1.00
   4   2  -5   17.40    0.80
  -4  -1   5    0.60    0.40
  -4  -1   5    0.60    0.30
   4   1  -5    0.30    0.40
  -4   0   5    0.50    0.40
  -4   0   5    0.40    0.30
   4   0  -5    0.00    0.40
  -4   1   5    1.10    0.50
   4  -1  -5    0.50    0.50
  -4   2   5   18.20    0.60
  -4   2   5   16.40    1.00
   4  -2  -5   17.80    1.10
   4  -2  -5   16.90    0.60
  -4   3   5    4.60    0.70
   4  -3  -5    3.30    0.70
  -4   4   5   11.90    1.00
   4  -4  -5   13.20    1.10
  -4   5   5   35.80    1.50
   4  -5  -5   36.10    1.70
  -4   6   5    4.50    0.70
   4  -6  -5    6.40    1.10
  -4   7   5  120.79    3.30
   4  -7  -5  129.29    3.90
  -4   8   5    4.00    0.80
   4  -8  -5    4.00    1.10
  -3  -8   5    6.30    1.00
   3   8  -5    6.40    0.90
  -3  -7   5    7.20    0.90
   3   7  -5    9.20    0.90
  -3  -6   5    7.00    0.90
   3   6  -5    7.60    0.80
  -3  -5   5  169.58    3.90
   3   5  -5  166.58    3.70
  -3  -4   5  111.99    2.80
   3   4  -5  111.79    2.20
   3   4  -5  112.89    2.70
   3   4  -5  111.39    2.20
  -3  -3   5  505.75    9.60
   3   3  -5  514.45    9.10
   3   3  -5  519.05    9.10
   3   3  -5  509.85    9.50
  -3  -2   5  656.03   11.90
   3   2  -5  652.13   11.80
   3   2  -5  653.23   11.50
   3   2  -5  648.14   11.50
  -3  -1   5  915.01   16.20
   3   1  -5  914.71   16.10
  -3   0   5 1172.48   20.70
  -3   0   5 1172.68   20.90
   3   0  -5 1198.78   20.80
  -3   1   5  891.11   15.80
  -3   1   5  887.51   16.00
   3  -1  -5  899.31   16.10
   3  -1  -5  917.71   15.80
  -3   2   5  659.23   11.30
  -3   2   5  632.04   11.70
   3  -2  -5  639.94   11.30
   3  -2  -5  638.64   11.80
  -3   3   5  485.15    8.60
  -3   3   5  496.85    9.10
   3  -3  -5  494.75    8.60
   3  -3  -5  486.55    9.40
  -3   4   5  112.39    2.70
  -3   4   5  110.89    2.10
   3  -4  -5  111.29    3.00
  -3   5   5  163.68    3.70
   3  -5  -5  170.08    4.10
  -3   6   5    7.90    0.80
   3  -6  -5    8.50    1.10
  -3   7   5   11.40    1.00
   3  -7  -5    9.50    1.20
  -3   8   5    6.70    0.90
   3  -8  -5    6.80    1.20
  -2  -9   5    3.00    0.80
   2   9  -5    3.40    0.80
  -2  -8   5    9.30    1.00
   2   8  -5   11.70    1.10
  -2  -7   5  278.57    6.00
   2   7  -5  275.27    5.80
  -2  -6   5   10.60    1.10
   2   6  -5   11.90    1.00
  -2  -5   5   85.59    2.40
   2   5  -5   85.39    2.20
  -2  -4   5   24.80    1.10
   2   4  -5   24.90    1.10
  -2  -3   5   15.20    0.90
   2   3  -5   14.50    0.80
  -2  -2   5   95.29    2.20
   2   2  -5   95.19    2.10
   2   2  -5   93.79    1.80
   2   2  -5   93.49    1.80
  -2  -1   5    3.30    0.40
  -2  -1   5    3.30    0.30
   2   1  -5    3.20    0.30
   2   1  -5    2.60    0.30
  -2   0   5    0.50    0.20
  -2   0   5    0.50    0.20
  -2   0   5    0.40    0.30
   2   0  -5    0.20    0.20
  -2   1   5    4.00    0.40
  -2   1   5    5.40    0.50
   2  -1  -5    3.70    0.40
   2  -1  -5    3.60    0.40
  -2   2   5   94.69    2.10
  -2   2   5   93.79    1.90
   2  -2  -5   96.09    2.30
   2  -2  -5   93.39    1.90
  -2   3   5   14.20    0.70
  -2   3   5   14.40    0.60
   2  -3  -5   14.20    1.00
   2  -3  -5   14.40    0.60
  -2   4   5   26.20    0.80
  -2   4   5   26.50    1.00
  -2   4   5   25.90    0.80
   2  -4  -5   26.40    1.30
  -2   5   5   87.89    2.20
  -2   5   5   88.29    1.90
   2  -5  -5   84.79    2.60
  -2   6   5   11.50    0.70
  -2   6   5   12.20    0.90
   2  -6  -5   12.60    1.20
  -2   7   5  255.37    5.40
   2  -7  -5  264.27    6.00
  -2   8   5   10.80    1.00
   2  -8  -5   11.00    1.30
  -2   9   5    3.00    0.70
   2  -9  -5    2.10    1.00
  -1  -9   5    0.70    0.70
   1   9  -5    0.70    0.60
  -1  -8   5    9.80    1.00
   1   8  -5   11.00    1.10
  -1  -7   5   18.00    1.20
   1   7  -5   15.50    1.10
  -1  -6   5   15.60    1.10
  -1  -6   5   16.60    0.70
   1   6  -5   18.20    1.10
  -1  -5   5  315.27    5.70
  -1  -5   5  318.47    6.30
   1   5  -5  322.57    5.70
   1   5  -5  312.97    6.20
  -1  -4   5  203.38    4.20
   1   4  -5  205.58    4.20
  -1  -3   5 1047.10   18.50
   1   3  -5 1043.70   18.40
  -1  -2   5 1513.85   26.80
   1   2  -5 1492.15   27.00
  -1  -1   5 2574.34   44.70
  -1  -1   5 2529.55   45.10
   1   1  -5 2521.25   45.70
   1   1  -5 2576.84   44.80
  -1   0   5 3463.15   61.39
  -1   0   5 3514.75   61.09
   1   0  -5 3394.36   61.19
   1   0  -5 3427.96   61.19
  -1   1   5 2459.15   44.50
  -1   1   5 2502.45   44.50
   1  -1  -5 2484.95   45.40
   1  -1  -5 2601.54   44.20
  -1   2   5 1538.55   27.50
  -1   2   5 1522.45   27.40
   1  -2  -5 1612.44   27.30
   1  -2  -5 1548.35   28.70
  -1   3   5 1042.60   18.30
  -1   3   5 1038.80   18.30
   1  -3  -5 1054.49   18.70
  -1   4   5  200.38    3.90
  -1   4   5  200.78    4.00
   1  -4  -5  207.48    4.40
  -1   5   5  306.57    5.90
  -1   5   5  314.17    5.90
   1  -5  -5  309.67    6.50
  -1   6   5   16.90    0.90
  -1   6   5   17.80    0.90
   1  -6  -5   19.60    1.40
  -1   7   5   17.70    1.00
  -1   7   5   16.70    0.90
   1  -7  -5   17.90    1.50
  -1   8   5    8.80    0.80
  -1   8   5    8.60    1.00
   1  -8  -5    9.00    1.10
  -1   9   5    0.80    0.50
   1  -9  -5    0.00    0.80
   0  -9   5    5.10    0.80
   0   9  -5    4.50    0.80
   0  -8   5   16.10    1.20
   0   8  -5   16.70    1.20
   0  -7   5  342.47    7.00
   0   7  -5  353.26    7.00
   0  -6   5   13.40    1.00
   0  -6   5   13.60    0.80
   0   6  -5   11.60    1.00
   0  -5   5  126.69    2.60
   0  -5   5  122.49    2.90
   0   5  -5  124.29    2.90
   0  -4   5   31.80    1.10
   0  -4   5   32.10    0.90
   0  -4   5   32.70    0.80
   0   4  -5   31.90    1.10
   0  -3   5   22.10    0.60
   0  -3   5   22.50    0.60
   0  -3   5   22.30    0.90
   0   3  -5   24.10    0.90
   0  -2   5  191.48    3.80
   0  -2   5  193.88    3.50
   0  -2   5  193.98    3.50
   0   2  -5  187.98    3.70
   0  -1   5    6.70    0.40
   0  -1   5    7.90    0.40
   0  -1   5    6.60    0.50
   0   1  -5    6.50    0.40
   0   1  -5    6.50    0.30
   0   0   5    0.90    0.30
   0   0   5    0.10    0.20
   0   0  -5    1.70    0.30
   0   0  -5    1.00    0.20
   0   1   5    6.20    0.50
   0   1   5    4.40    0.50
   0  -1  -5    6.00    0.50
   0  -1  -5    6.90    0.30
   0   2   5  188.08    3.40
   0   2   5  180.18    3.60
   0  -2  -5  183.68    3.80
   0  -2  -5  198.68    3.40
   0   3   5   22.00    0.80
   0   3   5   22.20    0.70
   0  -3  -5   23.80    0.70
   0  -3  -5   21.60    1.00
   0   4   5   31.40    0.90
   0   4   5   31.10    1.00
   0  -4  -5   31.50    1.30
   0   5   5  122.19    2.60
   0   5   5  122.59    2.80
   0  -5  -5  124.29    3.10
   0   6   5   14.70    0.80
   0   6   5   14.80    0.90
   0  -6  -5   14.00    1.20
   0   7   5  345.27    6.80
   0   7   5  340.27    6.60
   0  -7  -5  350.76    7.30
   0   8   5   15.40    0.90
   0   8   5   15.30    1.10
   0  -8  -5   14.70    1.40
   0   9   5    3.80    0.70
   0  -9  -5    4.50    1.00
   1  -9   5    1.00    0.60
  -1   9  -5    1.10    0.60
   1  -8   5   10.70    1.00
  -1   8  -5    9.50    1.00
   1  -7   5   15.00    1.00
   1  -7   5   18.70    1.10
  -1   7  -5   16.10    1.10
   1  -6   5   17.80    1.00
   1  -6   5   17.70    0.90
  -1   6  -5   17.80    1.10
   1  -5   5  308.97    6.00
   1  -5   5  314.17    6.00
  -1   5  -5  313.17    6.20
   1  -4   5  202.88    4.10
   1  -4   5  204.88    4.00
  -1   4  -5  209.08    4.20
   1  -3   5 1077.99   18.70
   1  -3   5 1064.09   18.80
   1  -3   5 1063.39   18.70
  -1   3  -5 1071.59   18.90
   1  -2   5 1546.75   27.80
   1  -2   5 1555.54   27.00
  -1   2  -5 1527.15   27.80
  -1   2  -5 1555.04   27.20
   1  -1   5 2548.15   45.30
   1  -1   5 2567.64   44.80
   1  -1   5 2577.64   45.60
  -1   1  -5 2466.85   45.30
  -1   1  -5 2520.45   45.00
   1   0   5 3018.90   60.49
   1   0   5 3523.05   59.59
   1   0   5 3541.95   60.29
  -1   0  -5 3459.85   60.99
  -1   0  -5 3496.85   59.79
   1   1   5 2453.65   45.70
  -1  -1  -5 2581.94   46.20
  -1  -1  -5 2577.34   44.00
   1   2   5 1496.95   26.90
  -1  -2  -5 1549.05   28.00
   1   3   5 1025.20   18.60
   1   3   5 1032.70   18.30
  -1  -3  -5 1061.59   18.80
  -1  -3  -5 1089.79   18.40
   1   4   5  200.28    4.10
   1   4   5  203.38    3.70
  -1  -4  -5  203.58    3.70
  -1  -4  -5  202.88    4.40
   1   5   5  314.17    6.20
   1   5   5  312.17    5.70
  -1  -5  -5  318.07    6.50
   1   6   5   17.90    0.70
   1   6   5   18.20    1.10
  -1  -6  -5   16.50    1.20
   1   7   5   17.70    1.10
   1   7   5   17.70    0.80
  -1  -7  -5   14.00    1.30
   1   8   5    9.00    0.90
  -1  -8  -5   11.90    1.20
   1   9   5    0.50    0.60
  -1  -9  -5    1.60    0.80
  -2   9  -5    3.60    0.90
  -2   8  -5   11.10    1.10
   2  -7   5  265.27    5.60
   2  -7   5  268.07    5.50
  -2   7  -5  276.17    5.80
   2  -6   5   11.40    0.90
   2  -6   5   11.30    0.90
  -2   6  -5   10.30    0.90
   2  -5   5   88.39    2.30
   2  -5   5   89.59    2.20
  -2   5  -5   90.19    2.40
   2  -4   5   27.40    1.00
   2  -4   5   25.20    1.00
  -2   4  -5   27.20    1.10
   2  -3   5   15.90    0.70
   2  -3   5   14.30    0.70
  -2   3  -5   15.20    0.80
   2  -2   5   93.79    2.10
  -2   2  -5   94.19    2.10
  -2   2  -5   94.59    2.20
   2  -1   5    2.80    0.30
  -2   1  -5    3.50    0.30
  -2   1  -5    3.90    0.40
   2   0   5    0.20    0.20
   2   0   5    1.10    0.30
  -2   0  -5    0.70    0.30
  -2   0  -5    0.40    0.20
   2   1   5    2.80    0.40
   2   1   5    3.50    0.20
  -2  -1  -5    3.40    0.40
  -2  -1  -5    3.50    0.20
   2   2   5   90.49    2.10
  -2  -2  -5   94.39    2.30
   2   3   5   13.70    0.80
  -2  -3  -5   14.10    0.90
   2   4   5   26.10    0.60
   2   4   5   25.60    1.10
  -2  -4  -5   25.50    1.20
   2   5   5   86.29    2.40
   2   5   5   88.79    1.80
  -2  -5  -5   90.39    2.50
   2   6   5   12.20    1.00
   2   6   5   12.10    0.60
  -2  -6  -5   12.80    1.10
   2   7   5  267.97    5.70
  -2  -7  -5  271.07    6.00
   2   8   5   10.70    1.00
  -2  -8  -5   11.90    1.30
   2   9   5    2.50    0.70
  -2  -9  -5    2.90    0.90
   3  -8   5    6.70    0.90
  -3   8  -5    6.60    0.90
   3  -7   5   10.90    1.10
  -3   7  -5    9.10    1.00
   3  -6   5    9.40    0.80
   3  -6   5    7.00    0.80
  -3   6  -5    8.60    0.90
   3  -5   5  176.58    3.60
   3  -5   5  169.18    3.90
  -3   5  -5  170.28    3.90
   3  -4   5  108.89    2.40
   3  -4   5  110.69    2.70
  -3   4  -5  110.19    2.70
   3  -3   5  496.45    9.10
   3  -3   5  505.55    9.40
  -3   3  -5  503.35    9.30
   3  -2   5  654.63   11.70
  -3   2  -5  655.33   11.80
   3  -1   5  916.61   16.20
  -3   1  -5  913.41   16.50
  -3   1  -5  923.71   16.20
   3   0   5 1192.08   20.40
   3   0   5 1163.48   20.60
  -3   0  -5 1159.98   20.60
  -3   0  -5 1173.78   20.80
   3   1   5  911.01   15.80
   3   1   5  897.81   16.20
  -3  -1  -5  930.01   16.40
  -3  -1  -5  911.31   15.80
   3   2   5  634.34   11.10
   3   2   5  655.63   11.10
   3   2   5  630.64   11.70
  -3  -2  -5  654.03   11.90
   3   3   5  503.55    9.50
  -3  -3  -5  510.75    9.60
   3   4   5  108.29    2.70
  -3  -4  -5  111.49    2.90
   3   5   5  169.48    3.90
  -3  -5  -5  169.28    4.00
   3   6   5    7.30    0.90
  -3  -6  -5    8.80    1.00
   3   7   5    8.60    0.90
  -3  -7  -5   11.60    1.20
   3   8   5    4.50    0.90
  -3  -8  -5    5.70    1.00
   4  -8   5    4.70    0.90
  -4   8  -5    5.10    0.90
   4  -7   5  131.69    3.60
  -4   7  -5  131.09    3.60
   4  -6   5    7.80    1.00
  -4   6  -5    7.10    0.90
   4  -5   5   36.40    1.50
   4  -5   5   35.40    1.60
  -4   5  -5   37.90    1.50
   4  -4   5   13.90    0.70
   4  -4   5   14.70    1.10
  -4   4  -5   13.10    0.90
   4  -3   5    4.30    0.70
   4  -3   5    4.20    0.40
  -4   3  -5    4.00    0.50
   4  -2   5   16.50    1.10
   4  -2   5   17.60    0.80
  -4   2  -5   18.00    0.90
   4  -1   5    0.40    0.30
  -4   1  -5    1.10    0.30
  -4   1  -5    0.60    0.50
   4   0   5   -0.10    0.30
  -4   0  -5    0.10    0.30
  -4   0  -5    0.40    0.50
   4   1   5    0.50    0.40
  -4  -1  -5    1.00    0.50
  -4  -1  -5    0.60    0.30
   4   2   5   17.10    0.60
   4   2   5   16.90    1.00
  -4  -2  -5   18.60    1.10
   4   3   5    2.80    0.60
   4   3   5    4.30    0.30
  -4  -3  -5    4.30    0.70
   4   4   5   13.20    1.10
  -4  -4  -5   14.80    1.10
   4   5   5   38.90    1.70
  -4  -5  -5   39.10    1.70
   4   6   5    8.60    1.00
  -4  -6  -5    7.30    1.10
   4   7   5  137.19    3.70
  -4  -7  -5  129.19    3.70
   4   8   5    4.10    0.90
  -4  -8  -5    3.70    0.90
   5  -7   5    5.50    1.00
  -5   7  -5    3.30    0.90
   5  -6   5    4.20    0.90
  -5   6  -5    2.10    0.70
   5  -5   5   59.19    2.30
  -5   5  -5   61.59    2.10
   5  -4   5   40.20    1.70
  -5   4  -5   43.20    1.60
   5  -3   5  157.38    3.90
   5  -3   5  155.58    3.20
  -5   3  -5  158.88    3.60
   5  -2   5  180.08    3.70
   5  -2   5  183.88    4.30
  -5   2  -5  181.68    3.90
   5  -1   5  202.38    4.10
  -5   1  -5  199.78    4.10
   5   0   5  232.18    4.70
  -5   0  -5  234.58    4.60
  -5   0  -5  227.98    5.10
   5   1   5  209.98    4.30
  -5  -1  -5  199.68    4.70
  -5  -1  -5  204.28    4.00
   5   2   5  179.88    4.00
  -5  -2  -5  176.38    3.50
  -5  -2  -5  181.68    4.30
   5   3   5  157.98    3.70
  -5  -3  -5  162.18    4.00
   5   4   5   41.90    1.80
  -5  -4  -5   42.30    1.80
   5   5   5   62.29    2.30
  -5  -5  -5   59.49    2.30
   5   6   5    1.70    0.80
  -5  -6  -5    1.60    0.80
   5   7   5    3.60    0.90
  -5  -7  -5    4.20    1.00
   6  -6   5    3.70    0.90
  -6   6  -5    3.00    0.80
   6  -5   5   12.50    1.40
  -6   5  -5   10.00    1.10
   6  -4   5    5.70    1.00
  -6   4  -5    4.90    0.80
   6  -3   5    0.40    0.70
  -6   3  -5    0.70    0.60
   6  -2   5    1.80    0.80
  -6   2  -5    1.80    0.60
   6  -1   5    0.50    0.40
   6  -1   5    0.30    0.70
  -6   1  -5    0.20    0.40
   6   0   5   -0.10    0.40
  -6   0  -5   -0.10    0.40
  -6   0  -5    0.70    0.70
   6   1   5    0.30    0.50
  -6  -1  -5   -0.50    0.40
  -6  -1  -5    0.60    0.70
   6   2   5    2.20    0.60
  -6  -2  -5    2.30    0.80
   6   3   5    0.70    0.60
  -6  -3  -5    0.50    0.70
   6   4   5    6.30    0.90
  -6  -4  -5    6.80    1.10
   6   5   5   11.10    1.20
  -6  -5  -5   10.90    1.30
   6   6   5    3.50    0.90
  -6  -6  -5    2.80    0.90
   7  -4   5   13.00    1.40
  -7   4  -5   10.30    1.10
   7  -3   5   33.00    1.90
  -7   3  -5   41.20    1.80
   7  -2   5   43.10    2.20
  -7   2  -5   42.20    1.70
   7  -1   5   33.40    1.90
  -7   1  -5   34.20    1.50
   7   0   5   41.80    2.10
   7   1   5   36.00    1.60
  -7  -1  -5   36.40    2.00
   7   2   5   45.10    1.80
  -7  -2  -5   43.90    2.20
   7   3   5   40.60    1.90
  -7  -3  -5   41.00    2.10
   7   4   5   13.30    1.20
  -7  -4  -5   14.10    1.50
   8  -1   5    0.20    0.90
   8   0   5   -0.30    0.80
   8   1   5    0.10    0.80
  -7  -4   6    2.80    0.80
   7   4  -6    1.50    0.70
  -7  -3   6    4.10    0.80
   7   3  -6    5.00    0.90
  -7  -2   6    2.50    0.80
   7   2  -6    3.10    0.80
   7   1  -6   11.80    1.20
  -7   0   6    0.30    0.70
   7   0  -6    0.30    0.60
  -7   1   6    9.30    1.10
   7  -1  -6   10.60    1.20
  -7   2   6    2.80    0.90
   7  -2  -6    3.30    0.90
  -7   3   6    3.60    0.90
   7  -3  -6    5.10    1.00
  -7   4   6    2.30    0.90
   7  -4  -6    2.60    1.00
  -6  -6   6   -0.20    0.80
   6   6  -6   -0.20    0.70
  -6  -5   6   27.80    1.80
   6   5  -6   26.80    1.60
  -6  -4   6    3.90    0.80
   6   4  -6    3.90    0.80
  -6  -3   6  103.79    2.90
   6   3  -6  101.69    2.80
  -6  -2   6    4.00    0.70
   6   2  -6    5.60    0.80
   6   2  -6    5.50    0.70
  -6  -1   6   80.69    2.50
  -6  -1   6   78.99    2.20
   6   1  -6   76.59    2.30
  -6   0   6    0.30    0.50
  -6   0   6   -0.30    0.60
   6   0  -6    0.40    0.60
  -6   1   6   80.79    2.50
   6  -1  -6   78.29    2.50
  -6   2   6    4.10    0.80
   6  -2  -6    4.30    0.80
  -6   3   6  103.19    3.00
   6  -3  -6   99.89    3.10
  -6   4   6    2.70    0.80
   6  -4  -6    3.70    1.00
  -6   5   6   29.40    1.70
   6  -5  -6   25.60    1.90
  -6   6   6    0.70    0.80
   6  -6  -6    1.80    1.00
  -5  -7   6    4.30    1.00
   5   7  -6    5.40    0.90
  -5  -6   6    2.70    0.80
   5   6  -6    4.30    0.80
  -5  -5   6  121.09    3.40
   5   5  -6  116.59    3.10
  -5  -4   6    8.90    1.00
   5   4  -6    8.10    0.90
  -5  -3   6   29.30    1.40
   5   3  -6   29.00    1.10
   5   3  -6   28.80    1.40
  -5  -2   6   16.70    1.10
   5   2  -6   16.60    0.90
   5   2  -6   14.60    1.00
  -5  -1   6   43.30    1.60
  -5  -1   6   43.40    1.50
   5   1  -6   44.40    1.50
  -5   0   6   -0.40    0.50
  -5   0   6   -0.40    0.30
   5   0  -6   -0.10    0.40
  -5   1   6   45.50    1.70
  -5   1   6   43.10    1.30
   5  -1  -6   45.60    1.70
  -5   2   6   14.60    1.00
   5  -2  -6   16.50    1.20
  -5   3   6   29.20    1.50
   5  -3  -6   29.30    1.60
  -5   4   6   10.10    1.00
   5  -4  -6   11.00    1.20
  -5   5   6  119.29    3.30
   5  -5  -6  120.89    3.60
  -5   6   6    4.00    0.90
   5  -6  -6    4.50    1.10
  -5   7   6    5.90    1.00
   5  -7  -6    5.50    1.20
  -4  -8   6   -0.10    0.70
   4   8  -6    0.40    0.70
  -4  -7   6    0.00    0.70
   4   7  -6   -0.30    0.60
  -4  -6   6    0.90    0.70
   4   6  -6    1.60    0.60
  -4  -5   6   82.89    2.60
   4   5  -6   83.69    2.40
  -4  -4   6   23.40    1.30
   4   4  -6   22.60    1.20
  -4  -3   6  396.86    7.80
   4   3  -6  400.56    7.80
   4   3  -6  407.66    7.40
  -4  -2   6   14.90    0.90
   4   2  -6   16.40    0.90
   4   2  -6   16.00    0.80
  -4  -1   6  358.56    6.90
   4   1  -6  361.46    6.80
  -4   0   6    9.50    0.90
  -4   0   6    9.10    0.70
   4   0  -6    8.60    0.80
  -4   1   6  353.36    7.00
  -4   1   6  365.86    6.60
   4  -1  -6  358.96    7.00
  -4   2   6   16.40    0.60
  -4   2   6   16.70    1.00
   4  -2  -6   16.70    1.10
   4  -2  -6   16.60    0.70
  -4   3   6  396.76    7.70
  -4   3   6  387.96    7.30
   4  -3  -6  395.66    7.90
  -4   4   6   19.60    1.10
   4  -4  -6   21.80    1.40
  -4   5   6   82.09    2.40
   4  -5  -6   78.79    2.70
  -4   6   6    1.10    0.60
   4  -6  -6    2.70    0.90
  -4   7   6    0.90    0.60
   4  -7  -6    0.60    0.90
  -4   8   6   -0.20    0.60
   4  -8  -6   -0.60    0.90
  -3  -8   6   34.10    1.80
   3   8  -6   32.40    1.70
  -3  -7   6   14.20    1.30
   3   7  -6   14.60    1.20
  -3  -6   6    5.10    0.80
   3   6  -6    6.50    0.80
  -3  -5   6  336.97    6.90
   3   5  -6  340.57    6.70
  -3  -4   6   27.90    1.30
   3   4  -6   31.20    1.20
  -3  -3   6  116.39    2.80
   3   3  -6  112.89    2.70
   3   3  -6  116.19    2.20
   3   3  -6  117.19    2.20
  -3  -2   6   73.59    1.90
   3   2  -6   71.69    1.60
   3   2  -6   69.29    1.90
   3   2  -6   71.39    1.60
  -3  -1   6  183.78    3.80
   3   1  -6  185.48    3.60
   3   1  -6  184.48    3.80
  -3   0   6    0.00    0.30
  -3   0   6    0.10    0.40
   3   0  -6    0.40    0.30
  -3   1   6  188.38    3.60
  -3   1   6  182.38    3.80
   3  -1  -6  184.38    3.90
  -3   2   6   71.39    1.60
  -3   2   6   72.09    1.90
   3  -2  -6   65.99    1.60
   3  -2  -6   70.59    2.00
  -3   3   6  114.99    2.30
  -3   3   6  118.89    2.80
   3  -3  -6  116.19    2.30
   3  -3  -6  119.19    3.00
  -3   4   6   30.10    0.80
  -3   4   6   30.80    1.20
   3  -4  -6   29.20    1.50
  -3   5   6  334.47    6.60
   3  -5  -6  327.57    7.00
  -3   6   6    5.10    0.70
   3  -6  -6    6.00    1.00
  -3   7   6   14.20    1.10
   3  -7  -6   11.70    1.30
  -3   8   6   32.00    1.60
   3  -8  -6   33.90    2.10
  -2  -9   6   15.90    1.40
   2   9  -6   12.10    1.20
  -2  -8   6    1.00    0.70
   2   8  -6   -0.10    0.60
  -2  -7   6    0.90    0.60
   2   7  -6    1.20    0.60
  -2  -6   6    2.10    0.60
   2   6  -6    3.30    0.60
  -2  -5   6  175.58    4.00
   2   5  -6  175.88    3.90
  -2  -4   6   71.79    2.00
   2   4  -6   68.09    1.90
  -2  -3   6 1100.89   19.80
   2   3  -6 1121.49   19.70
  -2  -2   6   55.59    1.50
   2   2  -6   57.39    1.10
   2   2  -6   56.69    1.50
   2   2  -6   55.59    1.10
  -2  -1   6 1155.18   20.60
  -2  -1   6 1205.68   20.40
   2   1  -6 1170.68   20.60
   2   1  -6 1144.39   20.60
  -2   0   6   84.99    1.90
  -2   0   6   83.29    1.90
  -2   0   6   76.79    2.00
   2   0  -6   84.59    1.90
  -2   1   6 1149.48   20.10
  -2   1   6 1141.49   20.00
   2  -1  -6 1128.19   20.10
  -2   2   6   56.39    1.40
  -2   2   6   56.99    1.50
   2  -2  -6   55.49    1.70
  -2   3   6 1109.19   19.70
  -2   3   6 1112.59   19.40
   2  -3  -6 1117.19   20.00
  -2   4   6   71.59    1.90
  -2   4   6   71.59    1.60
   2  -4  -6   69.69    2.20
  -2   5   6  171.48    3.70
  -2   5   6  170.68    3.40
   2  -5  -6  167.58    4.10
  -2   6   6    2.30    0.50
  -2   6   6    2.60    0.40
   2  -6  -6    3.20    0.80
  -2   7   6    0.90    0.50
   2  -7  -6    2.50    0.90
  -2   8   6    0.10    0.50
   2  -8  -6    0.70    0.80
  -2   9   6   14.60    1.20
   2  -9  -6   11.50    1.50
  -1  -9   6   33.20    1.80
   1   9  -6   31.10    1.70
  -1  -8   6   60.69    2.20
   1   8  -6   58.09    2.10
  -1  -7   6   25.70    1.40
   1   7  -6   24.60    1.30
  -1  -6   6    7.30    0.80
   1   6  -6    9.10    0.80
  -1  -5   6  616.64   11.50
   1   5  -6  625.84   11.50
  -1  -4   6   56.79    1.70
  -1  -3   6  280.27    5.50
   1   3  -6  284.17    5.40
  -1  -2   6  190.38    3.90
   1   2  -6  199.48    3.90
  -1  -1   6  556.94    9.70
  -1  -1   6  548.35   10.00
   1   1  -6  557.24    9.70
   1   1  -6  556.34    9.90
  -1   0   6    0.30    0.20
  -1   0   6    0.40    0.20
   1   0  -6    0.30    0.20
   1   0  -6    0.40    0.30
  -1   1   6  549.05    9.80
  -1   1   6  543.25    9.80
   1  -1  -6  550.64   10.00
  -1   2   6  198.88    3.80
  -1   2   6  195.38    3.80
   1  -2  -6  195.58    4.10
  -1   3   6  283.37    5.30
  -1   3   6  284.47    5.30
   1  -3  -6  284.27    5.70
  -1   4   6   55.49    1.40
  -1   4   6   57.09    1.50
   1  -4  -6   55.39    1.90
  -1   5   6  605.24   11.00
  -1   5   6  601.94   11.00
   1  -5  -6  613.14   11.60
  -1   6   6    8.40    0.70
  -1   6   6    8.50    0.70
   1  -6  -6    8.80    1.00
  -1   7   6   24.60    1.10
  -1   7   6   23.70    1.10
   1  -7  -6   24.30    1.60
  -1   8   6   53.79    1.80
   1  -8  -6   55.49    2.40
   1  -9  -6   26.20    1.90
   0  -9   6   17.30    1.40
   0   9  -6   18.90    1.30
   0  -8   6    1.40    0.60
   0   8  -6    0.80    0.60
   0  -7   6    1.30    0.60
   0   7  -6    1.30    0.60
   0  -6   6    2.10    0.40
   0  -6   6    1.70    0.50
   0   6  -6    3.50    0.60
   0  -5   6  227.38    4.80
   0  -5   6  238.78    4.50
   0  -5   6  230.18    4.40
   0   5  -6  233.78    4.80
   0  -4   6  108.39    2.10
   0  -4   6  105.89    2.50
   0  -4   6  110.39    2.10
   0   4  -6  109.29    2.50
   0  -3   6 1693.83   29.70
   0  -3   6 1713.33   29.60
   0  -3   6 1665.03   29.80
   0   3  -6 1676.43   30.40
   0  -2   6   96.89    2.20
   0  -2   6  101.59    1.90
   0   2  -6   95.79    2.10
   0   2  -6   97.99    1.90
   0  -1   6 1967.70   33.80
   0  -1   6 1863.21   34.50
   0   1  -6 1847.32   34.20
   0   1  -6 1955.90   33.90
   0   0   6  213.28    3.80
   0   0   6  190.78    3.70
   0   0  -6  187.08    3.70
   0   0  -6  179.68    3.60
   0   0  -6  188.78    3.60
   0   1   6 1909.71   33.30
   0  -1  -6 1842.02   33.80
   0  -1  -6 1915.21   34.60
   0  -1  -6 1980.00   33.30
   0   2   6   96.39    2.10
   0   2   6   97.99    1.90
   0  -2  -6   98.19    2.30
   0  -2  -6   99.69    1.90
   0   3   6 1717.83   30.50
   0   3   6 1684.93   30.40
   0  -3  -6 1664.63   30.60
   0  -3  -6 1773.32   30.20
   0   4   6  108.79    2.20
   0   4   6  108.19    2.50
   0  -4  -6  106.59    2.70
   0   5   6  225.88    4.30
   0   5   6  227.38    4.60
   0  -5  -6  226.38    5.00
   0   6   6    2.00    0.50
   0   6   6    2.80    0.40
   0  -6  -6    2.10    0.60
   0   7   6    1.20    0.50
   0   7   6    1.80    0.40
   0  -7  -6    1.50    0.70
   0   8   6    1.30    0.50
   0  -8  -6    0.00    0.70
   0   9   6   19.40    1.50
   0  -9  -6   18.90    1.70
   1  -9   6   30.50    1.60
  -1   9  -6   29.60    1.70
   1  -8   6   56.69    2.00
  -1   8  -6   61.19    2.20
   1  -7   6   24.80    1.30
  -1   7  -6   22.10    1.30
   1  -6   6    8.30    0.80
   1  -6   6    8.00    0.70
  -1   6  -6    7.70    0.80
   1  -5   6  622.84   11.30
   1  -5   6  626.24   11.50
  -1   5  -6  624.14   11.60
   1  -4   6   57.09    1.40
   1  -4   6   55.89    1.60
  -1   4  -6   56.79    1.60
   1  -3   6  285.37    5.30
   1  -3   6  239.58    5.00
   1  -3   6  287.07    5.10
  -1   3  -6  277.97    5.30
   1  -2   6  200.28    3.90
   1  -2   6  196.78    3.80
  -1   2  -6  201.28    3.90
  -1   2  -6  198.48    3.80
   1  -1   6  532.05    9.40
   1  -1   6  453.15    9.30
  -1   1  -6  540.75    9.30
  -1   1  -6  543.25    9.20
   1   0   6    0.20    0.20
   1   0   6    0.30    0.30
  -1   0  -6    0.10    0.20
   1   1   6  545.85    9.90
  -1  -1  -6  541.65   10.00
  -1  -1  -6  555.74    9.60
  -1  -1  -6  559.24    9.60
   1   2   6  198.68    4.00
  -1  -2  -6  196.08    3.50
  -1  -2  -6  200.98    4.10
  -1  -2  -6  208.48    3.50
   1   3   6  284.97    5.00
   1   3   6  282.17    5.50
  -1  -3  -6  284.07    5.70
  -1  -3  -6  296.27    5.00
   1   4   6   55.89    1.20
   1   4   6   56.39    1.60
  -1  -4  -6   56.69    1.90
  -1  -4  -6   58.09    1.20
   1   5   6  611.04   11.40
   1   5   6  620.24   11.00
  -1  -5  -6  633.64   11.80
   1   6   6    9.50    0.60
   1   6   6    9.40    0.90
  -1  -6  -6    8.00    1.00
   1   7   6   24.60    1.30
  -1  -7  -6   23.90    1.50
   1   8   6   54.49    2.00
  -1  -8  -6   56.89    2.30
   1   9   6   27.00    1.60
  -1  -9  -6   28.70    1.90
  -2   9  -6   12.70    1.30
   2  -8   6    0.60    0.60
  -2   8  -6    1.80    0.70
   2  -7   6    1.40    0.50
   2  -7   6    0.90    0.50
  -2   7  -6    0.30    0.60
   2  -6   6    1.80    0.50
   2  -6   6    2.00    0.50
  -2   6  -6    1.60    0.60
   2  -5   6  172.78    3.70
   2  -5   6  176.98    3.80
  -2   5  -6  174.88    3.90
   2  -4   6   70.19    1.90
   2  -4   6   71.79    1.80
  -2   4  -6   72.99    2.00
   2  -3   6 1105.69   19.50
   2  -3   6 1109.19   19.50
  -2   3  -6 1094.49   19.50
   2  -2   6   57.09    1.50
  -2   2  -6   57.79    1.50
  -2   2  -6   57.79    1.50
   2  -1   6 1158.98   20.50
  -2   1  -6 1179.68   20.60
  -2   1  -6 1156.78   20.90
   2   0   6   84.99    2.00
   2   0   6   84.99    1.70
  -2   0  -6   82.59    2.00
  -2   0  -6   85.59    1.70
   2   1   6 1148.69   20.00
   2   1   6 1128.79   20.20
  -2  -1  -6 1143.69   20.30
  -2  -1  -6 1168.18   20.10
   2   2   6   56.99    1.60
  -2  -2  -6   57.49    1.70
   2   3   6 1126.49   20.10
  -2  -3  -6 1130.59   20.30
   2   4   6   70.49    2.00
  -2  -4  -6   70.99    2.20
   2   5   6  178.88    4.00
   2   5   6  175.28    3.20
  -2  -5  -6  176.18    4.20
   2   6   6    2.80    0.60
  -2  -6  -6    1.30    0.70
   2   7   6    0.60    0.50
  -2  -7  -6    1.70    0.70
   2   8   6    0.20    0.60
  -2  -8  -6    0.50    0.70
   2   9   6   12.10    1.20
  -2  -9  -6   13.50    1.50
  -3   8  -6   34.20    1.80
   3  -7   6   15.90    1.20
  -3   7  -6   12.00    1.20
   3  -6   6    7.30    0.70
   3  -6   6    6.60    0.80
  -3   6  -6    5.90    0.80
   3  -5   6  331.17    6.60
   3  -5   6  333.37    6.30
  -3   5  -6  327.17    6.60
   3  -4   6   29.50    1.10
   3  -4   6   27.90    1.20
  -3   4  -6   28.10    1.20
   3  -3   6  118.89    2.60
   3  -3   6  111.39    2.80
  -3   3  -6  116.79    2.70
   3  -2   6   71.29    1.80
  -3   2  -6   72.99    2.00
  -3   2  -6   72.19    1.80
   3  -1   6  186.88    3.70
  -3   1  -6  178.08    3.90
  -3   1  -6  186.78    3.60
   3   0   6    0.40    0.30
   3   0   6   -0.20    0.20
  -3   0  -6    0.30    0.20
  -3   0  -6    0.00    0.40
   3   1   6  180.18    3.30
   3   1   6  180.98    3.80
  -3  -1  -6  181.88    3.30
  -3  -1  -6  181.78    3.90
   3   2   6   68.89    1.90
  -3  -2  -6   70.79    2.00
   3   3   6  112.39    2.70
  -3  -3  -6  108.89    2.80
   3   4   6   28.00    1.30
  -3  -4  -6   27.60    1.30
   3   5   6  336.77    6.80
  -3  -5  -6  337.27    7.00
   3   6   6    5.80    0.80
  -3  -6  -6    7.50    1.00
   3   7   6   14.80    1.30
  -3  -7  -6   13.70    1.30
   3   8   6   32.90    1.80
  -3  -8  -6   32.30    1.80
   4  -8   6    1.20    0.80
  -4   8  -6    0.30    0.70
   4  -7   6    1.70    0.70
  -4   7  -6    0.20    0.60
   4  -6   6    1.90    0.70
  -4   6  -6    0.50    0.60
   4  -5   6   82.29    2.50
   4  -5   6   81.19    2.00
  -4   5  -6   79.89    2.40
   4  -4   6   23.10    1.30
   4  -4   6   22.90    1.00
  -4   4  -6   22.50    1.20
   4  -3   6  389.06    7.80
   4  -3   6  401.16    7.40
  -4   3  -6  396.66    7.60
   4  -2   6   16.80    0.90
   4  -2   6   16.90    1.10
  -4   2  -6   15.60    0.80
   4  -1   6  359.66    6.80
  -4   1  -6  360.16    7.20
  -4   1  -6  354.46    6.70
   4   0   6   10.30    0.80
  -4   0  -6    8.70    0.90
  -4   0  -6    8.00    0.50
   4   1   6  347.37    6.80
   4   1   6  353.36    6.40
  -4  -1  -6  352.96    6.40
  -4  -1  -6  354.66    7.10
   4   2   6   15.60    0.60
   4   2   6   16.90    1.00
  -4  -2  -6   17.90    1.10
   4   3   6  400.16    7.80
  -4  -3  -6  400.26    8.00
   4   4   6   24.00    1.30
  -4  -4  -6   23.60    1.40
   4   5   6   84.19    2.60
  -4  -5  -6   83.29    2.70
   4   6   6    1.60    0.70
  -4  -6  -6    1.10    0.70
   4   7   6    0.10    0.70
  -4  -7  -6    0.80    0.80
   4   8   6    0.10    0.70
  -4  -8  -6   -0.50    0.70
   5  -7   6    6.10    1.00
  -5   7  -6    4.50    0.90
   5  -6   6    5.10    0.90
  -5   6  -6    4.70    0.80
   5  -5   6  115.69    3.30
  -5   5  -6  111.89    3.10
   5  -4   6    9.30    1.00
  -5   4  -6    7.70    0.80
   5  -3   6   29.60    1.60
   5  -3   6   29.00    1.10
  -5   3  -6   30.70    1.30
   5  -2   6   15.00    1.20
   5  -2   6   16.20    0.90
  -5   2  -6   15.20    0.90
   5  -1   6   45.10    1.50
  -5   1  -6   44.80    1.40
  -5   1  -6   44.20    1.80
   5   0   6    0.30    0.40
  -5   0  -6   -0.10    0.30
  -5   0  -6    1.30    0.60
   5   1   6   45.20    1.60
  -5  -1  -6   43.10    1.20
  -5  -1  -6   44.50    1.80
   5   2   6   14.80    1.10
  -5  -2  -6   15.20    1.20
   5   3   6   29.90    1.50
  -5  -3  -6   29.30    1.60
   5   4   6    9.60    1.00
  -5  -4  -6    8.90    1.00
   5   5   6  121.19    3.40
  -5  -5  -6  114.29    3.40
   5   6   6    6.00    1.00
  -5  -6  -6    4.10    1.00
   5   7   6    4.40    1.00
  -5  -7  -6    5.20    1.10
   6  -6   6    1.30    0.80
  -6   6  -6    1.40    0.80
   6  -5   6   27.40    1.80
  -6   5  -6   26.30    1.60
   6  -4   6    4.80    1.00
  -6   4  -6    4.90    0.80
   6  -3   6  101.19    3.20
  -6   3  -6  103.29    2.80
   6  -2   6    4.50    0.90
  -6   2  -6    5.70    0.70
   6  -1   6   77.09    2.10
   6  -1   6   77.09    2.70
  -6   1  -6   78.39    2.10
   6   0   6    0.40    0.50
  -6   0  -6    0.50    0.40
  -6   0  -6    0.00    0.70
   6   1   6   72.99    2.20
  -6  -1  -6   72.59    2.50
   6   2   6    4.10    0.70
  -6  -2  -6    5.50    1.00
   6   3   6  106.59    3.00
  -6  -3  -6  106.69    3.30
   6   4   6    4.90    0.90
  -6  -4  -6    4.20    1.00
   6   5   6   25.90    1.70
  -6  -5  -6   24.90    1.80
   6   6   6    1.00    0.80
  -6  -6  -6    0.60    0.90
   7  -4   6    3.60    1.00
  -7   4  -6    1.60    0.70
   7  -3   6    5.10    1.00
  -7   3  -6    3.90    0.80
   7  -2   6    2.60    1.00
  -7   2  -6    4.00    0.70
   7  -1   6    9.10    1.30
   7   0   6    0.80    0.70
   7   0   6   -0.20    0.80
   7   1   6   10.10    1.00
  -7  -1  -6    9.00    1.20
   7   2   6    2.50    0.70
  -7  -2  -6    2.90    1.00
   7   3   6    5.30    0.90
  -7  -3  -6    4.50    1.10
   7   4   6    2.50    0.80
  -7  -4  -6    2.00    1.00
  -7  -3   7    2.80    0.80
   7   3  -7    4.60    0.90
   7   2  -7    1.00    0.70
   7   1  -7    5.60    0.90
   7   1  -7    5.40    1.20
  -7   0   7    7.80    1.10
   7   0  -7    8.60    1.00
  -7   1   7    4.60    0.90
   7  -1  -7    3.80    0.90
  -7   2   7   -0.70    0.70
   7  -2  -7   -0.40    0.70
  -7   3   7    2.80    0.80
   7  -3  -7    3.90    1.00
  -6  -5   7    4.50    0.90
   6   5  -7    5.30    0.90
  -6  -4   7    7.30    1.00
   6   4  -7    6.00    0.90
  -6  -3   7    2.40    0.70
   6   3  -7    2.90    0.70
  -6  -2   7    6.00    0.80
   6   2  -7    5.90    0.80
  -6  -1   7    0.40    0.50
   6   1  -7    0.90    0.60
  -6   0   7   -0.20    0.60
   6   0  -7   -0.10    0.50
  -6   1   7    0.90    0.70
   6  -1  -7    1.40    0.70
  -6   2   7    4.40    0.80
   6  -2  -7    5.20    0.90
  -6   3   7    3.60    0.80
   6  -3  -7    3.30    0.80
  -6   4   7    6.20    1.00
   6  -4  -7    6.20    1.10
  -6   5   7    4.30    0.90
   6  -5  -7    4.50    1.10
  -5  -7   7    4.20    1.00
   5   7  -7    3.00    0.90
  -5  -6   7    0.70    0.70
   5   6  -7    0.40    0.70
  -5  -5   7   80.39    2.70
   5   5  -7   80.79    2.50
  -5  -4   7   -0.50    0.50
   5   4  -7   -0.30    0.50
  -5  -3   7   26.50    1.40
   5   3  -7   23.70    1.30
  -5  -2   7   -0.10    0.40
   5   2  -7    0.40    0.40
   5   2  -7    1.40    0.60
  -5  -1   7   30.60    1.30
   5   1  -7   29.80    1.30
  -5   0   7   35.90    1.30
  -5   0   7   32.60    1.50
   5   0  -7   35.20    1.40
  -5   1   7   30.10    1.10
  -5   1   7   29.40    1.40
   5  -1  -7   31.90    1.50
  -5   2   7   -1.00    0.50
   5  -2  -7    0.30    0.60
  -5   3   7   23.70    1.40
   5  -3  -7   26.30    1.60
  -5   4   7   -0.30    0.60
   5  -4  -7    0.30    0.80
  -5   5   7   80.19    2.60
   5  -5  -7   78.59    2.90
  -5   6   7   -0.50    0.70
   5  -6  -7    0.90    0.90
  -5   7   7    4.80    0.90
   5  -7  -7    3.40    1.10
  -4  -7   7   20.40    1.60
   4   7  -7   22.40    1.40
  -4  -6   7   55.29    2.20
   4   6  -7   52.19    2.00
  -4  -5   7   23.60    1.50
   4   5  -7   25.40    1.30
  -4  -4   7   16.10    1.20
   4   4  -7   15.20    1.10
  -4  -3   7   14.00    1.00
   4   3  -7   15.10    1.00
   4   3  -7   15.10    0.70
  -4  -2   7    7.50    0.70
   4   2  -7    7.10    0.70
   4   2  -7    8.50    0.60
  -4  -1   7    4.50    0.60
   4   1  -7    3.10    0.50
   4   1  -7    4.00    0.50
  -4   0   7    0.20    0.50
  -4   0   7    0.50    0.30
   4   0  -7    4.50    0.60
  -4   1   7    3.70    0.40
  -4   1   7    3.70    0.60
   4  -1  -7    3.70    0.60
  -4   2   7    6.90    0.50
  -4   2   7    7.00    0.80
   4  -2  -7    8.20    0.90
  -4   3   7   16.00    1.00
   4  -3  -7   14.70    1.20
  -4   4   7   15.80    1.10
   4  -4  -7   16.50    1.30
  -4   5   7   22.70    1.30
   4  -5  -7   25.00    1.70
  -4   6   7   51.69    1.90
   4  -6  -7   49.60    2.30
  -4   7   7   20.30    1.40
   4  -7  -7   22.40    1.80
  -3  -8   7   -0.70    0.70
   3   8  -7    0.30    0.60
  -3  -7   7   14.80    1.40
   3   7  -7   15.70    1.20
  -3  -6   7    1.30    0.60
   3   6  -7    1.30    0.60
  -3  -5   7  243.58    5.30
   3   5  -7  244.38    5.20
  -3  -4   7    0.80    0.50
   3   4  -7    0.20    0.40
  -3  -3   7   78.99    2.20
   3   3  -7   83.69    2.20
  -3  -2   7    0.00    0.40
   3   2  -7   -0.20    0.40
   3   2  -7    0.10    0.20
   3   2  -7    0.10    0.20
  -3  -1   7  100.99    2.40
   3   1  -7  101.49    2.20
   3   1  -7  100.89    2.40
  -3   0   7  117.09    2.70
  -3   0   7  120.99    2.60
   3   0  -7  116.09    2.60
  -3   1   7   99.39    2.20
  -3   1   7   97.99    2.40
   3  -1  -7  100.19    2.50
  -3   2   7    0.10    0.30
  -3   2   7   -1.10    0.30
   3  -2  -7   -0.20    0.50
  -3   3   7   79.69    1.80
  -3   3   7   81.19    2.10
   3  -3  -7   79.49    2.40
  -3   4   7    0.80    0.50
  -3   4   7    1.30    0.30
   3  -4  -7    0.30    0.60
  -3   5   7  238.58    5.10
   3  -5  -7  250.87    5.70
  -3   6   7    1.10    0.50
   3  -6  -7    1.20    0.70
  -3   7   7   12.50    1.10
   3  -7  -7   16.50    1.60
  -3   8   7    0.10    0.60
   3  -8  -7    0.00    0.80
  -2  -8   7    0.70    0.60
   2   8  -7   -0.10    0.60
  -2  -7   7   57.69    2.10
   2   7  -7   58.69    2.00
  -2  -6   7  101.69    2.80
   2   6  -7  100.29    2.70
  -2  -5   7   63.49    2.10
   2   5  -7   63.59    2.00
  -2  -4   7   32.20    1.40
   2   4  -7   30.20    1.20
  -2  -3   7   36.20    1.40
   2   3  -7   38.30    1.30
  -2  -2   7    4.40    0.50
   2   2  -7    5.80    0.60
   2   2  -7    5.80    0.30
   2   2  -7    5.90    0.30
  -2  -1   7   14.30    0.80
  -2  -1   7   14.70    0.60
   2   1  -7   14.10    0.60
   2   1  -7   13.70    0.70
  -2   0   7    0.30    0.30
   2   0  -7    0.20    0.30
  -2   1   7   13.30    0.70
  -2   1   7   13.40    0.70
   2  -1  -7   13.30    0.90
  -2   2   7    5.10    0.50
  -2   2   7    5.10    0.50
   2  -2  -7    6.60    0.70
  -2   3   7   37.30    1.20
  -2   3   7   36.60    1.10
   2  -3  -7   39.40    1.60
  -2   4   7   33.10    1.20
  -2   4   7   31.80    1.00
   2  -4  -7   33.00    1.60
  -2   5   7   62.69    1.80
  -2   5   7   59.49    1.60
   2  -5  -7   60.89    2.20
  -2   6   7  100.09    2.30
  -2   6   7   99.89    2.50
   2  -6  -7  101.79    3.10
  -2   7   7   56.49    1.80
   2  -7  -7   53.29    2.40
  -2   8   7   -0.10    0.50
   2  -8  -7   -0.80    0.80
  -1  -9   7   10.30    1.10
   1   9  -7   10.10    1.10
  -1  -8   7    1.00    0.60
   1   8  -7   -0.40    0.60
  -1  -7   7   27.30    1.50
   1   7  -7   25.90    1.30
  -1  -6   7    3.10    0.70
   1   6  -7    1.60    0.50
  -1  -5   7  453.65    8.60
   1   5  -7  435.76    8.50
  -1  -4   7    3.70    0.60
   1   4  -7    2.80    0.50
  -1  -3   7  140.29    3.10
   1   3  -7  145.09    3.10
  -1  -2   7    1.00    0.40
   1   2  -7    0.20    0.30
  -1  -1   7  204.08    4.10
  -1  -1   7  208.78    3.80
   1   1  -7  204.28    4.00
   1   1  -7  206.58    3.80
  -1   0   7  287.37    5.40
  -1   0   7  287.17    5.50
   1   0  -7  284.67    5.40
   1   0  -7  288.37    5.40
  -1   1   7  207.58    4.00
  -1   1   7  206.18    4.00
   1  -1  -7  206.48    4.20
  -1   2   7    0.50    0.30
  -1   2   7    0.50    0.30
   1  -2  -7    0.00    0.40
  -1   3   7  147.69    3.00
  -1   3   7  148.29    3.10
   1  -3  -7  151.48    3.50
  -1   4   7    4.40    0.50
  -1   4   7    3.40    0.40
   1  -4  -7    4.70    0.80
  -1   5   7  444.66    8.40
  -1   5   7  453.65    8.30
   1  -5  -7  448.36    9.00
  -1   6   7    2.00    0.40
  -1   6   7    2.30    0.50
   1  -6  -7    2.40    0.70
  -1   7   7   24.70    1.10
  -1   7   7   25.60    1.20
   1  -7  -7   24.90    1.70
  -1   8   7    1.00    0.50
   1  -8  -7    0.30    0.80
   1  -9  -7   10.20    1.40
   0  -9   7   46.50    2.00
   0   9  -7   46.70    2.10
   0  -8   7    0.00    0.50
   0   8  -7   -0.10    0.60
   0  -7   7   82.79    2.50
   0   7  -7   80.09    2.50
   0  -6   7  130.29    3.20
   0   6  -7  128.69    3.20
   0  -5   7   83.59    2.30
   0  -5   7   83.39    1.80
   0   5  -7   83.49    2.20
   0  -4   7   43.50    1.00
   0  -4   7   43.70    1.00
   0  -4   7   42.50    1.40
   0   4  -7   44.60    1.40
   0  -3   7   51.19    1.10
   0  -3   7   50.59    1.50
   0  -3   7   51.69    1.10
   0   3  -7   51.19    1.50
   0  -2   7    4.30    0.40
   0  -2   7    3.60    0.50
   0   2  -7    4.30    0.30
   0   2  -7    4.10    0.40
   0  -1   7   23.40    0.90
   0  -1   7   25.10    0.80
   0   1  -7   23.70    0.70
   0   1  -7   23.70    0.80
   0   0   7    0.40    0.30
   0   0  -7    0.50    0.30
   0   0  -7    0.30    0.20
   0   1   7   22.90    0.90
   0  -1  -7   23.20    0.70
   0  -1  -7   23.10    0.90
   0  -1  -7   24.20    0.70
   0   2   7    3.50    0.40
   0   2   7    3.50    0.40
   0  -2  -7    4.50    0.30
   0  -2  -7    4.60    0.60
   0   3   7   50.59    1.20
   0   3   7   51.29    1.40
   0  -3  -7   51.99    1.20
   0  -3  -7   51.29    1.70
   0   4   7   42.70    1.30
   0   4   7   43.50    1.10
   0  -4  -7   41.90    1.60
   0   5   7   84.89    2.20
   0   5   7   84.19    1.90
   0  -5  -7   81.09    2.50
   0   6   7  131.59    2.80
   0   6   7  130.79    3.10
   0  -6  -7  129.19    3.50
   0   7   7   78.89    2.20
   0   7   7   78.69    2.00
   0  -7  -7   79.79    2.70
   0   8   7   -0.10    0.50
   0  -8  -7   -0.10    0.70
   0  -9  -7   46.30    2.30
   1  -9   7   10.30    1.00
  -1   9  -7   10.00    1.10
   1  -8   7    0.70    0.50
  -1   8  -7    0.10    0.50
   1  -7   7   26.70    1.30
  -1   7  -7   25.20    1.40
   1  -6   7    2.40    0.50
   1  -6   7    2.00    0.50
  -1   6  -7    1.60    0.60
   1  -5   7  451.55    8.30
   1  -5   7  453.75    8.60
  -1   5  -7  457.25    8.70
   1  -4   7    2.60    0.50
   1  -4   7    4.30    0.40
  -1   4  -7    3.70    0.50
   1  -3   7  145.99    3.00
   1  -3   7  149.19    3.20
  -1   3  -7  150.28    3.20
  -1   2  -7    0.60    0.30
   1  -1   7  205.38    4.10
  -1   1  -7  203.78    4.00
  -1   1  -7  207.08    3.90
   1   0   7  287.77    5.20
   1   0   7  276.97    5.40
  -1   0  -7  282.47    5.40
  -1   0  -7  287.97    5.20
   1   1   7  204.58    4.10
  -1  -1  -7  204.68    3.80
  -1  -1  -7  212.38    4.20
  -1  -1  -7  211.78    3.80
   1   2   7    0.50    0.30
  -1  -2  -7    1.10    0.40
  -1  -2  -7    0.70    0.10
  -1  -2  -7    0.60    0.10
   1   3   7  144.59    3.20
  -1  -3  -7  150.88    2.70
  -1  -3  -7  153.68    3.50
  -1  -3  -7  153.48    2.70
   1   4   7    4.10    0.30
  -1  -4  -7    4.00    0.30
  -1  -4  -7    3.50    0.70
   1   5   7  442.66    8.50
   1   5   7  450.85    8.00
  -1  -5  -7  446.46    8.90
   1   6   7    2.60    0.60
  -1  -6  -7    2.10    0.70
   1   7   7   27.40    1.40
  -1  -7  -7   25.70    1.60
   1   8   7    0.30    0.60
  -1  -8  -7   -0.20    0.70
   1   9   7    9.50    1.00
  -1  -9  -7   11.20    1.40
   2  -8   7    0.00    0.50
  -2   8  -7   -0.50    0.60
   2  -7   7   59.19    1.90
  -2   7  -7   62.09    2.20
   2  -6   7  101.19    2.60
   2  -6   7  100.29    2.50
  -2   6  -7  101.29    2.70
   2  -5   7   63.99    1.80
   2  -5   7   60.99    1.80
  -2   5  -7   60.69    1.90
   2  -4   7   33.10    1.20
   2  -4   7   33.70    1.30
  -2   4  -7   32.70    1.30
   2  -3   7   36.20    1.20
   2  -3   7   38.00    1.30
  -2   3  -7   36.60    1.30
   2  -2   7    6.30    0.60
  -2   2  -7    4.60    0.50
  -2   2  -7    5.90    0.60
   2  -1   7   14.20    0.80
  -2   1  -7   14.30    0.60
  -2   1  -7   13.30    0.70
   2   0   7    0.70    0.40
   2   0   7    0.30    0.20
  -2   0  -7    0.70    0.20
  -2   0  -7    0.30    0.40
   2   1   7   13.90    0.40
   2   1   7   13.20    0.80
  -2  -1  -7   13.90    0.40
  -2  -1  -7   14.50    0.90
   2   2   7    4.50    0.50
  -2  -2  -7    6.10    0.70
   2   3   7   36.10    1.30
  -2  -3  -7   37.90    1.50
   2   4   7   30.60    1.30
  -2  -4  -7   30.30    1.40
   2   5   7   61.29    1.90
  -2  -5  -7   58.99    2.10
   2   6   7  104.69    2.80
  -2  -6  -7   98.49    3.00
   2   7   7   57.49    2.00
  -2  -7  -7   55.39    2.20
   2   8   7   -1.00    0.60
  -2  -8  -7   -0.30    0.70
  -3   8  -7    0.40    0.70
   3  -7   7   18.10    1.20
  -3   7  -7   13.70    1.30
   3  -6   7    0.80    0.50
   3  -6   7    1.10    0.50
  -3   6  -7    1.70    0.60
   3  -5   7  247.38    4.90
   3  -5   7  237.78    5.10
  -3   5  -7  244.88    5.20
   3  -4   7    1.20    0.50
   3  -4   7    0.50    0.40
  -3   4  -7    1.10    0.50
   3  -3   7   81.69    2.00
   3  -3   7   79.79    2.20
  -3   3  -7   79.39    2.10
   3  -2   7    0.00    0.30
  -3   2  -7    0.10    0.30
  -3   2  -7    0.60    0.40
   3  -1   7  101.39    2.40
  -3   1  -7  101.79    2.20
  -3   1  -7  100.09    2.50
   3   0   7  117.39    2.70
  -3   0  -7  120.29    2.40
  -3   0  -7  117.19    2.80
   3   1   7   99.59    1.90
   3   1   7  102.69    2.40
  -3  -1  -7   99.19    1.90
  -3  -1  -7  101.39    2.60
   3   2   7    0.00    0.40
  -3  -2  -7   -0.20    0.50
   3   3   7   78.99    2.20
  -3  -3  -7   82.19    2.40
   3   4   7    1.10    0.50
  -3  -4  -7    1.00    0.60
   3   5   7  245.08    5.30
  -3  -5  -7  244.78    5.50
   3   6   7    1.60    0.70
  -3  -6  -7    0.80    0.70
   3   7   7   14.20    1.30
  -3  -7  -7   13.50    1.30
   3   8   7    0.00    0.70
  -3  -8  -7    0.20    0.70
   4  -7   7   23.10    1.50
  -4   7  -7   22.60    1.50
   4  -6   7   52.09    2.00
  -4   6  -7   52.39    2.00
   4  -5   7   24.10    1.40
   4  -5   7   25.90    1.10
  -4   5  -7   23.50    1.30
   4  -4   7   15.80    1.10
   4  -4   7   14.80    0.90
  -4   4  -7   15.70    1.00
   4  -3   7   14.90    1.10
   4  -3   7   14.70    0.90
  -4   3  -7   13.50    0.90
   4  -2   7    8.20    0.80
  -4   2  -7    7.70    0.70
   4  -1   7    4.10    0.60
  -4   1  -7    4.80    0.70
  -4   1  -7    5.00    0.50
   4   0   7   -0.30    0.40
  -4   0  -7    0.50    0.30
  -4   0  -7   -0.10    0.50
   4   1   7    3.80    0.60
  -4  -1  -7    3.00    0.60
  -4  -1  -7    3.60    0.30
   4   2   7    7.10    0.70
  -4  -2  -7    7.30    0.80
   4   3   7   13.90    1.10
  -4  -3  -7   14.40    1.10
   4   4   7   15.70    1.20
  -4  -4  -7   15.70    1.30
   4   5   7   24.40    1.50
  -4  -5  -7   25.70    1.60
   4   6   7   49.50    2.10
  -4  -6  -7   50.59    2.20
   4   7   7   21.60    1.70
  -4  -7  -7   22.00    1.60
   5  -7   7    5.00    1.00
  -5   7  -7    4.20    0.90
   5  -6   7    1.00    0.70
  -5   6  -7    0.80    0.60
   5  -5   7   78.79    2.70
  -5   5  -7   79.79    2.50
   5  -4   7    0.10    0.70
  -5   4  -7    0.40    0.50
   5  -3   7   26.20    1.10
   5  -3   7   25.90    1.50
  -5   3  -7   25.00    1.20
   5  -2   7    0.20    0.40
   5  -2   7   -0.20    0.60
  -5   2  -7   -0.20    0.40
   5  -1   7   32.00    1.30
  -5   1  -7   30.80    1.60
  -5   1  -7   31.40    1.10
   5   0   7   34.90    1.40
  -5   0  -7   32.80    1.60
  -5   0  -7   37.40    1.20
   5   1   7   31.10    1.40
  -5  -1  -7   29.50    1.50
   5   2   7   -1.00    0.40
  -5  -2  -7    0.30    0.60
   5   3   7   23.50    1.40
  -5  -3  -7   25.80    1.50
   5   4   7    0.10    0.60
  -5  -4  -7    0.80    0.70
   5   5   7   83.69    2.70
  -5  -5  -7   82.79    2.90
   5   6   7   -0.70    0.70
  -5  -6  -7    0.10    0.80
   5   7   7    4.60    1.00
  -5  -7  -7    4.60    1.10
   6  -5   7    5.60    1.00
  -6   5  -7    4.70    0.90
   6  -4   7    7.20    1.10
  -6   4  -7    8.00    1.00
   6  -3   7    2.20    0.90
  -6   3  -7    3.60    0.70
   6  -2   7    3.40    0.90
  -6   2  -7    5.00    0.70
   6  -1   7    0.90    0.50
  -6   1  -7    1.20    0.50
   6   0   7    0.10    0.50
  -6   0  -7   -0.60    0.60
   6   1   7    0.70    0.60
  -6  -1  -7    1.50    0.80
   6   2   7    6.10    0.80
  -6  -2  -7    5.20    0.90
   6   3   7    2.00    0.70
  -6  -3  -7    2.70    0.80
   6   4   7    7.50    1.00
  -6  -4  -7    8.70    1.30
   6   5   7    4.00    0.90
  -6  -5  -7    6.10    1.10
   7  -3   7    3.70    1.00
  -7   3  -7    3.10    0.80
   7  -2   7   -0.90    0.80
  -7   2  -7    0.20    0.80
   7  -1   7    4.90    1.10
   7   0   7    9.70    1.00
   7   1   7    5.30    0.80
  -7  -1  -7    5.60    1.10
   7   2   7    0.60    0.60
  -7  -2  -7   -0.30    0.80
   7   3   7    3.20    0.80
  -7  -3  -7    4.10    1.10
  -7  -3   8    0.20    0.60
   7   3  -8   -0.60    0.60
   7   2  -8    0.40    0.70
   7   1  -8   35.30    1.80
  -7   0   8    0.00    0.70
   7   0  -8    1.10    0.70
  -7   1   8   36.90    2.00
   7  -1  -8   35.40    1.90
  -7   2   8   -0.90    0.70
   7  -2  -8    0.80    0.80
  -7   3   8   -0.40    0.70
   7  -3  -8    1.20    0.90
  -6  -5   8    0.00    0.70
   6   5  -8    0.20    0.70
  -6  -4   8   13.20    1.30
   6   4  -8   15.50    1.30
  -6  -3   8   35.00    1.70
   6   3  -8   37.70    1.80
  -6  -2   8    0.70    0.50
   6   2  -8    0.40    0.60
  -6  -1   8   61.89    2.00
   6   1  -8   65.89    2.20
   6   1  -8   58.79    2.00
  -6   0   8   55.59    2.10
   6   0  -8   53.39    2.00
  -6   1   8   63.19    2.30
   6  -1  -8   63.49    2.30
  -6   2   8   -0.50    0.60
   6  -2  -8    0.20    0.70
  -6   3   8   36.90    1.90
   6  -3  -8   33.90    1.90
  -6   4   8   13.50    1.30
   6  -4  -8   12.70    1.40
  -6   5   8    0.20    0.80
   6  -5  -8    1.10    1.00
  -5  -6   8   -1.10    0.70
   5   6  -8    0.50    0.70
  -5  -5   8   30.40    1.80
   5   5  -8   30.90    1.60
  -5  -4   8   17.60    1.30
   5   4  -8   15.10    1.20
  -5  -3   8    0.90    0.60
   5   3  -8    1.50    0.60
  -5  -2   8    1.50    0.50
   5   2  -8    1.00    0.60
   5   2  -8    1.70    0.60
  -5  -1   8  150.48    3.50
   5   1  -8  145.49    3.60
   5   1  -8  152.28    3.40
  -5   0   8    0.40    0.40
  -5   0   8    0.60    0.60
   5   0  -8    0.50    0.50
  -5   1   8  151.98    3.70
  -5   1   8  150.28    3.20
   5  -1  -8  149.19    3.70
  -5   2   8    0.90    0.60
   5  -2  -8    1.30    0.70
  -5   3   8    1.10    0.60
   5  -3  -8    1.60    0.80
  -5   4   8   14.20    1.30
   5  -4  -8   17.30    1.50
  -5   5   8   29.80    1.70
   5  -5  -8   27.60    1.90
  -5   6   8   -0.40    0.70
   5  -6  -8   -1.10    0.80
  -4  -7   8   35.30    2.00
   4   7  -8   37.30    1.80
  -4  -6   8   13.40    1.30
   4   6  -8   15.30    1.20
  -4  -5   8    1.20    0.70
   4   5  -8    1.10    0.60
  -4  -4   8   54.79    2.00
   4   4  -8   51.49    1.80
  -4  -3   8  161.48    3.70
   4   3  -8  152.88    3.60
  -4  -2   8    5.60    0.70
   4   2  -8    6.00    0.60
   4   2  -8    5.80    0.70
  -4  -1   8  280.47    5.60
   4   1  -8  278.37    5.70
   4   1  -8  285.57    5.50
  -4   0   8  244.58    5.10
  -4   0   8  234.28    4.80
   4   0  -8  240.98    4.90
  -4   1   8  277.77    5.50
  -4   1   8  281.57    5.80
   4  -1  -8  286.87    5.80
  -4   2   8    5.50    0.70
  -4   2   8    6.20    0.60
   4  -2  -8    5.60    0.80
  -4   3   8  157.58    3.70
   4  -3  -8  154.68    3.90
  -4   4   8   53.49    1.90
   4  -4  -8   53.69    2.20
  -4   5   8    0.80    0.60
   4  -5  -8    1.20    0.80
  -4   6   8   15.40    1.20
   4  -6  -8   13.30    1.40
  -4   7   8   36.90    1.70
   4  -7  -8   33.40    2.20
  -3  -8   8    0.60    0.70
   3   8  -8    0.60    0.70
  -3  -7   8   12.00    1.20
   3   7  -8   10.30    1.10
  -3  -6   8   -0.70    0.60
   3   6  -8   -0.20    0.60
  -3  -5   8   53.99    2.00
   3   5  -8   56.49    1.90
  -3  -4   8   40.90    1.60
   3   4  -8   41.80    1.60
  -3  -3   8    6.40    0.70
   3   3  -8    6.10    0.70
  -3  -2   8    4.30    0.60
   3   2  -8    4.40    0.40
   3   2  -8    4.20    0.40
   3   2  -8    4.20    0.60
  -3  -1   8  502.55    9.40
   3   1  -8  512.15    9.50
   3   1  -8  505.85    9.20
  -3   0   8    1.10    0.40
   3   0  -8    0.30    0.40
  -3   1   8  511.75    9.30
  -3   1   8  497.35    9.40
   3  -1  -8  506.25    9.50
  -3   2   8    4.50    0.50
  -3   2   8    3.40    0.50
   3  -2  -8    5.30    0.80
  -3   3   8    5.10    0.60
  -3   3   8    5.60    0.50
   3  -3  -8    4.70    0.80
  -3   4   8   41.30    1.20
  -3   4   8   41.80    1.50
   3  -4  -8   41.00    1.80
  -3   5   8   55.79    1.80
   3  -5  -8   53.49    2.20
  -3   6   8   -0.10    0.50
   3  -6  -8   -0.40    0.70
  -3   7   8   13.70    1.10
   3  -7  -8    9.70    1.30
  -3   8   8    0.20    0.60
   3  -8  -8    0.60    0.90
  -2  -8   8   15.50    1.40
   2   8  -8   12.90    1.20
  -2  -7   8   73.09    2.50
   2   7  -8   72.69    2.40
  -2  -6   8   33.20    1.60
   2   6  -8   33.20    1.50
  -2  -5   8    0.10    0.50
   2   5  -8    0.10    0.50
  -2  -4   8  134.09    3.30
   2   4  -8  137.69    3.20
  -2  -3   8  401.36    7.80
   2   3  -8  408.96    7.70
  -2  -2   8   29.70    1.20
   2   2  -8   33.20    0.70
   2   2  -8   32.40    1.20
   2   2  -8   32.20    0.70
  -2  -1   8  834.92   15.20
  -2  -1   8  854.11   14.80
   2   1  -8  844.02   14.90
   2   1  -8  843.02   15.10
  -2   0   8  778.22   13.90
   2   0  -8  768.02   13.80
   2   0  -8  772.42   13.80
  -2   1   8  825.62   14.90
  -2   1   8  834.32   14.80
   2  -1  -8  834.22   15.00
  -2   2   8   33.00    1.10
  -2   2   8   31.40    1.10
   2  -2  -8   32.20    1.40
  -2   3   8  414.76    7.70
  -2   3   8  410.36    7.60
   2  -3  -8  413.06    8.20
  -2   4   8  140.59    3.00
  -2   4   8  139.29    3.10
   2  -4  -8  140.39    3.60
  -2   5   8    0.60    0.40
  -2   5   8    0.60    0.40
   2  -5  -8    0.30    0.70
  -2   6   8   32.80    1.20
  -2   6   8   35.50    1.30
   2  -6  -8   30.70    1.70
  -2   7   8   71.59    2.10
   2  -7  -8   70.99    2.80
  -2   8   8   13.20    1.10
   2  -8  -8   12.40    1.40
  -1  -8   8    1.90    0.70
   1   8  -8    1.60    0.70
  -1  -7   8   24.80    1.50
   1   7  -8   21.80    1.40
  -1  -6   8   -0.40    0.50
   1   6  -8    0.10    0.50
  -1  -5   8   79.39    2.30
   1   5  -8   77.49    2.20
  -1  -4   8   70.59    2.10
   1   4  -8   73.39    2.00
  -1  -3   8   10.20    0.80
   1   3  -8    9.90    0.80
  -1  -2   8    8.90    0.70
  -1  -2   8    9.90    0.30
   1   2  -8    9.40    0.30
   1   2  -8    9.70    0.60
  -1  -1   8 1149.98   20.00
  -1  -1   8 1127.09   20.30
   1   1  -8 1150.58   20.10
   1   1  -8 1147.39   20.00
  -1   0   8    0.30    0.30
   1   0  -8    0.50    0.30
   1   0  -8    0.20    0.30
  -1   1   8 1156.08   20.30
   1  -1  -8 1145.49   20.10
   1  -1  -8 1142.09   20.30
  -1   2   8    9.50    0.70
  -1   2   8    8.90    0.60
   1  -2  -8    9.80    0.80
  -1   3   8   10.60    0.70
  -1   3   8   10.50    0.60
   1  -3  -8   12.40    1.00
  -1   4   8   72.09    1.90
  -1   4   8   71.29    1.80
   1  -4  -8   71.79    2.30
  -1   5   8   79.39    2.10
  -1   5   8   80.19    2.00
   1  -5  -8   80.99    2.60
  -1   6   8    0.10    0.40
  -1   6   8    0.40    0.40
   1  -6  -8   -0.50    0.60
  -1   7   8   24.50    1.10
  -1   7   8   24.30    1.20
   1  -7  -8   23.20    1.60
   1  -8  -8    2.40    0.90
   0  -9   8   12.30    1.20
   0  -8   8   18.30    1.40
   0   8  -8   18.20    1.30
   0  -7   8   91.19    2.70
   0   7  -8   91.89    2.70
   0  -6   8   48.70    1.80
   0   6  -8   49.99    1.80
   0  -5   8    0.40    0.50
   0   5  -8    0.60    0.40
   0  -4   8  193.58    4.30
   0  -4   8  200.68    3.60
   0  -4   8  204.88    3.60
   0   4  -8  199.28    4.20
   0  -3   8  588.64   11.00
   0  -3   8  613.34   10.50
   0  -3   8  599.44   10.50
   0   3  -8  593.94   11.00
   0  -2   8   61.09    1.40
   0  -2   8   65.79    1.70
   0   2  -8   61.39    1.40
   0   2  -8   58.69    1.60
   0  -1   8 1299.87   22.50
   0  -1   8 1281.67   22.70
   0   1  -8 1267.27   22.90
   0   1  -8 1296.27   22.50
   0   0   8 1252.27   22.10
   0   0  -8 1282.37   22.60
   0   0  -8 1235.18   22.30
   0   1   8 1271.37   22.20
   0  -1  -8 1274.17   22.30
   0  -1  -8 1235.88   22.80
   0   2   8   59.69    1.60
   0  -2  -8   54.19    1.30
   0  -2  -8   59.39    1.30
   0  -2  -8   58.69    1.70
   0   3   8  579.74   10.30
   0   3   8  583.64   10.60
   0  -3  -8  555.34   10.40
   0  -3  -8  595.04   10.90
   0   4   8  198.48    4.20
   0   4   8  200.78    3.80
   0  -4  -8  198.88    4.50
   0   5   8    0.90    0.30
   0   5   8    1.10    0.40
   0  -5  -8    0.70    0.60
   0   6   8   50.69    1.70
   0   6   8   48.20    1.40
   0  -6  -8   48.60    2.00
   0   7   8   90.49    2.50
   0  -7  -8   91.19    3.00
   0   8   8   16.80    1.20
   0  -8  -8   17.70    1.60
   1  -8   8    1.20    0.60
  -1   8  -8    2.30    0.80
   1  -7   8   23.50    1.40
  -1   7  -8   23.20    1.40
   1  -6   8    0.40    0.50
  -1   6  -8   -0.30    0.40
   1  -5   8   81.79    2.20
   1  -5   8   80.59    1.90
  -1   5  -8   78.49    2.20
   1  -4   8   71.69    2.00
   1  -4   8   74.29    1.70
  -1   4  -8   72.89    2.00
   1  -3   8   11.40    0.80
   1  -3   8   10.40    0.60
  -1   3  -8   11.00    0.70
   1  -2   8    9.20    0.70
  -1   2  -8   10.40    0.60
  -1   2  -8    8.40    0.60
   1  -1   8 1147.99   20.30
  -1   1  -8 1121.39   20.60
  -1   1  -8 1167.78   20.20
   1   0   8    0.60    0.40
  -1   0  -8    0.70    0.40
  -1   0  -8    0.30    0.20
   1   1   8 1166.78   20.80
  -1  -1  -8 1181.98   21.00
  -1  -1  -8 1173.08   20.40
  -1  -1  -8 1180.68   20.90
   1   2   8    9.40    0.70
  -1  -2  -8    9.50    0.40
  -1  -2  -8    9.00    0.80
  -1  -2  -8    9.60    0.40
   1   3   8   11.70    0.80
  -1  -3  -8   11.00    0.30
  -1  -3  -8   10.10    0.90
  -1  -3  -8   11.20    0.40
   1   4   8   71.69    2.00
   1   4   8   72.19    1.40
  -1  -4  -8   71.59    2.20
   1   5   8   79.39    1.70
   1   5   8   80.89    2.20
  -1  -5  -8   82.79    2.50
   1   6   8   -0.30    0.50
  -1  -6  -8   -0.20    0.50
   1   7   8   24.20    1.40
  -1  -7  -8   20.90    1.50
   1   8   8    2.50    0.70
  -1  -8  -8    1.90    0.90
   2  -8   8   14.50    1.20
  -2   8  -8   14.10    1.30
   2  -7   8   72.39    2.20
  -2   7  -8   71.79    2.40
   2  -6   8   35.00    1.50
   2  -6   8   35.60    1.30
  -2   6  -8   33.40    1.60
   2  -5   8    2.00    0.50
   2  -5   8    0.90    0.50
  -2   5  -8    0.10    0.50
   2  -4   8  142.69    3.20
   2  -4   8  143.49    3.10
  -2   4  -8  140.19    3.30
   2  -3   8  413.26    7.70
   2  -3   8  415.36    7.80
  -2   3  -8  400.06    7.70
   2  -2   8   31.90    1.20
  -2   2  -8   32.80    1.10
  -2   2  -8   33.20    1.10
   2  -1   8  824.82   14.80
  -2   1  -8  820.42   14.60
  -2   1  -8  832.02   14.90
   2   0   8  797.82   14.30
   2   0   8  782.72   13.90
  -2   0  -8  793.22   14.30
  -2   0  -8  788.72   13.90
   2   1   8  826.32   15.10
  -2  -1  -8  847.72   14.80
  -2  -1  -8  849.22   15.30
   2   2   8   31.70    1.20
  -2  -2  -8   31.30    1.30
   2   3   8  407.26    7.70
  -2  -3  -8  390.76    7.90
   2   4   8  139.09    3.30
  -2  -4  -8  142.49    3.60
   2   5   8    0.60    0.50
  -2  -5  -8    1.10    0.60
   2   6   8   33.80    1.60
  -2  -6  -8   34.80    1.80
   2   7   8   73.69    2.40
  -2  -7  -8   69.79    2.60
   2   8   8   13.40    1.30
  -2  -8  -8   15.10    1.50
  -3   8  -8    0.00    0.70
  -3   7  -8   13.30    1.30
   3  -6   8    0.40    0.50
   3  -6   8    0.00    0.50
  -3   6  -8    0.10    0.60
   3  -5   8   56.29    1.80
   3  -5   8   56.39    1.80
  -3   5  -8   54.79    1.90
   3  -4   8   39.90    1.40
   3  -4   8   40.80    1.50
  -3   4  -8   40.80    1.50
   3  -3   8    6.20    0.70
   3  -3   8    6.40    0.60
  -3   3  -8    5.20    0.60
   3  -2   8    4.10    0.60
  -3   2  -8    4.30    0.60
  -3   2  -8    4.30    0.50
   3  -1   8  513.95    9.50
  -3   1  -8  504.25    9.70
  -3   1  -8  518.05    9.30
   3   0   8    0.10    0.50
  -3   0  -8    0.40    0.50
  -3   0  -8    0.70    0.20
   3   1   8  510.95    9.30
   3   1   8  500.75    8.70
  -3  -1  -8  466.45    9.40
  -3  -1  -8  502.75    8.70
   3   2   8    4.00    0.60
  -3  -2  -8    3.90    0.70
   3   3   8    5.50    0.70
  -3  -3  -8    5.60    0.80
   3   4   8   41.90    1.60
  -3  -4  -8   42.00    1.70
   3   5   8   55.59    2.00
  -3  -5  -8   56.29    2.20
   3   6   8   -0.80    0.50
  -3  -6  -8   -0.20    0.70
   3   7   8   15.30    1.40
  -3  -7  -8   12.90    1.40
   3   8   8    1.30    0.70
  -3  -8  -8    0.80    0.80
  -4   7  -8   36.80    1.90
   4  -6   8   14.50    1.20
  -4   6  -8   12.90    1.10
   4  -5   8    1.00    0.60
   4  -5   8    1.50    0.50
  -4   5  -8    0.80    0.60
   4  -4   8   53.69    1.70
   4  -4   8   52.19    2.00
  -4   4  -8   54.59    1.80
   4  -3   8  157.38    3.80
   4  -3   8  157.48    3.50
  -4   3  -8  160.98    3.60
   4  -2   8    8.10    0.80
  -4   2  -8    5.90    0.80
  -4   2  -8    6.10    0.60
   4  -1   8  286.67    5.70
  -4   1  -8  289.97    6.00
  -4   1  -8  275.37    5.40
   4   0   8  240.08    5.00
  -4   0  -8  238.78    4.50
  -4   0  -8  236.18    5.20
   4   1   8  285.67    5.80
  -4  -1  -8  287.97    5.20
  -4  -1  -8  278.97    6.00
   4   2   8    4.10    0.60
  -4  -2  -8    6.60    0.90
   4   3   8  153.88    3.60
  -4  -3  -8  151.68    3.90
   4   4   8   55.09    2.10
  -4  -4  -8   55.99    2.10
   4   5   8    0.80    0.70
  -4  -5  -8    0.40    0.70
   4   6   8   13.60    1.30
  -4  -6  -8   13.60    1.40
   4   7   8   39.20    2.00
  -4  -7  -8   35.20    2.00
   5  -6   8    1.30    0.70
  -5   6  -8   -0.50    0.60
   5  -5   8   30.90    1.70
  -5   5  -8   30.20    1.60
   5  -4   8   12.40    1.30
  -5   4  -8   17.20    1.10
   5  -3   8    1.60    0.50
   5  -3   8    0.50    0.70
  -5   3  -8    2.20    0.50
   5  -2   8    1.60    0.70
   5  -2   8    1.10    0.50
  -5   2  -8    1.40    0.40
   5  -1   8  150.88    3.40
  -5   1  -8  149.29    3.20
  -5   1  -8  143.89    3.80
   5   0   8   -0.20    0.50
  -5   0  -8    0.70    0.30
  -5   0  -8   -0.70    0.60
   5   1   8  151.08    3.60
  -5  -1  -8  149.49    3.90
   5   2   8    1.00    0.60
  -5  -2  -8    1.60    0.70
   5   3   8    1.80    0.70
  -5  -3  -8    0.90    0.60
   5   4   8   18.40    1.40
  -5  -4  -8   18.10    1.50
   5   5   8   31.40    1.80
  -5  -5  -8   28.40    1.70
   5   6   8    0.40    0.80
  -5  -6  -8    0.10    0.80
   6  -5   8    1.70    0.80
  -6   5  -8    1.20    0.70
   6  -4   8   15.80    1.50
  -6   4  -8   14.00    1.30
   6  -3   8   36.40    1.90
  -6   3  -8   36.10    1.50
   6  -2   8   -0.60    0.50
   6  -2   8    0.70    0.80
  -6   2  -8   -0.20    0.50
   6  -1   8   61.79    2.00
  -6   1  -8   61.39    2.40
   6   0   8   55.39    2.00
  -6   0  -8   57.99    2.40
   6   1   8   63.19    2.20
  -6  -1  -8   59.59    2.30
   6   2   8   -1.00    0.60
  -6  -2  -8    0.00    0.60
   6   3   8   37.30    1.80
  -6  -3  -8   36.30    2.00
   6   4   8   15.90    1.50
  -6  -4  -8   12.90    1.40
   6   5   8    1.00    0.80
  -6  -5  -8    1.10    0.80
   7  -3   8    0.50    0.80
  -7   3  -8   -0.70    0.90
   7  -2   8   -0.10    0.90
   7  -1   8   36.90    2.10
   7   0   8    0.30    0.60
  -7   0  -8    0.60    0.90
   7   1   8   39.40    1.80
  -7  -1  -8   35.70    2.10
   7   2   8    0.20    0.70
  -7  -2  -8    0.30    0.80
   7   3   8    1.00    0.70
  -7  -3  -8    0.80    0.90
   7   2  -9    4.00    0.90
   7   1  -9   16.00    1.40
  -7   1   9   17.90    1.60
   7  -1  -9   17.30    1.60
  -7   2   9    4.70    1.00
   7  -2  -9    2.60    1.00
  -6  -4   9   12.60    1.20
   6   4  -9   11.40    1.20
  -6  -3   9    6.70    0.90
   6   3  -9    7.80    1.00
  -6  -2   9   16.10    1.20
   6   2  -9   12.70    1.20
  -6  -1   9    0.90    0.50
   6   1  -9    0.30    0.60
  -6   0   9    0.80    0.70
   6   0  -9    0.10    0.60
  -6   1   9    1.20    0.70
   6  -1  -9    0.60    0.70
  -6   2   9   12.90    1.30
   6  -2  -9   13.20    1.40
  -6   3   9    6.50    1.00
   6  -3  -9    9.00    1.20
  -6   4   9   12.30    1.30
   6  -4  -9    9.30    1.30
  -5  -6   9   -0.70    0.70
   5   6  -9   -0.50    0.70
  -5  -5   9    0.30    0.70
   5   5  -9    1.60    0.70
  -5  -4   9    5.60    0.90
   5   4  -9    4.10    0.80
  -5  -3   9   71.39    2.40
   5   3  -9   71.69    2.30
  -5  -2   9   11.40    1.10
   5   2  -9    8.50    0.90
  -5  -1   9   75.39    2.20
   5   1  -9   75.49    2.10
   5   1  -9   74.29    2.30
  -5   0   9   11.50    1.10
  -5   0   9   12.90    1.00
   5   0  -9   11.60    1.10
  -5   1   9   75.09    2.00
  -5   1   9   75.99    2.40
   5  -1  -9   73.89    2.40
  -5   2   9   10.80    1.10
   5  -2  -9    9.30    1.10
  -5   3   9   67.49    2.30
   5  -3  -9   71.29    2.60
  -5   4   9    4.10    0.90
   5  -4  -9    4.60    1.00
  -5   5   9    1.80    0.80
   5  -5  -9    0.40    0.80
  -5   6   9    0.00    0.70
   5  -6  -9    0.30    0.90
  -4  -7   9   22.30    1.70
   4   7  -9   18.70    1.50
  -4  -6   9   31.90    1.80
   4   6  -9   32.90    1.70
  -4  -5   9  143.19    3.80
   4   5  -9  143.59    3.60
  -4  -4   9   27.50    1.50
   4   4  -9   25.70    1.40
  -4  -3   9   29.10    1.40
   4   3  -9   28.20    1.30
  -4  -2   9   57.39    1.90
   4   2  -9   58.29    1.90
   4   2  -9   53.79    2.00
  -4  -1   9    2.40    0.50
   4   1  -9    2.00    0.50
   4   1  -9    1.70    0.60
  -4   0   9   -0.10    0.40
   4   0  -9    1.10    0.50
  -4   1   9    2.80    0.60
  -4   1   9    2.30    0.50
   4  -1  -9    2.20    0.60
  -4   2   9   54.99    1.50
  -4   2   9   56.19    1.90
   4  -2  -9   54.79    2.00
  -4   3   9   30.70    1.50
   4  -3  -9   31.00    1.70
  -4   4   9   26.80    1.40
   4  -4  -9   28.20    1.70
  -4   5   9  140.59    3.50
   4  -5  -9  137.39    4.00
  -4   6   9   30.50    1.60
   4  -6  -9   34.20    2.10
  -4   7   9   16.70    1.30
   4  -7  -9   18.00    1.80
  -3  -7   9   57.99    2.40
   3   7  -9   53.29    2.10
  -3  -6   9    1.10    0.60
   3   6  -9    0.80    0.70
  -3  -5   9    4.10    0.80
   3   5  -9    4.20    0.80
  -3  -4   9    8.20    0.90
   3   4  -9   10.90    1.00
  -3  -3   9  239.38    5.10
   3   3  -9  236.48    5.00
  -3  -2   9   27.60    1.30
   3   2  -9   27.20    0.80
   3   2  -9   23.10    1.10
  -3  -1   9  212.48    4.50
   3   1  -9  211.58    4.50
   3   1  -9  214.28    4.20
  -3   0   9   68.99    1.90
   3   0  -9   70.39    1.90
   3   0  -9   70.39    2.00
  -3   1   9  206.68    4.40
  -3   1   9  208.88    4.30
   3  -1  -9  214.48    4.50
  -3   2   9   26.50    1.00
  -3   2   9   27.10    1.20
   3  -2  -9   27.80    1.40
  -3   3   9  241.18    4.70
  -3   3   9  241.48    5.00
   3  -3  -9  238.68    5.30
  -3   4   9   11.00    0.90
  -3   4   9   11.10    0.70
   3  -4  -9   13.40    1.30
  -3   5   9    3.00    0.70
   3  -5  -9    4.20    1.00
  -3   6   9    0.70    0.60
   3  -6  -9    0.80    0.90
  -3   7   9   54.99    2.00
   3  -7  -9   49.99    2.40
  -2  -8   9    4.60    0.90
   2   8  -9    6.20    0.90
  -2  -7   9   46.10    2.00
   2   7  -9   44.40    1.90
  -2  -6   9   63.09    2.30
   2   6  -9   59.29    2.00
  -2  -5   9  318.57    6.70
   2   5  -9  319.97    6.50
  -2  -4   9   53.89    1.90
   2   4  -9   53.09    1.80
  -2  -3   9   64.99    2.00
   2   3  -9   66.79    1.90
  -2  -2   9  144.39    3.30
   2   2  -9  149.59    2.70
   2   2  -9  140.49    3.20
  -2  -1   9    4.80    0.40
  -2  -1   9    4.90    0.60
   2   1  -9    4.60    0.60
   2   1  -9    5.00    0.50
  -2   0   9    0.00    0.40
   2   0  -9    0.60    0.40
   2   0  -9    0.40    0.40
  -2   1   9    5.60    0.60
  -2   1   9    5.60    0.60
   2  -1  -9    5.00    0.70
  -2   2   9  147.49    3.20
  -2   2   9  145.49    3.20
   2  -2  -9  148.49    3.50
  -2   3   9   68.99    1.90
  -2   3   9   67.29    1.80
   2  -3  -9   66.39    2.20
  -2   4   9   49.30    1.50
  -2   4   9   52.49    1.60
   2  -4  -9   49.30    2.00
  -2   5   9  317.07    6.20
  -2   5   9  323.77    6.30
   2  -5  -9  318.07    7.00
  -2   6   9   61.79    1.90
   2  -6  -9   57.49    2.40
  -2   7   9   45.10    1.70
   2  -7  -9   42.90    2.10
   2  -8  -9    5.80    1.20
  -1  -8   9    0.20    0.60
   1   8  -9    0.30    0.60
  -1  -7   9   86.59    2.70
   1   7  -9   81.99    2.60
  -1  -6   9    0.30    0.60
   1   6  -9    3.20    0.70
  -1  -5   9    7.40    0.80
   1   5  -9    6.10    0.70
  -1  -4   9   19.20    1.10
   1   4  -9   18.50    1.10
  -1  -3   9  469.05    9.00
   1   3  -9  478.05    8.90
  -1  -2   9   56.39    1.70
  -1  -2   9   58.59    1.20
   1   2  -9   58.29    1.20
   1   2  -9   56.09    1.60
  -1  -1   9  380.16    7.00
  -1  -1   9  379.36    7.30
   1   1  -9  390.36    7.00
   1   1  -9  389.16    7.20
  -1   0   9  188.58    4.00
   1   0  -9  190.88    3.80
   1   0  -9  191.48    3.80
  -1   1   9  384.26    7.20
   1  -1  -9  380.46    7.30
   1  -1  -9  384.66    7.10
  -1   2   9   58.79    1.60
  -1   2   9   55.39    1.50
   1  -2  -9   57.69    1.80
  -1   3   9  475.95    8.70
  -1   3   9  471.45    8.80
   1  -3  -9  473.95    9.20
  -1   4   9   18.70    1.00
  -1   4   9   18.70    0.90
   1  -4  -9   17.80    1.20
  -1   5   9    7.00    0.70
  -1   5   9    7.70    0.70
   1  -5  -9    6.80    1.00
  -1   6   9    2.40    0.50
  -1   6   9    1.50    0.50
   1  -6  -9    2.00    0.80
  -1   7   9   86.09    2.40
   1  -7  -9   84.49    2.90
   1  -8  -9   -0.50    0.80
   0  -8   9    9.70    1.10
   0   8  -9    8.80    1.00
   0  -7   9   57.99    2.10
   0   7  -9   56.29    2.10
   0  -6   9   73.89    2.30
   0   6  -9   75.89    2.30
   0  -5   9  430.46    8.30
   0   5  -9  418.96    8.30
   0  -4   9   70.99    1.40
   0  -4   9   70.99    2.10
   0   4  -9   69.49    2.00
   0  -3   9   90.49    1.80
   0  -3   9   88.19    2.40
   0  -3   9   92.89    1.90
   0   3  -9   91.69    2.30
   0  -2   9  206.48    4.40
   0  -2   9  213.58    4.10
   0   2  -9  214.98    4.30
   0   2  -9  214.08    4.00
   0  -1   9    7.30    0.70
   0   1  -9    6.90    0.60
   0   1  -9    6.60    0.50
   0   0   9    0.30    0.40
   0   0  -9    0.50    0.30
   0   0  -9    0.10    0.30
   0   1   9    5.30    0.60
   0  -1  -9    6.40    0.50
   0  -1  -9    6.50    0.70
   0   2   9  213.08    4.40
   0  -2  -9  221.58    4.60
   0  -2  -9  210.88    4.00
   0   3   9   90.69    2.30
   0   3   9   90.49    1.90
   0  -3  -9   87.89    2.50
   0   4   9   69.39    1.60
   0   4   9   68.49    1.90
   0  -4  -9   67.49    2.20
   0   5   9  431.56    8.30
   0   5   9  426.06    7.80
   0  -5  -9  431.06    8.70
   0   6   9   75.69    2.20
   0  -6  -9   74.39    2.60
   0   7   9   59.19    2.00
   0  -7  -9   58.09    2.40
   0   8   9    7.80    0.90
   0  -8  -9    8.20    1.20
   1  -8   9    0.10    0.60
  -1   8  -9   -0.20    0.60
   1  -7   9   86.39    2.60
  -1   7  -9   84.39    2.60
   1  -6   9    2.50    0.60
  -1   6  -9    2.00    0.60
   1  -5   9    7.90    0.80
  -1   5  -9    7.90    0.80
   1  -4   9   17.20    1.00
   1  -4   9   18.20    0.80
  -1   4  -9   17.90    1.00
   1  -3   9  493.65    8.90
   1  -3   9  481.65    9.20
  -1   3  -9  483.75    9.10
   1  -2   9   54.49    1.70
  -1   2  -9   59.29    1.50
  -1   2  -9   57.99    1.60
   1  -1   9  378.86    7.40
  -1   1  -9  390.56    7.20
  -1   1  -9  391.26    7.20
   1   0   9  182.48    3.90
  -1   0  -9  192.98    3.90
  -1   0  -9  189.88    3.60
   1   1   9  385.16    7.40
  -1  -1  -9  399.56    7.00
  -1  -1  -9  387.56    7.00
  -1  -1  -9  386.96    7.50
   1   2   9   55.69    1.70
  -1  -2  -9   56.99    1.20
  -1  -2  -9   57.29    1.20
  -1  -2  -9   57.29    1.80
   1   3   9  476.75    9.00
  -1  -3  -9  500.35    8.40
  -1  -3  -9  464.85    9.20
  -1  -3  -9  472.35    8.40
   1   4   9   19.70    1.10
  -1  -4  -9   17.00    1.10
   1   5   9    6.00    0.70
  -1  -5  -9    8.10    1.00
   1   6   9    1.80    0.60
  -1  -6  -9    1.40    0.70
   1   7   9   84.99    2.60
  -1  -7  -9   85.09    2.90
   1   8   9    1.00    0.60
  -1  -8  -9    0.60    0.80
   2  -8   9    6.70    0.90
  -2   8  -9    6.80    1.00
   2  -7   9   44.70    1.80
  -2   7  -9   44.60    1.90
   2  -6   9   61.49    2.00
  -2   6  -9   63.49    2.20
   2  -5   9  329.07    6.60
   2  -5   9  324.17    6.40
  -2   5  -9  330.37    6.70
   2  -4   9   51.19    1.70
   2  -4   9   51.59    1.50
  -2   4  -9   51.79    1.70
   2  -3   9   65.29    1.90
   2  -3   9   67.29    1.80
  -2   3  -9   69.79    1.90
   2  -2   9  145.39    3.30
  -2   2  -9  145.39    3.20
  -2   2  -9  144.29    3.10
   2  -1   9    4.40    0.60
  -2   1  -9    6.10    0.60
  -2   1  -9    5.80    0.60
   2   0   9    1.30    0.50
  -2   0  -9    0.30    0.20
  -2   0  -9   -0.20    0.40
   2   1   9    5.20    0.60
  -2  -1  -9    4.80    0.70
  -2  -1  -9    4.50    0.30
  -2  -1  -9    5.20    0.40
   2   2   9  141.19    3.30
  -2  -2  -9  145.69    3.40
   2   3   9   60.49    1.90
  -2  -3  -9   66.99    2.10
   2   4   9   54.09    1.80
  -2  -4  -9   52.09    2.00
   2   5   9  319.67    6.60
  -2  -5  -9  325.87    7.00
   2   6   9   60.09    2.10
  -2  -6  -9   62.29    2.40
   2   7   9   44.30    1.90
  -2  -7  -9   40.40    2.10
   2   8   9    6.20    0.90
  -2  -8  -9    7.10    1.20
  -3   7  -9   54.89    2.20
   3  -6   9    0.60    0.50
   3  -6   9    2.30    0.60
  -3   6  -9    0.50    0.60
   3  -5   9    5.10    0.70
   3  -5   9    4.50    0.70
  -3   5  -9    4.50    0.80
   3  -4   9   11.90    1.00
   3  -4   9   10.40    0.90
  -3   4  -9   13.90    1.00
   3  -3   9  238.98    5.00
   3  -3   9  239.88    5.00
  -3   3  -9  240.98    4.90
   3  -2   9   27.20    1.20
  -3   2  -9   26.30    1.20
  -3   2  -9   27.70    1.10
   3  -1   9  215.78    4.50
  -3   1  -9  212.98    4.60
  -3   1  -9  214.98    4.20
   3   0   9   66.49    2.00
  -3   0  -9   70.59    2.10
  -3   0  -9   70.29    1.60
   3   1   9  214.08    4.60
  -3  -1  -9  216.68    4.70
  -3  -1  -9  215.78    3.90
   3   2   9   24.40    1.30
  -3  -2  -9   26.20    1.30
   3   3   9  237.58    5.10
  -3  -3  -9  238.88    5.30
   3   4   9   11.90    1.10
  -3  -4  -9    9.50    1.00
   3   5   9    4.30    0.80
  -3  -5  -9    4.80    0.90
   3   6   9    0.50    0.60
  -3  -6  -9    0.20    0.70
   3   7   9   56.29    2.20
  -3  -7  -9   48.10    2.30
  -4   7  -9   16.10    1.40
   4  -6   9   36.20    1.70
  -4   6  -9   31.10    1.60
   4  -5   9  140.59    3.60
   4  -5   9  140.99    3.30
  -4   5  -9  142.39    3.60
   4  -4   9   26.30    1.50
   4  -4   9   28.10    1.30
  -4   4  -9   26.10    1.30
   4  -3   9   30.20    1.30
   4  -3   9   27.80    1.40
  -4   3  -9   29.30    1.20
   4  -2   9   55.99    1.80
  -4   2  -9   55.89    2.00
  -4   2  -9   55.39    1.60
   4  -1   9    2.70    0.60
  -4   1  -9    1.20    0.40
  -4   1  -9    2.30    0.60
   4   0   9    0.00    0.50
  -4   0  -9    0.30    0.30
  -4   0  -9    0.30    0.50
   4   1   9    2.10    0.60
  -4  -1  -9    1.00    0.60
   4   2   9   55.19    1.90
  -4  -2  -9   55.79    2.10
   4   3   9   28.60    1.50
  -4  -3  -9   31.20    1.60
   4   4   9   25.00    1.50
  -4  -4  -9   26.60    1.60
   4   5   9  145.19    3.80
  -4  -5  -9  142.69    4.00
   4   6   9   34.40    1.80
  -4  -6  -9   31.80    1.90
   4   7   9   19.60    1.60
  -4  -7  -9   17.30    1.70
   5  -6   9    0.50    0.70
  -5   6  -9    0.30    0.70
   5  -5   9    2.50    0.80
  -5   5  -9    0.10    0.60
   5  -4   9    4.70    0.90
  -5   4  -9    3.40    0.70
   5  -3   9   71.09    2.50
   5  -3   9   69.69    2.10
  -5   3  -9   71.79    2.10
   5  -2   9    7.30    0.80
  -5   2  -9   10.40    0.80
   5  -1   9   76.29    2.20
  -5   1  -9   72.69    1.90
  -5   1  -9   77.19    2.60
   5   0   9   11.40    1.10
  -5   0  -9   11.20    1.20
   5   1   9   78.79    2.40
  -5  -1  -9   74.19    2.60
   5   2   9    7.90    0.90
  -5  -2  -9    9.60    1.10
   5   3   9   70.19    2.30
  -5  -3  -9   63.99    2.40
   5   4   9    4.90    0.90
  -5  -4  -9    4.50    1.00
   5   5   9    1.50    0.80
  -5  -5  -9    0.50    0.80
   5   6   9    0.40    0.70
  -5  -6  -9    0.40    0.80
   6  -4   9   10.20    1.30
  -6   4  -9   12.70    1.20
   6  -3   9    9.20    1.30
  -6   3  -9    8.30    0.90
   6  -2   9   15.40    1.50
   6  -2   9   13.60    1.30
  -6   2  -9   14.70    1.60
   6  -1   9    1.10    0.60
  -6   1  -9    0.90    0.80
   6   0   9   -0.20    0.60
  -6   0  -9   -0.10    0.80
   6   1   9    0.80    0.70
  -6  -1  -9    0.60    0.80
   6   2   9   14.40    1.40
  -6  -2  -9   14.80    1.50
   6   3   9    8.50    1.00
  -6  -3  -9    8.00    1.20
   6   4   9   10.00    1.20
  -6  -4  -9   11.20    1.40
   7  -2   9    3.50    1.00
   7  -1   9   18.30    1.70
   7   0   9    1.10    0.70
  -7   0  -9   -0.40    0.80
   7   1   9   17.90    1.50
  -7  -1  -9   20.70    1.80
   7   2   9    2.70    0.90
  -7  -2  -9    2.80    1.10
  -6  -4  10   -0.10    0.70
   6   4 -10    1.00    0.80
  -6  -3  10   21.40    1.50
   6   3 -10   20.70    1.50
  -6  -2  10    3.30    0.80
   6   2 -10    1.80    0.70
  -6  -1  10  161.48    3.90
   6   1 -10  152.48    4.00
   6   0 -10   40.80    1.80
  -6   1  10  168.08    4.20
   6  -1 -10  144.99    4.00
  -6   2  10    2.90    0.80
   6  -2 -10    2.60    0.90
  -6   3  10   18.40    1.50
   6  -3 -10   20.10    1.70
  -6   4  10   -0.30    0.80
   6  -4 -10    0.30    0.90
  -5  -5  10   27.70    1.80
   5   5 -10   27.60    1.70
  -5  -4  10   93.49    2.90
   5   4 -10   86.69    2.70
  -5  -3  10   20.80    1.40
   5   3 -10   19.50    1.30
  -5  -2  10   49.70    1.90
   5   2 -10   46.50    1.80
  -5  -1  10    2.60    0.60
   5   1 -10    2.80    0.70
  -5   0  10    0.10    0.50
   5   0 -10    0.50    0.50
   5   0 -10    0.30    0.60
  -5   1  10    2.70    0.80
   5  -1 -10    3.00    0.80
  -5   2  10   47.60    1.90
   5  -2 -10   46.20    2.00
  -5   3  10   18.20    1.40
   5  -3 -10   21.10    1.60
  -5   4  10   94.09    2.90
   5  -4 -10   89.89    3.20
  -5   5  10   23.60    1.60
   5  -5 -10   25.80    2.00
  -4  -6  10   24.30    1.70
   4   6 -10   21.10    1.50
  -4  -5  10   97.99    3.00
   4   5 -10   98.39    2.90
  -4  -4  10    0.10    0.60
   4   4 -10    1.20    0.70
  -4  -3  10   68.59    2.30
   4   3 -10   69.89    2.20
  -4  -2  10    6.50    0.80
   4   2 -10    7.80    0.90
  -4  -1  10  547.95   10.30
   4   1 -10  528.95   10.00
   4   1 -10  545.75   10.30
  -4   0  10  150.68    3.50
   4   0 -10  152.88    3.60
   4   0 -10  154.88    3.50
  -4   1  10  519.95    9.90
  -4   1  10  529.65   10.20
   4  -1 -10  539.25   10.20
  -4   2  10    6.60    0.90
  -4   2  10    7.10    0.70
   4  -2 -10    7.30    1.00
  -4   3  10   66.49    2.20
   4  -3 -10   68.59    2.50
  -4   4  10    0.10    0.60
   4  -4 -10    1.50    0.80
  -4   5  10   97.19    2.80
   4  -5 -10   93.19    3.20
  -4   6  10   19.20    1.40
   4  -6 -10   20.60    1.80
  -3  -7  10   12.30    1.30
   3   7 -10   13.80    1.30
  -3  -6  10    4.30    0.90
   3   6 -10    3.40    0.80
  -3  -5  10   63.29    2.30
   3   5 -10   60.09    2.10
  -3  -4  10  243.28    5.40
   3   4 -10  241.28    5.20
  -3  -3  10   48.70    1.80
   3   3 -10   49.90    1.70
  -3  -2  10  137.39    3.30
   3   2 -10  132.19    3.20
  -3  -1  10    5.60    0.60
   3   1 -10    5.10    0.60
   3   1 -10    5.40    0.70
  -3   0  10    0.40    0.40
   3   0 -10    0.60    0.50
   3   0 -10    0.60    0.40
  -3   1  10    5.50    0.60
  -3   1  10    5.70    0.70
   3  -1 -10    4.50    0.70
  -3   2  10  133.39    3.10
  -3   2  10  127.89    3.00
   3  -2 -10  132.79    3.40
  -3   3  10   49.90    1.50
  -3   3  10   48.30    1.70
   3  -3 -10   48.70    2.00
  -3   4  10  236.38    4.80
  -3   4  10  242.68    5.10
   3  -4 -10  242.48    5.60
  -3   5  10   59.19    2.00
   3  -5 -10   61.99    2.50
  -3   6  10    4.40    0.70
   3  -6 -10    3.70    1.00
  -3   7  10   12.70    1.20
   3  -7 -10   10.40    1.40
  -2  -8  10   -0.30    0.70
   2   8 -10   -0.30    0.60
  -2  -7  10   28.10    1.80
   2   7 -10   29.90    1.60
  -2  -6  10   47.20    2.00
   2   6 -10   47.00    1.90
  -2  -5  10  218.78    5.00
   2   5 -10  216.78    4.80
  -2  -4  10    0.70    0.50
   2   4 -10    4.00    0.60
  -2  -3  10  155.18    3.70
   2   3 -10  160.78    3.60
  -2  -2  10   16.90    1.10
   2   2 -10   17.30    1.00
   2   2 -10   17.30    0.60
  -2  -1  10 1290.97   23.30
   2   1 -10 1339.17   23.30
   2   1 -10 1305.57   22.90
  -2   0  10  399.16    7.70
   2   0 -10  409.16    7.50
   2   0 -10  387.56    7.50
  -2   1  10 1298.37   23.00
   2  -1 -10 1302.57   23.10
   2  -1 -10 1290.17   22.90
  -2   2  10   18.20    1.00
  -2   2  10   18.50    1.00
   2  -2 -10   17.20    1.20
  -2   3  10  156.58    3.40
  -2   3  10  158.68    3.40
   2  -3 -10  158.18    3.90
  -2   4  10    2.20    0.50
  -2   4  10    0.90    0.50
   2  -4 -10    1.30    0.70
  -2   5  10  218.98    4.50
  -2   5  10  212.48    4.50
   2  -5 -10  211.38    5.20
  -2   6  10   48.80    1.70
   2  -6 -10   46.40    2.20
   2  -7 -10   28.90    1.90
   2  -8 -10   -1.10    0.90
  -1  -8  10    0.00    0.70
   1   8 -10    0.80    0.70
  -1  -7  10   24.50    1.60
   1   7 -10   19.80    1.40
  -1  -6  10    7.60    1.00
   1   6 -10    8.00    0.90
  -1  -5  10   96.89    2.80
   1   5 -10   95.99    2.70
  -1  -4  10  420.36    8.30
   1   4 -10  423.26    8.20
  -1  -3  10   82.39    2.40
   1   3 -10   86.89    2.30
  -1  -2  10  254.87    5.30
  -1  -2  10  259.57    4.70
   1   2 -10  261.67    4.70
   1   2 -10  255.77    5.20
  -1  -1  10    9.90    0.90
   1   1 -10   10.00    0.70
   1   1 -10    8.20    0.60
  -1   0  10    1.10    0.40
   1   0 -10    0.90    0.40
   1   0 -10    0.80    0.40
  -1   1  10    8.60    0.80
   1  -1 -10    8.60    0.70
   1  -1 -10    8.20    0.80
  -1   2  10  248.58    5.00
   1  -2 -10  246.48    5.20
   1  -2 -10  252.07    4.80
  -1   3  10   83.69    2.00
  -1   3  10   81.49    2.20
   1  -3 -10   84.59    2.50
  -1   4  10  421.86    8.00
  -1   4  10  414.76    7.70
   1  -4 -10  408.06    8.40
  -1   5  10   97.19    2.30
  -1   5  10   94.89    2.50
   1  -5 -10   96.29    3.00
  -1   6  10    7.30    0.70
  -1   6  10    8.00    0.70
   1  -6 -10   10.10    1.20
  -1   7  10   23.30    1.20
   1  -7 -10   21.90    1.70
   1  -8 -10   -0.10    0.80
   0  -8  10   -0.30    0.60
   0   8 -10   -0.20    0.60
   0  -7  10   38.60    1.80
   0   7 -10   36.50    1.70
   0  -6  10   64.09    2.20
   0   6 -10   61.69    2.10
   0  -5  10  288.87    6.10
   0   5 -10  291.67    6.00
   0  -4  10    2.10    0.50
   0   4 -10    2.10    0.50
   0  -3  10  214.68    3.90
   0  -3  10  210.78    4.60
   0   3 -10  211.48    4.40
   0  -2  10   30.60    1.30
   0  -2  10   25.90    1.00
   0   2 -10   26.90    0.90
   0   2 -10   26.10    1.10
   0  -1  10 1829.62   32.10
   0   1 -10 1828.12   33.00
   0   1 -10 1820.22   32.00
   0   0  10  583.34   11.00
   0   0 -10  610.94   10.90
   0   0 -10  600.14   10.80
   0   1  10 1781.92   31.50
   0  -1 -10 1794.62   31.90
   0  -1 -10 1795.62   32.00
   0   2  10   25.90    1.20
   0  -2 -10   26.10    1.20
   0  -2 -10   26.40    0.80
   0   3  10  210.68    4.40
   0  -3 -10  210.28    4.00
   0  -3 -10  210.28    4.70
   0   4  10    2.40    0.50
   0   4  10    2.50    0.40
   0  -4 -10    2.40    0.70
   0   5  10  283.97    5.80
   0  -5 -10  280.77    6.20
   0   6  10   62.29    2.00
   0  -6 -10   60.99    2.40
   0   7  10   38.30    1.70
   0  -7 -10   34.80    2.00
   0   8  10   -0.10    0.60
   0  -8 -10    0.40    0.80
   1  -8  10    1.50    0.70
  -1   8 -10    1.70    0.80
   1  -7  10   23.40    1.50
  -1   7 -10   21.40    1.40
   1  -6  10    8.30    0.90
  -1   6 -10    7.60    0.90
   1  -5  10   93.99    2.60
  -1   5 -10   92.99    2.60
   1  -4  10  415.46    8.20
   1  -4  10  422.96    7.70
  -1   4 -10  423.36    8.20
   1  -3  10   81.79    2.30
  -1   3 -10   82.59    2.20
   1  -2  10  252.17    5.20
  -1   2 -10  253.67    5.10
  -1   2 -10  260.27    5.00
   1  -1  10    9.20    0.90
  -1   1 -10    8.40    0.60
  -1   1 -10    9.20    0.70
   1   0  10    0.00    0.40
  -1   0 -10    0.60    0.30
  -1   0 -10    0.90    0.40
   1   1  10    9.20    0.90
  -1  -1 -10    9.20    0.50
  -1  -1 -10    8.10    0.80
   1   2  10  254.37    5.30
  -1  -2 -10  261.77    4.70
  -1  -2 -10  255.07    4.70
  -1  -2 -10  259.17    5.40
   1   3  10   80.49    2.20
  -1  -3 -10   82.69    1.60
  -1  -3 -10   81.69    2.40
   1   4  10  412.36    8.10
  -1  -4 -10  420.86    8.50
   1   5  10   92.59    2.60
  -1  -5 -10   90.69    2.80
   1   6  10    7.10    0.80
  -1  -6 -10    7.60    1.00
   1   7  10   25.20    1.50
  -1  -7 -10   22.90    1.70
   1   8  10    0.10    0.60
  -1  -8 -10    0.20    0.80
   2  -8  10   -0.10    0.60
  -2   8 -10    0.10    0.70
   2  -7  10   29.90    1.50
  -2   7 -10   28.10    1.60
   2  -6  10   46.90    1.80
  -2   6 -10   51.09    2.00
   2  -5  10  215.38    4.80
   2  -5  10  218.38    5.40
  -2   5 -10  221.18    4.90
   2  -4  10    1.60    0.50
   2  -4  10    1.20    0.50
  -2   4 -10    1.00    0.50
   2  -3  10  159.48    3.70
  -2   3 -10  162.88    3.60
   2  -2  10   18.40    1.10
  -2   2 -10   18.00    0.90
  -2   2 -10   18.20    1.00
   2  -1  10 1309.97   23.20
  -2   1 -10 1284.67   22.80
  -2   1 -10 1304.57   23.10
   2   0  10  404.46    7.90
  -2   0 -10  409.36    7.90
  -2   0 -10  408.26    7.40
   2   1  10 1319.97   23.40
  -2  -1 -10 1322.27   23.10
  -2  -1 -10 1300.17   23.50
   2   2  10   17.60    1.10
  -2  -2 -10   17.20    1.20
   2   3  10  155.18    3.70
  -2  -3 -10  161.58    3.90
   2   4  10    1.10    0.50
  -2  -4 -10    2.30    0.70
   2   5  10  216.08    4.90
  -2  -5 -10  217.48    5.20
   2   6  10   46.10    1.90
  -2  -6 -10   44.60    2.00
   2   7  10   30.70    1.70
  -2  -7 -10   27.10    1.80
   2   8  10    0.50    0.60
  -2  -8 -10   -0.20    0.80
  -3   7 -10   14.00    1.30
   3  -6  10    4.60    0.70
  -3   6 -10    4.50    0.80
   3  -5  10   63.39    2.00
   3  -5  10   60.79    2.00
  -3   5 -10   60.19    2.10
   3  -4  10  244.38    5.10
   3  -4  10  235.98    5.10
  -3   4 -10  241.08    5.10
   3  -3  10   46.90    1.70
   3  -3  10   49.80    1.70
  -3   3 -10   50.29    1.60
   3  -2  10  133.99    3.30
  -3   2 -10  136.09    3.00
  -3   2 -10  139.99    3.30
   3  -1  10    4.30    0.60
  -3   1 -10    5.00    0.50
  -3   1 -10    5.10    0.70
   3   0  10    0.40    0.50
  -3   0 -10    0.10    0.20
  -3   0 -10    1.10    0.60
   3   1  10    4.90    0.70
  -3  -1 -10    5.20    0.80
   3   2  10  136.69    3.30
  -3  -2 -10  137.49    3.50
   3   3  10   50.59    1.90
  -3  -3 -10   50.99    2.00
   3   4  10  245.38    5.30
  -3  -4 -10  236.48    5.50
   3   5  10   60.99    2.20
  -3  -5 -10   62.99    2.40
   3   6  10    3.00    0.80
  -3  -6 -10    4.60    1.00
   3   7  10   11.60    1.20
  -3  -7 -10   11.80    1.40
  -4   6 -10   23.30    1.50
   4  -5  10  100.79    2.90
   4  -5  10   97.49    2.70
  -4   5 -10   97.79    2.80
   4  -4  10    0.40    0.60
   4  -4  10    0.10    0.50
  -4   4 -10    0.20    0.50
   4  -3  10   70.79    2.20
   4  -3  10   70.09    2.30
  -4   3 -10   75.19    2.10
   4  -2  10    5.70    0.70
  -4   2 -10    6.60    0.90
  -4   2 -10    6.70    0.70
   4  -1  10  547.75   10.40
  -4   1 -10  544.25   10.00
  -4   1 -10  543.05   10.60
   4   0  10  151.38    3.60
  -4   0 -10  148.19    3.80
   4   1  10  552.14   10.40
  -4  -1 -10  527.25   10.60
   4   2  10    5.60    0.80
  -4  -2 -10    7.40    1.00
   4   3  10   72.49    2.30
  -4  -3 -10   67.49    2.50
   4   4  10    0.40    0.60
  -4  -4 -10    0.90    0.80
   4   5  10   99.69    3.00
  -4  -5 -10   99.29    3.30
   4   6  10   23.70    1.70
  -4  -6 -10   21.00    1.70
   5  -5  10   28.70    1.70
  -5   5 -10   24.80    1.50
   5  -4  10   87.09    2.90
  -5   4 -10   91.59    2.60
   5  -3  10   20.30    1.20
   5  -3  10   19.60    1.50
  -5   3 -10   19.60    1.10
   5  -2  10   50.79    1.90
  -5   2 -10   46.10    1.60
   5  -1  10    1.90    0.70
  -5   1 -10    4.70    0.90
   5   0  10   -0.10    0.60
  -5   0 -10    0.80    0.70
   5   1  10    3.30    0.80
  -5  -1 -10    2.90    0.90
   5   2  10   49.70    2.10
  -5  -2 -10   51.19    2.20
   5   3  10   19.20    1.50
  -5  -3 -10   20.50    1.60
   5   4  10   91.29    3.00
  -5  -4 -10   91.89    3.20
   5   5  10   29.40    1.80
  -5  -5 -10   24.70    1.90
   6  -4  10   -0.10    0.80
  -6   4 -10    0.20    0.60
   6  -3  10   18.70    1.60
   6  -2  10    1.80    0.90
   6  -2  10    1.90    0.70
   6  -1  10  153.68    3.80
  -6   1 -10  154.68    4.30
   6   0  10   38.90    1.80
  -6   0 -10   41.40    2.10
   6   1  10  161.58    4.00
  -6  -1 -10  152.88    4.30
   6   2  10    2.30    0.80
  -6  -2 -10    3.30    1.00
   6   3  10   21.30    1.60
  -6  -3 -10   21.60    1.80
   6   4  10   -0.60    0.70
  -6  -4 -10    0.20    0.80
   7   0  10    0.20    0.70
  -6  -3  11   21.30    1.60
   6   3 -11   20.30    1.60
  -6  -2  11    3.50    0.80
   6   2 -11    3.30    0.90
   6   1 -11   11.80    1.20
   6   0 -11    0.20    0.60
  -6   1  11   10.70    1.20
   6  -1 -11   11.70    1.30
  -6   2  11    2.00    0.90
   6  -2 -11    2.80    1.00
  -6   3  11   17.10    1.60
   6  -3 -11   18.60    1.70
  -5  -5  11   24.60    1.80
   5   5 -11   26.40    1.70
  -5  -4  11   10.10    1.10
   5   4 -11    9.90    1.10
  -5  -3  11   29.80    1.70
   5   3 -11   25.60    1.50
  -5  -2  11   89.19    2.70
   5   2 -11   90.29    2.80
  -5  -1  11   53.99    2.00
   5   1 -11   55.39    2.10
  -5   0  11  172.08    4.00
   5   0 -11  173.18    4.20
   5   0 -11  174.58    4.30
  -5   1  11   58.79    2.20
   5  -1 -11   55.89    2.20
  -5   2  11   89.19    2.80
   5  -2 -11   90.99    3.00
  -5   3  11   25.60    1.60
   5  -3 -11   26.90    1.80
  -5   4  11    9.30    1.10
   5  -4 -11    9.60    1.30
  -5   5  11   20.70    1.50
   5  -5 -11   22.20    1.90
  -4  -6  11    0.90    0.80
   4   6 -11    1.20    0.80
  -4  -5  11   -0.10    0.60
   4   5 -11    1.00    0.70
  -4  -4  11   25.00    1.60
   4   4 -11   25.00    1.40
  -4  -3  11   71.79    2.40
   4   3 -11   73.09    2.30
  -4  -2  11    6.90    0.80
   4   2 -11    6.50    0.90
  -4  -1  11   26.80    1.40
   4   1 -11   27.90    1.40
  -4   0  11    0.10    0.50
   4   0 -11    0.90    0.60
   4   0 -11    0.70    0.50
  -4   1  11   28.80    1.20
   4  -1 -11   25.40    1.50
  -4   2  11    7.10    0.70
  -4   2  11    6.30    0.80
   4  -2 -11    5.50    1.00
  -4   3  11   70.39    2.30
   4  -3 -11   70.89    2.60
  -4   4  11   28.10    1.50
   4  -4 -11   25.00    1.80
  -4   5  11    0.00    0.60
   4  -5 -11    1.70    1.00
  -4   6  11    1.30    0.70
   4  -6 -11    0.80    0.90
  -3  -7  11    0.50    0.80
   3   7 -11    0.20    0.70
  -3  -6  11    2.70    0.80
   3   6 -11    3.00    0.80
  -3  -5  11   60.59    2.30
   3   5 -11   64.59    2.20
  -3  -4  11   35.50    1.70
   3   4 -11   36.60    1.60
  -3  -3  11   79.19    2.40
   3   3 -11   78.59    2.30
  -3  -2  11  266.37    5.60
   3   2 -11  256.77    5.50
  -3  -1  11  177.78    4.00
   3   1 -11  175.78    4.00
   3   1 -11  175.58    3.60
  -3   0  11  475.15    9.00
   3   0 -11  475.75    8.90
   3   0 -11  463.35    9.00
  -3   1  11  175.68    3.80
   3  -1 -11  172.78    3.90
   3  -1 -11  175.78    4.00
  -3   2  11  261.97    5.40
  -3   2  11  250.47    5.20
   3  -2 -11  259.27    5.60
  -3   3  11   78.99    2.30
  -3   3  11   79.29    2.10
   3  -3 -11   79.99    2.60
  -3   4  11   35.70    1.50
  -3   4  11   35.90    1.50
   3  -4 -11   35.70    1.90
  -3   5  11   65.99    2.20
   3  -5 -11   64.39    2.60
  -3   6  11    1.90    0.70
   3  -6 -11    0.90    0.90
   3  -7 -11    0.20    0.90
  -2  -7  11   17.80    1.50
   2   7 -11   18.20    1.40
  -2  -6  11    3.90    0.80
   2   6 -11    3.50    0.80
  -2  -5  11    1.30    0.70
   2   5 -11    1.10    0.60
  -2  -4  11   58.09    2.10
   2   4 -11   58.29    2.00
  -2  -3  11  171.18    4.00
   2   3 -11  173.68    3.90
  -2  -2  11   12.40    1.10
   2   2 -11   12.00    0.90
  -2  -1  11   44.80    1.60
   2   1 -11   47.70    1.30
   2   1 -11   48.30    1.60
  -2   0  11    0.40    0.40
   2   0 -11    0.50    0.40
   2   0 -11    0.90    0.40
  -2   1  11   48.80    1.60
   2  -1 -11   48.80    1.70
   2  -1 -11   48.70    1.50
  -2   2  11   12.10    0.90
   2  -2 -11   11.00    1.00
  -2   3  11  174.08    3.80
  -2   3  11  172.88    3.80
   2  -3 -11  176.48    4.20
  -2   4  11   56.69    1.80
  -2   4  11   55.29    1.70
   2  -4 -11   58.79    2.20
  -2   5  11    0.90    0.50
  -2   5  11    1.80    0.50
   2  -5 -11    2.40    0.90
  -2   6  11    4.00    0.70
   2  -6 -11    3.80    1.00
   2  -7 -11   15.50    1.70
  -1  -7  11    0.60    0.70
   1   7 -11    0.50    0.70
  -1  -6  11    2.90    0.80
   1   6 -11    4.80    0.80
  -1  -5  11  104.39    3.00
   1   5 -11  102.29    2.80
  -1  -4  11   71.09    2.20
   1   4 -11   69.19    2.10
  -1  -3  11  136.79    3.30
   1   3 -11  132.69    3.20
  -1  -2  11  486.25    9.50
   1   2 -11  503.05    9.40
   1   2 -11  507.45    8.90
  -1  -1  11  332.07    6.70
   1   1 -11  336.97    6.50
   1   1 -11  341.57    6.30
  -1   0  11  845.72   15.50
   1   0 -11  859.51   15.30
   1   0 -11  850.31   15.30
  -1   1  11  329.67    6.50
   1  -1 -11  325.87    6.30
   1  -1 -11  336.47    6.50
  -1   2  11  491.85    9.30
   1  -2 -11  491.95    9.50
   1  -2 -11  498.25    9.10
  -1   3  11  132.09    2.90
  -1   3  11  135.29    3.10
   1  -3 -11  134.39    3.40
  -1   4  11   68.79    1.80
  -1   4  11   70.89    2.00
   1  -4 -11   67.79    2.30
  -1   5  11  103.09    2.50
  -1   5  11  107.39    2.70
   1  -5 -11  101.89    3.10
  -1   6  11    3.00    0.60
   1  -6 -11    3.80    0.90
   1  -7 -11    1.80    0.90
   0  -8  11    1.90    0.80
   0  -7  11   22.10    1.50
   0   7 -11   24.00    1.50
   0  -6  11    5.20    0.90
   0   6 -11    4.40    0.80
   0  -5  11    1.80    0.70
   0   5 -11    2.20    0.60
   0  -4  11   76.29    2.40
   0   4 -11   78.49    2.20
   0  -3  11  237.38    5.10
   0   3 -11  238.78    5.00
   0  -2  11   12.80    1.00
   0   2 -11   12.20    0.90
   0   2 -11   13.20    0.70
   0  -1  11   57.59    1.90
   0   1 -11   58.39    1.60
   0   1 -11   58.89    1.70
   0   0  11    1.20    0.50
   0   0 -11    1.50    0.50
   0   0 -11    1.30    0.40
   0   1  11   56.59    1.80
   0  -1 -11   58.59    1.80
   0  -1 -11   55.69    1.50
   0   2  11   14.60    1.00
   0  -2 -11   13.10    0.70
   0  -2 -11   13.40    1.00
   0   3  11  241.68    5.10
   0  -3 -11  243.58    4.60
   0  -3 -11  237.38    5.30
   0   4  11   76.89    2.20
   0  -4 -11   77.19    2.50
   0   5  11    2.90    0.60
   0  -5 -11    2.90    0.80
   0   6  11    4.80    0.70
   0  -6 -11    7.60    1.10
   0   7  11   23.70    1.40
   0  -7 -11   22.40    1.70
   0   8  11    2.40    0.70
   1  -7  11    1.00    0.70
  -1   7 -11    2.10    0.80
   1  -6  11    3.00    0.70
  -1   6 -11    4.00    0.80
   1  -5  11  104.39    2.90
  -1   5 -11  103.29    2.80
   1  -4  11   72.29    2.20
  -1   4 -11   72.49    2.10
   1  -3  11  139.99    3.40
  -1   3 -11  136.39    3.00
  -1   3 -11  142.09    3.20
   1  -2  11  476.55    9.40
  -1   2 -11  504.45    9.10
  -1   2 -11  495.15    9.20
   1  -1  11  340.47    6.80
  -1   1 -11  339.67    6.50
  -1   1 -11  342.27    6.60
   1   0  11  835.32   15.50
  -1   0 -11  865.11   15.50
  -1   0 -11  858.01   15.10
   1   1  11  336.17    6.70
  -1  -1 -11  330.17    6.70
  -1  -1 -11  337.77    6.20
   1   2  11  494.15    9.50
  -1  -2 -11  498.95    8.90
  -1  -2 -11  500.85    9.60
   1   3  11  136.59    3.40
  -1  -3 -11  143.89    3.60
   1   4  11   69.49    2.20
  -1  -4 -11   69.49    2.40
   1   5  11  101.99    2.80
  -1  -5 -11  108.09    3.20
   1   6  11    3.70    0.70
  -1  -6 -11    3.50    0.90
   1   7  11    1.50    0.70
  -1  -7 -11    1.60    0.80
   2  -7  11   21.50    1.40
  -2   7 -11   19.00    1.40
   2  -6  11    4.80    0.80
  -2   6 -11    3.60    0.80
   2  -5  11    1.60    0.60
  -2   5 -11    1.40    0.60
   2  -4  11   57.59    1.90
   2  -4  11   55.99    1.70
  -2   4 -11   56.29    1.90
   2  -3  11  176.38    4.00
  -2   3 -11  176.68    3.90
   2  -2  11   11.70    1.10
  -2   2 -11   12.50    0.90
  -2   2 -11   11.10    0.80
   2  -1  11   47.60    1.70
  -2   1 -11   49.20    1.40
  -2   1 -11   49.40    1.70
   2   0  11    0.30    0.50
  -2   0 -11    0.20    0.50
  -2   0 -11    1.70    0.30
   2   1  11   47.00    1.70
  -2  -1 -11   52.19    1.20
  -2  -1 -11   47.30    1.70
   2   2  11   12.20    1.10
  -2  -2 -11   11.90    1.10
   2   3  11  174.98    4.10
  -2  -3 -11  174.28    4.20
   2   4  11   55.39    2.00
  -2  -4 -11   54.49    2.10
   2   5  11    1.90    0.70
  -2  -5 -11    0.00    0.70
   2   6  11    3.70    0.80
  -2  -6 -11    8.30    1.20
   2   7  11   16.60    1.50
  -2  -7 -11   17.90    1.60
  -3   7 -11    0.20    0.70
   3  -6  11    1.80    0.70
  -3   6 -11    1.50    0.70
   3  -5  11   62.69    2.10
  -3   5 -11   61.09    2.20
   3  -4  11   35.10    1.50
   3  -4  11   37.40    1.60
  -3   4 -11   38.00    1.60
   3  -3  11   78.99    2.30
  -3   3 -11   77.99    2.20
   3  -2  11  265.47    5.60
  -3   2 -11  268.47    5.60
  -3   2 -11  268.37    5.40
   3  -1  11  175.68    4.10
  -3   1 -11  182.68    4.10
  -3   1 -11  177.88    3.70
   3   0  11  488.05    9.40
  -3   0 -11  488.55    8.70
  -3   0 -11  475.55    9.40
   3   1  11  177.28    4.10
  -3  -1 -11  177.18    4.20
   3   2  11  273.57    5.80
  -3  -2 -11  267.07    5.90
   3   3  11   76.59    2.40
  -3  -3 -11   77.19    2.60
   3   4  11   38.10    1.80
  -3  -4 -11   39.70    1.90
   3   5  11   66.29    2.40
  -3  -5 -11   61.19    2.50
   3   6  11    3.30    0.80
  -3  -6 -11    1.20    0.90
   3   7  11    0.90    0.70
  -3  -7 -11    1.70    0.90
  -4   6 -11    0.70    0.70
   4  -5  11    0.60    0.60
   4  -5  11    0.40    0.60
  -4   5 -11    0.30    0.60
   4  -4  11   25.80    1.50
   4  -4  11   25.50    1.40
  -4   4 -11   26.20    1.40
   4  -3  11   72.09    2.30
   4  -3  11   71.59    2.40
  -4   3 -11   72.89    2.10
   4  -2  11    5.90    0.80
  -4   2 -11    7.00    0.70
  -4   2 -11    7.90    1.00
   4  -1  11   26.20    1.40
  -4   1 -11   26.40    1.00
  -4   1 -11   26.10    1.50
   4   0  11   -0.70    0.50
  -4   0 -11   -0.20    0.60
   4   1  11   28.20    1.50
  -4  -1 -11   26.90    1.60
   4   2  11    5.80    0.90
  -4  -2 -11    8.30    1.10
   4   3  11   76.29    2.50
  -4  -3 -11   71.59    2.60
   4   4  11   25.40    1.60
  -4  -4 -11   26.60    1.60
   4   5  11   -0.40    0.70
  -4  -5 -11   -1.20    0.70
   4   6  11    0.80    0.80
  -4  -6 -11    1.30    0.90
   5  -5  11   22.60    1.50
  -5   5 -11   22.10    1.50
   5  -4  11   13.40    1.40
  -5   4 -11    9.30    1.00
   5  -3  11   27.00    1.50
   5  -3  11   27.20    1.70
  -5   3 -11   27.40    1.40
   5  -2  11   91.19    2.70
  -5   2 -11   92.19    3.00
   5  -1  11   57.39    2.10
  -5   1 -11   56.19    2.30
   5   0  11  175.28    4.20
  -5   0 -11  170.68    4.40
   5   1  11   58.89    2.20
  -5  -1 -11   55.69    2.30
   5   2  11   91.19    2.80
  -5  -2 -11   87.59    3.00
   5   3  11   27.20    1.70
  -5  -3 -11   28.10    1.80
   5   4  11   10.40    1.20
  -5  -4 -11   12.50    1.50
   5   5  11   23.00    1.70
  -5  -5 -11   25.20    1.90
   6  -3  11   18.00    1.60
   6  -2  11    3.40    1.00
   6  -2  11    2.70    0.80
   6  -1  11   11.00    1.10
  -6   1 -11   10.10    1.30
   6   0  11    0.20    0.70
  -6   0 -11   -0.70    0.80
   6   1  11   14.50    1.50
  -6  -1 -11   12.70    1.40
   6   2  11    3.80    0.90
  -6  -2 -11    2.40    1.00
   6   3  11   19.00    1.70
  -6  -3 -11   18.00    1.70
  -6  -2  12   16.30    1.50
   6   2 -12   18.80    1.50
   6   1 -12   -0.10    0.60
   6   0 -12    1.90    0.80
   6  -1 -12    1.30    0.70
  -6   2  12   15.00    1.40
   6  -2 -12   17.50    1.70
  -5  -4  12   10.90    1.20
   5   4 -12   10.50    1.10
  -5  -3  12    2.50    0.80
   5   3 -12    2.30    0.80
  -5  -2  12  171.78    4.30
   5   2 -12  171.58    4.30
  -5  -1  12   16.30    1.30
   5   1 -12   15.40    1.30
  -5   0  12   -0.50    0.50
   5   0 -12   -0.40    0.60
   5  -1 -12   18.10    1.30
   5  -1 -12   16.60    1.40
  -5   2  12  167.68    4.20
   5  -2 -12  163.08    4.30
  -5   3  12    1.30    0.80
   5  -3 -12    2.50    1.00
  -5   4  12   11.50    1.20
   5  -4 -12   11.60    1.50
  -4  -5  12   50.89    2.20
   4   5 -12   51.59    2.10
  -4  -4  12    9.90    1.20
   4   4 -12   11.60    1.10
  -4  -3  12   49.70    2.00
   4   3 -12   49.20    1.90
  -4  -2  12   56.29    2.10
   4   2 -12   59.19    2.10
  -4  -1  12    1.50    0.60
   4   1 -12    0.00    0.60
  -4   0  12   10.30    0.90
   4   0 -12   10.20    1.00
   4   0 -12   10.00    1.00
  -4   1  12    0.00    0.40
   4  -1 -12    0.80    0.50
   4  -1 -12   -0.20    0.60
  -4   2  12   56.69    1.80
  -4   2  12   57.89    2.10
   4  -2 -12   55.59    2.20
  -4   3  12   46.40    1.90
   4  -3 -12   48.40    2.10
  -4   4  12    8.50    1.00
   4  -4 -12    9.20    1.30
  -4   5  12   53.49    2.10
   4  -5 -12   52.79    2.50
  -3  -6  12   20.30    1.60
   3   6 -12   19.20    1.50
  -3  -5  12   23.30    1.60
   3   5 -12   21.10    1.30
  -3  -4  12   23.50    1.50
   3   4 -12   21.50    1.40
  -3  -3  12    2.70    0.70
   3   3 -12    3.20    0.70
  -3  -2  12  441.26    8.70
   3   2 -12  436.56    8.60
  -3  -1  12   38.70    1.60
   3   1 -12   38.80    1.60
  -3   0  12    0.10    0.40
   3   0 -12    0.10    0.40
   3   0 -12    0.60    0.40
  -3   1  12   37.00    1.50
   3  -1 -12   37.60    1.50
   3  -1 -12   37.50    1.60
  -3   2  12  435.36    8.50
   3  -2 -12  449.66    8.90
  -3   3  12    2.20    0.50
  -3   3  12    3.10    0.70
   3  -3 -12    3.70    0.90
  -3   4  12   23.40    1.30
   3  -4 -12   22.50    1.70
  -3   5  12   20.10    1.30
   3  -5 -12   19.60    1.70
  -3   6  12   20.50    1.40
   3  -6 -12   19.20    1.80
  -2  -7  12    6.50    1.00
   2   7 -12    3.30    0.80
  -2  -6  12    6.10    1.00
   2   6 -12    7.80    1.00
  -2  -5  12  106.19    3.10
   2   5 -12  103.99    2.90
  -2  -4  12   21.40    1.40
   2   4 -12   21.70    1.30
  -2  -3  12  113.49    3.10
   2   3 -12  111.89    2.90
  -2  -2  12  127.39    3.30
   2   2 -12  128.29    3.10
  -2  -1  12    0.00    0.50
   2   1 -12   -0.10    0.30
   2   1 -12    0.20    0.50
  -2   0  12   27.60    1.30
   2   0 -12   29.10    1.20
   2   0 -12   30.00    1.20
  -2   1  12    0.20    0.40
   2  -1 -12    0.60    0.50
   2  -1 -12    1.10    0.40
  -2   2  12  124.89    3.10
   2  -2 -12  125.99    3.20
   2  -2 -12  124.39    2.90
  -2   3  12  111.39    2.80
  -2   3  12  110.89    2.70
   2  -3 -12  107.69    3.10
  -2   4  12   22.80    1.20
  -2   4  12   22.40    1.10
   2  -4 -12   25.10    1.60
  -2   5  12  105.29    2.70
  -2   5  12  106.89    2.70
   2  -5 -12  106.29    3.30
   2  -6 -12    5.80    1.10
   2  -7 -12    4.50    1.20
  -1  -7  12   19.30    1.50
   1   7 -12   18.20    1.40
  -1  -6  12   34.30    1.80
   1   6 -12   35.30    1.70
  -1  -5  12   38.10    1.80
   1   5 -12   36.20    1.60
  -1  -4  12   36.00    1.60
   1   4 -12   33.30    1.40
  -1  -3  12    3.00    0.70
   1   3 -12    3.50    0.60
  -1  -2  12  768.22   14.30
   1   2 -12  768.12   14.10
  -1  -1  12   63.29    2.00
   1   1 -12   67.79    1.70
   1   1 -12   64.79    1.90
  -1   0  12   -0.50    0.40
   1   0 -12    0.20    0.30
   1   0 -12    0.50    0.40
  -1   1  12   68.59    2.00
   1  -1 -12   65.69    1.80
   1  -1 -12   66.99    2.00
  -1   2  12  763.52   14.10
   1  -2 -12  780.02   13.80
   1  -2 -12  758.92   14.30
  -1   3  12    2.20    0.50
   1  -3 -12    2.30    0.70
   1  -3 -12    3.20    0.40
  -1   4  12   34.50    1.30
  -1   4  12   33.80    1.40
   1  -4 -12   33.70    1.70
  -1   5  12   35.70    1.50
   1  -5 -12   34.70    1.90
  -1   6  12   33.30    1.50
   1  -6 -12   32.50    1.90
   1  -7 -12   18.20    1.70
   0  -7  12    5.00    0.90
   0   7 -12    5.70    0.90
   0  -6  12    9.10    1.00
   0   6 -12   12.10    1.20
   0  -5  12  144.99    3.70
   0   5 -12  137.39    3.50
   0  -4  12   30.40    1.50
   0   4 -12   28.50    1.30
   0  -3  12  150.98    3.70
   0   3 -12  157.18    3.60
   0  -2  12  168.98    4.00
   0   2 -12  170.18    3.70
   0   2 -12  169.78    3.50
   0  -1  12    1.40    0.50
   0   1 -12    0.20    0.40
   0   1 -12    0.20    0.40
   0   0  12   40.90    1.60
   0   0 -12   41.30    1.40
   0   0 -12   41.60    1.30
   0   1  12    0.30    0.40
   0  -1 -12    1.30    0.50
   0  -1 -12    0.70    0.30
   0   2  12  168.18    3.80
   0  -2 -12  167.28    3.40
   0  -2 -12  168.88    4.00
   0   3  12  154.28    3.60
   0  -3 -12  154.98    3.10
   0  -3 -12  149.49    3.80
   0   4  12   30.00    1.40
   0  -4 -12   29.80    1.50
   0   5  12  140.29    3.50
   0  -5 -12  137.39    3.80
   0   6  12   10.30    1.00
   0  -6 -12    9.50    1.20
   0   7  12    4.00    0.80
   0  -7 -12    5.10    1.00
   1  -7  12   21.50    1.50
  -1   7 -12   19.90    1.40
   1  -6  12   35.40    1.70
  -1   6 -12   34.60    1.70
   1  -5  12   36.20    1.70
  -1   5 -12   37.80    1.60
   1  -4  12   37.40    1.60
  -1   4 -12   36.30    1.50
   1  -3  12    3.80    0.70
  -1   3 -12    3.50    0.50
  -1   3 -12    3.80    0.60
   1  -2  12  777.22   14.50
  -1   2 -12  773.02   14.20
  -1   2 -12  788.92   14.10
   1  -1  12   62.99    2.10
  -1   1 -12   66.59    1.90
  -1   1 -12   66.19    1.80
   1   0  12    0.00    0.40
  -1   0 -12    0.60    0.40
  -1   0 -12    0.50    0.30
   1   1  12   65.99    2.10
  -1  -1 -12   64.99    2.00
  -1  -1 -12   65.49    1.60
   1   2  12  769.52   14.30
  -1  -2 -12  773.92   14.40
   1   3  12    3.20    0.70
  -1  -3 -12    3.80    0.70
   1   4  12   36.40    1.60
  -1  -4 -12   35.50    1.70
   1   5  12   37.20    1.70
  -1  -5 -12   36.60    1.80
   1   6  12   34.70    1.70
  -1  -6 -12   34.50    1.90
   1   7  12   19.80    1.50
  -1  -7 -12   18.80    1.70
   2  -7  12    4.80    0.90
  -2   7 -12    5.60    1.00
   2  -6  12    6.50    0.90
  -2   6 -12    7.40    1.00
   2  -5  12  109.89    3.00
  -2   5 -12  109.49    3.00
   2  -4  12   22.50    1.30
  -2   4 -12   23.20    1.30
   2  -3  12  112.09    3.00
  -2   3 -12  115.79    2.90
  -2   3 -12  117.19    2.80
   2  -2  12  133.09    3.30
  -2   2 -12  129.49    3.10
  -2   2 -12  125.49    3.00
   2  -1  12   -0.20    0.50
  -2   1 -12   -0.20    0.30
  -2   1 -12    1.40    0.50
   2   0  12   28.70    1.40
  -2   0 -12   29.80    1.00
  -2   0 -12   29.80    1.40
   2   1  12    0.00    0.50
  -2  -1 -12   -0.40    0.50
   2   2  12  130.29    3.30
  -2  -2 -12  124.89    3.30
   2   3  12  114.59    3.10
  -2  -3 -12  115.79    3.30
   2   4  12   21.90    1.40
  -2  -4 -12   21.50    1.50
   2   5  12  110.99    3.10
  -2  -5 -12  100.19    3.20
   2   6  12    7.10    1.00
  -2  -6 -12    6.90    1.10
   2   7  12    4.60    0.90
  -2  -7 -12    4.20    1.10
   3  -6  12   19.80    1.40
  -3   6 -12   17.40    1.40
   3  -5  12   21.20    1.40
  -3   5 -12   20.10    1.40
   3  -4  12   21.80    1.40
   3  -4  12   23.10    1.30
  -3   4 -12   22.10    1.30
   3  -3  12    2.30    0.70
  -3   3 -12    2.50    0.60
   3  -2  12  446.86    8.90
  -3   2 -12  451.85    8.90
  -3   2 -12  454.35    8.60
   3  -1  12   40.30    1.70
  -3   1 -12   38.80    1.30
  -3   1 -12   37.20    1.60
   3   0  12    0.30    0.60
  -3   0 -12    0.90    0.60
   3   1  12   40.30    1.70
  -3  -1 -12   40.90    1.80
   3   2  12  449.86    8.90
  -3  -2 -12  446.36    9.10
   3   3  12    3.10    0.70
  -3  -3 -12    2.50    0.80
   3   4  12   25.40    1.50
  -3  -4 -12   24.50    1.60
   3   5  12   21.00    1.50
  -3  -5 -12   20.70    1.50
   3   6  12   19.80    1.60
  -3  -6 -12   20.10    1.70
   4  -5  12   51.79    2.00
  -4   5 -12   49.70    2.00
   4  -4  12    7.50    0.90
   4  -4  12    9.20    1.00
  -4   4 -12    8.30    0.90
   4  -3  12   49.70    1.90
   4  -3  12   46.20    1.90
  -4   3 -12   45.70    1.70
   4  -2  12   60.49    2.10
  -4   2 -12   60.69    2.20
  -4   2 -12   54.29    1.80
   4  -1  12    1.00    0.60
  -4   1 -12    0.40    0.60
   4   0  12    9.00    1.00
  -4   0 -12    9.50    1.10
   4   1  12    0.70    0.60
  -4  -1 -12    0.10    0.60
   4   2  12   58.59    2.20
  -4  -2 -12   56.79    2.30
   4   3  12   47.30    2.10
  -4  -3 -12   49.50    2.20
   4   4  12   10.00    1.10
  -4  -4 -12    8.20    1.10
   4   5  12   52.69    2.30
  -4  -5 -12   50.99    2.40
   5  -4  12   11.60    1.20
  -5   4 -12   10.50    1.00
   5  -3  12    1.30    0.70
   5  -3  12    2.00    0.80
   5  -2  12  177.68    4.30
  -5   2 -12  171.58    4.50
   5  -1  12   15.20    1.40
  -5   1 -12   15.60    1.40
   5   0  12    0.20    0.70
  -5   0 -12   -0.10    0.70
   5   1  12   18.60    1.50
  -5  -1 -12   14.40    1.40
   5   2  12  167.28    4.30
  -5  -2 -12  171.58    4.60
   5   3  12    3.10    0.80
  -5  -3 -12    2.30    0.90
   5   4  12    9.60    1.20
  -5  -4 -12   10.00    1.40
   6  -2  12   14.60    1.50
   6  -2  12   16.90    1.60
   6  -1  12    0.00    0.70
  -6   1 -12    0.50    0.90
   6   0  12    0.70    0.70
  -6   0 -12    1.60    0.90
   6   1  12    0.30    0.70
  -6  -1 -12    0.00    0.80
   6   2  12   20.70    1.70
  -6  -2 -12   16.70    1.70
  -5  -3  13   15.10    1.40
   5   3 -13   12.70    1.20
  -5  -2  13   32.80    1.80
   5   2 -13   31.40    1.70
  -5  -1  13   27.50    1.60
   5   1 -13   29.00    1.60
  -5   0  13    0.20    0.50
   5   0 -13    0.80    0.60
   5  -1 -13   30.90    1.60
   5  -2 -13   29.00    1.80
  -5   3  13   13.00    1.30
   5  -3 -13   14.20    1.50
  -4  -5  13    5.50    1.00
   4   5 -13    9.60    1.20
  -4  -4  13    4.00    0.90
   4   4 -13    4.50    0.90
  -4  -3  13    0.90    0.70
   4   3 -13    1.00    0.60
  -4  -2  13   30.90    1.70
   4   2 -13   29.70    1.60
  -4  -1  13    7.00    0.90
   4   1 -13    7.70    0.90
  -4   0  13   -0.40    0.50
   4   0 -13    0.60    0.60
  -4   1  13    7.20    0.80
   4  -1 -13    7.40    0.90
   4  -1 -13    7.10    1.00
   4  -2 -13   29.00    1.40
   4  -2 -13   27.10    1.60
  -4   3  13    0.60    0.70
   4  -3 -13    1.70    0.90
  -4   4  13    3.30    0.80
   4  -4 -13    3.20    1.00
  -4   5  13    7.30    1.00
   4  -5 -13    4.90    1.20
  -3  -6  13    3.90    0.90
   3   6 -13    1.80    0.80
  -3  -5  13    3.90    0.90
   3   5 -13    5.20    0.80
  -3  -4  13   89.39    2.90
   3   4 -13   87.09    2.70
  -3  -3  13   36.30    1.70
   3   3 -13   35.30    1.60
  -3  -2  13  107.89    3.00
   3   2 -13  107.69    2.90
  -3  -1  13   90.19    2.60
   3   1 -13   90.29    2.60
  -3   0  13    4.40    0.70
   3   0 -13    4.00    0.60
   3   0 -13    4.90    0.70
  -3   1  13   88.79    2.50
   3  -1 -13   86.39    2.50
   3  -1 -13   90.09    2.50
  -3   2  13  108.09    2.90
   3  -2 -13  111.29    3.10
   3  -2 -13  110.89    2.90
  -3   3  13   34.30    1.50
  -3   3  13   34.00    1.40
   3  -3 -13   35.00    1.80
  -3   4  13   90.09    2.60
   3  -4 -13   86.29    3.00
  -3   5  13    7.10    0.90
   3  -5 -13    7.00    1.20
   3  -6 -13    1.30    1.00
  -2  -6  13   12.50    1.30
   2   6 -13    9.30    1.00
  -2  -5  13    8.00    1.10
   2   5 -13    9.40    1.00
  -2  -4  13   12.70    1.30
   2   4 -13   12.10    1.10
  -2  -3  13    1.20    0.60
   2   3 -13    0.40    0.50
  -2  -2  13   51.59    2.00
   2   2 -13   52.69    1.80
  -2  -1  13    5.70    0.80
   2   1 -13    6.40    0.70
  -2   0  13    0.00    0.50
   2   0 -13    0.00    0.40
   2   0 -13   -0.60    0.40
  -2   1  13    7.80    0.80
   2  -1 -13    6.70    0.70
   2  -1 -13    6.80    0.80
  -2   2  13   52.89    1.80
   2  -2 -13   50.09    1.90
   2  -2 -13   52.29    1.70
  -2   3  13    0.90    0.50
   2  -3 -13    1.20    0.70
   2  -3 -13    1.00    0.40
  -2   4  13   12.90    1.00
  -2   4  13   12.90    1.00
   2  -4 -13   12.90    1.30
  -2   5  13    9.90    1.00
   2  -5 -13   11.50    1.30
   2  -6 -13   12.80    1.40
  -1  -6  13    4.60    0.90
   1   6 -13    3.40    0.70
  -1  -5  13   11.00    1.10
   1   5 -13   10.70    1.00
  -1  -4  13  158.98    4.00
   1   4 -13  160.38    3.90
  -1  -3  13   57.09    2.10
   1   3 -13   57.29    1.90
  -1  -2  13  210.38    4.80
   1   2 -13  209.08    4.50
  -1  -1  13  168.98    4.00
   1   1 -13  168.48    3.50
   1   1 -13  166.88    3.70
  -1   0  13   10.10    1.00
   1   0 -13   16.10    0.90
   1   0 -13   13.10    0.90
  -1   1  13  165.68    3.90
   1  -1 -13  167.58    3.60
   1  -1 -13  165.48    3.80
  -1   2  13  207.18    4.60
   1  -2 -13  210.88    4.70
   1  -2 -13  212.18    4.30
  -1   3  13   57.19    2.00
   1  -3 -13   57.89    2.10
   1  -3 -13   58.79    1.60
  -1   4  13  154.18    3.70
   1  -4 -13  155.48    4.10
  -1   5  13   10.20    1.00
   1  -5 -13   13.00    1.30
  -1   6  13    3.80    0.70
   1  -6 -13    4.20    1.00
   0  -7  13    1.00    0.80
   0   7 -13    0.70    0.60
   0  -6  13   19.00    1.50
   0   6 -13   17.40    1.30
   0  -5  13   12.40    1.20
   0   5 -13   14.50    1.20
   0  -4  13   19.00    1.40
   0   4 -13   17.30    1.20
   0  -3  13    1.00    0.60
   0   3 -13    0.60    0.50
   0  -2  13   64.59    2.20
   0   2 -13   64.99    1.70
   0   2 -13   65.29    1.90
   0  -1  13    7.10    0.80
   0   1 -13    7.50    0.70
   0   1 -13    6.50    0.70
   0   0  13   -0.50    0.50
   0   0 -13   -0.40    0.40
   0   0 -13    0.00    0.30
   0   1  13    8.20    0.80
   0  -1 -13    9.30    0.90
   0  -1 -13    7.00    0.60
   0   2  13   62.89    2.10
   0  -2 -13   62.59    2.10
   0  -2 -13   65.49    1.60
   0   3  13    1.20    0.60
   0  -3 -13    0.40    0.60
   0   4  13   20.60    1.30
   0  -4 -13   17.80    1.40
   0   5  13   12.40    1.10
   0  -5 -13   13.30    1.40
   0   6  13   15.90    1.30
   0  -6 -13   17.40    1.60
   0   7  13    0.80    0.60
   0  -7 -13    1.50    0.80
   1  -6  13    4.40    0.90
  -1   6 -13    3.60    0.80
   1  -5  13    8.10    1.00
  -1   5 -13   11.40    1.10
   1  -4  13  164.98    4.10
  -1   4 -13  164.28    3.90
   1  -3  13   61.09    2.10
  -1   3 -13   58.59    1.90
   1  -2  13  208.38    4.80
  -1   2 -13  211.98    4.50
  -1   2 -13  210.68    4.40
   1  -1  13  170.28    4.00
  -1   1 -13  170.78    3.70
  -1   1 -13  171.88    3.80
   1   0  13   11.40    1.00
  -1   0 -13   12.30    0.70
  -1   0 -13   13.00    0.90
   1   1  13  163.88    3.90
  -1  -1 -13  168.38    3.40
  -1  -1 -13  166.28    3.90
   1   2  13  204.68    4.70
  -1  -2 -13  208.78    4.70
   1   3  13   57.59    2.10
  -1  -3 -13   59.39    2.20
   1   4  13  156.88    3.90
  -1  -4 -13  157.98    4.20
   1   5  13    8.50    1.00
  -1  -5 -13   10.60    1.30
   1   6  13    3.80    0.80
  -1  -6 -13    3.40    1.00
   2  -6  13    9.60    1.10
  -2   6 -13   13.50    1.30
   2  -5  13   10.70    1.10
  -2   5 -13   11.00    1.00
   2  -4  13   11.10    1.10
  -2   4 -13   12.30    1.10
   2  -3  13    1.40    0.60
  -2   3 -13    1.70    0.50
  -2   3 -13    0.90    0.50
   2  -2  13   55.79    2.00
  -2   2 -13   51.39    1.70
  -2   2 -13   53.39    1.80
   2  -1  13    6.50    0.90
  -2   1 -13    7.30    0.70
  -2   1 -13    7.40    0.80
   2   0  13    0.20    0.50
  -2   0 -13    0.70    0.50
  -2   0 -13    0.00    0.30
   2   1  13    7.10    0.90
  -2  -1 -13    8.50    0.90
   2   2  13   51.39    2.00
  -2  -2 -13   52.69    2.00
   2   3  13    1.10    0.60
  -2  -3 -13    0.90    0.70
   2   4  13   12.00    1.10
  -2  -4 -13   11.70    1.30
   2   5  13    9.50    1.00
  -2  -5 -13    9.50    1.20
   2   6  13   12.20    1.20
  -2  -6 -13   13.00    1.50
   3  -6  13    2.60    0.70
  -3   6 -13    1.80    0.70
   3  -5  13    6.80    0.90
  -3   5 -13    6.10    0.90
   3  -4  13   95.69    2.80
  -3   4 -13   89.09    2.70
   3  -3  13   35.10    1.70
  -3   3 -13   34.40    1.50
   3  -2  13  110.89    3.10
  -3   2 -13  106.79    2.70
  -3   2 -13  109.99    3.00
   3  -1  13   93.49    2.70
  -3   1 -13   89.09    2.70
   3   0  13    5.40    0.80
  -3   0 -13    5.60    0.80
   3   1  13   92.59    2.70
  -3  -1 -13   89.89    2.80
   3   2  13  112.39    3.20
  -3  -2 -13  108.09    3.20
   3   3  13   37.40    1.80
  -3  -3 -13   37.90    1.90
   3   4  13   90.09    2.90
  -3  -4 -13   88.89    3.10
   3   5  13    5.80    1.00
  -3  -5 -13    7.50    1.10
   3   6  13    1.10    0.80
  -3  -6 -13    2.60    1.00
   4  -5  13    6.40    0.90
  -4   5 -13    5.10    0.90
   4  -4  13    3.90    0.80
  -4   4 -13    5.20    0.80
   4  -3  13    0.80    0.70
   4  -3  13    1.40    0.70
  -4   3 -13    0.70    0.50
   4  -2  13   31.50    1.60
  -4   2 -13   28.80    1.60
   4  -1  13    6.70    0.90
  -4   1 -13    5.40    0.90
   4   0  13   -1.00    0.60
  -4   0 -13   -1.10    0.60
   4   1  13    6.80    1.00
  -4  -1 -13    6.80    1.00
   4   2  13   27.10    1.70
  -4  -2 -13   29.20    1.70
   4   3  13    2.00    0.80
  -4  -3 -13    0.10    0.80
   4   4  13    3.40    0.90
  -4  -4 -13    6.00    1.10
   4   5  13    8.90    1.20
  -4  -5 -13    7.00    1.20
   5  -3  13   12.30    1.20
   5  -3  13   14.20    1.50
   5  -2  13   34.10    1.80
  -5   2 -13   33.20    1.80
   5  -1  13   28.80    1.70
  -5   1 -13   27.50    1.70
   5   0  13   -0.20    0.70
  -5   0 -13    1.10    0.80
   5   1  13   31.90    1.80
  -5  -1 -13   30.00    1.80
   5   2  13   31.80    1.80
  -5  -2 -13   32.00    1.90
   5   3  13   15.50    1.50
  -5  -3 -13   13.20    1.60
  -5  -2  14    6.20    1.00
   5   2 -14    7.00    1.00
  -5  -1  14    7.50    1.00
   5   1 -14    8.70    1.00
   5   0 -14    0.20    0.60
   5  -1 -14    8.60    1.00
   5  -2 -14    5.60    0.90
  -4  -4  14   10.40    1.20
   4   4 -14   10.70    1.20
  -4  -3  14   27.60    1.70
   4   3 -14   29.20    1.60
  -4  -2  14   33.60    1.80
   4   2 -14   34.40    1.70
  -4  -1  14    7.20    1.00
   4   1 -14    8.80    1.00
  -4   0  14   56.79    2.10
   4   0 -14   56.89    2.10
  -4   1  14    8.10    0.90
   4  -1 -14    9.60    1.00
   4  -2 -14   33.90    1.60
   4  -2 -14   34.10    1.80
   4  -3 -14   29.30    1.90
  -4   4  14   10.90    1.10
   4  -4 -14    8.40    1.30
  -3  -5  14   26.90    1.80
   3   5 -14   28.20    1.70
  -3  -4  14   50.99    2.30
   3   4 -14   48.10    2.00
  -3  -3  14    4.90    0.90
   3   3 -14    5.10    0.80
  -3  -2  14    9.30    1.00
   3   2 -14   10.00    1.00
  -3  -1  14   14.10    1.20
   3   1 -14   13.70    1.10
  -3   0  14   -0.20    0.50
   3   0 -14   -0.10    0.50
  -3   1  14   15.90    1.20
   3  -1 -14   15.40    1.10
   3  -1 -14   13.70    1.10
  -3   2  14    8.70    0.90
   3  -2 -14    8.90    0.90
   3  -2 -14    9.10    1.00
  -3   3  14    5.00    0.70
   3  -3 -14    5.50    0.70
   3  -3 -14    4.80    1.00
  -3   4  14   49.00    1.90
   3  -4 -14   46.10    2.30
   3  -5 -14   27.60    2.00
  -2  -5  14    1.90    0.80
   2   5 -14    1.50    0.70
  -2  -4  14   22.30    1.60
   2   4 -14   21.70    1.40
  -2  -3  14   58.19    2.20
   2   3 -14   60.09    2.10
  -2  -2  14   91.99    2.80
   2   2 -14   88.99    2.60
  -2  -1  14   15.60    1.20
   2   1 -14   16.20    1.10
  -2   0  14  153.08    3.70
   2   0 -14  148.59    3.40
   2   0 -14  151.58    3.50
  -2   1  14   17.50    1.20
   2  -1 -14   14.80    1.10
   2  -1 -14   17.60    1.00
  -2   2  14   90.89    2.60
   2  -2 -14   93.59    2.40
   2  -2 -14   89.69    2.70
  -2   3  14   60.79    2.00
   2  -3 -14   59.59    1.80
   2  -3 -14   57.09    2.30
  -2   4  14   22.00    1.30
   2  -4 -14   20.50    1.60
   2  -5 -14    0.60    0.90
  -1  -6  14   45.60    2.20
   1   6 -14   43.10    2.00
  -1  -5  14   47.10    2.10
   1   5 -14   44.50    1.90
  -1  -4  14   84.49    2.80
   1   4 -14   83.79    2.60
  -1  -3  14    7.80    0.90
   1   3 -14    8.70    0.90
  -1  -2  14   10.90    1.00
   1   2 -14   11.30    1.00
  -1  -1  14   16.90    1.20
   1   1 -14   19.70    1.10
  -1   0  14    0.40    0.50
   1   0 -14   -0.10    0.40
   1   0 -14    0.60    0.40
  -1   1  14   17.60    1.20
   1  -1 -14   17.50    1.10
   1  -1 -14   18.70    1.00
  -1   2  14    9.00    0.90
   1  -2 -14   11.10    0.80
   1  -2 -14    9.70    1.00
  -1   3  14    8.00    0.90
   1  -3 -14   11.10    1.10
  -1   4  14   82.99    2.50
   1  -4 -14   82.69    2.80
  -1   5  14   43.90    1.80
   1  -5 -14   42.20    2.20
  -1   6  14   41.60    1.90
   1  -6 -14   41.60    2.20
   0  -6  14   39.20    2.00
   0   6 -14   36.60    1.80
   0  -5  14    3.30    0.80
   0   5 -14    2.70    0.70
   0  -4  14   30.00    1.70
   0   4 -14   29.90    1.50
   0  -3  14   75.99    2.50
   0   3 -14   77.69    2.30
   0  -2  14  126.39    3.40
   0   2 -14  125.69    3.10
   0  -1  14   19.40    1.30
   0   1 -14   19.00    1.00
   0   1 -14   18.20    1.00
   0   0  14  202.78    4.70
   0   0 -14  206.58    4.50
   0   0 -14  208.28    4.30
   0   1  14   19.50    1.30
   0  -1 -14   19.60    0.90
   0  -1 -14   19.00    1.20
   0   2  14  127.09    3.30
   0  -2 -14  126.39    3.40
   0   3  14   76.79    2.40
   0  -3 -14   78.49    2.60
   0   4  14   30.80    1.60
   0  -4 -14   28.30    1.70
   0   5  14    2.30    0.70
   0  -5 -14    2.30    0.90
   0   6  14   36.80    1.80
   0  -6 -14   35.50    2.10
   1  -6  14   47.00    2.20
  -1   6 -14   44.00    2.00
   1  -5  14   47.30    2.10
  -1   5 -14   46.60    1.90
   1  -4  14   87.49    2.80
  -1   4 -14   88.79    2.60
   1  -3  14    9.20    1.00
  -1   3 -14    8.50    0.90
   1  -2  14   10.30    1.00
  -1   2 -14   10.00    1.00
  -1   2 -14   10.80    0.90
   1  -1  14   17.70    1.30
  -1   1 -14   16.90    1.00
  -1   1 -14   20.30    1.10
   1   0  14    0.10    0.50
  -1   0 -14    0.20    0.50
  -1   0 -14    0.80    0.40
   1   1  14   18.50    1.30
  -1  -1 -14   18.90    1.20
   1   2  14    8.10    0.90
  -1  -2 -14   10.20    1.10
   1   3  14    7.70    0.90
  -1  -3 -14    8.50    1.00
   1   4  14   84.49    2.70
  -1  -4 -14   84.59    2.90
   1   5  14   45.40    2.00
  -1  -5 -14   43.50    2.20
   1   6  14   43.40    2.00
  -1  -6 -14   44.60    2.30
   2  -6  14   27.50    1.80
   2  -5  14    2.80    0.70
  -2   5 -14    1.00    0.60
   2  -4  14   22.30    1.50
  -2   4 -14   21.70    1.40
   2  -3  14   57.99    2.20
  -2   3 -14   58.69    1.90
   2  -2  14   92.19    2.80
  -2   2 -14   92.59    2.50
  -2   2 -14   91.99    2.50
   2  -1  14   17.10    1.30
  -2   1 -14   17.50    0.90
  -2   1 -14   14.70    1.10
   2   0  14  151.48    3.80
  -2   0 -14  149.29    3.70
   2   1  14   15.90    1.30
  -2  -1 -14   16.50    1.20
   2   2  14   88.19    2.70
  -2  -2 -14   90.89    2.80
   2   3  14   58.29    2.20
  -2  -3 -14   55.59    2.30
   2   4  14   23.10    1.60
  -2  -4 -14   22.40    1.60
   2   5  14    1.60    0.80
  -2  -5 -14    1.30    0.80
   2   6  14   29.30    1.80
   3  -5  14   27.90    1.70
  -3   5 -14   25.50    1.60
   3  -4  14   46.10    2.00
  -3   4 -14   46.20    1.90
   3  -3  14    5.00    0.90
  -3   3 -14    5.60    0.80
   3  -2  14   10.60    1.10
  -3   2 -14    8.70    1.00
   3  -1  14   15.30    1.40
  -3   1 -14   14.60    1.20
   3   0  14   -0.70    0.60
  -3   0 -14    0.50    0.60
   3   1  14   15.00    1.30
  -3  -1 -14   14.40    1.30
   3   2  14    7.70    1.00
  -3  -2 -14    9.90    1.20
   3   3  14    5.00    0.90
  -3  -3 -14    6.80    1.10
   3   4  14   49.10    2.20
  -3  -4 -14   47.60    2.30
   3   5  14   30.90    1.80
  -3  -5 -14   27.20    1.90
   4  -4  14   10.70    1.20
  -4   4 -14   11.00    1.10
   4  -3  14   30.50    1.70
   4  -3  14   29.20    1.70
   4  -2  14   35.80    1.80
  -4   2 -14   37.50    1.90
   4  -1  14    9.30    1.10
  -4   1 -14   10.40    1.20
   4   0  14   56.79    2.30
  -4   0 -14   56.29    2.30
   4   1  14    5.90    1.00
  -4  -1 -14    8.20    1.10
   4   2  14   32.90    1.90
  -4  -2 -14   34.20    1.90
   4   3  14   29.30    1.90
  -4  -3 -14   26.10    1.70
   4   4  14   11.40    1.30
  -4  -4 -14    9.50    1.30
   5  -2  14    4.20    0.90
  -5   2 -14    6.90    1.20
   5  -1  14    8.00    1.10
  -5   1 -14    8.30    1.20
   5   0  14   -0.60    0.70
  -5   0 -14   -0.20    0.70
   5   1  14    8.40    1.10
  -5  -1 -14    9.00    1.20
   5   2  14    4.50    1.00
  -5  -2 -14    7.30    1.20
  -4  -3  15   -0.80    0.60
   4   3 -15   -0.60    0.70
  -4  -2  15    6.40    1.00
   4   2 -15    7.10    1.00
  -4  -1  15    4.40    0.90
   4   1 -15    6.10    0.90
  -4   0  15    0.20    0.60
   4   0 -15    0.60    0.60
  -4   1  15    4.80    0.80
   4  -1 -15    4.70    0.80
   4  -2 -15    8.20    1.00
   4  -3 -15    0.80    0.60
   4  -3 -15   -0.90    0.80
  -3  -4  15   69.29    2.70
   3   4 -15   66.99    2.50
  -3  -3  15   14.90    1.50
   3   3 -15   13.10    1.30
  -3  -2  15   95.69    3.00
   3   2 -15   95.49    2.80
  -3  -1  15   54.19    2.10
   3   1 -15   53.09    2.00
  -3   0  15  136.39    3.60
   3   0 -15  139.79    3.50
  -3   1  15   53.79    2.00
   3  -1 -15   54.29    2.00
  -3   2  15   91.59    2.70
   3  -2 -15   97.69    2.70
   3  -2 -15   95.19    2.90
  -3   3  15   14.80    1.50
   3  -3 -15   13.70    1.10
   3  -3 -15   12.80    1.30
   3  -4 -15   60.29    2.60
  -2  -5  15    0.90    0.80
   2   5 -15    1.00    0.70
  -2  -4  15    4.20    0.90
   2   4 -15    3.40    0.80
  -2  -3  15    0.30    0.60
   2   3 -15   -0.40    0.60
  -2  -2  15   17.60    1.40
   2   2 -15   17.00    1.20
  -2  -1  15    9.80    1.00
   2   1 -15    8.80    0.90
  -2   0  15    0.50    0.60
   2   0 -15    0.00    0.50
  -2   1  15    8.80    0.90
   2  -1 -15   10.30    1.00
   2  -1 -15    9.00    0.90
  -2   2  15   16.70    1.30
   2  -2 -15   17.80    1.30
   2  -2 -15   18.40    1.10
  -2   3  15    0.30    0.60
   2  -3 -15    0.50    0.70
   2  -3 -15   -0.30    0.70
  -2   4  15    3.70    0.80
   2  -4 -15    4.60    1.00
   2  -5 -15    0.30    0.90
  -1  -5  15   31.50    1.90
   1   5 -15   30.10    1.70
  -1  -4  15  106.69    3.30
   1   4 -15  104.19    3.00
  -1  -3  15   18.90    1.40
   1   3 -15   18.10    1.20
  -1  -2  15  166.08    4.20
   1   2 -15  162.98    3.90
  -1  -1  15   79.39    2.60
   1   1 -15   83.09    2.30
  -1   0  15  245.78    5.50
   1   0 -15  243.58    5.10
   1   0 -15  235.28    5.10
  -1   1  15   83.09    2.60
   1  -1 -15   82.29    2.20
   1  -1 -15   78.09    2.40
  -1   2  15  163.08    4.10
   1  -2 -15  167.18    4.20
   1  -2 -15  177.68    4.40
  -1   3  15   18.00    1.30
   1  -3 -15   18.10    1.40
  -1   4  15  104.69    3.00
   1  -4 -15  104.39    3.30
  -1   5  15   27.20    1.60
   1  -5 -15   29.20    1.90
   0  -5  15    2.50    0.80
   0   5 -15    1.50    0.70
   0  -4  15    5.70    1.00
   0   4 -15    5.10    0.80
   0  -3  15    0.90    0.70
   0   3 -15    0.20    0.50
   0  -2  15   24.60    1.50
   0   2 -15   23.30    1.20
   0  -1  15   14.70    1.30
   0   1 -15   12.80    1.00
   0   0  15    1.20    0.60
   0   0 -15    0.90    0.50
   0   0 -15    0.90    0.40
   0   1  15   13.00    1.20
   0  -1 -15   11.90    1.00
   0   2  15   24.30    1.50
   0  -2 -15   23.70    1.40
   0   3  15    0.60    0.60
   0  -3 -15    0.10    0.60
   0   4  15    5.10    0.80
   0  -4 -15    6.50    1.10
   0   5  15    1.30    0.70
   0  -5 -15    0.70    0.90
   1  -5  15   28.70    1.80
  -1   5 -15   29.10    1.60
   1  -4  15  109.99    3.30
  -1   4 -15  111.49    3.10
   1  -3  15   21.00    1.50
  -1   3 -15   18.00    1.20
   1  -2  15  169.98    4.30
  -1   2 -15  171.78    3.90
   1  -1  15   85.79    2.70
  -1   1 -15   83.69    2.30
  -1   1 -15   84.69    2.40
   1   0  15  246.38    5.50
  -1   0 -15  239.98    5.30
   1   1  15   82.79    2.70
  -1  -1 -15   85.09    2.60
   1   2  15  163.48    4.10
  -1  -2 -15  159.48    4.10
   1   3  15   17.00    1.40
  -1  -3 -15   19.60    1.50
   1   4  15  104.89    3.20
  -1  -4 -15  103.69    3.30
   1   5  15   30.30    1.80
  -1  -5 -15   28.30    1.90
   2  -5  15    1.20    0.80
  -2   5 -15    0.50    0.60
   2  -4  15    4.20    0.90
  -2   4 -15    4.40    0.80
   2  -3  15    0.70    0.70
  -2   3 -15   -0.30    0.50
   2  -2  15   18.10    1.50
  -2   2 -15   17.60    1.10
   2  -1  15    7.40    1.00
  -2   1 -15    9.70    1.00
   2   0  15    0.20    0.60
  -2   0 -15    0.70    0.60
   2   1  15    8.70    1.00
  -2  -1 -15    9.80    1.10
   2   2  15   15.90    1.40
  -2  -2 -15   17.60    1.40
   2   3  15    0.70    0.70
  -2  -3 -15   -0.20    0.60
   2   4  15    5.10    0.90
  -2  -4 -15    4.70    1.00
   2   5  15    1.60    0.80
  -2  -5 -15    1.20    0.90
   3  -4  15   64.59    2.50
  -3   4 -15   64.09    2.20
   3  -3  15   11.30    1.20
   3  -2  15   93.19    3.00
  -3   2 -15   96.79    2.80
   3  -1  15   54.49    2.30
  -3   1 -15   54.59    2.10
   3   0  15  139.49    3.80
  -3   0 -15  139.19    3.70
   3   1  15   51.99    2.20
  -3  -1 -15   53.59    2.20
   3   2  15  100.39    3.10
  -3  -2 -15   96.69    3.20
   3   3  15   13.00    1.30
  -3  -3 -15   12.30    1.30
   3   4  15   65.39    2.60
  -3  -4 -15   66.79    2.80
   4  -3  15   -0.70    0.60
   4  -2  15    7.60    1.10
  -4   2 -15   10.00    1.20
   4  -1  15    3.60    0.90
  -4   1 -15    6.10    1.00
   4   0  15   -0.10    0.70
  -4   0 -15    0.10    0.70
   4   1  15    6.10    1.00
  -4  -1 -15    5.00    1.00
   4   2  15    9.50    1.20
  -4  -2 -15    7.10    1.10
   4   3  15    0.10    0.80
  -4  -3 -15    0.10    0.80
  -4   0  16   99.29    3.10
   4   0 -16  104.09    3.10
  -3  -3  16   16.10    1.60
   3   3 -16   14.00    1.30
  -3  -2  16    2.50    0.80
   3   2 -16    2.30    0.70
  -3  -1  16    7.40    1.00
   3   1 -16    6.90    0.90
  -3   0  16    0.30    0.60
   3   0 -16    0.30    0.60
  -3   1  16    7.50    0.90
   3  -1 -16    8.10    0.90
  -3   2  16    2.30    0.70
   3  -2 -16    2.80    0.70
   3  -3 -16   14.60    1.50
  -2  -4  16  165.48    4.40
   2   4 -16  160.18    4.20
  -2  -3  16    6.60    1.00
   2   3 -16    7.10    0.90
  -2  -2  16  178.08    4.60
   2   2 -16  181.58    4.30
  -2  -1  16    2.40    0.80
   2   1 -16    3.30    0.70
  -2   0  16  221.88    5.20
   2   0 -16  221.48    4.90
  -2   1  16    3.70    0.80
   2  -1 -16    4.00    0.70
  -2   2  16  176.58    4.40
   2  -2 -16  180.98    4.10
   2  -2 -16  178.58    4.40
  -2   3  16    7.30    1.00
   2  -3 -16    8.50    1.10
  -2   4  16  160.28    4.10
   2  -4 -16  167.18    4.50
  -1  -4  16   54.89    2.40
   1   4 -16   49.30    2.10
  -1  -3  16   20.20    1.60
   1   3 -16   20.30    1.30
  -1  -2  16    5.80    0.90
   1   2 -16    5.30    0.80
  -1  -1  16   12.60    1.20
   1   1 -16   12.50    1.10
  -1   0  16    0.50    0.60
   1   0 -16    0.80    0.50
  -1   1  16   12.80    1.20
   1  -1 -16   10.30    1.10
   1  -1 -16   11.80    1.00
  -1   2  16    5.90    0.90
   1  -2 -16    4.30    0.90
  -1   3  16   22.30    1.50
   1  -3 -16   22.00    1.50
  -1   4  16   55.39    2.20
   1  -4 -16   48.00    2.30
   0  -4  16  213.88    5.30
   0   4 -16  211.58    5.00
   0  -3  16    8.70    1.10
   0   3 -16    8.40    0.90
   0  -2  16  233.48    5.50
   0   2 -16  237.58    5.20
   0  -1  16    4.60    0.90
   0   1 -16    4.40    0.70
   0   0  16  286.47    6.40
   0   0 -16  290.57    6.70
   0   0 -16  287.67    6.70
   0   1  16    4.70    0.90
   0  -1 -16    5.00    0.80
   0   2  16  238.68    5.50
   0  -2 -16  231.78    5.40
   0   3  16   10.30    1.10
   0  -3 -16    8.80    1.10
   0   4  16  206.68    5.00
   0  -4 -16  206.48    5.30
   1  -4  16   52.99    2.30
  -1   4 -16   51.39    2.10
   1  -3  16   22.90    1.60
  -1   3 -16   22.70    1.40
   1  -2  16    4.80    0.90
  -1   2 -16    5.40    0.70
   1  -1  16   12.70    1.20
   1   0  16    0.70    0.60
  -1   0 -16    0.50    0.60
   1   1  16   12.10    1.20
  -1  -1 -16   12.00    1.20
   1   2  16    5.20    0.90
  -1  -2 -16    4.80    0.90
   1   3  16   19.70    1.50
  -1  -3 -16   21.00    1.50
   1   4  16   49.99    2.30
  -1  -4 -16   51.59    2.40
   2  -4  16  161.18    4.30
  -2   4 -16  158.88    4.10
   2  -3  16    5.10    1.00
  -2   3 -16    7.50    0.90
   2  -2  16  183.28    4.60
   2  -1  16    4.10    0.90
  -2   1 -16    3.20    0.70
   2   0  16  223.98    5.30
  -2   0 -16  217.88    5.10
   2   1  16    4.10    0.90
  -2  -1 -16    4.20    0.90
   2   2  16  179.98    4.60
  -2  -2 -16  184.28    4.70
   2   3  16    8.50    1.10
  -2  -3 -16    7.60    1.10
   2   4  16  167.28    4.50
  -2  -4 -16  159.78    4.60
   3  -3  16   11.00    1.20
   3  -2  16    2.50    0.80
   3  -1  16    6.70    1.00
  -3   1 -16    7.20    1.00
   3   0  16    0.20    0.70
  -3   0 -16    0.00    0.70
   3   1  16    6.30    1.00
  -3  -1 -16    7.30    1.10
   3   2  16    2.70    0.90
  -3  -2 -16    3.10    0.90
   3   3  16   13.80    1.40
  -3  -3 -16   15.00    1.50
   4   0  16  106.09    3.30
  -4   0 -16  105.49    3.40
  -3   0  17   37.30    1.90
   3   0 -17   38.60    1.80
  -2  -2  17   34.00    1.90
   2   2 -17   32.20    1.70
  -2  -1  17    4.50    0.90
   2   1 -17    4.90    0.80
  -2   0  17    0.00    0.60
   2   0 -17    0.60    0.50
  -2   1  17    3.20    0.80
   2  -1 -17    4.90    0.70
  -2   2  17   34.60    1.80
  -1  -3  17   -0.10    0.80
   1   3 -17   -1.30    0.60
  -1  -2  17   32.40    1.90
   1   2 -17   29.50    1.50
  -1  -1  17   25.60    1.60
   1   1 -17   24.50    1.30
  -1   0  17   73.39    2.60
   1   0 -17   73.89    2.20
  -1   1  17   24.00    1.60
  -1   2  17   29.40    1.70
   1  -2 -17   26.80    1.60
  -1   3  17    0.00    0.70
   1  -3 -17    0.70    0.70
   0  -3  17   15.00    1.40
   0   3 -17   14.90    1.30
   0  -2  17   47.60    2.20
   0   2 -17   43.70    1.80
   0  -1  17    5.10    0.90
   0   1 -17   10.70    1.40
   0   0  17    0.70    0.70
   0   1  17    5.20    1.00
   0  -1 -17    6.50    0.90
   0   2  17   46.00    2.10
   0  -2 -17   44.40    2.00
   0   3  17   17.40    1.50
   0  -3 -17   19.00    1.50
   1  -3  17   -0.30    0.80
  -1   3 -17   -0.10    0.60
   1  -2  17   29.30    1.80
   1  -1  17   22.80    1.60
   1   0  17   76.99    2.70
   1   1  17   25.00    1.70
  -1  -1 -17   24.90    1.50
   1   2  17   27.80    1.80
  -1  -2 -17   29.80    1.70
   1   3  17    1.40    0.80
  -1  -3 -17    1.00    0.80
   2  -2  17   33.80    1.90
   2  -1  17    3.30    0.90
   2   0  17    0.40    0.70
  -2   0 -17    0.20    0.60
   2   1  17    4.40    0.90
  -2  -1 -17    3.90    0.90
   2   2  17   32.80    2.00
  -2  -2 -17   34.10    1.90
   3   0  17   39.80    2.10
  -3   0 -17   40.10    1.90
  -1  -1  18    2.00    0.80
   1   1 -18    2.80    0.80
  -1   0  18    0.40    0.70
  -1   1  18    2.50    0.80
   0  -1  18    8.50    1.10
   0   0  18  138.99    4.00
   0   1  18    9.40    1.20
   1  -1  18    2.80    0.90
   1   0  18   -0.40    0.70
   1   1  18    1.10    0.80

_computing_structure_solution     'SHELXT 2014/4 (Sheldrick, 2014)'
;
_shelx_hkl_checksum              19371
loop_
_space_group_symop_operation_xyz
'x, y, z'
'-x+1/2, -y, z+1/2'
'x+1/2, -y+1/2, -z+1/2'
'-x, y+1/2, -z'
'-x, -y, -z'
'x-1/2, y, -z-1/2'
'-x-1/2, y-1/2, z-1/2'
'x, -y-1/2, z'
loop_
_atom_site_label
_atom_site_type_symbol
_atom_site_fract_x
_atom_site_fract_y
_atom_site_fract_z
_atom_site_U_iso_or_equiv
_atom_site_adp_type
_atom_site_occupancy
_atom_site_site_symmetry_order
_atom_site_calc_flag
_atom_site_refinement_flags_posn
_atom_site_refinement_flags_adp
_atom_site_refinement_flags_occupancy
Cl1 Cl 0.27120(6) 0.250000 -0.21909(3) 0.0464(2) Uani 1 2 d S T P
N6 N 0.28395(16) 0.250000 -0.02401(9) 0.0304(3) Uani 1 2 d S T P
N5 N 0.10515(17) 0.250000 -0.00551(10) 0.0345(3) Uani 1 2 d S T P
N2 N 0.54663(19) 0.250000 -0.09387(11) 0.0430(4) Uani 1 2 d S T P
N4 N 0.2059(2) 0.250000 0.16418(11) 0.0422(4) Uani 1 2 d S T P
N1 N 0.57329(19) 0.250000 0.00448(12) 0.0448(4) Uani 1 2 d S T P
N7 N -0.0897(2) 0.250000 0.12341(11) 0.0480(4) Uani 1 2 d S T P
H7A H -0.178309 0.250000 0.083758 0.058 Uiso 1 2 calc R U P
H7B H -0.108195 0.250000 0.185223 0.058 Uiso 1 2 calc R U P
N3 N 0.3707(2) 0.250000 0.14191(10) 0.0431(4) Uani 1 2 d S T P
C3 C 0.0758(2) 0.250000 0.08917(11) 0.0347(3) Uani 1 2 d S T P
C1 C 0.3721(2) 0.250000 -0.11002(12) 0.0348(3) Uani 1 2 d S T P
C2 C 0.4129(2) 0.250000 0.04509(11) 0.0354(4) Uani 1 2 d S T P
loop_
_atom_site_aniso_label
_atom_site_aniso_U_11
_atom_site_aniso_U_22
_atom_site_aniso_U_33
_atom_site_aniso_U_23
_atom_site_aniso_U_13
_atom_site_aniso_U_12
Cl1 0.0522(3) 0.0613(3) 0.0256(3) 0.000 0.00104(15) 0.000
N6 0.0294(6) 0.0363(6) 0.0255(6) 0.000 -0.0024(4) 0.000
N5 0.0293(6) 0.0473(7) 0.0270(6) 0.000 0.0002(5) 0.000
N2 0.0355(7) 0.0496(8) 0.0439(8) 0.000 0.0057(6) 0.000
N4 0.0503(9) 0.0516(8) 0.0248(7) 0.000 -0.0024(6) 0.000
N1 0.0335(7) 0.0551(9) 0.0457(8) 0.000 -0.0027(6) 0.000
N7 0.0411(8) 0.0695(11) 0.0334(7) 0.000 0.0093(6) 0.000
N3 0.0460(8) 0.0526(8) 0.0307(7) 0.000 -0.0106(6) 0.000
C3 0.0380(8) 0.0386(7) 0.0276(7) 0.000 0.0011(6) 0.000
C1 0.0343(8) 0.0395(7) 0.0307(7) 0.000 0.0038(5) 0.000
C2 0.0326(7) 0.0416(8) 0.0321(8) 0.000 -0.0069(6) 0.000
loop_
_atom_type_symbol
_atom_type_description
_atom_type_scat_dispersion_real
_atom_type_scat_dispersion_imag
_atom_type_scat_source
C C 0.0033 0.0016 'International Tables Vol C Tables 4.2.6.8 and 6.1.1.4'
N N 0.0061 0.0033 'International Tables Vol C Tables 4.2.6.8 and 6.1.1.4'
H H 0.0000 0.0000 'International Tables Vol C Tables 4.2.6.8 and 6.1.1.4'
Cl Cl 0.1484 0.1585 'International Tables Vol C Tables 4.2.6.8 and 6.1.1.4'
loop_
_geom_angle_atom_site_label_1
_geom_angle_atom_site_label_2
_geom_angle_atom_site_label_3
_geom_angle
C2 N6 C1 105.13(13)
C2 N6 N5 124.89(13)
C1 N6 N5 129.98(13)
C3 N5 N6 110.34(13)
C1 N2 N1 108.03(14)
N3 N4 C3 119.64(14)
C2 N1 N2 106.39(14)
C3 N7 H7A 120.0
C3 N7 H7B 120.0
H7A N7 H7B 120.0
N4 N3 C2 117.28(14)
N5 C3 N7 120.35(15)
N5 C3 N4 126.85(15)
N7 C3 N4 112.80(14)
N2 C1 N6 109.68(14)
N2 C1 Cl1 126.44(13)
N6 C1 Cl1 123.88(13)
N1 C2 N6 110.77(15)
N1 C2 N3 128.23(15)
N6 C2 N3 121.00(15)
loop_
_geom_bond_atom_site_label_1
_geom_bond_atom_site_label_2
_geom_bond_distance
Cl1 C1 1.6786(17)
N6 C2 1.3561(18)
N6 C1 1.354(2)
N6 N5 1.3674(17)
N5 C3 1.319(2)
N2 C1 1.330(2)
N2 N1 1.365(2)
N4 N3 1.276(2)
N4 C3 1.420(2)
N1 C2 1.328(2)
N7 C3 1.330(2)
N7 H7A 0.8600
N7 H7B 0.8600
N3 C2 1.367(2)
loop_
_geom_hbond_atom_site_label_D
_geom_hbond_atom_site_label_H
_geom_hbond_atom_site_label_A
_geom_hbond_distance_DH
_geom_hbond_distance_HA
_geom_hbond_distance_DA
_geom_hbond_angle_DHA
_geom_hbond_site_symmetry_A
_geom_hbond_publ_flag
N7 H7B N3 0.86 2.38 3.236(2) 174.5 6_556 yes
N7 H7B N4 0.86 2.50 3.296(2) 155.2 6_556 yes
N7 H7A N1 0.86 2.16 3.013(2) 171.0 1_455 yes
N7 H7B N3 0.86 2.38 3.236(2) 174.5 6_556 yes
N7 H7B N4 0.86 2.50 3.296(2) 155.2 6_556 yes
N7 H7A N1 0.86 2.16 3.013(2) 171.0 1_455 yes
N7 H7B N3 0.86 2.38 3.236(2) 174.5 6_556 yes
N7 H7B N4 0.86 2.50 3.296(2) 155.2 6_556 yes
N7 H7A N1 0.86 2.16 3.013(2) 171.0 1_455 yes
N7 H7A N1 0.86 2.16 3.013(2) 171.0 1_455 yes
N7 H7B N4 0.86 2.50 3.296(2) 155.2 6_556 yes
N7 H7B N3 0.86 2.38 3.236(2) 174.5 6_556 yes
N7 H7A N1 0.86 2.16 3.013(2) 171.0 1_455 yes
N7 H7B N4 0.86 2.50 3.296(2) 155.2 6_556 yes
N7 H7B N3 0.86 2.38 3.236(2) 174.5 6_556 yes
