#------------------------------------------------------------------------------
#$Date: 2019-11-08 02:34:44 +0200 (Fri, 08 Nov 2019) $
#$Revision: 224800 $
#$URL: file:///home/coder/svn-repositories/cod/cif/7/05/80/7058070.cif $
#------------------------------------------------------------------------------
#
# This file is available in the Crystallography Open Database (COD),
# http://www.crystallography.net/
#
# All data on this site have been placed in the public domain by the
# contributors.
#
data_7058070
loop_
_publ_author_name
'Wang, Guilong'
'Lu, Tian'
'Fan, Guijuan'
'Yin, Hongquan'
'Chen, Fu-Xue'
_publ_section_title
;
 Synthesis and properties of insensitive
 [1,2,4]triazolo[4,3-b]-1,2,4,5-tetrazine explosives
;
_journal_issue                   4
_journal_name_full               'New Journal of Chemistry'
_journal_page_first              1663
_journal_paper_doi               10.1039/C8NJ05220D
_journal_volume                  43
_journal_year                    2019
_chemical_formula_sum            'C3 H2 N6'
_chemical_formula_weight         122.11
_space_group_crystal_system      orthorhombic
_space_group_IT_number           19
_space_group_name_Hall           'P 2ac 2ab'
_space_group_name_H-M_alt        'P 21 21 21'
_symmetry_space_group_name_Hall  'P 2ac 2ab'
_symmetry_space_group_name_H-M   'P 21 21 21'
_atom_sites_solution_hydrogens   geom
_audit_creation_method           SHELXL-2014/7
_audit_update_record
;
2018-01-16 deposited with the CCDC.
2018-12-17 downloaded from the CCDC.
;
_cell_angle_alpha                90
_cell_angle_beta                 90
_cell_angle_gamma                90
_cell_formula_units_Z            4
_cell_length_a                   5.4334(7)
_cell_length_b                   6.5582(9)
_cell_length_c                   13.8317(19)
_cell_measurement_reflns_used    2362
_cell_measurement_temperature    296(2)
_cell_measurement_theta_max      27.27
_cell_measurement_theta_min      2.95
_cell_volume                     492.87(11)
_computing_cell_refinement       'Bruker SMART'
_computing_data_collection       'Bruker SMART'
_computing_data_reduction        'Bruker SHELXTL'
_computing_molecular_graphics    'Bruker SHELXTL'
_computing_publication_material  'Bruker SHELXTL'
_computing_structure_refinement  'SHELXL-2014/7 (Sheldrick, 2014)'
_computing_structure_solution    'SHELXL-2014/7 (Sheldrick, 2014)'
_diffrn_ambient_temperature      296(2)
_diffrn_measured_fraction_theta_full 1.000
_diffrn_measured_fraction_theta_max 1.000
_diffrn_measurement_device_type  'Bruker APEX-II CCD'
_diffrn_measurement_method       '\f and \w scans'
_diffrn_radiation_type           MoK\a
_diffrn_radiation_wavelength     0.71073
_diffrn_reflns_av_R_equivalents  0.0195
_diffrn_reflns_av_unetI/netI     0.0142
_diffrn_reflns_Laue_measured_fraction_full 1.000
_diffrn_reflns_Laue_measured_fraction_max 1.000
_diffrn_reflns_limit_h_max       6
_diffrn_reflns_limit_h_min       -6
_diffrn_reflns_limit_k_max       7
_diffrn_reflns_limit_k_min       -7
_diffrn_reflns_limit_l_max       16
_diffrn_reflns_limit_l_min       -16
_diffrn_reflns_number            4153
_diffrn_reflns_point_group_measured_fraction_full 1.000
_diffrn_reflns_point_group_measured_fraction_max 1.000
_diffrn_reflns_theta_full        25.046
_diffrn_reflns_theta_max         25.046
_diffrn_reflns_theta_min         2.945
_exptl_absorpt_coefficient_mu    0.124
_exptl_crystal_colour            colourless
_exptl_crystal_density_diffrn    1.646
_exptl_crystal_description       cuboid
_exptl_crystal_F_000             248
_exptl_crystal_size_max          0.150
_exptl_crystal_size_mid          0.120
_exptl_crystal_size_min          0.100
_exptl_transmission_factor_max   0.988
_exptl_transmission_factor_min   0.982
_refine_diff_density_max         0.424
_refine_diff_density_min         -0.423
_refine_diff_density_rms         0.108
_refine_ls_abs_structure_details
;
 Refined as an inversion twin.
;
_refine_ls_abs_structure_Flack   0(10)
_refine_ls_extinction_method     none
_refine_ls_goodness_of_fit_ref   0.995
_refine_ls_hydrogen_treatment    constr
_refine_ls_matrix_type           full
_refine_ls_number_parameters     83
_refine_ls_number_reflns         872
_refine_ls_number_restraints     1
_refine_ls_restrained_S_all      1.001
_refine_ls_R_factor_all          0.0916
_refine_ls_R_factor_gt           0.0886
_refine_ls_shift/su_max          0.000
_refine_ls_shift/su_mean         0.000
_refine_ls_structure_factor_coef Fsqd
_refine_ls_weighting_details
'w=1/[\s^2^(Fo^2^)+(0.1115P)^2^+2.3459P] where P=(Fo^2^+2Fc^2^)/3'
_refine_ls_weighting_scheme      calc
_refine_ls_wR_factor_gt          0.2403
_refine_ls_wR_factor_ref         0.2426
_reflns_Friedel_coverage         0.615
_reflns_Friedel_fraction_full    1.000
_reflns_Friedel_fraction_max     1.000
_reflns_number_gt                835
_reflns_number_total             872
_reflns_threshold_expression     'I > 2\s(I)'
_cod_data_source_file            c8nj05220d2.cif
_cod_data_source_block           1
_cod_depositor_comments
'Adding full bibliography for 7058070--7058071.cif.'
_cod_database_code               7058070
_shelx_shelxl_version_number     2014/7
_shelx_space_group_comment
;
The symmetry employed for this shelxl refinement is uniquely defined
by the following loop, which should always be used as a source of
symmetry information in preference to the above space-group names.
They are only intended as comments.
;
_shelx_res_file
;

    1.res created by SHELXL-2014/7

TITL 1_a.res in P2(1)                 New: P212121
CELL  0.71073    5.4334    6.5582   13.8317    90.000    90.000    90.000
ZERR        4    0.0007    0.0009    0.0019     0.000     0.000     0.000
LATT -1
SYMM     0.50000 - X ,            - Y ,    0.50000 + Z
SYMM     0.50000 + X ,    0.50000 - Y ,            - Z
SYMM             - X ,    0.50000 + Y ,    0.50000 - Z
SFAC C  H  N
UNIT 12  8  24
OMIT -1 50.1
L.S. 20
ACTA
BOND $H
FMAP 2
PLAN 5
size 0.15 0.12 0.10
CONF
TWIN
WGHT    0.111500    2.345900
BASF  -0.26774
FVAR       1.57138
RESI 0
DELU 0.01 0.005 N1 C1
TEMP    23
N1    3    0.104586    1.085920    0.936078    11.00000    0.07013    0.04709 =
         0.05592   -0.00479   -0.00413    0.00732
N2    3   -0.165206    0.812696    0.938844    11.00000    0.04473    0.04407 =
         0.03613   -0.00081    0.00563    0.00092
N3    3    0.270195    1.011677    0.878040    11.00000    0.04746    0.03258 =
         0.04187    0.00072   -0.00066    0.00114
N4    3    0.000003    0.723902    0.878500    11.00000    0.04567    0.05114 =
         0.04637    0.01020   -0.00798   -0.00531
N5    3    0.329552    0.691691    0.788575    11.00000    0.07470    0.06421 =
         0.04828   -0.00723   -0.00414    0.01499
N6    3    0.190056    0.523329    0.782711    11.00000    0.06817    0.03552 =
         0.05131   -0.01204   -0.00646    0.00202
C1    1   -0.110137    0.995708    0.967027    11.00000    0.03782    0.02772 =
         0.03531   -0.00173    0.00588    0.00686
AFIX  43
H1A   2   -0.215720    1.065978    1.008143    11.00000   -1.20000
AFIX   0
C2    1    0.209725    0.821027    0.848807    11.00000    0.02810    0.02125 =
         0.02191   -0.00011   -0.00123   -0.00264
C3    1   -0.008441    0.541541    0.837560    11.00000    0.03917    0.02187 =
         0.03666   -0.00381   -0.00442   -0.00243
AFIX  43
H3B   2   -0.131143    0.444214    0.845807    11.00000   -1.20000
AFIX   0
HKLF 4

REM  1_a.res in P2(1)                 New: P212121
REM R1 =  0.0886 for     835 Fo > 4sig(Fo)  and  0.0916 for all     872 data
REM     83 parameters refined using      1 restraints

END

WGHT      0.1613      1.0997

REM Highest difference peak  0.424,  deepest hole -0.423,  1-sigma level  0.108
Q1    1   0.2870  0.8286  0.8465  11.00000  0.05    0.42
Q2    1   0.1575  1.2435  0.9559  11.00000  0.05    0.38
Q3    1  -0.2117  0.9620  0.9536  11.00000  0.05    0.34
Q4    1   0.4990  0.7298  0.7429  11.00000  0.05    0.32
Q5    1   0.5303  0.7549  0.7614  11.00000  0.05    0.31
;
_shelx_res_checksum              38788
_shelx_hkl_file
;
  -1   0   0    5.50    0.80
   1   0   0    7.20    0.80
   1   0   0    5.50    0.70
  -1   0   0    4.10    0.80
   2   0   0 1229.68   26.30
  -2   0   0 1254.57   26.70
  -2   0   0 1259.07   26.30
   3   0   0    6.80    1.30
  -3   0   0    9.10    1.60
   4   0   0   75.39    3.70
  -4   0   0   78.49    3.90
   5   0   0    4.00    2.30
  -5   0   0   10.80    2.60
  -6   0   0   63.19    5.20
   6   0   0   77.39    5.10
   7   0   0   -1.40    3.00
  -7   0   0    1.40    3.30
   0  -1   0   -1.60    0.60
   0  -1   0   -1.00    0.50
   0  -1   0   -1.30    0.60
   0   1   0    0.10    0.50
   0  -1   0    0.90    0.70
   0   1   0   -0.70    0.70
   1   1   0   63.59    2.10
   1  -1   0   66.79    2.10
  -1  -1   0   65.89    2.20
  -1   1   0   65.99    2.10
  -1  -1   0   58.89    2.00
   1  -1   0   62.89    2.30
  -2   1   0 1327.77   26.60
  -2  -1   0 1272.07   27.10
  -2   1   0 1277.67   27.00
   2  -1   0 1263.77   26.90
   2  -1   0 1239.98   26.90
   2   1   0 1256.07   27.00
   2  -1   0 1253.87   26.60
  -3   1   0  127.49    4.20
   3  -1   0  118.39    3.90
   3   1   0  119.19    4.10
  -3  -1   0  121.99    4.40
   3  -1   0  123.99    3.80
  -4  -1   0    2.20    1.70
  -4   1   0    3.20    1.60
   4  -1   0    1.80    1.50
   4   1   0    6.20    1.90
   4  -1   0    2.20    1.60
  -5   1   0  153.78    6.30
  -5  -1   0  133.19    6.60
   5   1   0  158.38    6.20
   5  -1   0  150.08    5.60
   5  -1   0  135.69    5.20
   6  -1   0   30.00    3.40
  -6  -1   0   24.00    4.00
   6   1   0   22.60    3.60
  -6   1   0   22.70    3.50
   7  -1   0    9.30    3.20
   7   1   0    5.50    3.40
  -7  -1   0   10.10    3.80
  -7   1   0    3.40    3.30
   0   2   0 1676.03   35.10
   0  -2   0 1701.13   35.00
   0  -2   0 1668.53   34.90
   0  -2   0 1692.13   35.10
   0   2   0 1654.43   34.60
   0  -2   0 1621.54   34.50
   1   2   0  236.98    6.00
  -1   2   0  246.68    6.20
  -1  -2   0  249.97    6.30
   1  -2   0  249.58    6.10
  -1  -2   0  245.28    6.00
  -1  -2   0  259.77    6.40
   1  -2   0  243.28    6.30
   2   2   0   15.40    1.60
  -2   2   0   18.70    1.70
  -2  -2   0   14.20    1.60
   2  -2   0   13.80    1.70
  -3  -2   0  812.52   18.70
   3   2   0  827.72   18.50
   3  -2   0  799.82   17.60
   3  -2   0  814.82   18.50
  -3   2   0  830.62   18.60
   4  -2   0    2.50    1.80
  -4  -2   0   -0.50    1.50
   4   2   0    2.80    1.90
  -4   2   0    1.00    1.50
   4  -2   0    0.70    1.40
   5  -2   0   39.20    3.70
  -5   2   0   40.60    3.90
   5  -2   0   45.00    3.50
  -5  -2   0   32.40    3.80
   5   2   0   38.10    3.60
  -6   2   0   97.09    5.80
   6   2   0  110.69    6.30
   6  -2   0   91.29    5.00
  -6  -2   0   87.09    6.40
   7   2   0    5.20    3.50
  -7   2   0    5.40    3.30
  -7  -2   0    3.00    4.00
   0  -3   0    3.90    0.90
   0  -3   0    4.70    1.30
   0   3   0    5.00    1.40
   0   3   0    5.40    1.00
   1  -3   0    8.00    1.50
   1   3   0   10.20    1.40
   1   3   0    7.30    1.50
  -1   3   0   10.50    1.60
  -1  -3   0    9.50    1.30
  -1  -3   0    7.20    1.20
   2   3   0    9.90    1.60
  -2   3   0    8.10    1.50
  -2  -3   0   12.00    1.90
   2  -3   0    7.00    1.70
  -3  -3   0   31.10    2.80
   3   3   0   30.90    2.80
   3  -3   0   26.60    2.70
  -3   3   0   31.30    2.70
  -4   3   0   79.59    4.30
   4  -3   0   77.59    4.40
  -4  -3   0   69.79    4.30
   4   3   0   81.49    4.60
  -5   3   0    3.30    2.20
   5  -3   0    4.20    2.40
   5   3   0    3.00    2.70
  -5  -3   0   -1.00    2.40
   6  -3   0    4.80    2.60
  -6   3   0    3.00    2.70
  -6  -3   0   -1.60    3.00
   6   3   0    8.00    3.20
   0  -4   0 3011.60   63.19
   0   4   0 2986.60   63.39
   0   4   0 3038.70   62.39
   1   4   0  876.41   19.50
  -1   4   0  893.31   20.20
   1   4   0  858.51   20.00
  -1  -4   0  898.81   19.60
   1  -4   0  897.11   20.20
  -2  -4   0    3.10    1.60
   2  -4   0    2.80    1.70
  -2   4   0    4.60    1.70
   2   4   0    4.50    1.60
  -3  -4   0  478.65   12.60
  -3   4   0  479.15   12.50
   3  -4   0  477.65   12.60
   3   4   0  488.45   12.30
  -4  -4   0   67.09    4.70
  -4   4   0   65.09    4.40
   4   4   0   71.99    4.60
   4  -4   0   61.49    4.70
   5  -4   0   67.39    5.20
  -5   4   0   62.19    4.80
   5   4   0   66.59    5.30
  -5  -4   0   55.19    5.10
  -6   4   0    6.40    3.00
  -6  -4   0    0.90    3.80
   6   4   0    5.10    3.50
   6  -4   0    7.10    3.10
   0   5   0    2.90    1.80
   0  -5   0   -2.70    1.50
   0   5   0    0.40    1.10
  -1  -5   0  143.59    5.00
  -1   5   0  143.39    5.60
   1   5   0  146.69    5.50
   1  -5   0  140.19    5.60
   1   5   0  135.49    4.70
  -2   5   0    6.30    2.10
  -2  -5   0    6.60    2.20
   2  -5   0   -0.20    2.00
   2   5   0    2.30    1.80
  -2  -5   0    4.60    1.60
  -3  -5   0  351.96   10.30
   3  -5   0  336.87   10.30
   3   5   0  337.97    9.90
  -3   5   0  334.97   10.20
   4  -5   0   26.20    3.60
  -4  -5   0   20.70    3.30
   4   5   0   23.20    3.30
  -4   5   0   26.40    3.50
   5  -5   0  120.69    6.60
  -5   5   0   87.99    5.90
   5   5   0  121.29    6.70
  -5  -5   0  102.69    6.40
   0  -6   0  464.15   12.40
   0   6   0  464.25   12.70
   1  -6   0   46.90    4.20
   1   6   0   44.00    3.20
   1   6   0   41.40    4.00
  -1   6   0   43.00    4.10
  -1  -6   0   41.90    3.60
  -2  -6   0  422.56   10.80
  -2  -6   0  419.06   12.20
   2   6   0  431.56   11.30
   2  -6   0  416.16   12.20
  -2   6   0  423.96   12.30
  -3  -6   0  243.68    8.80
   3  -6   0  250.27    9.00
   3   6   0  252.47    8.40
  -3   6   0  240.58    8.70
   4  -6   0    9.70    3.20
  -4  -6   0   11.00    3.20
  -4   6   0    6.90    2.80
   4   6   0    9.20    3.00
   5   6   0   15.10    3.80
   5  -6   0   20.80    4.00
  -5   6   0   15.40    3.60
  -5  -6   0   15.60    3.90
   0  -7   0   -1.20    2.20
   0   7   0    0.60    2.60
  -1  -7   0   -0.50    2.00
   1  -7   0    1.50    2.50
  -1   7   0    4.00    2.80
   1   7   0    1.80    1.80
  -2   7   0    1.10    2.70
   2   7   0    2.70    2.20
  -2  -7   0    2.80    2.60
   2  -7   0    3.30    2.70
   3  -7   0   78.99    6.00
  -3   7   0   71.49    5.60
  -3  -7   0   76.49    5.60
   3   7   0   81.09    5.30
  -4   7   0    1.30    2.80
  -4  -7   0   -2.50    3.00
   4  -7   0    1.10    3.10
   4   7   0   -2.70    3.00
   0   8   0   25.80    4.10
   0  -8   0   23.30    3.80
  -1   8   0   10.10    3.30
   1  -8   0   12.10    3.40
  -1  -8   0    8.20    2.80
  -2  -8   0    3.70    2.90
   2  -8   0    7.90    3.30
  -2   8   0    3.80    3.10
   0   0  -1    0.00    0.10
   0   0   1    0.50    0.20
   0   0  -1   -0.20    0.10
   0   0   1   -0.20    0.10
  -1   0   1 5333.57  111.79
   1   0  -1 5609.34  111.79
   1   0   1 5344.77  112.09
  -1   0   1 5389.46  110.59
   1   0  -1 5476.55  110.09
  -1   0   1 5297.47  109.99
   1   0  -1 5209.08  110.59
  -1   0  -1 5270.37  110.29
  -1   0  -1 5402.56  112.19
   1   0   1 5303.57  110.39
   1   0   1 5113.89  110.19
  -1   0  -1 5322.97  110.19
  -2   0  -1  683.93   14.30
   2   0   1  653.53   14.30
   2   0   1  649.64   14.00
   2   0  -1  649.24   14.30
  -2   0  -1  674.43   14.70
  -2   0   1  622.64   14.30
  -2   0   1  667.73   14.60
  -3   0   1   39.40    2.70
  -3   0  -1   32.10    2.50
   3   0  -1   36.00    2.30
   3   0   1   33.20    2.20
  -4   0  -1   19.70    2.30
   4   0   1   22.60    2.30
   4   0  -1   18.60    2.20
  -4   0   1   19.00    2.30
   5   0  -1  102.59    5.00
  -5   0  -1   97.09    5.30
  -5   0   1  104.19    5.40
   5   0   1  108.19    5.00
  -6   0   1    5.30    2.90
   6   0   1    4.80    2.70
   6   0  -1    6.30    2.80
  -6   0  -1    9.00    3.00
  -7   0   1   -0.30    3.10
  -7   0  -1    0.00    3.20
   7   0  -1    0.60    3.00
   7   0   1    1.10    3.00
   0  -1  -1 5285.77  109.19
   0  -1  -1 5262.87  109.19
   0   1   1 5217.68  109.19
   0   1   1 5174.78  109.89
   0  -1  -1 5289.47  109.79
   0   1   1 5230.78  109.29
   0  -1   1 5347.56  109.99
   0   1  -1 5246.17  109.99
   0   1  -1 5452.15  110.19
   1   1  -1 1844.62   38.80
   1  -1   1 1837.32   39.00
   1   1  -1 1875.41   39.00
  -1   1   1 1876.41   39.20
  -1   1   1 1882.51   38.60
  -1   1   1 1830.52   38.90
  -1  -1  -1 1896.81   39.10
   1  -1  -1 1884.91   38.90
   1  -1  -1 1878.21   38.60
  -1   1  -1 1983.60   39.10
  -1  -1   1 1876.11   38.90
   1   1   1 1871.31   38.90
   1  -1  -1 1941.61   39.10
  -1   1  -1 1899.91   39.50
   1   1   1 1776.52   38.80
  -1  -1   1 1868.01   39.00
  -2   1   1  153.48    4.20
   2   1  -1  143.39    4.20
   2  -1   1  139.49    3.70
  -2   1   1  150.18    3.80
  -2  -1  -1  143.69    4.20
   2  -1   1  130.89    4.10
   2  -1  -1  154.58    4.10
   2   1   1  137.19    4.20
  -2   1  -1  141.49    4.20
   2  -1  -1  145.49    4.20
   2  -1  -1  148.19    3.90
  -2  -1   1  151.78    4.30
  -2   1  -1  148.69    4.30
  -2   1  -1  146.59    3.70
   3  -1   1  707.03   15.50
  -3   1   1  719.53   16.10
   3  -1   1  711.03   15.80
   3   1  -1  699.83   16.00
  -3  -1  -1  713.03   16.40
   3  -1  -1  722.73   15.80
  -3  -1   1  683.23   16.20
   3   1   1  700.93   16.00
  -3   1  -1  701.83   16.20
   3  -1  -1  704.33   15.60
  -4  -1  -1  126.49    5.20
  -4   1   1  129.79    4.80
   4  -1   1  123.79    4.40
   4  -1   1  129.89    4.40
   4   1  -1  132.49    4.90
   4  -1  -1  127.49    4.40
  -4   1  -1  123.79    4.90
  -4  -1   1  124.49    5.10
   4  -1  -1  130.39    4.50
   4   1   1  129.39    4.90
  -5   1   1  140.79    6.10
  -5  -1  -1  144.49    6.70
   5   1  -1  137.89    6.00
   5  -1   1  140.29    5.20
   5  -1   1  144.69    5.50
   5  -1  -1  141.69    5.60
   5  -1  -1  132.79    5.20
   5   1   1  157.48    6.10
  -5  -1   1  144.49    6.70
  -5   1  -1  137.39    6.00
   6   1  -1   81.59    5.60
  -6   1   1   74.79    5.40
   6  -1   1   73.99    4.80
  -6  -1  -1   69.59    5.80
  -6   1  -1   69.19    5.30
  -6  -1   1   73.69    6.00
   6   1   1   82.49    5.60
   6  -1  -1   79.19    5.00
  -7   1   1    2.10    3.20
   7   1  -1    0.00    3.20
  -7  -1  -1    1.10    3.40
   7  -1   1   -1.60    2.70
   7   1   1    4.30    3.30
  -7   1  -1    2.50    3.40
   7  -1  -1    1.60    3.00
  -7  -1   1    5.40    3.60
   0  -2   1  773.12   16.80
   0  -2   1  757.82   16.70
   0   2   1  782.42   16.40
   0   2  -1  757.32   16.80
   0   2   1  778.62   16.70
   0   2   1  766.62   16.60
   0  -2  -1  761.82   16.30
   0  -2  -1  774.42   16.60
   0  -2  -1  778.42   16.60
   0   2  -1  791.92   16.80
   1  -2   1  955.40   21.30
   1   2  -1  968.80   21.00
  -1   2   1 1012.80   21.10
  -1  -2  -1  996.10   21.20
  -1  -2  -1 1012.00   21.20
  -1  -2  -1  969.40   21.00
  -1  -2  -1  968.90   20.70
   1   2   1  958.50   20.70
  -1  -2   1 1012.40   20.70
   1   2   1  956.60   21.00
   1  -2  -1 1023.20   21.10
  -1  -2   1 1003.10   21.00
  -1   2  -1  992.40   21.30
   2   2  -1  341.07    8.20
  -2   2   1  332.27    7.50
  -2   2   1  334.17    8.10
   2  -2   1  330.37    8.30
  -2  -2  -1  325.87    8.30
   2  -2  -1  322.37    8.30
  -2  -2   1  346.27    8.40
   2   2   1  323.27    8.20
  -2   2  -1  330.27    8.30
   2  -2  -1  327.57    7.50
  -3   2   1  155.98    4.90
   3   2  -1  145.39    4.90
   3  -2   1  153.18    5.00
  -3  -2  -1  152.18    5.00
   3  -2  -1  144.89    5.00
  -3  -2   1  140.89    4.90
   3  -2  -1  143.59    4.20
  -3   2  -1  155.98    5.00
   3   2   1  152.78    5.00
   4  -2   1    9.30    2.20
   4   2  -1   10.50    2.20
   4  -2   1   14.30    1.80
  -4   2   1   14.70    2.20
  -4  -2  -1    8.90    2.10
   4   2   1   12.60    2.30
   4  -2  -1   12.20    2.10
  -4  -2   1   11.90    2.20
   4  -2  -1   13.50    1.80
  -4   2  -1   11.00    2.00
  -5   2   1   32.10    3.40
   5  -2   1   36.70    3.70
  -5  -2  -1   30.50    3.80
   5   2  -1   30.70    3.50
   5  -2   1   39.10    3.30
   5  -2  -1   33.90    3.20
  -5  -2   1   28.20    3.70
   5  -2  -1   35.10    2.90
  -5   2  -1   27.80    3.20
   5   2   1   31.10    3.50
   6  -2   1    4.20    2.40
  -6  -2  -1    2.50    3.30
   6  -2   1    3.60    3.70
  -6   2   1    2.80    2.70
   6   2  -1    9.60    3.30
  -6   2  -1    7.90    2.80
  -6  -2   1   10.40    3.60
   6  -2  -1    3.50    2.50
   6   2   1   14.10    3.30
  -7   2   1   -0.60    3.00
  -7  -2  -1    2.60    4.10
   7   2  -1    5.50    3.70
  -7  -2   1   11.70    4.40
   7   2   1    4.00    3.60
  -7   2  -1    0.40    3.00
   0  -3  -1  965.20   21.10
   0   3   1 1002.10   21.20
   0  -3   1 1004.90   21.70
   0   3  -1 1005.40   21.90
   0   3   1 1003.80   21.70
   1   3  -1   57.29    2.90
  -1  -3  -1   61.79    2.40
   1  -3   1   57.89    2.90
   1   3  -1   56.79    2.50
  -1   3   1   59.59    2.80
   1  -3  -1   59.09    3.00
  -1   3  -1   56.69    2.90
  -1  -3   1   62.19    2.50
  -1  -3   1   59.69    2.40
   1   3   1   58.29    2.60
   2   3  -1  502.95   11.90
  -2   3   1  500.75   12.00
  -2  -3  -1  510.55   12.20
   2  -3   1  498.55   12.20
  -2   3  -1  511.15   12.20
   2  -3  -1  492.75   12.30
   2   3   1  497.45   12.00
  -2  -3   1  519.05   12.30
  -3  -3  -1  252.37    7.30
  -3   3   1  244.68    7.10
   3  -3   1  242.88    7.30
   3   3  -1  248.98    7.20
   3  -3  -1  244.98    7.40
  -3  -3   1  231.28    7.30
   3   3   1  242.48    7.10
  -3   3  -1  239.18    7.20
  -4   3   1  239.08    7.60
   4  -3   1  244.28    7.60
  -4  -3  -1  232.58    7.80
   4   3  -1  243.08    7.80
   4   3   1  242.38    7.70
  -4   3  -1  240.88    7.70
   4  -3  -1  241.38    7.70
  -4  -3   1  228.18    7.80
  -5   3   1  126.89    5.90
   5   3  -1  137.19    6.30
  -5  -3  -1  121.39    6.40
   5  -3   1  126.29    5.80
  -5   3  -1  125.29    6.00
   5  -3  -1  127.29    4.80
  -5  -3   1  113.79    6.10
   5  -3  -1  136.69    6.00
   5   3   1  139.19    6.30
   6  -3   1   36.90    3.70
  -6  -3  -1   20.10    4.30
  -6   3   1   30.70    4.00
   6   3  -1   38.70    4.40
   6  -3  -1   35.80    3.70
  -6   3  -1   28.40    3.90
   6   3   1   37.60    4.50
  -6  -3   1   31.30    4.60
   0   4   1  711.73   15.70
   0  -4   1  713.43   16.40
   0  -4  -1  704.13   16.50
   0   4  -1  719.93   16.70
   0   4   1  712.83   16.40
   1   4  -1  165.38    4.90
  -1  -4  -1  179.68    5.30
   1  -4   1  172.68    5.60
  -1   4   1  175.28    5.60
   1   4  -1  167.38    5.60
   1  -4  -1  175.88    5.80
   1   4   1  173.68    5.10
  -1   4  -1  174.58    5.70
  -1  -4   1  173.78    5.10
   1   4   1  164.48    5.40
   2  -4   1  329.77    9.20
  -2   4   1  341.17    9.10
   2   4  -1  343.77    8.80
  -2  -4  -1  327.37    9.10
  -2   4  -1  331.37    9.20
   2   4   1  320.97    8.70
   2  -4  -1  330.87    9.30
  -2  -4   1  336.67    9.30
  -3   4   1   43.10    3.30
  -3  -4  -1   38.90    3.50
   3  -4   1   37.90    3.60
   3   4  -1   40.00    3.50
  -3   4  -1   36.90    3.30
  -3  -4   1   41.40    3.60
   3   4   1   41.00    3.50
   3  -4  -1   41.40    3.80
  -4  -4  -1   29.50    3.30
   4  -4   1   30.90    3.50
  -4   4   1   40.50    3.70
   4   4  -1   34.00    3.40
   4  -4  -1   35.80    3.70
   4   4   1   34.40    3.50
  -4   4  -1   38.00    3.80
  -4  -4   1   30.40    3.40
  -5   4   1   32.90    3.90
  -5  -4  -1   24.60    3.70
   5   4  -1   37.50    4.10
   5  -4   1   37.40    3.90
   5   4   1   35.40    4.00
  -5  -4   1   27.10    3.80
   5  -4  -1   31.90    3.80
  -5   4  -1   32.10    3.80
   6  -4   1    9.00    3.20
  -6  -4  -1    4.50    3.80
  -6   4   1    5.10    2.90
   6   4  -1    8.30    3.50
   6  -4  -1   11.40    3.20
  -6  -4   1   -0.90    3.80
  -6   4  -1    2.80    2.80
   6   4   1    5.50    3.60
   0  -5  -1    7.30    2.00
   0  -5   1    8.80    2.00
   0   5  -1    7.80    2.10
   0   5   1    8.60    2.10
   1   5  -1   16.20    2.50
   1   5  -1   19.40    2.00
  -1   5   1   18.70    2.50
   1  -5   1   13.90    2.40
  -1  -5  -1   17.90    2.30
   1   5   1   16.90    2.40
  -1  -5   1   16.90    2.20
   1  -5  -1   16.10    2.50
  -1   5  -1   18.50    2.60
   1   5   1   19.00    2.10
  -2  -5  -1  164.48    5.20
  -2  -5  -1  154.68    6.00
   2   5  -1  158.88    5.60
  -2   5   1  163.78    6.10
   2  -5   1  148.59    6.10
  -2  -5   1  163.38    5.10
  -2   5  -1  161.58    6.20
  -2  -5   1  165.18    6.30
   2  -5  -1  157.68    6.40
   2   5   1  152.28    5.70
   3  -5   1  131.09    6.10
  -3   5   1  136.49    5.90
  -3  -5  -1  132.99    5.90
   3   5  -1  135.39    5.70
  -3  -5   1  135.59    6.10
   3  -5  -1  139.19    6.30
  -3   5  -1  135.39    6.00
   3   5   1  141.19    5.90
   4   5  -1   12.20    2.90
  -4   5   1   14.60    2.80
  -4  -5  -1   11.90    2.90
   4  -5   1   15.60    3.10
  -4  -5   1    7.60    2.80
  -4   5  -1   12.30    2.80
   4  -5  -1   15.10    3.10
   4   5   1   17.50    3.10
  -5   5   1    6.40    2.80
   5   5  -1    7.60    3.30
  -5  -5  -1   14.80    3.50
   5  -5   1   20.30    3.50
  -5  -5   1    4.60    3.20
   5  -5  -1   20.10    3.70
   5   5   1   16.40    3.60
  -5   5  -1    9.50    3.00
   0  -6  -1  262.77    7.30
   0   6  -1  264.87    8.70
   0   6   1  274.07    8.70
   0  -6   1  277.27    8.50
   0  -6  -1  257.17    8.40
  -1   6   1   43.10    3.90
  -1  -6  -1   35.70    3.50
   1   6  -1   37.30    3.70
   1   6  -1   38.80    3.00
   1  -6   1   40.50    3.80
   1   6   1   40.60    3.70
  -1   6  -1   35.40    3.70
  -1  -6   1   38.30    3.30
   1  -6  -1   37.60    3.90
   1   6   1   36.30    3.10
  -2   6   1  187.58    7.40
  -2  -6  -1  197.48    7.30
   2  -6   1  181.18    7.50
   2   6  -1  195.08    6.60
  -2  -6  -1  207.18    6.40
  -2   6  -1  199.58    7.60
  -2  -6   1  190.68    6.20
  -2  -6   1  194.88    7.60
   2   6   1  199.98    6.80
   2  -6  -1  186.38    7.60
  -3   6   1   27.40    3.60
   3   6  -1   18.50    3.00
  -3  -6  -1   24.70    3.40
   3  -6   1   29.70    3.90
   3  -6  -1   25.20    3.50
   3   6   1   15.80    3.10
  -3   6  -1   23.10    3.50
  -3  -6   1   21.20    3.30
  -4   6   1   38.50    4.30
   4   6  -1   39.50    4.10
   4  -6   1   39.90    4.40
  -4  -6  -1   31.60    4.00
  -4  -6   1   33.40    4.20
   4   6   1   36.20    4.10
  -4   6  -1   28.20    3.80
   4  -6  -1   35.00    4.30
  -5   6   1   11.60    3.30
   5  -6   1   14.40    3.60
   5   6  -1    9.00    3.60
  -5  -6  -1    9.10    3.70
  -5   6  -1   12.10    3.50
  -5  -6   1    6.20    3.50
   5  -6  -1   15.40    3.80
   5   6   1   10.70    3.80
   0  -7  -1  125.49    6.10
   0   7   1  127.09    6.30
   0   7  -1  134.49    6.50
   0  -7   1  118.49    5.90
  -1   7   1   69.49    5.10
   1   7  -1   66.19    5.10
   1   7  -1   67.19    3.80
  -1  -7  -1   67.69    4.40
   1  -7   1   64.09    5.10
   1  -7  -1   68.29    5.10
  -1  -7   1   63.39    4.40
  -1   7  -1   59.59    5.20
   1   7   1   59.99    3.80
  -2  -7  -1   46.70    4.50
  -2  -7  -1   41.10    4.80
  -2   7   1   42.80    4.30
   2  -7   1   51.29    5.10
   2   7  -1   40.80    3.90
   2  -7  -1   46.70    4.60
  -2   7  -1   52.09    4.90
  -2  -7   1   46.40    4.60
   2   7   1   40.00    3.60
   3   7  -1   44.90    4.10
  -3   7   1   42.00    4.60
   3  -7   1   37.80    4.40
  -3  -7  -1   42.60    4.50
  -3  -7   1   43.40    4.60
   3  -7  -1   43.20    4.70
  -3   7  -1   45.40    4.90
   3   7   1   44.70    4.30
  -4  -7  -1   11.60    3.60
   4  -7   1   20.40    4.00
  -4   7   1   11.20    3.30
   4   7  -1   10.60    3.40
  -4   7  -1   10.10    3.20
   4   7   1    7.50    3.40
  -4  -7   1   10.10    3.70
   4  -7  -1   18.80    4.00
   0   8  -1    1.20    3.10
   0  -8  -1    1.10    2.70
   0   8   1    3.00    3.10
   0  -8   1    0.60    2.70
  -1   8   1   -2.10    2.70
  -1  -8  -1    1.50    2.50
   1  -8   1    4.70    3.10
   1  -8  -1   -0.70    2.80
  -1   8  -1   -2.10    2.80
  -1  -8   1    1.60    2.50
   2  -8   1   19.90    3.90
  -2  -8  -1   17.30    3.50
  -2   8   1    8.80    3.40
  -2  -8   1   14.50    3.60
  -2   8  -1   14.10    3.80
   2  -8  -1   16.10    3.80
   0   0   2   31.20    1.20
   0   0   2   32.70    1.30
   0   0  -2   33.60    1.30
   1   0   2 4963.00  103.09
  -1   0   2 4899.71  102.59
  -1   0   2 5110.19  103.69
  -1   0  -2 4927.51  103.09
   1   0   2 4989.90  104.09
   1   0  -2 5120.29  103.49
  -1   0  -2 4862.81  102.29
   1   0  -2 4968.10  102.79
  -1   0  -2 5054.99  103.89
   1   0  -2 4835.52  102.89
   1   0   2 4781.42  102.39
   2   0   2  316.87    7.30
   2   0  -2  307.27    7.50
   2   0  -2  296.27    8.30
   2   0  -2  326.47    7.20
  -2   0  -2  324.77    7.40
  -2   0  -2  319.87    7.70
  -2   0   2  314.27    7.20
  -2   0  -2  321.47    7.30
   2   0   2  304.67    7.40
  -2   0   2  327.17    7.70
   3   0  -2  827.22   18.40
  -3   0   2  850.51   18.90
   3   0   2  810.02   18.30
  -3   0  -2  864.11   18.20
  -3   0  -2  824.02   18.80
   3   0   2  818.42   18.00
   4   0  -2  446.46   11.00
  -4   0  -2  424.66   11.30
   4   0   2  450.95   10.90
  -4   0   2  432.56   11.40
   5   0  -2   52.19    4.10
  -5   0   2   47.30    4.50
  -5   0  -2   51.09    4.20
   5   0   2   51.79    4.10
  -6   0   2   20.60    3.60
   6   0  -2   19.20    3.30
   6   0   2   20.90    3.10
  -6   0  -2   13.90    3.30
   7   0  -2    8.00    3.40
  -7   0   2    9.00    3.60
   7   0   2    9.70    3.30
  -7   0  -2   11.20    3.80
   0  -1  -2 1445.06   30.50
   0   1  -2 1459.45   30.60
   0   1   2 1479.25   30.50
   0  -1  -2 1475.15   30.50
   0  -1   2 1480.35   30.60
   0  -1   2 1466.25   30.50
   0  -1   2 1483.85   30.20
   0   1  -2 1454.75   30.20
   0   1  -2 1478.15   30.70
  -1  -1  -2 1543.35   31.00
   1  -1   2 1470.05   31.10
  -1  -1  -2 1468.95   30.70
  -1   1   2 1463.15   31.10
   1  -1   2 1563.24   31.10
  -1   1   2 1471.75   30.90
  -1   1   2 1480.85   30.80
   1   1  -2 1451.05   30.90
   1  -1  -2 1482.15   31.10
  -1   1  -2 1507.05   31.10
   1   1   2 1464.05   31.00
   1  -1  -2 1467.15   30.90
  -1   1  -2 1567.04   31.20
  -1  -1   2 1475.45   31.10
   1  -1  -2 1471.65   30.80
  -1  -1   2 1459.55   31.10
   1   1   2 1443.76   31.00
   1   1   2 1461.75   30.70
  -1  -1   2 1494.15   31.00
  -2   1   2 2098.29   42.80
   2  -1   2 2012.20   42.50
  -2   1   2 2010.00   42.90
   2  -1   2 2064.19   43.00
   2   1  -2 2069.79   43.00
  -2  -1  -2 2042.10   43.10
  -2   1   2 2081.29   42.90
  -2  -1   2 2099.29   43.20
   2   1   2 2003.10   43.00
  -2   1  -2 2064.39   43.10
  -2   1  -2 2149.98   42.50
   2  -1  -2 2039.10   42.80
   2  -1  -2 1988.00   42.90
   3  -1   2  187.18    5.20
   3  -1   2  180.08    4.90
  -3  -1  -2  184.48    5.70
   3   1  -2  172.08    5.30
  -3   1   2  175.78    5.20
  -3   1  -2  188.08    5.50
   3  -1  -2  169.08    5.10
  -3  -1   2  173.78    5.50
   3  -1  -2  179.88    5.00
   3   1   2  186.88    5.40
   4  -1   2   56.09    3.10
  -4  -1  -2   48.90    3.50
   4  -1   2   57.89    3.10
   4   1  -2   56.99    3.50
  -4   1   2   56.99    3.40
   4  -1  -2   52.89    3.10
  -4   1  -2   61.79    3.50
   4   1   2   52.29    3.50
   4  -1  -2   53.29    3.10
  -4  -1   2   53.39    3.50
  -5   1   2  185.88    7.00
   5  -1   2  187.58    6.20
  -5  -1  -2  190.58    7.50
   5   1  -2  187.88    7.00
   5  -1   2  199.98    6.40
   5   1   2  201.38    6.90
   5  -1  -2  199.38    6.70
   5  -1  -2  181.28    6.10
  -5   1  -2  190.88    7.10
  -5  -1   2  191.48    7.80
   6  -1   2   59.89    4.30
  -6   1   2   53.89    5.00
   6   1  -2   60.79    5.20
  -6  -1  -2   59.69    5.40
  -6  -1   2   61.79    5.80
   6  -1  -2   56.69    4.80
   6   1   2   54.79    5.00
  -6   1  -2   53.09    5.00
  -7  -1  -2    5.00    3.60
  -7   1   2    6.60    3.60
   7   1  -2    4.70    3.60
   7  -1   2    2.50    4.40
   7  -1  -2    8.30    3.20
  -7  -1   2    7.70    3.90
   7   1   2    7.00    3.40
  -7   1  -2    3.60    3.40
   0   2   2   11.50    1.30
   0   2   2   11.70    1.20
   0  -2   2   12.10    1.30
   0   2  -2   12.00    1.30
   0   2  -2   13.60    1.30
   0  -2  -2   10.10    1.10
   0  -2  -2   11.80    1.10
   0  -2  -2   11.50    1.10
  -1  -2  -2  452.05   10.20
  -1   2   2  454.85   10.00
   1  -2   2  452.95   10.50
  -1   2   2  439.86   10.50
  -1  -2  -2  457.85   10.20
   1   2  -2  462.25   10.50
  -1   2   2  452.15   10.20
   1   2  -2  470.05   10.00
  -1  -2  -2  442.96    9.90
   1   2  -2  449.86   10.10
  -1  -2   2  449.76   10.10
  -1  -2   2  436.16    9.90
   1  -2  -2  447.66    9.90
  -1   2  -2  447.86   10.50
   1  -2  -2  451.35   10.10
   1   2   2  445.26   10.30
   1   2   2  452.95   10.00
  -2  -2  -2  110.19    3.80
   2   2  -2  101.79    3.60
  -2   2   2  109.09    3.10
  -2   2   2  104.19    3.70
   2  -2   2  102.39    3.90
  -2   2   2  108.49    3.50
   2   2   2  105.69    3.70
  -2   2  -2  103.79    3.70
  -2  -2   2   92.49    3.80
   2  -2  -2  111.09    3.20
  -3   2   2  119.59    4.10
   3  -2   2  121.59    4.40
  -3  -2  -2  121.39    4.40
   3   2  -2  110.99    4.30
   3  -2  -2  115.49    3.70
  -3   2  -2  121.29    4.40
   3   2   2  119.89    4.40
   3  -2  -2  118.09    4.40
  -3  -2   2  118.59    4.40
   4   2  -2  123.59    5.00
   4  -2   2  125.69    4.90
  -4   2   2  119.09    4.80
  -4  -2  -2  110.59    5.10
   4  -2  -2  119.39    4.80
  -4   2  -2  116.39    4.90
   4   2   2  118.09    4.90
  -4  -2   2  114.59    5.10
   4  -2  -2  118.09    4.30
  -5  -2  -2    5.80    2.90
   5  -2   2   12.30    2.40
   5  -2   2    8.00    2.10
  -5   2   2   11.20    2.50
   5   2  -2    7.50    2.70
   5  -2  -2   10.90    2.40
  -5   2  -2   10.90    2.70
   5  -2  -2    6.60    2.20
  -5  -2   2    8.10    2.90
   5   2   2    6.20    2.70
   6   2  -2   49.10    4.70
  -6   2   2   47.30    4.70
  -6  -2  -2   42.90    4.70
   6  -2   2   51.79    4.60
   6  -2   2   53.79    5.20
   6  -2  -2   47.60    4.50
  -6   2  -2   35.70    4.10
   6   2   2   50.99    4.70
  -6  -2   2   40.10    4.80
   7   2  -2    8.00    3.80
  -7   2   2    1.20    3.00
  -7  -2  -2    2.90    4.00
   7   2   2    9.10    3.70
  -7  -2   2    8.50    4.40
  -7   2  -2    1.80    3.10
   0   3   2  126.19    4.10
   0   3  -2  134.79    4.40
   0   3   2  135.19    4.10
   0  -3   2  133.79    4.20
  -1   3   2  197.78    5.50
   1  -3   2  186.38    5.60
   1   3  -2  197.88    5.70
   1   3  -2  186.98    5.10
   1   3  -2  195.98    5.10
  -1  -3  -2  182.48    5.40
  -1  -3   2  193.68    5.10
   1   3   2  193.58    5.40
  -1   3  -2  190.08    5.70
   1  -3  -2  191.98    4.80
   1   3   2  187.48    5.10
   1  -3  -2  190.98    4.80
  -2   3   2  126.79    4.10
   2  -3   2  128.49    4.60
  -2   3   2  129.99    4.30
   2   3  -2  130.09    4.30
  -2  -3  -2  128.59    4.40
   2   3   2  131.19    4.50
  -2   3  -2  125.79    4.50
   2  -3  -2  132.69    3.70
  -2  -3   2  133.19    4.70
  -3   3   2  203.18    6.20
  -3  -3  -2  200.48    6.40
   3  -3   2  194.78    6.40
   3   3  -2  204.58    6.30
   3   3   2  193.88    6.30
   3  -3  -2  196.98    6.50
  -3   3  -2  201.98    6.50
   3  -3  -2  199.38    5.30
  -3  -3   2  198.48    6.50
  -4   3   2    6.70    2.00
   4  -3   2    6.10    2.30
  -4  -3  -2    5.00    2.30
   4   3  -2    7.00    2.30
   4  -3  -2    7.80    2.40
   4   3   2    5.40    2.30
   4  -3  -2    8.40    1.70
  -4  -3   2    3.40    2.20
  -4   3  -2    5.00    2.00
  -5   3   2    1.60    2.10
   5   3  -2    3.70    2.80
  -5  -3  -2    6.40    2.90
   5  -3   2    6.40    2.50
   5  -3  -2    3.00    2.40
   5  -3  -2    4.50    2.00
  -5  -3   2   -2.00    2.40
  -5   3  -2    1.20    2.30
   5   3   2    4.20    2.80
   6  -3   2   18.10    3.20
  -6   3   2   13.80    3.20
   6   3  -2   14.20    3.60
  -6  -3  -2   11.80    3.80
  -6   3  -2   14.00    3.30
  -6  -3   2   11.20    3.70
   6  -3  -2   17.20    3.10
   6   3   2   14.60    3.70
   0   4  -2    9.80    1.90
   0  -4   2   10.50    1.70
   0   4   2   13.00    1.80
  -1   4   2   90.39    3.90
   1   4  -2   88.49    4.00
   1   4  -2   84.99    3.30
   1  -4   2   89.39    4.00
  -1   4  -2   89.49    4.00
  -1  -4   2   87.99    3.50
   1   4   2   89.49    3.50
   1  -4  -2   87.39    3.00
  -2   4   2   49.50    3.20
   2  -4   2   49.90    3.40
  -2  -4  -2   49.50    3.20
   2   4  -2   48.90    3.00
  -2   4  -2   56.39    3.50
  -2  -4   2   51.19    3.40
   2   4   2   49.20    3.20
   2  -4  -2   45.30    3.40
   3   4  -2  168.08    6.00
  -3   4   2  173.48    6.00
   3  -4   2  170.78    6.30
  -3  -4  -2  168.58    6.10
   3  -4  -2  169.48    6.40
  -3  -4   2  162.88    6.20
  -3   4  -2  165.48    6.20
   3   4   2  161.38    6.10
   4   4  -2   35.00    3.50
   4  -4   2   37.50    3.80
  -4   4   2   32.70    3.40
  -4  -4  -2   36.90    3.60
   4  -4  -2   31.60    3.60
   4   4   2   35.80    3.60
  -4  -4   2   30.20    3.50
  -4   4  -2   35.60    3.70
   5   4  -2   50.79    4.50
  -5   4   2   44.60    4.30
  -5  -4  -2   41.90    4.40
   5  -4   2   51.79    4.90
  -5  -4   2   41.30    4.50
   5   4   2   44.50    4.30
   5  -4  -2   50.29    4.40
  -5   4  -2   48.20    4.50
  -6  -4  -2    1.60    3.60
   6  -4   2   10.60    3.30
  -6   4   2    4.20    2.90
   6   4  -2    3.50    3.50
   6  -4  -2    9.90    3.20
   6   4   2    8.20    3.80
  -6  -4   2   -2.40    3.70
  -6   4  -2    4.10    2.90
   0   5   2   49.70    3.40
   0  -5   2   53.89    3.40
   0  -5  -2   53.79    2.90
   0  -5  -2   48.80    3.50
   0   5  -2   48.60    3.60
  -1   5   2  113.29    4.80
   1   5  -2  116.79    4.10
  -1  -5  -2  123.79    4.70
   1  -5   2  118.09    5.10
   1   5  -2  112.49    5.10
  -1   5  -2  116.99    5.20
   1  -5  -2  102.49    5.00
   1   5   2  113.89    4.40
  -1  -5   2  107.49    4.50
   2   5  -2  446.76   11.40
  -2  -5  -2  434.16   11.90
  -2   5   2  440.56   11.90
   2  -5   2  431.36   12.10
  -2  -5  -2  466.35   11.20
   2   5   2  463.55   11.70
  -2  -5   2  448.86   12.30
  -2   5  -2  443.26   12.30
  -2  -5   2  475.85   10.90
   2  -5  -2  443.06   12.40
   3  -5   2  210.98    7.60
   3   5  -2  201.78    7.00
  -3   5   2  198.98    7.20
  -3  -5  -2  207.18    7.30
   3   5   2  213.08    7.40
  -3  -5   2  202.08    7.50
  -3   5  -2  205.08    7.50
   3  -5  -2  193.08    7.60
   4  -5   2    7.70    2.80
  -4   5   2    0.60    2.20
   4   5  -2    2.00    2.40
  -4  -5  -2    4.00    2.50
  -4   5  -2    0.50    2.20
   4  -5  -2    0.30    2.50
  -4  -5   2    2.40    2.60
   4   5   2    3.80    2.60
  -5  -5  -2   11.60    3.40
  -5   5   2   11.80    2.90
   5   5  -2   10.60    3.30
   5  -5   2   19.00    3.40
  -5  -5   2    8.10    3.30
   5   5   2   19.70    3.80
   5  -5  -2   13.50    3.40
  -5   5  -2   13.20    3.20
   0  -6  -2   18.80    2.20
   0   6   2   21.10    2.90
   0  -6   2   14.70    2.60
   0   6  -2   19.60    3.10
   0  -6  -2   16.20    2.90
   1  -6   2   88.49    5.00
  -1  -6  -2   82.89    4.50
   1   6  -2   87.69    3.80
   1   6  -2   88.19    5.10
  -1   6   2   84.09    4.90
  -1  -6   2   83.29    4.40
   1   6   2   79.29    4.20
  -1   6  -2   81.99    5.10
   1  -6  -2   85.19    5.20
   2   6  -2   10.10    2.20
  -2  -6  -2   12.00    2.60
  -2   6   2   17.30    3.00
  -2  -6  -2   11.80    2.30
   2  -6   2   13.40    3.00
   2   6   2   19.80    2.90
   2  -6  -2   13.40    3.10
  -2   6  -2   15.20    3.10
  -2  -6   2   12.80    2.20
  -2  -6   2   13.20    2.90
  -3  -6  -2  153.58    6.70
   3   6  -2  144.49    6.30
  -3   6   2  158.18    6.70
   3  -6   2  152.38    7.00
   3   6   2  158.68    6.70
  -3  -6   2  158.58    7.00
   3  -6  -2  166.78    7.30
  -3   6  -2  153.78    7.00
  -4  -6  -2    4.80    2.90
   4  -6   2    6.60    3.00
   4   6  -2    7.10    2.90
  -4   6   2    3.70    2.60
  -4  -6   2    8.40    3.20
   4   6   2   10.20    3.20
  -4   6  -2    7.30    2.90
   4  -6  -2    9.80    3.30
  -5   6   2   25.10    3.90
   5   6  -2   29.30    4.30
  -5  -6  -2   24.90    4.20
   5  -6   2   26.10    4.00
   5   6   2   27.60    4.50
  -5   6  -2   23.20    4.00
   5  -6  -2   29.10    4.40
  -5  -6   2   20.70    4.30
   0   7   2   54.99    4.70
   0  -7  -2   44.20    4.20
   0  -7  -2   54.39    3.50
   0   7  -2   51.89    4.80
   0  -7   2   52.19    4.50
  -1   7   2   60.99    4.70
   1   7  -2   57.49    5.00
   1  -7   2   57.19    4.90
  -1  -7  -2   56.49    4.30
  -1  -7   2   57.39    4.20
   1  -7  -2   59.59    5.10
  -1   7  -2   49.90    5.00
  -2  -7  -2   12.20    3.10
  -2  -7  -2    7.70    2.70
   2  -7   2    8.30    3.00
   2   7  -2    6.50    2.30
  -2   7   2    5.00    2.80
   2  -7  -2    5.20    2.80
  -2  -7   2    5.20    2.80
   2   7   2    4.50    2.40
  -2   7  -2    7.40    3.00
  -3   7   2   46.90    4.80
   3  -7   2   47.10    4.80
  -3  -7  -2   40.20    4.40
   3   7  -2   49.20    4.30
  -3   7  -2   42.20    4.60
   3  -7  -2   49.80    5.10
  -3  -7   2   48.00    4.80
   3   7   2   44.20    4.30
  -4  -7  -2   52.69    5.20
  -4   7   2   48.30    5.00
   4   7  -2   65.49    5.50
   4  -7   2   67.59    6.10
   4  -7  -2   66.89    6.30
  -4   7  -2   48.40    5.20
  -4  -7   2   60.09    5.70
   4   7   2   58.09    5.30
   0   8  -2    5.90    3.30
   0  -8   2    8.00    3.10
   0   8   2   12.50    3.40
   0  -8  -2   12.40    3.30
  -1   8   2   29.90    4.20
   1  -8   2   28.70    4.10
  -1  -8  -2   29.10    4.10
  -1  -8  -2   24.90    3.60
   1  -8  -2   31.20    4.30
  -1   8  -2   29.00    4.30
  -1  -8   2   28.40    3.50
  -2  -8  -2    9.30    3.20
   2  -8   2   11.80    3.50
  -2   8   2    9.20    3.30
  -2   8  -2   14.90    3.90
  -2  -8   2   13.30    3.70
   2  -8  -2   10.00    3.50
   2   8   2    5.30    2.80
   0   0   3    1.70    0.70
   0   0  -3    2.40    0.70
   0   0   3    2.30    0.70
  -1   0  -3 5874.51  118.99
   1   0   3 5568.24  117.69
   1   0   3 5679.13  118.99
  -1   0   3 5601.04  118.29
  -1   0   3 5888.11  118.59
   1   0  -3 5582.94  118.59
   1   0   3 5697.93  119.19
  -1   0  -3 5589.14  117.49
   1   0  -3 5743.13  118.79
  -1   0  -3 5700.13  118.89
   1   0  -3 5852.51  118.39
  -2   0  -3  309.17    8.10
  -2   0   3  355.16    8.00
  -2   0  -3  356.56    8.40
   2   0  -3  357.36    9.10
   2   0   3  336.57    8.10
   2   0  -3  353.26    8.30
  -2   0  -3  343.07    8.10
   2   0  -3  356.56    7.90
   2   0   3  348.87    8.00
  -2   0   3  369.76    8.40
  -3   0   3   82.69    3.50
  -3   0  -3   77.59    3.30
   3   0  -3   79.99    2.60
   3   0   3   72.09    3.10
   3   0   3   75.39    2.80
  -3   0   3   79.79    2.80
   3   0  -3   78.39    3.20
   4   0   3   79.79    3.20
  -4   0  -3   74.09    3.90
  -4   0   3   74.09    4.00
   4   0   3   74.29    3.80
   4   0  -3   78.09    3.80
  -5   0   3    7.10    2.70
   5   0   3    4.00    2.20
   5   0  -3    2.50    2.30
  -5   0  -3    3.80    2.40
  -6   0   3    3.50    3.00
   6   0   3    3.50    2.40
   6   0  -3   -0.20    2.70
  -6   0  -3    4.50    2.90
   7   0  -3   33.60    4.30
  -7   0  -3   25.30    4.40
   7   0   3   32.50    4.00
  -7   0   3   27.20    4.40
   0  -1  -3 4631.34   94.99
   0  -1   3 4574.74   94.99
   0   1   3 4466.75   95.09
   0  -1   3 4498.65   93.39
   0  -1   3 4544.65   93.39
   0   1  -3 4481.55   93.79
   0   1  -3 4588.74   95.29
   0   1  -3 4519.15   93.79
   0  -1  -3 4516.75   93.49
   1  -1   3 6073.79  122.19
  -1  -1  -3 6055.39  123.19
  -1   1   3 5810.72  122.39
   1   1  -3 6028.00  122.59
   1  -1   3 5877.11  122.79
  -1   1   3 5921.41  121.49
   1   1  -3 5948.50  122.39
  -1  -1  -3 5777.12  122.09
  -1   1  -3 6019.10  123.29
   1  -1  -3 6014.50  122.59
  -1   1  -3 5880.91  122.89
  -1  -1   3 5843.52  121.19
   1   1   3 5927.71  122.59
   1   1   3 5785.32  121.89
   1  -1  -3 5792.52  121.99
   1   1   3 5673.93  122.69
  -1  -1   3 5861.81  122.19
  -1  -1   3 5773.92  121.49
  -1  -1   3 5890.11  122.39
   2   1  -3    2.00    1.20
  -2   1   3    5.50    1.30
   2  -1   3    2.60    1.10
   2  -1   3    5.60    0.90
  -2   1   3    6.50    1.10
  -2  -1  -3    6.20    1.20
  -2  -1  -3    7.80    0.90
   2   1   3    5.60    1.30
   2   1   3    6.20    0.90
   2  -1  -3    6.00    1.20
   2  -1  -3    6.90    1.10
  -2  -1   3    4.40    1.20
  -2   1  -3    4.40    1.10
  -3  -1  -3   51.79    2.90
  -3   1   3   47.70    2.60
   3  -1   3   52.29    2.70
  -3   1   3   53.69    2.70
   3  -1   3   54.39    2.40
   3   1  -3   50.39    2.80
  -3   1  -3   48.70    2.80
  -3  -1   3   56.69    2.90
   3  -1  -3   48.70    2.60
   3   1   3   48.80    2.80
  -4  -1  -3  106.29    4.90
   4  -1   3  117.79    4.30
   4  -1   3  113.29    4.40
   4   1  -3  120.29    4.80
  -4   1   3  129.59    4.80
   4  -1  -3  113.69    4.40
   4  -1  -3  120.99    4.50
   4   1   3  124.79    4.90
  -4   1  -3  114.39    4.90
  -4  -1   3  113.39    5.10
   5   1  -3   51.79    4.40
   5  -1   3   49.90    3.70
   5  -1   3   56.09    3.80
  -5   1   3   62.69    4.30
  -5  -1  -3   46.10    4.50
  -5  -1   3   50.79    5.00
  -5   1  -3   46.20    4.20
   5  -1  -3   38.50    3.60
   5  -1  -3   48.10    4.00
   5   1   3   56.39    4.30
  -6   1   3   13.20    3.10
   6  -1   3   11.40    2.50
  -6  -1  -3   11.10    3.30
   6   1  -3   12.60    3.30
  -6   1  -3    5.20    2.90
  -6  -1   3   17.50    3.90
   6   1   3   11.50    3.10
   6  -1  -3   11.30    2.90
  -7  -1  -3    5.60    3.90
  -7   1   3    8.60    3.60
   7   1  -3   11.50    3.80
   7  -1  -3   11.50    3.50
  -7   1  -3    8.50    3.60
   7   1   3   13.10    3.50
  -7  -1   3   13.20    4.20
   0   2   3  241.88    6.00
   0   2  -3  207.98    5.80
   0  -2  -3  237.38    5.80
   0  -2   3  231.48    5.90
   0  -2  -3  238.38    5.60
   0   2  -3  234.08    6.10
   0   2   3  237.38    5.60
   0  -2  -3  241.88    5.80
   0  -2  -3  245.38    6.30
   1   2  -3  685.73   14.90
  -1  -2  -3  704.13   14.90
  -1   2   3  698.83   14.80
   1   2  -3  695.73   14.80
   1   2  -3  669.23   15.20
  -1   2   3  670.43   15.30
  -1  -2  -3  687.73   14.80
  -1  -2  -3  703.83   14.90
   1  -2   3  675.33   15.30
  -1   2   3  679.33   14.90
   1   2   3  687.43   14.80
  -1  -2   3  666.13   14.70
   1  -2  -3  673.03   14.70
   1   2   3  679.73   15.10
  -1  -2   3  685.93   14.90
   1  -2  -3  675.03   14.80
  -1   2  -3  673.33   15.30
  -2   2   3  592.24   13.20
  -2   2   3  562.14   13.50
   2  -2   3  575.94   13.60
  -2  -2  -3  600.84   13.40
   2   2  -3  581.64   13.40
  -2   2  -3  592.54   13.60
   2   2   3  593.74   13.50
  -2  -2   3  593.24   13.70
   2  -2  -3  584.44   13.00
   3  -2   3  156.58    5.10
  -3  -2  -3  146.59    5.00
   3   2  -3  150.48    5.00
  -3   2   3  150.88    4.80
  -3   2  -3  152.28    5.20
   3  -2  -3  147.79    4.60
  -3  -2   3  154.98    5.20
   3   2   3  151.88    5.10
  -4  -2  -3    7.00    2.20
   4   2  -3    8.00    2.20
  -4   2   3    6.40    1.80
   4  -2   3    7.50    2.10
  -4  -2   3    8.80    2.20
   4  -2  -3    4.90    1.90
   4  -2  -3    6.10    1.70
   4   2   3    5.90    2.10
  -4   2  -3    7.50    2.00
  -5   2   3  250.47    8.30
   5  -2   3  269.07    7.30
   5  -2   3  264.77    8.00
  -5  -2  -3  235.78    8.90
   5   2  -3  261.17    8.60
  -5  -2   3  246.48    9.10
   5  -2  -3  254.77    8.00
   5  -2  -3  258.27    7.70
   5   2   3  264.67    8.60
  -5   2  -3  248.28    8.60
  -6   2   3   37.20    4.00
  -6  -2  -3   46.70    4.90
   6  -2   3   42.40    4.10
   6   2  -3   51.29    4.80
  -6  -2   3   47.30    5.30
  -6   2  -3   40.40    4.30
   6   2   3   53.79    4.70
   6  -2  -3   50.39    4.60
   0  -3  -3   16.20    1.60
   0  -3   3   15.70    1.70
   0   3   3   15.40    1.50
   0   3  -3   14.10    1.70
   0   3   3   19.90    1.90
   1  -3   3  848.02   19.30
   1   3  -3  857.01   19.30
  -1  -3  -3  863.51   18.90
  -1   3   3  873.81   18.90
  -1   3   3  840.82   19.30
   1   3  -3  859.01   18.60
  -1   3  -3  867.91   19.40
  -1  -3   3  854.41   18.60
   1   3   3  859.91   18.80
   1   3   3  868.81   19.00
   1  -3  -3  849.91   18.50
   2  -3   3  129.29    4.80
   2   3  -3  142.69    4.50
  -2   3   3  137.89    4.40
  -2   3   3  135.49    4.80
  -2  -3  -3  131.89    4.50
   2   3   3  141.09    4.00
  -2   3  -3  132.39    4.80
   2   3   3  135.09    4.70
  -2  -3   3  142.79    4.90
   2  -3  -3  139.19    4.00
  -3   3   3  222.38    6.50
   3  -3   3  217.78    6.80
   3   3  -3  218.48    6.70
  -3  -3  -3  217.28    6.70
  -3  -3   3  222.38    7.00
  -3   3  -3  206.88    6.80
   3  -3  -3  219.18    5.90
   3   3   3  213.78    6.80
   4   3  -3   71.79    4.40
   4  -3   3   63.89    4.30
  -4  -3  -3   63.89    4.20
  -4   3   3   73.89    4.10
   4  -3  -3   76.19    3.50
  -4  -3   3   59.09    4.30
  -4   3  -3   67.79    4.30
   4  -3  -3   66.59    4.50
   4   3   3   70.69    4.50
   5   3  -3   55.99    4.80
   5  -3   3   64.59    4.60
  -5  -3  -3   47.20    4.70
  -5   3   3   52.29    4.20
  -5   3  -3   49.80    4.40
   5  -3  -3   59.19    4.70
   5   3   3   58.79    5.00
   5  -3  -3   53.19    3.70
  -5  -3   3   49.10    4.70
  -6  -3  -3   -1.40    3.30
   6   3  -3    1.30    3.20
  -6   3   3   -0.30    2.40
   6  -3   3    0.60    2.80
   6   3   3    1.80    3.10
  -6  -3   3   -3.60    3.20
  -6   3  -3    3.50    2.70
   6  -3  -3    3.70    2.70
   0   4   3  612.74   14.20
   0  -4  -3  605.04   14.00
   0   4  -3  617.04   14.80
   0  -4   3  613.74   14.40
   0   4   3  617.74   14.50
   1  -4   3  222.98    6.80
  -1   4   3  232.28    6.60
   1   4  -3  217.78    6.80
  -1  -4  -3  227.18    6.50
   1   4  -3  225.38    6.10
  -1   4   3  229.08    6.90
  -1   4  -3  223.58    6.90
   1   4   3  224.88    6.40
   1  -4  -3  223.48    5.90
   1   4   3  231.38    6.40
  -1  -4   3  227.58    6.30
   2   4  -3  162.28    5.30
  -2  -4  -3  156.48    5.40
  -2   4   3  159.18    5.40
   2  -4   3  165.08    5.80
   2   4   3  153.38    4.70
   2  -4  -3  157.58    4.60
  -2   4  -3  156.18    5.80
   2   4   3  158.78    5.50
  -2  -4   3  160.28    5.80
  -3  -4  -3  244.88    7.70
  -3   4   3  251.87    7.50
   3   4  -3  239.28    7.50
   3  -4   3  242.48    7.90
   3  -4  -3  246.48    8.10
   3  -4  -3  243.88    6.50
   3   4   3  246.68    7.80
  -3  -4   3  254.07    8.10
  -3   4  -3  241.48    7.90
  -4   4   3   59.19    4.00
  -4  -4  -3   55.89    4.30
   4   4  -3   63.29    4.60
   4  -4   3   49.80    4.60
  -4   4  -3   52.29    4.30
  -4  -4   3   48.90    4.50
   4   4   3   58.49    4.70
   4  -4  -3   59.09    4.80
  -5   4   3    1.90    2.20
   5  -4   3    6.60    2.90
  -5  -4  -3    4.30    3.00
   5   4  -3    5.60    3.00
   5   4   3    8.80    3.20
  -5  -4   3   -1.40    2.80
  -5   4  -3    4.50    2.60
   5  -4  -3    5.70    2.80
  -6  -4  -3    6.20    3.80
   6   4  -3   17.00    4.00
   6  -4   3   14.40    3.40
  -6   4   3    8.40    3.10
   6   4   3   12.00    3.80
  -6  -4   3   -0.30    3.70
  -6   4  -3    7.40    3.10
   6  -4  -3   14.90    3.50
   0  -5   3   70.29    3.90
   0   5  -3   65.09    4.10
   0   5   3   66.79    3.70
   0  -5  -3   67.59    3.40
   1   5  -3  172.28    6.30
  -1   5   3  171.18    5.90
   1  -5   3  167.38    6.20
   1   5  -3  168.58    5.20
  -1  -5   3  170.18    5.70
  -1   5  -3  167.18    6.40
   1  -5  -3  166.28    5.10
   1   5   3  165.18    5.60
   2   5  -3  515.25   12.70
  -2  -5  -3  516.95   13.10
   2  -5   3  499.05   13.40
  -2   5   3  512.65   13.10
   2   5   3  513.15   13.00
  -2   5  -3  494.15   13.60
  -2  -5   3  501.05   13.70
   2  -5  -3  507.45   13.70
  -2  -5   3  527.75   12.20
  -3  -5  -3   14.60    2.70
   3  -5   3   16.90    3.00
  -3   5   3   15.80    2.60
   3   5  -3   16.40    2.70
   3  -5  -3   11.30    2.90
  -3   5  -3   15.40    2.80
   3   5   3    9.90    2.70
  -3  -5   3   15.00    2.90
  -4   5   3   11.20    2.60
  -4  -5  -3   11.90    2.80
   4  -5   3   16.10    3.10
   4   5  -3    9.20    2.80
  -4   5  -3    7.20    2.60
  -4  -5   3   13.20    3.10
   4  -5  -3   16.80    3.30
   4   5   3   15.00    3.20
  -5  -5  -3    8.90    3.20
  -5   5   3    4.70    2.60
   5   5  -3    6.80    3.20
   5  -5   3   10.30    3.10
  -5   5  -3    5.30    2.80
  -5  -5   3    2.90    3.10
   5   5   3    6.50    3.40
   5  -5  -3    6.60    3.30
   0  -6  -3   39.80    3.20
   0   6   3   38.70    3.80
   0   6  -3   42.80    4.20
   0  -6   3   47.70    4.00
   0  -6  -3   41.10    3.80
   1   6  -3   13.60    2.90
  -1  -6  -3   22.00    2.90
   1  -6   3   18.80    3.10
  -1   6   3   13.60    2.70
   1   6  -3   15.90    2.10
  -1   6  -3   14.70    2.90
   1  -6  -3   15.80    3.00
  -1  -6   3   12.40    2.40
   1  -6  -3   16.90    2.10
   2   6  -3  164.08    5.90
  -2  -6  -3  156.98    6.30
  -2   6   3  161.58    6.60
   2  -6   3  157.98    6.80
  -2  -6  -3  157.98    5.90
   2  -6  -3  157.78    7.10
  -2  -6   3  161.28    5.60
  -2  -6   3  151.68    6.90
  -2   6  -3  148.19    6.90
   2   6   3  155.18    6.30
  -3  -6  -3   16.50    3.00
  -3   6   3   13.00    2.80
   3   6  -3   11.70    2.70
   3  -6   3   21.10    3.50
   3  -6  -3   13.10    3.40
  -3   6  -3   13.20    3.00
  -3  -6   3   12.10    3.00
   3   6   3   13.80    2.90
  -4  -6  -3   37.80    4.20
  -4   6   3   32.10    3.80
   4   6  -3   39.40    4.10
   4  -6   3   37.90    4.30
   4   6   3   31.30    4.10
  -4   6  -3   34.70    4.20
   4  -6  -3   31.60    4.30
  -4  -6   3   37.80    4.40
   5   6  -3    1.10    3.10
   5  -6   3    4.90    3.10
  -5   6   3    1.30    2.70
  -5  -6  -3   -4.20    2.90
  -5   6  -3    2.20    2.90
  -5  -6   3    4.70    3.70
   5   6   3    1.40    3.50
   5  -6  -3    0.60    3.10
   0  -7   3   66.79    4.80
   0   7   3   65.29    4.80
   0  -7  -3   65.89    5.00
   0  -7  -3   60.39    3.80
   0   7  -3   62.59    5.20
  -1  -7  -3   45.00    4.30
   1  -7   3   50.99    4.70
  -1   7   3   49.70    4.50
   1   7  -3   48.60    4.70
  -1  -7  -3   49.70    4.30
   1  -7  -3   55.59    5.00
  -1   7  -3   50.19    5.00
  -1  -7   3   50.89    4.10
   2   7  -3   10.70    2.40
  -2   7   3    9.40    3.00
  -2  -7  -3   12.90    2.80
  -2  -7  -3   16.60    3.10
   2  -7   3    9.60    3.20
   2   7   3    8.90    2.70
  -2  -7   3   11.10    3.30
  -2   7  -3   12.80    3.30
   2  -7  -3   11.80    3.20
  -3   7   3   61.79    5.30
   3  -7   3   56.19    5.30
  -3  -7  -3   57.59    5.20
   3   7  -3   60.49    4.80
   3  -7  -3   61.99    5.70
  -3   7  -3   57.89    5.50
   3   7   3   55.99    5.20
  -3  -7   3   51.99    5.10
  -4   7   3   24.60    3.80
   4  -7   3   28.30    4.30
   4   7  -3   29.70    4.00
  -4  -7  -3   24.80    4.10
  -4   7  -3   24.80    4.20
   4  -7  -3   29.90    4.60
  -4  -7   3   20.90    4.10
   4   7   3   22.00    4.20
   0   8  -3   52.89    5.30
   0  -8  -3   45.40    4.70
   0   8   3   38.60    4.40
   0  -8   3   58.09    5.00
   1   8  -3   11.20    3.80
  -1  -8  -3   10.40    2.90
  -1  -8  -3    8.30    3.00
  -1   8   3    9.10    3.30
   1  -8   3   13.60    3.40
   1  -8  -3   14.00    3.50
  -1   8  -3    6.50    3.30
  -1  -8   3   10.40    2.80
  -2  -8  -3   13.90    3.20
  -2   8   3    8.30    3.20
   2  -8   3   15.00    3.60
   2  -8  -3   10.50    3.60
  -2   8  -3   10.90    3.70
   0   0   4 1497.15   31.20
   0   0  -4 1489.55   31.20
   0   0   4 1500.15   31.20
   1   0   4 5507.05  115.79
  -1   0  -4 5565.44  115.59
   1   0  -4 5524.75  115.69
  -1   0   4 5586.84  114.89
   1   0   4 5570.24  114.89
   1   0  -4 5581.34  115.19
  -1   0  -4 5404.86  114.89
  -1   0  -4 5487.05  113.29
  -2   0   4   63.59    2.50
  -2   0  -4   54.69    2.50
   2   0  -4   64.79    2.30
   2   0  -4   73.19    3.20
   2   0  -4   61.59    2.70
   2   0   4   50.49    2.60
   2   0   4   55.49    2.50
  -2   0   4   72.19    2.70
   3   0  -4  206.58    6.00
   3   0   4  216.28    5.70
  -3   0   4  216.38    5.60
   3   0   4  211.78    5.90
  -3   0  -4  206.08    6.10
  -3   0   4  216.98    6.20
  -4   0   4  791.72   18.80
   4   0  -4  787.42   18.30
   4   0   4  796.82   18.10
   4   0   4  811.42   17.70
  -4   0  -4  769.02   18.60
  -5   0  -4   95.39    5.10
  -5   0   4   96.99    5.40
   5   0   4   98.09    4.90
   5   0  -4   89.09    5.10
  -6   0   4    3.70    2.90
   6   0   4    7.40    2.70
  -6   0  -4    2.30    2.80
   6   0  -4    3.80    2.90
  -7   0  -4   19.60    4.30
   7   0   4   18.50    3.60
  -7   0   4   17.00    4.20
   7   0  -4   26.00    4.40
   0  -1   4 9814.92  199.38
   0  -1   4 9814.02  199.28
   0   1  -4 9679.33  199.88
   0  -1  -4 9462.55  200.18
   0  -1  -4 9657.83  201.38
   0   1   4 9401.76  201.38
   0  -1   4 9999.00  202.08
   0   1  -4 9913.51  201.88
   0   1  -4 9391.86  199.98
   1   1  -4 4924.21  102.29
   1  -1   4 5096.09  101.89
   1  -1   4 4866.11  102.79
  -1  -1  -4 5040.60  102.79
  -1  -1  -4 4981.60  102.59
  -1   1   4 4914.11  102.49
   1   1  -4 4922.31  103.19
  -1  -1   4 4904.21  102.39
  -1   1  -4 4971.50  101.29
  -1  -1   4 5006.20  101.59
  -1  -1   4 4884.81  101.49
   1   1   4 4993.70  102.79
  -1   1  -4 4997.60  102.59
  -1   1  -4 4916.31  101.69
  -1  -1   4 4979.30  101.99
   1   1   4 4785.52  103.29
   1  -1  -4 4905.81  101.69
   1   1   4 4868.31  101.59
   2   1  -4  245.38    6.40
  -2   1   4  252.07    6.10
  -2   1   4  244.08    6.40
  -2  -1  -4  237.28    6.60
   2  -1   4  239.08    6.50
   2  -1   4  237.78    5.80
  -2  -1  -4  252.17    6.00
   2  -1  -4  247.28    6.20
  -2   1  -4  239.78    6.40
   2  -1  -4  237.38    6.20
  -2   1  -4  247.88    5.80
   2   1   4  251.37    6.00
  -2  -1   4  254.67    6.50
   2   1   4  232.28    6.40
   3  -1   4  254.77    6.90
  -3  -1  -4  233.48    7.10
  -3  -1  -4  253.57    7.20
  -3   1   4  266.77    6.90
   3   1  -4  248.28    7.00
   3  -1   4  252.27    6.50
  -3   1   4  259.97    6.80
   3   1   4  258.17    7.00
   3  -1  -4  262.07    6.90
  -3   1  -4  254.17    7.10
  -3  -1   4  265.37    7.20
   3   1   4  256.57    6.20
   4   1  -4  114.89    4.80
  -4  -1  -4  120.79    5.20
  -4   1   4  125.29    4.80
   4  -1   4  116.29    4.30
   4  -1   4  121.79    4.70
  -4  -1   4  105.29    5.30
   4  -1  -4  123.49    4.70
   4   1   4  120.19    4.90
  -4   1  -4  114.09    4.90
   5  -1   4   21.20    2.50
  -5  -1  -4   14.00    2.90
   5  -1   4   18.70    2.50
   5   1  -4   19.40    3.10
  -5   1   4   20.50    3.00
  -5   1  -4   21.30    3.00
  -5  -1   4   17.50    3.30
   5  -1  -4   16.90    2.70
   5   1   4   19.10    2.90
   5  -1  -4   14.80    2.40
   6   1  -4   13.80    3.40
   6  -1   4   14.00    2.70
  -6  -1  -4    8.80    3.10
  -6   1   4    9.40    3.00
  -6   1  -4    6.80    3.00
   6  -1  -4   12.70    3.10
   6   1   4    9.20    3.00
  -6  -1   4   10.10    3.50
  -7   1   4   12.80    3.70
  -7  -1  -4   13.60    4.10
   7   1  -4   16.20    4.00
  -7  -1   4   21.10    4.60
   7   1   4   19.80    3.90
  -7   1  -4    8.40    3.80
   7  -1  -4   15.40    3.70
   0   2  -4  152.28    4.50
   0   2  -4  158.08    3.90
   0  -2   4  157.78    4.40
   0  -2   4  153.78    3.80
   0   2   4  149.69    4.40
   0  -2  -4  149.69    4.40
  -1  -2  -4  335.47    7.60
   1   2  -4  340.27    7.70
   1   2  -4  328.67    7.70
   1  -2   4  331.37    8.20
  -1   2   4  311.27    8.10
   1   2  -4  329.17    8.10
   1   2   4  316.87    8.00
   1   2   4  321.67    7.70
  -1   2  -4  332.67    8.20
  -1  -2   4  328.37    7.60
   1  -2  -4  316.47    7.80
   2  -2   4 1011.30   23.20
  -2   2   4 1038.70   23.30
  -2   2   4 1062.69   22.70
  -2  -2  -4 1098.79   23.10
   2   2  -4 1058.39   23.00
  -2  -2  -4 1060.19   22.50
   2  -2  -4 1075.19   22.80
  -2  -2   4 1065.29   23.30
  -2   2  -4 1062.09   23.30
   2   2   4 1037.50   23.20
   3  -2   4  122.89    4.60
   3   2  -4  116.79    4.50
  -3   2   4  127.39    4.70
  -3  -2  -4  125.49    4.60
  -3   2   4  127.89    4.20
   3  -2  -4  124.49    4.20
  -3  -2   4  131.79    4.80
  -3   2  -4  120.49    4.60
   3   2   4  120.69    4.70
  -4   2   4   59.99    3.60
   4   2  -4   54.29    3.80
  -4  -2  -4   48.80    3.90
   4  -2   4   50.49    3.80
  -4   2  -4   56.09    3.80
   4  -2  -4   56.59    3.40
   4   2   4   60.19    4.10
  -4  -2   4   45.80    3.70
   5  -2   4    5.00    2.40
  -5   2   4    3.90    2.20
   5   2  -4    5.60    2.80
  -5  -2  -4    6.90    2.90
  -5   2  -4    8.20    2.60
   5  -2  -4    3.90    2.50
  -5  -2   4    5.00    3.00
   5   2   4   11.00    2.80
   5  -2  -4    3.60    2.30
  -6   2   4    5.50    2.80
  -6  -2  -4    6.50    3.30
   6  -2   4    7.70    2.90
   6   2  -4   11.10    3.50
   6   2   4    5.10    3.20
   6  -2  -4   12.50    2.90
  -6  -2   4    7.20    3.60
  -6   2  -4    8.30    2.90
   0   3   4  358.86    8.70
   0  -3  -4  374.36    8.80
   0  -3   4  376.96    9.20
   0   3  -4  382.86    9.50
   0   3   4  382.86    9.30
   0  -3  -4  367.86    9.00
  -1  -3  -4  870.41   19.30
   1  -3   4  844.42   19.80
   1   3  -4  887.21   19.80
  -1   3   4  886.11   19.90
   1   3  -4  899.71   19.20
  -1   3   4  908.91   19.30
   1   3   4  899.91   19.50
  -1   3  -4  860.51   19.90
   1  -3  -4  873.21   19.20
   1   3   4  873.01   19.60
  -1  -3   4  897.81   19.30
  -2   3   4   63.59    3.40
  -2   3   4   60.49    2.80
   2  -3   4   53.89    3.20
   2   3  -4   60.49    3.00
  -2  -3  -4   58.39    3.00
   2   3   4   59.79    2.60
  -2  -3   4   57.29    3.30
  -2   3  -4   56.79    3.20
   2  -3  -4   60.49    2.70
   2   3   4   56.99    3.20
   3   3  -4    9.20    2.00
  -3  -3  -4   12.50    2.00
  -3   3   4   11.20    1.80
   3  -3   4   10.80    2.10
  -3   3   4    5.50    2.00
   3   3   4    7.60    2.00
   3  -3  -4   11.00    1.70
  -3  -3   4    6.50    1.90
  -3   3  -4    8.00    2.00
   4  -3   4   65.99    4.40
  -4   3   4   65.89    3.90
   4   3  -4   66.49    4.40
  -4  -3  -4   68.69    4.40
   4  -3  -4   65.59    4.50
   4   3   4   63.19    4.60
   4  -3  -4   67.89    3.60
  -4   3  -4   64.29    4.30
  -4  -3   4   62.39    4.40
   5   3  -4   11.80    3.10
  -5   3   4    8.50    2.40
  -5  -3  -4   10.60    3.00
   5  -3   4   14.00    2.80
   5  -3  -4    5.40    2.70
   5  -3  -4   12.00    2.30
   5   3   4    9.10    3.10
  -5  -3   4    7.20    2.90
  -5   3  -4    6.50    2.60
   6   3  -4   18.10    4.00
  -6  -3  -4   12.90    4.10
   6  -3   4   12.00    3.50
  -6   3   4   17.70    3.20
  -6   3  -4   15.10    3.40
   6  -3  -4   12.40    3.20
  -6  -3   4    2.40    4.10
   6  -3  -4   14.10    3.00
   6   3   4   17.60    4.00
   0   4  -4   36.40    3.00
   0  -4   4   40.10    2.80
   0  -4  -4   35.30    2.60
   0   4   4   34.00    2.50
   0   4   4   32.20    2.90
  -1   4   4  170.78    5.90
   1   4  -4  176.38    5.00
  -1  -4  -4  178.08    5.30
   1  -4   4  167.68    5.70
  -1   4   4  180.18    5.40
   1   4  -4  169.78    5.80
  -1  -4   4  172.48    5.30
   1   4   4  177.98    5.50
  -1   4  -4  166.18    5.90
   1   4   4  176.78    5.50
   1  -4  -4  165.08    5.00
   2   4  -4  148.79    5.10
  -2   4   4  146.29    5.60
   2  -4   4  144.69    5.60
  -2   4   4  148.09    5.10
  -2  -4  -4  149.19    5.10
   2   4   4  149.29    5.40
   2  -4  -4  150.08    4.60
  -2   4  -4  149.99    5.70
  -2  -4   4  138.89    5.60
  -2  -4   4  151.68    4.50
   2   4   4  152.28    4.70
  -3  -4  -4   49.60    3.80
  -3   4   4   56.99    3.50
   3   4  -4   51.59    3.80
   3  -4   4   48.10    4.00
   3   4   4   54.39    4.10
  -3  -4   4   51.39    4.10
  -3   4  -4   45.50    3.90
   3  -4  -4   57.89    3.00
   4  -4   4  398.26   11.50
   4   4  -4  402.26   11.30
  -4   4   4  397.86   11.00
  -4  -4  -4  400.16   11.50
   4   4   4  414.96   11.70
  -4  -4   4  378.76   11.70
  -4   4  -4  389.06   11.70
   4  -4  -4  400.16   10.10
   4  -4  -4  403.86   11.70
  -5   4   4    5.30    2.50
   5   4  -4    7.10    3.10
   5  -4   4    4.50    2.80
  -5  -4  -4    7.80    3.10
  -5   4  -4    5.00    2.70
   5   4   4    3.80    3.10
   5  -4  -4    5.90    2.60
   5  -4  -4    6.70    3.10
  -5  -4   4    0.20    2.90
   6  -4   4   18.70    3.80
   6   4  -4   19.00    4.20
  -6  -4  -4    8.60    3.80
  -6   4   4    8.40    3.00
  -6  -4   4    6.80    3.90
   6  -4  -4   16.50    3.70
   6   4   4    7.40    3.80
  -6   4  -4   10.60    3.40
   0   5   4  225.78    7.20
   0  -5  -4  224.38    6.60
   0   5   4  218.78    6.80
   0   5  -4  226.18    7.60
   0  -5   4  230.58    7.10
   1  -5   4  662.13   16.40
  -1  -5  -4  660.43   15.90
   1   5  -4  662.13   16.60
  -1   5   4  672.03   16.00
   1   5  -4  653.33   15.20
  -1  -5   4  680.83   15.80
   1  -5  -4  675.63   15.40
  -1   5  -4  677.73   16.90
   1   5   4  664.23   16.00
  -2  -5  -4   36.50    3.40
   2  -5   4   39.30    3.70
  -2   5   4   39.50    3.50
   2   5  -4   35.30    3.30
  -2  -5   4   40.70    3.00
   2   5   4   41.50    3.10
  -2  -5   4   41.90    4.00
  -2   5  -4   41.00    3.90
   2  -5  -4   36.10    2.70
   2   5   4   38.70    3.40
   3   5  -4   40.70    3.80
  -3   5   4   41.20    3.70
  -3  -5  -4   45.50    4.00
   3  -5   4   43.40    4.30
  -3   5  -4   45.50    4.30
  -3  -5   4   43.80    4.30
   3  -5  -4   47.30    4.70
   3   5   4   47.00    3.90
   4  -5   4   18.90    3.40
  -4  -5  -4   15.90    3.00
   4   5  -4   22.50    3.30
  -4   5   4   21.40    3.10
  -4  -5   4   21.30    3.50
   4   5   4   24.70    3.60
   4  -5  -4   24.70    3.80
  -4   5  -4   16.70    3.20
  -5  -5  -4    6.80    3.10
   5   5  -4    3.40    3.10
   5  -5   4    7.60    3.10
  -5   5   4    5.70    2.70
   5   5   4    6.90    3.50
   5  -5  -4   -0.20    3.10
  -5   5  -4    4.40    3.00
  -5  -5   4    0.80    3.20
   0  -6  -4   -0.40    1.80
   0   6  -4   -3.10    2.20
   0  -6   4    1.70    2.10
   0   6   4    0.60    2.10
   1   6  -4  371.26   11.30
   1  -6   4  371.46   11.00
   1   6  -4  366.16    9.60
  -1   6   4  380.86   10.70
  -1  -6  -4  379.16   10.70
  -1  -6   4  389.26   10.50
  -1   6  -4  379.76   11.50
   1  -6  -4  382.56    9.80
   1  -6  -4  389.56   11.50
  -2  -6  -4  136.09    5.80
   2  -6   4  135.99    6.40
  -2   6   4  138.39    6.00
   2   6  -4  132.19    5.30
  -2  -6  -4  145.09    5.70
  -2  -6   4  142.59    5.30
  -2   6  -4  144.49    6.70
   2  -6  -4  133.59    6.70
  -2  -6   4  120.79    6.40
   2   6   4  137.99    6.00
  -3   6   4   69.79    4.70
   3   6  -4   72.69    4.70
  -3  -6  -4   73.59    4.90
   3  -6   4   77.29    5.40
   3   6   4   74.59    5.20
  -3  -6   4   65.39    5.20
  -3   6  -4   74.49    5.30
   3  -6  -4   70.09    5.70
   4   6  -4   34.40    4.00
   4  -6   4   45.60    4.60
  -4   6   4   31.50    3.80
  -4  -6  -4   35.00    4.00
  -4  -6   4   46.00    4.80
   4   6   4   39.20    4.50
   4  -6  -4   38.40    4.70
  -4   6  -4   35.70    4.50
  -5  -6  -4   10.80    3.80
   5  -6   4   15.60    3.60
  -5   6   4   10.80    3.20
   5   6  -4   11.60    3.50
  -5   6  -4    5.70    3.20
  -5  -6   4    7.60    3.90
   5   6   4    8.00    3.90
   5  -6  -4   13.20    4.10
   0   7  -4    5.70    3.10
   0   7   4   10.10    2.80
   0  -7  -4    2.80    2.00
   0  -7   4    7.80    2.60
   0  -7  -4    2.80    2.60
   1  -7   4   39.90    4.20
  -1  -7  -4   34.10    3.60
  -1   7   4   40.50    3.90
  -1  -7  -4   34.70    3.50
   1   7  -4   34.80    4.20
  -1  -7  -4   32.50    3.70
  -1   7  -4   33.20    4.20
   1  -7  -4   34.10    4.30
  -1  -7   4   43.50    4.10
   2   7  -4    9.90    2.30
  -2  -7  -4   13.80    2.90
   2  -7   4   16.80    3.40
  -2   7   4   10.60    3.10
  -2  -7  -4   15.70    2.90
  -2   7  -4   15.10    3.50
  -2  -7   4   10.70    3.40
   2  -7  -4   12.50    3.30
   2   7   4    4.30    2.60
   3  -7   4   42.20    4.50
   3   7  -4   42.30    4.10
  -3  -7  -4   39.10    4.20
  -3   7   4   39.40    4.30
  -3  -7   4   37.20    4.60
  -3   7  -4   34.80    4.40
   3  -7  -4   44.10    5.20
   3   7   4   39.40    4.30
  -4   7   4   11.20    3.40
   4   7  -4   14.10    3.30
   4  -7   4   13.40    3.60
  -4  -7  -4    3.80    3.20
   4  -7  -4   12.20    3.90
  -4   7  -4    9.10    3.50
  -4  -7   4   18.40    4.20
   4   7   4   16.20    3.90
   0  -8  -4   -0.10    2.70
   0   8  -4    2.10    3.20
   0  -8   4    5.20    2.70
  -1  -8  -4   19.20    3.40
   1   8  -4   20.80    4.30
  -1   8   4   26.60    3.90
  -1  -8  -4   21.00    3.50
   1  -8   4   23.10    3.90
  -1  -8  -4   19.60    3.40
   1  -8  -4   25.80    4.20
  -1  -8   4   27.10    3.50
  -1   8  -4   22.40    4.10
  -2  -8  -4   19.30    3.50
  -2   8   4   16.70    3.50
   2  -8   4   13.00    3.50
  -2   8  -4   12.70    4.00
  -2  -8   4   11.40    3.80
   2  -8  -4    7.50    3.50
   0   0   5    5.40    1.10
   0   0  -5    5.80    1.10
   0   0   5    5.90    1.10
  -1   0  -5    2.90    0.80
  -1   0  -5    3.00    1.10
  -1   0   5    2.10    1.00
   1   0   5    3.10    1.00
  -1   0  -5    6.10    1.00
   1   0   5    2.10    0.80
   1   0  -5    2.60    1.10
   2   0   5   81.39    3.20
  -2   0   5   84.29    3.00
   2   0   5   77.89    3.00
   2   0  -5   86.39    3.20
  -2   0  -5   84.79    3.10
   2   0  -5   74.29    3.40
  -2   0   5   86.69    3.10
  -3   0   5 1173.48   25.90
  -3   0  -5 1181.98   25.90
   3   0   5 1198.58   25.50
   3   0  -5 1148.99   25.80
   3   0   5 1167.58   25.50
  -3   0   5 1194.58   25.40
  -4   0  -5   64.39    3.90
   4   0   5   69.29    4.00
  -4   0   5   59.19    3.30
   4   0   5   72.59    3.50
   4   0  -5   66.49    4.00
  -4   0   5   77.79    4.30
   5   0  -5  239.58    8.00
   5   0   5  251.57    7.70
  -5   0  -5  230.58    8.20
   5   0   5  237.18    7.00
  -5   0   5  236.28    8.30
   6   0   5   32.70    3.60
  -6   0   5   26.30    3.90
   6   0  -5   25.80    3.70
  -6   0  -5   26.90    4.00
  -7   0   5    1.90    3.50
  -7   0  -5    5.30    3.70
   0  -1   5   37.30    1.80
   0  -1   5   39.20    1.90
   0   1  -5   36.00    1.90
   0  -1  -5   44.50    2.20
   0  -1   5   39.80    2.00
   0   1  -5   35.10    1.80
   0   1   5   39.80    2.00
   1   1  -5 1448.85   30.10
  -1   1   5 1419.56   30.20
   1  -1   5 1293.67   30.00
   1  -1   5 1459.65   30.30
   1   1  -5 1278.77   30.40
  -1   1  -5 1447.46   30.10
  -1  -1   5 1499.95   30.10
  -1   1  -5 1448.66   29.80
  -1  -1   5 1448.66   30.00
  -1   1  -5 1468.65   29.80
   1   1   5 1417.56   30.10
   1  -1  -5 1424.76   30.20
  -1  -1   5 1455.45   30.00
  -2   1   5  530.35   11.70
   2   1  -5  502.05   12.10
  -2  -1  -5  552.24   12.20
  -2   1   5  536.95   12.20
   2   1  -5  513.85   11.60
   2  -1   5  510.95   12.20
   2  -1  -5  529.55   12.10
   2  -1  -5  554.44   11.70
  -2   1  -5  515.45   11.60
   2   1   5  514.25   12.20
  -2  -1   5  522.15   11.70
   2   1   5  520.85   11.80
  -2   1  -5  520.45   12.20
  -2  -1   5  523.95   12.10
  -3   1   5   13.40    1.70
  -3   1   5   10.80    1.80
   3  -1   5   10.60    1.80
   3  -1   5   13.70    1.60
  -3  -1  -5   10.30    1.80
   3   1  -5   13.40    1.90
   3   1   5    8.60    1.80
  -3   1  -5   13.10    1.80
   3  -1  -5   10.90    1.80
   3   1   5   12.30    1.40
  -3  -1   5   12.60    1.80
  -4  -1  -5   53.19    3.80
   4  -1   5   60.29    3.70
   4   1  -5   64.29    4.00
  -4   1   5   56.49    3.50
   4  -1   5   64.99    3.50
  -4   1   5   57.29    3.50
  -4  -1   5   58.79    4.10
   4  -1  -5   55.09    3.80
   4   1   5   54.69    4.00
  -4   1  -5   58.69    3.80
  -5  -1  -5   14.40    3.00
   5  -1   5   14.70    2.60
   5  -1   5   16.80    2.50
  -5   1   5   13.20    2.70
   5   1  -5   12.90    2.90
   5  -1  -5   13.00    2.40
  -5   1  -5   13.00    2.80
  -5  -1   5   14.70    3.40
   5  -1  -5   12.90    2.80
   5   1   5   17.30    2.90
  -6  -1  -5    5.10    3.00
  -6   1   5    1.90    2.70
   6   1  -5    5.00    3.20
   6  -1   5    4.20    2.50
  -6  -1   5    3.90    3.30
   6   1   5   10.00    3.10
   6  -1  -5    4.00    2.80
  -6   1  -5    2.30    2.90
   0   2   5   91.49    3.30
   0   2  -5   90.19    3.40
   0   2  -5   91.59    2.80
   0  -2  -5   95.19    3.40
   0  -2   5   88.39    3.30
   0  -2   5   92.79    2.80
   1   2  -5  256.57    6.70
  -1  -2  -5  265.57    6.20
  -1   2   5  250.77    6.80
   1   2  -5  250.37    6.40
   1  -2   5  246.08    6.90
  -1   2  -5  257.77    6.80
   1   2   5  251.67    6.40
  -1  -2   5  254.37    6.50
   1  -2  -5  254.87    6.60
   2   2  -5  233.98    6.40
  -2   2   5  233.68    6.70
  -2   2   5  237.38    6.00
   2  -2   5  246.28    6.80
   2   2  -5  219.78    5.90
  -2  -2  -5  248.58    6.40
   2   2   5  239.18    6.00
   2  -2  -5  222.68    6.60
  -2  -2   5  233.28    5.80
  -2  -2   5  237.08    6.60
  -2   2  -5  245.48    6.70
   2   2   5  238.98    6.70
   2  -2  -5  235.98    6.30
   3   2  -5  189.48    6.00
   3  -2   5  191.98    6.20
  -3   2   5  187.08    5.50
  -3  -2  -5  182.78    6.10
  -3   2   5  196.08    6.20
  -3   2  -5  194.68    6.20
   3   2   5  194.88    5.10
  -3  -2   5  197.28    6.20
   3  -2  -5  191.98    5.70
   3   2   5  190.58    6.20
  -4  -2  -5  131.49    5.90
  -4   2   5  137.09    5.10
   4   2  -5  134.09    5.50
   4  -2   5  135.69    5.60
  -4   2   5  134.69    5.50
   4  -2  -5  133.19    5.10
  -4  -2   5  120.59    5.60
  -4   2  -5  137.19    5.60
   4   2   5  138.19    5.70
   5   2  -5    3.30    2.70
  -5   2   5    2.70    2.20
   5  -2   5    3.70    2.40
  -5  -2  -5    7.10    2.70
   5   2   5    9.60    2.90
  -5  -2   5    6.00    2.90
   5  -2  -5    5.10    2.50
  -5   2  -5    3.80    2.40
   5  -2  -5    5.10    2.30
   6  -2   5   39.50    4.20
  -6   2   5   35.40    4.00
  -6  -2  -5   37.80    4.60
   6   2  -5   45.70    4.70
   6   2   5   47.90    4.80
  -6   2  -5   40.00    4.50
  -6  -2   5   35.40    4.90
   6  -2  -5   45.10    4.10
   0   3  -5  623.14   14.90
   0   3   5  642.64   14.80
   0  -3   5  638.14   14.70
   0  -3  -5  646.64   14.60
  -1  -3  -5   93.99    3.20
   1  -3   5   88.59    3.80
  -1   3   5   90.99    3.90
   1   3  -5   88.59    3.80
   1   3  -5   96.99    3.30
  -1   3  -5   91.69    3.90
  -1  -3   5   91.79    3.40
   1   3   5   89.99    3.50
   1  -3  -5   93.99    3.40
  -2   3   5   59.49    3.50
   2   3  -5   55.09    3.00
  -2   3   5   65.19    2.80
   2  -3   5   52.69    3.30
  -2  -3  -5   58.99    2.90
  -2  -3   5   58.49    3.40
  -2   3  -5   54.19    3.30
   2  -3  -5   59.89    2.90
  -2  -3   5   58.49    2.50
   2   3   5   59.29    3.40
   2   3   5   57.89    2.80
  -3   3   5   83.19    3.60
   3   3  -5   81.39    4.10
  -3   3   5   83.19    4.40
  -3  -3  -5   80.19    4.00
   3  -3   5   80.49    4.30
  -3  -3   5   79.29    4.20
  -3   3  -5   77.19    4.20
   3  -3  -5   80.89    3.60
   3   3   5   81.99    4.30
  -4  -3  -5  149.99    6.40
  -4   3   5  151.78    5.70
   4  -3   5  151.88    6.30
   4   3  -5  161.88    6.30
   4  -3  -5  163.68    5.60
  -4   3  -5  154.78    6.40
  -4  -3   5  149.29    6.50
   4   3   5  158.48    6.50
   5  -3   5   56.29    4.80
  -5  -3  -5   45.10    4.40
  -5   3   5   43.60    3.90
   5   3  -5   48.10    4.40
  -5  -3   5   34.40    4.00
   5  -3  -5   49.00    4.80
  -5   3  -5   50.69    4.60
   5   3   5   41.60    4.30
   5  -3  -5   50.09    4.00
   6   3  -5   23.40    4.10
  -6   3   5   23.40    3.60
   6  -3   5   15.90    3.70
  -6  -3  -5   15.50    4.20
   6   3   5   27.20    4.40
   6  -3  -5   26.60    3.40
   6  -3  -5   23.00    3.50
  -6   3  -5   17.10    3.60
  -6  -3   5   10.70    4.40
   0  -4  -5    7.70    1.70
   0   4   5    6.00    1.50
   0   4  -5    4.50    1.80
   0  -4   5    4.70    1.70
   0   4   5    9.10    2.00
  -1  -4  -5   31.70    2.30
   1   4  -5   29.20    2.30
  -1   4   5   28.80    2.80
   1  -4   5   29.40    2.70
   1   4  -5   25.40    2.70
  -1   4   5   28.30    2.40
  -1   4  -5   28.60    2.90
   1   4   5   27.80    2.70
   1  -4  -5   26.60    2.40
  -1  -4   5   30.40    2.60
  -2   4   5   26.00    2.40
   2  -4   5   24.00    2.70
  -2   4   5   22.80    2.70
   2   4  -5   29.90    2.50
  -2  -4  -5   23.10    2.30
   2   4   5   20.50    2.60
  -2  -4   5   24.90    2.30
  -2   4  -5   24.10    2.90
  -2  -4   5   27.30    3.00
   2  -4  -5   26.70    2.20
   2   4   5   24.70    2.30
   3   4  -5  144.39    5.70
  -3   4   5  151.08    6.30
   3  -4   5  149.09    6.10
  -3   4   5  148.69    5.40
  -3  -4  -5  143.89    5.60
  -3  -4   5  153.38    6.20
   3   4   5  147.99    6.10
  -3   4  -5  148.89    6.20
   3  -4  -5  148.89    5.00
   4   4  -5  109.19    5.60
  -4  -4  -5  118.49    5.60
   4  -4   5  108.49    5.80
  -4   4   5  113.09    5.10
  -4  -4   5  102.79    5.90
   4  -4  -5  109.99    4.70
   4  -4  -5  115.09    6.10
   4   4   5  126.09    6.30
  -4   4  -5  118.29    5.80
  -5   4   5    4.00    2.40
   5  -4   5    0.40    2.80
  -5  -4  -5    1.80    2.80
   5   4  -5    0.50    2.70
  -5   4  -5    2.40    2.60
  -5  -4   5    1.40    2.90
   5  -4  -5    4.30    2.20
   5  -4  -5    4.00    3.00
   5   4   5    2.20    3.20
   6  -4   5   10.70    3.90
  -6   4   5   12.30    3.20
   6   4  -5   17.60    4.20
  -6  -4  -5   15.20    4.30
   6  -4  -5   16.90    3.90
  -6  -4   5   10.20    4.30
  -6   4  -5   13.10    3.50
   6   4   5   23.70    4.60
   0   5   5   42.00    3.20
   0  -5  -5   42.70    3.30
   0   5   5   43.30    3.70
   0   5  -5   45.30    3.90
   0  -5   5   45.20    3.60
   1   5  -5  190.78    6.90
  -1  -5  -5  193.18    6.10
  -1   5   5  183.28    6.80
  -1   5   5  196.28    6.20
   1   5  -5  185.28    5.60
   1  -5   5  179.58    6.70
  -1  -5   5  187.68    6.30
  -1   5  -5  181.48    7.00
   1   5   5  189.48    6.40
   1  -5  -5  185.48    5.90
  -2   5   5  291.47    8.50
  -2  -5  -5  282.17    8.40
   2  -5   5  279.27    9.00
   2   5  -5  281.87    8.20
  -2   5   5  281.87    9.20
  -2  -5   5  275.37    9.30
   2   5   5  311.77    8.90
   2  -5  -5  289.47    7.80
  -2   5  -5  276.67    9.20
   2   5   5  287.67    8.10
  -2  -5   5  295.97    7.90
   3   5  -5   35.50    3.40
  -3   5   5   36.00    3.60
   3  -5   5   34.60    3.60
  -3  -5  -5   39.00    3.60
  -3  -5   5   32.90    3.80
   3  -5  -5   42.60    4.30
  -3   5  -5   39.10    4.00
   3   5   5   38.50    3.70
   3  -5  -5   36.00    3.10
   4  -5   5    7.60    2.90
   4   5  -5   10.80    3.00
  -4  -5  -5   10.90    2.90
  -4   5   5    9.30    2.50
   4  -5  -5    9.90    3.30
   4   5   5    8.70    3.10
   4  -5  -5   10.60    3.40
  -4   5  -5    8.10    2.80
  -4  -5   5    5.60    2.90
  -5  -5  -5    4.60    3.20
  -5   5   5    7.50    2.70
   5  -5   5    5.30    3.20
   5   5  -5    3.00    3.10
  -5   5  -5    4.90    2.90
   5   5   5    7.80    3.70
   5  -5  -5    3.20    3.40
  -5  -5   5    0.50    3.30
   0   6  -5   49.10    4.30
   0  -6  -5   44.10    3.60
   0  -6   5   48.10    4.10
   0   6   5   42.80    3.70
  -1   6   5   15.70    2.60
   1   6  -5   14.80    2.00
   1   6  -5   16.00    3.10
  -1  -6  -5   12.00    2.40
  -1  -6  -5   18.30    2.80
   1  -6   5   16.40    3.10
  -1   6  -5   14.10    3.10
   1  -6  -5   18.80    2.40
  -1  -6   5   15.80    2.80
  -2  -6  -5   90.29    4.70
   2   6  -5   81.69    4.50
  -2   6   5   90.49    4.90
   2  -6   5   88.39    5.40
   2  -6  -5   84.39    5.80
  -2  -6   5   93.19    5.70
  -2  -6   5   93.69    4.40
   2   6   5   79.19    5.00
   2  -6  -5   87.39    4.10
  -2   6  -5   86.79    5.70
  -3  -6  -5    0.40    2.30
   3  -6   5    7.40    2.80
   3   6  -5    2.60    2.30
  -3   6   5    2.40    2.30
  -3  -6   5    3.90    2.80
   3  -6  -5   -2.70    2.70
  -3   6  -5    2.10    2.40
   3   6   5    5.90    2.90
   4   6  -5   14.40    3.20
   4  -6   5   16.60    3.50
  -4  -6  -5   15.30    3.30
  -4   6   5   17.20    3.20
   4   6   5   15.60    3.70
  -4   6  -5   10.60    3.30
   4  -6  -5   12.90    3.80
  -4  -6   5   13.00    3.70
   0  -7  -5   74.59    5.40
   0   7  -5   70.59    5.50
   0   7   5   71.79    4.70
   0  -7   5   77.59    5.10
   0  -7  -5   70.29    4.40
  -1  -7  -5    4.00    2.40
   1  -7   5    7.70    2.80
   1   7  -5    7.20    3.10
  -1  -7  -5    9.60    2.40
  -1  -7  -5   10.20    2.70
  -1   7   5    4.80    2.60
  -1   7  -5    6.40    3.10
  -1  -7   5   13.00    2.90
   1  -7  -5    7.90    2.30
   1  -7  -5    7.30    3.10
   2  -7   5   26.60    3.80
  -2  -7  -5   28.70    3.50
  -2  -7  -5   28.70    3.40
  -2   7   5   26.70    3.60
  -2   7  -5   25.30    4.10
   2  -7  -5   31.60    4.40
  -2  -7   5   26.80    4.20
   3   7  -5   13.50    3.00
   3  -7   5   15.50    3.50
  -3   7   5   15.30    3.40
  -3  -7  -5   16.10    3.20
  -3  -7   5   17.00    3.80
   3   7   5    9.80    3.40
  -3   7  -5   13.10    3.60
   3  -7  -5   14.40    3.90
   0  -8   5   13.10    3.20
   0  -8  -5    7.00    3.20
   0   8  -5    8.50    3.50
   1  -8   5    4.90    3.00
  -1  -8  -5   -0.40    2.60
  -1   8   5    4.40    3.70
  -1  -8  -5    6.50    2.60
   1   8  -5    3.10    3.40
  -1  -8  -5    6.90    2.90
  -1   8  -5    3.10    3.30
  -1  -8   5   10.30    3.20
   1  -8  -5    4.00    3.20
  -2  -8  -5    8.20    3.20
  -2  -8  -5    8.90    2.90
   2  -8   5   15.70    3.70
   2  -8  -5   10.80    3.80
  -2   8  -5    9.50    4.00
  -2  -8   5   14.30    4.00
   0   0  -6   22.30    1.80
   0   0   6   23.50    1.90
  -1   0  -6  300.77    7.10
  -1   0  -6  309.47    7.50
   1   0   6  301.97    7.70
   1   0  -6  301.17    7.50
  -1   0   6  304.27    7.50
   1   0   6  314.37    7.10
  -2   0   6  126.19    3.80
   2   0  -6  119.29    4.00
   2   0  -6  100.79    4.10
   2   0   6  119.89    4.10
  -2   0   6  118.69    3.90
  -2   0  -6  125.59    3.90
  -3   0  -6   53.09    3.10
   3   0   6   52.19    3.00
  -3   0   6   58.39    3.30
   3   0   6   49.99    3.00
   3   0  -6   54.89    3.20
  -3   0   6   53.69    3.00
   4   0   6  126.19    5.00
  -4   0  -6  119.79    5.20
  -4   0   6  129.29    5.60
  -4   0   6  125.49    4.60
   4   0  -6  125.49    5.20
   4   0   6  116.29    4.80
   5   0   6    7.70    2.00
  -5   0  -6    2.70    2.50
  -5   0   6   11.20    2.80
   5   0   6    7.70    2.50
   5   0  -6    7.80    2.70
   6   0  -6   -2.70    2.70
  -6   0   6    5.60    3.00
   6   0   6    1.20    2.60
  -6   0  -6   -1.70    2.90
   0   1   6   99.69    3.40
   0  -1   6   97.99    3.10
   0   1  -6   94.29    3.10
   0  -1  -6   94.19    3.30
   0   1  -6   94.99    3.00
   0  -1   6   94.79    3.40
  -1  -1  -6  661.73   15.00
  -1   1   6  676.63   15.00
   1  -1   6  668.33   15.20
   1   1  -6  647.74   14.70
   1   1   6  674.13   14.90
  -1   1  -6  652.73   14.70
   1  -1  -6  675.53   14.90
  -1  -1   6  672.23   14.80
  -1  -1   6  661.93   14.70
  -1   1  -6  657.03   14.50
   2  -1   6 1705.73   36.80
  -2   1   6 1717.13   36.80
  -2  -1  -6 1775.72   36.60
   2   1  -6 1689.63   36.70
   2   1   6 1702.73   36.80
  -2   1  -6 1755.42   36.30
   2  -1  -6 1710.53   36.80
  -2  -1   6 1720.73   36.40
   2   1   6 1741.03   36.50
  -2  -1   6 1754.12   36.60
  -2   1  -6 1727.63   36.80
  -3   1   6  120.19    4.50
  -3   1   6  117.89    4.00
   3   1  -6  113.39    4.50
  -3  -1  -6  118.39    4.50
   3  -1   6  116.29    4.50
   3  -1   6  124.79    4.00
  -3   1  -6  117.19    4.50
  -3  -1   6  116.79    3.80
   3   1   6  119.09    4.00
   3  -1  -6  112.39    4.40
   3   1   6  112.29    4.60
  -3  -1   6  116.49    4.50
   4  -1   6  275.27    7.60
  -4   1   6  288.77    8.00
  -4   1   6  278.87    8.00
   4  -1   6  281.67    8.10
  -4  -1  -6  273.77    8.40
   4   1  -6  270.17    8.30
   4   1   6  270.97    8.30
  -4   1  -6  282.77    8.50
   4   1   6  269.97    7.30
   4  -1  -6  276.37    8.20
  -4  -1   6  261.47    8.70
  -5  -1  -6   58.39    4.40
   5  -1   6   55.49    3.90
   5   1  -6   53.29    4.60
  -5   1   6   62.89    4.30
   5  -1   6   58.09    4.00
  -5   1  -6   48.90    4.40
   5   1   6   53.19    4.50
  -5  -1   6   51.79    5.00
   5  -1  -6   61.59    4.50
  -6   1   6    6.60    2.90
   6  -1   6    7.80    2.80
   6   1  -6    7.70    3.50
  -6  -1  -6   -0.20    2.90
  -6   1  -6    6.40    3.10
   6  -1  -6    8.20    3.10
  -6  -1   6    6.70    3.50
   6   1   6    5.30    3.10
   0  -2  -6  191.98    5.50
   0  -2   6  198.98    5.50
   0  -2   6  179.88    5.30
   0   2  -6  188.58    5.40
   0   2  -6  191.08    4.90
   0   2   6  197.78    5.50
   1   2  -6   28.70    2.10
  -1  -2  -6   30.40    2.40
   1   2  -6   28.30    2.20
   1  -2   6   23.00    2.30
  -1   2   6   30.30    2.40
  -1   2  -6   29.70    2.30
  -1  -2   6   26.70    2.10
   1  -2  -6   32.90    2.30
   1   2   6   31.30    2.20
  -2   2   6  552.14   13.60
   2  -2   6  564.54   13.60
  -2  -2  -6  576.34   13.20
   2   2  -6  583.34   13.30
   2   2   6  556.04   13.50
  -2  -2   6  582.64   13.50
  -2  -2   6  580.24   12.80
   2  -2  -6  564.24   13.20
  -2   2  -6  574.24   13.60
   2   2   6  546.25   12.90
  -3   2   6   49.60    2.70
   3   2  -6   51.19    3.40
   3  -2   6   50.39    3.40
  -3   2   6   49.00    3.60
  -3  -2  -6   48.10    3.30
  -3   2  -6   50.19    3.30
   3   2   6   47.40    2.60
   3  -2  -6   46.90    3.10
   3   2   6   49.70    3.60
  -3  -2   6   54.49    3.40
  -4  -2  -6    6.40    2.40
   4   2  -6    5.80    2.30
   4  -2   6    7.60    2.40
  -4   2   6    4.00    2.30
  -4   2   6    7.80    1.90
  -4  -2   6    8.10    2.30
  -4   2  -6    8.80    2.30
   4   2   6    8.50    2.60
   4  -2  -6    5.60    2.20
  -5   2   6    3.50    2.10
   5  -2   6    5.20    2.60
  -5  -2  -6    4.60    2.80
   5   2  -6    8.50    3.00
   5   2   6   10.20    3.00
   5  -2  -6    3.10    2.50
   5  -2  -6    5.00    2.40
  -5  -2   6    4.70    2.80
  -5   2  -6    5.00    2.60
  -6   2   6   16.90    3.30
  -6  -2  -6   16.60    3.90
   6   2  -6   28.20    4.20
   6  -2   6   11.80    3.70
  -6  -2   6   11.90    4.60
   6  -2  -6   15.80    3.30
  -6   2  -6   10.20    3.40
   6   2   6   15.90    3.70
   0   3   6   62.29    3.20
   0   3  -6   65.39    3.30
   0  -3   6   55.29    2.60
   0  -3  -6   60.99    3.10
   0  -3   6   64.79    3.10
  -1   3   6  393.06   10.40
   1   3  -6  414.76   10.30
  -1  -3  -6  413.66    9.50
   1  -3   6  409.76   10.40
  -1  -3  -6  401.56   10.20
   1   3  -6  402.96    9.60
  -1  -3   6  405.06    9.80
   1  -3  -6  388.96    9.90
   1   3   6  405.56   10.00
  -1   3  -6  403.96   10.40
  -2  -3  -6   83.09    3.40
   2   3  -6   77.49    3.60
  -2   3   6   76.39    4.10
   2  -3   6   76.79    4.10
   2   3   6   79.29    3.40
   2   3   6   76.69    3.90
  -2  -3   6   77.89    3.10
  -2   3  -6   76.79    3.90
  -2  -3   6   79.29    4.00
   2  -3  -6   78.39    3.40
   3   3  -6   20.50    2.50
  -3   3   6   19.90    2.90
  -3   3   6   24.00    2.20
  -3  -3  -6   24.40    2.50
   3  -3   6   16.90    2.60
  -3  -3   6   17.00    2.50
  -3   3  -6   19.30    2.60
   3  -3  -6   21.20    2.30
   3   3   6   18.90    2.60
   3   3   6   22.50    2.00
   4  -3   6   91.89    5.30
   4   3  -6   99.09    5.10
  -4  -3  -6   83.69    5.00
  -4   3   6   99.29    5.40
  -4   3   6   94.59    4.40
  -4   3  -6   93.89    5.20
   4   3   6   98.39    5.50
   4  -3  -6   94.09    4.60
  -4  -3   6   90.59    5.30
   5  -3   6   46.10    4.30
  -5   3   6   45.20    4.00
  -5  -3  -6   45.40    4.60
   5   3  -6   53.59    5.00
  -5  -3   6   43.70    4.60
  -5   3  -6   49.10    4.70
   5  -3  -6   51.99    4.20
   5  -3  -6   53.99    4.90
   5   3   6   51.59    4.70
  -6   3   6    4.90    2.80
  -6  -3  -6    5.70    3.80
   6   3  -6   16.50    4.00
   6  -3   6    9.20    3.60
  -6  -3   6    6.30    4.40
  -6   3  -6    7.80    3.20
   6   3   6    6.60    3.60
   6  -3  -6    5.80    3.00
   6  -3  -6    8.40    3.40
   0   4   6   23.30    2.60
   0  -4  -6   25.30    2.40
   0  -4   6   24.40    2.60
   0   4  -6   16.40    2.40
  -1   4   6   60.49    4.00
  -1  -4  -6   70.49    3.10
  -1  -4  -6   59.99    3.70
   1   4  -6   64.99    3.00
   1  -4   6   68.59    3.80
   1   4  -6   76.49    4.00
  -1   4  -6   57.69    3.90
   1   4   6   65.69    3.60
   1  -4  -6   62.89    3.30
  -1  -4   6   66.99    3.40
   2   4  -6   84.39    4.00
  -2  -4  -6   90.89    3.90
   2  -4   6   89.29    4.60
  -2   4   6   92.99    4.90
  -2   4   6   83.79    3.80
  -2   4  -6   86.19    4.70
   2   4   6   86.89    4.50
   2   4   6   86.99    4.00
  -2  -4   6   96.49    3.70
   2  -4  -6   93.79    4.00
  -2  -4   6   99.39    4.90
  -3   4   6   78.59    5.00
  -3   4   6   75.19    3.90
  -3  -4  -6   76.19    4.30
   3  -4   6   68.29    4.70
   3   4  -6   69.19    4.30
   3  -4  -6   77.29    3.90
  -3   4  -6   72.09    4.70
   3   4   6   78.29    4.90
   3   4   6   81.19    3.70
  -3  -4   6   67.59    4.60
  -4   4   6    9.30    2.30
  -4  -4  -6    8.10    2.60
   4   4  -6   12.50    2.90
   4  -4   6   12.50    2.90
   4   4   6   11.30    3.10
   4  -4  -6    8.50    2.30
  -4  -4   6    9.70    2.90
  -4   4  -6    9.90    2.80
  -5   4   6   31.60    3.60
  -5  -4  -6   32.90    4.10
   5  -4   6   35.80    4.20
   5   4  -6   31.10    4.10
   5  -4  -6   32.70    3.30
  -5  -4   6   24.70    4.00
   5  -4  -6   33.20    4.30
   5   4   6   35.40    4.40
  -5   4  -6   26.40    3.90
   6  -4   6    0.30    3.60
  -6   4   6    3.00    2.80
  -6  -4  -6    0.60    3.80
   6  -4  -6    6.10    3.50
  -6  -4   6   -3.60    3.90
  -6   4  -6    4.30    3.10
   0  -5  -6   61.09    3.80
   0   5  -6   61.79    4.40
   0  -5   6   64.29    4.20
   0   5   6   63.69    4.30
   1   5  -6  157.48    6.50
   1   5  -6  160.58    5.20
  -1   5   6  170.58    6.70
  -1   5   6  162.98    5.50
  -1  -5  -6  167.88    5.60
   1  -5   6  170.48    6.50
  -1  -5  -6  173.48    6.30
  -1   5  -6  162.28    6.60
  -1  -5   6  158.38    5.80
   1   5   6  164.78    6.10
   1  -5  -6  166.08    5.70
   2  -5   6  315.87    9.70
  -2  -5  -6  305.47    8.90
  -2   5   6  308.67    9.90
  -2   5   6  325.47    9.00
   2   5  -6  309.77    8.80
  -2   5  -6  307.17    9.90
   2   5   6  309.77    8.90
   2   5   6  313.57    9.40
  -2  -5   6  317.37    8.50
   2  -5  -6  312.47    8.60
  -2  -5   6  324.97   10.10
  -3   5   6   44.10    3.70
  -3  -5  -6   42.40    3.80
   3   5  -6   44.50    3.90
   3  -5   6   48.30    4.30
  -3   5  -6   45.60    4.40
   3   5   6   38.00    3.70
  -3  -5   6   41.60    4.10
   3  -5  -6   45.00    3.50
   3   5   6   46.00    4.10
   4   5  -6   23.20    3.30
  -4  -5  -6   23.10    3.40
  -4   5   6   18.40    2.90
   4  -5   6   19.30    3.50
   4  -5  -6   22.90    2.80
   4   5   6   18.80    3.70
  -4   5  -6   18.30    3.40
   4  -5  -6   18.30    3.80
  -4  -5   6   17.30    3.50
  -5   5   6    3.50    2.60
   5   5  -6   -4.50    2.90
  -5  -5  -6    2.50    3.10
   5  -5   6    4.60    3.30
  -5   5  -6    0.70    2.80
   5   5   6   -3.10    3.40
  -5  -5   6   -4.10    3.20
   5  -5  -6    0.10    3.30
   0  -6   6   67.09    4.60
   0   6   6   70.89    4.80
   0  -6  -6   67.29    4.20
   0   6  -6   63.19    5.00
   1  -6   6  134.59    6.20
  -1  -6  -6  135.29    5.40
  -1   6   6  130.19    6.50
   1   6  -6  139.39    6.60
  -1  -6  -6  130.89    5.90
   1   6  -6  133.89    4.80
  -1   6   6  130.59    5.40
  -1   6  -6  137.69    6.70
  -1  -6   6  143.89    5.90
   1   6   6  142.79    6.10
   1  -6  -6  138.99    5.40
   2   6  -6   13.10    2.40
  -2  -6  -6   17.40    2.60
   2  -6   6   17.20    3.10
  -2   6   6   13.10    2.70
  -2  -6   6   14.30    2.50
   2  -6  -6    9.40    2.20
  -2  -6   6   14.50    3.40
   2   6   6   13.30    2.50
  -2   6  -6   13.50    3.30
  -3  -6  -6   13.40    2.90
   3  -6   6   16.20    3.40
  -3   6   6   13.00    2.80
   3   6  -6   11.70    2.70
   3   6   6   14.60    3.40
  -3   6  -6   12.40    3.20
  -3  -6   6   13.70    3.30
   3  -6  -6   11.50    3.30
  -4  -6  -6   -0.30    2.60
   4   6  -6    5.70    2.80
   4  -6   6    6.40    3.30
  -4  -6   6    3.40    3.30
  -4   6  -6    2.30    2.90
   4   6   6    2.70    3.40
   4  -6  -6    2.40    3.30
   0  -7  -6   78.59    4.70
   0  -7   6   73.49    5.20
   0   7  -6   65.29    5.60
   1  -7   6   13.50    3.20
  -1  -7  -6   10.30    2.80
  -1   7   6    9.90    2.80
  -1  -7  -6   16.80    2.60
   1   7  -6    8.00    3.30
   1  -7  -6   10.90    2.50
  -1  -7   6   15.10    3.10
   1  -7  -6    8.70    3.20
  -1   7  -6    7.30    3.20
   2  -7   6    2.10    2.70
  -2  -7  -6   -0.60    2.90
  -2  -7  -6    0.50    2.20
  -2  -7  -6    2.80    2.60
  -2   7  -6    0.90    2.90
   2  -7  -6    1.00    2.90
  -2  -7   6   -3.60    2.80
  -3  -7  -6   -2.00    2.60
   3  -7   6    1.50    2.90
   3   7  -6   -0.80    2.50
  -3  -7   6    5.90    3.20
  -3   7  -6   -1.60    3.10
   3  -7  -6    5.30    3.50
   3   7   6   -2.50    3.00
   0  -8   6    3.10    3.00
   0   8  -6   -0.20    3.20
   0  -8  -6   -0.10    3.00
   1  -8   6   29.40    4.30
  -1  -8  -6   22.20    3.60
  -1  -8  -6   15.90    3.40
   1   8  -6   21.40    4.40
  -1   8  -6   17.30    4.10
  -1  -8   6   22.10    4.00
   1  -8  -6   20.20    4.10
   0   0   7    6.50    1.40
   0   0  -7    4.10    1.20
   1   0  -7  582.24   13.40
   1   0   7  590.74   13.50
  -1   0   7  574.84   13.40
  -1   0  -7  595.04   13.30
  -2   0   7    6.60    1.50
  -2   0  -7    8.30    1.50
   2   0   7    7.00    1.50
  -2   0   7    8.20    1.30
   2   0  -7    6.60    1.40
  -2   0  -7    6.30    1.30
  -3   0   7  140.39    4.80
   3   0   7  145.09    4.90
   3   0   7  136.19    4.80
  -3   0  -7  142.99    5.00
  -3   0   7  142.19    4.90
   3   0  -7  133.89    5.00
   4   0  -7  172.98    6.40
  -4   0  -7  174.88    6.40
   4   0   7  173.98    5.80
  -4   0   7  169.38    5.80
   4   0   7  172.48    6.10
  -4   0   7  182.68    6.50
  -5   0   7    5.60    2.70
   5   0  -7    2.70    2.50
   5   0   7    7.50    2.00
   5   0   7    3.70    2.50
  -5   0  -7    5.90    2.70
  -5   0   7    7.70    2.60
   6   0  -7   -0.30    3.00
   6   0   7    4.10    2.70
  -6   0  -7    2.00    3.20
  -6   0   7    7.80    3.50
   0  -1   7    4.00    1.20
   0   1  -7    3.60    1.10
   0   1  -7    3.00    1.00
   0   1   7    4.00    1.20
   0  -1  -7    3.20    1.30
   0  -1   7    2.90    1.00
  -1   1   7  337.47    8.60
   1   1  -7  357.86    8.40
   1  -1   7  351.86    8.80
  -1  -1  -7  343.07    8.60
   1   1   7  339.37    8.50
  -1   1  -7  353.66    8.40
  -1   1  -7  346.17    8.20
  -1  -1   7  351.46    8.50
   1  -1  -7  330.27    8.50
  -1  -1   7  320.27    8.40
  -2  -1  -7  211.48    5.70
   2  -1   7  215.08    6.40
  -2   1   7  220.48    6.30
   2   1  -7  205.98    6.10
  -2   1  -7  210.78    6.10
  -2   1  -7  213.58    5.80
   2   1   7  215.28    6.00
   2  -1  -7  217.98    6.20
  -2  -1   7  222.38    6.00
  -2  -1   7  217.58    5.90
   3   1  -7   67.49    3.60
   3  -1   7   63.09    3.60
  -3   1   7   62.29    3.00
  -3  -1  -7   60.39    3.20
  -3   1   7   57.89    3.60
  -3  -1   7   66.19    3.40
   3   1   7   59.79    3.50
  -3   1  -7   60.59    3.50
   3  -1  -7   55.39    3.50
   3   1   7   54.09    3.00
  -3  -1   7   65.49    3.10
  -4   1   7  110.59    4.60
   4  -1   7  109.89    4.50
  -4  -1  -7  103.99    5.00
  -4   1   7  109.69    5.00
   4   1  -7  109.49    5.20
   4  -1   7  111.99    5.10
   4   1   7  112.09    4.30
  -4  -1   7  104.29    5.20
   4   1   7  116.09    5.30
   4  -1  -7  110.49    5.10
  -4   1  -7  118.19    5.20
   5   1  -7    6.50    2.90
  -5   1   7    7.90    2.40
  -5  -1  -7    1.80    2.50
   5  -1   7    6.40    2.40
   5  -1   7    8.70    2.30
  -5   1   7   10.00    2.50
   5  -1  -7    6.70    2.60
  -5   1  -7    5.00    2.60
  -5  -1   7    3.40    2.80
   5   1   7    4.70    2.60
   6   1  -7   36.30    4.50
  -6  -1  -7   37.00    4.50
  -6   1   7   52.79    5.30
   6   1   7   42.00    4.30
  -6   1  -7   38.00    4.50
   6  -1  -7   43.30    4.40
  -6  -1   7   34.60    5.10
   0  -2  -7   27.00    2.30
   0   2  -7   31.50    1.90
   0   2   7   30.80    2.30
   0   2  -7   31.60    2.40
   0  -2   7   31.20    2.40
  -1   2   7 1816.02   39.10
   1  -2   7 1791.52   39.10
  -1  -2  -7 1838.22   39.10
   1   2  -7 1871.21   38.80
   1   2  -7 1804.42   38.60
  -1  -2   7 1819.92   38.70
   1  -2  -7 1804.12   38.90
   1   2   7 1876.01   38.90
  -1   2  -7 1826.82   39.00
  -2   2   7 1015.40   23.20
  -2  -2  -7 1060.89   22.60
   2  -2   7 1016.10   23.10
   2   2  -7 1033.20   22.80
   2  -2  -7 1004.80   22.80
   2   2   7  998.00   22.50
  -2  -2   7 1052.39   23.00
  -2  -2   7 1044.80   22.40
  -2   2  -7 1037.30   23.10
  -3   2   7   65.39    4.00
   3  -2   7   60.59    4.10
  -3   2   7   64.29    2.90
   3   2  -7   67.29    3.70
  -3  -2  -7   61.49    3.70
  -3  -2   7   57.69    3.80
   3   2   7   62.99    3.90
   3   2   7   63.59    3.10
  -3  -2   7   68.29    3.10
  -3   2  -7   66.09    3.80
   3  -2  -7   61.19    3.50
  -4   2   7  156.98    5.50
   4   2  -7  159.98    6.30
  -4   2   7  170.18    6.40
   4  -2   7  153.08    6.40
  -4  -2  -7  149.59    6.30
   4   2   7  165.08    6.50
   4  -2  -7  166.88    6.10
  -4   2  -7  153.18    6.30
  -4  -2   7  148.69    6.40
   4   2   7  148.99    5.00
  -5   2   7    7.60    2.40
   5  -2   7   11.20    2.90
   5   2  -7    9.40    3.10
  -5  -2  -7    5.10    2.80
   5  -2  -7   11.60    2.90
   5   2   7    7.10    2.90
  -5  -2   7    6.20    3.00
  -6  -2  -7   18.60    3.90
   6  -2   7   10.80    3.80
   6   2  -7   30.50    4.50
  -6   2   7   14.50    3.10
  -6  -2   7   20.80    5.00
  -6   2  -7   12.90    3.50
   6  -2  -7   24.40    3.80
   6   2   7   24.30    4.10
   0   3  -7   91.69    4.00
   0  -3  -7   86.39    3.80
   0  -3   7   91.99    3.80
   0   3   7   92.49    4.00
   0   3  -7   98.09    3.20
  -1  -3  -7   63.19    3.50
  -1   3   7   62.19    3.50
   1  -3   7   60.29    3.50
   1   3  -7   57.09    2.80
   1   3  -7   60.39    3.40
  -1   3  -7   64.39    3.50
   1   3   7   65.59    3.30
  -1  -3   7   55.69    3.10
   1  -3  -7   56.29    3.20
  -2  -3  -7   62.89    3.00
   2   3  -7   57.49    3.30
   2  -3   7   55.19    3.70
  -2   3   7   67.59    4.00
  -2  -3   7   52.79    3.00
  -2   3  -7   55.99    3.70
   2  -3  -7   61.49    3.30
   2   3   7   59.59    3.20
   2   3   7   62.59    3.70
  -2  -3   7   58.59    3.70
  -3  -3  -7  125.49    5.10
   3  -3   7  105.39    5.40
   3   3  -7  112.99    5.00
  -3   3   7  122.19    5.60
  -3   3   7  122.19    4.40
   3   3   7  117.89    5.30
  -3   3  -7  119.29    5.30
  -3  -3   7  112.79    5.30
   3   3   7  122.19    4.30
   3  -3  -7  123.59    4.80
   4   3  -7   80.39    5.00
  -4   3   7   80.49    5.30
  -4   3   7   83.19    4.10
   4  -3   7   87.79    5.20
  -4  -3  -7   81.29    5.00
   4  -3  -7   83.29    4.60
   4   3   7   86.69    5.40
  -4   3  -7   71.19    4.90
  -4  -3   7   73.39    5.10
   5   3  -7   -1.50    2.80
  -5   3   7    2.10    2.10
   5  -3   7    0.30    2.80
  -5  -3  -7   -2.80    2.70
   5  -3  -7    1.10    2.40
  -5  -3   7   -1.50    2.80
  -5   3  -7    2.80    2.60
   5   3   7   -2.70    3.00
  -6  -3  -7    3.20    3.50
   6   3  -7    8.10    3.70
  -6   3   7    6.20    2.90
   6  -3   7    4.50    3.50
  -6  -3   7    6.10    4.20
   6  -3  -7    6.50    3.10
   6   3   7   11.20    3.90
   0  -4   7  184.88    6.20
   0  -4  -7  190.68    6.10
   0   4  -7  182.28    6.50
   0   4   7  189.28    6.40
  -1  -4  -7  234.58    7.30
   1   4  -7  234.28    6.50
  -1  -4  -7  238.58    6.40
  -1   4   7  238.48    7.70
   1   4  -7  236.88    7.50
   1  -4   7  227.48    7.40
  -1   4  -7  235.08    7.70
   1   4   7  233.98    7.20
  -1  -4   7  228.68    6.90
   1  -4  -7  227.68    6.90
   2  -4   7   74.39    4.50
   2   4  -7   67.99    3.70
  -2   4   7   71.99    4.60
  -2  -4  -7   72.19    3.60
   2   4   7   71.99    3.90
  -2  -4   7   69.19    3.60
  -2  -4   7   75.49    4.60
  -2   4  -7   72.79    4.50
   2  -4  -7   75.29    3.90
  -3  -4  -7  103.69    4.90
   3   4  -7  112.49    5.10
  -3   4   7  105.89    5.80
  -3   4   7  113.89    4.50
   3  -4   7   99.79    5.60
   3   4   7  102.39    4.40
   3   4   7  106.29    5.60
   3  -4  -7  108.79    4.80
  -3   4  -7  102.99    5.50
  -3  -4   7  107.99    5.50
  -4   4   7   42.00    3.50
  -4  -4  -7   45.60    4.20
   4   4  -7   38.10    3.70
   4  -4   7   40.10    4.10
  -4   4  -7   38.60    4.00
   4   4   7   41.40    4.30
   4  -4  -7   43.20    3.90
  -4  -4   7   37.90    4.10
   5  -4   7   14.40    3.70
   5   4  -7   12.90    3.50
  -5   4   7   19.50    3.00
  -5  -4  -7   16.50    3.60
  -5  -4   7   13.20    3.70
   5  -4  -7   19.20    3.10
   5  -4  -7   20.80    3.90
  -5   4  -7   20.40    3.70
   5   4   7   15.70    4.00
   0   5   7   14.40    2.80
   0  -5  -7    9.60    2.40
   0  -5   7   16.20    2.80
   0   5  -7   15.90    3.00
  -1   5   7   14.30    3.00
  -1  -5  -7   13.80    2.00
   1  -5   7   15.00    2.90
   1   5  -7    9.70    2.80
   1   5  -7   10.90    1.90
  -1  -5  -7   10.60    2.60
   1   5   7   12.10    2.50
   1  -5  -7   12.40    2.30
  -1   5  -7   12.40    2.80
  -1  -5   7   14.50    2.60
   2  -5   7  167.88    6.90
  -2   5   7  168.18    5.80
   2   5  -7  161.08    5.90
  -2  -5  -7  164.08    5.90
  -2   5   7  168.38    7.10
   2  -5  -7  177.68    6.00
   2   5   7  160.68    6.10
  -2  -5   7  160.18    5.80
  -2   5  -7  159.88    6.90
  -2  -5   7  163.28    7.00
  -3  -5  -7    9.60    2.40
  -3   5   7    6.00    3.00
   3  -5   7    9.60    2.90
  -3   5   7    9.20    2.30
   3   5  -7    4.80    2.30
   3   5   7    5.70    2.10
   3   5   7    8.60    2.90
  -3   5  -7    2.20    2.50
  -3  -5   7    7.80    2.80
   3  -5  -7    5.00    2.20
   4  -5   7   10.30    3.40
   4   5  -7   13.70    3.10
  -4  -5  -7   11.00    2.80
   4   5   7   10.50    3.50
  -4  -5   7   11.00    3.30
  -4   5  -7    6.40    3.00
   4  -5  -7   14.60    3.60
   4  -5  -7   13.70    2.60
   5   5  -7   12.90    3.50
  -5  -5  -7   17.40    3.70
   5  -5   7   18.40    4.00
   5   5   7   25.40    4.60
  -5  -5   7   12.30    3.90
   5  -5  -7   23.20    4.40
  -5   5  -7   19.00    4.00
   0  -6  -7   27.20    3.10
   0   6  -7   35.20    4.20
   0   6   7   29.30    3.70
   0  -6   7   34.40    3.70
  -1   6   7  132.49    6.60
  -1  -6  -7  127.29    5.10
   1  -6   7  131.59    6.30
  -1   6   7  122.89    5.10
  -1  -6  -7  130.89    6.00
   1   6  -7  131.19    6.60
   1  -6  -7  126.89    5.40
   1   6   7  139.29    6.20
  -1  -6   7  137.29    5.90
  -1   6  -7  116.19    6.50
   2  -6   7   70.19    5.20
  -2  -6  -7   67.59    5.30
   2   6  -7   62.69    4.10
  -2  -6  -7   61.19    4.10
  -2   6   7   70.49    5.50
   2   6   7   72.69    4.70
  -2  -6   7   59.99    5.30
  -2  -6   7   65.69    4.30
  -2   6  -7   67.89    5.50
   2  -6  -7   70.79    4.20
   3  -6   7   12.50    3.30
   3   6  -7   13.40    2.80
  -3  -6  -7   13.90    2.80
   3   6   7   12.00    3.40
  -3   6  -7   12.20    3.30
  -3  -6   7    9.30    3.20
   3  -6  -7   11.40    3.40
  -4  -6  -7    4.20    2.80
   4  -6   7    2.70    3.30
   4   6  -7    2.10    2.70
   4   6   7    7.10    3.70
  -4  -6   7    8.50    3.60
   4  -6  -7    3.90    3.50
  -4   6  -7    5.10    3.00
   0  -7   7   35.00    4.10
   0   7  -7   31.40    4.30
   0  -7  -7   32.20    3.50
   1   7  -7   71.29    5.80
  -1  -7  -7   54.59    5.00
   1  -7   7   60.69    5.40
  -1  -7  -7   74.79    5.20
  -1  -7   7   57.49    4.90
  -1   7  -7   61.09    5.70
   1  -7  -7   58.99    4.50
  -2  -7  -7   19.30    3.70
  -2  -7  -7   19.80    3.00
   2  -7   7   27.40    4.10
  -2  -7   7   17.60    3.90
   2  -7  -7   23.20    4.10
  -2   7  -7   17.50    3.90
  -3  -7  -7    8.30    3.00
   3  -7   7   17.90    3.90
  -3  -7   7   12.60    3.50
  -3   7  -7    4.80    3.50
   3  -7  -7    4.20    3.60
   0  -8   7    2.60    3.10
   0   8  -7   -3.70    3.10
   0  -8  -7    1.20    3.00
   1  -8   7    0.80    3.20
  -1  -8  -7   -1.90    2.60
  -1  -8  -7    0.80    2.80
   1   8  -7   -0.50    3.30
   1  -8  -7    4.10    3.40
  -1   8  -7   -0.30    3.20
   0   0   8   43.00    2.60
   0   0  -8   41.60    2.40
   1   0   8  425.16   10.40
  -1   0   8  428.16   10.40
  -1   0  -8  424.76   10.20
   1   0  -8  423.36   10.30
  -2   0  -8    0.50    1.40
   2   0  -8   -0.40    1.30
  -2   0  -8    1.30    1.20
   2   0   8   -2.10    1.40
  -2   0   8    1.10    1.40
   3   0   8   91.49    4.20
   3   0  -8   87.99    4.30
  -3   0   8  103.69    4.50
  -3   0  -8   95.49    4.10
  -3   0   8   89.09    4.10
  -4   0  -8  380.26   10.80
  -4   0   8  397.26   10.90
  -4   0   8  391.86   10.30
   4   0   8  377.76   10.40
   4   0   8  389.36   10.40
   4   0  -8  390.66   10.90
  -5   0  -8   17.00    3.20
   5   0   8   17.80    2.50
   5   0   8   25.30    3.10
   5   0  -8   21.90    3.40
  -5   0   8   21.60    3.30
   6   0   8    9.80    3.00
  -6   0  -8    6.40    3.40
   6   0  -8    9.10    3.50
   0  -1   8  520.65   12.40
   0   1  -8  558.94   12.30
   0   1   8  561.04   12.90
   0  -1  -8  547.25   12.80
   0   1  -8  535.65   12.50
   0  -1   8  550.14   12.90
  -1   1   8  372.96    9.40
   1  -1   8  358.66    9.40
   1   1  -8  356.16    9.10
  -1  -1  -8  364.06    9.30
  -1  -1   8  361.16    9.20
  -1  -1   8  376.76    8.80
   1  -1  -8  370.16    9.30
  -1   1  -8  377.66    8.90
   1   1   8  376.26    9.30
  -1   1  -8  363.46    8.90
  -2   1   8  771.32   17.70
   2   1  -8  761.32   17.60
  -2  -1  -8  777.42   17.00
   2  -1   8  771.22   17.80
  -2  -1  -8  754.92   17.70
  -2   1  -8  779.22   17.50
  -2  -1   8  780.52   17.40
  -2   1  -8  772.42   17.10
  -2  -1   8  767.72   17.20
   2   1   8  760.42   17.50
   2  -1  -8  759.92   17.70
  -3   1   8  257.67    7.00
   3  -1   8  274.77    8.00
  -3   1   8  274.77    8.00
  -3  -1  -8  270.07    7.50
   3   1  -8  266.87    7.90
   3   1   8  251.57    7.40
  -3   1  -8  264.87    7.80
  -3  -1   8  271.37    7.70
   3  -1  -8  251.97    7.70
  -3   1  -8  267.97    7.30
  -3  -1   8  282.77    7.40
   3   1   8  267.17    7.80
   4  -1   8  119.29    5.50
  -4   1   8  119.39    4.90
  -4  -1  -8  109.59    5.30
   4   1  -8  117.89    5.50
  -4   1   8  119.59    5.40
  -4   1  -8  106.69    5.30
  -4  -1   8  120.09    5.80
   4  -1  -8  115.69    5.40
   4   1   8  115.59    4.70
  -4  -1   8  116.09    4.70
   4   1   8  121.79    5.40
  -5  -1  -8   31.10    3.70
  -5   1   8   25.20    3.10
  -5   1   8   25.10    3.20
   5   1  -8   26.80    3.60
   5  -1   8   25.10    3.30
   5  -1   8   28.20    3.00
  -5   1  -8   23.80    3.50
   5   1   8   24.10    3.30
  -5  -1   8   23.90    3.80
   5  -1  -8   26.70    3.50
  -6   1   8    7.20    3.00
  -6  -1  -8    3.10    3.30
   6   1  -8    0.00    3.30
   6   1   8    5.70    3.20
  -6   1  -8    0.40    3.00
   6  -1  -8    0.80    3.10
  -6  -1   8   14.50    4.40
   0   2  -8    6.50    1.60
   0  -2  -8    5.40    1.50
   0   2   8    7.50    1.60
   0  -2   8    7.90    1.60
   0   2  -8    9.50    1.40
   1   2  -8  540.25   12.30
  -1   2   8  499.45   12.60
   1   2  -8  520.35   12.10
   1  -2   8  525.55   12.70
  -1  -2  -8  500.35   12.50
  -1   2  -8  516.05   11.60
  -1   2  -8  518.45   12.40
   1  -2  -8  507.75   12.40
   1   2   8  511.25   12.40
  -1  -2   8  518.45   12.30
   2   2  -8  587.44   14.10
  -2  -2  -8  582.64   14.50
   2  -2   8  582.54   14.40
  -2  -2  -8  609.24   13.70
  -2   2   8  596.04   14.60
  -2  -2   8  600.14   14.20
  -2  -2   8  614.84   13.90
   2  -2  -8  594.04   14.20
   2   2   8  594.64   14.00
  -2   2  -8  592.44   14.40
  -3   2   8   13.40    2.60
  -3  -2  -8    8.80    2.10
   3   2  -8    9.50    2.10
   3  -2   8    7.30    2.40
   3  -2  -8   10.90    2.20
   3   2   8   11.80    1.90
  -3  -2   8    9.10    1.80
  -3  -2   8    7.60    2.20
  -3   2  -8   12.10    2.30
   3   2   8   10.60    2.30
   4   2  -8   11.40    2.80
   4  -2   8   14.10    2.90
  -4   2   8   14.90    2.10
  -4  -2  -8   10.40    2.60
  -4   2   8   17.50    3.10
   4   2   8   14.40    2.00
   4  -2  -8   20.50    2.90
   4   2   8   16.40    3.00
  -4   2  -8   12.50    2.60
  -4  -2   8   10.80    2.70
   5  -2   8   33.80    3.90
  -5   2   8   29.10    3.20
  -5   2   8   29.90    3.70
   5   2  -8   30.60    4.00
  -5  -2  -8   31.50    3.80
  -5  -2   8   28.60    4.20
  -5   2  -8   24.60    3.60
   5  -2  -8   35.30    3.80
   5   2   8   34.00    4.00
  -6  -2  -8   16.10    4.00
  -6   2   8   12.10    3.20
   6  -2   8    9.70    4.20
   6   2  -8   20.70    4.30
  -6   2  -8   19.10    3.80
  -6  -2   8   14.00    4.50
   6  -2  -8   19.20    3.80
   6   2   8   17.30    4.00
   0   3  -8   74.69    2.90
   0   3   8   71.29    3.70
   0   3  -8   66.09    3.60
   0  -3   8   67.19    3.60
   0  -3  -8   63.49    3.50
   1   3  -8   27.30    2.40
   1  -3   8   24.30    2.60
  -1   3   8   27.20    2.70
  -1  -3  -8   32.50    3.10
   1   3  -8   29.40    2.90
  -1  -3   8   28.20    2.50
   1   3   8   28.20    2.70
  -1   3  -8   30.60    2.90
   1  -3  -8   27.60    2.60
  -2  -3  -8   25.40    2.40
   2  -3   8   18.50    2.70
  -2   3   8   18.30    2.60
   2   3  -8   23.10    2.40
   2   3   8   26.40    2.40
  -2  -3   8   16.80    2.50
  -2  -3   8   24.10    2.30
   2  -3  -8   25.30    2.50
  -2   3  -8   24.40    2.70
  -3   3   8  106.99    5.60
  -3  -3  -8  106.89    4.90
   3   3  -8   97.59    4.90
   3  -3   8   98.69    5.30
   3   3   8  106.49    4.30
  -3  -3   8  103.79    4.20
  -3  -3   8   98.89    5.10
   3   3   8  112.29    5.40
   3  -3  -8  111.59    4.90
  -3   3  -8  107.69    5.20
  -4  -3  -8   82.19    5.00
   4   3  -8   83.19    5.20
   4  -3   8   81.29    5.40
  -4   3   8   88.79    5.60
  -4   3   8   88.59    4.10
   4   3   8   89.29    5.70
   4   3   8   77.99    4.70
  -4   3  -8   93.29    5.30
   4  -3  -8   98.09    5.00
  -4  -3   8   90.49    5.30
   5   3  -8   39.30    4.30
   5  -3   8   37.90    4.30
  -5   3   8   28.90    3.60
  -5  -3  -8   35.10    4.10
   5   3   8   36.60    4.40
  -5  -3   8   30.30    4.10
   5  -3  -8   38.20    3.90
  -5   3  -8   36.90    4.20
   6  -3   8    3.40    3.70
  -6  -3  -8    8.80    3.90
   6   3  -8   14.80    4.20
   6   3   8   13.60    4.10
  -6  -3   8    6.70    4.80
   6  -3  -8   13.50    3.50
  -6   3  -8   11.00    3.80
   0  -4   8  212.38    6.90
   0  -4  -8  213.98    6.80
   0   4   8  206.78    7.00
   0   4  -8  206.28    7.10
  -1   4   8  399.56   11.50
  -1  -4  -8  424.26   11.20
   1   4  -8  414.96   11.30
   1  -4   8  417.86   11.40
   1   4  -8  417.86   10.30
   1  -4  -8  422.26   10.90
   1   4   8  408.66   11.10
  -1   4  -8  420.66   11.60
  -1  -4   8  433.06   11.00
  -2  -4  -8   11.00    2.00
   2   4  -8    9.40    2.10
  -2   4   8    9.40    2.70
   2  -4   8    7.90    2.40
  -2  -4  -8    6.90    2.60
   2   4   8    9.70    2.20
   2  -4  -8   11.00    2.20
  -2   4  -8   12.50    2.70
  -2  -4   8   10.90    2.70
  -2  -4   8   10.90    2.10
  -3  -4  -8    9.80    2.40
   3  -4   8    5.20    2.70
  -3   4   8   11.60    3.10
   3   4  -8    8.40    2.40
   3  -4  -8    6.90    2.40
  -3  -4   8    4.50    2.70
   3   4   8    6.80    2.70
  -3   4  -8   10.30    2.80
   3   4   8   11.60    2.20
   4   4  -8   27.90    3.50
   4  -4   8   28.80    4.00
  -4   4   8   30.70    4.20
  -4  -4  -8   24.10    3.40
  -4   4  -8   22.80    3.60
   4  -4  -8   27.20    3.30
  -4  -4   8   24.40    3.70
   4   4   8   28.60    3.90
  -5  -4  -8   -0.40    3.20
   5   4  -8    2.90    3.10
   5  -4   8   -0.70    3.20
   5  -4  -8    6.70    2.80
   5  -4  -8    6.70    3.40
  -5   4  -8    4.20    3.00
   5   4   8    3.70    3.60
  -5  -4   8   -3.90    3.30
   0   5  -8  358.26   10.80
   0   5   8  358.76   10.70
   0  -5  -8  360.06   10.10
   0  -5   8  370.16   10.50
   1  -5   8  288.67    9.10
  -1  -5  -8  279.97    8.90
   1   5  -8  288.77    7.90
  -1   5   8  279.47    9.30
   1   5  -8  277.07    9.20
  -1   5  -8  291.97    9.50
   1   5   8  294.27    9.00
   1  -5  -8  280.97    8.50
  -1  -5   8  300.17    8.70
   2  -5   8   67.99    4.90
   2   5  -8   69.69    4.00
  -2   5   8   73.69    5.40
  -2  -5  -8   71.69    5.10
  -2  -5  -8   67.69    3.80
   2  -5  -8   71.29    4.30
  -2  -5   8   70.49    5.10
   2   5   8   63.19    4.30
  -2   5  -8   65.69    5.00
  -2  -5   8   73.19    4.20
  -3   5   8   66.89    5.60
   3   5  -8   57.59    4.30
  -3  -5  -8   62.09    4.20
   3  -5   8   60.89    5.20
   3   5   8   55.79    4.40
  -3  -5   8   65.59    5.10
  -3   5  -8   52.99    5.00
   3  -5  -8   56.39    4.30
  -4  -5  -8   17.00    3.20
   4  -5   8   12.50    3.50
   4   5  -8   12.20    3.10
   4  -5  -8   15.90    2.90
  -4  -5   8   12.90    3.40
   4   5   8   13.40    3.70
  -4   5  -8   10.50    3.30
  -5  -5  -8    5.00    3.40
   5  -5   8    7.30    3.80
   5   5  -8   10.30    3.50
   5  -5  -8    3.40    3.60
  -5  -5   8   -0.50    3.70
   5   5   8   16.60    4.40
  -5   5  -8    9.50    3.60
   0   6   8    8.90    3.00
   0  -6  -8    9.20    2.60
   0  -6   8    8.70    2.80
   0   6  -8    9.60    3.00
   1   6  -8   32.60    4.20
   1  -6   8   33.00    3.90
  -1  -6  -8   26.30    3.50
  -1  -6  -8   29.90    3.20
  -1   6   8   35.20    4.20
   1  -6  -8   33.90    3.40
  -1  -6   8   35.60    3.60
   1   6   8   31.00    3.70
  -1   6  -8   36.00    4.30
   2  -6   8   15.90    3.60
   2   6  -8   10.60    2.40
  -2  -6  -8    9.90    2.30
  -2  -6  -8   13.50    3.30
  -2   6   8    8.40    3.30
   2   6   8    9.20    2.70
  -2  -6   8    9.90    2.50
  -2   6  -8   17.10    3.80
  -2  -6   8    8.90    3.20
   2  -6  -8   11.80    2.60
  -3  -6  -8   12.40    2.80
   3  -6   8   12.40    3.40
   3   6  -8   10.70    2.80
  -3   6  -8   13.90    3.60
   3  -6  -8   12.60    2.90
  -3  -6   8   18.90    3.60
   4   6  -8   -2.60    2.70
  -4  -6  -8   -1.00    2.50
   4  -6   8   -1.30    3.20
  -4   6  -8   -2.40    2.90
   4  -6  -8   -2.00    3.30
   4   6   8    0.10    3.50
  -4  -6   8    3.10    3.40
   0  -7  -8    9.20    2.90
   0  -7   8    7.80    3.10
   0   7  -8    7.50    3.40
   0   7   8   12.20    3.40
   1   7  -8   54.09    5.30
   1  -7   8   53.69    5.10
  -1  -7  -8   50.89    4.60
  -1  -7   8   59.59    4.90
   1   7   8   51.89    4.70
   1  -7  -8   54.39    4.60
  -1   7  -8   53.59    5.40
   2  -7   8   11.30    3.60
  -2  -7  -8    2.30    3.20
  -2   7  -8    5.60    3.50
  -2  -7   8    5.70    3.50
  -3  -7  -8   -2.20    3.50
   3  -7   8    0.90    3.40
   3  -7  -8    1.90    3.60
  -3  -7   8    6.20    3.50
  -3   7  -8    0.30    3.30
   0   0   9    2.80    1.30
   0   0  -9    3.60    1.40
  -1   0  -9  240.48    6.70
   1   0   9  243.08    7.00
  -1   0   9  245.78    6.90
   1   0  -9  241.68    6.80
  -2   0  -9   -0.30    1.50
  -2   0  -9    2.50    1.30
  -2   0   9    1.00    1.60
   2   0   9    0.30    1.60
   2   0  -9    0.20    1.40
   3   0  -9    1.30    2.00
  -3   0   9   -0.80    2.00
   3   0   9    0.50    2.00
  -3   0  -9   -2.20    1.70
  -3   0   9    1.00    1.90
  -3   0  -9   -1.00    1.70
   4   0   9    4.70    2.30
  -4   0   9    3.20    2.20
   4   0  -9    5.10    2.50
  -4   0   9    5.00    2.40
  -4   0  -9    4.50    2.30
  -5   0   9   14.80    3.10
  -5   0  -9    8.00    2.90
   5   0  -9   14.80    3.20
   5   0   9   10.00    2.80
   5   0   9   10.30    2.60
  -6   0   9    9.80    3.30
   6   0   9    2.60    3.00
  -6   0  -9    1.10    3.30
   6   0  -9    7.70    3.60
   0   1   9    1.60    1.40
   0   1  -9    2.10    1.20
   0  -1   9    2.40    1.50
   0  -1  -9    2.20    1.40
   0   1  -9    1.30    1.10
  -1  -1  -9   78.79    3.60
  -1   1   9   73.39    3.60
   1   1  -9   71.19    3.40
   1  -1   9   76.39    3.70
  -1   1  -9   77.19    3.20
   1  -1  -9   73.29    3.50
  -1  -1   9   72.89    3.50
   1   1   9   77.89    3.60
  -1   1  -9   81.39    3.30
   2   1  -9  229.98    6.80
   2  -1   9  241.18    7.00
  -2  -1  -9  220.48    6.00
  -2   1   9  213.38    6.80
  -2  -1  -9  214.58    6.80
  -2  -1   9  229.68    6.60
   2   1   9  215.58    6.70
   2  -1  -9  216.98    6.80
  -2  -1   9  226.38    6.20
  -2   1  -9  224.98    6.50
  -2   1  -9  224.48    6.20
  -3   1   9  307.47    9.00
   3  -1   9  309.77    9.10
  -3  -1  -9  321.57    8.50
   3   1  -9  295.57    8.80
   3  -1  -9  313.47    8.90
  -3   1  -9  307.27    8.30
  -3  -1   9  309.27    8.40
  -3  -1   9  290.27    8.60
   3   1   9  310.67    8.60
  -3   1  -9  302.37    8.70
   4   1  -9    8.50    2.80
  -4  -1  -9   11.00    2.60
  -4   1   9   12.00    2.80
  -4   1   9   13.80    2.20
   4  -1   9    8.60    2.70
  -4   1  -9   10.60    2.20
   4   1   9   14.10    2.40
  -4  -1   9   15.40    2.40
   4   1   9   15.60    2.80
   4  -1  -9   10.90    2.60
  -4  -1   9    8.00    2.80
  -4   1  -9   12.10    2.60
   5   1  -9    5.40    3.10
   5  -1   9    5.80    2.70
  -5   1   9    6.00    2.80
  -5  -1  -9    4.20    2.90
  -5   1   9    2.60    2.40
  -5   1  -9    5.00    2.70
   5   1   9    5.30    2.90
  -5  -1   9    5.10    3.30
   5  -1  -9    3.50    2.90
   6   1  -9   13.80    4.00
  -6  -1  -9    7.30    3.60
  -6  -1   9    9.10    3.80
   6   1   9    4.40    3.20
   6  -1  -9   19.90    4.10
  -6   1  -9    6.80    3.40
   0  -2  -9   72.79    3.60
   0   2  -9   73.59    3.40
   0   2  -9   73.99    3.10
   0   2   9   70.99    3.60
   0  -2   9   70.69    3.60
   1   2  -9   22.70    2.10
   1   2  -9   18.30    2.10
   1  -2   9   15.90    2.20
  -1  -2  -9   22.90    2.40
  -1   2   9   21.20    2.40
  -1  -2   9   20.00    2.20
  -1   2  -9   22.20    1.90
   1   2   9   26.20    2.40
   1  -2  -9   17.40    2.20
  -1   2  -9   19.40    2.10
  -2  -2  -9   78.79    4.20
  -2   2   9   81.59    4.40
   2   2  -9   72.29    3.90
   2  -2   9   76.79    4.50
   2   2   9   78.99    3.80
   2  -2  -9   81.69    4.10
  -2  -2   9   81.19    3.90
  -2   2  -9   77.99    4.00
  -2  -2   9   70.79    3.80
  -2   2  -9   78.69    3.20
   3   2  -9   70.69    4.30
   3  -2   9   68.89    4.60
  -3   2   9   77.99    4.80
  -3  -2  -9   66.79    3.80
   3  -2  -9   73.59    4.20
  -3  -2   9   73.59    3.80
  -3   2  -9   70.69    4.30
   3   2   9   76.69    3.90
  -3  -2   9   64.89    4.20
   4   2  -9   13.50    2.80
  -4   2   9   10.90    3.00
   4  -2   9   12.50    2.90
  -4  -2  -9   14.30    2.60
  -4   2   9   10.90    1.90
   4   2   9   13.20    3.00
   4  -2  -9   16.40    2.80
  -4  -2   9   13.70    2.80
  -4   2  -9    8.70    2.60
   4   2   9    9.40    2.00
   5  -2   9   71.29    5.60
   5   2  -9   75.59    5.70
  -5  -2  -9   67.99    5.20
  -5   2   9   78.59    5.50
  -5   2  -9   72.49    5.40
   5   2   9   70.59    5.70
   5  -2  -9   80.89    5.60
  -5  -2   9   63.79    5.80
   6  -2   9    7.30    5.60
  -6  -2  -9    8.30    3.90
   6   2  -9   11.50    4.00
  -6   2  -9   13.00    3.70
   6   2   9    6.00    3.60
  -6  -2   9   10.10    5.00
   6  -2  -9    4.70    3.40
   0   3   9    4.70    1.80
   0  -3  -9    2.90    1.80
   0   3  -9    5.30    1.30
   0  -3   9    3.40    1.90
   0   3  -9    0.60    1.70
   1   3  -9   49.90    3.50
  -1   3   9   47.90    3.70
   1   3  -9   53.79    3.00
  -1  -3  -9   49.50    3.70
   1  -3   9   45.30    3.60
   1  -3  -9   44.10    3.40
  -1  -3   9   48.70    3.30
   1   3   9   49.99    3.40
  -1   3  -9   54.49    3.60
  -2   3   9  182.98    6.70
   2   3  -9  166.78    5.80
  -2  -3  -9  169.88    6.50
   2  -3   9  163.58    6.50
   2  -3  -9  169.98    6.00
   2   3   9  169.38    5.80
  -2   3  -9  180.68    6.40
  -2  -3   9  170.68    5.70
  -2  -3   9  176.08    6.30
  -3  -3  -9   49.30    3.80
  -3   3   9   51.59    4.80
   3   3  -9   54.89    4.10
   3  -3   9   53.79    4.60
  -3  -3   9   52.09    3.60
  -3  -3   9   55.79    4.20
   3   3   9   50.59    3.50
   3  -3  -9   50.49    4.00
  -3   3  -9   48.90    4.30
  -4   3   9   82.09    5.80
   4  -3   9   75.39    5.40
   4   3  -9   78.59    5.10
  -4  -3  -9   74.79    4.80
   4   3   9   86.89    5.70
   4   3   9   59.39    4.70
  -4  -3   9   67.19    5.00
  -4   3  -9   81.39    5.30
   4  -3  -9   80.09    5.00
   5   3  -9    7.90    3.20
  -5  -3  -9    2.30    3.10
   5  -3   9    2.90    3.20
  -5   3   9    5.70    3.50
   5   3   9    7.00    3.40
  -5   3  -9    5.90    3.10
  -5  -3   9   -3.50    3.10
   5  -3  -9    5.00    3.00
   0   4   9   14.30    2.60
   0  -4  -9   11.90    2.40
   0  -4   9   12.30    2.40
   0   4  -9    9.60    2.40
  -1  -4  -9   75.79    4.60
   1   4  -9   75.49    3.60
   1  -4   9   69.39    4.50
  -1   4   9   73.79    4.70
   1   4  -9   73.89    4.50
   1  -4  -9   74.29    4.30
  -1  -4   9   70.99    4.20
   1   4   9   72.39    4.40
  -1   4  -9   72.59    4.70
   2  -4   9   83.29    5.20
  -2   4   9   79.09    5.30
   2   4  -9   81.99    4.20
  -2  -4  -9   78.59    5.10
  -2   4  -9   89.19    5.00
  -2  -4   9   84.79    5.00
  -2  -4   9   85.19    4.30
   2  -4  -9   83.49    4.50
   2   4   9   78.49    4.40
   3  -4   9   10.50    3.00
  -3  -4  -9   10.80    2.40
   3   4  -9   11.30    2.50
  -3   4   9   14.10    3.30
  -3  -4   9   14.10    2.50
  -3  -4   9   10.90    2.80
   3  -4  -9   10.90    2.70
   3   4   9   11.70    2.30
  -3   4  -9   12.90    3.00
   4   4  -9    4.20    2.70
   4  -4   9    7.90    3.30
  -4   4   9    7.80    3.50
  -4  -4  -9    7.80    2.80
  -4  -4   9    3.70    2.80
  -4   4  -9    8.40    3.10
   4  -4  -9    6.00    2.70
   4   4   9    5.60    3.30
  -5  -4  -9    4.80    3.30
   5   4  -9   16.40    3.70
   5  -4   9    9.20    3.80
   5   4   9   11.90    4.10
  -5   4  -9   11.40    3.50
   5  -4  -9    9.10    3.10
  -5  -4   9    1.90    3.50
   0  -5   9   37.40    3.70
   0   5   9   44.30    4.10
   0  -5  -9   46.70    4.00
   0   5  -9   42.30    4.20
   1   5  -9   33.60    3.80
  -1   5   9   24.40    3.60
   1  -5   9   22.60    3.40
  -1  -5  -9   25.10    3.40
   1   5  -9   22.50    2.40
  -1  -5   9   23.80    3.20
  -1   5  -9   27.20    3.60
   1  -5  -9   33.10    3.30
   1   5   9   28.10    3.30
   2  -5   9   15.40    3.20
  -2   5   9   11.50    3.20
   2   5  -9   12.50    2.50
  -2  -5  -9   12.00    3.10
   2  -5  -9   12.60    2.70
  -2   5  -9   16.00    3.40
  -2  -5   9   14.50    2.60
  -2  -5   9   12.60    3.20
   2   5   9   14.80    2.70
   3   5  -9   24.30    3.20
   3  -5   9   15.40    3.50
  -3  -5  -9   22.70    2.90
  -3   5   9   25.70    4.20
  -3  -5   9   20.50    3.60
   3  -5  -9   27.20    3.30
   3   5   9   17.00    3.00
  -3   5  -9   18.40    3.60
   4   5  -9    3.30    2.80
  -4   5   9    5.20    3.90
   4  -5   9    4.80    3.60
  -4  -5  -9    2.20    2.70
  -4   5  -9    4.70    3.10
   4   5   9    9.60    3.70
  -4  -5   9    4.40    3.30
   4  -5  -9    9.10    2.80
   0   6   9    5.70    3.00
   0  -6   9    5.30    2.70
   0   6  -9    5.00    2.90
   0  -6  -9    7.20    2.60
  -1  -6  -9   54.59    4.80
  -1   6   9   62.89    5.50
   1   6  -9   49.40    5.00
   1  -6   9   62.99    5.20
   1  -6  -9   55.69    4.60
  -1  -6   9   60.09    4.70
   1   6   9   55.99    5.00
  -1   6  -9   53.89    5.30
  -2  -6  -9   34.90    4.10
  -2   6   9   34.10    4.50
   2   6  -9   37.20    3.60
   2  -6   9   38.50    4.50
   2   6   9   33.70    3.70
  -2  -6   9   21.50    4.00
   2  -6  -9   28.80    3.40
  -2   6  -9   32.70    4.50
  -2  -6   9   33.90    3.70
  -3  -6  -9   17.10    4.10
   3  -6   9   21.20    3.90
  -3   6   9   19.50    4.30
   3   6  -9   16.90    3.20
  -3   6  -9   17.00    3.90
   3  -6  -9   14.00    3.10
  -3  -6   9   19.00    3.70
   0  -7   9   66.99    5.70
   0   7  -9   68.89    6.00
   0   7   9   69.89    6.00
   0  -7  -9   76.59    5.40
   1   7  -9    5.60    3.50
  -1   7   9    6.90    3.70
   1  -7   9    6.90    3.30
  -1  -7  -9    7.30    3.20
  -1  -7   9    6.40    3.00
   1  -7  -9   10.40    3.00
   1   7   9    7.70    3.20
  -1   7  -9   11.00    3.60
  -2  -7  -9    6.90    3.40
   2  -7   9    2.90    3.30
  -2   7  -9    5.40    3.50
  -2  -7   9    7.10    3.50
   0   0 -10  585.94   13.80
   0   0  10  577.84   14.00
  -1   0 -10  358.26    9.30
   1   0  10  357.56    9.60
   1   0 -10  363.86    9.50
  -1   0  10  357.16    9.50
  -2   0 -10    4.60    1.80
  -2   0 -10    2.00    1.40
   2   0  10   -0.80    1.80
   2   0 -10    2.30    1.70
  -2   0  10    0.00    1.80
  -3   0 -10  283.17    8.20
  -3   0 -10  278.17    8.10
   3   0 -10  274.47    8.50
  -3   0  10  288.27    8.40
   3   0  10  281.77    8.50
   4   0 -10   -0.50    2.30
  -4   0 -10    3.40    2.20
  -4   0  10    3.40    2.20
  -4   0  10    1.30    2.30
  -4   0 -10   -1.20    2.20
   4   0  10   -0.80    2.10
   5   0 -10   -3.50    2.80
  -5   0 -10   -1.80    2.60
  -5   0  10    3.00    2.60
   5   0  10    1.50    2.40
   6   0 -10   -0.30    3.50
  -6   0 -10   -5.60    3.10
   0  -1  10   21.00    2.40
   0   1 -10   24.80    2.30
   0   1  10   24.60    2.50
   0  -1 -10   24.20    2.40
  -1  -1 -10   66.89    3.60
   1  -1  10   72.69    3.80
   1   1 -10   69.59    3.60
  -1   1  10   66.29    3.80
  -1   1 -10   73.09    3.20
   1  -1 -10   68.19    3.60
   1   1  10   73.69    3.80
  -1   1 -10   77.79    3.40
  -1  -1  10   64.49    3.70
   2  -1  10   15.00    2.30
  -2  -1 -10   17.80    2.40
   2   1 -10   16.80    2.30
  -2   1  10   13.90    2.40
  -2   1 -10   16.60    2.10
   2   1  10   15.90    2.30
  -2   1 -10   17.40    2.10
   2  -1 -10   20.20    2.60
  -2  -1  10   16.20    2.40
   3   1 -10  100.09    5.00
   3  -1  10   95.89    5.20
  -3  -1 -10   97.29    5.00
  -3   1  10  101.69    5.20
  -3  -1 -10  102.59    4.50
  -3   1 -10  103.29    4.40
   3   1  10  105.89    4.90
  -3   1 -10   97.49    4.70
   3  -1 -10   90.49    4.90
  -3  -1  10  107.99    4.80
  -3  -1  10   94.29    4.60
   4   1 -10   34.10    3.70
   4  -1  10   28.30    3.40
  -4   1  10   34.60    3.80
  -4  -1 -10   31.20    3.30
  -4   1  10   33.50    3.10
  -4  -1  10   39.30    3.70
  -4   1 -10   34.50    3.10
   4   1  10   25.90    2.90
  -4   1 -10   28.20    3.40
   4  -1 -10   43.10    3.90
   5   1 -10    2.10    3.10
  -5   1  10    2.90    2.80
  -5  -1 -10    3.60    3.00
   5  -1  10    6.80    2.80
  -5  -1  10    6.90    3.20
   5  -1 -10    9.30    3.30
  -5   1 -10    1.30    2.80
  -6  -1 -10   17.80    4.30
   6   1 -10   28.30    4.60
  -6   1 -10   20.40    4.10
  -6  -1  10   29.20    4.80
   6  -1 -10   25.80    4.30
   6   1  10   25.10    4.10
   0  -2  10   -0.40    1.60
   0   2  10    0.80    1.60
   0  -2 -10    2.00    1.70
   0   2 -10    1.40    1.50
   0   2 -10    1.00    1.30
  -1  -2 -10   12.50    2.20
   1   2 -10   11.90    1.90
   1  -2  10    9.00    2.40
  -1   2  10   11.40    2.20
   1  -2 -10   12.40    2.20
   1   2  10   14.20    2.20
  -1   2 -10   13.40    2.00
  -1   2 -10   10.80    1.60
  -1  -2  10    9.80    2.20
   2  -2  10  260.77    8.40
  -2  -2 -10  266.87    8.20
  -2   2  10  270.97    8.30
   2   2 -10  263.27    7.80
  -2  -2  10  274.37    7.80
  -2   2 -10  261.37    7.90
  -2   2 -10  257.97    7.00
   2  -2 -10  254.87    7.90
  -2  -2  10  261.77    7.70
   2   2  10  261.47    7.80
  -3  -2 -10  203.38    7.40
   3  -2  10  197.28    7.40
   3   2 -10  191.48    7.00
  -3  -2 -10  186.38    6.20
  -3   2  10  201.38    7.50
  -3   2 -10  196.58    7.00
  -3  -2  10  193.18    6.80
   3  -2 -10  202.68    7.00
  -3  -2  10  210.88    6.50
   3   2  10  190.28    6.50
   4  -2  10    3.00    2.70
  -4  -2 -10    2.60    2.30
   4   2 -10    5.00    2.70
  -4   2  10    5.00    3.10
  -4  -2  10    2.20    2.50
  -4   2 -10    5.90    2.60
   4  -2 -10    5.90    2.70
  -4  -2  10    4.40    3.40
   4   2  10    2.30    1.90
  -5  -2 -10   38.20    4.20
   5  -2  10   44.80    4.50
   5   2 -10   46.90    4.80
  -5   2  10   54.49    5.40
  -5  -2  10   35.00    4.70
  -5   2 -10   40.40    4.40
   5   2  10   42.60    4.50
   5  -2 -10   59.79    5.40
   0  -3  10  597.54   14.70
   0   3  10  569.34   14.70
   0   3 -10  595.04   13.60
   0   3 -10  587.44   14.40
   0  -3 -10  582.24   14.50
  -1  -3 -10   55.79    4.10
  -1   3  10   57.49    4.10
   1   3 -10   50.19    3.70
   1   3 -10   59.59    3.30
   1  -3  10   55.09    4.30
   1  -3 -10   53.59    3.80
  -1   3 -10   55.69    3.90
   1   3  10   53.99    3.70
  -1  -3  10   50.89    3.80
   2  -3  10   34.40    3.70
  -2  -3 -10   32.70    3.40
   2   3 -10   33.70    3.00
  -2   3  10   28.60    3.40
  -2  -3  10   29.60    3.00
  -2   3 -10   34.70    3.40
   2  -3 -10   31.50    3.10
   2   3  10   27.00    2.90
  -2  -3  10   31.70    3.20
  -3   3  10  201.18    7.80
  -3  -3 -10  187.98    6.40
   3   3 -10  192.68    6.90
  -3  -3 -10  189.48    7.60
   3  -3  10  186.68    7.40
  -3  -3  10  171.68    6.90
  -3  -3  10  190.48    6.40
   3  -3 -10  202.68    7.10
  -3   3 -10  183.68    7.20
   3   3  10  193.48    6.50
   4  -3  10    4.00    3.10
  -4   3  10    6.60    3.20
  -4  -3 -10    6.50    2.70
   4   3 -10    5.00    2.80
   4  -3 -10    7.80    2.80
  -4  -3  10    1.90    2.90
  -4   3 -10    4.90    2.70
   4   3  10    5.70    2.60
   5   3 -10   19.90    3.90
  -5   3  10   19.90    4.20
   5  -3  10   13.10    4.00
  -5  -3 -10   14.80    3.50
  -5   3 -10   17.30    3.80
   5   3  10   13.50    4.00
   5  -3 -10   17.20    3.50
  -5  -3  10    9.80    4.00
   0   4  10    6.80    2.40
   0  -4 -10    7.40    2.40
   0   4 -10    4.10    1.50
   0   4 -10    7.20    2.40
   0  -4  10    7.50    2.70
   1  -4  10  134.49    6.00
  -1  -4 -10  134.59    6.00
   1   4 -10  129.89    4.80
   1   4 -10  130.89    5.80
  -1   4  10  132.19    6.20
  -1   4 -10  140.29    6.10
  -1  -4  10  144.79    5.80
   1   4  10  133.99    5.80
   1  -4 -10  132.19    5.70
  -2  -4 -10   42.90    4.10
   2  -4  10   31.80    3.70
  -2   4  10   40.80    4.00
   2   4 -10   41.10    3.50
  -2   4 -10   41.30    3.90
  -2  -4  10   38.00    3.30
   2   4  10   35.40    3.30
  -2  -4  10   36.70    3.70
   2  -4 -10   41.90    3.90
  -3  -4 -10   42.30    3.80
   3  -4  10   45.10    4.30
   3   4 -10   44.40    3.80
  -3   4  10   45.00    4.60
  -3  -4 -10   45.40    4.40
  -3  -4  10   50.79    4.60
   3   4  10   40.80    3.70
   3  -4 -10   50.69    4.50
  -3   4 -10   43.20    4.40
  -3  -4  10   51.99    4.20
   4   4 -10   25.90    3.60
   4  -4  10   23.90    4.00
  -4  -4 -10   27.20    3.40
  -4   4  10   27.00    4.40
  -4  -4  10   22.00    3.80
   4  -4 -10   25.80    3.50
  -4   4 -10   25.30    3.90
   5  -4  10    2.50    3.80
  -5  -4 -10    9.10    4.30
   5   4 -10   10.20    3.50
  -5  -4  10   -3.90    3.60
   5   4  10   12.00    4.10
  -5   4 -10    6.00    3.40
   5  -4 -10   10.00    3.40
   0   5 -10    2.70    2.50
   0  -5 -10    0.30    2.30
   0   5  10   -0.50    2.40
   0  -5  10   -0.30    2.40
   1   5 -10   18.20    2.30
   1   5 -10   22.70    3.40
   1  -5  10   15.40    3.10
  -1   5  10   17.60    3.40
  -1  -5 -10   19.70    3.30
  -1  -5  10   19.50    3.10
  -1   5 -10   14.20    3.20
   1   5  10   17.60    3.10
   1  -5 -10   18.40    3.00
  -2  -5 -10   13.40    3.20
  -2   5  10   15.00    3.40
   2   5 -10   13.90    2.50
   2  -5  10   14.10    3.30
   2  -5 -10   12.10    2.80
  -2  -5  10   12.80    2.70
  -2   5 -10   17.10    3.40
  -2  -5  10   17.40    3.50
   2   5  10    8.80    2.70
   3  -5  10   46.60    4.90
  -3   5  10   43.40    4.90
  -3  -5 -10   44.40    4.70
   3   5 -10   49.80    4.40
  -3   5 -10   49.30    5.00
   3   5  10   34.00    4.50
  -3  -5  10   36.50    4.20
   3  -5 -10   42.40    4.10
   4   5 -10    9.60    3.10
   4  -5  10    5.50    3.70
  -4   5  10    1.60    3.80
  -4  -5  10    1.20    3.20
  -4   5 -10    5.90    3.30
   4  -5 -10    7.50    3.00
   0  -6  10    7.90    2.90
   0  -6 -10    8.30    2.90
   0   6  10    9.60    3.10
   0   6 -10    5.40    3.00
   1  -6  10   59.99    5.20
  -1  -6 -10   50.79    4.60
  -1   6  10   44.10    4.90
   1   6 -10   55.39    5.10
  -1   6 -10   56.49    5.30
  -1  -6  10   52.69    4.90
   1   6  10   53.89    5.10
   1  -6 -10   57.09    4.80
  -2   6  10    2.90    3.20
   2  -6  10    0.00    3.00
  -2  -6 -10   -0.30    3.00
  -2  -6  10    1.20    3.10
   2  -6 -10    2.80    2.60
  -2  -6  10    3.90    4.00
  -2   6 -10    2.00    3.00
   2   6  10   -0.40    2.50
  -3  -6 -10   27.30    4.60
   3  -6  10   30.60    4.50
  -3   6  10   21.90    4.60
   3   6 -10   21.80    3.40
   3  -6 -10   25.80    3.70
  -3  -6  10   28.00    4.20
   0   7  10  113.39    7.20
   0  -7  10  114.49    6.60
   0   7 -10  120.69    7.20
   0  -7 -10  121.99    6.60
  -1   7  10   18.50    4.20
   1  -7  10   19.40    4.10
  -1  -7 -10   25.10    4.00
   1   7 -10   19.10    4.20
  -1  -7  10   23.70    3.90
   1   7  10   22.50    4.10
  -1   7 -10   18.50    4.30
   1  -7 -10   24.30    3.70
   0   0 -11    1.70    1.60
   0   0  11    2.30    1.80
   1   0 -11   67.19    3.80
  -1   0  11   76.79    4.10
  -1   0 -11   77.99    3.80
   1   0  11   77.19    4.10
   2   0  11   10.70    2.40
  -2   0 -11    6.70    1.60
   2   0 -11    7.00    2.20
  -2   0 -11    6.50    2.00
  -2   0  11    8.10    2.30
  -3   0 -11  144.79    5.70
   3   0 -11  136.59    6.00
   3   0  11  141.29    6.10
  -3   0 -11  147.99    5.40
  -3   0  11  145.89    6.00
   4   0  11   -2.10    2.30
  -4   0 -11    0.50    2.30
  -4   0  11   -1.50    2.50
   4   0 -11    2.80    2.60
  -4   0 -11    0.80    2.30
   5   0  11   27.60    3.60
  -5   0 -11   28.40    3.90
  -5   0 -11   31.70    3.70
   5   0 -11   31.20    4.30
   0   1 -11  235.08    6.70
   0  -1 -11  225.88    7.00
   0   1  11  217.48    7.10
   0  -1  11  231.38    7.20
   1   1 -11   55.79    3.50
   1  -1  11   62.69    3.90
  -1   1  11   54.09    3.80
  -1  -1 -11   68.79    3.80
   1   1  11   61.09    3.90
   1  -1 -11   56.39    3.60
  -1   1 -11   63.69    3.40
  -1  -1  11   58.09    3.80
  -1   1 -11   63.89    3.10
   2  -1  11  164.58    6.20
  -2  -1 -11  149.88    5.90
   2   1 -11  155.38    5.80
  -2   1  11  144.29    6.00
  -2   1 -11  158.58    5.40
   2   1  11  163.48    6.00
  -2  -1  11  162.68    6.00
   2  -1 -11  144.89    5.90
  -2   1 -11  160.98    5.40
   3  -1  11   30.00    3.50
  -3  -1 -11   31.20    3.20
  -3  -1 -11   23.60    2.60
  -3   1  11   26.20    3.40
   3   1 -11   24.00    3.20
  -3  -1  11   30.40    3.20
  -3   1 -11   26.60    3.00
   3  -1 -11   28.70    3.20
   3   1  11   24.30    3.00
  -3  -1  11   16.90    2.70
  -3   1 -11   25.20    2.60
   4   1 -11    2.10    2.70
   4  -1  11    7.00    2.70
  -4  -1 -11    5.00    2.50
  -4   1  11    6.40    3.10
  -4  -1 -11    5.80    2.60
  -4   1 -11    4.00    2.30
   4  -1 -11    8.10    3.00
  -4  -1  11    9.30    2.70
  -4   1 -11    5.10    2.50
   4   1  11    6.40    2.50
   5  -1  11   41.10    4.40
  -5  -1 -11   33.00    4.10
  -5  -1 -11   46.30    4.70
   5   1 -11   40.60    4.60
  -5   1  11   34.80    4.10
  -5  -1  11   28.10    7.40
   5  -1 -11   33.20    4.30
  -5   1 -11   35.10    4.10
   0   2  11   70.19    4.20
   0  -2  11   72.49    4.30
   0  -2 -11   77.29    4.10
   0   2 -11   75.39    3.60
   0   2 -11   71.09    3.50
  -1  -2 -11   26.30    2.80
   1   2 -11   28.60    2.60
   1  -2  11   23.70    3.00
  -1   2  11   22.50    2.80
  -1   2 -11   24.40    2.70
  -1  -2  11   27.70    3.00
   1   2  11   24.10    2.80
  -1   2 -11   27.10    2.50
   1  -2 -11   23.50    2.80
  -2   2  11  152.48    6.20
   2   2 -11  131.89    5.50
  -2  -2 -11  145.49    6.00
   2  -2  11  140.59    6.20
   2   2  11  150.28    5.80
   2  -2 -11  157.98    5.90
  -2   2 -11  138.59    5.60
  -2  -2  11  132.59    5.30
  -2  -2  11  145.19    5.70
  -2   2 -11  134.39    4.80
  -3   2  11  355.26   10.70
   3  -2  11  338.67   10.50
   3   2 -11  342.17   10.10
  -3  -2 -11  343.57   10.40
  -3  -2 -11  335.57    9.20
   3  -2 -11  335.87   10.00
  -3  -2  11  337.17    9.70
  -3  -2  11  348.67    9.60
  -3   2 -11  327.17   10.00
   3   2  11  326.57    9.70
  -4  -2 -11   10.40    2.70
   4  -2  11    8.30    3.30
  -4   2  11   17.40    3.50
   4   2 -11    9.80    3.00
  -4  -2 -11   11.80    3.30
  -4   2 -11    9.60    3.00
   4  -2 -11   12.40    3.10
  -4  -2  11    3.70    3.00
   4   2  11    9.40    2.40
  -5  -2 -11    4.80    3.20
  -5   2  11   13.40    3.80
   5   2 -11   16.40    3.90
   5  -2  11   14.90    3.90
  -5   2 -11   13.90    3.50
  -5  -2  11    8.40    4.20
   5  -2 -11   16.20    3.70
   0   3 -11   49.60    3.10
   0   3  11   48.70    4.10
   0   3 -11   53.49    3.70
   0  -3 -11   55.79    4.00
   0  -3  11   53.89    4.10
  -1  -3 -11    0.70    2.10
   1   3 -11    3.70    2.10
  -1   3  11   -0.10    2.10
   1  -3  11    2.70    2.50
   1   3 -11   -1.20    1.60
  -1   3 -11   -0.80    2.00
   1   3  11    3.10    2.10
   1  -3 -11    7.70    2.30
  -1  -3  11    0.00    2.20
  -2   3  11  150.28    6.70
   2   3 -11  155.08    5.90
  -2  -3 -11  166.38    6.70
   2  -3  11  149.39    6.60
   2   3  11  156.18    6.10
  -2  -3  11  154.48    6.10
  -2   3 -11  157.98    6.30
  -2  -3  11  153.78    6.10
   2  -3 -11  158.18    6.30
   3   3 -11   94.19    5.20
   3  -3  11   97.49    5.90
  -3   3  11   93.59    6.10
  -3  -3 -11   95.99    5.90
  -3  -3  11   90.39    5.00
  -3  -3  11   96.19    5.20
   3  -3 -11   88.39    5.30
   3   3  11   92.69    4.90
  -3   3 -11   95.89    5.50
  -4   3  11   19.00    3.90
  -4  -3 -11   15.50    3.10
   4   3 -11   11.80    3.20
  -4  -3 -11   18.70    3.90
   4  -3  11   11.90    3.50
   4  -3 -11   18.40    3.40
  -4   3 -11   12.00    3.20
  -4  -3  11    7.20    3.00
  -5  -3 -11   22.40    5.60
  -5   3  11   38.20    4.90
   5   3 -11   28.40    4.40
   5  -3  11   22.10    4.30
  -5   3 -11   25.20    4.10
  -5  -3  11   21.00    4.20
   5  -3 -11   35.80    4.50
   0  -4 -11  558.84   14.70
   0   4 -11  570.94   13.30
   0   4 -11  564.04   14.70
   0  -4  11  577.24   14.80
   0   4  11  555.54   15.00
  -1  -4 -11   53.59    4.70
   1   4 -11   52.49    3.40
  -1   4  11   57.79    4.70
   1  -4  11   47.80    4.60
   1   4 -11   52.29    4.40
  -1   4 -11   50.99    4.50
  -1  -4  11   53.49    4.30
   1  -4 -11   61.39    4.40
   1   4  11   55.49    4.40
  -2  -4 -11    6.60    3.00
   2  -4  11    4.00    2.70
  -2   4  11    8.40    3.00
   2   4 -11    5.60    2.10
   2   4  11    8.80    2.40
   2  -4 -11    7.30    2.60
  -2   4 -11   11.50    2.80
  -2  -4  11    6.60    2.50
  -2  -4  11    8.30    2.80
   3   4 -11    8.40    2.70
   3  -4  11    7.50    3.30
  -3   4  11   14.00    3.60
  -3  -4 -11   10.90    3.40
  -3  -4  11   10.90    3.00
   3   4  11    8.90    2.50
   3  -4 -11   11.20    3.00
  -3   4 -11    9.30    3.00
  -3  -4  11    0.90    4.20
   4   4 -11    2.20    2.80
  -4  -4 -11    1.20    3.50
  -4   4  11   -1.40    3.50
   4  -4  11    0.80    3.30
  -4   4 -11   -3.90    2.70
  -4  -4  11   -6.00    2.90
   4  -4 -11    9.00    3.20
   0   5 -11   -1.30    2.40
   0  -5  11    1.70    2.70
   0   5  11    4.60    2.70
   0  -5 -11    1.00    2.50
  -1   5  11   -1.00    2.60
   1  -5  11   -2.00    2.50
   1   5 -11    3.30    2.60
   1   5 -11    3.00    1.90
  -1  -5 -11    1.70    2.70
  -1   5 -11    2.20    2.60
   1  -5 -11    3.20    2.50
  -1  -5  11    0.30    2.60
   1   5  11    0.00    2.40
  -2  -5 -11    1.20    3.00
   2  -5  11    0.70    2.70
  -2   5  11    3.50    3.00
   2   5 -11    1.70    2.10
   2   5  11   -1.60    2.40
   2  -5 -11    0.70    2.50
  -2  -5  11   -0.60    2.50
  -2   5 -11    5.10    3.10
  -2  -5  11    6.80    3.00
   3   5 -11   20.00    3.20
  -3   5  11   28.30    4.60
   3  -5  11   15.50    3.80
  -3  -5 -11   19.90    4.10
   3   5  11   20.30    5.10
  -3  -5  11   21.20    3.70
   3  -5 -11   24.00    3.60
  -3   5 -11   22.10    4.00
   4  -5  11   -4.90    3.40
  -4   5  11    2.70    3.90
   4   5 -11    3.20    2.90
  -4  -5 -11    2.20    3.80
  -4  -5  11   -3.80    3.20
  -4   5 -11    0.60    3.20
   4  -5 -11    4.70    3.10
   0  -6 -11   53.49    5.10
   0  -6  11   51.29    5.00
   0   6  11   47.00    4.80
   0   6 -11   56.89    5.20
  -1  -6 -11   19.00    3.60
  -1   6  11   21.10    3.90
   1  -6  11   20.50    3.80
   1   6 -11   19.80    3.90
  -1   6 -11   19.00    3.90
   1  -6 -11   23.90    3.50
   1   6  11   15.40    3.40
  -1  -6  11   24.20    3.70
  -2   6  11   34.40    4.70
   2  -6  11   31.90    4.50
  -2  -6 -11   35.10    4.50
   2   6  11   31.70    3.90
   2  -6 -11   35.40    4.10
  -2   6 -11   37.50    4.80
  -2  -6  11   34.90    4.50
  -3   6  11    6.10    3.90
   3   6 -11    5.90    3.30
  -3  -6 -11    6.70    3.80
   3  -6  11   -0.80    3.40
   3  -6 -11    6.10    3.10
  -3   6 -11   -5.10    3.10
  -3  -6  11    2.80    3.20
   0  -7  11   22.40    4.20
   0   7  11   18.30    4.10
   0   7 -11   19.70    4.20
   0  -7 -11   18.10    3.70
   0   0  12  432.76   11.50
   0   0 -12  426.96   11.20
  -1   0 -12  100.69    4.60
  -1   0  12   97.79    4.90
   1   0  12  105.39    5.00
   1   0 -12  100.89    4.70
  -2   0  12   71.09    4.70
   2   0 -12   74.29    4.40
   2   0  12   81.99    4.90
  -2   0 -12   75.89    4.20
   3   0  12    2.10    2.50
  -3   0  12   -0.70    2.40
  -3   0 -12    0.80    1.90
  -3   0 -12    3.30    2.20
   3   0 -12    1.80    2.40
  -4   0 -12    0.90    2.30
  -4   0  12   -2.70    2.80
  -4   0 -12   -2.50    2.20
   4   0 -12    0.70    2.70
   4   0  12   -2.50    2.40
  -5   0 -12    3.10    3.00
  -5   0 -12    9.60    3.10
   5   0  12   11.70    3.20
   5   0 -12   17.00    4.00
   0  -1 -12    3.30    1.90
   0   1 -12    2.90    1.80
   0  -1  12    5.20    2.20
   0   1  12    1.10    2.00
  -1   1  12   27.60    3.10
   1   1 -12   33.20    3.00
   1  -1  12   38.60    3.60
   1   1  12   30.40    3.20
   1  -1 -12   31.10    3.10
  -1   1 -12   32.00    2.90
  -1  -1  12   29.60    3.10
   2   1 -12   31.70    3.30
  -2  -1 -12   24.00    2.90
  -2   1  12   25.30    3.30
   2  -1  12   31.00    3.50
  -2   1 -12   20.70    2.50
   2   1  12   28.20    3.20
  -2   1 -12   33.10    3.20
   2  -1 -12   20.00    2.90
  -2  -1  12   23.40    3.20
  -3  -1 -12   86.59    5.10
   3  -1  12   88.29    5.40
   3   1 -12   89.29    5.20
  -3  -1 -12   87.29    4.20
  -3   1  12   81.19    5.50
  -3  -1  12  105.19    5.30
  -3   1 -12   83.99    4.60
  -3   1 -12   92.69    4.50
   3  -1 -12   92.79    5.20
   3   1  12   81.59    5.00
  -4  -1 -12   20.20    3.00
  -4  -1 -12   21.10    3.40
   4  -1  12   20.40    3.50
   4   1 -12   21.30    3.60
  -4   1  12   17.80    3.60
   4   1  12   14.30    2.90
   4  -1 -12   24.10    3.70
  -4  -1  12   23.60    3.30
  -4   1 -12   23.90    2.90
  -4   1 -12   16.20    3.10
   5  -1  12   26.20    3.90
  -5   1  12   26.90    4.70
  -5  -1 -12   26.30    3.80
   5   1 -12   28.90    4.40
  -5  -1 -12   29.50    4.20
   5  -1 -12   30.00    4.40
  -5   1 -12   20.30    3.80
   0   2  12    3.90    2.20
   0  -2  12    0.00    2.20
   0   2 -12    4.30    1.80
   0   2 -12    4.80    1.80
   0  -2 -12    3.30    2.10
  -1  -2 -12   24.90    3.00
   1  -2  12   22.70    3.20
   1   2 -12   26.00    2.70
  -1   2  12   21.30    3.00
  -1   2 -12   25.40    2.70
   1  -2 -12   26.20    3.00
  -1  -2  12   25.70    3.20
   1   2  12   23.20    3.00
  -1   2 -12   21.10    2.30
  -2   2  12  251.57    8.70
   2   2 -12  250.57    8.10
  -2  -2 -12  260.77    8.50
   2  -2  12  263.37    8.70
   2  -2 -12  256.87    8.30
  -2   2 -12  252.47    8.00
  -2  -2  12  255.27    8.20
  -2   2 -12  262.57    7.30
   2   2  12  254.67    8.20
  -2  -2  12  246.28    7.60
   3  -2  12   31.30    3.80
  -3  -2 -12   33.60    3.80
  -3   2  12   31.00    4.10
   3   2 -12   40.60    3.90
  -3  -2  12   37.20    3.50
   3  -2 -12   35.20    3.70
  -3   2 -12   29.50    3.20
  -3   2 -12   37.00    3.60
  -3  -2  12   28.40    3.10
   3   2  12   20.80    3.10
  -4   2  12    4.70    3.30
   4   2 -12   11.60    3.20
  -4  -2 -12    9.30    3.30
   4  -2  12    9.10    3.30
   4  -2 -12    8.50    3.10
  -4   2 -12    5.10    2.80
   4   2  12    6.80    2.50
  -4  -2  12    3.70    2.80
   5   2 -12   15.60    4.00
  -5   2  12   20.80    4.40
   5  -2  12   21.90    4.20
  -5  -2 -12   20.30    4.10
   5  -2 -12   18.00    3.90
  -5   2 -12   13.90    3.60
   0   3 -12  377.96   10.40
   0  -3  12  384.46   11.00
   0   3 -12  366.86    9.70
   0  -3 -12  369.36   10.70
   0   3  12  384.86   11.00
   1  -3  12   41.90    4.00
   1   3 -12   35.40    3.00
  -1   3  12   37.80    3.70
  -1  -3 -12   36.60    3.50
   1   3  12   33.40    3.50
   1  -3 -12   37.40    3.60
  -1  -3  12   39.20    3.60
  -1   3 -12   31.40    2.70
  -1   3 -12   35.80    3.50
   2   3 -12   60.99    4.20
  -2   3  12   63.19    5.20
   2  -3  12   54.99    4.90
  -2  -3 -12   57.09    4.80
   2  -3 -12   59.29    4.60
  -2  -3  12   57.69    4.20
  -2  -3  12   53.39    4.50
   2   3  12   55.99    4.40
  -2   3 -12   54.89    4.30
  -3  -3 -12   59.09    5.30
  -3   3  12   65.59    5.80
   3  -3  12   44.00    4.70
   3   3 -12   53.09    4.60
   3   3  12   53.59    4.40
   3  -3 -12   52.59    4.90
  -3   3 -12   57.39    4.80
  -3  -3  12   48.10    4.60
  -3  -3  12   47.80    4.50
  -4  -3 -12    0.50    3.20
   4   3 -12    4.40    2.90
   4  -3  12    0.20    3.40
  -4   3  12    7.40    3.70
   4  -3 -12    2.20    3.00
  -4   3 -12    2.30    2.80
  -4  -3  12   -8.90    2.90
   0   4 -12  196.48    7.40
   0  -4 -12  203.58    7.50
   0  -4  12  187.18    7.50
   0   4  12  198.28    7.80
   0   4 -12  192.48    6.00
  -1  -4 -12   25.90    3.60
   1   4 -12   25.80    2.80
   1   4 -12   35.20    3.70
  -1   4  12   22.40    3.50
   1  -4  12   23.30    3.80
  -1  -4  12   34.20    3.70
   1  -4 -12   28.30    3.50
  -1   4 -12   30.60    3.70
   1   4  12   28.10    3.50
   2   4 -12   20.30    2.90
  -2  -4 -12   25.00    3.70
   2  -4  12   13.00    3.50
  -2   4  12   16.80    3.50
  -2  -4  12   26.30    3.60
   2  -4 -12   20.30    3.30
  -2  -4  12   17.20    3.10
  -2   4 -12   20.70    3.40
   2   4  12   19.60    3.10
  -3  -4 -12   64.49    5.90
  -3   4  12   54.99    5.40
   3   4 -12   56.59    4.80
   3  -4  12   54.59    5.30
  -3   4 -12   52.99    5.10
  -3  -4  12   58.99    5.00
   3   4  12   51.89    4.50
   3  -4 -12   57.19    5.20
  -4  -4 -12    4.40    3.70
   4  -4  12    4.00    3.70
   4   4 -12    4.70    3.10
  -4   4  12   -0.10    3.70
  -4  -4  12    0.60    3.20
  -4   4 -12    2.90    3.10
   4  -4 -12    4.50    3.30
   0  -5 -12    5.50    2.80
   0  -5  12   -0.10    2.80
   0   5 -12    1.50    2.70
   0   5  12   -0.70    2.60
   1  -5  12   24.50    3.90
   1   5 -12   28.10    3.80
  -1   5  12   23.90    3.80
  -1  -5 -12   25.20    3.70
  -1   5 -12   24.10    3.70
   1   5  12   20.60    3.50
   1  -5 -12   23.60    3.50
  -1  -5  12   29.80    3.80
  -2   5  12   19.50    4.20
   2  -5  12   17.30    3.90
   2   5 -12   17.70    2.90
  -2  -5 -12   22.80    3.90
  -2   5 -12   24.80    4.00
  -2  -5  12   22.30    3.40
  -2  -5  12   18.40    3.60
   2   5  12   16.80    3.30
   2  -5 -12   21.00    3.50
   3   5 -12   10.30    2.90
   3  -5  12    6.40    3.70
  -3  -5 -12   14.10    4.00
  -3   5  12   15.40    4.20
  -3  -5  12    8.80    3.20
   3  -5 -12    6.50    3.10
  -3   5 -12   13.40    3.60
   0  -6 -12   37.90    4.40
   0   6 -12   41.50    4.70
   0   6  12   42.10    5.00
   0  -6  12   45.20    4.90
   1   6 -12    5.70    3.40
  -1   6  12   -1.00    3.10
  -1  -6 -12   -0.90    2.90
   1  -6  12   -1.60    3.20
   1  -6 -12   -0.10    2.80
  -1   6 -12    1.70    3.00
   1   6  12    3.70    3.10
  -1  -6  12   -1.70    3.00
  -2   6  12   26.10    4.80
   2  -6  12   32.70    4.80
  -2  -6 -12   30.80    4.60
  -2   6 -12   27.20    4.60
  -2  -6  12   20.70    4.00
   2   6  12   17.70    3.60
   2  -6 -12   29.40    4.00
   0   0 -13    6.20    2.20
   0   0  13    3.80    2.40
   1   0  13    8.80    2.50
   1   0 -13   13.00    2.50
  -1   0 -13   11.70    2.40
  -1   0  13    7.30    2.60
   2   0 -13   81.69    4.90
   2   0  13   87.79    5.30
  -2   0 -13   82.39    4.60
  -2   0  13   92.19    5.30
  -3   0  13   12.90    3.20
  -3   0 -13   11.60    2.50
  -3   0 -13    8.20    2.20
   3   0 -13   14.50    3.10
   3   0  13   13.10    3.20
  -4   0  13   21.60    3.80
   4   0  13   21.40    3.50
   4   0 -13   18.60    3.70
  -4   0 -13   14.40    2.80
  -4   0 -13   20.90    3.30
   5   0 -13   -0.40    3.50
  -5   0 -13    1.40    3.00
   5   0  13    3.50    3.30
   0   1  13   15.10    2.70
   0   1 -13    8.00    2.20
   0  -1  13   13.30    2.70
   0  -1 -13   12.40    2.50
   1   1 -13   21.90    2.90
   1  -1  13   16.70    3.00
  -1   1  13   26.20    3.30
  -1  -1 -13   29.30    3.10
  -1   1 -13   23.00    2.60
  -1  -1  13   20.40    3.00
   1  -1 -13   21.30    2.80
   1   1  13   20.80    3.10
   2   1 -13  102.99    5.30
  -2   1  13   91.99    5.60
  -2  -1 -13  105.59    5.20
   2  -1  13  103.09    5.60
  -2   1 -13  112.29    4.90
   2  -1 -13  105.19    5.50
  -2   1 -13  107.99    4.60
  -2  -1  13   97.89    5.50
   2   1  13  109.39    5.60
   3   1 -13    7.20    2.90
  -3  -1 -13   18.20    3.10
  -3   1  13   13.30    3.30
   3  -1  13   14.70    3.40
  -3   1 -13    9.10    2.40
  -3   1 -13    9.90    2.40
   3   1  13   11.50    2.90
  -3  -1  13   11.00    2.90
   3  -1 -13   17.50    3.10
  -4  -1 -13   17.40    3.40
   4   1 -13   20.40    3.80
   4  -1  13    9.80    3.30
  -4   1  13   15.30    3.70
  -4   1 -13   18.20    3.20
   4   1  13   16.20    3.20
  -4  -1  13   17.20    3.40
   4  -1 -13   16.30    3.60
   5   1 -13    9.30    3.80
  -5  -1 -13    9.50    3.50
   5  -1  13   10.30    3.70
   5  -1 -13    9.90    3.80
  -5   1 -13    7.00    3.30
   0   2 -13   16.50    2.50
   0   2  13    9.20    2.80
   0  -2  13   14.80    2.90
   0  -2 -13    9.00    2.50
   0   2 -13   14.80    2.30
   1   2 -13   28.80    3.00
  -1  -2 -13   26.70    3.20
   1  -2  13   29.50    3.50
  -1   2  13   28.60    3.50
  -1   2 -13   32.60    3.00
   1   2  13   30.70    3.50
   1  -2 -13   22.40    3.10
  -1  -2  13   35.30    3.60
  -1  -2  13   31.60    3.10
  -1   2 -13   31.90    2.90
  -2  -2 -13   25.40    3.20
   2  -2  13   21.40    3.40
  -2   2  13   23.40    3.60
   2   2 -13   25.90    3.30
  -2  -2  13   18.10    3.20
   2   2  13   17.40    2.90
  -2   2 -13   25.90    3.00
   2  -2 -13   22.00    3.30
  -2   2 -13   26.60    2.50
  -3   2  13   44.30    4.60
   3  -2  13   35.70    4.40
   3   2 -13   34.30    3.90
  -3  -2 -13   29.40    3.80
  -3   2 -13   29.70    3.50
  -3  -2  13   37.10    3.80
   3   2  13   28.90    3.40
   3  -2 -13   40.80    4.00
  -4   2  13   -0.80    3.40
   4  -2  13    6.70    3.70
   4   2 -13    1.30    3.00
  -4  -2 -13    4.30    3.20
   4  -2 -13    1.20    3.10
  -4   2 -13    0.70    2.60
   4   2  13    2.00    2.60
   0  -3 -13   21.50    3.30
   0   3 -13   13.50    2.30
   0   3  13   16.40    3.00
   0   3 -13   14.70    2.60
   0  -3  13   16.60    3.20
   1  -3  13   84.19    5.50
  -1  -3 -13   86.79    5.30
  -1   3  13   87.69    5.50
   1   3 -13   94.49    4.60
  -1   3 -13   84.29    4.90
  -1   3 -13   77.89    3.80
  -1  -3  13   87.29    5.30
   1  -3 -13   87.49    5.20
   1   3  13   80.99    5.20
   2   3 -13   26.00    3.30
   2  -3  13   22.40    3.70
  -2   3  13   19.20    3.60
  -2  -3 -13   26.80    3.70
  -2  -3  13   30.20    3.70
  -2  -3  13   23.90    3.10
  -2   3 -13   26.60    3.40
   2  -3 -13   27.70    3.60
   2   3  13   20.10    3.20
   3  -3  13    9.60    3.40
  -3   3  13    8.00    3.50
   3   3 -13    6.50    2.80
  -3  -3 -13    8.60    3.30
   3  -3 -13    6.70    3.00
  -3   3 -13    5.70    2.80
  -3  -3  13    1.00    2.90
  -3  -3  13    3.10    2.70
   3   3  13    4.70    2.60
   4   3 -13   45.20    4.60
   4  -3  13   40.80    4.90
  -4   3  13   47.10    5.30
  -4  -3 -13   33.30    4.70
   4  -3 -13   45.60    4.70
  -4   3 -13   37.60    4.50
   0   4  13   10.20    3.10
   0  -4 -13   13.40    3.20
   0   4 -13   12.20    2.90
   0  -4  13    9.60    3.30
   1   4 -13   26.70    2.90
  -1  -4 -13   21.10    3.60
   1  -4  13   30.70    4.30
  -1   4  13   23.40    3.70
   1  -4 -13   29.30    3.60
  -1   4 -13   29.20    3.60
   1   4  13   23.50    3.40
  -1  -4  13   22.80    3.70
   2   4 -13   28.70    3.30
   2  -4  13   29.10    4.10
  -2   4  13   24.90    4.20
  -2  -4 -13   28.90    4.00
  -2   4 -13   31.10    3.90
   2   4  13   23.60    3.50
  -2  -4  13   25.00    3.60
  -2  -4  13   27.30    3.50
   2  -4 -13   28.30    3.80
  -3   4  13    7.00    3.70
  -3  -4 -13    9.80    3.70
   3  -4  13    6.50    4.00
   3   4 -13    8.00    2.90
  -3  -4  13    4.80    3.20
   3  -4 -13   14.40    3.50
  -3   4 -13    8.30    3.10
   3   4  13    6.30    2.80
   0   5 -13    0.80    2.60
   0  -5 -13    0.60    2.80
   0   5  13   -3.40    2.80
   0  -5  13    0.00    3.00
  -1  -5 -13    0.60    3.00
   1  -5  13    1.90    3.20
  -1   5  13    3.40    3.20
   1   5  13   -0.10    2.70
   1  -5 -13   -1.10    2.80
  -1  -5  13   -1.40    3.00
  -1   5 -13   -0.60    2.60
  -2  -5 -13    5.70    3.50
  -2   5  13    7.40    3.70
   2   5 -13    5.90    2.70
   2  -5  13    7.00    3.70
   2  -5 -13    9.30    3.30
   2   5  13    3.80    2.90
  -2  -5  13    4.60    3.20
  -2  -5  13    5.80    3.10
  -2   5 -13    1.90    3.00
   3  -5  13   -6.90    3.50
   3   5 -13   -0.80    2.60
  -3  -5 -13    0.60    3.50
  -3   5  13    5.70    4.00
  -3   5 -13   -0.30    3.10
  -3  -5  13   -2.50    2.90
   3  -5 -13   -0.60    3.10
   0  -6 -13    4.80    3.30
   0   6  13    6.10    3.50
   0  -6  13    5.30    3.40
   0   6 -13    6.40    3.20
  -1   6  13   11.40    3.90
   1  -6  13    3.50    3.50
  -1  -6 -13    5.50    3.40
  -1   6 -13    6.70    3.40
   1   6  13    2.40    3.20
  -1  -6  13    6.60    3.50
   1  -6 -13    6.40    3.30
   0   0  14  168.68    6.90
   0   0 -14  161.88    6.30
  -1   0  14    0.20    2.50
   1   0 -14    0.60    2.20
  -1   0 -14    1.60    2.00
  -2   0 -14  123.99    5.60
  -2   0  14  136.09    6.40
   2   0 -14  126.29    6.00
   2   0  14  131.59    6.50
   3   0  14    5.30    2.90
  -3   0 -14   13.50    2.80
  -3   0  14   11.00    3.30
   3   0 -14   11.00    3.00
  -4   0  14    3.80    3.40
  -4   0 -14    1.90    2.60
   4   0 -14    5.80    3.40
   4   0  14    3.30    3.10
   0  -1 -14   84.29    4.80
   0   1 -14   82.99    4.50
   0  -1  14   76.49    5.20
   0   1  14   83.79    5.10
   1  -1  14   12.10    3.10
   1   1 -14   12.00    2.70
  -1   1  14    4.80    2.70
  -1  -1 -14    6.90    2.50
   1   1  14    7.00    2.80
  -1   1 -14    9.00    2.20
   1  -1 -14   10.00    2.70
  -1  -1  14   12.00    3.00
   2  -1  14   17.30    3.30
  -2   1  14   19.70    3.50
  -2  -1 -14   21.00    3.10
   2   1 -14   17.10    3.10
   2   1  14   13.70    3.20
  -2   1 -14   20.50    2.70
  -2  -1  14   13.50    3.20
   3   1 -14   49.90    4.60
  -3  -1 -14   48.80    4.60
   3  -1  14   51.29    4.70
  -3   1  14   50.89    4.70
  -3   1 -14   51.59    4.10
   3  -1 -14   47.60    4.40
   3   1  14   42.70    4.20
  -3  -1  14   49.40    5.00
   4  -1  14   12.40    3.70
  -4  -1 -14    6.30    3.10
   4   1 -14    8.40    3.50
  -4   1  14    4.90    3.60
  -4  -1  14    8.00    3.60
   4  -1 -14    8.10    3.50
   4   1  14    5.30    3.00
   0   2  14   41.90    4.20
   0   2 -14   48.80    3.90
   0  -2  14   47.00    4.60
   0  -2 -14   49.40    4.40
  -1   2  14   78.39    5.40
  -1  -2 -14   82.79    5.10
   1   2 -14   75.99    4.60
   1  -2  14   75.39    5.40
  -1  -2  14   73.19    5.30
  -1   2 -14   73.19    4.20
  -1   2 -14   78.19    4.20
   1  -2 -14   78.39    5.00
   1   2  14   75.79    5.30
  -2   2  14   28.20    4.00
   2   2 -14   29.70    3.50
  -2  -2 -14   19.10    3.30
   2  -2  14   26.10    4.10
   2  -2 -14   28.60    3.70
  -2  -2  14   27.20    3.70
   2   2  14   22.30    3.30
  -2   2 -14   22.90    2.60
  -2   2 -14   23.10    3.00
   3  -2  14   17.80    3.90
  -3   2  14   14.40    3.80
  -3  -2 -14   13.90    3.30
   3   2 -14   14.60    3.30
  -3   2 -14   11.20    3.00
   3  -2 -14   15.70    3.40
   3   2  14    8.20    2.80
  -3  -2  14   14.10    3.40
   4   2 -14    6.70    3.50
  -4  -2 -14    6.70    3.30
  -4   2  14    7.60    4.00
   4  -2  14    7.80    3.80
   4   2  14    2.20    2.70
   4  -2 -14    8.50    3.60
  -4   2 -14   11.40    3.20
   0  -3 -14   96.89    5.80
   0   3 -14  104.49    4.70
   0  -3  14  101.79    6.00
   0   3 -14  104.19    5.10
   0   3  14  103.19    6.00
  -1   3  14   70.89    5.50
   1  -3  14   64.09    5.70
   1   3 -14   70.29    4.50
  -1  -3 -14   74.59    5.40
  -1   3 -14   69.59    4.60
   1   3  14   77.49    5.40
  -1  -3  14   68.09    5.30
   1  -3 -14   72.49    5.20
   2  -3  14    2.70    3.30
  -2  -3 -14    4.70    2.90
   2   3 -14    4.20    2.50
  -2   3  14    0.00    3.00
   2   3  14    5.10    2.70
   2  -3 -14    2.90    2.90
  -2  -3  14   -4.60    2.80
  -2   3 -14    0.70    2.60
  -3  -3 -14   33.80    4.40
  -3   3  14   37.60    5.10
   3  -3  14   46.80    5.20
   3   3 -14   42.90    4.40
   3  -3 -14   43.30    4.70
   3   3  14   33.30    4.00
  -3  -3  14   43.90    4.40
  -3   3 -14   41.10    4.30
  -4   3  14   53.99    5.90
  -4  -3 -14   49.10    5.40
   4  -3  14   61.89    5.90
   4  -3 -14   69.09    6.10
  -4   3 -14   62.39    5.70
   0  -4  14   12.40    3.60
   0   4 -14   15.90    3.00
   0  -4 -14   10.80    3.30
   0   4  14   13.70    3.40
   1  -4  14   33.40    4.30
   1   4 -14   37.50    3.50
  -1  -4 -14   42.50    4.50
  -1   4  14   38.50    4.60
  -1  -4  14   39.20    4.40
  -1   4 -14   46.00    4.60
   1   4  14   40.30    4.20
   1  -4 -14   42.20    4.40
   2  -4  14    6.60    3.70
  -2  -4 -14    7.30    3.30
  -2   4  14    6.50    3.60
   2   4 -14   13.00    2.90
  -2   4 -14    8.90    3.10
  -2  -4  14    9.90    3.10
   2  -4 -14    7.00    3.20
   2   4  14   14.20    3.20
  -2  -4  14    7.40    3.50
  -3  -4 -14   68.79    6.40
   3  -4  14   51.09    5.40
   3   4 -14   62.89    5.30
  -3   4  14   68.59    6.80
  -3   4 -14   56.99    5.60
   3   4  14   52.59    5.10
   3  -4 -14   64.99    6.00
   0  -5  14    0.50    3.30
   0   5  14   -1.10    3.10
   0   5 -14    4.20    2.90
   0  -5 -14    2.70    3.10
  -1  -5 -14   18.20    3.80
   1  -5  14   12.20    3.80
  -1   5  14    9.00    3.60
   1  -5 -14   13.00    3.60
   1   5  14    9.80    3.40
  -1  -5  14   15.30    3.80
  -1   5 -14   13.90    3.50
   2  -5  14   17.10    4.40
  -2   5  14   14.00    4.30
  -2  -5 -14   15.60    3.90
  -2  -5  14   15.60    3.50
  -2  -5  14   11.60    3.70
   2   5  14   10.20    3.30
  -2   5 -14   17.10    3.80
   2  -5 -14   12.80    3.70
   0   0 -15   -0.50    2.10
   0   0  15   -0.50    2.70
   1   0 -15    4.30    2.60
  -1   0  15    1.80    2.80
  -1   0 -15    1.30    2.20
   1   0  15    8.80    3.10
   2   0  15    0.10    2.90
   2   0 -15    1.80    2.60
  -2   0  15    2.10    2.90
  -2   0 -15    2.30    2.40
   3   0  15   16.90    3.80
  -3   0 -15   10.70    2.90
   3   0 -15   16.10    3.60
  -3   0  15   10.00    3.50
   4   0 -15   34.80    4.60
  -4   0 -15   34.80    3.80
  -4   0  15   36.40    4.70
   4   0  15   27.50    4.20
   0  -1  15   14.90    3.30
   0   1  15   15.20    3.20
   0   1 -15   17.00    2.90
   0  -1 -15   18.50    3.20
   1   1 -15   99.19    5.50
  -1  -1 -15  106.19    5.60
  -1   1  15  101.39    6.10
   1  -1  15   99.49    6.10
   1  -1 -15  103.19    5.80
  -1  -1  15  101.09    6.10
  -1   1 -15  102.29    5.10
   1   1  15  109.59    6.30
   2   1 -15   -0.40    2.50
  -2  -1 -15   -2.50    2.30
   2  -1  15    0.30    2.90
  -2   1  15   -1.40    2.80
  -2   1 -15    2.10    2.30
   2   1  15   -1.10    2.70
   2  -1 -15    1.90    2.70
  -2  -1  15   -1.70    2.70
   3   1 -15    9.90    3.40
  -3   1  15   16.50    3.90
   3  -1  15   11.90    3.70
  -3  -1 -15   14.80    3.20
  -3  -1  15    8.70    3.40
   3   1  15   13.50    3.50
   3  -1 -15    7.40    3.20
  -3   1 -15   13.00    2.80
  -4  -1 -15    5.50    3.00
  -4   1  15    4.10    3.90
   4   1 -15   -1.70    3.30
   4  -1  15    5.10    3.70
   4   1  15   -3.60    2.90
   4  -1 -15   -1.60    3.30
   0   2  15    0.20    2.70
   0  -2  15    6.50    3.20
   0   2 -15    1.70    2.20
   0  -2 -15   -3.40    2.50
   1  -2  15   74.39    5.90
  -1  -2 -15   80.89    5.50
  -1   2  15   75.99    5.70
   1   2 -15   64.39    4.80
   1   2  15   74.99    5.60
  -1   2 -15   72.29    4.50
  -1  -2  15   75.49    5.70
   1  -2 -15   82.19    5.40
   2   2 -15   51.89    4.80
  -2  -2 -15   50.19    4.60
  -2   2  15   51.29    5.00
   2  -2  15   51.19    5.10
   2  -2 -15   47.70    4.60
  -2  -2  15   50.79    4.70
   2   2  15   41.00    4.30
   3   2 -15    9.10    3.30
  -3  -2 -15    1.40    2.90
   3  -2  15    3.10    3.60
  -3   2  15    0.70    3.50
   3   2  15   -0.50    2.60
  -3  -2  15    3.40    3.20
   3  -2 -15    1.30    3.10
   0  -3  15   95.79    6.20
   0   3 -15  106.79    5.00
   0   3  15   98.19    6.20
   0  -3 -15   88.29    6.00
   1  -3  15    3.70    3.50
  -1   3  15    5.30    3.20
  -1  -3 -15    9.30    3.20
   1   3 -15    6.60    2.50
   1   3  15    8.60    3.20
   1  -3 -15    6.50    3.20
  -1  -3  15    5.00    3.30
   2  -3  15   42.00    5.00
  -2   3  15   45.10    5.00
   2   3 -15   41.40    4.10
  -2  -3 -15   35.50    4.30
   2  -3 -15   39.80    4.40
   2   3  15   37.20    4.30
  -2  -3  15   35.70    4.40
  -3   3  15   60.89    6.00
   3  -3  15   53.09    5.50
   3   3 -15   53.69    4.90
  -3  -3 -15   48.50    5.10
  -3  -3  15   47.60    5.10
   3  -3 -15   51.59    5.00
   3   3  15   45.40    4.50
  -3   3 -15   51.89    7.00
   0   4 -15    9.60    3.40
   0  -4  15    2.40    3.50
   0  -4 -15    6.40    3.30
   0   4  15    6.50    3.20
  -1  -4 -15    4.00    3.20
  -1   4  15    6.20    3.60
   1  -4  15    4.30    3.90
  -1  -4  15    9.20    3.60
   1  -4 -15   15.70    3.60
  -1   4 -15   11.30    3.00
   1   4  15    2.60    3.00
  -2   4  15    0.90    3.70
   2   4 -15    4.60    2.70
  -2  -4 -15   -0.20    3.10
   2  -4  15   -5.20    3.40
  -2   4 -15    1.80    2.90
   2  -4 -15    0.00    3.20
  -2  -4  15   -2.50    3.30
   2   4  15    4.10    3.10
   0  -5  15   23.80    4.60
   0   5  15   22.70    4.20
   0  -5 -15   26.00    4.40
   0   5 -15   31.30    4.20
   0   0 -16    5.10    2.60
   0   0  16    2.40    3.10
   1   0  16   27.50    4.20
  -1   0  16   23.40    3.80
   1   0 -16   25.40    3.70
  -1   0 -16   25.30    3.30
   2   0 -16   13.90    3.30
  -2   0 -16   13.90    3.00
  -2   0  16    8.90    3.50
   2   0  16   12.30    3.60
  -3   0  16   -4.40    3.10
  -3   0 -16    2.10    2.60
   3   0  16   -5.80    3.10
   3   0 -16    4.60    3.30
   0   1  16    0.10    2.90
   0   1 -16   -2.40    2.30
   0  -1 -16    1.10    2.60
   0  -1  16    0.50    2.90
  -1  -1 -16   58.79    4.90
  -1   1  16   47.50    4.80
   1  -1  16   50.89    5.00
   1   1 -16   54.79    4.80
  -1  -1  16   54.39    4.90
  -1   1 -16   50.19    4.40
   1   1  16   46.30    4.80
   1  -1 -16   60.89    5.20
  -2   1  16   11.40    3.70
   2  -1  16   18.50    3.90
  -2  -1 -16   15.00    3.30
   2   1 -16   19.30    3.50
  -2  -1  16   17.20    3.70
   2  -1 -16   18.50    3.70
  -2   1 -16   15.00    2.90
   2   1  16   17.40    3.80
   3  -1  16   -1.60    3.40
   3   1 -16    0.50    3.10
  -3   1  16    4.20    3.50
  -3  -1 -16    0.00    2.70
   3   1  16   -0.80    3.00
  -3  -1  16   -1.50    3.20
   3  -1 -16    1.60    3.20
   0  -2  16   25.00    4.10
   0   2  16   27.50    4.20
   0  -2 -16   31.90    4.00
   0   2 -16   30.80    3.40
   1  -2  16   16.00    4.00
   1   2 -16   13.10    3.00
  -1  -2 -16   16.10    3.40
  -1   2  16   13.40    3.80
  -1   2 -16   13.20    2.90
   1  -2 -16   14.90    3.40
   1   2  16   14.70    3.50
  -1  -2  16   17.00    3.80
   2   2 -16   59.49    5.30
  -2   2  16   67.39    6.20
  -2  -2 -16   66.79    5.60
   2  -2  16   67.89    6.40
   2  -2 -16   60.59    5.80
   2   2  16   60.19    5.80
  -2  -2  16   65.89    6.00
  -3  -2 -16   -0.40    3.00
   3   2 -16   -1.30    3.00
  -3   2  16   -0.50    3.80
   3  -2  16   -1.60    3.60
   3   2  16   -6.00    2.70
  -3  -2  16   -1.30    3.30
   3  -2 -16    6.30    3.40
   0  -3  16    1.70    3.40
   0   3 -16    1.90    2.40
   0  -3 -16    0.90    3.10
   0   3  16    1.10    3.20
  -1   3  16  100.89    6.90
  -1  -3 -16  111.59    6.70
   1   3 -16  106.89    5.80
   1  -3  16  111.19    7.10
  -1  -3  16  109.29    7.00
   1  -3 -16  110.79    6.60
   1   3  16   99.09    6.60
  -2  -3 -16    6.20    3.50
   2   3 -16   10.50    3.20
  -2   3  16    6.70    3.80
   2  -3  16    8.20    4.00
  -2  -3  16    4.20    3.60
   2   3  16    6.00    3.30
   2  -3 -16    7.50    3.60
   0  -4 -16    2.40    3.30
   0  -4  16   -2.50    3.40
   0   4  16    3.10    3.40
   1  -4  16    5.20    4.10
  -1   4  16    0.60    3.50
  -1  -4 -16    3.10    3.50
   1   4  16    3.70    3.50
   1  -4 -16    6.00    3.50
  -1  -4  16    2.20    3.60
   0   0 -17    1.80    2.80
   0   0  17    2.20    3.50
   1   0  17    0.90    3.30
   1   0 -17    2.10    2.90
  -1   0 -17    2.40    2.60
  -1   0  17    4.70    3.40
  -2   0  17   -3.80    3.10
   2   0 -17    5.90    3.20
   2   0  17    2.70    3.50
  -2   0 -17    0.10    2.70
   0   1 -17   -1.30    2.60
   0  -1 -17   -0.90    2.70
   0  -1  17    1.10    3.30
   0   1  17    1.70    3.40
  -1  -1 -17   22.00    3.60
   1  -1  17   21.30    4.20
   1   1 -17   17.70    3.40
  -1   1  17   19.30    4.10
   1   1  17   18.80    4.00
  -1  -1  17   14.70    4.00
  -1   1 -17   17.20    3.20
   1  -1 -17   21.60    3.70
   2  -1  17   24.90    4.50
   2   1 -17   28.40    4.10
  -2   1  17   27.10    4.40
  -2  -1 -17   20.90    3.60
   2   1  17   27.50    4.40
  -2   1 -17   18.90    3.30
   2  -1 -17   23.30    4.10
  -2  -1  17   32.20    4.60
   0  -2 -17    4.00    3.10
   0   2 -17   -0.80    2.30
   0   2  17    3.20    3.40
   0  -2  17   -0.30    3.60
  -1  -2 -17   39.40    4.40
   1  -2  17   34.50    4.90
  -1   2  17   41.20    4.90
   1   2 -17   37.90    4.10
  -1   2 -17   30.20    3.70
   1   2  17   35.30    4.50
  -1  -2  17   43.50    5.00
   1  -2 -17   34.60    4.40
   2  -2  17   16.80    4.30
  -2   2  17    8.00    4.00
   2   2 -17   17.50    3.60
  -2  -2 -17    5.60    3.30
  -2  -2  17   10.60    3.90
   2  -2 -17   14.50    4.00
   0  -3  17   11.60    4.30
   0  -3 -17   22.50    4.10
   0   3  17   12.10    4.00
   1  -3  17    0.50    3.80
  -1   3  17    2.80    3.50
   1   3 -17    2.20    2.70
  -1  -3 -17    2.90    3.50
   1  -3 -17    3.90    3.40
   1   3  17    1.40    3.30
  -1  -3  17    0.20    3.70
   0   0  18   46.70    5.20
   0   0 -18   48.40    4.70
   1   0  18    9.60    4.00
   1   0 -18   15.60    3.80
  -1   0  18   13.50    4.10
  -1   0 -18    9.50    3.00
   0   1  18   15.30    4.00
   0   1 -18   18.20    3.60
   0  -1 -18   17.50    3.60
   0  -1  18   11.10    4.10
  -1  -1 -18    4.90    3.10
  -1   1  18    4.20    3.80
   1  -1  18    2.60    3.80
   1   1 -18   12.20    3.40
   1   1  18    6.30    3.60
   1  -1 -18    9.50    3.60
  -1  -1  18    5.80    3.80
  -1   1 -18    7.90    3.00
   0  -2  18   -2.10    3.70
   0   2  18    1.80    3.60

_computing_structure_solution     'SHELXT 2014/4 (Sheldrick, 2014)'
;
_shelx_hkl_checksum              67597
loop_
_space_group_symop_operation_xyz
'x, y, z'
'-x+1/2, -y, z+1/2'
'x+1/2, -y+1/2, -z'
'-x, y+1/2, -z+1/2'
loop_
_atom_site_label
_atom_site_type_symbol
_atom_site_fract_x
_atom_site_fract_y
_atom_site_fract_z
_atom_site_U_iso_or_equiv
_atom_site_adp_type
_atom_site_occupancy
_atom_site_site_symmetry_order
_atom_site_calc_flag
_atom_site_refinement_flags_posn
_atom_site_refinement_flags_adp
N1 N 0.1046(17) 1.0859(12) 0.9361(6) 0.058(2) Uani 1 1 d . U
N2 N -0.1652(13) 0.8127(11) 0.9388(5) 0.0416(17) Uani 1 1 d . .
N3 N 0.2702(13) 1.0117(11) 0.8780(5) 0.0406(17) Uani 1 1 d . .
N4 N 0.0000(14) 0.7239(12) 0.8785(5) 0.0477(19) Uani 1 1 d . .
N5 N 0.3296(18) 0.6917(13) 0.7886(6) 0.062(2) Uani 1 1 d . .
N6 N 0.1901(16) 0.5233(11) 0.7827(5) 0.052(2) Uani 1 1 d . .
C1 C -0.1101(14) 0.9957(12) 0.9670(5) 0.0336(17) Uani 1 1 d . U
H1A H -0.2157 1.0660 1.0081 0.040 Uiso 1 1 calc R U
C2 C 0.2097(12) 0.8210(10) 0.8488(4) 0.0238(14) Uani 1 1 d . .
C3 C -0.0084(16) 0.5415(11) 0.8376(5) 0.0326(16) Uani 1 1 d . .
H3B H -0.1311 0.4442 0.8458 0.039 Uiso 1 1 calc R U
loop_
_atom_site_aniso_label
_atom_site_aniso_U_11
_atom_site_aniso_U_22
_atom_site_aniso_U_33
_atom_site_aniso_U_23
_atom_site_aniso_U_13
_atom_site_aniso_U_12
N1 0.070(5) 0.047(5) 0.056(4) -0.005(4) -0.004(4) 0.007(4)
N2 0.045(4) 0.044(4) 0.036(3) -0.001(3) 0.006(3) 0.001(3)
N3 0.047(4) 0.033(3) 0.042(3) 0.001(3) -0.001(3) 0.001(3)
N4 0.046(4) 0.051(5) 0.046(4) 0.010(3) -0.008(4) -0.005(4)
N5 0.075(6) 0.064(5) 0.048(4) -0.007(4) -0.004(4) 0.015(5)
N6 0.068(5) 0.036(4) 0.051(4) -0.012(3) -0.006(4) 0.002(4)
C1 0.038(4) 0.028(4) 0.035(3) -0.002(3) 0.006(3) 0.007(3)
C2 0.028(3) 0.021(3) 0.022(3) 0.000(3) -0.001(3) -0.003(3)
C3 0.039(4) 0.022(4) 0.037(4) -0.004(3) -0.004(3) -0.002(3)
loop_
_atom_type_symbol
_atom_type_description
_atom_type_scat_dispersion_real
_atom_type_scat_dispersion_imag
_atom_type_scat_source
C C 0.0033 0.0016 'International Tables Vol C Tables 4.2.6.8 and 6.1.1.4'
H H 0.0000 0.0000 'International Tables Vol C Tables 4.2.6.8 and 6.1.1.4'
N N 0.0061 0.0033 'International Tables Vol C Tables 4.2.6.8 and 6.1.1.4'
loop_
_geom_angle_atom_site_label_1
_geom_angle_atom_site_label_2
_geom_angle_atom_site_label_3
_geom_angle
N3 N1 C1 128.1(8)
C1 N2 N4 115.4(7)
N1 N3 C2 111.2(7)
C3 N4 N2 128.9(7)
C3 N4 C2 108.7(7)
N2 N4 C2 122.4(7)
C2 N5 N6 106.3(8)
C3 N6 N5 110.6(7)
N2 C1 N1 120.0(7)
N2 C1 H1A 120.0
N1 C1 H1A 120.0
N3 C2 N5 130.1(7)
N3 C2 N4 122.8(7)
N5 C2 N4 107.0(7)
N6 C3 N4 107.4(7)
N6 C3 H3B 126.3
N4 C3 H3B 126.3
loop_
_geom_bond_atom_site_label_1
_geom_bond_atom_site_label_2
_geom_bond_distance
N1 N3 1.300(11)
N1 C1 1.376(12)
N2 C1 1.297(10)
N2 N4 1.357(10)
N3 C2 1.355(10)
N4 C3 1.324(10)
N4 C2 1.369(10)
N5 C2 1.356(10)
N5 N6 1.342(12)
N6 C3 1.324(12)
C1 H1A 0.9300
C3 H3B 0.9300
loop_
_geom_torsion_atom_site_label_1
_geom_torsion_atom_site_label_2
_geom_torsion_atom_site_label_3
_geom_torsion_atom_site_label_4
_geom_torsion
C1 N1 N3 C2 -0.6(12)
C1 N2 N4 C3 -179.1(7)
C1 N2 N4 C2 -0.4(10)
C2 N5 N6 C3 -0.9(9)
N4 N2 C1 N1 -0.4(11)
N3 N1 C1 N2 1.0(13)
N1 N3 C2 N5 179.6(8)
N1 N3 C2 N4 -0.2(10)
N6 N5 C2 N3 -179.2(7)
N6 N5 C2 N4 0.6(8)
C3 N4 C2 N3 179.7(7)
N2 N4 C2 N3 0.8(11)
C3 N4 C2 N5 -0.2(8)
N2 N4 C2 N5 -179.1(7)
N5 N6 C3 N4 0.8(9)
N2 N4 C3 N6 178.4(7)
C2 N4 C3 N6 -0.4(8)
