#------------------------------------------------------------------------------
#$Date: 2019-11-08 02:25:46 +0200 (Fri, 08 Nov 2019) $
#$Revision: 224752 $
#$URL: file:///home/coder/svn-repositories/cod/cif/7/05/81/7058115.cif $
#------------------------------------------------------------------------------
#
# This file is available in the Crystallography Open Database (COD),
# http://www.crystallography.net/
#
# All data on this site have been placed in the public domain by the
# contributors.
#
data_7058115
loop_
_publ_author_name
'Sc\'e, Fabio'
'Cano, Israel'
'Martin, Carmen'
'Beobide, Garikoitz'
'Castillo, \'Oscar'
'de Pedro, Imanol'
_publ_section_title
;
 Comparing conventional and microwave-assisted heating in PET degradation
 mediated by imidazolium-based halometallate complexes
;
_journal_issue                   8
_journal_name_full               'New Journal of Chemistry'
_journal_page_first              3476
_journal_paper_doi               10.1039/C8NJ06090H
_journal_volume                  43
_journal_year                    2019
_chemical_formula_moiety         'Cl6 Fe2 O, 2(C5 H9 N2)'
_chemical_formula_sum            'C10 H18 Cl6 Fe2 N4 O'
_chemical_formula_weight         534.68
_chemical_melting_point          391
_chemical_name_systematic
;
1,3-dimethylimidazolium (?-oxido)bis[trichloridoferrate(III)] 
;
_space_group_crystal_system      triclinic
_space_group_IT_number           2
_space_group_name_Hall           '-P 1'
_space_group_name_H-M_alt        'P -1'
_symmetry_space_group_name_Hall  '-P 1'
_symmetry_space_group_name_H-M   'P -1'
_atom_sites_solution_hydrogens   geom
_atom_sites_solution_primary     direct
_atom_sites_solution_secondary   difmap
_audit_creation_method           SHELXL
_audit_update_record
;
2018-05-01 deposited with the CCDC.
2019-01-22 downloaded from the CCDC.
;
_cell_angle_alpha                102.996(10)
_cell_angle_beta                 100.472(11)
_cell_angle_gamma                92.433(11)
_cell_formula_units_Z            1
_cell_length_a                   7.3221(11)
_cell_length_b                   7.5071(8)
_cell_length_c                   10.4916(12)
_cell_measurement_reflns_used    1267
_cell_measurement_temperature    293(2)
_cell_measurement_theta_max      73.8830
_cell_measurement_theta_min      4.3980
_cell_volume                     550.47(12)
_computing_cell_refinement
;
CrysAlisPro, Agilent Technologies,
Version 1.171.35.15 (release 03-08-2011 CrysAlis171 .NET)
(compiled Aug  3 2011,13:03:54)
;
_computing_data_collection
;
CrysAlisPro, Agilent Technologies,
Version 1.171.35.15 (release 03-08-2011 CrysAlis171 .NET)
(compiled Aug  3 2011,13:03:54)
;
_computing_data_reduction
;
CrysAlisPro, Agilent Technologies,
Version 1.171.35.15 (release 03-08-2011 CrysAlis171 .NET)
(compiled Aug  3 2011,13:03:54)
;
_computing_molecular_graphics    'Ortep-3 (Farrugia, 1997)'
_computing_publication_material  'WinGX (Farrugia, 1999)'
_computing_structure_refinement  'SHELXL-2014/7 (Sheldrick, 2014)'
_computing_structure_solution    'Sir92 (Altomare et al., 1993)'
_diffrn_ambient_temperature      293(1)
_diffrn_measured_fraction_theta_full 0.994
_diffrn_measured_fraction_theta_max 0.945
_diffrn_measurement_device_type  'SuperNova, Single source at offset, Eos'
_diffrn_measurement_method       \w
_diffrn_radiation_monochromator  mirror
_diffrn_radiation_type           CuK\a
_diffrn_radiation_wavelength     1.54184
_diffrn_reflns_av_R_equivalents  0.0329
_diffrn_reflns_av_unetI/netI     0.0430
_diffrn_reflns_Laue_measured_fraction_full 0.994
_diffrn_reflns_Laue_measured_fraction_max 0.945
_diffrn_reflns_limit_h_max       8
_diffrn_reflns_limit_h_min       -9
_diffrn_reflns_limit_k_max       9
_diffrn_reflns_limit_k_min       -5
_diffrn_reflns_limit_l_max       12
_diffrn_reflns_limit_l_min       -12
_diffrn_reflns_number            3365
_diffrn_reflns_point_group_measured_fraction_full 0.994
_diffrn_reflns_point_group_measured_fraction_max 0.945
_diffrn_reflns_theta_full        67.684
_diffrn_reflns_theta_max         74.285
_diffrn_reflns_theta_min         4.411
_diffrn_source                   'SuperNova (Mo) X-ray Source'
_diffrn_standards_decay_%        0
_diffrn_standards_interval_count 0
_diffrn_standards_interval_time  0
_diffrn_standards_number         0
_exptl_absorpt_coefficient_mu    17.321
_exptl_absorpt_correction_T_max  0.08097
_exptl_absorpt_correction_T_min  0.01070
_exptl_absorpt_correction_type   numerical
_exptl_absorpt_process_details
;
CrysAlisPro, Agilent Technologies,
Version 1.171.35.15 (release 03-08-2011 CrysAlis171 .NET)
(compiled Aug  3 2011,13:03:54)
Analytical numeric absorption correction using a multifaceted crystal
model based on expressions derived by R.C. Clark & J.S. Reid.
(Clark, R. C. & Reid, J. S. (1995). Acta Cryst. A51, 887-897)
;
_exptl_crystal_colour            orange
_exptl_crystal_density_diffrn    1.613
_exptl_crystal_density_meas      'note measured'
_exptl_crystal_density_method    none
_exptl_crystal_description       prismatic
_exptl_crystal_F_000             268
_exptl_crystal_size_max          0.30
_exptl_crystal_size_mid          0.21
_exptl_crystal_size_min          0.20
_refine_diff_density_max         0.560
_refine_diff_density_min         -0.608
_refine_diff_density_rms         0.113
_refine_ls_extinction_method     none
_refine_ls_goodness_of_fit_ref   1.088
_refine_ls_hydrogen_treatment    constr
_refine_ls_matrix_type           full
_refine_ls_number_parameters     109
_refine_ls_number_reflns         2130
_refine_ls_number_restraints     0
_refine_ls_restrained_S_all      1.088
_refine_ls_R_factor_all          0.0970
_refine_ls_R_factor_gt           0.0865
_refine_ls_shift/su_max          0.000
_refine_ls_shift/su_mean         0.000
_refine_ls_structure_factor_coef Fsqd
_refine_ls_weighting_details
'w=1/[\s^2^(Fo^2^)+(0.1687P)^2^+0.3119P] where P=(Fo^2^+2Fc^2^)/3'
_refine_ls_weighting_scheme      calc
_refine_ls_wR_factor_gt          0.2617
_refine_ls_wR_factor_ref         0.2806
_reflns_Friedel_coverage         0.000
_reflns_number_gt                1664
_reflns_number_total             2130
_reflns_threshold_expression     'I > 2\s(I)'
_cod_data_source_file            c8nj06090h2.cif
_cod_data_source_block           Dimim2Fe2Cl4O
_cod_depositor_comments
;
The following automatic conversions were performed:

'_chemical_melting_point' value '391 K' was changed to '391' - the
value should be numeric and without a unit designator.

Automatic conversion script
Id: cif_fix_values 4973 2017-02-22 13:04:09Z antanas 

 Adding full bibliography for 7058115--7058116.cif.
;
_cod_database_code               7058115
_shelx_space_group_comment
;
The symmetry employed for this shelxl refinement is uniquely defined
by the following loop, which should always be used as a source of
symmetry information in preference to the above space-group names.
They are only intended as comments.
;
_shelx_res_file
;

    shelx.res created by SHELXL-2014/7

TITL SIR92 run in space group P -1
CELL  1.54184   7.3221   7.5071  10.4916  102.996  100.472   92.433
ZERR     1.00   0.0011   0.0008   0.0012    0.010    0.011    0.011
LATT   1
SFAC  C    H    N    O    FE   CL
UNIT  10 18 4 1 2 6
MERG   2
OMIT    -6  -2   3
OMIT     0   1   1
OMIT    -6  -1   4
OMIT     0   2   2
FMAP   2
PLAN   25
ACTA
BOND   $H
L.S.  10
WGHT    0.168700    0.311900
FVAR      10.74431
FE1   5    0.831928    0.435904    0.854455    11.00000    0.10405    0.10603 =
         0.04521    0.01336   -0.00032   -0.02327
CL1   6    0.741281    0.139437    0.812318    11.00000    0.11225    0.10026 =
         0.07029    0.03209    0.00700   -0.00885
CL2   6    0.949137    0.474490    0.681601    11.00000    0.13535    0.10650 =
         0.09077    0.04336    0.03804    0.00277
CL3   6    0.589637    0.600077    0.862559    11.00000    0.16338    0.11357 =
         0.24989   -0.03662    0.09180    0.00259
O1    4    1.037390    0.464533    0.991083    10.50000    0.11814    0.12289 =
         0.06107    0.01867   -0.01711    0.00371
N3    3    0.764932   -0.002717    0.246129    11.00000    0.08322    0.08779 =
         0.06274    0.02054    0.01480    0.01009
C4    1    0.792204    0.124833    0.365322    11.00000    0.11856    0.08329 =
         0.07681    0.01434    0.01504    0.00151
AFIX  43
H4    2    0.827182    0.249478    0.380232    11.00000   -1.20000
AFIX   0
C5    1    0.758450    0.034260    0.456184    11.00000    0.11698    0.10310 =
         0.05978    0.00907    0.01558    0.00927
AFIX  43
H5    2    0.765692    0.085144    0.546561    11.00000   -1.20000
AFIX   0
N1    3    0.712101   -0.143794    0.393405    11.00000    0.08857    0.10134 =
         0.07381    0.03445    0.01414    0.01563
C2    1    0.717293   -0.162801    0.266108    11.00000    0.09401    0.08626 =
         0.06686    0.01528    0.00790    0.01343
AFIX  43
H2    2    0.691307   -0.272262    0.201018    11.00000   -1.20000
AFIX   0
C6    1    0.658662   -0.288777    0.456924    11.00000    0.13313    0.13030 =
         0.11199    0.06681    0.03958    0.02501
AFIX  33
H6A   2    0.666950   -0.238022    0.550540    11.00000   -1.50000
H6B   2    0.533002   -0.338346    0.416896    11.00000   -1.50000
H6C   2    0.741181   -0.384519    0.444762    11.00000   -1.50000
AFIX   0
C7    1    0.781411    0.034459    0.117692    11.00000    0.12547    0.11362 =
         0.06724    0.03146    0.01039    0.01097
AFIX  33
H7A   2    0.818247    0.162368    0.129806    11.00000   -1.50000
H7B   2    0.873459   -0.037638    0.081668    11.00000   -1.50000
H7C   2    0.663359    0.003078    0.057190    11.00000   -1.50000
AFIX   0
HKLF    4

REM  SIR92 run in space group P -1
REM R1 =  0.0865 for    1664 Fo > 4sig(Fo)  and  0.0970 for all    2130 data
REM    109 parameters refined using      0 restraints

END

WGHT      0.1692      0.3148

REM Highest difference peak  0.560,  deepest hole -0.608,  1-sigma level  0.113
Q1    1   0.7133  0.5228  0.8872  11.00000  0.05    0.56
Q2    1   0.7587  0.2834  0.8970  11.00000  0.05    0.56
Q3    1   0.8312  0.5696  0.8391  11.00000  0.05    0.54
Q4    1   0.9069  0.5713  0.7591  11.00000  0.05    0.49
Q5    1   0.9022  0.3467  0.8603  11.00000  0.05    0.48
Q6    1   0.6600  0.4870  0.8205  11.00000  0.05    0.40
Q7    1   0.8157  0.3074  0.7636  11.00000  0.05    0.40
Q8    1   0.6308  0.2346  0.8025  11.00000  0.05    0.36
Q9    1   0.5108  0.6560  0.8752  11.00000  0.05    0.36
Q10   1   0.7686  0.0197  0.8116  11.00000  0.05    0.34
Q11   1   0.6609  0.1971  0.8546  11.00000  0.05    0.33
Q12   1   0.6534 -0.4093  0.3742  11.00000  0.05    0.31
Q13   1   0.5691  0.1597  0.1255  11.00000  0.05    0.30
Q14   1   0.3453 -0.4026  0.3044  11.00000  0.05    0.29
Q15   1   0.8796  0.0942  0.8230  11.00000  0.05    0.29
Q16   1   0.9504  0.3215  0.6838  11.00000  0.05    0.29
Q17   1   0.7083  0.1424  0.1082  11.00000  0.05    0.27
Q18   1   0.8148 -0.3098  0.5355  11.00000  0.05    0.26
Q19   1   0.5914  0.5911  0.8034  11.00000  0.05    0.26
Q20   1   0.7128  0.1247  0.1815  11.00000  0.05    0.24
Q21   1   0.8437 -0.2479  0.1041  11.00000  0.05    0.24
Q22   1   0.9093 -0.1097  0.5870  11.00000  0.05    0.23
Q23   1   0.7896  0.4722  0.5600  11.00000  0.05    0.22
Q24   1   0.8142 -0.2858  0.2188  11.00000  0.05    0.22
Q25   1   0.7212 -0.4958  0.4996  11.00000  0.05    0.21
;
_shelx_res_checksum              57373
_shelx_hkl_file
;
   0   0  -1 84387.4 2155.20  21
   0   0  -2 278621. 5192.69  21
   0   0  -3 348624. 6529.28  21
   0   0  -4 214199. 5429.90  21
   0   0  -5 1412.76 485.386  21
   0   0  -6 97624.8 3882.98  21
   0   0  -7 56319.2 2950.93  21
   0   0  -8 1035.19 421.339  21
   0   0   8 705.900 249.007  19
   0   0   9 552.230 227.458  19
   0   0  10 4786.91 560.118  19
   0   0  11 950.677 203.038  14
   0   0  12-126.539 69.2334  14
   0  -1  12 57.8857 79.4983  14
   0  -1  11 11823.1 752.588  14
   0  -1  10 8937.28 737.109  19
   0   1 -10 7350.37 664.112  17
   0   1  -9 134.429 201.644  17
   0  -1   9 10.2051 146.517  19
   0  -1   8 9964.97 919.444  19
   0   1  -8 11165.0 922.392  17
   0   1  -8 12032.9 1251.35  21
   0   1  -7 129227. 4092.78  21
   0   1  -6 117780. 3833.29  21
   0   1  -5 105326. 3587.66  21
   0   1  -4 358457. 6419.42  21
   0   1  -3 5975.20 784.513  21
   0   1  -2 68.3346 86.0847  21
   0   1  -1 558945. 6464.52  22
   0   1   0 128636. 2840.97  22
   0   1   0 132044. 1958.85   1
   0  -1  -1 39165.8 1695.88  21
   0  -1  -2 11433.9 1128.90  21
   0  -1  -3 7184.08 969.754  21
   0  -1  -4 14579.4 1463.71  21
   0  -1  -5 40543.0 2536.26  21
   0  -1  -6 81471.0 3648.98  21
   0   1   7 22569.0 1411.48   5
   0  -1  -7 24912.2 2016.24  21
   0   1   7 22729.5 1521.01  19
   0   1   8 1074.09 318.330  19
   0  -1  -8 829.221 333.735  21
   0   1   9 540.350 256.838  19
   0   1  10 3924.69 506.275  19
   0   1  11 6154.11 508.922  14
   0   1  12 588.130 106.726  14
   0  -2  12 3127.01 293.527  14
   0   2 -11 12618.4 717.103  17
   0  -2  11 12915.7 772.077  14
   0   2 -10 457.590 209.459  17
   0   2  -9 39338.7 2544.32  22
   0   2  -9 42007.9 1706.11  17
   0   2  -8 6372.41 1067.66  22
   0   2  -8 6757.64 749.493  12
   0   2  -7 25901.6 2117.72  22
   0   2  -6 6094.43 875.220  21
   0   2  -6 4865.73 853.410  22
   0   2  -5 119050. 3863.89  22
   0   2  -5 117382. 3867.11  21
   0   2  -4 1484.08 401.373  22
   0   2  -4 1652.15 432.534  21
   0   2  -3 32324.5 1860.01  22
   0   2  -3 28179.6 1407.13  21
   0   2  -2 112340. 2747.06   1
   0   2  -2 125292. 3706.02  22
   0   2  -1 14448.2 744.331   1
   0   2  -1 12723.4 1218.56  22
   0   2   0 456775. 4877.65   1
   0   2   0 458200. 7066.47  22
   0   2   1 141136. 4075.59  22
   0  -2  -1 145771. 3719.30  21
   0  -2  -2 17099.5 1444.58  21
   0  -2  -3 35393.1 2190.78  21
   0  -2  -4 62784.5 3064.98  21
   0  -2  -5 770.457 356.055  21
   0   2   6 69475.5 2583.36   5
   0   2   6 72147.4 2745.94  19
   0  -2  -6 74069.2 3467.54  21
   0  -2  -7 16333.1 1612.58  21
   0   2   7 13796.8 1206.91  19
   0   2   8 19.1931 145.571  19
   0   2   9 6902.53 770.873  19
   0   2   9 6249.25 706.071  14
   0   2  10 10664.9 770.940  14
   0   2  11 197.738 123.400  14
   0   3 -12 734.571 126.746  16
   0   3 -11 1676.21 268.932  17
   0   3 -10 4531.76 532.350  17
   0   3  -9 783.316 258.420  17
   0   3  -8 5053.24 608.622   9
   0   3  -8 5829.46 681.909  12
   0   3  -7 14951.9 1065.14  12
   0   3  -7 13039.4 1420.68  22
   0   3  -6 29144.7 2056.25  22
   0   3  -5 21157.8 1702.86  22
   0   3  -4 51947.5 2517.74  22
   0   3  -3 3354.89 398.476   1
   0   3  -3 4614.04 788.806  22
   0   3  -2 23786.9 930.824   1
   0   3  -2 21746.9 1716.87  22
   0   3  -1 51997.7 2815.89  22
   0   3  -1 55753.8 1620.19   1
   0   3   0 130292. 4415.84  22
   0  -3   0 123272. 3216.82  21
   0   3   1 23537.3 1824.03  22
   0  -3  -1 22371.8 1566.58  21
   0  -3  -2 66381.8 2970.03  21
   0  -3  -3 16461.8 1590.83  21
   0  -3  -4 549.836 319.448  21
   0   3   5 36297.4 1823.22  19
   0  -3  -5 35090.4 2451.79  21
   0  -3  -6 23593.4 1988.49  21
   0   3   6 20280.7 1381.97  19
   0   3   7 1037.80 328.591  19
   0   3   8 12081.8 848.853  14
   0   3   8 13301.9 1032.57  19
   0   3   9 3752.12 400.425  14
   0   3  10 184.380 111.158  14
   0   3  10 149.936 71.4967  13
   0   4 -12 474.771 109.563  16
   0   4 -11 4935.25 437.941  17
   0   4 -10-285.302 183.977  17
   0   4 -10 197.437 114.239   9
   0   4  -9 19258.5 1159.12  17
   0   4  -9 20376.5 1078.60   9
   0   4  -8 11887.4 877.959   9
   0   4  -8 10640.7 1339.91  22
   0   4  -8 11827.2 962.356  17
   0   4  -8 11946.3 965.976  12
   0   4  -7 11913.3 908.365   9
   0   4  -7 12417.1 1007.21  12
   0   4  -7 11811.7 1349.35  22
   0   4  -6 17710.5 1107.05   9
   0   4  -6 19772.0 1727.94  22
   0   4  -5 184699. 5112.71  22
   0   4  -4 10048.2 1123.72  22
   0   4  -3 45779.4 2450.19  22
   0   4  -2 20304.7 1741.46  22
   0   4  -1 27845.4 2244.86  22
   0   4   0 6817.64 1097.03  22
   0  -4   0 7274.64 757.956  21
   0  -4  -1 94099.5 3173.94  21
   0   4   1 87343.6 3985.74  22
   0  -4  -2 2353.22 578.401  21
   0  -4  -3 12577.1 1370.96  21
   0  -4  -4 23432.6 1966.63  21
   0   4   5 1290.06 337.379  19
   0  -4  -5 1530.70 495.621  21
   0   4   6 2027.87 355.381  19
   0   4   7 391.017 110.702   8
   0   4   8 946.461 205.634  13
   0   4   9 80.0409 46.3432  13
   0   4  10 154.430 79.0381  13
   0   5 -12 1644.36 173.696  16
   0   5 -11 746.609 131.513  17
   0   5 -10 10938.5 701.067  17
   0   5 -10 10801.3 633.672   9
   0   5  -9 8732.86 673.208   9
   0   5  -9 8208.38 674.339  17
   0   5  -8 2793.51 417.332   9
   0   5  -8 2862.96 429.102  17
   0   5  -7 246.213 140.451  17
   0   5  -7 402.443 124.207  12
   0   5  -7 186.535 98.3738   9
   0   5  -7 622.767 269.544  22
   0   5  -6 4570.38 581.841   9
   0   5  -6 4678.03 620.126  12
   0   5  -6 4413.96 827.687  22
   0   5  -6 4525.89 536.392  17
   0   5  -5 14607.3 1446.38  22
   0   5  -5 12789.6 975.172   9
   0   5  -4 16754.1 1578.89  22
   0   5  -4 18573.1 1165.07   9
   0   5  -3 24693.6 2000.18  22
   0   5  -2 1216.86 508.728  22
   0   5  -1 5074.38 1015.36  22
   0   5   0 2050.77 703.612  22
   0   5   1 15430.0 1148.12  13
   0   5   1 14498.5 931.278   8
   0   5   2 191.026 70.1076   8
   0   5   2 261.118 166.845  13
   0   5   2 358.205 161.964  15
   0   5   3 4406.46 611.729  13
   0   5   3 3991.93 491.817  15
   0   5   3 4203.89 503.666   8
   0   5   4 185.601 90.9594   8
   0   5   4 441.521 194.361  13
   0   5   5 6866.24 543.910   8
   0   5   5 5704.18 615.374  13
   0   5   6 1451.07 283.366  13
   0   5   6 1846.91 245.041   8
   0   5   7 1319.35 238.501  13
   0   5   8 1779.16 223.717  13
   0   6 -11 202.866 75.6431  16
   0   6 -10 1879.26 242.035   9
   0   6 -10 1683.27 211.460  17
   0   6  -9 47.6668 88.2064   9
   0   6  -9 181.204 132.177  17
   0   6  -8 570.466 200.941  17
   0   6  -8 936.058 217.555   9
   0   6  -7 2856.58 434.746   9
   0   6  -6 4248.25 554.020   9
   0   6  -5 4124.48 526.895   9
   0   6  -4 306.859 179.402  13
   0   6  -4 323.184 213.327   9
   0   6  -4 316.548 274.599  22
   0   6  -3 9784.92 793.150  13
   0   6  -3 8852.78 803.345   9
   0   6  -3 9836.82 1236.06  22
   0   6  -2 474.792 223.869  22
   0   6  -2 284.236 136.729  13
   0   6  -2 387.027 171.319   9
   0   6  -1 6638.05 609.748   8
   0   6  -1 7180.38 721.197  13
   0   6  -1 8833.16 796.760   9
   0   6   0 89.6555 128.679  13
   0   6   0 156.708 126.112   8
   0   6   1 25317.6 1227.31   8
   0   6   1 26121.7 1158.78  15
   0   6   1 25693.5 1473.08  13
   0   6   2 7732.71 793.481  13
   0   6   2 7769.42 633.974  15
   0   6   2 6973.51 617.393   8
   0   6   3 1618.70 367.266  13
   0   6   3 1321.08 252.087   8
   0   6   4 7242.07 539.300   8
   0   6   4 6742.08 670.647  13
   0   6   5 1694.50 319.004  13
   0   6   5 2231.10 242.543   8
   0   6   6 79.3592 93.8938  13
   0   6   6-30.1922 41.6322   8
   0   6   7 1398.24 172.541  13
   0   7 -10 713.404 117.475   9
   0   7  -9 566.944 127.123   9
   0   7  -8 104.288 92.5685   9
   0   7  -7 68.2990 143.377   9
   0   7  -6 1298.74 266.480   9
   0   7  -5 6936.91 616.519   9
   0   7  -4 4144.90 463.092  13
   0   7  -4 4306.83 493.272   9
   0   7  -3 4981.38 522.373   9
   0   7  -3 5659.11 540.203  13
   0   7  -2 820.603 242.003   9
   0   7  -2 628.000 186.338  13
   0   7  -1 624.252 201.969  13
   0   7  -1 781.805 181.699   8
   0   7   0 7806.82 592.170   8
   0   7   0 8405.67 718.276  13
   0   7   1 5582.34 491.644   8
   0   7   1 5388.03 595.362  13
   0   7   2 354.068 133.936   8
   0   7   2 323.139 160.982  13
   0   7   3 1651.56 308.499  13
   0   7   3 1454.47 203.142   8
   0   7   4 214.980 70.9545   8
   0   7   4 183.025 106.491  13
   0   7   5 114.830 42.9298   8
   0   7   5 141.910 77.4190  13
   0   7   6 11.9488 24.5881  13
   0   8  -9-55.7718 46.1043   9
   0   8  -8 1024.83 154.145   9
   0   8  -7 314.181 110.946   9
   0   8  -6 578.721 143.853   9
   0   8  -5 193.340 108.777   9
   0   8  -4 2536.71 305.141   9
   0   8  -3 660.475 158.389  13
   0   8  -3 643.446 179.115   9
   0   8  -2 651.988 164.082  13
   0   8  -1 221.824 102.610  13
   0   8   0 220.815 112.462  13
   0   8   1 252.182 114.010  13
   0   8   2 264.709 99.4684  13
   0   8   3 44.2673 46.1020  13
  -1   8   3 139.522 65.4619  13
  -1   8   3 245.150 64.4076   8
  -1   8   2 295.053 84.7626   8
  -1   8   2 224.193 86.1180  13
  -1   8   1 505.752 122.451  13
  -1   8   1 483.659 118.197   8
  -1   8   0 283.524 112.247  13
  -1   8  -1 53.9828 55.7857  13
  -1   8  -2 689.878 131.290  13
  -1   8  -3 1936.69 250.629   9
  -1   8  -4 1494.55 232.287   9
  -1   8  -5 1090.51 185.772   9
  -1   8  -6 1174.76 187.258   9
  -1   8  -7-3.26714 63.1965   9
  -1   8  -8 100.471 56.8311   9
  -1   7   6-130.197 58.5709  13
  -1   7   5-25.5365 42.7759   8
  -1   7   5 56.8503 47.9268  13
  -1   7   4 15.5986 60.2927  13
  -1   7   4 92.3053 59.7886   8
  -1   7   3 45.7383 52.2147   8
  -1   7   3 63.4156 112.203  13
  -1   7   2 366.843 135.890   8
  -1   7   2 302.530 163.783  13
  -1   7   2 387.815 138.553  15
  -1   7   1 419.332 143.293  15
  -1   7   1 574.899 209.817  13
  -1   7   1 358.543 130.095   8
  -1   7   0 710.722 170.451   8
  -1   7   0 852.951 196.502  15
  -1   7   0 838.227 202.416  13
  -1   7  -1 997.330 220.853   8
  -1   7  -1 965.540 235.762  13
  -1   7  -1 847.847 188.290  15
  -1   7  -2 2085.06 280.996  13
  -1   7  -2 1957.11 260.318  15
  -1   7  -2 2011.78 310.381   8
  -1   7  -3 130.907 89.2984   9
  -1   7  -3 24.0655 56.5113  15
  -1   7  -3 92.8385 111.223  13
  -1   7  -4 584.036 236.239   9
  -1   7  -5 11485.7 800.698   9
  -1   7  -6 180.991 129.540   9
  -1   7  -7 5454.22 506.938   9
  -1   7  -8 101.424 60.8955  16
  -1   7  -8 110.995 99.9948   9
  -1   7  -9 76.1390 57.6600   9
  -1   6   7 14.8564 49.0205  13
  -1   6   7 65.6902 36.7813   8
  -1   6   6 2530.57 247.289   8
  -1   6   6 2668.53 338.504  13
  -1   6   5 167.421 83.7889   8
  -1   6   5 186.669 125.260  13
  -1   6   4 1775.15 292.483   8
  -1   6   4 1831.83 359.829  13
  -1   6   3 1025.52 263.681  13
  -1   6   3 461.055 186.491  15
  -1   6   3 849.777 230.043   8
  -1   6   2 5240.81 572.947   8
  -1   6   2 5729.49 578.666  15
  -1   6   2 5380.11 637.858  13
  -1   6   1 419.409 178.004  13
  -1   6   1 455.237 162.416  15
  -1   6   1 700.195 226.525   8
  -1   6   0 9208.62 794.733  13
  -1   6   0 8604.06 699.856  15
  -1   6   0 7886.02 697.671   8
  -1   6  -1 13879.8 895.942   8
  -1   6  -1 13864.9 857.450  15
  -1   6  -1 14239.2 946.286  13
  -1   6  -2 5296.95 559.723  13
  -1   6  -2 5122.30 540.282   8
  -1   6  -2 5058.65 526.835  15
  -1   6  -3 75.8291 122.708  13
  -1   6  -3 182.506 119.236  15
  -1   6  -3 47.3144 128.675   9
  -1   6  -4 227.550 80.6447  15
  -1   6  -4 428.973 202.113   9
  -1   6  -4 214.521 138.839  13
  -1   6  -5 681.059 229.519   9
  -1   6  -5 680.012 160.189  15
  -1   6  -6 5623.43 788.326   9
  -1   6  -6 4546.53 685.198  16
  -1   6  -7 1704.36 324.101   9
  -1   6  -7 1311.15 295.579  16
  -1   6  -8 278.363 136.550  16
  -1   6  -8 365.477 158.212   9
  -1   6  -9 1277.46 225.286  16
  -1   6  -9 1880.53 287.974   9
  -1   6 -10 1075.08 178.913  16
  -1   6 -11 214.555 59.8496  16
  -1   5   9 181.836 58.7080  13
  -1   5   8 6.17272 35.5047   8
  -1   5   8 38.7646 47.1322  13
  -1   5   7 1478.92 273.442  13
  -1   5   7 1419.61 198.343   8
  -1   5   6 1732.01 253.274   8
  -1   5   6 1465.56 290.489  13
  -1   5   5 203.470 111.436  13
  -1   5   5 300.600 136.499   8
  -1   5   4 4478.05 635.169  13
   1  -5  -4 5563.07 876.449  21
  -1   5   4 4227.44 505.108   8
  -1   5   4 4576.29 573.624  15
  -1   5   3 4820.75 609.418  13
  -1   5   3 4773.34 568.383  15
  -1   5   3 4690.09 531.985   8
   1  -5  -3 5827.85 830.524  21
  -1   5   2 3918.80 508.618   8
   1  -5  -2 4092.99 677.734  21
  -1   5   2 3834.01 507.978  15
  -1   5   2 3810.97 540.065  13
  -1   5   1 4510.22 592.277  13
  -1   5   1 3886.21 475.437   8
  -1   5   1 4009.40 513.615  15
  -1   5  -1 6009.50 949.581  22
  -1   5  -2 273.790 195.951  22
  -1   5  -3 23361.8 1739.43  22
  -1   5  -4 7067.58 703.326   9
  -1   5  -5 59305.1 2058.75   9
  -1   5  -6 1378.82 330.797   9
  -1   5  -6 1528.24 340.870  17
  -1   5  -7 16029.9 1051.62   9
  -1   5  -7 16627.8 1047.11  17
  -1   5  -8 7424.16 664.225  17
  -1   5  -8 7286.76 651.672   9
  -1   5  -9 2505.92 369.409  17
  -1   5  -9 2714.23 369.201   9
  -1   5 -10-56.6283 84.5071  16
  -1   5 -11 3428.52 304.242  16
  -1   4  10 480.130 101.010  13
  -1   4   9 202.760 89.1739  13
  -1   4   9 177.492 47.9925   8
  -1   4   8 86.1348 87.0560   8
  -1   4   8 212.377 111.361  19
  -1   4   7 674.267 242.827  19
  -1   4   6 31119.5 1498.86  19
   1  -4  -5 3771.40 844.683  21
  -1   4   5 2994.96 476.697   5
  -1   4   5 2944.96 478.733  19
   1  -4  -4 439.864 305.105  21
  -1   4   4 161.857 138.126  15
   1  -4  -3 10156.4 1242.47  21
   1  -4  -2 124365. 4062.63  21
   1  -4  -1 17437.3 1377.71  21
  -1   4   0 64656.9 3043.47  22
  -1   4   0 64221.0 2343.41   1
  -1   4  -1 125783. 4172.13  22
  -1   4  -1 130361. 3034.29   1
  -1   4  -2 17349.7 1080.05   1
  -1   4  -2 17260.8 1463.39  22
  -1   4  -3 10450.5 1080.23  22
  -1   4  -4 79586.3 3011.80  22
  -1   4  -5 13589.7 1327.65  22
  -1   4  -6 17533.3 1600.53  22
  -1   4  -6 15344.8 1080.44  17
  -1   4  -6 14998.5 1035.22   9
  -1   4  -7 43890.8 1784.62   9
  -1   4  -7 43629.5 1835.72  17
  -1   4  -8 2641.04 444.137  17
  -1   4  -8 2122.81 398.133   9
  -1   4  -9-51.3985 122.584  17
  -1   4  -9 143.716 141.914   9
  -1   4 -10 473.419 191.095  17
  -1   4 -11 2055.80 256.796  16
  -1   4 -12 181.701 49.6315  16
  -1   3  11 220.263 77.0864  13
  -1   3  10 2506.24 287.514  14
  -1   3   9 732.369 265.927  19
  -1   3   9 641.470 170.326  14
  -1   3   8 1928.34 394.930  19
  -1   3   7 18262.7 1272.68   5
  -1   3   7 18155.6 1272.50  19
   1  -3  -6 51582.1 3057.25  21
  -1   3   6 51854.2 2140.93   5
  -1   3   6 51593.6 2141.55  19
   1  -3  -5 3257.19 745.297  21
   1  -3  -4 46243.0 2723.28  21
   1  -3  -3 55155.4 2874.96  21
   1  -3  -2 26420.5 1841.56  21
  -1   3   1 241.722 144.656   1
  -1   3   0 268474. 4941.35   1
  -1   3   0 275089. 5489.46  22
  -1   3  -1 3693.06 550.698   1
  -1   3  -1 3444.48 618.101  22
  -1   3  -2 33847.9 1834.52  22
  -1   3  -2 33765.9 1722.28   1
  -1   3  -3 3353.44 609.981  22
  -1   3  -3 2166.91 486.746   1
  -1   3  -4 1878.67 491.353  22
  -1   3  -4 1113.34 425.013   1
  -1   3  -5 26786.9 1885.78  22
  -1   3  -5 19467.4 1994.51   1
  -1   3  -6 55633.7 2852.92  22
  -1   3  -7 6272.36 689.551  17
  -1   3  -7 5905.85 956.980  22
  -1   3  -7 6354.06 722.889   9
  -1   3  -8 863.306 280.494   9
  -1   3  -8 1119.76 355.873  17
  -1   3  -9 4005.20 515.021  17
  -1   3 -10 1589.94 296.187  17
  -1   3 -11 1942.96 235.761  16
  -1   3 -12 585.528 91.1936  16
  -1   2  11 7786.64 538.069  14
  -1   2  10 6239.58 658.623  19
  -1   2   9 458.401 256.016  19
  -1   2   8 10905.4 1055.87  19
  -1   2   8 10569.0 987.978   5
   1  -2  -7 42042.8 2632.39  21
  -1   2   7 39799.7 1927.26   5
   1  -2  -6 5355.16 947.936  21
  -1   2   6 5637.01 716.924   5
   1  -2  -5 24185.0 1931.25  21
   1  -2  -4 1760.38 491.994  21
   1  -2  -3 33651.0 2079.59  21
  -1   2   2 52858.0 2222.70   1
  -1   2   1 98824.7 2889.66   1
  -1   2   0 65924.1 2231.04  22
  -1   2   0 62039.9 2357.10   1
  -1   2  -1 20152.1 1448.37   1
  -1   2  -1 17790.8 1196.19  22
  -1   2  -2 2721.83 585.242   1
  -1   2  -2 4367.79 595.019  22
  -1   2  -3 47718.0 2122.47  22
  -1   2  -3 50174.7 2397.42  21
  -1   2  -4 15401.8 1358.59  22
  -1   2  -4 17270.2 1581.04  21
  -1   2  -5 29653.9 1928.01  22
  -1   2  -5 32110.7 2229.11  21
  -1   2  -6 15238.1 1514.45  21
  -1   2  -6 15606.5 1545.22  22
  -1   2  -7 59206.8 2134.41  17
  -1   2  -7 55393.1 3032.84  22
  -1   2  -7 60307.3 2956.85  21
  -1   2  -8 5509.85 656.328  17
  -1   2  -8 5364.25 913.232  22
  -1   2  -9 397.826 234.218  17
   1  -2  10 10539.4 736.679  14
  -1   2 -10 8864.88 698.225  17
  -1   2 -11 6614.19 430.356  16
   1  -2  11 8773.08 556.198  14
  -1   1  12 1807.21 217.685  14
  -1   1  11 6053.63 526.605  19
  -1   1  10 328.030 189.825  19
  -1   1   9 14334.3 1159.06  19
   1  -1  -8 751.829 373.623  21
  -1   1   8 819.479 305.237   5
   1  -1  -7 1001.65 395.327  21
  -1   1   7 801.707 230.551   5
   1  -1  -6 19184.4 1761.01  21
   1  -1  -5 2575.48 638.962  21
   1  -1  -4 12925.1 1311.42  21
   1  -1  -3 59258.1 2631.03  21
  -1   1   2 140518. 3329.36   1
  -1   1   1 485213. 5972.23   1
  -1   1   0 231443. 2615.65  22
  -1   1   0 232621. 4530.73   1
  -1   1  -1 78817.6 1722.28  22
  -1   1  -2 91485.8 3255.82  21
  -1   1  -3 62885.8 2940.54  21
  -1   1  -4 30517.3 2109.78  21
  -1   1  -5 7027.64 1019.21  21
  -1   1  -6 321406. 6794.99  21
  -1   1  -7 57362.9 2911.54  21
  -1   1  -7 55707.9 2095.75  17
   1  -1   8 10484.6 933.815  19
  -1   1  -8 10479.5 892.654  17
  -1   1  -8 11047.5 1296.68  21
  -1   1  -9 18878.6 1114.28  17
   1  -1   9 19388.2 1151.77  19
   1  -1  10 4477.80 532.388  14
   1  -1  11 586.415 170.138  14
   1  -1  12 2296.53 209.959  14
  -1   0  12 829.468 159.798  14
  -1   0  11 7039.64 582.783  19
  -1   0  10 453.950 217.147  19
  -1   0   9 414.381 234.737   5
  -1   0   9 387.739 151.132  19
   1   0  -8 14306.1 1493.97  21
  -1   0   8 11704.6 933.358   5
   1   0  -7 109155. 4152.44  21
   1   0  -6 13165.5 1415.68  21
   1   0  -5 348475. 7044.88  21
   1   0  -4 74935.7 3083.44  21
   1   0  -3 60662.7 2454.45  21
  -1   0   2 541240. 5669.52   1
  -1   0   1 128176. 2473.89   1
  -1   0   0 105664. 2999.59  21
   1   0   0 109614. 1880.13  22
  -1   0  -1 97627.6 3094.45  21
  -1   0  -2 919255. 11023.9  21
  -1   0  -3 73950.7 3280.61  21
  -1   0  -4 32450.8 2190.73  21
  -1   0  -5 142294. 4607.68  21
  -1   0  -6 74420.8 3374.98  21
   1   0   7 8498.51 919.035  19
  -1   0  -7 8575.98 1135.74  21
  -1   0  -8 9334.99 1240.62  21
   1   0   8 8262.56 891.697  19
  -1   0  -8 7797.29 684.396  17
   1   0   9 1928.86 422.026  19
   1   0  10 2404.56 377.264  14
   1   0  11 48.9157 86.9479  14
   1   0  12 1332.45 158.140  14
  -1  -1  12 3696.48 356.290  14
   1   1 -11 12094.1 678.747  17
  -1  -1  11 14157.4 827.107  19
   1   1 -10 3023.71 418.286  17
  -1  -1  10 3131.30 471.527  19
   1   1  -9 39744.8 2532.69  22
  -1  -1   9 39603.1 1675.10   5
  -1  -1   8 16250.3 1093.54   5
   1   1  -8 17452.9 1217.28  12
   1   1  -7 822.659 258.241  21
   1   1  -6 116792. 3750.23  21
   1   1  -5 251887. 5238.28  21
   1   1  -4 48257.4 2118.40  21
   1   1  -3 535684. 7037.90  22
   1   1  -3 536283. 6089.08  21
   1   1  -2 239522. 4793.77  22
   1   1  -2 239516. 3062.24  21
  -1  -1   1 272757. 2235.84   1
   1   1  -1 262914. 5275.71  22
  -1  -1   0 34213.3 1530.97  21
   1   1   0 33415.4 1720.64  22
  -1  -1  -1 922037. 10430.9  21
   1   1   1 999999. 10960.0  22
  -1  -1  -2 175046. 4927.57  21
  -1  -1  -3 12916.3 1367.32  21
  -1  -1  -4 16855.5 1608.29  21
  -1  -1  -5 22721.1 1847.52  21
  -1  -1  -6 78484.7 3510.06  21
  -1  -1  -7 20547.5 1810.10  21
   1   1   7 20971.5 1499.99  19
   1   1   8 5381.00 711.662  19
   1   1   9 16756.1 1118.76  14
   1   1  10 3175.30 434.175  14
   1   1  11 456.041 155.433  14
   1   2 -12 4070.42 316.807  17
  -1  -2  12 4696.96 394.234  14
   1   2 -11-94.6917 116.925  17
   1   2 -10 8124.74 732.082  17
   1   2  -9 19737.0 1773.71  22
   1   2  -9 18502.7 1189.36  12
   1   2  -8 1442.27 391.675  12
   1   2  -8 1325.54 486.921  22
   1   2  -7 168.406 178.662  22
   1   2  -6 1438.91 508.623  22
   1   2  -5 134242. 4178.55  22
   1   2  -4 730.588 254.611  21
   1   2  -4 891.622 346.732  22
   1   2  -3 26501.6 1783.74  22
   1   2  -2 35404.6 2223.42  22
   1   2  -1 230896. 5574.62  22
  -1  -2   1 215988. 2483.98  21
   1   2   0 322641. 6457.64  22
  -1  -2   0 318121. 4993.37  21
  -1  -2  -1 196947. 4662.03  21
   1   2   1 204710. 5272.67  22
  -1  -2  -2 144685. 4317.04  21
  -1  -2  -3 45958.3 2578.29  21
  -1  -2  -4 6414.03 1003.45  21
  -1  -2  -5 135462. 4564.07  21
  -1  -2  -6 70070.9 3273.40  21
   1   2   6 63705.8 2706.32  19
   1   2   7 8894.11 919.421  14
   1   2   7 10430.7 1058.13  19
  -1  -2  -7 9601.59 1169.72  21
   1   2   8 33216.9 1610.37  14
   1   2   8 35354.1 1819.47  19
   1   2   9 1090.61 283.449  14
   1   2  10 223.257 104.837  14
   1   2  11 3641.45 282.398  14
   1   3 -12 46.2640 77.7167  17
   1   3 -11 1433.96 294.582  17
   1   3 -10 7223.32 677.530  17
   1   3  -9 3561.54 526.257  12
   1   3  -8 1531.36 574.570  22
   1   3  -8 1575.98 344.664  12
   1   3  -7 23464.7 1392.35  12
   1   3  -7 20643.3 1775.83  22
   1   3  -6 41753.0 2416.70  22
   1   3  -5 76236.8 3149.89  22
   1   3  -4 7859.88 1040.04  22
   1   3  -3 170724. 4963.51  22
   1   3  -2 184629. 5362.48  22
   1   3  -1 182235. 5660.23  22
  -1  -3   1 186124. 2438.08  21
   1   3   0 11004.2 1342.03  22
  -1  -3   0 10211.4 857.689  21
   1   3   1 205721. 5750.55  22
  -1  -3  -1 208934. 4632.95  21
  -1  -3  -2 107074. 3693.55  21
  -1  -3  -3 43992.1 2529.90  21
  -1  -3  -4 52359.0 2869.44  21
   1   3   5 11765.6 1117.80  19
  -1  -3  -5 11821.0 1352.71  21
   1   3   5 9420.35 872.189  14
   1   3   6 3390.01 557.619  14
   1   3   6 3587.27 603.349  19
  -1  -3  -6 4230.58 861.064  21
   1   3   7 13368.2 969.679  14
   1   3   8 2304.06 374.637  14
   1   3   9 81.8675 60.8821  13
   1   3   9 129.155 112.932  14
   1   3  10 50.3087 53.2325  13
   1   3  10 201.598 74.9857  14
   1   4 -12 2375.96 253.698  17
   1   4 -11 187.164 127.699  17
   1   4 -10 16721.0 998.586  17
   1   4  -9 8722.51 795.810  12
   1   4  -9 9828.24 719.892   9
   1   4  -8 232.493 157.561   9
   1   4  -8 40.2792 164.000  22
   1   4  -8 312.868 143.546  12
   1   4  -7 4379.18 560.315   9
   1   4  -7 4922.20 644.407  12
   1   4  -7 4980.05 864.252  22
   1   4  -6 42997.8 2521.48  22
   1   4  -5 44729.9 2534.52  22
   1   4  -4 74838.3 3236.63  22
   1   4  -3 134478. 4550.77  22
   1   4  -2 19229.4 1906.31  22
   1   4  -1 547.098 312.016  22
   1   4   0 2504.63 750.701  22
  -1  -4  -1 11366.0 990.010  21
   1   4   1 10619.7 1495.88  22
  -1  -4  -2 8084.41 953.286  21
  -1  -4  -3 2928.97 627.321  21
   1   4   3 1363.04 329.760  13
  -1  -4  -4 1732.43 540.045  21
  -1  -4  -5 2471.02 611.760  21
   1   4   6 38.7415 108.825  13
   1   4   7 410.996 138.514  13
   1   4   8 1057.16 184.125  13
   1   4   9-54.9728 55.6573  13
   1   5 -12 98.4980 66.5495  17
   1   5 -11 1751.87 234.479  17
   1   5 -10 10743.5 618.134   9
   1   5 -10 10213.9 685.882  17
   1   5  -9 433.089 191.274  12
   1   5  -9 211.411 122.995  17
   1   5  -9 372.395 176.738   9
   1   5  -8 16199.3 1053.32  12
   1   5  -8 16771.2 1014.64   9
   1   5  -7 5088.25 598.833   9
   1   5  -7 5083.20 621.721  12
   1   5  -7 5447.99 891.898  22
   1   5  -6 833.821 284.699  22
   1   5  -6 875.069 282.576  12
   1   5  -6 1093.86 315.816   9
   1   5  -5 7074.57 678.909  13
   1   5  -5 8664.63 885.448   9
   1   5  -5 5719.68 1032.77  22
   1   5  -4 22601.3 1873.42  22
   1   5  -4 22615.0 1360.83   9
   1   5  -4 20040.0 1117.01  13
   1   5  -3 320.513 266.061  22
   1   5  -2 9081.75 1336.64  22
   1   5  -1 10647.5 1580.05  22
   1   5   0 476.519 205.855  13
   1   5   0 721.589 450.644  22
   1   5   1 5328.90 667.331  13
   1   5   1 4352.72 507.824   8
   1   5   2 99.0030 159.833  13
   1   5   2 145.391 110.655   8
   1   5   3 5950.75 712.367  13
   1   5   3 6527.86 581.352   8
   1   5   4 616.086 214.473  13
   1   5   5 359.160 212.028  13
   1   5   6 78.5527 72.8520  13
   1   5   7 3472.09 339.149  13
   1   5   8 740.839 129.625  13
   1   6 -11 167.118 78.7170  17
   1   6 -10 1110.02 192.617  17
   1   6 -10 1493.04 214.693   9
   1   6  -9 480.909 146.080   9
   1   6  -9 209.341 79.6787  17
   1   6  -8 857.697 258.792   9
   1   6  -8 885.221 235.044  12
   1   6  -8 860.170 210.895  17
   1   6  -7 5461.59 580.189   9
   1   6  -7 5373.66 532.302  12
   1   6  -6 3513.74 482.038   9
   1   6  -5 9227.84 724.548  13
   1   6  -5 10572.2 1254.13  22
   1   6  -5 8675.55 796.148   9
   1   6  -4 20860.1 1216.16   9
   1   6  -4 17094.3 1117.62  13
   1   6  -4 16982.9 1707.98  22
   1   6  -3 5413.82 961.376  22
   1   6  -3 4298.87 564.929   9
   1   6  -3 5096.62 571.649  13
   1   6  -2-31.2427 148.901  13
   1   6  -2 144.401 287.290  22
   1   6  -2 396.200 201.265   9
   1   6  -1 6595.30 581.305   8
   1   6  -1 6047.47 1119.26  22
   1   6  -1 5766.43 623.248   9
   1   6  -1 6352.89 701.596  13
   1   6   0 3467.94 541.215  13
   1   6   0 3937.69 453.705   8
   1   6   0 3313.54 498.822   9
   1   6   1 456.461 162.347   8
   1   6   1 363.498 177.188  13
   1   6   2 6961.49 737.989  13
   1   6   2 7199.49 570.924   8
   1   6   3 4143.22 527.967  13
   1   6   3 4941.46 420.731   8
   1   6   4 450.936 172.500  13
   1   6   5 428.377 147.992  13
   1   6   6 1736.86 221.247  13
   1   6   7 976.406 119.633  13
   1   7 -10 2214.17 204.060   9
   1   7  -9 97.5910 87.2392   9
   1   7  -8 2057.31 299.879   9
   1   7  -7 1901.46 303.807   9
   1   7  -6 800.631 247.416   9
   1   7  -5 1981.72 320.944   9
   1   7  -4 13497.1 883.090   9
   1   7  -4 14610.7 868.869  13
   1   7  -3 2768.76 409.628   9
   1   7  -3 1819.48 415.061  13
   1   7  -2 13821.5 890.385  13
   1   7  -2 12339.0 824.397   9
   1   7  -1 2257.00 361.436  13
   1   7  -1 1888.50 310.801   9
   1   7   0 411.578 199.958  13
   1   7   0 544.268 153.801   8
   1   7   1 107.431 60.2365   8
   1   7   1 39.2399 129.524  13
   1   7   2 5061.07 373.575   8
   1   7   2 4357.11 477.270  13
   1   7   3 1508.62 253.860  13
   1   7   4 33.8137 46.7933  13
   1   7   5 308.041 74.7547  13
   1   8  -9 1215.30 128.823   9
   1   8  -8 1145.18 163.590   9
   1   8  -7 726.483 153.959   9
   1   8  -6-8.13991 56.4461   9
   1   8  -5 88.9102 63.7662   9
   1   8  -4 572.884 139.444   9
   1   8  -3 769.483 150.641  13
   1   8  -3 513.319 138.291   9
   1   8  -2 905.880 195.127  13
   1   8  -2 1238.01 219.223   9
   1   8  -1-82.2166 87.7184  13
   1   8   0 69.5303 57.4811  13
   1   8   1-8.81790 43.9892  13
   1   8   2 602.058 119.622  13
   1   8   3 244.613 63.7697  13
   1   9  -5 20.8720 35.4236   9
  -2   8   4 78.7091 32.1795   8
  -2   8   3 47.7612 31.5867   8
  -2   8   2 60.8759 41.4623   8
  -2   8   1 1569.75 205.463   8
  -2   8   1 1510.93 181.377  15
  -2   8   0 177.604 61.9609  15
  -2   8   0 329.028 103.256   8
  -2   8  -1 1426.60 177.872  15
  -2   8  -2 48.3518 32.5902  15
  -2   8  -3-59.4487 43.9990  15
  -2   8  -4 208.616 67.2255  15
  -2   8  -5 2371.66 259.110   9
  -2   8  -6 159.165 79.5774   9
  -2   8  -7 889.994 138.324   9
  -2   7   6 159.832 47.7025   8
  -2   7   5 248.054 65.3455   8
  -2   7   4 332.484 115.771  13
  -2   7   4 379.710 98.9430   8
  -2   7   3-46.7459 70.0467   8
  -2   7   3-40.0813 58.0280  13
  -2   7   2 1654.34 245.428  13
  -2   7   2 1907.38 273.999  15
  -2   7   2 1766.30 285.130   8
  -2   7   1 1062.48 202.834  13
  -2   7   1 873.755 207.576   8
  -2   7   1 823.474 184.526  15
  -2   7   0 4458.13 460.819   8
  -2   7   0 3875.71 403.323  15
  -2   7  -1 253.433 114.141   8
  -2   7  -1 244.179 104.621  15
  -2   7  -2 1421.69 260.529   8
  -2   7  -2 1790.53 294.927  15
  -2   7  -3 81.9053 65.6372  15
  -2   7  -3 8.48543 81.6999   9
  -2   7  -4 871.899 223.719   9
  -2   7  -4 491.233 149.077  15
  -2   7  -5 157.420 96.7585  15
  -2   7  -5 224.825 148.420   9
  -2   7  -6 157.527 147.520   9
  -2   7  -6 50.2450 47.2337  15
  -2   7  -7 1238.89 233.176   9
  -2   7  -7 1084.66 171.919  15
  -2   7  -7 957.633 184.239  16
  -2   7  -8 25.5704 46.6181  16
  -2   7  -8 322.035 109.694   9
  -2   7  -9 68.3836 43.2283  16
  -2   6   7 24.9176 40.8337   8
  -2   6   7 7.19508 50.1340  13
  -2   6   6 230.084 71.3273   8
  -2   6   6 275.443 121.433  13
  -2   6   5-43.8962 58.6647   8
  -2   6   5-24.8276 67.5732  13
  -2   6   4 1523.69 311.017  15
  -2   6   4 1510.84 305.254  13
  -2   6   4 1520.77 276.781   8
  -2   6   3 1711.97 326.595   8
  -2   6   3 1468.86 317.400  13
  -2   6   3 1563.54 315.084  15
  -2   6   2 1348.50 296.466   8
  -2   6   2 1088.94 259.115  15
  -2   6   2 1482.26 289.465  13
  -2   6   1-51.2774 63.5189  15
  -2   6   1-60.7837 75.1599  13
  -2   6   1 1.04270 69.3016   8
  -2   6   0 159.959 145.320   8
  -2   6   0-6.55015 67.6835  15
  -2   6  -1 2374.78 376.895  15
  -2   6  -1 2703.54 394.554   8
  -2   6  -2 88.4134 78.9836   8
  -2   6  -2 124.242 79.4024  15
  -2   6  -3 629.473 210.415  15
  -2   6  -3 1326.04 344.231   9
  -2   6  -4 80.0466 107.651   9
  -2   6  -4 21.5502 76.4098  15
  -2   6  -5 5240.73 576.298   9
  -2   6  -5 5625.27 615.005  16
  -2   6  -6 1095.64 250.489   9
  -2   6  -6 1367.85 303.135  16
  -2   6  -7 2188.49 422.044   9
  -2   6  -7 2416.90 395.528  16
  -2   6  -8 70.0428 107.730  16
  -2   6  -8-39.4436 79.3850   9
  -2   6  -9 1121.14 194.415  16
  -2   6 -10-24.8867 48.3666  16
  -2   5   9 161.832 45.3183  13
  -2   5   8 58.9792 46.3132   8
  -2   5   8-51.7814 63.9938  13
  -2   5   7 18.9421 42.8436   8
  -2   5   7 161.646 95.3070  13
  -2   5   6 83.4910 66.2167   8
  -2   5   6-140.450 114.566  13
  -2   5   5 3467.13 469.793  13
  -2   5   5 2925.52 377.957   8
  -2   5   4 0.44416 79.6694  13
  -2   5   4 140.319 123.594   8
  -2   5   4 174.550 113.613  15
   2  -5  -3 1160.10 432.898  21
  -2   5   3 1361.62 533.083  13
  -2   5   3 1791.86 443.773   8
  -2   5   3 918.614 290.247  15
  -2   5   2-34.0386 105.939   8
   2  -5  -2-37.8770 76.6835  21
  -2   5   2-96.6573 116.603  13
  -2   5   1 198.728 152.922   8
   2  -5  -1 124.029 73.8804  21
  -2   5   1-65.7997 79.8730  15
  -2   5   0 11802.6 1035.49   1
  -2   5   0 10643.6 863.164  15
  -2   5   0 11392.4 851.465   8
  -2   5  -1 5955.11 613.209  15
  -2   5  -2 5115.56 546.890  15
  -2   5  -3 2878.12 424.293   9
  -2   5  -3 2965.27 374.333   8
  -2   5  -4 4155.69 565.072  16
  -2   5  -4 4749.34 596.014   9
  -2   5  -5 12796.7 941.510   9
  -2   5  -5 12615.6 1033.67  16
  -2   5  -6 8532.17 828.630  16
  -2   5  -6 8842.88 777.428   9
  -2   5  -7 10446.9 824.663   9
  -2   5  -7 9683.54 826.664  16
  -2   5  -8 2483.48 406.823  16
  -2   5  -8 2352.80 417.749   9
  -2   5  -9 196.741 150.125  16
  -2   5 -10 3092.77 314.362  16
  -2   5 -11 377.822 86.0478  16
  -2   4  10-12.9845 37.3037  13
  -2   4   9 25.9878 47.8188   8
  -2   4   9-22.5630 51.2604  13
  -2   4   8 229.276 178.292  19
  -2   4   7 1968.06 331.616  19
  -2   4   7 2043.94 378.442   5
  -2   4   6 1009.36 301.858   5
  -2   4   6 1290.04 334.401  19
   2  -4  -5 7399.26 1171.30  21
  -2   4   5 7691.95 709.368   5
  -2   4   5 7004.42 708.977   2
  -2   4   5 5842.14 612.876  15
   2  -4  -4 32346.7 2378.85  21
  -2   4   4 31850.1 1411.84   2
  -2   4   4 29484.8 1353.01  15
   2  -4  -3 1223.93 484.082  21
   2  -4  -2 262.256 247.182  21
  -2   4   2 291.677 198.591   1
  -2   4   1 44150.8 2317.54   1
  -2   4   0 71781.2 2862.70   1
  -2   4  -1 10862.7 1066.79   1
  -2   4  -2 62996.5 2454.66   1
  -2   4  -3 2265.22 499.386   1
  -2   4  -4 2716.79 547.305   1
  -2   4  -5 14420.2 1047.45   9
  -2   4  -5 15710.4 1114.58  17
  -2   4  -6 38743.7 1734.60   9
  -2   4  -6 40493.5 1767.58  17
  -2   4  -7 420.241 198.547  17
  -2   4  -7 348.115 232.007   9
  -2   4  -8 4101.82 511.822   9
  -2   4  -8 4194.48 534.311  17
  -2   4  -9 3241.55 426.501  16
  -2   4 -10 381.887 133.448  16
  -2   4 -11 187.499 79.7231  16
  -2   3  11 766.180 107.260  13
  -2   3  10 977.175 243.846  19
  -2   3   9 3248.49 477.336  19
  -2   3   8 11879.5 1010.44  19
  -2   3   8 12725.1 1029.34   5
  -2   3   7 7615.64 830.868   5
  -2   3   6 210.139 198.071   5
   2  -3  -6 158.637 206.197  21
  -2   3   6 69.2176 117.189   2
  -2   3   5 76703.0 2455.72   5
  -2   3   5 76381.5 2465.41   3
  -2   3   5 73991.2 2193.55  15
   2  -3  -5 72814.1 3604.77  21
  -2   3   5 74796.1 2396.41   2
   2  -3  -4 35437.6 2412.76  21
  -2   3   3 222.356 185.915   1
   2  -3  -3-44.1566 182.579  21
  -2   3   2 34519.4 2093.55   1
  -2   3   1 114939. 3803.66   1
  -2   3   0 57992.0 2659.30   1
  -2   3  -1 21874.6 1594.64   1
  -2   3  -2 40990.0 2216.25   1
  -2   3  -3 680.156 322.768   1
  -2   3  -4-43.8391 124.592   1
  -2   3  -5 1921.10 680.820   1
  -2   3  -6 11139.6 967.409   9
  -2   3  -6 12162.4 970.913  17
  -2   3  -7 9490.27 867.590   9
  -2   3  -7 9641.75 857.502  17
  -2   3  -8 1426.84 332.174  17
  -2   3  -9 1615.62 287.263  16
  -2   3 -10 3254.50 344.200  16
  -2   3 -11 1070.27 141.733  16
  -2   2  11 3745.46 407.997  19
  -2   2  11 2620.10 322.341  14
  -2   2  10 2575.39 435.121  19
  -2   2   9 9140.01 950.728  19
  -2   2   9 9260.30 871.144   5
  -2   2   8 171.121 140.442   5
  -2   2   7 4026.13 550.786   2
   2  -2  -7 3750.68 799.640  21
  -2   2   7 3619.44 600.512   5
   2  -2  -6 201.552 201.769  21
  -2   2   6 268.641 152.735   2
  -2   2   6 541.148 280.303   5
   2  -2  -5 72846.8 3386.58  21
   2  -2  -4 8623.83 1093.71  21
  -2   2   3 7366.59 927.219   1
  -2   2   2 1087.77 349.768   1
  -2   2   1 28036.8 1842.47   1
  -2   2   0 85657.3 3266.84   1
  -2   2  -1 17752.2 1533.99   1
  -2   2  -1 11667.6 498.871  22
  -2   2  -2 54859.1 1566.85  22
  -2   2  -2 52137.4 2845.93   1
  -2   2  -3 26001.9 2182.36   1
  -2   2  -3 26023.1 1359.77  22
  -2   2  -4 29863.8 2201.63  21
  -2   2  -4 30633.9 1765.33  22
  -2   2  -5 40709.5 2171.86  22
  -2   2  -5 40445.5 2668.11  21
  -2   2  -6 127977. 4630.10  21
   2  -2   7 2625.56 491.703  14
  -2   2  -7 3304.28 534.454  17
  -2   2  -7 2690.20 611.678  21
  -2   2  -8 19514.1 1175.66  17
   2  -2   8 17469.8 1114.17  14
  -2   2  -9 11683.4 796.092  16
   2  -2   9 14491.8 927.356  14
   2  -2  10 1839.23 285.961  14
  -2   2 -10 1477.92 238.732  16
   2  -2  11 834.863 162.450  14
  -2   1  12 1384.43 190.814  14
  -2   1  11 445.635 164.158  19
  -2   1  10 1559.79 380.003  19
  -2   1   9 5978.89 680.875   5
   2  -1  -8 6503.41 1008.04  21
  -2   1   8 6846.42 754.525   5
  -2   1   7 9032.77 768.959   2
   2  -1  -7 10106.0 1291.44  21
  -2   1   7 9824.81 895.716   5
   2  -1  -6 2801.71 704.585  21
   2  -1  -5 48969.6 2599.18  21
   2  -1  -4 69816.4 2930.22  21
  -2   1   3 3984.28 627.779   1
  -2   1   2 1629.39 404.301   1
  -2   1   1 226898. 4829.70   1
  -2   1   0 908516. 11068.6   1
  -2   1  -1 456378. 8658.02   1
  -2   1  -2 209984. 5533.07  21
  -2   1  -3 623.786 383.176  21
  -2   1  -4 45201.7 2846.77  21
  -2   1  -5 74480.7 3646.43  21
  -2   1  -6 23728.9 2015.25  21
  -2   1  -7 9328.12 1262.96  21
  -2   1  -7 9608.30 878.304  17
   2  -1   7 9036.43 968.280  14
  -2   1  -8 17441.5 1023.44  16
   2  -1   8 17693.0 1216.90  14
   2  -1   9 1098.86 295.678  14
   2  -1  10 473.013 216.570  14
   2  -1  11 2556.92 275.932  14
  -2   0  12 2097.41 261.142  19
  -2   0  11 4679.50 494.250  19
  -2   0  10 7348.73 702.068   5
  -2   0   9 14445.9 1037.08   5
  -2   0   8 1012.76 282.761   5
   2   0  -8 1903.92 572.813  21
   2   0  -7 3154.17 713.513  21
   2   0  -6 11945.0 1305.92  21
   2   0  -5 110903. 3777.70  21
   2   0  -4 3960.56 702.291  21
  -2   0   3 291528. 4915.35   1
  -2   0   2 4834.13 624.067   1
   2   0  -2 3799.92 530.129  22
  -2   0   1 48966.4 2040.88   1
   2   0  -1 49883.7 1718.13  22
   2   0   0 604059. 6160.43  22
  -2   0   0 611660. 9314.79   1
  -2   0  -1 57545.8 2903.43  21
  -2   0  -2 44955.3 2742.80  21
  -2   0  -3 187763. 5724.98  21
  -2   0  -4 28757.9 2230.33  21
  -2   0  -5 2023.27 630.626  21
   2   0   6 24761.8 1683.06  14
  -2   0  -6 28020.7 2187.97  21
  -2   0  -7 6647.81 1085.36  21
   2   0   7 5562.64 788.837  14
   2   0   8 17111.6 1229.96  14
   2   0   9 394.260 176.227  14
   2   0  10 186.427 138.347  14
   2   0  11 790.694 156.471  14
  -2  -1  12 2738.35 297.544  19
  -2  -1  11 213.615 106.464  19
   2   1 -11 149.351 107.950  17
  -2  -1  10 32043.9 1435.56   5
   2   1  -9 21078.6 1807.76  22
  -2  -1   9 21162.9 1226.55   5
   2   1  -9 23975.4 1292.01  12
   2   1  -8 12700.5 1442.47  22
   2   1  -8 13665.7 1021.32  12
  -2  -1   8 10901.4 873.372   5
   2   1  -7 8509.86 1164.48  22
   2   1  -6 43068.5 2452.73  22
   2   1  -6 43562.6 2192.18  21
   2   1  -5 13679.3 1294.23  22
   2   1  -5 13013.0 1121.32  21
   2   1  -4 232226. 4972.23  22
   2   1  -4 231501. 4408.27  21
   2   1  -3 139354. 3759.19  22
  -2  -1   3 141896. 2766.19   1
   2   1  -2 166691. 4428.63  22
  -2  -1   2 166869. 3025.51   1
   2   1  -1 22372.9 1468.35  22
  -2  -1   1 22191.4 1189.88   1
  -2  -1   0 61516.3 2671.18  21
   2   1   0 61689.5 2560.29  22
  -2  -1  -1 15874.2 1487.42  21
   2   1   1 16514.3 1539.13  22
  -2  -1  -2 1481.45 535.560  21
  -2  -1  -3 29656.4 2187.40  21
  -2  -1  -4 16356.7 1606.31  21
  -2  -1  -5 51370.3 2903.76  21
  -2  -1  -6 8296.42 1172.99  21
   2   1   6 9179.11 1034.99  14
  -2  -1  -7 17332.6 1659.85  21
   2   1   7 16609.0 1322.02  14
   2   1   8 9852.42 901.844  14
   2   1   9 1162.96 324.785  14
   2   1  10 521.024 151.236  14
   2   1  11 5834.68 353.729  14
   2   2 -12 64.3152 69.1170  17
   2   2 -11 1377.61 268.139  17
   2   2 -10 13401.0 891.326  12
   2   2  -9 5746.86 648.909  12
   2   2  -9 5109.54 888.689  22
   2   2  -8 2714.24 679.795  22
   2   2  -8 3093.58 488.209  12
   2   2  -7 1645.68 508.936  22
   2   2  -6 1763.16 514.541  22
   2   2  -5 4681.87 766.624  22
   2   2  -4 57504.1 2640.45  22
   2   2  -3 166276. 4776.93  22
   2   2  -2 1086.67 429.103  22
   2   2  -1 1953.70 535.672  22
  -2  -2   1 1810.51 274.947   1
   2   2   0 96986.9 3680.46  22
  -2  -2   0 105918. 3176.35  21
   2   2   1 260010. 6197.33  22
  -2  -2  -1 263733. 5574.57  21
  -2  -2  -2 2225.68 549.267  21
  -2  -2  -3 262489. 6064.29  21
  -2  -2  -4 63482.2 3041.37  21
  -2  -2  -5 16756.6 1590.33  21
   2   2   5 14750.8 1220.25  14
  -2  -2  -6 8060.11 1128.06  21
   2   2   6 7169.59 881.469  14
   2   2   7 33176.2 1689.18  14
   2   2   8 6448.42 690.305  14
   2   2   9 1634.47 285.242  14
   2   2  10 4773.20 393.022  14
   2   3 -12 131.863 92.6421  17
   2   3 -11 210.715 118.757  17
   2   3 -10 7316.51 709.394  12
   2   3  -9 10445.4 889.641  12
   2   3  -8 9066.41 1212.41  22
   2   3  -8 8167.10 830.119  12
   2   3  -7 7575.36 774.665  11
   2   3  -7 7860.66 1087.19  22
   2   3  -6 59955.3 2847.17  22
   2   3  -5 19742.6 1639.69  22
   2   3  -4 407178. 7664.84  22
   2   3  -3 152984. 4898.60  22
   2   3  -2 455.873 416.904  22
   2   3  -1 47792.8 2951.27  22
   2   3   0 151703. 5158.83  22
  -2  -3   0 154407. 3453.49  21
   2   3   1 53856.3 3088.00  22
  -2  -3  -1 53086.3 2251.76  21
  -2  -3  -2 64498.9 2684.45  21
  -2  -3  -3 73029.0 3097.70  21
   2   3   4 17316.0 1209.33  14
  -2  -3  -4 20169.2 1685.28  21
  -2  -3  -5 4273.23 811.500  21
   2   3   5 3756.80 594.439  14
   2   3   6 4251.49 566.342  14
   2   3   7 1573.52 301.052  13
   2   3   7 4980.12 554.760  14
   2   3   8 109.936 114.782  14
   2   3   8-0.80997 69.0552  13
   2   3   9 1617.64 232.384  14
   2   3   9 705.704 138.761  13
   2   4 -12 164.063 85.1936  17
   2   4 -11 3854.50 399.227  17
   2   4 -10 16240.0 987.812  12
   2   4  -9 5135.39 672.591  12
   2   4  -8 44675.8 2614.66  22
   2   4  -8 44436.9 1571.52   9
   2   4  -8 40705.8 1842.51  12
   2   4  -7 1365.05 453.324  22
   2   4  -7 873.767 299.085  12
   2   4  -7 1262.91 356.021  11
   2   4  -7 787.142 227.441   9
   2   4  -6 732.109 253.481  11
   2   4  -6 787.184 347.724  22
   2   4  -6 874.780 252.716   9
   2   4  -5 25842.0 1912.90  22
   2   4  -4 81793.6 3516.88  22
   2   4  -3 12913.0 1545.08  22
   2   4  -2 26189.6 2318.21  22
   2   4  -1 32580.4 2764.10  22
   2   4   0 5340.48 1088.92  22
   2   4   1 4602.60 946.488  22
   2   4   2 8140.79 787.071  13
   2   4   3 15458.4 1078.48  13
   2   4   4 191.019 152.747  13
   2   4   5 1455.93 334.144  13
   2   4   6 1843.39 311.621  14
   2   4   6 752.751 216.398  13
   2   4   7 3706.55 378.644  13
   2   4   7 6093.00 483.934  14
   2   4   8-34.5050 76.9571  20
   2   4   8 72.2636 47.2384  13
   2   5 -12 1008.38 138.703  17
   2   5 -11 1021.75 195.465  17
   2   5 -10-121.797 131.773  12
   2   5 -10 162.911 119.356  17
   2   5  -9 8628.75 716.785  12
   2   5  -9 9473.34 645.330   9
   2   5  -8 2009.20 395.780  12
   2   5  -8 1660.27 323.837   9
   2   5  -7 5677.57 635.131  12
   2   5  -7 5361.27 618.367  11
   2   5  -7 5291.16 606.819   9
   2   5  -6 2946.70 627.535  22
   2   5  -6 2576.27 435.238  11
   2   5  -6 2430.43 438.515   9
   2   5  -5 357.151 167.353  13
   2   5  -5 422.482 231.448  22
   2   5  -5 377.618 226.998   9
   2   5  -5 575.458 197.413  11
   2   5  -4 13814.2 938.630  13
   2   5  -4 12763.1 1077.29   9
   2   5  -3 7009.46 680.696  13
   2   5  -3 7419.05 1210.27  22
   2   5  -3 6449.47 688.723  10
   2   5  -2 3836.13 516.145  13
   2   5  -2 4950.68 1016.79  22
   2   5  -2 3590.63 522.038  10
   2   5  -1 1821.14 400.093  13
   2   5  -1 1459.84 331.811  10
   2   5  -1 2229.56 731.559  22
   2   5  -1 2024.80 293.597   8
   2   5   0 4830.00 635.624  13
   2   5   0 5835.20 1229.76  22
   2   5   0 5006.30 480.007   8
   2   5   1 12800.8 1033.28  13
   2   5   2 1939.04 434.053  13
   2   5   3 7977.82 810.363  13
   2   5   4 2408.57 423.339  13
   2   5   4 2841.80 406.232  20
   2   5   5 1157.98 260.644  13
   2   5   5 1403.28 262.241  20
   2   5   6 2488.45 301.875  13
   2   5   7 587.464 112.974  13
   2   6 -11 95.0734 63.0325  17
   2   6 -10 1825.65 208.458   9
   2   6 -10 1369.95 218.233  17
   2   6  -9 658.471 197.310  12
   2   6  -9 495.074 157.993  17
   2   6  -9 669.674 191.929   9
   2   6  -8 1923.44 296.200  12
   2   6  -8 2220.97 335.193   9
   2   6  -7 309.573 204.386  12
   2   6  -7 131.070 222.155   9
   2   6  -6-4.91260 110.368   9
   2   6  -5 326.886 173.434   9
   2   6  -4 21524.5 1139.25  13
   2   6  -4 18820.2 1183.88   9
   2   6  -3 799.926 367.460  13
   2   6  -3 534.779 417.077  22
   2   6  -2 8168.60 1249.48  22
   2   6  -2 6438.70 640.198  13
   2   6  -2 6171.72 619.648  10
   2   6  -1 1092.85 269.536  13
   2   6  -1 1526.95 593.081  22
   2   6   0 3103.01 481.934  13
   2   6   1 1265.44 320.162  13
   2   6   1 1588.39 240.533   8
   2   6   2 8454.74 757.366  13
   2   6   3 364.025 159.579  13
   2   6   4 2302.14 321.205  13
   2   6   5 568.701 123.441  13
   2   6   6 187.288 52.5356  13
   2   7  -9 6233.91 406.530   9
   2   7  -8 2018.28 277.951   9
   2   7  -7 767.491 194.350   9
   2   7  -6 773.117 241.985   9
   2   7  -5 2526.55 383.549   9
   2   7  -4 613.261 180.762  13
   2   7  -4 842.303 255.027   9
   2   7  -3 3637.23 415.346  13
   2   7  -3 2835.75 388.438   9
   2   7  -2 8405.30 755.765   9
   2   7  -2 5847.76 611.227  13
   2   7  -1 196.212 101.485  13
   2   7  -1 176.305 114.024   9
   2   7   0 3192.96 390.967  13
   2   7   0 2721.72 400.020   9
   2   7   1 404.439 158.641  13
   2   7   2 255.173 118.810  13
   2   7   3 231.609 85.0209  13
   2   7   4 449.009 98.3233  13
   2   8  -8 241.152 72.0409   9
   2   8  -7 2153.30 238.705   9
   2   8  -6 114.431 86.8113   9
   2   8  -5 175.725 104.650   9
   2   8  -4 5.53695 100.801   9
   2   8  -3 1319.16 197.319  13
   2   8  -3 1164.75 212.700   9
   2   8  -2-54.3480 54.7608  13
   2   8  -2-21.4036 80.0998   9
   2   8  -1 356.972 100.135  13
   2   8   0 20.9831 43.7467  13
   2   8   1 110.698 62.2246  13
   2   8   2 406.004 75.7914  13
  -3   8   3 258.184 63.5162   8
  -3   8   2 95.5701 47.1134   8
  -3   8   1 234.746 62.9472   8
  -3   8   1 369.102 92.6528  15
  -3   8   0 475.396 109.270  15
  -3   8  -1 0.22093 39.4702  15
  -3   8  -2 21.6850 70.0477  15
  -3   8  -3 433.131 91.8286  15
  -3   8  -4 126.825 61.8748  15
  -3   8  -5 119.492 45.3350  15
  -3   7   5 178.221 62.8849   8
  -3   7   4 1208.48 198.574   8
  -3   7   3 114.604 82.2013   8
  -3   7   3 135.327 91.3002  15
  -3   7   2 447.255 137.412   8
  -3   7   2 207.042 89.6881  15
  -3   7   1 5.41975 47.7457   8
  -3   7   1-90.2303 68.8462  15
  -3   7   0 1736.94 251.795   8
  -3   7   0 1554.74 247.735  15
  -3   7  -1 156.258 64.2057   8
  -3   7  -1 252.221 117.554  15
  -3   7  -2 3268.58 352.302  15
  -3   7  -3 129.722 85.2511  15
  -3   7  -4 241.738 106.768  15
  -3   7  -4 293.568 138.828   9
  -3   7  -5 403.642 141.872   9
  -3   7  -5 68.7960 82.1273  15
  -3   7  -6 291.520 107.559   9
  -3   7  -6 166.141 88.2637  15
  -3   7  -7 368.773 111.009  16
  -3   7  -7 573.570 116.826  15
  -3   7  -8-2.51166 32.1214  15
  -3   6   7 316.966 74.0624   8
  -3   6   6 67.3682 67.1587   8
  -3   6   5 135.226 84.5962   8
  -3   6   4 337.484 137.645   8
  -3   6   4 222.847 121.904  15
  -3   6   3 608.335 203.140   8
  -3   6   3 313.267 141.274  15
  -3   6   2 265.805 125.547   8
  -3   6   2 120.861 88.1268  15
  -3   6   1-9.68630 73.5290   8
  -3   6   1 15.6882 73.3275  15
  -3   6   0 2976.80 411.695  15
  -3   6   0 4068.69 445.062   8
  -3   6  -1 53.5168 72.1098   8
  -3   6  -1 198.871 100.014  15
  -3   6  -2 378.120 121.484   8
  -3   6  -2 462.835 165.402  15
  -3   6  -3 1043.31 241.326   9
  -3   6  -3 623.727 177.503  15
  -3   6  -4 3044.60 428.451  16
  -3   6  -4 3389.73 452.374   9
  -3   6  -4 2465.32 359.033  15
  -3   6  -5 2038.94 347.031   9
  -3   6  -5 2276.18 376.916  16
  -3   6  -6 2534.37 362.584   9
  -3   6  -6 2281.08 349.480  16
  -3   6  -7 5184.85 481.058   9
  -3   6  -7 4277.90 419.991  16
  -3   6  -8 32.8795 81.5823  16
  -3   6  -9 509.742 113.031  16
  -3   5   8 88.7351 61.6914   8
  -3   5   7 63.8689 78.5855   8
  -3   5   7 25.2830 78.5778  13
  -3   5   6 2215.41 331.823  13
  -3   5   6 1904.38 284.344   8
  -3   5   5 134.529 61.8752  15
  -3   5   4-90.2514 115.002   8
  -3   5   4 43.5063 108.544   2
  -3   5   4 66.5458 87.7202  15
  -3   5   3 33.8456 73.5517   8
   3  -5  -3 29.1336 120.824  21
  -3   5   3 119.977 131.358  15
  -3   5   2 7009.27 947.336   1
   3  -5  -2 7308.67 1001.47  21
  -3   5   2 6458.36 664.692  15
  -3   5   2 7266.91 655.804   8
  -3   5   1-1.30035 86.8433   8
  -3   5   1 210.759 163.139  15
  -3   5   1 456.500 266.566   1
  -3   5   0 5010.80 735.787   1
  -3   5   0 4053.89 526.527  15
  -3   5   0 6273.85 585.849   8
  -3   5  -1 181.744 108.184   8
  -3   5  -1 75.2269 168.579   1
  -3   5  -1 70.5230 61.4292  15
  -3   5  -2 2928.81 409.116  15
  -3   5  -3 5262.78 586.376   9
  -3   5  -3 5389.00 659.608  16
  -3   5  -4 491.241 221.631   9
  -3   5  -4 719.312 284.850  16
  -3   5  -5 7005.76 686.077   9
  -3   5  -5 7491.35 772.678  16
  -3   5  -6 9705.06 786.023   9
  -3   5  -6 9098.36 818.337  16
  -3   5  -7-12.6919 98.1443   9
  -3   5  -7-322.310 173.503  16
  -3   5  -8 8711.40 645.047  16
  -3   5  -9 350.919 124.211  16
  -3   5 -10 45.6027 37.6977  18
  -3   5 -10 80.1749 59.7102  16
  -3   4  10-25.1945 29.3658   8
  -3   4   9 52.8570 46.1150  13
  -3   4   9 562.832 141.440  19
  -3   4   8 292.898 142.940  19
  -3   4   7 1196.10 259.495  19
  -3   4   7 1199.01 295.375   5
  -3   4   6 163.606 141.029   5
  -3   4   6 195.087 141.499   2
   3  -4  -5 2597.03 730.922  21
  -3   4   5 2295.06 363.196  15
  -3   4   5 2586.41 436.252   2
  -3   4   5 2840.09 422.664   5
  -3   4   4 498.454 176.282  15
  -3   4   4 660.061 298.669   6
   3  -4  -4 733.298 346.538  21
  -3   4   4 712.117 228.208   2
  -3   4   3 4923.01 877.620   1
  -3   4   3 6279.57 689.547   6
   3  -4  -3 4049.44 826.130  21
  -3   4   3 5156.88 540.884   2
  -3   4   3 4934.13 547.081  15
  -3   4   2 7419.39 1036.05   1
  -3   4   2 8725.60 760.721  15
  -3   4   1 934.853 413.535   1
  -3   4   0 275.796 175.911   1
  -3   4  -1 27226.3 1799.54   1
  -3   4  -2 10922.2 1100.04   1
  -3   4  -3 6200.86 881.030   1
  -3   4  -4 9079.06 848.202   9
  -3   4  -4 9552.40 915.467  16
  -3   4  -4 6701.41 962.238   1
  -3   4  -5 487.747 312.055   1
  -3   4  -5 395.846 219.265   9
  -3   4  -5 680.386 254.109  16
  -3   4  -6 7381.60 749.386   9
  -3   4  -6 6783.69 763.793  16
  -3   4  -7 2197.95 392.744  16
  -3   4  -8 263.818 180.705  16
  -3   4  -9 111.128 66.3524  16
  -3   4 -10 556.068 130.757  16
  -3   3  10 647.049 193.808  19
  -3   3   9 1793.21 379.537  19
  -3   3   9 1510.01 329.597   5
  -3   3   8 538.546 199.337   5
  -3   3   7 921.842 315.873   2
  -3   3   7 804.019 277.419   5
  -3   3   6 9750.13 954.511   3
   3  -3  -6 9562.18 1333.03  21
  -3   3   6 10049.4 958.536   2
  -3   3   6 10772.6 987.175   5
  -3   3   5 7963.07 847.588   3
  -3   3   5 8428.94 875.989   6
   3  -3  -5 7167.63 1124.47  21
  -3   3   5 8099.55 812.673   2
  -3   3   5 7410.43 668.991  15
  -3   3   4 23892.1 1933.40   1
   3  -3  -4 20080.9 1866.99  21
  -3   3   3 60792.8 2967.51   1
  -3   3   2 3758.37 715.041   1
  -3   3   1 7257.31 1014.33   1
  -3   3   0 6062.77 876.753   1
  -3   3  -1 10491.5 1140.36   1
  -3   3  -2 870.834 350.658   1
  -3   3  -3 11484.9 1357.24   1
  -3   3  -4 78.1875 172.658   1
  -3   3  -5 1606.58 532.433   1
  -3   3  -5 2065.73 445.083   9
  -3   3  -5 1774.48 384.218  16
  -3   3  -6 3978.43 832.668   1
  -3   3  -6 5100.39 647.293   9
  -3   3  -6 4300.11 598.098  16
  -3   3  -7-85.3723 162.258  16
  -3   3  -8 3781.45 470.378  16
  -3   3  -9 1593.65 268.809  16
  -3   3 -10 131.009 76.5550  16
  -3   2  11-65.9449 85.0943  19
  -3   2  10 4454.60 560.259  19
  -3   2  10 4955.21 543.284   5
  -3   2   9 5315.41 671.692   5
  -3   2   8 6399.28 694.813   2
  -3   2   8 7795.64 873.031   5
  -3   2   7 10559.7 978.766   3
   3  -2  -7 10484.3 1296.23  21
  -3   2   7 10137.8 916.054   2
  -3   2   7 11334.4 1047.12   5
  -3   2   6 1712.88 396.302   3
   3  -2  -6 1797.78 536.784  21
  -3   2   6 1945.67 422.050   2
   3  -2  -5 5101.05 915.746  21
  -3   2   4 5679.12 869.498   1
  -3   2   3 58669.2 2774.53   1
  -3   2   2 6568.87 937.559   1
  -3   2   1 58505.9 2843.09   1
  -3   2   0 9756.54 1157.47   1
  -3   2  -1 164693. 4926.97   1
  -3   2  -2 25260.9 2003.01   1
  -3   2  -3 10974.3 1439.13   1
  -3   2  -4 28899.7 2495.36   1
  -3   2  -5 24886.9 2391.26   1
  -3   2  -6 17788.8 1157.57  16
  -3   2  -6 15454.6 1815.76   1
   3  -2   6 15014.5 1233.36  14
  -3   2  -7 13413.5 1664.78   1
  -3   2  -7 14401.5 987.905  16
   3  -2   7 15865.6 1132.44  14
  -3   2  -8 16709.4 1010.57  16
   3  -2   8 15729.4 1035.46  14
   3  -2   9 22.8026 109.289  14
  -3   2  -9 65.5913 100.245  16
   3  -2  10 1920.66 236.043  14
  -3   1  12 195.401 86.8956  19
  -3   1  11 144.647 113.163  19
  -3   1  10 4648.37 549.507   5
  -3   1   9 136.228 123.903   5
   3  -1  -8 276.640 308.721  21
  -3   1   8 106.328 82.9933   2
  -3   1   8 161.926 140.991   5
  -3   1   7 636.064 192.361   3
   3  -1  -7 1486.37 534.285  21
  -3   1   7 1073.33 258.553   2
   3  -1  -6 27624.4 2075.94  21
   3  -1  -5 87590.2 3453.90  21
  -3   1   4 43704.2 2239.40   1
  -3   1   3 168527. 4272.52   1
  -3   1   2 127355. 3794.47   1
   3  -1  -2 132153. 2530.45  22
  -3   1   1 22714.8 1675.84   1
  -3   1   0 54996.5 2845.37   1
  -3   1  -1 115319. 4433.30   1
  -3   1  -2 30058.0 2444.72   1
  -3   1  -3 227668. 6407.27  21
  -3   1  -4 40964.2 2839.07  21
  -3   1  -5 7651.68 1257.48  21
  -3   1  -6 11024.2 1446.40  21
  -3   1  -6 9895.12 813.565  16
   3  -1   6 10825.5 1116.26  14
  -3   1  -7 32027.5 1382.02  16
   3  -1   7 33620.9 1815.68  14
  -3   1  -7 30871.5 2274.14  21
   3  -1   8 975.387 306.436  14
   3  -1   9 7169.22 616.165  14
   3  -1  10 887.510 178.061  14
  -3   0  12 343.999 93.7492  19
  -3   0  11 528.609 188.158  19
  -3   0  10 16128.4 1008.94   5
  -3   0   9 6155.27 681.382   5
   3   0  -8 14108.2 1419.49  22
  -3   0   8 13697.1 902.887   2
   3   0  -7 28239.9 2008.65  22
  -3   0   7 25450.2 1367.19   3
   3   0  -7 27408.2 2046.28  21
  -3   0   7 26187.5 1251.50   2
   3   0  -6 51145.1 2577.26  22
   3   0  -6 50975.6 2654.37  21
   3   0  -5 336.108 227.168  21
   3   0  -5 64.6472 171.810  22
  -3   0   4 173039. 4200.57   1
   3   0  -4 175386. 4134.03  22
   3   0  -3 154153. 3674.00  22
  -3   0   3 154991. 3804.81   1
   3   0  -2 10441.2 852.737  22
  -3   0   2 10584.0 978.021   1
   3   0  -1 6355.63 580.457  22
  -3   0   1 5437.41 747.557   1
  -3   0   0 7129.92 1038.10   1
  -3   0  -1 230599. 6427.69   1
  -3   0  -2 45805.1 2859.55  21
  -3   0  -3 50581.0 3181.23  21
  -3   0  -4 5999.91 1066.11  21
   3   0   5 20.5801 262.597  14
  -3   0  -5-157.627 222.334  21
   3   0   6 556.597 294.540  14
  -3   0  -6 365.247 373.159  21
   3   0   7 2415.80 478.786  14
   3   0   8 3499.55 518.440  14
   3   0   9 295.501 138.601  14
   3   0  10 2850.02 304.555  14
  -3  -1  12 337.931 118.736  19
  -3  -1  11 6614.16 599.085  19
   3   1 -11 5221.83 436.870  17
   3   1 -10 5701.89 549.094  12
  -3  -1  10 6434.92 646.337   5
   3   1  -9 2942.02 470.585  12
  -3  -1   9 2756.02 460.669   5
   3   1  -8 23470.9 1874.61  22
   3   1  -8 23996.1 1393.13  12
  -3  -1   7 1158.55 295.041   3
   3   1  -7 1462.17 492.623  22
   3   1  -6 3544.40 738.539  22
   3   1  -5 6795.77 890.717  22
   3   1  -5 6255.55 771.628  21
  -3  -1   4 23197.3 1372.44   1
   3   1  -4 23239.3 1597.01  22
   3   1  -3 2682.56 550.165  22
  -3  -1   3 2665.06 436.427   1
   3   1  -2 6670.99 812.651  22
  -3  -1   2 5818.97 631.506   1
  -3  -1   1 19873.2 1267.41   1
   3   1  -1 19910.3 1365.92  22
  -3  -1   0 7617.49 1034.64   1
   3   1   0 6569.58 839.622  22
  -3  -1  -1 34052.0 2278.35  21
  -3  -1  -2 5446.74 1018.24  21
  -3  -1  -3 31255.1 2422.93  21
  -3  -1  -4 14941.0 1704.50  21
  -3  -1  -5 5395.80 1004.88  21
   3   1   5 5310.69 782.502  14
  -3  -1  -6 6852.53 1107.65  21
   3   1   6 7623.61 924.290  14
   3   1   7 38339.4 1940.04  14
   3   1   8 1345.62 352.117  14
   3   1   9 11503.2 763.515  14
   3   1  10 4903.07 370.226  14
   3   2 -12 616.523 123.049  17
  -3  -2  11 72.4058 89.5947  19
   3   2 -10 6173.33 644.426  12
   3   2  -9 4514.97 580.060  12
   3   2  -8 11639.9 1335.35  22
   3   2  -8 10225.0 905.197  11
   3   2  -7 4999.00 848.482  22
   3   2  -7 4700.66 627.671  11
   3   2  -6 22949.8 1774.44  22
   3   2  -5 4701.57 767.825  22
   3   2  -4 54503.4 2694.39  22
   3   2  -3 46965.9 2559.71  22
   3   2  -2 8516.36 1055.81  22
  -3  -2   1 5080.65 559.729   1
   3   2  -1 5459.68 840.040  22
  -3  -2   0 40929.9 2118.35  21
   3   2   0 40544.3 2314.85  22
  -3  -2   0 39433.1 2076.85   1
   3   2   1 719.241 352.342  22
  -3  -2  -1 409.811 331.121  21
  -3  -2  -2 53503.7 2829.28  21
  -3  -2  -3 86377.3 3659.83  21
   3   2   4-175.060 225.082  14
  -3  -2  -4 174.039 161.781  21
  -3  -2  -5 19400.1 1819.37  21
   3   2   5 23264.9 1508.28  14
   3   2   6 11718.0 1062.20  14
   3   2   7 2911.08 525.020  14
   3   2   8 5982.32 598.315  14
   3   2   9 3387.85 356.799  14
   3   2  10 525.143 104.157  20
   3   3 -12 2.70063 75.7492  17
   3   3 -11 3427.41 379.587  12
   3   3 -10 5627.02 597.629  12
   3   3  -9 8861.91 873.224  12
   3   3  -8 9662.30 864.708  11
   3   3  -8 11213.3 1340.54  22
   3   3  -7 2190.04 410.673  11
   3   3  -7 1951.47 497.366  22
   3   3  -6 3557.43 553.813  11
   3   3  -6 3255.92 655.091  22
   3   3  -5 30268.8 2012.89  22
   3   3  -4 114079. 4091.12  22
   3   3  -3 7218.01 1092.18  22
   3   3  -2 246422. 6529.25  22
   3   3  -1 13936.6 1531.26  22
   3   3   0 29593.4 2191.09  22
  -3  -3  -1 27426.2 1727.49  21
  -3  -3  -2 59646.5 2678.01  21
   3   3   3 339.341 237.831  14
  -3  -3  -3 506.931 289.632  21
  -3  -3  -4 12686.3 1378.14  21
   3   3   4 14205.2 1150.27  14
   3   3   5 2704.64 532.755  14
   3   3   6 3492.70 482.604  14
   3   3   7 144.191 138.386  14
   3   3   8 644.569 178.355  14
   3   3   9 1868.55 200.875  20
   3   3   9 1788.51 179.229  14
   3   4 -12 827.388 138.069  17
   3   4 -11 1175.22 217.103  12
   3   4 -10 113.682 118.197  12
   3   4  -9 18130.7 1145.14  12
   3   4  -8 13997.1 1185.72  12
   3   4  -8 14825.3 1141.24  11
   3   4  -7 7714.79 1046.66  22
   3   4  -7 7782.44 810.297  11
   3   4  -7 7924.09 692.854   9
   3   4  -6 24434.8 1806.39  22
   3   4  -6 24396.1 1503.05  11
   3   4  -6 21432.8 1273.03   9
   3   4  -5 14173.5 1410.72  22
   3   4  -5 15683.8 1180.16  11
   3   4  -4 32514.9 1556.92  10
   3   4  -4 21225.9 1935.55  22
   3   4  -3 51892.2 3126.36  22
   3   4  -2 26589.4 2332.85  22
   3   4  -1 4489.13 976.196  22
   3   4   0 800.530 606.408  20
   3   4   0 265.337 202.845  22
   3   4   1 3199.96 486.374  13
   3   4   1 3711.53 563.721  20
   3   4   2 12016.3 975.164  13
   3   4   2 14341.0 1109.35  20
   3   4   3 6111.78 669.826  13
   3   4   4 1753.52 352.282  14
   3   4   4 944.908 263.153  13
   3   4   5 3227.34 433.224  13
   3   4   5 4496.73 523.910  14
   3   4   6 1512.62 263.760  14
   3   4   6 1092.70 218.607  13
   3   4   6 904.993 240.736  20
   3   4   7 427.244 143.508  20
   3   4   8 1880.55 177.104  20
   3   5 -12 137.031 60.1911  17
   3   5 -11-3.08903 68.6396  17
   3   5 -10 147.011 154.262  12
   3   5  -9 3132.06 427.980  12
   3   5  -8-34.4768 121.337  11
   3   5  -8-60.5211 135.230  12
   3   5  -8-49.5092 87.5302   9
   3   5  -7 16382.8 1228.97  11
   3   5  -7 13700.5 1106.97   9
   3   5  -6 1288.77 298.118  11
   3   5  -6 1007.94 311.815   9
   3   5  -5 586.266 260.277  11
   3   5  -5 536.243 310.510  22
   3   5  -5 183.543 134.102   9
   3   5  -4 13675.4 914.518  13
   3   5  -4 10415.1 918.502  11
   3   5  -3 3357.60 508.699  13
   3   5  -3 4025.94 576.209  10
   3   5  -3 3805.34 931.376  22
   3   5  -2 15014.0 994.384  13
   3   5  -2 11476.8 1032.70  10
   3   5  -1 10887.4 866.303  13
   3   5  -1 9092.53 906.952  10
   3   5   0 472.163 211.851  13
   3   5   0 585.378 250.525  20
   3   5   1 10419.4 847.781  13
   3   5   1 12644.6 1031.68  20
   3   5   2 20185.2 1148.39  13
   3   5   2 21846.4 1271.87  20
   3   5   3-44.8583 136.896  20
   3   5   3-72.5298 95.1387  13
   3   5   4 4290.57 472.290  13
   3   5   4 4242.95 454.390  20
   3   5   5 2820.01 316.900  13
   3   5   5 3082.37 331.619  20
   3   5   6 588.526 112.880  13
   3   6 -10 121.915 86.8458  12
   3   6 -10-97.0368 93.0803  17
   3   6  -9 3302.22 365.173  12
   3   6  -9 3551.94 329.249   9
   3   6  -8 980.736 223.110  12
   3   6  -8 1020.55 220.894   9
   3   6  -7 760.989 223.284  12
   3   6  -7 661.213 185.779  11
   3   6  -7 526.831 181.416   9
   3   6  -6 2405.07 359.027  12
   3   6  -6 2086.44 358.960  11
   3   6  -6 2013.11 364.443   9
   3   6  -5 8039.18 672.943  11
   3   6  -5 7920.79 741.965   9
   3   6  -4 1824.60 294.849  13
   3   6  -4 1352.04 308.705   9
   3   6  -3 10647.9 760.529  13
   3   6  -3 8394.10 701.443  10
   3   6  -2 22314.8 1137.33  13
   3   6  -2 19106.6 1121.55  10
   3   6  -1 1209.05 263.661  13
   3   6  -1 1376.65 320.421  10
   3   6   0 2641.38 392.549  13
   3   6   0 2868.24 449.723  10
   3   6   1 2084.18 337.427  13
   3   6   1 1763.10 349.242  10
   3   6   2 2128.05 318.623  13
   3   6   2 1486.06 295.119  10
   3   6   3 233.809 107.180  13
   3   6   3 238.041 99.6983  10
   3   6   4 1927.73 215.274  13
   3   6   5 161.505 48.2611  13
   3   7  -9 2308.73 207.824   9
   3   7  -8 444.035 125.327   9
   3   7  -7 6983.07 502.724   9
   3   7  -6 200.647 122.766   9
   3   7  -5 393.657 174.793   9
   3   7  -4 456.686 164.193   9
   3   7  -3 3091.19 349.924  13
   3   7  -3 2184.56 354.843   9
   3   7  -2 196.903 127.586  13
   3   7  -2 190.876 175.181   9
   3   7  -1 1237.31 223.749  13
   3   7  -1 810.886 227.992   9
   3   7   0 173.226 85.3467  13
   3   7   0 115.724 122.207   9
   3   7   1 34.9620 53.3096  13
   3   7   2-61.8807 72.0235  13
   3   7   3 70.4009 37.6229  13
   3   8  -7 342.315 87.5420   9
   3   8  -6 272.472 89.2301   9
   3   8  -5 3.76815 57.2649   9
   3   8  -4 163.903 73.5160   9
   3   8  -3 143.140 81.6322   9
   3   8  -2-27.8142 52.6139   9
   3   8  -1 67.1665 49.7928  13
   3   8   0 58.7161 40.4075  13
  -4   8   1 17.4719 25.6159  15
  -4   8   0 294.020 74.6790  15
  -4   8  -1 451.638 93.7361  15
  -4   8  -2 213.692 67.3518  15
  -4   8  -3 282.854 79.2857  15
  -4   8  -4 54.6581 38.1409  15
  -4   8  -5 18.3381 21.8752  15
  -4   7   5 474.058 83.9301   8
  -4   7   4 115.863 58.6854   8
  -4   7   3 1458.24 195.497  15
  -4   7   3 1649.63 198.045   8
  -4   7   2 900.110 138.501   8
  -4   7   2 634.390 141.137  15
  -4   7   1 26.8165 42.3604   8
  -4   7   1-41.0885 53.4585  15
  -4   7   0 570.680 115.669   8
  -4   7   0 497.169 117.979  15
  -4   7  -1 638.078 150.499  15
  -4   7  -2 62.7903 70.4281  15
  -4   7  -3 323.975 115.594  15
  -4   7  -4 10.8747 53.4336  15
  -4   7  -5 427.855 124.369  15
  -4   7  -6 435.846 99.4453  15
  -4   7  -7 54.8699 38.7657  15
  -4   6   7 17.8439 30.4083   8
  -4   6   6 334.757 94.3787   8
  -4   6   5 1734.69 242.120   8
  -4   6   4 38.4682 54.2174   8
  -4   6   4 67.8423 82.1859  15
  -4   6   3 286.761 121.945   8
  -4   6   3 175.162 102.421  15
  -4   6   2 36.6706 64.2163   8
  -4   6   2 126.546 86.9110  15
  -4   6   1 200.898 116.754   8
  -4   6   1 130.724 63.3231  15
  -4   6   0 1257.10 213.062   8
  -4   6   0 1129.76 234.397  15
  -4   6  -1 152.564 108.613  15
  -4   6  -2 3203.71 394.692  15
  -4   6  -3 45.6769 83.5446  15
  -4   6  -4 41.8340 65.8437  15
  -4   6  -5 15.6447 73.3743  16
  -4   6  -5 173.893 128.209  15
  -4   6  -6 722.874 174.712  16
  -4   6  -6 515.483 135.705  15
  -4   6  -7 188.289 102.109  16
  -4   6  -7-57.2682 61.0434  15
  -4   6  -8 269.988 73.5399  15
  -4   5   8 69.2466 42.0561   8
  -4   5   7-131.713 79.8070   8
  -4   5   6 168.631 104.950   8
  -4   5   5 2699.83 376.186   2
  -4   5   5 2438.48 367.664  15
  -4   5   5 1990.94 298.379   8
  -4   5   4 2936.61 383.269   2
  -4   5   4 2544.95 383.452  15
  -4   5   4 2580.29 359.720   8
  -4   5   3 2665.61 380.827   6
  -4   5   3 2213.14 324.015   2
  -4   5   3 2426.28 376.784  15
  -4   5   3 2416.24 342.574   8
  -4   5   2 1072.26 222.876   8
  -4   5   2 1001.36 333.925   6
  -4   5   2 805.593 225.244  15
  -4   5   1 3317.63 635.830   1
  -4   5   1 4746.07 491.488   6
  -4   5   1 4054.03 508.950  15
  -4   5   1 3972.79 465.122   4
  -4   5   1 5240.64 482.476   8
  -4   5   0 211.385 97.1729   1
  -4   5   0 53.5744 61.6480   4
  -4   5   0 160.703 109.355  15
  -4   5  -1 14657.6 922.739  15
  -4   5  -1 12805.2 796.569   4
  -4   5  -2 2897.79 556.757   1
  -4   5  -2 3978.57 467.198  15
  -4   5  -3 5361.21 575.891   9
  -4   5  -3 5480.01 638.180  16
  -4   5  -4 1543.14 302.869  18
  -4   5  -4 1341.61 283.949   9
  -4   5  -4 1442.41 323.304  16
  -4   5  -5 2871.56 403.782  18
  -4   5  -5 3351.29 477.083  16
  -4   5  -6 48.5512 105.878  18
  -4   5  -6 19.6153 118.529  16
  -4   5  -7 2693.52 303.568  18
  -4   5  -7 3217.34 400.912  16
  -4   5  -8 1140.23 170.033  18
  -4   5  -8 1362.65 229.663  16
  -4   5  -9 41.3660 37.0892  18
  -4   5  -9 43.5721 50.9770  16
  -4   4   9 813.217 115.451   8
  -4   4   8 322.824 118.427  19
  -4   4   8 332.369 132.574   5
  -4   4   7-33.8001 89.4832   2
  -4   4   7-52.3744 93.2485   5
  -4   4   6 916.287 260.726   2
  -4   4   6 655.048 200.191   5
  -4   4   5 7335.77 685.737   3
  -4   4   5 6819.19 670.229   2
  -4   4   5 6566.72 582.442  15
  -4   4   4 248.390 160.133   2
  -4   4   4 490.033 209.689   3
   4  -4  -4 871.827 451.210  21
  -4   4   4 253.484 147.387  15
  -4   4   4 680.959 231.387   6
  -4   4   3 444.641 189.239   6
  -4   4   3 390.278 183.561  15
  -4   4   3 419.288 222.294   1
  -4   4   3 434.861 198.944   4
  -4   4   2 263.862 247.187   1
  -4   4   2 230.115 104.243   4
  -4   4   2 174.541 115.033   6
  -4   4   2 574.180 192.008  15
  -4   4   1 28.6356 58.1456   4
  -4   4   1-41.4836 116.829   1
  -4   4   0 2596.30 580.279   1
  -4   4   0 2534.05 425.445  15
  -4   4   0 2304.85 410.678   4
  -4   4  -1 3756.63 470.800  18
  -4   4  -1 2594.90 566.992   1
  -4   4  -2 17.6326 88.3253  18
  -4   4  -2 55.3703 88.2870  16
  -4   4  -2-50.2255 130.012   1
  -4   4  -3 6217.87 663.214   9
  -4   4  -3 5324.14 588.378  18
  -4   4  -3 6719.04 772.216  16
  -4   4  -3 4690.94 791.946   1
  -4   4  -4 392.182 237.926   1
  -4   4  -4 824.929 285.892  16
  -4   4  -5 745.084 217.817  16
  -4   4  -6 138.708 158.004  16
  -4   4  -7 139.836 98.0705  16
  -4   4  -8 568.668 158.033  16
  -4   4  -9 609.411 128.612  16
  -4   4 -10 29.0398 39.2229  18
  -4   3  10 2423.00 277.850  19
  -4   3   9 216.970 137.031  19
  -4   3   9-21.4663 113.077   5
  -4   3   8 3363.53 479.564   2
  -4   3   8 2957.67 465.046   5
  -4   3   7 264.265 192.231   2
  -4   3   7 423.932 208.223   5
  -4   3   6 202.620 153.793   3
  -4   3   6 408.744 202.565   2
  -4   3   5 607.240 253.782   2
  -4   3   5 193.021 181.963   3
   4  -3  -5 70.5916 181.456  21
  -4   3   5 213.411 128.980   6
  -4   3   5 310.181 131.586  15
  -4   3   4 2014.03 426.067   6
  -4   3   4 2051.19 315.922  15
  -4   3   4 2166.64 581.054   1
  -4   3   3 5669.81 1014.04   1
  -4   3   3 4052.54 791.407   6
  -4   3   2 7579.98 1067.29   1
  -4   3   1 1287.76 431.727   1
  -4   3   0 937.333 340.154   1
  -4   3  -1 3715.15 710.077   1
  -4   3  -2 155.078 246.479   1
  -4   3  -3 1993.94 555.183   1
  -4   3  -3 2958.02 470.479  16
  -4   3  -4 532.937 196.242  16
  -4   3  -4 864.855 385.216   1
  -4   3  -5 6798.75 1075.18   1
  -4   3  -5 7051.62 751.301  16
  -4   3  -6 1418.11 308.545  16
  -4   3  -7 9077.98 736.418  16
  -4   3  -8 3507.03 408.559  16
  -4   3  -9 38.7812 60.9996  16
  -4   2  11 505.881 145.000  19
  -4   2  10 239.539 144.308  19
  -4   2  10 263.409 149.807   5
  -4   2   9 187.717 142.038   5
  -4   2   8 198.672 184.143   2
  -4   2   8 415.006 170.634   5
  -4   2   7 162.876 131.446   3
  -4   2   7 71.5497 120.855   2
  -4   2   6 241.246 193.599   2
   4  -2  -6-9.45348 199.114  21
  -4   2   6 429.956 238.638   3
  -4   2   6 255.738 163.844   6
   4  -2  -5 116.930 153.728  21
  -4   2   5 243.715 116.274   6
  -4   2   5 423.504 207.218   3
  -4   2   5 189.573 173.022   1
  -4   2   4 2684.40 596.861   1
  -4   2   3 764.900 345.313   1
  -4   2   2 11376.5 1279.10   1
  -4   2   1 592.823 333.728   1
  -4   2   0 4574.35 816.742   1
  -4   2  -1 61930.9 3022.87   1
  -4   2  -2 9414.16 1210.42   1
  -4   2  -3 50753.8 3041.62   1
  -4   2  -4 10688.7 1458.50   1
  -4   2  -4 11046.2 884.362  16
  -4   2  -5 830.867 383.848   1
  -4   2  -5 779.744 226.143  16
  -4   2  -6 9453.00 805.054  16
   4  -2   6 8771.99 858.932  14
  -4   2  -7 7224.94 664.169  16
   4  -2   7 6970.37 674.811  14
   4  -2   8 166.629 137.494  14
  -4   2  -8 260.207 130.492  16
  -4   1  11 75.6130 91.0955  19
  -4   1  11 82.0717 81.7856   5
  -4   1  10 4175.93 491.896   5
  -4   1   9 311.518 99.9646   2
  -4   1   9 244.154 106.935   5
  -4   1   8 10375.3 876.195   3
  -4   1   8 10249.9 793.473   2
  -4   1   7 613.437 220.957   2
  -4   1   7 726.059 232.553   3
   4  -1  -7 968.329 372.240  21
   4  -1  -6 284.477 203.020  21
  -4   1   6 132.672 132.496   6
  -4   1   6 582.018 229.898   3
  -4   1   5 3007.80 604.273   1
  -4   1   4 64188.2 2693.28   1
  -4   1   3 13799.5 1260.34   1
  -4   1   2 53782.9 2544.21   1
  -4   1   1 48436.8 2546.01   1
  -4   1   0 131040. 4386.48   1
  -4   1  -1 24276.3 1999.68   1
  -4   1  -2 116472. 4707.43   1
  -4   1  -3 45232.6 3104.07   1
   4  -1   4 5050.83 796.282  14
  -4   1  -4 4673.21 1033.56   1
  -4   1  -4 3978.31 521.750  16
  -4   1  -5 9852.55 1552.71   1
  -4   1  -5 9938.77 791.129  16
   4  -1   5 11606.4 1230.85  14
   4  -1   6 854.040 395.384  14
  -4   1  -6 581.096 215.745  16
   4  -1   7 1829.37 451.196  14
   4  -1   8 212.789 147.656  14
   4  -1   9 1771.85 260.466  14
   4  -1  10 395.732 79.7538  14
  -4   1 -10 366.127 63.5915  18
  -4   0  12 488.149 107.917  19
  -4   0  11 2587.30 313.660   5
  -4   0  10 2290.39 347.377   5
  -4   0   9 4988.91 502.170   2
  -4   0   9 5281.51 610.381   5
  -4   0   8 17772.7 1123.38   3
  -4   0   8 18952.7 1042.20   2
  -4   0   7 270.499 123.262   2
  -4   0   7 92.2447 164.199   3
   4   0  -6 2123.54 487.173  22
  -4   0   6 2313.88 422.719   6
   4   0  -6 1603.84 455.330  21
  -4   0   6 2113.54 396.328   3
  -4   0   5 21998.6 1606.21   1
   4   0  -5 25762.1 1709.85  22
  -4   0   4 81058.4 2881.04   1
  -4   0   3 3175.71 546.486   1
  -4   0   2 97214.8 3068.44   1
  -4   0   1 28385.2 1767.13   1
  -4   0   0 22867.1 1770.32   1
  -4   0  -1 456.068 326.044   1
  -4   0  -2 15184.6 1796.76   1
  -4   0  -3 16554.9 1922.61   1
   4   0   4 640.661 288.523  14
  -4   0  -4 421.856 375.858  21
   4   0   5 424.648 274.370  14
  -4   0  -5 89.0355 261.106  21
   4   0   6 6030.50 852.305  14
   4   0   7 3434.69 553.895  14
   4   0   8 2904.36 455.579  14
   4   0   9 3328.25 342.879  14
   4   0  10 890.491 120.464  14
  -4  -1  12 502.484 119.219  19
  -4  -1  11 362.500 116.391   5
   4   1 -10 120.079 149.771  12
  -4  -1  10 85.6118 104.550   5
   4   1  -9 17457.2 1091.03  12
  -4  -1   9 19613.6 1124.99   5
   4   1  -8 1089.79 391.691  22
   4   1  -8 2113.17 403.196  11
  -4  -1   8 1653.02 359.605   3
  -4  -1   7 3295.28 484.550   3
   4   1  -7 3687.27 533.556  11
   4   1  -7 3324.58 686.510  22
   4   1  -6 7095.39 955.396  22
  -4  -1   6 5188.09 625.913   3
   4   1  -6 6137.11 712.859  11
   4   1  -5 5305.62 793.997  22
   4   1  -4 32651.3 1896.41  22
   4   1  -3 2846.05 494.802  22
  -4  -1   3 2798.95 470.862   1
   4   1  -2 20529.7 1319.01  22
  -4  -1   2 21646.6 1271.22   1
   4   1  -1 14580.2 1141.24  22
  -4  -1   1 16087.4 1161.90   1
  -4  -1   0 31480.2 1970.93   1
  -4  -1  -1 2924.61 721.252   1
  -4  -1  -2 95918.0 3998.55  21
  -4  -1  -2 87169.8 4078.58   1
  -4  -1  -3 62031.7 3399.27  21
   4   1   3 54171.9 2454.00  14
   4   1   4 2365.71 523.821  14
  -4  -1  -4 2870.36 748.171  21
  -4  -1  -5 13391.9 1546.55  21
   4   1   5 17555.4 1394.41  14
   4   1   6 10034.3 1018.77  14
   4   1   7 55.8239 204.866  14
   4   1   8 5978.04 574.779  14
   4   1   9 5294.73 371.721  20
   4   1   9 5345.63 390.289  14
   4   2 -12 121.306 74.6383  17
   4   2 -11 27.2011 73.9012  12
   4   2 -10-54.6098 92.3522  12
   4   2  -9 493.159 236.896  12
   4   2  -8 10810.0 893.020  11
   4   2  -7 878.124 369.813  22
   4   2  -7 621.548 269.168  11
   4   2  -6 985.358 380.540  22
   4   2  -6 897.777 317.057  11
   4   2  -5 10918.9 1196.52  22
   4   2  -4 94292.5 3500.73  22
   4   2  -3 6029.39 842.122  22
   4   2  -2 51595.3 2453.29  22
   4   2  -1 6287.46 889.012  22
   4   2   0 145.118 252.140  22
  -4  -2  -1 19847.5 1541.03   1
  -4  -2  -2 50674.7 2653.63  21
  -4  -2  -2 50695.9 2725.17   1
   4   2   2 51401.4 2289.07  14
   4   2   3 176.499 195.521  14
  -4  -2  -3 736.123 360.380  21
  -4  -2  -4 9251.73 1224.40  21
   4   2   4 11730.8 1081.67  14
   4   2   5 9894.30 1001.34  14
   4   2   6 3363.28 604.477  14
   4   2   7 2663.93 428.057  14
   4   2   8 4326.01 396.822  20
   4   2   8 4975.46 443.124  14
   4   2   9 1090.94 142.650  14
   4   2   9 1104.03 136.113  20
   4   3 -12 115.213 60.1848  17
   4   3 -11 739.651 175.501  12
   4   3 -10 236.044 161.161  12
   4   3  -9 23016.5 1330.34  12
   4   3  -8 4101.37 633.551  11
   4   3  -7 23901.4 1824.33  22
   4   3  -7 23168.0 1439.84  11
   4   3  -6 15203.6 1450.91  22
   4   3  -6 15738.5 1199.42  11
   4   3  -5 6649.76 834.727   7
   4   3  -5 7873.20 1054.61  22
   4   3  -4 9774.26 1239.15  22
   4   3  -4 15172.8 1035.97  10
   4   3  -3 19682.7 1759.42  22
   4   3  -2 15248.5 1526.36  22
   4   3  -1 5816.92 912.516  22
   4   3  -1 6086.48 744.593  20
   4   3   0 14459.4 1470.61  22
   4   3   0 17798.3 1294.34  20
   4   3   1 3446.58 567.711  14
   4   3   1 2594.73 494.322  20
   4   3   2 1105.34 354.082  14
   4   3   2 1064.88 366.388  20
   4   3   3 346.447 193.395  14
   4   3   3 234.947 243.706  20
   4   3   4 6633.29 773.209  14
   4   3   5 360.620 235.052  14
   4   3   6-35.7598 142.383  14
   4   3   6 131.356 125.696  20
   4   3   7 323.088 103.385  14
   4   3   7 498.463 135.606  20
   4   3   8 2410.84 221.219  20
   4   4 -12 15.9871 53.7294  17
   4   4 -11 493.714 147.941  12
   4   4 -10 2122.69 309.593  12
   4   4  -9 4100.58 528.908  12
   4   4  -8 6243.77 681.799  11
   4   4  -7 19121.0 1320.20  11
   4   4  -6 2599.96 598.218  22
   4   4  -6 1497.29 425.749  11
   4   4  -6 1963.17 374.863   9
   4   4  -5 1938.39 541.064  22
   4   4  -5 1216.05 377.911  11
   4   4  -4 227.820 283.414  22
   4   4  -4 106.757 133.769  10
   4   4  -3 7885.59 682.614  13
   4   4  -3 7722.42 1182.89  22
   4   4  -3 10489.4 942.442  10
   4   4  -2 1396.81 551.040  22
   4   4  -2 726.082 265.154  10
   4   4  -1 16672.6 1722.78  22
   4   4   0 1396.09 328.936  20
   4   4   1 507.988 292.117  20
   4   4   2 1399.79 355.192  20
   4   4   3 888.673 296.379  14
   4   4   3 548.949 250.326  20
   4   4   4 2595.60 426.100  14
   4   4   4 2188.06 402.551  20
   4   4   5 2534.69 356.097  14
   4   4   5 2246.15 370.375  20
   4   4   6 7.98484 61.1332  20
   4   4   7 1917.65 185.377  20
   4   5 -11 138.057 77.0622  12
   4   5 -11 203.672 78.6124  17
   4   5 -10 384.924 118.887  12
   4   5  -9 1099.49 263.919  12
   4   5  -8 107.536 119.472  12
   4   5  -8-147.091 128.388  11
   4   5  -7 2160.46 402.447  11
   4   5  -7 2366.64 326.790   9
   4   5  -6 1430.70 375.922  11
   4   5  -6 1355.50 342.338   9
   4   5  -5-106.140 142.404  11
   4   5  -5 264.214 198.614   9
   4   5  -4 413.759 212.493  11
   4   5  -4 385.912 249.860  10
   4   5  -3 15843.2 919.658  13
   4   5  -3 12865.1 992.361  10
   4   5  -2 5207.62 576.886  13
   4   5  -2 10522.1 941.177  10
   4   5  -1 5764.29 544.936  13
   4   5  -1 4530.98 604.185  10
   4   5   0 5483.20 523.772  13
   4   5   0 4243.54 584.743  10
   4   5   1 6119.38 522.911  13
   4   5   1 6270.98 663.860  20
   4   5   2 528.628 241.067  20
   4   5   3 6180.14 559.929  20
   4   5   4 5094.69 451.356  20
   4   5   5 241.539 94.6744  20
   4   6 -10 274.909 81.0434  12
   4   6  -9 2721.07 283.282  12
   4   6  -8 3181.29 362.749  12
   4   6  -8 2469.50 298.563   9
   4   6  -7 6136.63 543.233  12
   4   6  -7 5323.98 511.755  11
   4   6  -7 5589.06 472.603   9
   4   6  -6 7.82663 95.1733  11
   4   6  -6 122.305 101.744   9
   4   6  -5 286.876 165.486  11
   4   6  -5 162.451 124.009   9
   4   6  -4 4243.78 504.976  11
   4   6  -4 2759.01 451.004   9
   4   6  -3 5871.49 494.343  13
   4   6  -3 4231.46 510.183  10
   4   6  -2 341.238 145.846  10
   4   6  -2 437.852 141.054  13
   4   6  -1 9045.47 576.048  13
   4   6  -1 8091.14 689.152  10
   4   6   0 5627.91 431.250  13
   4   6   0 4660.14 514.183  10
   4   6   1 133.408 73.2688  13
   4   6   1 68.3199 115.688  10
   4   6   2 1245.53 230.245  10
   4   6   3 1214.85 190.121  10
   4   7  -8 2178.60 193.922   9
   4   7  -7 3065.30 321.828   9
   4   7  -6 1098.00 183.325   9
   4   7  -5 1400.74 229.465   9
   4   7  -4 37.2171 65.9763   9
   4   7  -3 134.063 67.0520   9
   4   7  -2 656.339 129.822  13
   4   7  -2 338.928 131.404   9
   4   7  -1 1700.76 186.066  13
   4   7  -1 748.488 165.182   9
   4   7   0 142.525 76.3561  13
   4   7   0 17.2115 49.2022   9
   4   7   1-21.9899 40.5400  13
   4   8  -6 927.920 125.343   9
   4   8  -5 24.0858 43.2392   9
   4   8  -4-101.172 53.2860   9
   4   8  -3 271.741 82.5578   9
   4   8  -2-12.9812 31.8213   9
  -5   8  -1 14.9016 23.1169  15
  -5   8  -2 146.538 50.8533  15
  -5   7   2 196.393 72.8066  15
  -5   7   1 72.0455 57.6461  15
  -5   7   0 118.667 51.1579  15
  -5   7  -1 101.550 56.1817  15
  -5   7  -2 67.4566 55.4231  15
  -5   7  -3 144.522 70.6998  15
  -5   7  -4 270.752 87.1873  15
  -5   7  -5-43.3283 37.9438  15
  -5   7  -6 95.2165 37.0759  15
  -5   6   6 217.914 57.8012   8
  -5   6   5 23.4586 32.5241   8
  -5   6   4 451.586 101.172   8
  -5   6   4 453.110 124.480  15
  -5   6   3 248.324 76.8558   8
  -5   6   3 140.100 64.9837  15
  -5   6   2 854.768 171.612  15
  -5   6   1 75.7349 68.9459  15
  -5   6   0 52.0004 73.6204  15
  -5   6   0 20.2074 49.2646   4
  -5   6  -1-44.9442 78.5469   4
  -5   6  -1 18.8120 49.1394  15
  -5   6  -2-54.6781 70.2788   4
  -5   6  -2 35.4126 54.9720  15
  -5   6  -3 47.0192 54.1989   4
  -5   6  -3 52.6513 65.1920  15
  -5   6  -4 122.095 77.8705   4
  -5   6  -4 267.775 109.380  15
  -5   6  -5 126.883 68.4280  15
  -5   6  -6-10.2929 40.0180  15
  -5   6  -7 587.864 95.1296  15
  -5   5   7-20.0731 45.8507   8
  -5   5   6 447.793 116.164   8
  -5   5   5-52.3797 81.5668   8
  -5   5   5 49.9505 71.1450   2
  -5   5   4 1251.48 202.197   8
  -5   5   4 1687.64 265.209  15
  -5   5   4 1387.49 233.707   2
  -5   5   3 2368.76 332.485   6
  -5   5   3 2026.74 296.158   2
  -5   5   3 2974.10 365.882  15
  -5   5   3 2745.17 302.809   8
  -5   5   2 129.156 97.5414   6
  -5   5   2 61.1839 71.3186  15
  -5   5   2 181.872 90.1072   4
  -5   5   1 1751.49 285.003   4
  -5   5   1 1791.39 301.850   6
  -5   5   1 2143.00 323.590  15
  -5   5   0 1374.22 273.348   4
  -5   5   0 1288.15 254.282  15
  -5   5  -1 1742.20 306.567   4
  -5   5  -1 2220.14 338.830  15
  -5   5  -2 300.686 113.874   4
  -5   5  -2 413.190 137.363  18
  -5   5  -2 288.187 124.389  15
  -5   5  -3 4808.41 478.696  18
  -5   5  -3 4665.55 486.855  15
  -5   5  -4-117.360 117.749  18
  -5   5  -5 2133.32 286.990  18
  -5   5  -6 142.718 93.2895  18
  -5   5  -7 156.700 62.9400  18
  -5   5  -8 259.244 64.6171  18
  -5   4   9 6.19568 28.3636   8
  -5   4   8 200.408 68.3309   8
  -5   4   8 536.980 137.876   5
  -5   4   7 941.170 196.816   2
  -5   4   7 872.359 197.672   5
  -5   4   6 395.699 140.514   3
  -5   4   6 467.163 167.612   2
  -5   4   6 514.444 188.245   5
  -5   4   5-43.1999 79.7116   3
  -5   4   5 74.3345 110.060   6
  -5   4   5 14.1056 64.8260  15
  -5   4   5 100.491 119.371   2
  -5   4   4 6117.99 585.852   3
  -5   4   4 5227.47 600.112   6
  -5   4   4 5091.06 522.066   2
  -5   4   3 2770.81 431.603   6
  -5   4   3 2091.45 384.042   4
  -5   4   2 8764.68 666.761  15
  -5   4   2 4891.03 569.455   4
  -5   4   1 1420.46 293.846   4
  -5   4   1 955.871 344.762   1
  -5   4   1 1883.73 306.448  15
  -5   4   0 270.527 167.069   4
  -5   4   0 504.771 257.807   1
  -5   4   0 404.106 174.735  15
  -5   4  -1 183.569 166.386   1
  -5   4  -1 226.638 148.169  18
  -5   4  -1 217.336 144.129  15
  -5   4  -2 2510.63 386.815  18
  -5   4  -3 1436.64 335.376  18
  -5   4  -4 1338.80 331.702  16
  -5   4  -4 1040.08 271.226  18
  -5   4  -5 354.101 175.923  18
  -5   4  -5 226.462 155.969  16
  -5   4  -6 206.897 130.500  18
  -5   4  -6 271.725 136.149  16
  -5   4  -7 103.532 79.5565  18
  -5   4  -8 61.1229 50.9225  18
  -5   4  -9-5.39633 25.9655  18
  -5   3   9 11.8036 56.9878  19
  -5   3   9 7.15892 70.3532   5
  -5   3   8 2845.25 394.914   2
  -5   3   8 2941.09 401.503   5
  -5   3   7 314.130 170.137   3
  -5   3   7 581.791 207.460   2
  -5   3   7 378.937 203.638   5
  -5   3   6 216.402 141.697   2
  -5   3   6 90.3742 111.643   3
  -5   3   6 105.621 152.672   6
  -5   3   5 196.324 114.882   6
  -5   3   5 230.468 129.102   3
  -5   3   4 658.791 237.481   6
  -5   3   4 649.314 313.064   1
  -5   3   3 1233.09 291.439   4
  -5   3   3 973.953 411.282   1
  -5   3   2 187.099 209.812   4
  -5   3   2 253.813 148.093  15
  -5   3   1 1905.97 356.685   4
  -5   3   1 2237.89 341.474  15
  -5   3   1 1348.47 474.165   1
  -5   3   0 3791.29 741.535   1
  -5   3   0 4535.81 559.787  18
  -5   3   0 5049.11 522.459  15
  -5   3  -1 7430.98 713.247  18
  -5   3  -1 7310.47 997.197   1
  -5   3  -2 1189.25 421.203   1
  -5   3  -2 1566.81 339.822  18
  -5   3  -3 5806.34 669.471  18
  -5   3  -3 7092.49 714.453  16
  -5   3  -3 5772.86 912.878   1
  -5   3  -4 128.221 137.733  18
  -5   3  -4 499.670 196.129  16
  -5   3  -5 856.062 230.141  16
  -5   3  -6 1056.47 254.050  16
  -5   3  -7 2024.88 299.115  18
  -5   3  -8-40.8364 60.2308  18
  -5   3  -9 1215.61 130.608  18
  -5   2  10 192.156 91.0313   5
  -5   2   9 1109.18 257.177   5
  -5   2   8 205.596 123.959   2
  -5   2   8 169.429 146.176   5
  -5   2   7 851.886 245.105   2
  -5   2   7 742.124 271.350   3
  -5   2   6 2310.99 422.456   3
  -5   2   6 1901.92 404.415   6
  -5   2   5 3028.13 479.150   6
  -5   2   5 2381.11 540.816   1
  -5   2   4 7321.02 983.236   1
  -5   2   4 8749.98 827.861   6
  -5   2   4 8320.02 736.681   4
  -5   2   3 1633.70 328.898   4
  -5   2   3 1384.11 429.057   1
   5  -2  -3 1813.03 428.966   7
  -5   2   2 1211.58 279.183   4
  -5   2   2 833.549 345.969   1
  -5   2   1 15703.0 1500.81   1
  -5   2   1 16426.2 1047.86  18
  -5   2   1 16700.8 1049.89   4
  -5   2   0 27.1360 118.808  18
  -5   2   0 68.6767 152.153   1
  -5   2  -1 1666.27 491.573   1
  -5   2  -1 1647.79 356.327  18
  -5   2  -2 8753.88 774.870  18
  -5   2  -2 7844.72 1068.74   1
  -5   2  -3 14678.6 1560.46   1
  -5   2  -3 12966.4 957.250  18
  -5   2  -3 15320.8 991.963  16
  -5   2  -4 3962.25 500.887  16
  -5   2  -5 5302.43 587.525  16
   5  -2   5 5052.16 666.044  14
  -5   2  -6 5514.02 530.864  16
   5  -2   6 4483.54 523.482  14
   5  -2   7-140.464 115.649  14
  -5   2  -8 2595.63 266.629  18
  -5   2  -9 1303.67 135.682  18
  -5   1  11 420.866 122.811  19
  -5   1  11 422.092 100.695   5
  -5   1  10 165.427 83.0222   5
  -5   1   9 542.732 145.126   2
  -5   1   9 745.368 240.608   5
  -5   1   8 3849.09 496.509   3
  -5   1   8 3899.80 467.309   2
  -5   1   7 546.998 191.459   2
  -5   1   7 428.191 194.524   3
   5  -1  -6 289.956 192.375  21
  -5   1   6 444.801 195.428   6
  -5   1   6 489.744 204.757   3
  -5   1   5 3079.25 583.888   1
  -5   1   5 4365.78 535.745   6
  -5   1   4 1125.46 273.435   4
  -5   1   4 938.932 336.462   1
   5  -1  -4 1512.92 400.885   7
   5  -1  -3 7295.61 853.203   7
  -5   1   3 7096.71 912.335   1
  -5   1   3 7796.80 662.547   4
  -5   1   2 35546.1 2085.72   1
  -5   1   1 9542.92 1105.43   1
  -5   1   0 10591.9 1221.27   1
  -5   1  -1 709.110 366.571   1
  -5   1  -1 764.768 215.751  18
  -5   1  -2 17678.5 1743.78   1
  -5   1  -2 16665.9 1045.23  18
   5  -1   3 658.029 308.729  14
  -5   1  -3 719.196 223.116  18
  -5   1  -3 972.179 493.356   1
  -5   1  -4 5113.99 1034.15   1
   5  -1   4 17271.2 1437.27  14
   5  -1   5 1580.15 432.773  14
   5  -1   6 35.4756 185.094  14
   5  -1   7 777.223 259.816  14
   5  -1   8 626.200 156.655  14
  -5   1  -8 312.388 92.4131  18
  -5   1  -9 154.454 48.8857  18
  -5   0  11 154.996 69.5054   5
  -5   0  10 618.569 160.941   5
  -5   0   9 5112.77 453.339   2
  -5   0   8 176.545 132.380   3
  -5   0   8 87.1215 68.0998   2
  -5   0   7 13172.9 919.632   3
  -5   0   6 7021.85 654.598   6
   5   0  -5 2748.96 618.278   7
  -5   0   5 2372.43 357.365   6
   5   0  -4 2967.82 573.410   7
  -5   0   4 2629.88 514.371   1
  -5   0   4 3079.24 440.794   4
  -5   0   3 17915.5 1306.69   1
  -5   0   2 7721.17 873.941   1
  -5   0   1 7121.48 878.840   1
  -5   0   0 8641.77 1056.31   1
  -5   0  -1 5963.01 970.828   1
  -5   0  -1 5920.81 574.413  18
   5   0   2 3639.40 638.890  14
  -5   0  -2 2874.07 767.661   1
   5   0   2 2718.95 525.958  20
  -5   0  -2 3849.49 456.209  18
   5   0   3 46.4062 182.039  14
  -5   0  -3-9.65614 245.223   1
   5   0   3 96.0217 250.744  20
  -5   0  -3-56.3665 90.6428  18
   5   0   4 3271.39 696.178  14
   5   0   4 2766.34 563.211  20
  -5   0  -4 2611.27 373.752  18
   5   0   5 2562.15 530.585  14
   5   0   6 994.930 297.331  14
   5   0   6 1272.02 335.331  20
  -5   0  -6 841.554 196.572  18
   5   0   7 380.675 192.586  14
   5   0   7 228.338 134.020  20
  -5   0  -7 118.643 64.7669  18
  -5   0  -8 2721.17 210.524  18
   5   0   8 2900.38 272.141  20
  -5  -1  11 793.898 143.298   5
  -5  -1  10 160.810 94.8901   5
   5   1  -9 3384.30 482.205  12
  -5  -1   8-226.081 158.915   3
   5   1  -8-59.7741 129.927  11
  -5  -1   7 9021.50 762.357   3
   5   1  -7 9756.15 855.509  11
   5   1  -6 381.831 182.002  11
   5   1  -5 7722.67 871.862   7
   5   1  -4 378.803 159.207   7
   5   1  -3 12774.1 1133.15   7
   5   1  -2 25430.5 1592.08   7
  -5  -1   1 340.627 202.942   1
   5   1  -1 681.374 389.160   7
   5   1   0 6671.52 767.167  20
  -5  -1   0 7125.49 875.492   1
  -5  -1  -1 18555.3 1479.90   1
   5   1   1 17709.3 1305.56  20
  -5  -1  -1 19231.0 988.628  18
   5   1   1 19661.9 1499.26  14
  -5  -1  -2 9143.38 1178.27   1
   5   1   2 8590.93 917.987  20
  -5  -1  -2 10070.3 665.067  18
   5   1   2 9797.66 1066.78  14
   5   1   3 761.094 300.163  14
   5   1   3 543.828 278.525  20
  -5  -1  -3-70.4015 134.278   1
   5   1   4 13073.2 1181.77  20
   5   1   4 16612.0 1352.22  14
   5   1   5 4478.91 629.438  14
   5   1   5 3601.47 575.153  20
   5   1   6 1257.95 353.084  14
   5   1   6 849.902 262.910  20
   5   1   7 4835.46 443.379  20
   5   1   7 5944.11 555.021  14
   5   1   8 3133.54 260.748  20
   5   1   8 3180.82 309.157  14
   5   2 -11 67.7673 90.8537  12
   5   2 -10 169.881 101.705  12
   5   2  -9 3730.08 483.576  12
  -5  -2   9 4895.46 488.405   5
   5   2  -8 199.109 171.148  11
   5   2  -7 7360.81 763.051  11
   5   2  -6 8990.58 899.420  11
   5   2  -5 321.644 248.612   7
   5   2  -4 939.593 283.265   7
   5   2  -4 872.094 240.157  10
   5   2  -3 50810.6 2169.98   7
   5   2  -3 49616.0 1977.14  10
   5   2  -2 32879.7 1785.30   7
   5   2  -2 31942.1 1652.42  10
   5   2  -1 17737.4 1377.35   7
   5   2   0 42707.0 2042.07  20
   5   2   1 7817.79 861.130  20
   5   2   2 400.480 179.164  14
   5   2   2 352.813 258.605  20
   5   2   3 12245.2 1089.15  20
   5   2   3 15232.1 1226.23  14
   5   2   4 6257.67 717.867  20
   5   2   4 7749.57 847.924  14
   5   2   5 966.017 291.265  14
   5   2   5 1301.56 319.415  20
   5   2   6 1847.80 343.301  14
   5   2   6 1855.88 315.365  20
   5   2   7 2050.24 285.165  14
   5   2   7 2225.74 278.390  20
   5   3 -11 461.924 107.233  12
   5   3 -10 1271.34 249.132  12
   5   3  -9 1774.72 337.595  12
   5   3  -8 2265.18 411.907  11
   5   3  -7 18865.8 1236.56  11
   5   3  -6 306.925 221.743  11
   5   3  -5 1333.54 370.251   7
   5   3  -4 4086.62 634.066   7
   5   3  -4 3899.71 552.322  10
   5   3  -3 14597.4 1146.88   7
   5   3  -3 14552.4 1115.24  10
   5   3  -2 1754.16 424.251   7
   5   3  -2 1084.83 330.685  10
   5   3  -1 11675.1 1085.49   7
   5   3  -1 11483.4 1020.71  10
   5   3   0 660.304 315.641   7
   5   3   0 470.404 280.006  20
   5   3   1 35.9028 161.812  20
   5   3   2-148.717 174.968  20
   5   3   3 779.612 305.544  14
   5   3   3 561.592 210.907  20
   5   3   4 1549.74 368.661  14
   5   3   4 1752.08 320.704  20
   5   3   5-70.0226 151.523  14
   5   3   5 51.3441 115.375  20
   5   3   6 1226.41 207.263  20
   5   3   7 362.178 113.245   7
   5   3   7 1049.72 147.281  20
   5   4 -11 167.643 64.5724  12
   5   4 -10 87.1381 81.5038  12
   5   4  -9 464.710 268.059  12
   5   4  -8 3228.73 428.149  11
   5   4  -7 4141.19 547.642  11
   5   4  -6 5712.05 707.888  11
   5   4  -5 541.224 251.046  11
   5   4  -4 1146.72 304.705   7
   5   4  -4 880.256 277.603  10
   5   4  -3 1175.55 295.810   7
   5   4  -3 1107.29 345.209  10
   5   4  -2 1745.52 371.290   7
   5   4  -2 2097.17 448.553  10
   5   4  -1 680.931 275.983   7
   5   4  -1 701.144 257.286  10
   5   4   0 4286.97 574.629   7
   5   4   1 2044.09 376.650   7
   5   4   1 1327.28 337.582  20
   5   4   2 43.2462 100.862   7
   5   4   2 177.665 189.160  20
   5   4   3 4809.71 560.233   7
   5   4   3 5075.57 547.873  20
   5   4   4 1082.00 247.422   7
   5   4   4 1387.22 256.368  20
   5   4   5 552.422 137.918  20
   5   5 -10 52.9076 74.1819  12
   5   5  -9 433.525 149.249  12
   5   5  -8 844.602 247.824  12
   5   5  -8 711.237 202.697  11
   5   5  -7 1026.59 263.397  11
   5   5  -7 931.556 171.890   9
   5   5  -6 75.2641 132.692  11
   5   5  -6 67.2214 114.328   9
   5   5  -5 170.943 151.105  11
   5   5  -5-2.33182 111.816   9
   5   5  -4 1024.19 297.040  11
   5   5  -3 2374.10 382.823  10
   5   5  -2-138.376 142.840  10
   5   5  -1 10550.2 836.218  10
   5   5   0 305.363 163.861  10
   5   5   1 1181.19 288.152  10
   5   5   2 1279.15 269.280  10
   5   5   3 746.516 183.174  10
   5   5   4 76.8173 64.4110  10
   5   6  -9 4.36252 42.6709  12
   5   6  -8 2662.82 265.957  12
   5   6  -7 2107.38 258.603  12
   5   6  -7 2211.96 281.874  11
   5   6  -7 1538.98 214.916   9
   5   6  -6 3059.20 349.749  11
   5   6  -6 2426.70 284.101   9
   5   6  -5 2504.82 336.656  11
   5   6  -5 2087.60 287.429   9
   5   6  -4-33.4451 82.5139  11
   5   6  -4 148.065 108.708   9
   5   6  -3 250.115 119.379  11
   5   6  -2 4224.35 415.948  11
   5   6  -2 3911.70 409.771  10
   5   6  -1 534.147 165.229  10
   5   6   0 529.688 144.996  10
   5   6   1 461.394 129.466  10
   5   6   2 325.126 86.4636  10
   5   7  -6 1739.31 185.355   9
   5   7  -5 59.6058 41.9363   9
   5   7  -4 214.397 89.5424   9
   5   7  -3-26.2882 56.3737   9
   5   7  -2 65.1940 55.8984   9
   5   7  -1 15.4362 48.7132   9
  -6   7   1-10.9973 20.8841  15
  -6   7   0 100.496 50.3781  15
  -6   7  -1-19.5077 27.2957  15
  -6   7  -2 192.966 56.1932  15
  -6   7  -3 73.3284 32.4421  15
  -6   6   3 65.2602 37.4865  15
  -6   6   2 21.3491 40.5746  15
  -6   6   1 49.5537 44.6611  15
  -6   6   0 16.4106 46.9709  15
  -6   6  -1 775.109 132.937  15
  -6   6  -1 719.728 133.599   4
  -6   6  -2 190.016 72.6936   4
  -6   6  -2 108.480 53.5190  15
  -6   6  -3 409.734 92.6247   4
  -6   6  -3 414.937 108.683  15
  -6   6  -4 167.318 73.4410  15
  -6   6  -5-22.6821 24.1106  15
  -6   5   5 96.1265 70.7066   2
  -6   5   4 264.134 82.5538  15
  -6   5   4 187.700 61.6775   2
  -6   5   3 583.486 158.832   6
  -6   5   3 935.684 166.455  15
  -6   5   3 678.735 141.767   2
  -6   5   2 723.091 173.685   6
  -6   5   2 721.565 140.536  15
  -6   5   1-169.756 98.2984   4
  -6   5   1 134.164 108.231   6
  -6   5   1-38.3712 75.2704  15
  -6   5   0 244.586 95.5650   4
  -6   5   0 166.865 106.555   6
  -6   5   0 170.842 74.2770  15
  -6   5  -1 257.630 102.467   4
  -6   5  -1 272.883 109.771  15
  -6   5  -2 204.696 87.6227   4
  -6   5  -2 96.3095 77.6097  15
  -6   5  -3-19.9577 67.1333   4
  -6   5  -3 31.7003 70.8919  15
  -6   5  -4 119.269 62.0800   4
  -6   5  -4 233.581 103.847  15
  -6   5  -5 292.318 100.961   4
  -6   5  -5 290.515 81.6760  18
  -6   5  -5 180.552 75.0790  15
  -6   5  -6 38.2065 34.6718   4
  -6   5  -6 28.7254 32.7604  15
  -6   4   7 1027.98 179.256   2
  -6   4   6 780.313 181.288   2
  -6   4   6 850.952 181.077   5
  -6   4   5 258.348 98.1825   3
  -6   4   5 321.543 154.144   6
  -6   4   5 231.557 117.509   2
  -6   4   4 6.58323 56.1148   2
  -6   4   4 65.1367 50.8643   3
  -6   4   4-31.2273 92.2020   6
  -6   4   3 544.017 194.825   6
  -6   4   3 522.409 161.933   3
  -6   4   2 2883.42 405.163   6
  -6   4   2 4084.67 373.779  15
  -6   4   2 2855.69 401.133   4
  -6   4   1 65.5844 90.3865   4
  -6   4   1-25.7106 76.4215  15
  -6   4   0 1272.86 267.996   4
  -6   4   0 1570.54 268.303  15
  -6   4  -1 20.5936 69.2523   4
  -6   4  -1-119.820 113.826  15
  -6   4  -2 179.493 131.426   4
  -6   4  -2 286.659 151.929  18
  -6   4  -2 15.7239 67.8737  15
  -6   4  -3-52.0396 115.610  18
  -6   4  -3-10.9692 97.7645  15
  -6   4  -4 202.569 123.880  18
  -6   4  -5 187.073 83.5862  18
  -6   4  -6 28.3161 55.8596  18
  -6   4  -7 236.023 63.4541  18
  -6   4  -7 154.974 42.8985  15
  -6   3   9 241.313 80.2322   5
  -6   3   8 17.8774 74.4165   2
  -6   3   8 72.0744 69.3071   5
  -6   3   7 182.685 116.352   3
  -6   3   7 30.1315 58.5836   2
  -6   3   7 61.8452 72.9395   5
  -6   3   6 143.271 67.8597   2
  -6   3   6 167.977 127.611   3
  -6   3   6 43.0051 96.8394   6
  -6   3   5 659.628 202.258   3
  -6   3   5 424.681 186.084   6
  -6   3   4 543.034 223.368   6
  -6   3   3 348.096 159.195   4
  -6   3   3 569.845 214.464   6
  -6   3   2 5101.05 563.841   4
  -6   3   1 75.1424 121.566   4
  -6   3   0 848.365 233.484   4
  -6   3  -1 383.842 168.072  18
  -6   3  -2 2538.24 399.573  18
  -6   3  -2 2597.00 330.507  15
  -6   3  -3 346.151 161.031  18
  -6   3  -4 1417.62 277.062  18
  -6   3  -5 1746.16 285.388  18
  -6   3  -6 209.070 84.9528  18
  -6   3  -7 361.591 83.6722  18
  -6   3  -8 650.280 82.5324  18
  -6   2  10-31.8805 36.7985  19
  -6   2  10 90.4575 65.6867   5
  -6   2   9 1137.57 226.544   5
  -6   2   8 1558.62 264.839   2
  -6   2   7 470.201 185.599   2
  -6   2   7 553.810 201.600   3
  -6   2   6 1534.36 348.612   3
  -6   2   6 1881.34 344.918   6
  -6   2   5 695.605 217.804   6
  -6   2   4 3114.42 497.857   6
  -6   2   4 3166.79 431.547   4
  -6   2   3 1478.52 309.239   4
   6  -2  -2 10920.0 938.964   7
  -6   2   2 12647.9 1285.33   1
  -6   2   2 12528.8 871.251   4
  -6   2   1 465.342 171.738   4
   6  -2  -1 377.025 180.265   7
  -6   2   1 596.256 275.468   1
  -6   2   0 588.502 209.671   4
  -6   2   0 287.788 90.1140  18
  -6   2   0 737.265 277.734   1
  -6   2  -1 13999.1 942.587  18
  -6   2  -2 2749.19 417.690  18
   6  -2   3 2460.09 434.032   7
  -6   2  -3 2454.39 378.284  18
   6  -2   4 5389.59 632.397   7
  -6   2  -4 6756.95 588.845  18
  -6   2  -5 123.513 100.160  18
  -6   2  -6 1101.25 182.001  18
  -6   2  -7 184.803 65.2895  18
  -6   2  -8 96.6344 35.9994  18
  -6   1  10 264.255 99.4763   5
  -6   1   9 1588.71 213.720   2
  -6   1   9 1730.33 275.565   5
  -6   1   8-67.2665 113.417   3
  -6   1   8-14.6669 65.0844   2
  -6   1   7 1620.68 291.336   2
  -6   1   7 1487.64 305.172   3
  -6   1   6 268.383 153.463   6
  -6   1   6 381.356 163.006   3
  -6   1   5 465.852 168.149   6
   6  -1  -4 273.466 225.848   7
  -6   1   4 273.181 128.115   4
  -6   1   4 319.424 196.643   1
   6  -1  -3 4908.49 687.963   7
  -6   1   3 5244.32 751.322   1
  -6   1   3 6110.74 569.316   4
   6  -1  -2 1846.58 407.175   7
  -6   1   2 2790.84 593.362   1
  -6   1   2 2810.99 376.617   4
   6  -1  -1 1912.88 425.176   7
  -6   1   1 2728.11 588.188   1
  -6   1   1 3009.74 403.743   4
   6  -1   0 10192.8 1008.84   7
  -6   1   0 13300.2 861.309  18
  -6   1   0 12036.6 1219.34   1
  -6   1  -1 952.495 412.664   1
   6  -1   1 743.483 252.987   7
  -6   1  -1 852.806 229.294  18
   6  -1   2 646.918 376.615   7
  -6   1  -2 355.701 158.505  18
   6  -1   3 903.001 358.822   7
  -6   1  -3 627.095 185.848  18
  -6   1  -4 986.873 226.410  18
  -6   1  -5-15.7734 86.7962  18
  -6   1  -6 130.776 78.4978  18
   6  -1   7 99.3975 77.2557   7
  -6   1  -7 180.547 63.4573  18
  -6   0  10 346.898 91.0528   5
  -6   0   9 906.432 155.771   2
  -6   0   8 1105.27 229.537   3
  -6   0   8 1003.88 193.528   2
  -6   0   7 1733.29 312.066   3
  -6   0   6 249.478 110.461   6
  -6   0   5 1803.13 316.742   6
   6   0  -4 63.9564 164.844   7
  -6   0   3 108.930 82.2168   4
   6   0  -3 36.7771 128.251   7
  -6   0   2 158.485 113.834   4
   6   0  -2 469.535 290.609   7
  -6   0   1 1301.20 258.119   4
   6   0  -1 1366.38 412.149   7
  -6   0   1 1256.86 358.676   1
   6   0   0 552.515 319.643   7
  -6   0   0 586.374 189.204  18
  -6   0   0 322.264 211.745   1
  -6   0  -1-8.23746 135.235   1
   6   0   1 116.832 148.882   7
  -6   0  -1 215.509 133.295  18
   6   0   2 3269.94 658.480   7
   6   0   2 3601.92 625.209  20
  -6   0  -2 3378.43 387.608  18
   6   0   3 637.732 292.312  20
  -6   0  -3 513.325 168.808  18
   6   0   4 6046.98 679.142  20
  -6   0  -4 4378.18 407.570  18
   6   0   5 121.482 179.840  20
  -6   0  -5 600.315 144.914  18
   6   0   6 1291.39 218.188  20
  -6   0  -6 814.800 130.798  18
   6   0   7 280.108 136.101   7
  -6  -1  10 248.049 93.3156   5
   6   1  -9-12.2000 77.7267  12
  -6  -1   8 1.43145 77.9418   3
   6   1  -7 2082.97 345.276  11
  -6  -1   7 1823.98 309.074   3
   6   1  -6 1186.59 338.310  11
  -6  -1   6 1432.15 286.066   3
   6   1  -5 8.85980 140.831   7
   6   1  -5 438.561 248.591  11
   6   1  -4 25300.6 1573.97   7
   6   1  -3 4786.02 727.253   7
   6   1  -2-103.455 156.387   7
   6   1  -1 9839.90 1021.48   7
   6   1   0 5551.86 779.724   7
   6   1   1 347.266 237.021   7
   6   1   1-98.8572 270.499  20
   6   1   2 1618.37 366.595  20
  -6  -1  -2 1245.15 214.170  18
   6   1   3 8970.71 858.717  20
   6   1   4 828.843 226.669  20
   6   1   5 992.538 250.412  20
   6   1   6 1963.77 268.015  20
   6   1   7 216.311 88.8759   7
   6   2 -10-15.9480 64.2183  12
   6   2  -9 1772.31 281.403  12
   6   2  -8 3224.01 436.055  11
   6   2  -7 8903.93 774.810  11
   6   2  -6 368.519 166.905  11
   6   2  -5 4489.74 665.951   7
   6   2  -4 6870.46 822.458   7
   6   2  -3 28506.2 1565.62   7
   6   2  -3 29875.7 1386.47  10
   6   2  -2 5266.47 726.241   7
   6   2  -2 4888.63 627.445  10
   6   2  -1 14149.8 1173.18   7
   6   2  -1 12115.1 1007.01  10
   6   2   0 994.881 341.549   7
   6   2   0 737.874 318.523  10
   6   2   1 2297.93 463.590   7
   6   2   1 2713.18 518.166  20
   6   2   2 2759.72 519.182   7
   6   2   2 2615.20 481.207  20
   6   2   3 372.930 136.267  20
   6   2   4 47.4621 123.332  20
   6   2   5 1936.47 306.448  20
   6   2   6 168.250 102.694   7
   6   3 -10 158.942 108.550  12
   6   3  -9 698.919 192.242  12
   6   3  -8 5103.14 489.649  11
   6   3  -7 125.182 124.100  11
   6   3  -6 9109.46 811.993  11
   6   3  -5 2519.77 510.182   7
   6   3  -5 2311.65 470.941  11
   6   3  -4 153.350 183.588   7
   6   3  -3 247.562 180.752   7
   6   3  -3-101.637 163.229  10
   6   3  -2 4767.83 615.040   7
   6   3  -2 4965.21 611.972  10
   6   3  -1 6388.48 705.364   7
   6   3  -1 5973.11 696.016  10
   6   3   0-134.517 148.823   7
   6   3   0 265.759 195.652  10
   6   3   1 1153.79 314.511   7
   6   3   2 338.947 196.440   7
   6   3   3 779.569 253.598   7
   6   3   3 604.076 182.338  20
   6   3   4-68.8957 75.0330   7
   6   3   4 291.826 135.166  20
   6   3   5 297.623 105.921   7
   6   4 -10 498.607 118.864  12
   6   4  -9-26.3104 69.9164  12
   6   4  -8 423.718 201.745  11
   6   4  -7 94.8544 87.6615  11
   6   4  -6 166.695 110.738  11
   6   4  -5 836.463 285.299  11
   6   4  -4-33.3054 112.452   7
   6   4  -3 929.410 281.354   7
   6   4  -3 1040.27 270.236  10
   6   4  -2 1903.02 350.121   7
   6   4  -2 2087.39 370.376  10
   6   4  -1 4812.27 556.698   7
   6   4  -1 5296.47 552.687  10
   6   4   0-111.659 98.7466   7
   6   4   0 26.4060 112.704  10
   6   4   1 294.242 138.284   7
   6   4   1 290.952 152.483  10
   6   4   2 1111.04 226.212   7
   6   4   2 1243.00 249.588  10
   6   4   3 759.020 159.174   7
   6   4   3 817.864 199.318  10
   6   4   4 184.163 73.9366  10
   6   5  -9 120.962 73.2911  12
   6   5  -8 1410.08 223.025  12
   6   5  -8 1246.36 195.776  11
   6   5  -7 734.554 199.588  11
   6   5  -6 2773.64 359.873  11
   6   5  -6 2683.05 259.829   9
   6   5  -5 408.681 167.726  11
   6   5  -5 642.285 160.622   9
   6   5  -4-0.63518 85.9847  11
   6   5  -3 232.304 121.073  11
   6   5  -2 2479.86 329.932  10
   6   5  -1 1160.47 215.098  10
   6   5   0 171.944 89.2144  10
   6   5   1 1982.89 258.939  10
   6   5   2 444.599 103.217  10
   6   5   3 8.71862 27.5118  10
   6   6  -6 1010.24 172.467  11
   6   6  -6 1262.80 141.683   9
   6   6  -5 51.3902 67.6066  11
   6   6  -5 89.0247 44.7489   9
   6   6  -4 569.490 137.475  11
   6   6  -4 407.747 97.5111   9
   6   6  -3 46.4605 65.4613   9
   6   6  -2 39.6549 63.5568   9
  -7   5   3-4.05786 30.6018   6
  -7   5   2 432.392 113.490   6
  -7   5   1 177.950 74.7635   6
  -7   5   0 70.6449 53.6093   6
  -7   5   0-32.2437 45.3558   4
  -7   5  -1-47.0608 55.2599   4
  -7   5  -1-6.96600 50.5900   6
  -7   5  -2 108.205 60.1308   4
  -7   5  -2 26.1727 53.3950   6
  -7   5  -2-17.9900 26.3621  15
  -7   5  -3 11.0311 32.1169   4
  -7   5  -4 81.9071 46.7269   4
  -7   4   6 18.9496 43.4162   2
  -7   4   5 574.467 121.508   3
  -7   4   5 575.544 129.610   2
  -7   4   4 67.6672 56.4263   2
  -7   4   4 95.2437 65.2605   3
  -7   4   4 71.9606 79.7761   6
  -7   4   3 57.4751 61.5736   3
  -7   4   3 45.9068 72.5215   6
  -7   4   2 258.527 117.714   6
  -7   4   2 354.870 118.086   4
  -7   4   1 239.338 100.413   4
  -7   4   1 395.196 135.478   6
  -7   4   0 120.381 93.3012   4
  -7   4  -1 68.1584 65.7548   4
  -7   4  -2 52.9836 93.6478   4
  -7   4  -3 85.1681 77.1200   4
  -7   4  -4 16.7915 36.4080   4
  -7   4  -5 127.185 49.3890   4
  -7   3   7 672.748 136.413   2
  -7   3   7 772.654 145.514   5
  -7   3   6 470.766 128.402   3
  -7   3   6 443.644 128.898   2
  -7   3   5 517.085 161.276   3
  -7   3   5 504.405 152.866   6
  -7   3   4-41.5949 61.6302   6
  -7   3   4 147.057 99.0501   3
  -7   3   3 190.122 126.449   6
  -7   3   3 222.279 127.321   4
  -7   3   2 172.751 108.756   4
  -7   3   1 146.861 63.3040   4
  -7   3   0 1068.50 230.286   4
  -7   3  -1 309.076 150.986   4
  -7   3  -2-75.4109 74.5900   4
  -7   3  -3 133.480 79.9458   4
  -7   3  -3 144.203 74.7486  18
  -7   3  -4 512.430 129.026   4
  -7   3  -4 531.227 130.942  18
  -7   3  -5 57.8170 53.1227   4
  -7   3  -5-54.3284 50.1695  18
  -7   3  -6-27.1664 22.8002   4
  -7   2   8-4.61155 49.8704   2
  -7   2   8-11.4900 57.7702   5
  -7   2   7 688.173 163.910   3
  -7   2   7 590.317 142.758   2
  -7   2   6 298.121 132.499   3
  -7   2   6 272.001 112.034   6
  -7   2   5 5.39615 58.1206   6
  -7   2   5 306.163 140.196   3
  -7   2   4 1713.61 307.980   6
  -7   2   3 2034.48 306.965   4
  -7   2   2 200.627 117.135   4
   7  -2  -2 102.099 102.507   7
   7  -2  -1 6706.49 677.599   7
  -7   2   1 8165.99 629.720   4
  -7   2   0 914.841 226.410   4
   7  -2   0 548.009 196.071   7
  -7   2  -1 1418.81 253.178   4
  -7   2  -2-18.6818 69.2612   4
  -7   2  -2 77.7328 64.5369  18
  -7   2  -3 981.646 192.062  18
  -7   2  -4 54.7770 56.7513  18
  -7   2  -5 353.723 100.463  18
  -7   2  -6 104.118 50.3993   4
  -7   1   9 36.6098 59.3006   5
  -7   1   8 958.976 172.204   3
  -7   1   8 1064.27 161.849   2
  -7   1   7 3037.97 345.088   3
  -7   1   7 2793.27 300.857   2
  -7   1   6-4.62431 55.7331   6
  -7   1   6 78.2257 80.4143   3
  -7   1   5 3431.38 374.501   6
  -7   1   4 622.350 195.050   6
   7  -1  -3 319.356 241.004   7
  -7   1   3 444.798 145.230   4
  -7   1   2 465.706 133.267   4
   7  -1  -2 505.893 241.088   7
   7  -1  -1 1452.96 362.786   7
  -7   1   1 1928.75 287.802   4
  -7   1   0 107.344 73.2665   4
   7  -1   0 22.2131 208.247   7
  -7   1  -1 45.7750 60.6903   4
   7  -1   1 229.562 183.497   7
  -7   1  -2 395.200 135.470   4
  -7   1  -2 371.406 124.917  18
   7  -1   3 129.688 120.885   7
  -7   1  -3 365.306 109.799  18
   7  -1   4 88.2203 155.646   7
  -7   1  -4 85.0853 57.6206  18
   7  -1   5 218.771 124.102   7
  -7   1  -5 235.358 70.4947  18
  -7   0   9-12.7442 55.1623   5
  -7   0   8 435.951 113.562   3
  -7   0   8 310.540 90.5331   2
  -7   0   7 248.527 104.162   2
  -7   0   7 372.884 120.187   3
  -7   0   6 930.094 180.236   6
  -7   0   6 756.958 183.966   3
  -7   0   5 231.962 113.868   6
   7   0  -4 252.030 181.390   7
  -7   0   4-79.3916 88.0146   6
   7   0  -3 1105.82 349.395   7
  -7   0   3 1251.68 216.764   4
  -7   0   2 219.906 82.4857   4
   7   0  -2-113.557 149.414   7
   7   0  -1 1616.93 394.611   7
  -7   0   1 1724.92 242.440   4
   7   0   0 584.138 243.305   7
   7   0   1 224.332 218.200   7
   7   0   2 848.059 285.500   7
   7   0   3 719.588 273.272   7
   7   0   4 288.432 166.244   7
   7   0   5 273.778 126.643   7
  -7  -1   9-7.57379 43.9666   5
  -7  -1   8 1013.35 162.521   3
  -7  -1   7 357.135 106.351   2
  -7  -1   7 487.688 130.203   3
   7   1  -6 278.843 170.055  11
  -7  -1   6 144.348 78.7748   3
   7   1  -5 768.821 235.939  11
   7   1  -4 148.204 165.225   7
   7   1  -3 7065.26 756.330   7
   7   1  -2 334.850 131.300   7
   7   1  -1 3915.60 626.564   7
   7   1   0 458.279 291.167   7
   7   1   1 1585.94 417.100   7
   7   1   2 801.648 351.755   7
   7   1   3 683.249 277.667   7
   7   1   4 265.718 135.286   7
   7   1   5 863.473 186.856   7
   7   2  -9 126.564 86.3018  12
   7   2  -8 472.748 118.678  11
   7   2  -7 203.089 113.088  11
   7   2  -6 2528.74 388.345  11
   7   2  -5 384.864 186.184  11
   7   2  -4 142.434 158.207   7
   7   2  -3 535.716 192.535   7
   7   2  -2 8935.24 817.887   7
   7   2  -2 10251.4 678.647  10
   7   2  -1-216.439 187.738   7
   7   2  -1 225.190 169.196  10
   7   2   0 1608.82 397.844   7
   7   2   0 2268.22 391.259  10
   7   2   1 564.383 205.013   7
   7   2   1 801.750 222.360  10
   7   2   2 170.037 162.510   7
   7   2   2 8.70013 103.248  10
   7   2   3 222.046 112.987   7
   7   2   3 66.9003 70.6798  10
   7   2   4 158.156 94.0026   7
   7   2   4 237.599 89.2497  10
   7   3  -9-7.27766 49.9676  12
   7   3  -8 193.957 81.7734  11
   7   3  -7 150.607 106.588  11
   7   3  -6 2286.82 348.328  11
   7   3  -5 155.493 112.476  11
   7   3  -4 1271.70 306.124   7
   7   3  -3 233.247 154.851   7
   7   3  -2 139.424 160.326   7
   7   3  -2 247.326 147.260  10
   7   3  -1 2750.67 377.846   7
   7   3  -1 2353.28 315.641  10
   7   3   0 59.5153 108.533   7
   7   3   0-1.63926 79.8122  10
   7   3   1 302.976 126.639   7
   7   3   1 220.453 135.082  10
   7   3   2-14.7730 61.1503   7
   7   3   2 44.1591 58.1901  10
   7   3   3 22.6933 57.7357   7
   7   3   3 24.7675 42.2405  10
   7   4  -8 57.1864 53.3639  12
   7   4  -8 120.322 66.8356  11
   7   4  -7 74.9416 62.3247  11
   7   4  -6 304.206 129.484  11
   7   4  -5 16.1812 89.0892  11
   7   4  -4 159.930 111.804  11
   7   4  -3 163.427 107.035   7
   7   4  -2 712.773 184.498   7
   7   4  -1 254.260 122.166   7
   7   4  -1 477.737 136.758  10
   7   4   0 1656.89 233.457   7
   7   4   0 1748.72 228.982  10
   7   4   1 1000.31 161.404   7
   7   4   1 1286.05 179.675  10
   7   4   2-31.4057 40.3410  10
   7   5  -7 66.1676 50.0768  12
   7   5  -7 228.474 62.5319  11
   7   5  -6 1308.43 167.687  11
   7   5  -5-75.5176 51.1806  11
   7   5  -4 1010.17 182.373  11
   7   5  -4 603.148 102.108   9
   7   5  -3 600.535 145.377  11
   7   5  -3 408.555 106.561   9
   7   5  -2 123.582 63.4236  11
   7   5  -1 428.153 107.083  11
  -8   4   3 14.9546 41.1672   6
  -8   4   3 81.2405 45.7919   2
  -8   4   2 14.6321 37.7318   6
  -8   4   1 70.1278 52.4956   6
  -8   4   0 32.7566 42.4852   6
  -8   4   0 18.2907 35.5767   4
  -8   4  -1 83.9828 46.8519   4
  -8   4  -1 95.8139 60.4538   6
  -8   4  -2 6.39707 22.2277   4
  -8   4  -2-20.0012 28.4773   6
  -8   3   6-14.7079 37.9537   2
  -8   3   5 44.0862 47.7599   3
  -8   3   5 18.3262 47.6762   2
  -8   3   4 77.4330 39.0197   3
  -8   3   4 148.185 73.7979   6
  -8   3   3 5.52701 50.6338   6
  -8   3   3-22.3823 49.8911   3
  -8   3   2 68.8268 81.3255   6
  -8   3   1 118.830 68.7834   6
  -8   3   1-30.6979 41.4938   4
  -8   3   0-30.3787 47.2151   4
  -8   3  -1 152.298 69.2516   4
  -8   3  -2 81.2187 57.5357   4
  -8   3  -3 112.204 50.2471   4
  -8   2   7 112.410 56.2939   2
  -8   2   7-41.0758 47.0602   5
  -8   2   6 580.218 113.232   3
  -8   2   6 399.432 90.4044   2
  -8   2   5 264.264 109.903   3
  -8   2   5 315.971 85.3911   6
  -8   2   4 25.3097 46.4669   6
  -8   2   4 2.78251 55.5508   3
  -8   2   3-26.2609 52.6907   6
  -8   2   2 317.632 119.547   6
  -8   2   2 168.778 64.5969   4
  -8   2   1 312.090 100.229   4
  -8   2   0-43.3310 60.2388   4
  -8   2  -1 851.175 143.851   4
  -8   2  -2 64.0553 45.9104   4
  -8   2  -3 4.01729 22.0276   4
  -8   1   7 88.8751 54.8557   3
  -8   1   7 2.73882 35.2267   2
  -8   1   6 450.279 110.835   2
  -8   1   6 513.514 119.869   3
  -8   1   5 267.580 96.4828   6
  -8   1   5 200.723 94.1704   3
  -8   1   4 256.328 95.9576   6
  -8   1   3 374.530 111.361   6
   8  -1  -2 174.383 126.818   7
  -8   1   1 73.0387 58.3427   4
   8  -1  -1-62.1571 125.837   7
  -8   1   0 620.012 115.707   4
   8  -1   0 483.529 172.403   7
  -8   1  -1 64.6297 38.6081   4
   8  -1   1-28.6378 75.1072   7
  -8   1  -2 119.917 54.6875   4
   8  -1   2 71.8307 100.621   7
   8  -1   3-12.4036 50.9756   7
  -8   0   8-44.7918 38.4135   5
  -8   0   7 2.11628 45.0834   3
  -8   0   7-25.5325 28.1860   2
  -8   0   6 792.123 139.924   3
  -8   0   5 216.475 97.9369   3
  -8   0   4 38.3862 47.0951   6
   8   0  -3 932.552 250.870   7
  -8   0   3 13.5444 44.3083   6
   8   0  -2 401.818 242.706   7
   8   0  -1 661.093 254.089   7
   8   0   0-16.1931 90.8828   7
   8   0   1 462.613 163.125   7
   8   0   2 89.7116 93.2256   7
   8   0   3 159.534 90.2216   7
  -8  -1   6 901.252 144.858   3
  -8  -1   5 407.595 109.209   3
   8   1  -4-39.4818 73.5479  11
   8   1  -3 788.738 243.396   7
   8   1  -2 631.380 192.643   7
   8   1  -1 166.602 119.130   7
   8   1   0 552.837 231.066   7
   8   1   1 468.640 184.518   7
   8   1   2-10.6355 65.7109   7
   8   1   3 198.694 84.1714   7
   8   2  -6 615.036 136.350  11
   8   2  -5 264.265 109.098  11
   8   2  -4 258.685 127.233  11
   8   2  -3-25.1233 98.2046   7
   8   2  -2-107.344 108.460   7
   8   2  -1 526.544 152.100   7
   8   2   0 361.691 140.584   7
   8   2   1 95.0535 91.1914   7
   8   2   2-37.9176 41.8980   7
   8   3  -6 2.47627 43.2965  11
   8   3  -5-17.0162 53.2366  11
   8   3  -4-111.968 89.2072  11
   8   3  -3 8.40810 60.4069   7
   8   3  -3 74.5112 73.4334  11
   8   3  -2 143.883 75.3585   7
   8   3  -1 70.7756 74.1243   7
   8   3   0 506.079 101.804   7
   8   4  -5 157.520 48.9376  11
   8   4  -4 228.759 74.1531  11
   8   4  -3 113.597 55.9691  11
   8   4  -2 26.5116 37.5481  11
  -9   2   2 67.4708 37.7199   3
  -9   1   3-25.4667 37.4714   3
   0   0   0    0.00    0.00   0

TITL a20180055_FSH293 in P-1
REM P-1 (#2 in standard setting)
CELL 1.54184   7.314533   7.505995  10.489095 103.0601 100.4833  92.3900
ZERR    2.00   0.001220   0.000772   0.001267   0.0095   0.0121   0.0108
LATT  1
SFAC C H N O Fe
UNIT 24.00 36.00 8.00 4.00 4.00
TREF
HKLF 4
END
;
_shelx_hkl_checksum              62927
loop_
_space_group_symop_operation_xyz
'x, y, z'
'-x, -y, -z'
loop_
_atom_site_label
_atom_site_type_symbol
_atom_site_fract_x
_atom_site_fract_y
_atom_site_fract_z
_atom_site_U_iso_or_equiv
_atom_site_adp_type
_atom_site_occupancy
_atom_site_site_symmetry_order
_atom_site_calc_flag
_atom_site_refinement_flags_posn
_atom_site_refinement_flags_adp
_atom_site_refinement_flags_occupancy
Fe1 Fe 0.83193(18) 0.43590(18) 0.85445(10) 0.0887(5) Uani 1 1 d . . .
Cl1 Cl 0.7413(3) 0.1394(3) 0.81232(19) 0.0943(6) Uani 1 1 d . . .
Cl2 Cl 0.9491(4) 0.4745(3) 0.6816(2) 0.1058(7) Uani 1 1 d . . .
Cl3 Cl 0.5896(6) 0.6001(5) 0.8626(6) 0.182(2) Uani 1 1 d . . .
O1 O 1.037(3) 0.465(3) 0.9911(18) 0.106(5) Uani 0.5 1 d . . P
N3 N 0.7649(8) -0.0027(8) 0.2461(6) 0.0773(14) Uani 1 1 d . . .
C4 C 0.7922(14) 0.1248(12) 0.3653(9) 0.094(2) Uani 1 1 d . . .
H4 H 0.8272 0.2495 0.3802 0.113 Uiso 1 1 calc R U .
C5 C 0.7585(14) 0.0343(13) 0.4562(8) 0.095(2) Uani 1 1 d . . .
H5 H 0.7657 0.0851 0.5466 0.114 Uiso 1 1 calc R U .
N1 N 0.7121(9) -0.1438(10) 0.3934(7) 0.0857(16) Uani 1 1 d . . .
C2 C 0.7173(11) -0.1628(11) 0.2661(8) 0.0837(18) Uani 1 1 d . . .
H2 H 0.6913 -0.2723 0.2010 0.100 Uiso 1 1 calc R U .
C6 C 0.6587(17) -0.2888(17) 0.4569(12) 0.117(3) Uani 1 1 d . . .
H6A H 0.6670 -0.2380 0.5505 0.175 Uiso 1 1 calc R U .
H6B H 0.5330 -0.3383 0.4169 0.175 Uiso 1 1 calc R U .
H6C H 0.7412 -0.3845 0.4448 0.175 Uiso 1 1 calc R U .
C7 C 0.7814(15) 0.0345(14) 0.1177(9) 0.102(2) Uani 1 1 d . . .
H7A H 0.8182 0.1624 0.1298 0.152 Uiso 1 1 calc R U .
H7B H 0.8735 -0.0376 0.0817 0.152 Uiso 1 1 calc R U .
H7C H 0.6634 0.0031 0.0572 0.152 Uiso 1 1 calc R U .
loop_
_atom_site_aniso_label
_atom_site_aniso_U_11
_atom_site_aniso_U_22
_atom_site_aniso_U_33
_atom_site_aniso_U_23
_atom_site_aniso_U_13
_atom_site_aniso_U_12
Fe1 0.1041(9) 0.1060(9) 0.0452(6) 0.0134(5) -0.0003(5) -0.0233(6)
Cl1 0.1123(14) 0.1003(12) 0.0703(11) 0.0321(9) 0.0070(9) -0.0089(9)
Cl2 0.1354(18) 0.1065(14) 0.0908(14) 0.0434(11) 0.0380(12) 0.0028(12)
Cl3 0.163(3) 0.114(2) 0.250(5) -0.037(3) 0.092(3) 0.0026(19)
O1 0.118(15) 0.123(15) 0.061(7) 0.019(8) -0.017(8) 0.004(8)
N3 0.083(3) 0.088(3) 0.063(3) 0.021(3) 0.015(3) 0.010(3)
C4 0.119(6) 0.083(4) 0.077(5) 0.014(3) 0.015(4) 0.002(4)
C5 0.117(6) 0.103(5) 0.060(4) 0.009(4) 0.016(4) 0.009(4)
N1 0.089(4) 0.101(4) 0.074(4) 0.034(3) 0.014(3) 0.016(3)
C2 0.094(5) 0.086(4) 0.067(4) 0.015(3) 0.008(3) 0.013(3)
C6 0.133(8) 0.130(7) 0.112(8) 0.067(7) 0.040(6) 0.025(6)
C7 0.125(7) 0.114(6) 0.067(5) 0.031(4) 0.010(4) 0.011(5)
loop_
_atom_type_symbol
_atom_type_description
_atom_type_scat_dispersion_real
_atom_type_scat_dispersion_imag
_atom_type_scat_source
C C 0.0181 0.0091 'International Tables Vol C Tables 4.2.6.8 and 6.1.1.4'
H H 0.0000 0.0000 'International Tables Vol C Tables 4.2.6.8 and 6.1.1.4'
N N 0.0311 0.0180 'International Tables Vol C Tables 4.2.6.8 and 6.1.1.4'
O O 0.0492 0.0322 'International Tables Vol C Tables 4.2.6.8 and 6.1.1.4'
Fe Fe -1.1336 3.1974 'International Tables Vol C Tables 4.2.6.8 and 6.1.1.4'
Cl Cl 0.3639 0.7018 'International Tables Vol C Tables 4.2.6.8 and 6.1.1.4'
loop_
_geom_angle_atom_site_label_1
_geom_angle_atom_site_label_2
_geom_angle_atom_site_label_3
_geom_angle
_geom_angle_site_symmetry_1
_geom_angle_site_symmetry_3
O1 Fe1 O1 25.5(8) 2_767 .
O1 Fe1 Cl3 99.0(4) 2_767 .
O1 Fe1 Cl3 124.5(5) . .
O1 Fe1 Cl2 116.3(8) 2_767 .
O1 Fe1 Cl2 104.3(7) . .
Cl3 Fe1 Cl2 107.21(17) . .
O1 Fe1 Cl1 117.4(7) 2_767 .
O1 Fe1 Cl1 103.1(6) . .
Cl3 Fe1 Cl1 110.38(13) . .
Cl2 Fe1 Cl1 106.01(10) . .
O1 O1 Fe1 87(3) 2_767 2_767
O1 O1 Fe1 68(2) 2_767 .
Fe1 O1 Fe1 154.5(8) 2_767 .
C2 N3 C4 108.5(6) . .
C2 N3 C7 125.7(7) . .
C4 N3 C7 125.7(7) . .
C5 C4 N3 106.3(7) . .
C5 C4 H4 126.8 . .
N3 C4 H4 126.8 . .
C4 C5 N1 107.9(7) . .
C4 C5 H5 126.0 . .
N1 C5 H5 126.0 . .
C2 N1 C5 108.3(7) . .
C2 N1 C6 126.5(9) . .
C5 N1 C6 125.2(8) . .
N3 C2 N1 109.0(7) . .
N3 C2 H2 125.5 . .
N1 C2 H2 125.5 . .
N1 C6 H6A 109.5 . .
N1 C6 H6B 109.5 . .
H6A C6 H6B 109.5 . .
N1 C6 H6C 109.5 . .
H6A C6 H6C 109.5 . .
H6B C6 H6C 109.5 . .
N3 C7 H7A 109.5 . .
N3 C7 H7B 109.5 . .
H7A C7 H7B 109.5 . .
N3 C7 H7C 109.5 . .
H7A C7 H7C 109.5 . .
H7B C7 H7C 109.5 . .
loop_
_geom_bond_atom_site_label_1
_geom_bond_atom_site_label_2
_geom_bond_distance
_geom_bond_site_symmetry_2
Fe1 O1 1.712(18) 2_767
Fe1 O1 1.848(17) .
Fe1 Cl3 2.206(4) .
Fe1 Cl2 2.211(2) .
Fe1 Cl1 2.217(2) .
O1 O1 0.80(2) 2_767
O1 Fe1 1.712(18) 2_767
N3 C2 1.309(10) .
N3 C4 1.369(10) .
N3 C7 1.461(10) .
C4 C5 1.340(13) .
C4 H4 0.9300 .
C5 N1 1.349(12) .
C5 H5 0.9300 .
N1 C2 1.319(10) .
N1 C6 1.472(11) .
C2 H2 0.9300 .
C6 H6A 0.9600 .
C6 H6B 0.9600 .
C6 H6C 0.9600 .
C7 H7A 0.9600 .
C7 H7B 0.9600 .
C7 H7C 0.9600 .
