#------------------------------------------------------------------------------
#$Date: 2020-10-06 12:36:56 +0300 (Tue, 06 Oct 2020) $
#$Revision: 257644 $
#$URL: file:///home/coder/svn-repositories/cod/cif/7/05/97/7059719.cif $
#------------------------------------------------------------------------------
#
# This file is available in the Crystallography Open Database (COD),
# http://www.crystallography.net/
#
# All data on this site have been placed in the public domain by the
# contributors.
#
data_7059719
loop_
_publ_author_name
'Garc\'ia-Raso, Angel'
'Terr\'on, Angel'
'Balle, Bartomeu'
'L\'opez-Zafra, Adela'
'Frontera, Antonio'
'Barcel\'o-Oliver, Miquel'
'Fiol, Juan J.'
_publ_section_title
;
 Crystal structures of N6-modified-amino acid nucleobase analogs(iii):
 adenine--valeric acid, adenine--hexanoic acid and adenine--gabapentine
;
_journal_issue                   28
_journal_name_full               'New Journal of Chemistry'
_journal_page_first              12236
_journal_page_last               12246
_journal_paper_doi               10.1039/D0NJ02538K
_journal_volume                  44
_journal_year                    2020
_chemical_formula_moiety         'C11 H15 N5 O2'
_chemical_formula_sum            'C11 H15 N5 O2'
_chemical_formula_weight         249.28
_space_group_IT_number           2
_space_group_name_Hall           '-P 1'
_space_group_name_H-M_alt        'P -1'
_symmetry_cell_setting           triclinic
_symmetry_Int_Tables_number      2
_symmetry_space_group_name_Hall  '-P 1'
_symmetry_space_group_name_H-M   'P -1'
_atom_sites_solution_hydrogens   difmap
_atom_sites_solution_primary     dual
_atom_sites_solution_secondary   dual
_audit_conform_dict_location     ftp://ftp.iucr.org/pub/cif_core.dic
_audit_conform_dict_name         cif_core.dic
_audit_conform_dict_version      2.4.5
_audit_creation_date             2019-04-04T14:55:07-00:00
_audit_creation_method           'WinGX routine CIF_UPDATE'
_audit_update_record
;
2020-05-16 deposited with the CCDC.	2020-06-22 downloaded from the CCDC.
;
_cell_angle_alpha                102.47(4)
_cell_angle_beta                 91.989(9)
_cell_angle_gamma                98.392(9)
_cell_formula_units_Z            2
_cell_length_a                   7.159(4)
_cell_length_b                   9.126(4)
_cell_length_c                   9.472(4)
_cell_measurement_reflns_used    2152
_cell_measurement_temperature    300(2)
_cell_measurement_theta_max      27.48
_cell_measurement_theta_min      2.31
_cell_measurement_wavelength     0.71073
_cell_volume                     596.4(5)
_computing_cell_refinement       'SAINT V6.28A integration software'
_computing_data_collection       'Bruker APEX2 software'
_computing_data_reduction        'SORTAV (Blessing, 1995)'
_computing_molecular_graphics    'Ortep for Windows (Farrugia, 2012)'
_computing_publication_material  'WinGX publication routines (Farrugia, 2012)'
_computing_structure_refinement  'SHELXL-2017/1 (Sheldrick, 2017)'
_computing_structure_solution    'SHELXT-2014/5 (Sheldrick, 2015)'
_diffrn_ambient_temperature      300(2)
_diffrn_detector                 'APEX-II CCD'
_diffrn_measured_fraction_theta_full 0.993
_diffrn_measured_fraction_theta_max 0.989
_diffrn_measurement_device       '\k-geometry diffractometer'
_diffrn_measurement_device_type  'Bruker APEX-II'
_diffrn_measurement_method       '\f or \w oscillation scans'
_diffrn_orient_matrix_UB_11      -0.116647
_diffrn_orient_matrix_UB_12      0.033745
_diffrn_orient_matrix_UB_13      0.01344
_diffrn_orient_matrix_UB_21      0.079339
_diffrn_orient_matrix_UB_22      0.065543
_diffrn_orient_matrix_UB_23      0.037271
_diffrn_orient_matrix_UB_31      0.011467
_diffrn_orient_matrix_UB_32      0.045902
_diffrn_orient_matrix_UB_33      -0.056732
_diffrn_radiation_monochromator  graphite
_diffrn_radiation_probe          x-ray
_diffrn_radiation_type           MoK\a
_diffrn_radiation_wavelength     0.71073
_diffrn_reflns_av_R_equivalents  0.034
_diffrn_reflns_av_unetI/netI     0.0511
_diffrn_reflns_Laue_measured_fraction_full 0.993
_diffrn_reflns_Laue_measured_fraction_max 0.989
_diffrn_reflns_limit_h_max       8
_diffrn_reflns_limit_h_min       -8
_diffrn_reflns_limit_k_max       11
_diffrn_reflns_limit_k_min       -11
_diffrn_reflns_limit_l_max       11
_diffrn_reflns_limit_l_min       0
_diffrn_reflns_number            2418
_diffrn_reflns_point_group_measured_fraction_full 0.993
_diffrn_reflns_point_group_measured_fraction_max 0.989
_diffrn_reflns_reduction_process
;
        Scaled and merged with Sortav
        R.H. Blessing, (1987) Cryst. Rev. 1, 3-58
        R.H. Blessing, (1989) J. Appl. Cryst. 22, 396-397
;
_diffrn_reflns_theta_full        25.242
_diffrn_reflns_theta_max         26.371
_diffrn_reflns_theta_min         2.207
_diffrn_source                   'sealed x-ray tube'
_diffrn_standards_number         0
_exptl_absorpt_coefficient_mu    0.1
_exptl_absorpt_correction_T_max  1
_exptl_absorpt_correction_T_min  0.897
_exptl_absorpt_correction_type   multi-scan
_exptl_absorpt_process_details
;
        SADABS - Bruker/Siemens area detector absorption and other corrections -
;
_exptl_crystal_colour            colourless
_exptl_crystal_density_diffrn    1.388
_exptl_crystal_density_method    'not measured'
_exptl_crystal_description       plate
_exptl_crystal_F_000             264
_exptl_crystal_size_max          0.21
_exptl_crystal_size_mid          0.2
_exptl_crystal_size_min          0.19
_refine_diff_density_max         0.265
_refine_diff_density_min         -0.238
_refine_diff_density_rms         0.052
_refine_ls_extinction_method     none
_refine_ls_goodness_of_fit_ref   1.046
_refine_ls_hydrogen_treatment    mixed
_refine_ls_matrix_type           full
_refine_ls_number_constraints    0
_refine_ls_number_parameters     165
_refine_ls_number_reflns         2418
_refine_ls_number_restraints     0
_refine_ls_restrained_S_all      1.046
_refine_ls_R_factor_all          0.0716
_refine_ls_R_factor_gt           0.0551
_refine_ls_shift/su_max          0
_refine_ls_shift/su_mean         0
_refine_ls_structure_factor_coef Fsqd
_refine_ls_weighting_details
'w=1/[\s^2^(Fo^2^)+(0.0687P)^2^+0.1609P] where P=(Fo^2^+2Fc^2^)/3'
_refine_ls_weighting_scheme      calc
_refine_ls_wR_factor_gt          0.1403
_refine_ls_wR_factor_ref         0.1481
_reflns_Friedel_coverage         0
_reflns_number_gt                1858
_reflns_number_total             2418
_reflns_threshold_expression     'I > 2\s(I)'
_iucr_refine_instructions_details
;
TITL shelxt_a.res in P-1
    shelx.res
    created by SHELXL-2017/1 at 14:54:46 on 04-Apr-2019
CELL  0.71073   7.1586   9.1258   9.4724  102.472   91.989   98.392
ZERR     2.00   0.0038   0.0035   0.0037    0.041    0.009    0.009
LATT   1
SFAC  C    H    N    O
UNIT  22 30 10  4
MERG   2
BOND -0.5
FMAP   2
SIZE     0.190   0.200   0.210
ACTA
EQIV $1 -x+1, -y+1, -z+1
HTAB N6 O15_$1
EQIV $2 -x-1, -y+2, -z+2
HTAB N9 N3_$2
EQIV $3 x-1, y, z
HTAB C11 O16_$3
HTAB O16 N7_$1
SHEL 100 0.8
PLAN -50
BOND   $H
CONF
LIST   4
L.S.  10
TEMP    27.00
WGHT    0.068700    0.160900
FVAR       0.74058
N1    3   -0.028835    0.768412    1.030148    11.00000    0.03079    0.04944 =
         0.03438    0.01200    0.00612    0.01770
C2    1   -0.168054    0.828883    1.100995    11.00000    0.03324    0.05410 =
         0.03215    0.01335    0.00621    0.01518
AFIX  43
H2    2   -0.173607    0.821164    1.197114    11.00000   -1.20000
AFIX   0
N3    3   -0.299552    0.898546    1.052377    11.00000    0.02965    0.04862 =
         0.03244    0.00855    0.00764    0.01737
C4    1   -0.282444    0.902636    0.912351    11.00000    0.02390    0.03549 =
         0.03307    0.00749    0.00520    0.01116
C5    1   -0.146630    0.846085    0.826263    11.00000    0.02562    0.03774 =
         0.03170    0.00671    0.00605    0.01140
C6    1   -0.013322    0.776865    0.890930    11.00000    0.02747    0.03689 =
         0.03367    0.00593    0.00517    0.01164
N6    3    0.124552    0.717796    0.817662    11.00000    0.03505    0.05641 =
         0.03527    0.01192    0.00982    0.02793
AFIX  43
H6    2    0.133127    0.726881    0.729526    11.00000   -1.50000
AFIX   0
N7    3   -0.175913    0.867369    0.687509    11.00000    0.03296    0.05037 =
         0.03279    0.01079    0.00843    0.01950
C8    1   -0.326113    0.934441    0.693365    11.00000    0.03303    0.05133 =
         0.03395    0.01336    0.00599    0.01891
AFIX  43
H8    2   -0.379632    0.962138    0.614086    11.00000   -1.20000
AFIX   0
N9    3   -0.395711    0.959475    0.825539    11.00000    0.02950    0.04912 =
         0.03422    0.01035    0.00910    0.02150
AFIX  44
H9    2   -0.499669    1.005980    0.852081    11.00000   -1.50000
AFIX   0
C10   1    0.261152    0.639241    0.876312    11.00000    0.03037    0.04708 =
         0.03494    0.00881    0.00352    0.01793
AFIX  23
H10A  2    0.196366    0.563376    0.922839    11.00000   -1.20000
H10B  2    0.348624    0.711034    0.947985    11.00000   -1.20000
AFIX   0
C11   1    0.367579    0.564065    0.753178    11.00000    0.03673    0.05268 =
         0.03611    0.00444    0.00513    0.02403
AFIX  23
H11A  2    0.423319    0.641001    0.704055    11.00000   -1.20000
H11B  2    0.277602    0.491400    0.684157    11.00000   -1.20000
AFIX   0
C12   1    0.522889    0.482518    0.796541    11.00000    0.03344    0.04352 =
         0.03611    0.00650    0.00752    0.01968
AFIX  23
H12A  2    0.619190    0.555172    0.859882    11.00000   -1.20000
H12B  2    0.470455    0.407980    0.849479    11.00000   -1.20000
AFIX   0
C13   1    0.611471    0.404075    0.664222    11.00000    0.05377    0.08205 =
         0.03635    0.00369    0.00622    0.04400
AFIX  23
H13A  2    0.517189    0.323144    0.608514    11.00000   -1.20000
H13B  2    0.644050    0.476722    0.604430    11.00000   -1.20000
AFIX   0
C14   1    0.784084    0.338047    0.692934    11.00000    0.04225    0.05956 =
         0.03385    0.00482    0.00801    0.02816
AFIX  23
H14A  2    0.755890    0.271603    0.759270    11.00000   -1.20000
H14B  2    0.883804    0.419634    0.739756    11.00000   -1.20000
AFIX   0
C15   1    0.853983    0.249820    0.558061    11.00000    0.03606    0.05168 =
         0.03231    0.01189    0.00618    0.02200
O15   4    0.751192    0.181660    0.453482    11.00000    0.03923    0.08015 =
         0.03832   -0.00123    0.00398    0.02240
O16   4    1.036947    0.251627    0.563835    11.00000    0.03768    0.09377 =
         0.04052   -0.00652    0.00646    0.02844
AFIX 147
H16   2    1.067945    0.209496    0.484585    11.00000   -1.50000
AFIX   0
HKLF    4




REM  shelxt_a.res in P-1
REM R1 =  0.0551 for    1858 Fo > 4sig(Fo)  and  0.0716 for all    2418 data
REM    165 parameters refined using      0 restraints

END

WGHT      0.0701      0.1589

REM Highest difference peak  0.265,  deepest hole -0.238,  1-sigma level  0.052
Q1    1   0.5405  0.3812  0.5731  11.00000  0.05    0.26
Q2    1   0.1688  0.7744  0.7555  11.00000  0.05    0.24
Q3    1   0.5295  0.2969  0.6673  11.00000  0.05    0.22
Q4    1  -0.0443  0.8610  0.8637  11.00000  0.05    0.20
Q5    1  -0.1963  0.8860  0.8801  11.00000  0.05    0.20
Q6    1   0.8432  0.3469  0.7650  11.00000  0.05    0.19
Q7    1   0.9805  0.3261  0.5159  11.00000  0.05    0.19
Q8    1   0.4396  0.5188  0.7790  11.00000  0.05    0.19
Q9    1   0.8295  0.2835  0.4687  11.00000  0.05    0.18
Q10   1  -0.1307  0.7618  0.8391  11.00000  0.05    0.18
Q11   1   0.6973  0.2256  0.6895  11.00000  0.05    0.17
Q12   1  -0.3304  0.8060  1.0509  11.00000  0.05    0.17
Q13   1   0.7398  0.5251  0.6455  11.00000  0.05    0.16
Q14   1   0.2663  0.4670  0.7411  11.00000  0.05    0.16
Q15   1  -0.1207  0.8805  0.7644  11.00000  0.05    0.16
Q16   1  -0.2910  0.9807  0.8876  11.00000  0.05    0.16
Q17   1  -0.2457  0.9501  1.0061  11.00000  0.05    0.15
Q18   1   0.6135  0.6038  0.8145  11.00000  0.05    0.15
Q19   1   0.9654  0.3770  0.5021  11.00000  0.05    0.15
Q20   1   0.3158  0.5533  0.6824  11.00000  0.05    0.15
Q21   1  -0.0621  0.7237  0.9416  11.00000  0.05    0.15
Q22   1   0.7685  0.1381  0.5400  11.00000  0.05    0.15
Q23   1   0.0319  0.6058  0.7860  11.00000  0.05    0.15
Q24   1  -0.2480  0.9996  1.0658  11.00000  0.05    0.15
Q25   1  -0.3472  0.8440  0.9622  11.00000  0.05    0.15
Q26   1  -0.0990  0.8830  0.6396  11.00000  0.05    0.15
Q27   1  -0.0894  0.6664  1.0136  11.00000  0.05    0.14
Q28   1  -0.1320  0.8784  1.2130  11.00000  0.05    0.14
Q29   1  -0.0038  0.7030  1.0830  11.00000  0.05    0.14
Q30   1  -0.2025  0.9272  1.0909  11.00000  0.05    0.14
Q31   1   0.0502  0.8925  1.0620  11.00000  0.05    0.14
Q32   1   0.0652  0.7983  1.0854  11.00000  0.05    0.14
Q33   1   0.3190  0.5992  0.8141  11.00000  0.05    0.14
Q34   1   0.9444  0.1476  0.5586  11.00000  0.05    0.14
Q35   1   0.9096  0.5199  0.7125  11.00000  0.05    0.13
Q36   1  -0.2097  0.7994  0.7622  11.00000  0.05    0.13
Q37   1   0.2153  0.7007  0.8441  11.00000  0.05    0.13
Q38   1   0.6724  0.0847  0.4811  11.00000  0.05    0.13
Q39   1   0.8221  0.2937  0.6317  11.00000  0.05    0.13
Q40   1  -0.1525  0.8022  0.6276  11.00000  0.05    0.13
Q41   1  -0.1226  0.8487  0.6335  11.00000  0.05    0.13
Q42   1  -0.4180  0.8858  0.7442  11.00000  0.05    0.13
Q43   1  -0.0057  0.8077  0.9576  11.00000  0.05    0.13
Q44   1   0.0570  0.7440  0.8528  11.00000  0.05    0.12
Q45   1   0.4682  0.6797  0.7373  11.00000  0.05    0.12
Q46   1  -0.4222  0.8546  0.8448  11.00000  0.05    0.12
Q47   1   0.2886  0.6462  0.9673  11.00000  0.05    0.12
Q48   1  -0.2561  1.0655  0.6952  11.00000  0.05    0.12
Q49   1  -0.4481  0.8992  0.6139  11.00000  0.05    0.12
Q50   1   0.7291  0.4004  0.6720  11.00000  0.05    0.12
;
_cod_data_source_file            d0nj02538k1.cif
_cod_data_source_block           shelx
_cod_depositor_comments
;Adding full bibliography for 7059716--7059719.cif.

 Adding full bibliography for 7059716--7059719.cif.
;
_cod_original_cell_volume        596.3(5)
_cod_database_code               7059719
_shelx_estimated_absorpt_t_min   0.979
_shelx_estimated_absorpt_t_max   0.981
_shelx_shelxl_version_number     2017/1
_iucr_refine_reflections_details
;
   9   0   2 2.42756 1.99866   1
   9   0   1 2.17041 1.87759   1
   9  -1   2 0.04115 1.75077   1
   9  -1   1 1.84125 1.72946   1
   9  -1   0 6.98014 1.43798   1
   9  -2   1 2.96629 1.42095   1
   9  -3   2 1.45111 1.35781   1
   9  -1  -1 1.70222 1.17025   1
   9  -2   0 2.43997 1.17873   1
   9  -3   1  5.0655 1.28469   1
   9  -4   2 6.27453 1.77539   1
   9  -2  -1-0.28738 2.94061   1
   9  -3   0 5.13848 1.31367   1
   9  -4   1   7.276 1.87391   1
   9  -2  -2 1.72087 1.09956   1
   9  -3  -1  10.417 2.06796   1
   9  -4   0 1.97229 1.32823   1
   9  -3  -2 7.79701  2.1395   1
   8   2   4 4.18652 2.03576   1
   8   2   3 0.78186 1.11719   1
   8   1   4 10.4968 2.07912   1
   8   0   5 13.3549 2.74663   1
   8   1   3 11.8443 1.63766   1
   8   0   4 0.56231 1.20257   1
   8  -1   5 5.57226 1.41759   1
   8   1   2 21.7075 5.97901   1
   8   0   3 19.8252 2.15856   1
   8  -1   4 0.66599 1.02794   1
   8  -2   5 0.31341 1.06498   1
   8   0   2 6.31722 1.80862   1
   8  -1   3 1.38264 2.49368   1
   8  -2   4 15.5215 1.92025   1
   8  -3   5  0.7054 0.94914   1
   8   0   1  1.8721 1.42341   1
   8  -1   2 13.6088 2.34268   1
   8  -2   3 1.19872 0.96584   1
   8  -3   4 2.60353 2.73671   1
   8  -4   5 4.02737 1.89986   1
   8  -1   1 5.80562 1.09309   1
   8  -2   2 0.24664 0.75933   1
   8  -3   3 4.03223 1.28171   1
   8  -4   4 0.13662 0.77536   1
   8  -5   5 2.26422 1.56133   1
   8  -1   0 8.61116 1.25319   1
   8  -2   1 4.24183 1.18569   1
   8  -3   2  4.1759 1.34042   1
   8  -4   3 0.43623 0.67248   1
   8  -5   4  1.7006 0.84667   1
   8  -6   5 0.94627 0.98666   1
   8  -1  -1 4.71594 1.07004   1
   8  -2   0 13.4961 1.61363   1
   8  -3   1 7.11601 1.15302   1
   8  -4   2 0.35612 1.03837   1
   8  -5   3-0.26062 0.97259   1
   8  -6   4  1.7679 1.17752   1
   8  -2  -1 25.8751 2.29467   1
   8  -3   0 2.01518 0.85006   1
   8  -4   1 4.18569 1.07734   1
   8  -5   2 19.4065 2.00172   1
   8  -6   3 0.15315 0.79829   1
   8  -2  -2 0.39344  0.7454   1
   8  -3  -1 18.3958 1.88982   1
   8  -4   0 3.87119 1.85349   1
   8  -5   1 0.72522 1.04013   1
   8  -6   2 20.7457 2.19087   1
   8  -3  -2 5.21839  1.0602   1
   8  -4  -1 0.13373 2.02204   1
   8  -5   0 20.6827 2.03742   1
   8  -6   1 9.71206 1.37898   1
   8  -7   2 44.2207 5.31751   1
   8  -3  -3 2.32958 0.96845   1
   8  -4  -2 1.31456 0.96327   1
   8  -5  -1 12.7694 1.57994   1
   8  -6   0 4.39938 1.04503   1
   8  -7   1 25.3351 3.65289   1
   8  -4  -3 5.36092 1.12237   1
   8  -5  -2 4.87907 1.10154   1
   8  -6  -1 3.22836 0.90579   1
   8  -4  -4 1.53733 0.91194   1
   8  -5  -3 0.41918 0.85417   1
   8  -6  -2 4.99948 1.08019   1
   7   3   5 4.61854   1.749   1
   7   3   4 0.11707 1.05293   1
   7   2   5 2.22376 2.09778   1
   7   1   6  2.4344 1.16398   1
   7   2   4 0.87086 0.87788   1
   7   1   5 17.9782 4.22511   1
   7   0   6 3.99049  2.5893   1
   7  -1   7 1.30243  1.6701   1
   7   2   3 1.70395 0.85359   1
   7   1   4 1.32409 0.85521   1
   7   0   5  0.4978 0.89265   1
   7  -1   6 0.97348 1.74045   1
   7  -2   7  1.0149 0.99315   1
   7   1   3 0.64494 0.74112   1
   7   0   4 7.71227 1.20131   1
   7  -1   5 28.2447 3.80644   1
   7  -2   6 1.53241    0.90   1
   7  -3   7 7.54935  2.9711   1
   7   1   2 1.40278 0.70693   1
   7   0   3-0.24446 0.98336   1
   7  -1   4 13.1417 1.53733   1
   7  -2   5 37.5824 3.08222   1
   7  -3   6  2.0868 0.93205   1
   7  -4   7 3.96858 2.76191   1
   7   0   2 23.9292 2.07264   1
   7  -1   3-0.49313 0.96978   1
   7  -2   4  7.0446 1.10619   1
   7  -3   5  5.0224 1.01906   1
   7  -4   6 6.48283 1.21057   1
   7  -5   7 9.00263 1.49101   1
   7   0   1 6.34274  0.7605   1
   7  -1   2 107.446 4.50998   1
   7  -2   3 23.6321 1.69906   1
   7  -3   4 8.55107 0.93653   1
   7  -4   5 4.80947 0.78172   1
   7  -5   6 10.3469 1.47515   1
   7  -6   7 17.3118 2.89927   1
   7  -1   1 62.5667 3.31975   1
   7  -2   2 43.5813 2.59638   1
   7  -3   3 16.1381 1.53309   1
   7  -4   4 5.04234 0.71681   1
   7  -5   5 11.0921  1.4173   1
   7  -6   6 8.83752 1.53672   1
   7  -1   0  299.44 7.95865   1
   7  -2   1-0.19413 0.92393   1
   7  -3   2 60.3328 3.27793   1
   7  -4   3 6.72312 1.32459   1
   7  -5   4 8.34685 1.70856   1
   7  -6   5 3.77329 0.79989   1
   7  -7   6 1.13513 1.25631   1
   7  -1  -1 1.70188 0.69185   1
   7  -2   0 7.65372 0.99452   1
   7  -3   1 2.98676 0.80676   1
   7  -4   2 14.6816 1.46223   1
   7  -5   3 3.08087 0.61749   1
   7  -6   4 4.58293 0.90447   1
   7  -7   5-0.41099 1.12196   1
   7  -2  -1 7.57147 1.03252   1
   7  -3   0 22.8885 2.41511   1
   7  -4   1 0.75507 0.64883   1
   7  -5   2 8.58638 1.08708   1
   7  -6   3  3.3774 1.85783   1
   7  -7   4 0.45081 0.61059   1
   7  -8   5 3.18314 1.17821   1
   7  -2  -2 0.38275 0.74497   1
   7  -3  -1 16.4416 1.56348   1
   7  -4   0 20.8717 1.83293   1
   7  -5   1 3.86396 0.75167   1
   7  -6   2 1.73758 2.11064   1
   7  -7   3 1.44069 0.67788   1
   7  -8   4 4.60555 1.20145   1
   7  -3  -2 0.57308  0.5873   1
   7  -4  -1 35.6663 2.69378   1
   7  -5   0 9.34891 1.59436   1
   7  -6   1 3.85898 0.80269   1
   7  -7   2 7.52225 1.10815   1
   7  -8   3-0.00346 2.11206   1
   7  -3  -3 15.4622 1.66458   1
   7  -4  -2 0.68928 1.01821   1
   7  -5  -1 11.3347 1.27901   1
   7  -6   0 7.17578 1.76956   1
   7  -7   1 7.02534 3.21707   1
   7  -8   2  26.997 3.09082   1
   7  -9   3 1.96468 1.34439   1
   7  -4  -3 2.97846 0.76377   1
   7  -5  -2  1.8355 0.67395   1
   7  -6  -1 3.46914 1.62643   1
   7  -7   0 21.2421 2.02459   1
   7  -8   1 17.5613 1.91996   1
   7  -9   2 35.8066 4.51959   1
   7  -4  -4 1.30693  0.6831   1
   7  -5  -3 21.8909 2.07326   1
   7  -6  -2 5.05041 2.64898   1
   7  -7  -1 19.9141 1.99806   1
   7  -8   0 15.4873 2.54844   1
   7  -9   1 11.7161 2.27787   1
   7  -5  -4 1.83402 0.70353   1
   7  -6  -3 2.55484 0.83927   1
   7  -7  -2 1.34687  0.6306   1
   7  -8  -1 3.43361 0.93726   1
   7  -5  -5 32.9592  2.8537   1
   7  -6  -4 20.5627 2.10827   1
   7  -7  -3 8.68615 1.28642   1
   7  -8  -2 1.64712 1.52952   1
   7  -6  -5 0.09197 0.97629   1
   7  -7  -4 3.56647 1.29601   1
   6   4   6 0.34105 1.06685   1
   6   4   5 1.45103 0.83325   1
   6   3   6 5.94959 2.23235   1
   6   2   7 10.6396 1.58862   1
   6   3   5 0.15417 0.79771   1
   6   2   6  0.1325 1.43571   1
   6   1   7 2.45192 1.22248   1
   6   0   8 2.26994 1.62344   1
   6   3   4 13.2223 2.15846   1
   6   2   5 3.16757 0.86372   1
   6   1   6 3.03953  1.0317   1
   6   0   7 2.07764 1.20582   1
   6  -1   8 1.44416 2.73774   1
   6   2   4 0.10965  0.8263   1
   6   1   5 20.8017 1.91025   1
   6   0   6-0.93136 2.15152   1
   6  -1   7 20.8177 2.87664   1
   6  -2   8-0.86809 1.50988   1
   6   2   3 7.78912  2.3487   1
   6   1   4 8.51077 1.16269   1
   6   0   5 19.7916 4.07176   1
   6  -1   6 1.89666 0.92587   1
   6  -2   7  4.3719 0.96311   1
   6  -3   8 6.55222 1.94104   1
   6   1   3 134.932 15.1543   1
   6   0   4 11.2303 1.26292   1
   6  -1   5 55.7943 3.80223   1
   6  -2   6 1.59319 0.71692   1
   6  -3   7 3.20344 0.90768   1
   6  -4   8 6.04822 1.22759   1
   6  -5   9 4.95799 1.70781   1
   6   1   2 15.0543 1.42463   1
   6   0   3 18.4241  1.6611   1
   6  -1   4  16.257 1.56716   1
   6  -2   5 45.9447 3.30397   1
   6  -3   6 2.38945 0.78351   1
   6  -4   7 22.2073 4.08722   1
   6  -5   8  2.9517 1.01242   1
   6  -6   9 5.06085  1.8435   1
   6   0   2  10.673 0.88428   1
   6  -1   3 9.92256 0.86965   1
   6  -2   4 45.9955 2.62577   1
   6  -3   5 23.0323 1.62608   1
   6  -4   6 11.1027 1.35317   1
   6  -5   7 4.17753 1.03678   1
   6  -6   8 0.47977 0.93913   1
   6   0   1 3.97061 0.53883   1
   6  -1   2 1.04484 0.39666   1
   6  -2   3  18.009 1.28905   1
   6  -3   4 38.7126 2.30973   1
   6  -4   5 101.293 4.41245   1
   6  -5   6 3.05991 0.96375   1
   6  -6   7 9.00631 1.06595   1
   6  -7   8 3.41318 1.35663   1
   6  -1   1 0.56856 0.43783   1
   6  -2   2 7.46773 0.71564   1
   6  -3   3-0.11627 0.68078   1
   6  -4   4 4.24341 0.60615   1
   6  -5   5 34.0428 2.20173   1
   6  -6   6 10.0002  1.0321   1
   6  -7   7 26.5114  3.6846   1
   6  -1   0 49.8585 2.66296   1
   6  -2   1 19.3547  1.3006   1
   6  -3   2  106.51 4.43854   1
   6  -4   3 7.05193 0.71729   1
   6  -5   4  3.4996 0.57417   1
   6  -6   5 10.2337 1.00491   1
   6  -7   6 1.44145 0.63511   1
   6  -8   7 8.92128  1.8275   1
   6  -1  -1 0.71214 0.47316   1
   6  -2   0 20.3438 1.59325   1
   6  -3   1 180.124 5.11558   1
   6  -4   2 98.3849 4.27696   1
   6  -5   3 10.0618 1.25737   1
   6  -6   4 2.03414 0.51444   1
   6  -7   5 2.83876 0.72643   1
   6  -8   6 5.88819 1.22597   1
   6  -2  -1 172.382 5.64572   1
   6  -3   0 480.039 12.7206   1
   6  -4   1 0.02716 0.48043   1
   6  -5   2  25.248 1.65073   1
   6  -6   3 10.1008 1.12467   1
   6  -7   4 2.37681  0.8044   1
   6  -8   5 3.31639  0.7473   1
   6  -2  -2 104.525 5.06744   1
   6  -3  -1 13.1587 1.24229   1
   6  -4   0 18.8654  1.5557   1
   6  -5   1 14.8996 1.36242   1
   6  -6   2 6.59344 0.73602   1
   6  -7   3 5.47149 1.05411   1
   6  -8   4  0.5878 1.46719   1
   6  -9   5 1.87681 1.43602   1
   6  -3  -2 140.015 5.54186   1
   6  -4  -1 8.81352 0.97055   1
   6  -5   0 23.9002 1.87451   1
   6  -6   1 13.9542 1.35042   1
   6  -7   2 6.69597 0.78078   1
   6  -8   3 0.24414 0.51091   1
   6  -9   4  1.1234 1.48965   1
   6  -3  -3 1.48409 1.09533   1
   6  -4  -2 62.1129 3.81349   1
   6  -5  -1 21.2057 1.72504   1
   6  -6   0 0.33663 0.73793   1
   6  -7   1 4.80394 2.47381   1
   6  -8   2 0.80963 0.58069   1
   6  -9   3 -0.0527 2.46981   1
   6 -10   4 0.51095 1.55561   1
   6  -4  -3 104.936 5.12439   1
   6  -5  -2 1.35503 0.73156   1
   6  -6  -1 88.3876 4.80059   1
   6  -7   0 2.44246 1.01251   1
   6  -8   1 0.79191 1.06219   1
   6  -9   2 7.00686 1.87715   1
   6  -4  -4 16.5486 1.25934   1
   6  -5  -3 23.3477 1.92969   1
   6  -6  -2 6.60788 0.90716   1
   6  -7  -1  31.299 2.48945   1
   6  -8   0 13.8397 2.77913   1
   6  -9   1 0.76018 0.65782   1
   6  -5  -4  23.914 2.03369   1
   6  -6  -3 0.50295 0.47867   1
   6  -7  -2 1.00019 0.54564   1
   6  -8  -1 6.04919 2.28468   1
   6  -9   0 36.0981 3.92085   1
   6  -5  -5 0.34728 0.56389   1
   6  -6  -4 8.22168 1.83338   1
   6  -7  -3  1.4777 0.59231   1
   6  -8  -2 4.58551 1.09037   1
   6  -9  -1 1.12514 1.14037   1
   6  -6  -5 16.6032 1.86442   1
   6  -7  -4 18.4612 1.89471   1
   6  -8  -3 5.25338 1.75173   1
   6  -9  -2 5.84723 1.10114   1
   6 -10  -1 0.17487 1.12432   1
   6  -6  -6 35.8061 3.04314   1
   6  -7  -5 13.2038 1.60585   1
   6  -8  -4 17.6719 1.96098   1
   6  -9  -3 0.63358 1.15686   1
   5   5   6-0.02786 1.30381   1
   5   4   7 0.41846 0.84421   1
   5   4   6 11.2799 1.90535   1
   5   3   7 14.6231 4.29709   1
   5   2   8  8.1626 1.54971   1
   5   1   9 1.16217 1.70915   1
   5   4   5 4.96025 0.69829   1
   5   3   6 1.82613 0.69822   1
   5   2   7 17.0312  1.7265   1
   5   1   8 2.93993 1.50514   1
   5   0   9 11.1087 1.67121   1
   5   3   5 0.29254 0.60161   1
   5   2   6 11.2238 2.24418   1
   5   1   7 26.7633 2.34159   1
   5   0   8 11.1877 2.61464   1
   5  -1   9 1.21086 1.51997   1
   5   3   4 19.1322 1.42158   1
   5   2   5 1.50892 0.66319   1
   5   1   6  22.658 1.89119   1
   5   0   7 72.8203 4.37237   1
   5  -1   8 1.78684 1.31564   1
   5  -3  10 0.55703 1.96164   1
   5   2   4 17.4417 1.28264   1
   5   1   5 0.34538 0.94284   1
   5   0   6 8.57293 1.69478   1
   5  -1   7  6.0966 1.03948   1
   5  -2   8 17.7587 2.02576   1
   5  -3   9 1.88971 1.34094   1
   5  -4  10 3.38773 2.94398   1
   5   2   3 38.2708 2.16674   1
   5   1   4 25.5433 2.27415   1
   5   0   5 0.11707 0.69651   1
   5  -1   6  0.2666 0.64267   1
   5  -2   7 3.98701 1.32262   1
   5  -3   8 13.9086 3.88353   1
   5  -4   9 1.75254 2.01315   1
   5  -5  10 6.71695  1.8622   1
   5   1   3  100.92   4.267   1
   5   0   4 24.6086 1.89622   1
   5  -1   5 115.181 6.58723   1
   5  -2   6 2.28289 1.51562   1
   5  -3   7 56.3683 3.85203   1
   5  -4   8 2.46684 0.82177   1
   5  -5   9 7.77768 1.28698   1
   5   1   2 95.5152 3.72357   1
   5   0   3 75.2629 3.56037   1
   5  -1   4 0.25123 0.33342   1
   5  -2   5 43.1236 2.43365   1
   5  -3   6 20.4121 1.62355   1
   5  -4   7-0.16651 0.86536   1
   5  -5   8 23.1146 2.17766   1
   5  -6   9 2.92545  1.5043   1
   5   0   2 98.1747 4.22194   1
   5  -1   3 135.532 4.98341   1
   5  -2   4 42.2613 2.33156   1
   5  -3   5 16.5432 1.71288   1
   5  -4   6 1.36561 0.45156   1
   5  -5   7  0.4103 0.46343   1
   5  -6   8 15.2905  1.3915   1
   5  -7   9  6.6833 1.62778   1
   5   0   1 0.81004 0.23339   1
   5  -1   2 0.76105 0.30531   1
   5  -2   3 61.4337 3.06678   1
   5  -3   4-0.57847 0.50177   1
   5  -4   5 73.6898 4.95521   1
   5  -5   6 1.72518 0.51839   1
   5  -6   7 11.4897 1.09485   1
   5  -7   8 1.31906 0.91153   1
   5  -1   1 10.8404 1.07804   1
   5  -2   2 2.35801 0.36732   1
   5  -3   3-0.03068 0.47778   1
   5  -4   4 22.7948 1.45137   1
   5  -5   5 1.34845 0.64845   1
   5  -6   6 3.09578 0.57776   1
   5  -7   7-0.36338 0.98803   1
   5  -8   8  2.2482 1.23019   1
   5  -1   0 0.03432 0.20832   1
   5  -2   1  27.664 1.69692   1
   5  -3   2 14.9551 0.97883   1
   5  -4   3 0.52979  0.3051   1
   5  -5   4 69.3328 3.45476   1
   5  -6   5 45.3289 2.64296   1
   5  -7   6  7.6857 0.88262   1
   5  -8   7-0.32471 1.21046   1
   5  -1  -1 11.0735 0.66056   1
   5  -2   0 170.317 5.55822   1
   5  -3   1 7.89029 0.62535   1
   5  -4   2 55.3437  2.8452   1
   5  -5   3 6.19883 0.61004   1
   5  -6   4 42.0939 2.88663   1
   5  -7   5   31.68 2.15401   1
   5  -8   6 0.71523 0.71958   1
   5  -9   7 21.0807 4.34647   1
   5  -2  -1 2.31515 0.32863   1
   5  -3   0 114.785 4.63298   1
   5  -4   1 1.52647 0.45302   1
   5  -5   2 111.221 4.52602   1
   5  -6   3 12.2009 0.97715   1
   5  -7   4 11.3231 0.99818   1
   5  -8   5 0.67646 0.64176   1
   5  -9   6 1.12851 0.93203   1
   5  -2  -2 10.8371 0.75304   1
   5  -3  -1 5.58231 0.62037   1
   5  -4   0 15.2457 1.40397   1
   5  -5   1 137.746 4.95372   1
   5  -6   2 84.1369 3.90862   1
   5  -7   3 17.2045 1.28614   1
   5  -8   4 1.83452 0.70526   1
   5  -9   5 1.15205 0.80642   1
   5  -3  -2 181.441 5.33701   1
   5  -4  -1 216.874 5.76964   1
   5  -5   0 754.553 21.5238   1
   5  -6   1 2.06063 0.62973   1
   5  -7   2 22.9911 1.56133   1
   5  -8   3 15.1435 1.87159   1
   5  -9   4 3.52207 0.83231   1
   5 -10   5 4.85906 1.71951   1
   5  -3  -3 5.64199 0.54274   1
   5  -4  -2 299.485 8.19285   1
   5  -5  -1 0.18942  0.4151   1
   5  -6   0 1.17587 0.83937   1
   5  -7   1 0.44802 0.41905   1
   5  -8   2 9.44318 1.10281   1
   5  -9   3 1.40813 1.91926   1
   5 -10   4 1.09104 0.96503   1
   5  -4  -3 301.063 8.81466   1
   5  -5  -2 17.3126 1.45633   1
   5  -6  -1 7.22751 0.85191   1
   5  -7   0 61.4147 3.82378   1
   5  -8   1 3.61147 1.10566   1
   5  -9   2 7.27458 1.07277   1
   5 -10   3 1.00177 0.81702   1
   5  -4  -4 1.44055 0.64998   1
   5  -5  -3 29.6838 1.80207   1
   5  -6  -2 55.5358  3.5398   1
   5  -7  -1 4.19907 0.68222   1
   5  -8   0 6.11363 1.33677   1
   5  -9   1 5.94505 1.58901   1
   5 -10   2 2.45259 1.19668   1
   5 -11   3 0.99185 1.63077   1
   5  -5  -4 10.6297 0.88616   1
   5  -6  -3 27.9599 2.73909   1
   5  -7  -2 19.8891 1.85172   1
   5  -8  -1 28.7787 2.31997   1
   5  -9   0 1.03008 0.56994   1
   5 -10   1 2.30952 1.14131   1
   5  -5  -5 0.91223 0.77003   1
   5  -6  -4 37.5286 2.29626   1
   5  -7  -3 26.7081 2.17975   1
   5  -8  -2 1.28962 1.26033   1
   5  -9  -1 21.8214 2.02633   1
   5 -10   0 2.49346   1.268   1
   5  -6  -5 2.22695 0.49615   1
   5  -7  -4 26.2124 2.22218   1
   5  -8  -3 4.92307 0.84316   1
   5  -9  -2 1.07868 0.93311   1
   5 -10  -1-0.41898 1.08242   1
   5  -6  -6 0.45283 0.84343   1
   5  -7  -5 2.94188 1.04468   1
   5  -8  -4 0.92577    0.81   1
   5  -9  -3 1.58409 1.00653   1
   5 -10  -2-0.09258 0.99664   1
   5  -7  -6 4.24291   1.333   1
   5  -8  -5 5.42087 1.53716   1
   5  -9  -4 6.09977 1.59707   1
   5  -7  -7 20.3526 3.09773   1
   4   5   7-0.30624 1.16543   1
   4   4   8-0.00019 1.15213   1
   4   3   9 0.05009 1.56348   1
   4   5   6 0.83461 0.52244   1
   4   4   7 0.36412 0.63169   1
   4   3   8-0.05404 1.02688   1
   4   2   9 0.07119 0.68924   1
   4   1  10 9.44761 2.38173   1
   4   4   6 0.50074 0.63562   1
   4   3   7 0.25553 0.42872   1
   4   2   8 0.32373 0.82698   1
   4   1   9 2.11317 1.31396   1
   4   0  10  7.5526 1.64416   1
   4   4   5 22.6696 1.91935   1
   4   3   6 7.57755 1.45085   1
   4   2   7 0.58232 0.49608   1
   4   1   8 107.397 5.46632   1
   4   0   9 19.3133 7.86966   1
   4  -1  10 13.4926 3.02637   1
   4   3   5-0.31373 0.67994   1
   4   2   6 42.7636 2.45917   1
   4   1   7 21.1718 1.87349   1
   4   0   8 24.3647  2.0503   1
   4  -1   9 22.5441 2.06297   1
   4  -2  10 8.64035  1.4226   1
   4  -3  11 4.30995 1.69967   1
   4   3   4 7.68138 1.39546   1
   4   2   5 24.2957  1.5521   1
   4   1   6 39.0462  2.6732   1
   4   0   7 67.2386 4.02426   1
   4  -1   8   14.93 2.20464   1
   4  -2   9 13.9497 2.00333   1
   4  -3  10 3.47546 1.08066   1
   4  -4  11 5.93519 1.80189   1
   4   2   4 1.20733 0.43931   1
   4   1   5 9.97042 0.84728   1
   4   0   6 7.63201 0.96902   1
   4  -1   7  12.294 1.28682   1
   4  -2   8 32.5951  2.4716   1
   4  -3   9 6.02446 2.78998   1
   4  -4  10 11.0525 3.67711   1
   4   2   3 37.3015 2.02405   1
   4   1   4 7.03089 1.06341   1
   4   0   5 6.22544 0.88094   1
   4  -1   6 114.147 5.51288   1
   4  -2   7  97.538 4.92315   1
   4  -3   8 0.85616 0.88205   1
   4  -4   9 18.6956 2.12463   1
   4  -5  10 0.58108 1.21396   1
   4   1   3 40.7115 2.13023   1
   4   0   4 14.8433 1.50158   1
   4  -1   5 0.58446 0.57902   1
   4  -2   6 6.45094 0.85477   1
   4  -3   7 19.6768 3.43588   1
   4  -4   8  2.9254 0.97597   1
   4  -5   9 1.60671 0.85575   1
   4   1   2 1.13933 0.26331   1
   4   0   3  5.8793 0.45538   1
   4  -1   4 35.5793  1.9061   1
   4  -2   5 48.0901 2.49202   1
   4  -3   6 3.13399 0.97067   1
   4  -4   7 46.1561 2.63755   1
   4  -5   8 5.28707 0.85651   1
   4  -6   9 1.63506 0.86065   1
   4  -7  10 2.44237 1.39867   1
   4   0   2 128.174 4.57582   1
   4  -1   3 396.012 10.0413   1
   4  -2   4 2.56074 0.34496   1
   4  -3   5 145.522 5.09686   1
   4  -4   6 16.0341 1.22817   1
   4  -5   7 24.4166 1.64278   1
   4  -6   8 17.5258 2.17032   1
   4  -7   9 1.48748 0.77456   1
   4   0   1 122.031 4.47258   1
   4  -1   2 236.585  7.5482   1
   4  -2   3 42.9394 2.22711   1
   4  -3   4 1.35885 0.50158   1
   4  -4   5 3.41379 0.44643   1
   4  -5   6 3.63658 0.95611   1
   4  -6   7 10.2086 3.16877   1
   4  -7   8 4.29943 0.83828   1
   4  -8   9 0.70512 1.13099   1
   4  -1   1 188.113 6.33628   1
   4  -2   2 125.315 5.00537   1
   4  -3   3 249.634 6.33956   1
   4  -4   4 21.5757  1.3079   1
   4  -5   5 19.7511 1.28521   1
   4  -6   6 0.50413 0.75634   1
   4  -7   7 2.29889 0.72456   1
   4  -8   8 20.3773 2.20653   1
   4  -1   0 67.8562 2.85032   1
   4  -2   1  49.701 2.47577   1
   4  -3   2  8.2883 0.59038   1
   4  -4   3 65.7788 3.18401   1
   4  -5   4 3.29103 0.53335   1
   4  -6   5 57.1602 3.02588   1
   4  -7   6-0.25888 1.86668   1
   4  -8   7 10.4094 2.62639   1
   4  -9   8 1.83944 1.18359   1
   4  -1  -1 7.89829 0.46549   1
   4  -2   0 128.436 4.64226   1
   4  -3   1 28.5598 1.55116   1
   4  -4   2 0.28454 0.28159   1
   4  -5   3 13.8875   0.931   1
   4  -6   4 14.3281 1.04225   1
   4  -7   5 1.48502 0.44903   1
   4  -8   6 1.06309 0.82351   1
   4  -9   7 0.87744 0.83789   1
   4  -2  -1  100.81 3.89666   1
   4  -3   0 74.2138 3.44897   1
   4  -4   1 36.2302 1.93161   1
   4  -5   2-0.16301  0.5113   1
   4  -6   3 1.28671 0.43811   1
   4  -7   4 29.9786 1.86524   1
   4  -8   5 27.8319 3.27435   1
   4  -9   6  4.3912 0.95911   1
   4  -2  -2  13.458 0.81114   1
   4  -3  -1 111.636  4.5496   1
   4  -4   0 63.0494 2.70762   1
   4  -5   1 76.5174 3.56709   1
   4  -6   2 18.0069 1.15951   1
   4  -7   3 26.6072 1.68071   1
   4  -8   4 29.0593 2.27612   1
   4  -9   5 12.1302 1.40647   1
   4 -10   6 0.01393 1.98913   1
   4  -3  -2 65.3849 3.08463   1
   4  -4  -1 43.4235 1.99543   1
   4  -5   0 111.018 4.54618   1
   4  -6   1 3.47308 0.45379   1
   4  -7   2 40.6954 2.31751   1
   4  -8   3 0.09067 0.77856   1
   4  -9   4 5.53954 0.92878   1
   4 -10   5 0.70972 0.79814   1
   4  -3  -3 2.94224 0.82919   1
   4  -4  -2 42.4842 2.20554   1
   4  -5  -1 43.9045 2.05275   1
   4  -6   0 23.0551 1.41307   1
   4  -7   1 126.995 4.77113   1
   4  -8   2 97.2354 4.28555   1
   4  -9   3 1.85817 0.71125   1
   4 -10   4 0.29776 1.34206   1
   4  -4  -3  54.943 2.75394   1
   4  -5  -2  143.98 4.99682   1
   4  -6  -1 335.267 8.89376   1
   4  -7   0 329.396  14.689   1
   4  -8   1 1.24861 1.06984   1
   4  -9   2 0.89136 0.62434   1
   4 -10   3 14.4915 1.63038   1
   4 -11   4-0.09868 1.26826   1
   4  -4  -4 45.5303 2.42507   1
   4  -5  -3 7.11624 0.60738   1
   4  -6  -2  92.117 4.02204   1
   4  -7  -1 31.0177 2.24556   1
   4  -8   0 17.8757 1.30584   1
   4  -9   1 4.31526 0.79912   1
   4 -10   2 6.51767 1.07585   1
   4 -11   3 5.26613  1.2065   1
   4  -5  -4 17.4026 1.55974   1
   4  -6  -3 78.5874 3.68593   1
   4  -7  -2 4.07136 0.63617   1
   4  -8  -1 0.50201   0.457   1
   4  -9   0 14.7462 2.03222   1
   4 -10   1  0.6967 1.24037   1
   4 -11   2 0.84368 0.94301   1
   4  -5  -5 6.62872 0.66538   1
   4  -6  -4 11.8656 0.95303   1
   4  -7  -3 14.4362 1.11533   1
   4  -8  -2 22.9523 1.90884   1
   4  -9  -1 13.1005 1.37122   1
   4 -10   0 7.98112 1.57149   1
   4 -11   1-1.19563 1.19075   1
   4  -6  -5 5.32954 0.79377   1
   4  -7  -4 0.20473 0.58049   1
   4  -8  -3 1.42979 0.72543   1
   4  -9  -2 9.92627 1.65282   1
   4  -6  -6 31.6191 3.39863   1
   4  -7  -5 5.79362  1.3235   1
   4  -8  -4 17.8636 4.07355   1
   4  -9  -3  3.1476 1.07297   1
   4  -7  -6 16.0406 1.73143   1
   4  -8  -5 4.24681 0.85503   1
   4  -9  -4 27.2689 3.55182   1
   4  -7  -7 0.10983 1.75034   1
   4  -8  -6 0.01116  0.7843   1
   4  -9  -5 1.75896 1.15166   1
   3   6   7-0.06745 1.68874   1
   3   5   8 3.58574 1.04267   1
   3   4   9 6.59726 1.43016   1
   3   5   7 1.22598 0.64006   1
   3   4   8 0.85673 1.14836   1
   3   3   9 0.62072 0.88521   1
   3   2  10  2.2542 1.51391   1
   3   5   6 19.1617 1.51433   1
   3   4   7-0.68383 1.82896   1
   3   3   8 13.7999 2.28359   1
   3   1  10 10.6631 4.00974   1
   3   0  11 1.76329  1.6472   1
   3   4   6 2.17159 0.52785   1
   3   3   7 0.67453 0.63553   1
   3   2   8-0.02285 0.86419   1
   3   1   9 4.12729 2.07022   1
   3   0  10 7.31555  2.8043   1
   3  -1  11 4.81427 1.70444   1
   3   4   5 0.82155 0.57641   1
   3   3   6 10.8501 0.94123   1
   3   2   7-0.69109 0.74233   1
   3   1   8 1.60855 1.12591   1
   3   0   9 5.71542 3.27662   1
   3  -1  10 14.2732 3.26197   1
   3  -2  11 14.3068 3.18843   1
   3   3   5 1.84271 0.65281   1
   3   2   6 8.26846 0.92151   1
   3   1   7 0.52838 0.95145   1
   3   0   8  19.228 1.85171   1
   3  -1   9 1.20671 0.82429   1
   3  -2  10 12.8071 3.02392   1
   3  -3  11 12.2179 5.01343   1
   3   3   4 2.91243 1.39353   1
   3   2   5 10.9432 0.98934   1
   3   1   6 14.2449  1.8264   1
   3   0   7 8.78562  2.1697   1
   3  -1   8 103.169 6.37516   1
   3  -2   9 1.87388 1.26394   1
   3  -3  10  4.8024 2.02329   1
   3  -4  11 4.37816 1.47626   1
   3   2   4  7.0691 0.62427   1
   3   1   5-0.07911 0.74815   1
   3   0   6 12.6884  2.3856   1
   3  -1   7 64.0736 3.76571   1
   3  -2   8 107.665  5.1396   1
   3  -3   9 14.5317 2.78851   1
   3  -4  10 14.1113 5.09845   1
   3   2   3 3.97619  0.6566   1
   3   1   4 12.8301 1.50968   1
   3   0   5 0.21307 0.29311   1
   3  -1   6 60.2525 3.49201   1
   3  -2   7 83.8319 4.50296   1
   3  -3   8 0.25339 0.96081   1
   3  -4   9 4.09036 0.82051   1
   3  -5  10 1.68314 1.10104   1
   3  -6  11 3.50654 1.43572   1
   3   1   3 16.2988 1.36115   1
   3   0   4 79.5748 3.23329   1
   3  -1   5 11.6896 0.88554   1
   3  -2   6 7.53837 0.64712   1
   3  -3   7 39.7407 2.21636   1
   3  -4   8 46.1544 2.60662   1
   3  -5   9 0.20128 0.56803   1
   3  -6  10 4.08172 1.56822   1
   3   1   2 79.5489 3.23819   1
   3   0   3  7.9506 1.16068   1
   3  -1   4 124.899 5.31257   1
   3  -2   5 29.3818 1.59977   1
   3  -3   6 61.6737 3.10024   1
   3  -4   7 136.728  4.8762   1
   3  -5   8 3.57387 0.55132   1
   3  -6   9 22.7903 2.86745   1
   3  -7  10 1.79235 0.89497   1
   3   0   2 111.434 4.27665   1
   3  -1   3 0.13202 0.17958   1
   3  -2   4  19.077 1.07689   1
   3  -3   5 109.056 4.46156   1
   3  -4   6 17.1377 1.10138   1
   3  -5   7 0.59574 0.35256   1
   3  -6   8 3.82895 0.73588   1
   3  -7   9 0.54101 0.66574   1
   3  -8  10 2.54456 1.48304   1
   3   0   1 8.49166 0.52707   1
   3  -1   2 242.892  7.8198   1
   3  -2   3 3.29644 0.30952   1
   3  -3   4 229.373 6.33706   1
   3  -4   5 33.0859 2.68123   1
   3  -5   6 45.9428 2.50333   1
   3  -6   7 28.0759 2.14791   1
   3  -7   8 1.20645 1.06877   1
   3  -8   9 1.17239  1.6292   1
   3  -1   1 11.9198 0.68107   1
   3  -2   2 262.058 7.89997   1
   3  -3   3 497.129 13.3628   1
   3  -4   4 0.13833  0.2171   1
   3  -5   5 57.3556 2.91052   1
   3  -6   6 7.88419 0.90101   1
   3  -7   7 2.29538 0.62623   1
   3  -8   8 9.95629 1.28934   1
   3  -1   0 260.467 8.03548   1
   3  -2   1 1166.84 29.5385   1
   3  -3   2 355.639 9.61071   1
   3  -4   3 117.098 4.78594   1
   3  -5   4 2.50623  0.3834   1
   3  -6   5 7.04179 0.73725   1
   3  -7   6 0.50224 0.92284   1
   3  -8   7 3.57197 1.39631   1
   3  -9   8 0.51376 1.04454   1
   3  -1  -1 14.7282 0.71106   1
   3  -2   0 106.959 4.18896   1
   3  -3   1 148.013  5.8158   1
   3  -4   2 349.424 8.85926   1
   3  -5   3 71.6882  3.3813   1
   3  -6   4 40.7697 2.23394   1
   3  -7   5 1.69536 0.53987   1
   3  -8   6 0.92893 0.99587   1
   3  -9   7 2.11074 0.76128   1
   3  -2  -1 1.01956 0.30247   1
   3  -3   0 14.9893 0.83662   1
   3  -4   1 1.10642 0.21768   1
   3  -5   2  14.469 0.89064   1
   3  -6   3 85.0664 3.85145   1
   3  -7   4 4.47846 0.66575   1
   3  -8   5 32.7772 3.68656   1
   3  -9   6 1.35543 0.70433   1
   3 -10   7  7.2858 1.33281   1
   3  -2  -2 219.195 7.09173   1
   3  -3  -1 42.2148 1.87768   1
   3  -4   0 14.4415 0.74962   1
   3  -5   1 0.30854 0.24435   1
   3  -6   2 0.23795 0.26459   1
   3  -7   3 5.42835 0.54392   1
   3  -8   4 1.79174 0.59801   1
   3  -9   5 2.93017 0.75013   1
   3 -10   6 0.25708 0.85494   1
   3  -3  -2 81.8237 3.65612   1
   3  -4  -1 11.1405 0.68711   1
   3  -5   0 0.58065 0.16446   1
   3  -6   1 7.06345 0.56065   1
   3  -7   2 12.9821  0.9237   1
   3  -8   3-0.28704 0.75441   1
   3  -9   4  26.042 2.15106   1
   3 -10   5 7.41635 1.20233   1
   3  -3  -3 73.9672 3.38278   1
   3  -4  -2 9.87645 0.82729   1
   3  -5  -1 2.03009 0.23006   1
   3  -6   0 16.3878 0.89164   1
   3  -7   1 12.0711 0.99554   1
   3  -8   2 18.0086  1.5234   1
   3  -9   3 13.2599 1.36645   1
   3 -10   4  28.382 2.44708   1
   3 -11   5 3.97092 1.39491   1
   3  -4  -3   12.05 0.77846   1
   3  -5  -2 11.0175 0.64775   1
   3  -6  -1 17.2432 0.94204   1
   3  -7   0 1.83106 0.30296   1
   3  -8   1 1.92931 0.56455   1
   3  -9   2 0.65372 0.56935   1
   3 -10   3 0.67977  0.6761   1
   3 -11   4 4.44591 2.03811   1
   3  -4  -4 22.0168 1.29604   1
   3  -5  -3 57.7133 3.87717   1
   3  -6  -2 13.2461 0.79531   1
   3  -7  -1 124.149 4.30164   1
   3  -8   0 5.81361 0.62966   1
   3  -9   1 95.1958 5.49281   1
   3 -10   2 20.1977 3.24626   1
   3 -11   3 0.00892 1.27362   1
   3  -5  -4  0.0828 0.40828   1
   3  -6  -3 26.1818 1.56653   1
   3  -7  -2 13.2187 1.34006   1
   3  -8  -1 97.3258 3.82796   1
   3  -9   0  77.767 4.53477   1
   3 -10   1   4.067 2.11126   1
   3 -11   2 3.54652 0.97117   1
   3  -5  -5 24.6668 1.53686   1
   3  -6  -4 36.8525 2.12851   1
   3  -7  -3 0.65396 0.86893   1
   3  -8  -2 57.5936 3.07258   1
   3  -9  -1 42.7363 4.69143   1
   3 -10   0 6.62016 1.16345   1
   3 -11   1 0.80149 1.22685   1
   3  -6  -5 69.6371 6.16374   1
   3  -7  -4 4.88393  0.7281   1
   3  -8  -3 28.0372 2.22714   1
   3  -9  -2 1.40922 0.77462   1
   3  -6  -6 5.65323  0.8574   1
   3  -7  -5-0.13898 0.66778   1
   3  -8  -4 2.68634 0.71179   1
   3  -9  -3 11.4491 3.05962   1
   3  -7  -6 3.28104  0.7855   1
   3  -8  -5 4.37489 0.84017   1
   3  -9  -4 0.35539 0.95212   1
   3  -7  -7 6.38385 1.09897   1
   3  -8  -6  11.252 1.48179   1
   3  -9  -5 -0.2925 0.94801   1
   2   6   8-0.28145 1.26999   1
   2   5   9 2.36848 1.51656   1
   2   6   7 9.49428 1.10846   1
   2   5   8 4.62415  0.8497   1
   2   4   9 0.40943 1.19002   1
   2   3  10 5.03431  1.6144   1
   2   5   7 9.15492 0.99788   1
   2   4   8 6.40522 0.94666   1
   2   3   9 21.4729 1.75278   1
   2   2  10 8.32358  1.3045   1
   2   5   6 20.7662  1.5049   1
   2   4   7 0.80552 0.49183   1
   2   3   8 11.2395 1.05778   1
   2   2   9 15.6117 1.35153   1
   2   1  10-0.06353 1.16901   1
   2   4   6 1.61293 0.63917   1
   2   3   7 0.87285  0.6482   1
   2   2   8 0.63311 0.46707   1
   2   1   9 0.82682 0.47824   1
   2   0  10  1.8137 0.78242   1
   2  -1  11-0.03086 0.91717   1
   2  -2  12-0.82984 2.72964   1
   2   4   5 40.6978 2.30389   1
   2   3   6 18.8198 1.26683   1
   2   2   7 12.2935 0.97976   1
   2   1   8 7.66908  1.7283   1
   2   0   9 8.13491 0.89799   1
   2  -1  10 6.69785 2.89888   1
   2  -2  11 1.91157 0.81468   1
   2   3   5 108.899 4.49348   1
   2   2   6 30.7651 1.79876   1
   2   1   7 18.8032 1.25035   1
   2   0   8 2.12482 0.46155   1
   2  -1   9 0.97181 0.77714   1
   2  -2  10 18.3663 2.41298   1
   2  -3  11 1.35718 1.31027   1
   2   3   4 0.95618 0.46263   1
   2   2   5  0.0628 0.26024   1
   2   1   6  9.2352 0.82903   1
   2   0   7 2.07749 0.38487   1
   2  -1   8 49.8148 3.23408   1
   2  -2   9 1.29594  0.7475   1
   2  -3  10 37.4421 3.07774   1
   2  -4  11 4.20784 1.31633   1
   2   2   4 16.8637 1.58733   1
   2   1   5 133.222 5.11032   1
   2   0   6 13.2553 0.88825   1
   2  -1   7 36.0526 3.62324   1
   2  -2   8 4.64907 0.82051   1
   2  -3   9 19.1423 2.42745   1
   2  -4  10 -0.2705 0.86158   1
   2  -5  11  20.358 3.01287   1
   2   2   3 23.1083  1.2625   1
   2   1   4  101.25  4.3769   1
   2   0   5 56.1202 2.44627   1
   2  -1   6 3.27111 0.39763   1
   2  -2   7 1.76278 0.37465   1
   2  -3   8 36.9194 2.54843   1
   2  -4   9 6.85967 0.71806   1
   2  -5  10 0.70912 0.60949   1
   2  -6  11  1.0701 2.54771   1
   2   1   3 0.41252   0.184   1
   2   0   4 4.20913 0.31492   1
   2  -1   5 51.2235 2.24632   1
   2  -2   6 62.4906  2.7014   1
   2  -3   7 150.311 5.11473   1
   2  -4   8 57.9332 3.01094   1
   2  -5   9 4.75188 1.04876   1
   2  -6  10 0.66123 0.90951   1
   2  -7  11 2.29048 1.01104   1
   2   1   2 25.9553 1.31705   1
   2   0   3 1.50457 0.42187   1
   2  -1   4 1.20594 0.21443   1
   2  -2   5 27.6069 1.31978   1
   2  -3   6 68.5121 3.21645   1
   2  -4   7 219.869 8.03528   1
   2  -5   8 6.93877 1.19783   1
   2  -6   9 10.8817 1.25665   1
   2  -7  10 1.45361 0.69733   1
   2   0   2 95.2287 3.85443   1
   2  -1   3 111.133 4.32244   1
   2  -2   4 21.1103 1.00018   1
   2  -3   5 39.7576 2.02797   1
   2  -4   6 4.75518 0.88263   1
   2  -5   7 14.7257 1.05731   1
   2  -6   8 18.4425 1.63715   1
   2  -7   9 1.30464 0.64653   1
   2  -8  10-0.24506 1.20519   1
   2   0   1 93.8882 3.84977   1
   2  -1   2 128.246  5.5336   1
   2  -2   3 90.8877 4.04519   1
   2  -3   4 76.7498 3.47588   1
   2  -4   5  1.4575  0.3988   1
   2  -5   6 90.5038 4.02049   1
   2  -6   7 156.253 5.52775   1
   2  -7   8 0.48441 1.26599   1
   2  -8   9 21.4099 2.94105   1
   2  -1   1 0.32702 0.24819   1
   2  -2   2 19.0105 0.99879   1
   2  -3   3 32.1842  1.6558   1
   2  -4   4 91.5474 4.04372   1
   2  -5   5 93.7703 4.09848   1
   2  -6   6 11.8588 1.09154   1
   2  -7   7 2.74423 1.04811   1
   2  -8   8 3.40756 0.78793   1
   2  -9   9 3.05871 0.92495   1
   2  -1   0 134.053 5.39554   1
   2  -2   1 32.8249 1.63828   1
   2  -3   2 129.714 5.47015   1
   2  -4   3 25.8351 1.38362   1
   2  -5   4 55.1526 2.73947   1
   2  -6   5 23.8385 1.71568   1
   2  -7   6 32.3315 2.34508   1
   2  -8   7 16.1266 3.09002   1
   2  -9   8 0.55323 1.18707   1
   2  -1  -1 0.67346 0.19147   1
   2  -2   0 46.0263  1.9919   1
   2  -3   1  266.43 9.01187   1
   2  -4   2 312.953 7.97492   1
   2  -5   3 473.306 11.9956   1
   2  -6   4 8.44777 1.03449   1
   2  -7   5 33.6284 2.44686   1
   2  -8   6 10.9936  1.3809   1
   2  -9   7 1.52164 1.60293   1
   2  -2  -1 29.2058 1.46869   1
   2  -3   0 19.9602 0.92289   1
   2  -4   1 446.001 10.9429   1
   2  -5   2 68.0386 2.85706   1
   2  -6   3 0.13795 0.18529   1
   2  -7   4  1.3948 0.51367   1
   2  -8   5 0.17423 0.45608   1
   2  -9   6 1.06188  0.5812   1
   2 -10   7 1.52174 0.86465   1
   2  -2  -2 881.858 22.0907   1
   2  -3  -1 534.805 14.6392   1
   2  -4   0 6.71813 0.43296   1
   2  -5   1 34.8506 1.60556   1
   2  -6   2  37.348 1.81367   1
   2  -7   3 2.69714 0.49693   1
   2  -8   4 2.28477 0.56354   1
   2  -9   5 1.07421 0.62468   1
   2 -10   6 1.10256 0.80128   1
   2  -3  -2 9.22785 0.73824   1
   2  -4  -1 75.8973 3.12502   1
   2  -5   0  30.025 1.40993   1
   2  -6   1 31.7215 1.52503   1
   2  -7   2 21.7896 1.15786   1
   2  -8   3 3.21831 0.62833   1
   2  -9   4 2.00534 0.66684   1
   2 -10   5  4.3385 1.02186   1
   2 -11   6-0.40876 1.12434   1
   2  -3  -3 6.55053 0.44853   1
   2  -4  -2  229.29 6.96638   1
   2  -5  -1  60.175 2.59175   1
   2  -6   0 69.4046 2.93544   1
   2  -7   1 2.46554  0.4654   1
   2  -8   2  24.878 1.94122   1
   2  -9   3 2.81175 0.65762   1
   2 -10   4  4.0186 0.90599   1
   2 -11   5 -0.3218 1.64547   1
   2  -4  -3 49.3974 2.19903   1
   2  -5  -2 25.9685  1.2738   1
   2  -6  -1 44.4576 2.05909   1
   2  -7   0 0.18924 0.51018   1
   2  -8   1 14.7024 1.70012   1
   2  -9   2 1.46814 0.87225   1
   2 -10   3 2.20612 1.50512   1
   2 -11   4 4.28129 1.10408   1
   2  -4  -4 30.2223 1.47345   1
   2  -5  -3 58.3701 2.71069   1
   2  -6  -2 1.50925 0.25117   1
   2  -7  -1 4.70233 0.67581   1
   2  -8   0 18.1311 1.31473   1
   2  -9   1 16.9107  1.9863   1
   2 -10   2 11.1692 1.30586   1
   2 -11   3 15.3033 2.17385   1
   2  -5  -4 0.16523 0.22767   1
   2  -6  -3 1.16636 0.26785   1
   2  -7  -2 2.58035 0.36467   1
   2  -8  -1 0.50999 0.33536   1
   2  -9   0 0.50679 0.46264   1
   2 -10   1 2.95171 1.78048   1
   2 -11   2 0.77295 1.29153   1
   2  -5  -5 0.24095 0.35496   1
   2  -6  -4 2.46551 0.68933   1
   2  -7  -3 24.3529 3.04278   1
   2  -8  -2 1.06507 0.57086   1
   2  -9  -1 45.3559 3.21363   1
   2 -10   0 1.67312 1.18796   1
   2  -6  -5-0.13916 0.64744   1
   2  -7  -4 4.56474  0.7026   1
   2  -8  -3  15.128  1.4249   1
   2  -9  -2 4.61578 1.79689   1
   2 -10  -1 27.0805 3.49804   1
   2 -11   0 12.1627 2.31389   1
   2  -6  -6  3.9208 1.95273   1
   2  -7  -5-0.00534 0.59883   1
   2  -8  -4 6.58432 1.26831   1
   2  -9  -3  1.7738 0.89355   1
   2 -10  -2 16.5794 2.42505   1
   2  -7  -6 6.68259 1.88447   1
   2  -8  -5  7.6462 1.06504   1
   2  -9  -4 0.91882 0.62515   1
   2 -10  -3-0.06152 1.01899   1
   2  -7  -7 1.50472  0.7054   1
   2  -8  -6 16.5564 1.79295   1
   2  -9  -5 1.42278 0.74026   1
   2 -10  -4  6.9414 1.75359   1
   2  -8  -7 7.38555 1.71528   1
   2  -9  -6 1.62523 1.07712   1
   1   6   8 1.41737 0.86074   1
   1   5   9 0.25253 0.83413   1
   1   4  10-0.94329 1.13092   1
   1   6   7 2.83398 0.80139   1
   1   5   8 0.76668  1.3888   1
   1   4   9 8.74925 1.24162   1
   1   3  10 9.96095 1.43174   1
   1   2  11  1.2919 1.39786   1
   1   5   7 0.79728 0.51425   1
   1   4   8-0.38939 1.06679   1
   1   3   9 1.58182 0.63805   1
   1   2  10 2.51506 0.89561   1
   1   1  11 0.62257 1.09799   1
   1   5   6 58.4333 3.16604   1
   1   4   7 45.8433 2.67606   1
   1   3   8 39.9695 2.44749   1
   1   2   9 2.49599 0.70799   1
   1   1  10-0.60828  2.9391   1
   1   0  11 4.47453 1.48685   1
   1  -1  12 0.68918 1.42877   1
   1   4   6 7.57333 0.72446   1
   1   3   7  54.996 2.96659   1
   1   2   8 52.3041 2.90923   1
   1   1   9 68.6798 3.58043   1
   1   0  10 1.24317 0.66832   1
   1  -1  11 0.58632 1.08363   1
   1   4   5 49.7408 2.87158   1
   1   3   6 2.32716 0.70455   1
   1   2   7 5.99367 0.60267   1
   1   1   8 5.69841 0.62539   1
   1   0   9 85.3323 4.02929   1
   1  -1  10 1.39114 0.65903   1
   1   3   5  49.065 2.54383   1
   1   2   6 0.22505 0.37544   1
   1   1   7 15.6932  1.0617   1
   1   0   8 9.76659 1.11856   1
   1  -1   9 0.21627 0.40008   1
   1  -2  10 13.6358 1.82578   1
   1   3   4 13.6109  0.8711   1
   1   2   5 13.4271  1.4672   1
   1   1   6 1.51401  0.2851   1
   1   0   7  1.0756  0.3103   1
   1  -1   8 5.87168 0.58351   1
   1  -2   9 0.04164 0.38157   1
   1  -3  10 18.4744 2.43224   1
   1   2   4 94.1939 4.15506   1
   1   1   5 456.642 11.6248   1
   1   0   6 0.41715 0.27063   1
   1  -1   7 34.1186  1.6743   1
   1  -2   8 10.1552 0.76664   1
   1  -3   9 0.98446 0.43437   1
   1  -4  10 34.6939 3.85945   1
   1  -5  11 4.45553 1.23364   1
   1   2   3-0.33144 0.46793   1
   1   1   4 21.2904 1.72176   1
   1   0   5  169.54 5.53465   1
   1  -1   6 11.3359 0.73635   1
   1  -2   7 63.0726 4.59286   1
   1  -3   8 32.2658 1.66932   1
   1  -4   9 5.01758 1.00284   1
   1  -5  10 10.8849 1.27247   1
   1  -6  11 2.01757 0.83552   1
   1   1   3 97.5033 4.38935   1
   1   0   4 108.884 4.23226   1
   1  -1   5 114.698 4.31447   1
   1  -2   6 0.06265 0.24248   1
   1  -3   7 6.05705 0.50736   1
   1  -4   8 1.56586  0.4295   1
   1  -5   9 3.19016  3.3218   1
   1  -6  10 9.56776 1.23455   1
   1  -7  11 9.04889 1.39469   1
   1   1   2 728.105 18.4558   1
   1   0   3  133.42 5.18364   1
   1  -1   4  0.0602 0.13176   1
   1  -2   5 174.247 6.10036   1
   1  -3   6 10.3079 0.73615   1
   1  -4   7 12.6938 0.86074   1
   1  -5   8 35.9498 2.54766   1
   1  -6   9 2.93217 0.67665   1
   1  -7  10 4.26116 0.93446   1
   1   0   2 2167.89 53.1482   1
   1  -1   3 67.1367 3.17827   1
   1  -2   4 0.83568 0.18726   1
   1  -3   5 8.60771 0.57802   1
   1  -4   6 23.6491 1.23227   1
   1  -5   7 56.6783 2.88797   1
   1  -6   8 45.4566 3.41763   1
   1  -7   9 5.97716 0.92389   1
   1  -8  10 0.57217 0.76279   1
   1   0   1 191.252 7.97267   1
   1  -1   2 13.5474 0.88484   1
   1  -2   3 181.591 6.64209   1
   1  -3   4 23.6618 1.09918   1
   1  -4   5 0.28409 0.23587   1
   1  -5   6 86.5577 3.83679   1
   1  -6   7 143.996 8.68789   1
   1  -7   8 8.72709  1.3942   1
   1  -8   9 5.48664 2.50026   1
   1  -1   1  56.896 2.76732   1
   1  -2   2 625.562 26.2493   1
   1  -3   3 33.5058 1.65038   1
   1  -4   4 143.878 5.02869   1
   1  -5   5 39.8642 1.85833   1
   1  -6   6 55.6545 2.83485   1
   1  -7   7 1.51924 0.55578   1
   1  -8   8 13.7825  1.4656   1
   1  -9   9 0.99556 0.85286   1
   1  -1   0 34.6341 1.51057   1
   1  -2   1  19.601 0.99441   1
   1  -3   2 31.3938 1.39524   1
   1  -4   3 7.54002 0.45341   1
   1  -5   4 25.1086 1.22106   1
   1  -6   5 6.89287 0.57261   1
   1  -7   6 45.9642 3.17514   1
   1  -8   7 71.1664 4.32527   1
   1  -9   8-0.36207 0.94509   1
   1  -1  -1 1329.16 45.2826   1
   1  -2   0 12.9366 0.59441   1
   1  -3   1 33.6008  1.4817   1
   1  -4   2 196.284 6.50771   1
   1  -5   3 5.26986 0.34741   1
   1  -6   4 11.5144 0.76116   1
   1  -7   5 113.474 4.49852   1
   1  -8   6 18.6663  1.6398   1
   1  -9   7 0.97322 2.43903   1
   1 -10   8 0.30928 0.87283   1
   1  -2  -1 790.942 19.3936   1
   1  -3   0 95.8768 3.91297   1
   1  -4   1 43.9089 1.92419   1
   1  -5   2 138.206  5.3362   1
   1  -6   3 86.8178 3.82898   1
   1  -7   4 38.2092 2.09603   1
   1  -8   5 10.9545 1.12289   1
   1  -9   6 35.3571 2.72915   1
   1 -10   7  4.9814 2.40696   1
   1  -2  -2 104.519 4.21444   1
   1  -3  -1 30.8241 1.37502   1
   1  -4   0 344.788  8.7029   1
   1  -5   1 12.9082 0.66732   1
   1  -6   2 158.052 5.47402   1
   1  -7   3 59.1375 2.92831   1
   1  -8   4 7.59458 0.91288   1
   1  -9   5 1.56302 0.62541   1
   1 -10   6 1.01099 0.71673   1
   1  -3  -2  22.645 1.04768   1
   1  -4  -1  62.123 2.63461   1
   1  -5   0 9.97834 0.54483   1
   1  -6   1 20.1462 1.02169   1
   1  -7   2   98.65  4.1709   1
   1  -8   3 6.50677 0.63517   1
   1  -9   4 3.01433 0.73053   1
   1 -10   5-0.19176 0.97223   1
   1 -11   6 1.95615 0.90726   1
   1  -3  -3  98.078  3.8507   1
   1  -4  -2 538.615 14.1107   1
   1  -5  -1 45.5797 2.03757   1
   1  -6   0 34.4784 1.63311   1
   1  -7   1 6.95352 0.57701   1
   1  -8   2 12.8976 0.94388   1
   1  -9   3 6.85369 0.93892   1
   1 -10   4 1.29883 0.71593   1
   1 -11   5 2.13408 1.03824   1
   1  -4  -3 148.259 5.01946   1
   1  -5  -2 18.6629 0.95071   1
   1  -6  -1  37.775 1.78639   1
   1  -7   0 0.55735  0.2606   1
   1  -8   1 13.4733 0.98158   1
   1  -9   2 0.81718 0.43866   1
   1 -10   3  1.0176 1.33803   1
   1 -11   4 0.29245 0.90877   1
   1  -4  -4 0.60101 0.17803   1
   1  -5  -3 0.70791  0.2022   1
   1  -6  -2  29.599 1.47597   1
   1  -7  -1 2.03852 0.43777   1
   1  -8   0 14.6812 1.03624   1
   1  -9   1 0.16954 0.93604   1
   1 -10   2  5.9441 0.97552   1
   1 -11   3 -0.4306  2.9459   1
   1 -12   4-0.32701 1.58134   1
   1  -5  -4 26.7777 1.56862   1
   1  -6  -3 53.7458  2.7926   1
   1  -7  -2 17.4788 1.18197   1
   1  -8  -1 2.24947 0.65783   1
   1  -9   0 1.65365 0.61654   1
   1 -10   1  0.2464 0.66181   1
   1 -11   2-1.64306    1.24   1
   1  -5  -5 3.18347 0.52452   1
   1  -6  -4 1.51686 0.36932   1
   1  -7  -3 21.5853  1.8389   1
   1  -8  -2 3.10671 0.85164   1
   1  -9  -1 3.71503 0.78023   1
   1 -10   0 1.58033 1.15839   1
   1 -11   1 6.05128 1.78251   1
   1  -6  -5 2.14662 0.52199   1
   1  -7  -4-0.02235 0.92317   1
   1  -8  -3 0.19273 0.40949   1
   1  -9  -2 4.05291 1.12873   1
   1 -10  -1-0.37418 1.08818   1
   1 -11   0 0.24241 0.93883   1
   1  -6  -6 62.0751  3.9566   1
   1  -7  -5 1.16094 0.48778   1
   1  -8  -4 6.72408 2.24721   1
   1  -9  -3 17.3078 2.85463   1
   1 -10  -2-1.26936  2.1901   1
   1 -11  -1 14.8263 6.12334   1
   1  -7  -6 9.25308 1.14047   1
   1  -8  -5 3.73858  0.7427   1
   1  -9  -4 0.78949 0.94841   1
   1 -10  -3 5.20861 1.49974   1
   1 -11  -2 2.27621 1.56661   1
   1  -7  -7-0.21714 1.82871   1
   1  -8  -6 0.15554 1.30748   1
   1  -9  -5 0.67671 1.12955   1
   1 -10  -4 0.67671 1.20868   1
   1  -8  -7 2.90073 1.46343   1
   0   6   8 1.70036 0.83852   1
   0   5   9 14.1521 1.72932   1
   0   4  10 3.08621 1.36029   1
   0   6   7 2.54026 1.30921   1
   0   5   8 17.4932 1.78923   1
   0   4   9 14.3756 2.79424   1
   0   3  10 1.53044 0.83823   1
   0   2  11 3.52156 1.09296   1
   0   5   7 35.3812 6.35771   1
   0   4   8 0.42542 0.67441   1
   0   3   9 3.14626 1.23559   1
   0   2  10 3.81931 0.89425   1
   0   1  11 0.16048 1.14047   1
   0   0  12 0.46634  0.9473   1
   0   5   6 1.19657 1.03488   1
   0   4   7 2.04884 0.56312   1
   0   3   8 0.43639 0.48731   1
   0   2   9 0.01654  0.9949   1
   0   1  10 21.1283 1.94742   1
   0   0  11 2.95657 0.96747   1
   0  -1  12 1.17264 1.38779   1
   0   4   6 19.4312 1.28417   1
   0   3   7  5.5303  0.5961   1
   0   2   8 18.5059  1.5615   1
   0   1   9 5.20085 0.83026   1
   0   0  10 0.40594 0.56163   1
   0  -1  11 9.70976 1.73981   1
   0   4   5 293.828  7.4692   1
   0   3   6 88.5079 3.97545   1
   0   2   7  241.05 6.13512   1
   0   1   8 17.5919 1.46009   1
   0   0   9 29.2437 3.92559   1
   0  -1  10 11.8283 2.10181   1
   0  -2  11 5.70913 0.96454   1
   0   3   5 29.3692 1.63892   1
   0   2   6 112.705 4.59477   1
   0   1   7 9.99775 0.75194   1
   0   0   8 201.801 5.14157   1
   0  -1   9 21.9724 1.77149   1
   0  -2  10 0.09314 0.62473   1
   0   3   4 0.35283 0.17582   1
   0   2   5  52.619 2.34635   1
   0   1   6 44.1719 2.35711   1
   0   0   7 25.0022 1.28828   1
   0  -1   8  72.942 3.51272   1
   0  -2   9 114.743 4.14736   1
   0  -3  10 9.21761 1.54324   1
   0   2   4 0.04884 0.11334   1
   0   1   5 60.9985 2.60822   1
   0   0   6 7.61597 0.53677   1
   0  -1   7 0.02062  0.3656   1
   0  -2   8-0.11192 0.62755   1
   0  -3   9 17.1546 1.49229   1
   0  -4  10 2.31722 1.03781   1
   0   2   3 124.093 4.74071   1
   0   1   4 8.52547 0.64597   1
   0   0   5 55.5988 2.69679   1
   0  -1   6  17.847 0.91141   1
   0  -2   7 7.16899 0.73866   1
   0  -3   8 16.4593 1.09382   1
   0  -4   9 9.85234 0.85456   1
   0  -5  10 30.9435 3.53021   1
   0  -6  11 3.40296 1.25819   1
   0   1   3 93.8491 3.82018   1
   0   0   4 41.2701 1.81567   1
   0  -1   5 441.768 10.8401   1
   0  -2   6 29.8224 1.42607   1
   0  -3   7 19.0874 1.14693   1
   0  -4   8 0.52846 0.33957   1
   0  -5   9 0.99796 0.44353   1
   0  -6  10 11.1674 1.84101   1
   0  -7  11 3.50515 1.39872   1
   0   1   2 26.3782 1.16574   1
   0   0   3 160.392 6.89418   1
   0  -1   4 207.651 6.98215   1
   0  -2   5 86.4435 3.47515   1
   0  -3   6 3.06219 0.27638   1
   0  -4   7 14.8743 1.33286   1
   0  -5   8 24.3235 1.62439   1
   0  -6   9 0.63779 0.54014   1
   0  -7  10 4.26806 1.68725   1
   0   0   2  80.177 3.41796   1
   0  -1   3 179.768 6.82506   1
   0  -2   4 0.25482 0.15572   1
   0  -3   5 75.1204  3.0985   1
   0  -4   6 2.88707 0.33539   1
   0  -5   7 2.79973 0.61616   1
   0  -6   8 0.79793 0.54015   1
   0  -7   9 1.60009 0.64621   1
   0  -8  10 5.32504 1.12788   1
   0   0   1 319.825 14.7629   1
   0  -1   2 1760.85 45.8129   1
   0  -2   3 1.78052  0.1958   1
   0  -3   4 38.0827 1.92439   1
   0  -4   5 56.7254 2.46519   1
   0  -5   6 0.76869 0.28698   1
   0  -6   7  2.6323 0.45607   1
   0  -7   8 8.28136 2.19165   1
   0  -8   9 1.59447 1.31579   1
   0  -9  10 1.05196 1.49006   1
   0  -1   1 876.013 41.3857   1
   0  -2   2 3238.41 79.3926   1
   0  -3   3 59.7916  2.5389   1
   0  -4   4 60.8359 2.59325   1
   0  -5   5 35.8505 1.89401   1
   0  -6   6 6.06985 0.56867   1
   0  -7   7 32.5468 1.98976   1
   0  -8   8 16.3135 1.65468   1
   0  -9   9 1.89314  0.8784   1
   0  -1   0 193.288  9.5805   1
   0  -2   1 945.735  30.526   1
   0  -3   2 290.668 10.0393   1
   0  -4   3 162.452 6.10884   1
   0  -5   4 16.9593 0.98456   1
   0  -6   5-0.17993 0.44663   1
   0  -7   6 17.4756 1.21724   1
   0  -8   7 85.6258 4.79147   1
   0  -9   8 9.29575 1.29626   1
   0  -1  -1 18.5008 0.81932   1
   0  -2   0 596.066 20.6441   1
   0  -3   1 91.7785 4.22364   1
   0  -4   2 242.116 7.89732   1
   0  -5   3 145.917 5.44853   1
   0  -6   4 32.8151 1.78522   1
   0  -7   5  59.493 3.00989   1
   0  -8   6 30.3562 1.91859   1
   0  -9   7 1.89603 2.32029   1
   0 -10   8 2.57661 0.96502   1
   0  -2  -1 168.111 6.66553   1
   0  -3   0 266.319 9.04858   1
   0  -4   1 1.20043 0.36891   1
   0  -5   2 143.367 5.45862   1
   0  -6   3 4.84118 0.62105   1
   0  -7   4 18.7532 1.18681   1
   0  -8   5  4.4266  0.5974   1
   0  -9   6 16.4852 1.65685   1
   0 -10   7 74.0885  7.9779   1
   0  -2  -2 19.4516 0.88611   1
   0  -3  -1 175.798 6.41162   1
   0  -4   0  2.4102 0.23504   1
   0  -5   1 2.00468 0.21558   1
   0  -6   2 11.3413 0.73958   1
   0  -7   3 1.54093 0.33775   1
   0  -8   4 27.9464 1.72638   1
   0  -9   5 54.8512 3.05028   1
   0 -10   6 5.14601 1.02613   1
   0  -3  -2 6.18025 0.34538   1
   0  -4  -1 88.0399 3.54467   1
   0  -5   0 1.20082  0.1822   1
   0  -6   1 4.35032 0.42877   1
   0  -7   2 62.2296 3.04489   1
   0  -8   3 16.1723 1.13702   1
   0  -9   4 8.52089 0.85029   1
   0 -10   5 1.49038 0.70481   1
   0 -11   6 13.9491  2.4378   1
   0  -3  -3  0.1714  0.3384   1
   0  -4  -2 4.04546 0.67979   1
   0  -5  -1 29.4072 1.38818   1
   0  -6   0  28.208 1.37704   1
   0  -7   1 3.74818 0.50142   1
   0  -8   2 7.89221 1.08767   1
   0  -9   3 16.3234 1.51526   1
   0 -10   4  -0.173 0.95512   1
   0 -11   5 1.38268 0.95402   1
   0  -4  -3  82.646 3.34319   1
   0  -5  -2 2.88855 0.35195   1
   0  -6  -1 0.77835 0.21642   1
   0  -7   0 4.23006 0.85721   1
   0  -8   1   18.40 1.22365   1
   0  -9   2 22.7009 1.54174   1
   0 -10   3 0.75716 0.60483   1
   0 -11   4 0.03546 0.93527   1
   0  -4  -4 7.14666 0.55856   1
   0  -5  -3 13.4616 0.86668   1
   0  -6  -2 56.0837 2.84529   1
   0  -7  -1 15.9426 1.32317   1
   0  -8   0 5.46326 0.77578   1
   0  -9   1 7.08833 1.14622   1
   0 -10   2 9.00285 1.20422   1
   0 -11   3 1.61301 1.53103   1
   0  -5  -4 51.4511  2.6854   1
   0  -6  -3 59.6521 3.03128   1
   0  -7  -2-0.35423 0.63863   1
   0  -8  -1  4.3842 0.81663   1
   0  -9   0 0.71186 0.61713   1
   0 -10   1 5.03343 1.43896   1
   0 -11   2 1.29757 1.19721   1
   0  -5  -5 7.40832 0.67759   1
   0  -6  -4 1.16892 0.37223   1
   0  -7  -3 15.5338 1.51835   1
   0  -8  -2 3.50281 0.75221   1
   0  -9  -1 1.18508 0.67544   1
   0 -10   0 3.40034  0.9258   1
   0 -11   1 0.10116 1.00561   1
   0  -6  -5 0.58373 0.58098   1
   0  -7  -4 28.8323 1.86965   1
   0  -8  -3  11.134  1.2339   1
   0  -9  -2 0.21523 0.91364   1
   0 -10  -1-0.47803 1.05046   1
   0 -11   0-0.62677 3.77583   1
   0  -6  -6 21.7079 1.99898   1
   0  -7  -5  0.6096 0.46955   1
   0  -8  -4 4.54329 0.87534   1
   0  -9  -3 12.3454 1.44217   1
   0 -10  -2-0.20183 1.90063   1
   0 -11  -1 0.52291 1.06762   1
   0  -7  -6-0.12778 0.80819   1
   0  -8  -5 0.75176  1.8172   1
   0  -9  -4 0.48501 2.30114   1
   0 -10  -3 1.50273 1.01531   1
   0 -11  -2 0.78146 1.87338   1
   0  -7  -7 18.9271 4.51906   1
   0  -8  -6  7.9932 2.95468   1
   0  -9  -5 1.84557 1.29051   1
   0  -8  -7 18.9988 3.11431   1
  -1   6   8 43.3094 4.96283   1
  -1   5   9  6.4684 3.17527   1
  -1   4  10 16.6681 4.18939   1
  -1   6   7 19.7122  1.8801   1
  -1   5   8  28.876 2.43473   1
  -1   4   9 19.3509 2.09156   1
  -1   3  10 4.30765 0.99425   1
  -1   2  11 3.05014 1.03816   1
  -1   5   7 44.8157 5.71505   1
  -1   4   8 5.09475 0.85777   1
  -1   3   9  4.0967 0.84048   1
  -1   2  10 3.95345  0.8677   1
  -1   1  11 3.80894 0.98164   1
  -1   0  12  6.3333 2.73235   1
  -1   5   6 15.6009 1.40056   1
  -1   4   7 0.48167 0.88487   1
  -1   3   8 80.5205 4.56245   1
  -1   2   9 26.5627 2.17658   1
  -1   1  10 18.9312 1.82595   1
  -1   0  11  1.7104 0.76441   1
  -1  -1  12 7.18926 1.31046   1
  -1   4   6 56.7105 3.48916   1
  -1   3   7 36.8345 2.62475   1
  -1   2   8 3.18777 0.85837   1
  -1   1   9 0.25115 0.48269   1
  -1   0  10 1.28213 1.39149   1
  -1  -1  11 0.03663 0.66318   1
  -1  -2  12 0.93304 1.23115   1
  -1   4   5 5.53884 0.49381   1
  -1   3   6 23.0378 2.00685   1
  -1   2   7  -0.452 0.44615   1
  -1   1   8 18.4121 1.52721   1
  -1   0   9 23.7485  1.9082   1
  -1  -1  10 30.0341  2.4023   1
  -1   3   5 5.35669 0.37927   1
  -1   2   6 9.36119 0.67523   1
  -1   1   7  39.041 2.11035   1
  -1   0   8 0.43102 0.38782   1
  -1  -1   9 10.1199 1.57232   1
  -1  -2  10 21.1871 1.85068   1
  -1  -4  12 1.30215 1.31241   1
  -1   3   4 37.8416 1.73432   1
  -1   2   5 518.214 12.7156   1
  -1   1   6 41.9431 1.94157   1
  -1   0   7 171.766 5.02582   1
  -1  -1   8 1.74715 0.37339   1
  -1  -2   9 9.35991 0.82752   1
  -1  -3  10 6.48333 1.06814   1
  -1  -4  11  1.8851 2.94159   1
  -1  -5  12 0.47008 1.46657   1
  -1   2   4 193.045 6.08984   1
  -1   1   5 31.2274 1.64013   1
  -1   0   6 46.8306 2.11491   1
  -1  -1   7 0.06839 0.43389   1
  -1  -2   8  111.71 4.45172   1
  -1  -3   9 16.7356 1.47819   1
  -1  -4  10 3.22055  1.1017   1
  -1  -5  11 4.03181 1.03475   1
  -1   2   3 943.734 23.1413   1
  -1   1   4 42.7028 2.09126   1
  -1   0   5 296.143 7.27113   1
  -1  -1   6 10.3765 0.83263   1
  -1  -2   7 0.13959 0.20451   1
  -1  -3   8 54.7507 2.82569   1
  -1  -4   9  65.364 7.03634   1
  -1  -5  10 1.06495 0.67514   1
  -1  -6  11 7.70521 1.89409   1
  -1   1   3 150.211  6.1927   1
  -1   0   4 96.9492 4.24283   1
  -1  -1   5  353.09 8.66693   1
  -1  -2   6 48.1372 2.44049   1
  -1  -3   7 15.6929 0.88017   1
  -1  -4   8  5.9293 0.58074   1
  -1  -5   9 5.44186 1.16683   1
  -1  -6  10-0.54342 1.00807   1
  -1   1   2 83.7187 3.86435   1
  -1   0   3 450.177 12.8073   1
  -1  -1   4 65.1277 2.74169   1
  -1  -2   5 22.5674 1.07994   1
  -1  -3   6 15.7277 0.83342   1
  -1  -4   7 4.26216 0.45424   1
  -1  -5   8 0.23208 0.38555   1
  -1  -6   9 7.22809   0.802   1
  -1  -7  10  7.8074 1.62458   1
  -1   0   2 11.2664 0.90183   1
  -1  -1   3 703.166 17.2428   1
  -1  -2   4 32.4755  1.4649   1
  -1  -3   5 553.275 14.6448   1
  -1  -4   6 6.23817 0.50935   1
  -1  -5   7 36.2051 2.04673   1
  -1  -6   8 3.33465 0.55823   1
  -1  -7   9 0.00389 0.89372   1
  -1  -8  10 2.31974 1.20331   1
  -1   0   1 228.242 10.6438   1
  -1  -1   2 113.106 4.66893   1
  -1  -2   3 34.8409 1.53959   1
  -1  -3   4 102.763 3.99719   1
  -1  -4   5 107.177 4.42851   1
  -1  -5   6 2.19801 0.76024   1
  -1  -6   7 18.6035 1.27231   1
  -1  -7   8 13.6764 1.22611   1
  -1  -8   9-0.04018   0.962   1
  -1   0   0 219.807 9.60045   1
  -1  -1   1 5.43655 0.51157   1
  -1  -2   2 530.905 14.8422   1
  -1  -3   3 220.684 7.61878   1
  -1  -4   4 73.2173 3.35727   1
  -1  -5   5 15.3739 0.95136   1
  -1  -6   6  7.0412 0.70075   1
  -1  -7   7 1.34053 0.47493   1
  -1  -8   8 3.04934 0.81386   1
  -1  -9   9 1.43007 0.86383   1
  -1  -1   0 277.625 12.6089   1
  -1  -2   1 448.376 15.3915   1
  -1  -3   2 657.824 16.5129   1
  -1  -4   3 64.0284 2.99843   1
  -1  -5   4 12.4988  0.7828   1
  -1  -6   5 65.0265 3.15982   1
  -1  -7   6 2.12785  0.5681   1
  -1  -8   7  2.7608 0.88207   1
  -1  -9   8  4.9298 2.55067   1
  -1  -1  -1 1921.82 50.0304   1
  -1  -2   010050.40 272.716   1
  -1  -3   1 108.375 4.75345   1
  -1  -4   2 223.555 7.27073   1
  -1  -5   3 21.7058 1.57048   1
  -1  -6   4 1.31155 0.31077   1
  -1  -7   5 1.69979 0.48902   1
  -1  -8   6 4.47083 0.66474   1
  -1  -9   7 3.24036  0.7555   1
  -1 -10   8 2.94549 1.59757   1
  -1  -2  -1 1214.82 30.7875   1
  -1  -3   0 722.999 17.7302   1
  -1  -4   1 26.8059 1.87264   1
  -1  -5   2 72.3102 3.32437   1
  -1  -6   3 0.80144 0.33623   1
  -1  -7   4 1.15097  0.3762   1
  -1  -8   5 4.29833 0.62805   1
  -1  -9   6 15.8434 1.32964   1
  -1 -10   7 32.2727 2.86923   1
  -1  -2  -2 77.1561 3.59761   1
  -1  -3  -1 33.4463 1.49291   1
  -1  -4   0 8.97906 0.88025   1
  -1  -5   1 1.65228  0.3373   1
  -1  -6   2  4.2951 0.42208   1
  -1  -7   3 15.2406 1.02223   1
  -1  -8   4 2.23297 0.58186   1
  -1  -9   5 12.5158 1.12243   1
  -1 -10   6 13.4006 1.33541   1
  -1  -3  -2 139.721 5.65513   1
  -1  -4  -1 178.954  5.8441   1
  -1  -5   0 12.1516 0.67619   1
  -1  -6   1 13.4914 0.96405   1
  -1  -7   2 6.86551 0.61623   1
  -1  -8   3 8.17672  0.7975   1
  -1  -9   4 1.23283 0.82523   1
  -1 -10   5 6.23422 0.88377   1
  -1 -11   6 3.40296 1.69832   1
  -1  -3  -3 128.428 5.18008   1
  -1  -4  -2 7.05704 0.72194   1
  -1  -5  -1 167.255 5.28406   1
  -1  -6   0-0.05767 0.54463   1
  -1  -7   1 10.7221 0.80837   1
  -1  -8   2 0.26227 0.40678   1
  -1  -9   3 1.65964  0.7717   1
  -1 -10   4 9.26872 1.02603   1
  -1 -11   5 12.8045  2.2869   1
  -1  -4  -3 16.1332 0.96927   1
  -1  -5  -2 9.55969 0.67385   1
  -1  -6  -1  18.285 1.13078   1
  -1  -7   0 9.03724 1.52331   1
  -1  -8   1 0.08126 1.21693   1
  -1  -9   2 9.43663 1.14129   1
  -1 -10   3 10.0999 2.38414   1
  -1 -11   4 1.13708 2.10405   1
  -1  -4  -4  1.3733 0.29046   1
  -1  -5  -3  4.5313 0.46145   1
  -1  -6  -2-0.08087  1.0642   1
  -1  -7  -1 1.29462 0.63134   1
  -1  -8   0 8.92969 1.10986   1
  -1  -9   1 6.52722  0.9715   1
  -1 -10   2 0.43276 0.98905   1
  -1 -11   3 3.27501 1.10183   1
  -1  -5  -4 0.69891 0.52233   1
  -1  -6  -3  44.429 2.84631   1
  -1  -7  -2 0.83185 0.51869   1
  -1  -8  -1 1.21909  0.6153   1
  -1  -9   0 2.80705 1.83085   1
  -1 -10   1  2.1983 1.74904   1
  -1 -11   2  4.0664 1.56153   1
  -1  -5  -5 31.6693 1.91943   1
  -1  -6  -4 15.6063 1.14962   1
  -1  -7  -3 3.56758 0.56355   1
  -1  -8  -2 28.2657 2.24357   1
  -1  -9  -1  2.1674 1.06794   1
  -1 -10   0  2.9781  2.2994   1
  -1 -11   1 1.78727 1.67771   1
  -1  -6  -5 31.6013 2.63262   1
  -1  -7  -4 16.7049 1.30208   1
  -1  -8  -3 3.67642 2.18212   1
  -1  -9  -2 1.68647 1.12434   1
  -1 -10  -1  1.9432 0.95553   1
  -1 -11   0 1.07353 1.14995   1
  -1  -6  -6 1.41388  0.6701   1
  -1  -7  -5 0.69077 0.49603   1
  -1  -8  -4 3.72592 0.86839   1
  -1  -9  -3 1.34483 0.83782   1
  -1 -10  -2 2.58423 3.72738   1
  -1  -7  -6  1.3035  0.8598   1
  -1  -8  -5 2.99764  2.7462   1
  -1  -9  -4 2.27628 1.00942   1
  -1 -10  -3 0.10019 1.63481   1
  -1  -7  -7 4.43626 1.07842   1
  -1  -8  -6 2.90165  1.3686   1
  -1  -9  -5  2.7351 1.61364   1
  -2   6   8 10.2685 1.36762   1
  -2   5   9 6.22303 1.08857   1
  -2   4  10 6.60909 1.27594   1
  -2   6   7 0.13023  1.6342   1
  -2   5   8 24.6371 2.17822   1
  -2   4   9 10.2026 1.32051   1
  -2   3  10  7.9281 1.22325   1
  -2   2  11 6.09385 1.20091   1
  -2   5   7 3.47563  0.7056   1
  -2   4   8 23.9058 2.03312   1
  -2   3   9 0.40498 0.58732   1
  -2   2  10  7.8279 2.41802   1
  -2   1  11  7.6033 1.25641   1
  -2   0  12  2.3967 1.58184   1
  -2   5   6 6.91705 0.85181   1
  -2   4   7  83.169 4.61433   1
  -2   3   8 64.1241 4.00513   1
  -2   2   9 3.56308 0.73469   1
  -2   1  10 3.89191 0.80526   1
  -2   0  11 0.83704 0.71464   1
  -2  -1  12 8.33583  1.9053   1
  -2   4   6 72.0484 5.75353   1
  -2   3   7 129.885 10.5016   1
  -2   2   8 8.11745 0.94155   1
  -2   1   9 11.6933 3.43493   1
  -2   0  10 1.34547 0.60817   1
  -2   4   5 25.2734  1.4764   1
  -2   3   6 35.7499  2.3225   1
  -2   2   7 5.05863 0.54034   1
  -2   1   8 60.2943 3.71514   1
  -2   0   9 10.1629 1.57737   1
  -2  -1  10  6.5699 2.38367   1
  -2  -2  11 0.19481 1.06872   1
  -2  -3  12 1.57899  1.4157   1
  -2   3   5 8.53844 0.61567   1
  -2   2   6 17.9874 1.10184   1
  -2   1   7 180.785 5.71976   1
  -2   0   8 29.0319 1.74206   1
  -2  -1   9 20.2078 1.49495   1
  -2  -2  10  4.7557 0.87575   1
  -2  -3  11 3.89508 0.92669   1
  -2  -4  12-0.07589 1.41011   1
  -2   3   4 154.042 5.46943   1
  -2   2   5  92.059 3.98142   1
  -2   1   6 4.52744 0.42071   1
  -2   0   7 7.35971 0.66165   1
  -2  -1   8 1.41187 0.59088   1
  -2  -2   9  28.815 1.96743   1
  -2  -3  10 0.99793 0.59997   1
  -2  -4  11  1.1964 1.03963   1
  -2  -5  12 4.23456 1.69182   1
  -2   2   4 2.33708 0.31701   1
  -2   1   5 2.12539 0.27179   1
  -2   0   6 3.37444  0.5233   1
  -2  -1   7 9.09829 0.80408   1
  -2  -2   8 0.30344 0.42844   1
  -2  -3   9 1.50921 0.54144   1
  -2  -4  10 18.9194 6.10066   1
  -2  -5  11 0.87942  0.8473   1
  -2   2   3 674.862 17.8407   1
  -2   1   4 166.249 6.06346   1
  -2   0   5 741.776 18.5899   1
  -2  -1   6 57.9753 2.80968   1
  -2  -2   7  168.32 5.22475   1
  -2  -3   8 2.04011 1.69644   1
  -2  -4   9 15.7474 1.48048   1
  -2  -5  10-0.01732  2.3646   1
  -2  -6  11 0.03669 0.93763   1
  -2   1   3 498.397 12.4924   1
  -2   0   4  71.251 3.27007   1
  -2  -1   5 17.4511 0.98431   1
  -2  -2   6 66.4748 2.83449   1
  -2  -3   7 2.27757 0.47413   1
  -2  -4   8  72.541 4.08657   1
  -2  -5   9 4.33953 0.84197   1
  -2  -6  10 0.74635 0.82246   1
  -2  -7  11 1.53798 1.50013   1
  -2   1   2 251.895 9.12351   1
  -2   0   3  179.12 6.87808   1
  -2  -1   4  95.319 4.14294   1
  -2  -2   5 33.6459  1.5653   1
  -2  -3   6  5.2481 0.39508   1
  -2  -4   7 0.74786  0.5218   1
  -2  -5   8 55.4804 3.85731   1
  -2  -6   9 40.2473 5.29257   1
  -2  -7  10-0.47534 1.31377   1
  -2   0   2 41.3876 1.99816   1
  -2  -1   3 159.949 6.31189   1
  -2  -2   4 9.01104 0.53717   1
  -2  -3   5 104.451 3.96915   1
  -2  -4   6 4.01418 0.53419   1
  -2  -5   7 2.84948  0.5608   1
  -2  -6   8 7.93596  1.4108   1
  -2  -8  10 0.38962 1.63727   1
  -2   0   1 40.3013 1.75529   1
  -2  -1   2 3.17071 0.20144   1
  -2  -2   3  0.3466 0.12124   1
  -2  -3   4 0.18894  0.1343   1
  -2  -4   5 12.8457 0.82199   1
  -2  -5   6  0.8894 0.55865   1
  -2  -6   7 0.21093 0.39743   1
  -2  -7   8 1.01955  0.5374   1
  -2  -8   9 4.32684 1.56771   1
  -2   0   0 307.446 10.9264   1
  -2  -1   1 199.518 7.39784   1
  -2  -2   2  90.865 4.05852   1
  -2  -3   3 88.3111 4.62876   1
  -2  -4   4 31.1916 1.65997   1
  -2  -5   5 80.9214 3.66861   1
  -2  -6   6 0.06913 0.37852   1
  -2  -7   7  4.2763 0.64075   1
  -2  -8   8 1.05249 0.60618   1
  -2  -9   9-0.21532 1.60627   1
  -2  -1   0 433.723 12.7842   1
  -2  -2   1 200.868 7.05278   1
  -2  -3   2 77.9663  4.2086   1
  -2  -4   3 2.73766 0.30006   1
  -2  -5   4 206.498 5.67232   1
  -2  -6   5 31.4447 1.82335   1
  -2  -7   6 4.49851 0.63457   1
  -2  -8   7 3.90598 0.71675   1
  -2  -9   8 2.08447  1.2834   1
  -2  -1  -1 68.6657 2.87476   1
  -2  -2   0 14.2802 0.67451   1
  -2  -3   1 184.468 6.23216   1
  -2  -4   2 167.035 5.93256   1
  -2  -5   3 0.04355 0.27217   1
  -2  -6   4 8.21006 0.67839   1
  -2  -7   5 4.34452 1.08746   1
  -2  -8   6-0.11397 0.87039   1
  -2  -9   7 2.45391 0.73444   1
  -2 -10   8-1.20987 1.66223   1
  -2  -2  -1  0.9149 0.19553   1
  -2  -3   0 3.54046 0.27489   1
  -2  -4   1 48.1356 2.12235   1
  -2  -5   2 10.4255 0.69456   1
  -2  -6   3 9.44026 0.71439   1
  -2  -7   4 6.53248  0.8708   1
  -2  -8   5 6.87173 0.79109   1
  -2  -9   6 3.11467 0.74896   1
  -2 -10   7 0.27581 0.84915   1
  -2  -2  -2 566.985 14.3788   1
  -2  -3  -1 226.214 6.75605   1
  -2  -4   0 1732.70   49.12   1
  -2  -5   1 67.7844 3.17815   1
  -2  -6   2 44.2733 2.31975   1
  -2  -7   3 0.82939 0.37448   1
  -2  -8   4 6.05378 0.71151   1
  -2  -9   5 1.23316  0.5809   1
  -2 -10   6 0.80748 0.99987   1
  -2  -3  -2 335.133 8.50758   1
  -2  -4  -1 296.232 7.27365   1
  -2  -5   0 150.202 8.74368   1
  -2  -6   1 15.7963 1.84072   1
  -2  -7   2 7.37909 0.68741   1
  -2  -8   3-0.03686 1.65853   1
  -2  -9   4 1.59261   0.714   1
  -2 -10   5 1.56742 0.75108   1
  -2  -3  -3 46.3499 2.36036   1
  -2  -4  -2 14.7355 0.90331   1
  -2  -5  -1  47.487 2.45568   1
  -2  -6   0 2.83228  1.2802   1
  -2  -7   1-0.02531 0.87216   1
  -2  -8   2 1.43575  1.0302   1
  -2  -9   3 2.05294 0.72316   1
  -2 -10   4 0.96298 1.26277   1
  -2 -11   5 3.51684  1.7432   1
  -2  -4  -3  17.865 1.09365   1
  -2  -5  -2 28.1264 1.61655   1
  -2  -6  -1 14.9621 1.26496   1
  -2  -7   0 4.67504 0.98936   1
  -2  -8   1 1.46075 0.58722   1
  -2  -9   2 0.01335  0.8454   1
  -2 -10   3 2.09705 0.90611   1
  -2 -11   4 3.18874 1.56984   1
  -2  -4  -4 1.11399 0.46776   1
  -2  -5  -3 4.94475 0.55791   1
  -2  -6  -2 28.8208  1.7436   1
  -2  -7  -1 24.6733 4.27226   1
  -2  -8   0-0.27461 0.81276   1
  -2  -9   1 0.74543 0.70471   1
  -2 -10   2 2.08428 0.84951   1
  -2 -11   3 4.64469 1.72364   1
  -2  -5  -4 0.82927 0.51121   1
  -2  -6  -3 8.49509 0.95638   1
  -2  -7  -2 1.74459  0.7958   1
  -2  -8  -1  5.8102 0.90936   1
  -2  -9   0-0.32033 1.56345   1
  -2 -10   1 0.58429 2.66824   1
  -2 -11   2 2.87089 1.59228   1
  -2  -5  -5 1.18496  0.4554   1
  -2  -6  -4 0.42489 0.42987   1
  -2  -7  -3 7.30867 1.01261   1
  -2  -8  -2 2.08364 1.36024   1
  -2  -9  -1 3.86251 1.70796   1
  -2 -10   0-0.09172 1.27872   1
  -2  -6  -5 22.3811 1.91987   1
  -2  -7  -4 8.05875 2.26527   1
  -2  -8  -3 6.75614 1.68442   1
  -2  -9  -2 3.44715 0.98376   1
  -2 -10  -1 1.51174 1.11572   1
  -2  -6  -6  0.9902  0.6027   1
  -2  -7  -5 1.52138 0.58557   1
  -2  -8  -4 2.74634 0.86695   1
  -2  -9  -3 2.26894 2.00558   1
  -2 -10  -2 1.48276 1.63659   1
  -2  -7  -6 5.37303 1.48424   1
  -2  -8  -5  7.3564 1.28645   1
  -2  -9  -4 0.15028  1.5553   1
  -2  -7  -7 1.99311 1.47301   1
  -2  -8  -6 1.14213 1.54154   1
  -3   6   8 0.59131  0.7058   1
  -3   5   9  0.8106 0.79892   1
  -3   6   7 5.21304 1.02459   1
  -3   5   8 7.14458 1.75549   1
  -3   4   9-1.14993 0.81065   1
  -3   3  10 23.2757 2.33868   1
  -3   2  11   5.174 1.65604   1
  -3   5   7-0.33387 0.57317   1
  -3   4   8 2.09539 0.64736   1
  -3   3   9 0.71999 0.97479   1
  -3   2  10  8.5707 1.22477   1
  -3   1  11 11.8959 1.58307   1
  -3   5   6 1.35637 0.67152   1
  -3   4   7 4.05049 0.79939   1
  -3   3   8 8.27276 1.01736   1
  -3   2   9 8.53415 1.09043   1
  -3   1  10 5.06155 1.24007   1
  -3   0  11 11.8695 1.98608   1
  -3   4   6 15.2483 1.98419   1
  -3   3   7 11.4345 1.14096   1
  -3   2   8 17.4979 1.57955   1
  -3   1   9 5.05057 1.13674   1
  -3   0  10 15.9869 2.64798   1
  -3  -1  11 0.66646 1.16289   1
  -3   4   5 1.14809 0.30565   1
  -3   3   6 55.2699 2.84501   1
  -3   2   7 92.9306 4.06722   1
  -3   1   8 25.2403 1.66657   1
  -3   0   9 7.97933 0.81562   1
  -3  -1  10 0.16923 0.62101   1
  -3  -2  11 0.03219 1.25949   1
  -3   3   5 11.0278 1.21057   1
  -3   2   6 181.007 5.76142   1
  -3   1   7 302.936 7.61441   1
  -3   0   8 6.26298 0.65644   1
  -3  -1   9 15.3761 1.57968   1
  -3  -2  10 1.54523 0.67286   1
  -3  -3  11 0.02514 0.81729   1
  -3   3   4  4.0644 0.39066   1
  -3   2   5 18.4292 1.10401   1
  -3   1   6 70.5964 3.32838   1
  -3   0   7 10.7532  1.2037   1
  -3  -1   8 40.4189  2.3079   1
  -3  -2   9  24.425 1.96766   1
  -3  -3  10  4.5996 1.30129   1
  -3  -4  11 0.71169 0.87061   1
  -3   2   4 3.57319 0.49285   1
  -3   1   5  25.662 1.67509   1
  -3   0   6 58.8267 2.88838   1
  -3  -1   7 162.102 6.30075   1
  -3  -2   8 10.2384 1.91285   1
  -3  -3   9 20.3417 2.24083   1
  -3  -4  10-0.39345 0.96896   1
  -3  -5  11 1.17613 0.98856   1
  -3   2   3  199.52 6.42686   1
  -3   1   4 77.2146 3.49557   1
  -3   0   5 52.8973 2.60229   1
  -3  -1   6 39.2684 2.08566   1
  -3  -2   7 1.19778 0.33367   1
  -3  -3   8-0.10287 0.65556   1
  -3  -4   9  13.591 2.17899   1
  -3  -5  10 0.52569 1.25097   1
  -3   1   3 120.585 4.91471   1
  -3   0   4 31.8284 1.65581   1
  -3  -1   5 18.2545 1.06107   1
  -3  -2   6 1.10037 0.29041   1
  -3  -3   7 30.6047  2.1282   1
  -3  -4   8 0.03117 0.51228   1
  -3  -5   9 0.54628 1.14959   1
  -3  -6  10 8.97059 1.42051   1
  -3   1   2 94.1687 4.12711   1
  -3   0   3 424.034 10.6329   1
  -3  -1   4  9.4014 0.83185   1
  -3  -2   5 226.444 5.88476   1
  -3  -3   6 0.66009 0.37887   1
  -3  -4   7 45.2562 2.92221   1
  -3  -5   8 3.06849 1.99106   1
  -3  -6   9 9.46289 1.80584   1
  -3  -7  10  3.3733 1.67628   1
  -3   0   2 459.566 11.5202   1
  -3  -1   3 25.3561 1.32753   1
  -3  -2   4 59.5034 2.56104   1
  -3  -3   5  38.566 2.03793   1
  -3  -4   6 2.84973 0.45546   1
  -3  -5   7 16.1693 1.44312   1
  -3  -6   8 8.99035 1.77234   1
  -3  -7   9  0.3476 0.90316   1
  -3   0   1 126.462 4.82371   1
  -3  -1   2 0.90795 0.26378   1
  -3  -2   3 44.7381 1.99037   1
  -3  -3   4-0.07227  0.3542   1
  -3  -4   5 47.4064  2.4596   1
  -3  -5   6  9.7848 0.81195   1
  -3  -6   7 9.52419 1.13008   1
  -3  -7   8 25.6287 2.21754   1
  -3  -8   9 10.7658 2.29547   1
  -3   0   0 17.1457 0.81208   1
  -3  -1   1 170.583 5.95623   1
  -3  -2   2 0.87672 0.15724   1
  -3  -3   3 0.10899 0.14644   1
  -3  -4   4  5.9143 0.51143   1
  -3  -5   5 11.6707 0.87033   1
  -3  -6   6 13.8865 1.11565   1
  -3  -7   7 3.71968  1.0543   1
  -3  -8   8 16.0142 1.81962   1
  -3  -1   0 15.2403 0.73963   1
  -3  -2   1 60.0329 2.55462   1
  -3  -3   2   33.70 1.55825   1
  -3  -4   3 11.6654 0.76323   1
  -3  -5   4 5.28076 0.52365   1
  -3  -6   5 0.19488 0.59582   1
  -3  -7   6 0.32229 0.53853   1
  -3  -8   7 3.40602 0.73215   1
  -3  -9   8 2.27621 1.69303   1
  -3  -1  -1 73.1878 3.03044   1
  -3  -2   0 8.02558 0.44901   1
  -3  -3   1  3.5245  0.3237   1
  -3  -4   2 0.47913 0.22755   1
  -3  -5   3   13.61 0.92892   1
  -3  -6   4 0.17742 0.36453   1
  -3  -7   5 21.3692 1.49036   1
  -3  -8   6 0.40011  0.5632   1
  -3  -9   7 3.09939    1.09   1
  -3  -2  -1 6.44402 0.59255   1
  -3  -3   0 163.896 5.92443   1
  -3  -4   1 0.13435 0.29397   1
  -3  -5   2 39.1664 2.08602   1
  -3  -6   3 17.2268 1.13772   1
  -3  -7   4 51.3136 2.81332   1
  -3  -8   5 3.54625 0.83123   1
  -3  -9   6 0.49114 0.69943   1
  -3  -2  -2 87.7053  3.5007   1
  -3  -3  -1 7.12846 0.66264   1
  -3  -4   0 28.1196 1.35763   1
  -3  -5   1 39.0677 2.97431   1
  -3  -6   2 22.9559  1.4076   1
  -3  -7   3 0.71193  0.4259   1
  -3  -8   4 0.47208 0.65146   1
  -3  -9   5 1.09738 0.82137   1
  -3 -10   6 0.65618 0.89554   1
  -3  -3  -2 13.8194 1.53486   1
  -3  -4  -1 0.55793 0.36529   1
  -3  -5   0 17.0923 1.06175   1
  -3  -6   1 2.10375 0.42199   1
  -3  -7   2 3.57797 0.78914   1
  -3  -8   3 1.76635 0.70486   1
  -3  -9   4 2.03436 0.94904   1
  -3 -10   5 0.02422 0.87115   1
  -3  -3  -3 36.0782 1.93894   1
  -3  -4  -2 112.306 4.54712   1
  -3  -5  -1 89.4973 3.94271   1
  -3  -6   0 226.013 6.05255   1
  -3  -7   1 5.47925  1.6755   1
  -3  -8   2 5.27315 0.88727   1
  -3  -9   3  2.7683 1.66802   1
  -3 -10   4  1.2792 1.03828   1
  -3  -4  -3 15.6498 1.25252   1
  -3  -5  -2 27.3549 1.80521   1
  -3  -6  -1 126.359 5.77797   1
  -3  -7   0 59.7647 3.77504   1
  -3  -8   1 1.02431 0.68697   1
  -3  -9   2 0.77616 0.79179   1
  -3 -10   3 2.88943 2.34669   1
  -3  -4  -4   10.75 0.92057   1
  -3  -5  -3 2.26077 2.38547   1
  -3  -6  -2 3.34491 1.17906   1
  -3  -7  -1  12.555 2.69708   1
  -3  -8   0 4.25642 0.85844   1
  -3  -9   1 1.13539 1.19982   1
  -3 -10   2-0.34553 1.34677   1
  -3  -5  -4 6.47975 0.69559   1
  -3  -6  -3 1.00056 0.60808   1
  -3  -7  -2 0.58211 1.31626   1
  -3  -8  -1 8.93982 1.18903   1
  -3  -9   0 1.57242 1.43052   1
  -3 -10   1  1.3384 2.40038   1
  -3  -5  -5 5.74014 1.13577   1
  -3  -6  -4 7.40774 0.93327   1
  -3  -7  -3 1.28914  0.6798   1
  -3  -8  -2 3.68449 1.78956   1
  -3  -9  -1 6.09196  1.1721   1
  -3  -6  -5  4.2454 1.04447   1
  -3  -7  -4-0.34936  1.0035   1
  -3  -8  -3 1.24965 0.90394   1
  -3  -9  -2 0.18342 0.94435   1
  -3  -6  -6 3.65614 0.77612   1
  -3  -7  -5  3.3041 1.83141   1
  -3  -8  -4 4.71465 1.18361   1
  -3  -7  -6 4.94982 1.26088   1
  -3  -8  -5  4.6687 1.80602   1
  -4   6   8 1.18937 1.16811   1
  -4   6   7 7.14151 1.08704   1
  -4   5   8 2.01937 1.20322   1
  -4   4   9  0.9236 0.75984   1
  -4   3  10 0.37031 1.14438   1
  -4   5   7 27.7828 2.34934   1
  -4   4   8 4.83746 0.85594   1
  -4   3   9 3.89286 0.84731   1
  -4   2  10 8.15775 1.34555   1
  -4   1  11 0.31888 1.11378   1
  -4   5   6 2.55171 0.60429   1
  -4   4   7 22.7561 1.94585   1
  -4   3   8 18.6328 1.77269   1
  -4   2   9 6.90222 1.05588   1
  -4   1  10 29.3262 3.66222   1
  -4   4   6 15.8316 1.17335   1
  -4   3   7-0.43753 0.89428   1
  -4   2   8 16.2167 1.54678   1
  -4   1   9 1.96373 0.49842   1
  -4   0  10 0.39148 0.46622   1
  -4  -1  11 9.94319 2.09513   1
  -4   4   5 93.4019 4.74588   1
  -4   3   6 1.39707 0.37587   1
  -4   2   7 0.41996   0.374   1
  -4   1   8 9.42433 1.20377   1
  -4   0   9 16.1502 1.92804   1
  -4  -1  10  3.8494 0.94765   1
  -4  -2  11 5.18109 1.66018   1
  -4   3   5 35.5998 3.48037   1
  -4   2   6 15.3207 1.08475   1
  -4   1   7 11.2469  1.9219   1
  -4   0   8 6.65377 0.71728   1
  -4  -1   9 1.04918  0.5627   1
  -4  -2  10 21.3541 3.01591   1
  -4  -3  11 1.26717 1.49011   1
  -4   3   4 38.7047 2.50191   1
  -4   2   5 1.62695 0.31981   1
  -4   1   6 11.0736 0.83966   1
  -4   0   7 76.1006 3.61508   1
  -4  -1   8 26.0853 1.69547   1
  -4  -2   9 1.47382 0.69104   1
  -4  -3  10 0.50045 0.95427   1
  -4   2   4 16.3204 1.61097   1
  -4   1   5 12.1673 0.84228   1
  -4   0   6 99.2021 4.18791   1
  -4  -1   7 159.117 4.92526   1
  -4  -2   8 25.6422 2.00116   1
  -4  -3   9  3.3339 2.61285   1
  -4  -4  10-0.57859 1.14931   1
  -4   2   3 0.29719 0.20453   1
  -4   1   4 42.9499 2.21629   1
  -4   0   5 94.0569 4.04045   1
  -4  -1   6 179.904 6.01392   1
  -4  -2   7  3.0201 0.61429   1
  -4  -3   8 24.7071  2.5201   1
  -4  -4   9 7.08709 1.21174   1
  -4  -5  10 0.96671 0.95517   1
  -4   1   3 3.56615 0.69817   1
  -4   0   4 13.8615 0.85552   1
  -4  -1   5 9.39953 0.69612   1
  -4  -2   6 0.70783 1.30456   1
  -4  -3   7 105.803 4.99472   1
  -4  -4   8 21.8136 1.92643   1
  -4  -5   9 13.6951 1.61703   1
  -4   1   2 230.714  6.5306   1
  -4   0   3 2.63902 0.39046   1
  -4  -1   4  7.7336 0.57909   1
  -4  -2   5 137.129 4.92024   1
  -4  -3   6 31.5948 2.18409   1
  -4  -4   7 8.72738 1.04229   1
  -4  -5   8 1.69802 0.99521   1
  -4  -6   9 6.72702 2.74392   1
  -4   0   2 516.715 14.6717   1
  -4  -1   3 92.8553 3.64689   1
  -4  -2   4 6.55158 0.54598   1
  -4  -3   5-0.08124 0.77767   1
  -4  -4   6  17.255 1.76279   1
  -4  -5   7 4.38025 0.80144   1
  -4  -6   8 1.75518  0.8555   1
  -4  -7   9 1.80456 1.61816   1
  -4   0   1 52.8586  2.3051   1
  -4  -1   2 19.9962 0.99202   1
  -4  -2   3-0.22175 0.37418   1
  -4  -3   4 1.16251 0.29335   1
  -4  -4   5 15.9681 1.29614   1
  -4  -5   6 1.51948 0.56097   1
  -4  -6   7 4.43629 0.91149   1
  -4  -7   8 0.26207  0.8909   1
  -4   0   0 5.47366 0.37656   1
  -4  -1   1 6.47346 0.46139   1
  -4  -2   2 312.542 8.59467   1
  -4  -3   3 7.15264 0.56021   1
  -4  -4   4 55.7038 2.82945   1
  -4  -5   5 1.90251 0.48276   1
  -4  -6   6 1.80662 0.64829   1
  -4  -7   7 0.15346 0.75858   1
  -4  -8   8 0.90228  1.4962   1
  -4  -1   0 94.3986 3.70712   1
  -4  -2   1 11.5393 0.92218   1
  -4  -3   2  14.591 0.79781   1
  -4  -4   3 28.9572 1.65699   1
  -4  -5   4 11.0686 0.86925   1
  -4  -6   5 20.8734 1.46921   1
  -4  -7   6 0.14867 0.69554   1
  -4  -8   7  4.2878 1.14122   1
  -4  -1  -1 4.29356 0.52013   1
  -4  -2   0 20.6762  1.1995   1
  -4  -3   1 16.1042 0.86084   1
  -4  -4   2 0.85347 0.38654   1
  -4  -5   3 1.75536 0.41614   1
  -4  -6   4 1.06319 0.48709   1
  -4  -7   5 7.27848 0.86057   1
  -4  -8   6 3.41157  0.7838   1
  -4  -2  -1 8.93248 0.79156   1
  -4  -3   0 1.15103 0.23962   1
  -4  -4   1 3.32087  0.3888   1
  -4  -5   2  1.8289  0.4621   1
  -4  -6   3  1.3375 0.70759   1
  -4  -7   4 1.34561 0.64726   1
  -4  -8   5 1.75489 1.29826   1
  -4  -9   6 0.92006 0.83428   1
  -4  -2  -2 8.46411 0.90514   1
  -4  -3  -1 1.03747 0.29886   1
  -4  -4   0 13.6652 0.80286   1
  -4  -5   1 5.81901  0.6737   1
  -4  -6   2 1.07599 0.64787   1
  -4  -7   3  5.0889 0.68242   1
  -4  -8   4 0.74287 0.79566   1
  -4  -9   5 4.72326 0.95286   1
  -4  -3  -2 0.78884 0.48957   1
  -4  -4  -1  1.4648 0.42947   1
  -4  -5   0   32.82 2.32928   1
  -4  -6   1 2.16478 0.65621   1
  -4  -7   2 13.3897 2.25609   1
  -4  -8   3 4.73333 0.95118   1
  -4  -9   4 15.7158 2.75501   1
  -4  -3  -3 0.46827  0.4104   1
  -4  -4  -2 0.47067 0.44952   1
  -4  -5  -1 0.31279 1.68919   1
  -4  -6   0-0.51529 0.77294   1
  -4  -7   1 14.6114 2.80896   1
  -4  -8   2 10.3995 1.32813   1
  -4  -9   3 1.46991  0.9507   1
  -4  -4  -3 16.4331 1.12189   1
  -4  -5  -2 3.56927  1.1538   1
  -4  -6  -1 13.6389 1.35755   1
  -4  -7   0 6.85968 0.99923   1
  -4  -8   1 0.61533 0.97176   1
  -4  -9   2 1.79455 1.76959   1
  -4  -4  -4 6.18164  0.9614   1
  -4  -5  -3  2.6183 0.55849   1
  -4  -6  -2 3.41546 0.78898   1
  -4  -7  -1 7.08282 1.03619   1
  -4  -8   0 24.9205 3.78364   1
  -4  -9   1  3.9059 1.13423   1
  -4  -5  -4 0.99033 0.41606   1
  -4  -6  -3 20.2715 1.85317   1
  -4  -7  -2  13.764 1.59419   1
  -4  -8  -1 43.4678 5.54478   1
  -4  -9   0 6.88299 2.28351   1
  -4  -5  -5 1.29917 0.46983   1
  -4  -6  -4 6.13197 1.06735   1
  -4  -7  -3 0.06325  0.8672   1
  -4  -8  -2  2.2955 0.97845   1
  -4  -6  -5 0.80131 0.66441   1
  -4  -7  -4 0.55191  0.9399   1
  -4  -8  -3 0.80491 1.76177   1
  -4  -6  -6 0.25171 0.75086   1
  -4  -7  -5 1.51972 1.05482   1
  -5   6   7 6.97707 1.14834   1
  -5   5   8   5.222 1.12259   1
  -5   5   7 1.17994 0.94153   1
  -5   4   8 7.09086 1.12578   1
  -5   3   9  24.095 2.53724   1
  -5   2  10 1.96468 1.27361   1
  -5   5   6 6.84516 0.78291   1
  -5   4   7 4.74319 1.14359   1
  -5   3   8-0.22248 0.74513   1
  -5   2   9-0.01926 0.85423   1
  -5   1  10 0.32246 0.59933   1
  -5   4   6 36.8713 2.28241   1
  -5   3   7 11.2355 1.17141   1
  -5   2   8 5.82178  0.9952   1
  -5   1   9 0.60657 0.60171   1
  -5   0  10 8.02314 2.67825   1
  -5   4   5 18.5755 1.32503   1
  -5   3   6 28.0364 2.54667   1
  -5   2   7 15.9172 1.27093   1
  -5   1   8 2.97149 0.79585   1
  -5   0   9 1.94034 0.68594   1
  -5  -1  10 19.6772 2.03519   1
  -5   3   5 6.25423 0.66124   1
  -5   2   6 0.04353 0.32512   1
  -5   1   7  1.0144 0.50737   1
  -5   0   8 1.61093 0.48174   1
  -5  -1   9 5.17232 1.73412   1
  -5  -2  10-0.53364 1.63955   1
  -5   3   4 22.2675  1.4042   1
  -5   2   5 214.503 5.40289   1
  -5   1   6 1.96361 0.77449   1
  -5   0   7  19.299 1.69353   1
  -5  -1   8 0.44456 0.59975   1
  -5  -2   9 0.71386 2.07902   1
  -5  -3  10 3.69867 1.43286   1
  -5   2   4 149.996 5.00344   1
  -5   1   5 69.9098 3.38216   1
  -5   0   6 64.1632 3.24049   1
  -5  -1   7 23.8387 1.89846   1
  -5  -2   8 2.46175 0.72541   1
  -5  -3   9 0.07111 0.71651   1
  -5   2   3 4.79296 0.51797   1
  -5   1   4 14.4152 1.17976   1
  -5   0   5 23.9568 1.47525   1
  -5  -1   6 25.4967 1.61212   1
  -5  -2   7 53.1848 3.44053   1
  -5  -3   8 0.46461 0.96159   1
  -5  -4   9 1.11022 0.87525   1
  -5   1   3 0.55848 0.26342   1
  -5   0   4 8.82338 0.69313   1
  -5  -1   5   2.611 0.43535   1
  -5  -2   6 24.8481 1.88808   1
  -5  -3   7 134.834 5.30065   1
  -5  -4   8 18.5303 1.86862   1
  -5  -5   9  3.1871 1.23123   1
  -5   1   2 20.8482 1.21948   1
  -5   0   3  22.437 1.61791   1
  -5  -1   4 1.26196 0.50431   1
  -5  -2   5 80.0353 4.28854   1
  -5  -3   6 66.0187  3.9076   1
  -5  -4   7 9.33558 1.15201   1
  -5  -5   8 1.80503 1.39298   1
  -5   0   2  48.779 2.47181   1
  -5  -1   3  9.5282 0.71022   1
  -5  -2   4 6.05707 0.96459   1
  -5  -3   5 44.5853  2.9032   1
  -5  -4   6 1.25389 0.59711   1
  -5  -5   7 59.6515 3.89845   1
  -5  -6   8 2.36959 1.12912   1
  -5   0   1 42.9088 1.99197   1
  -5  -1   2 15.9555  0.8802   1
  -5  -2   3 0.63521 0.31218   1
  -5  -3   4 16.7307 1.34753   1
  -5  -4   5 42.8032 2.87697   1
  -5  -5   6 8.71542 1.08389   1
  -5  -6   7 2.00676 0.89189   1
  -5   0   0 25.3586 1.27682   1
  -5  -1   1 52.0574  2.3513   1
  -5  -2   2 110.241 4.06407   1
  -5  -3   3 14.1864 0.98227   1
  -5  -4   4  3.5561 0.81148   1
  -5  -5   5 3.30162 0.68557   1
  -5  -6   6 4.18585 0.86883   1
  -5  -7   7 0.40888 0.98348   1
  -5  -1   0 2.78217 0.31172   1
  -5  -2   1 1.03638 0.36614   1
  -5  -3   2 3.82174 0.44485   1
  -5  -4   3 1.91481 0.40309   1
  -5  -5   4  0.2092 0.54237   1
  -5  -6   5 12.0707  2.3462   1
  -5  -7   6 0.68429 1.30128   1
  -5  -1  -1 39.9332 1.90466   1
  -5  -2   0 2.38059 0.31557   1
  -5  -3   1 0.45722 0.26917   1
  -5  -4   2 38.2436 2.16454   1
  -5  -5   3 0.07192  0.7393   1
  -5  -6   4 7.54035 0.92872   1
  -5  -7   5 0.56393 0.90552   1
  -5  -8   6 0.43942 1.34221   1
  -5  -2  -1 69.4081 2.98778   1
  -5  -3   0 45.3241 2.16604   1
  -5  -4   1   23.20 1.44784   1
  -5  -5   2 2.96557  0.5102   1
  -5  -6   3 3.33129 0.58618   1
  -5  -7   4 1.71712 0.96126   1
  -5  -8   5 2.82381  1.1523   1
  -5  -2  -2 3.05399 0.45877   1
  -5  -3  -1 8.57344 0.73257   1
  -5  -4   0 0.39495 0.47226   1
  -5  -5   1 18.5467 1.83422   1
  -5  -6   2 0.28166 0.87685   1
  -5  -7   3 1.52847 1.46577   1
  -5  -8   4  1.0471 0.84922   1
  -5  -3  -2  6.5015 0.75901   1
  -5  -4  -1  13.023 1.02322   1
  -5  -5   0 5.08512 1.53848   1
  -5  -6   1 1.79225 1.04731   1
  -5  -7   2 2.19404 1.87065   1
  -5  -8   3 1.66196 1.87205   1
  -5  -9   4-0.06011 1.65579   1
  -5  -3  -3 0.79916 0.82247   1
  -5  -4  -2  1.1744 0.56372   1
  -5  -5  -1 6.69507 0.94269   1
  -5  -6   0 3.16214 0.81355   1
  -5  -7   1-0.08412  3.1538   1
  -5  -8   2 0.22644 0.81325   1
  -5  -4  -3 17.4073 1.90711   1
  -5  -5  -2 6.01333 1.05577   1
  -5  -6  -1 0.54558 0.66513   1
  -5  -7   0 17.2565 3.43349   1
  -5  -8   1 0.80984 1.97184   1
  -5  -4  -4 2.23614 0.80407   1
  -5  -5  -3 4.70753 0.91468   1
  -5  -6  -2 2.23471 0.73712   1
  -5  -7  -1 2.63109 1.09718   1
  -5  -8   0 0.70282 3.28499   1
  -5  -5  -4 1.03162 0.63429   1
  -5  -6  -3 1.03621 0.82694   1
  -5  -7  -2-0.20064 1.13945   1
  -5  -8  -1 2.17169  1.5056   1
  -5  -5  -5 2.47282 0.64695   1
  -5  -6  -4 0.71637 0.92361   1
  -5  -7  -3 0.13936 0.93281   1
  -5  -6  -5 3.94747 1.64164   1
  -5  -7  -4 3.25026 1.54923   1
  -6   5   7 23.5301 1.92156   1
  -6   4   8 10.4775 2.35655   1
  -6   5   6 2.25568 0.91174   1
  -6   4   7 13.7019 1.30624   1
  -6   3   8  13.109 1.31325   1
  -6   2   9 24.7083 2.50846   1
  -6   4   6 7.91276 0.92654   1
  -6   3   7 0.76357 2.10598   1
  -6   2   8 3.85605 0.97621   1
  -6   1   9 37.3052 3.27933   1
  -6   4   5 14.3337 1.19219   1
  -6   3   6 19.2943 1.47849   1
  -6   2   7 13.7223 1.21956   1
  -6   1   8  2.1822 0.76353   1
  -6   0   9 1.29841 1.34337   1
  -6   3   5 6.73425  1.1403   1
  -6   2   6 14.2968 1.18975   1
  -6   1   7 22.1675 2.13625   1
  -6   0   8 2.76444 0.79713   1
  -6  -1   9 4.05859 0.99571   1
  -6   3   4 3.77107 0.94982   1
  -6   2   5 32.2718  2.0131   1
  -6   1   6 13.8068 1.13725   1
  -6   0   7 6.37618 0.76904   1
  -6  -1   8 6.49878 1.03065   1
  -6  -2   9 2.11926 0.90178   1
  -6   2   4 2.91042 0.48762   1
  -6   1   5 39.2726 2.31716   1
  -6   0   6 0.27785 0.42335   1
  -6  -1   7  0.4556 0.58089   1
  -6  -2   8 3.98411 1.92125   1
  -6  -3   9 2.27621 1.18835   1
  -6   2   3 222.463 5.60147   1
  -6   1   4 84.1115  3.8599   1
  -6   0   5 70.9375 3.51753   1
  -6  -1   6 21.5986 1.80555   1
  -6  -2   7 3.26487 0.77048   1
  -6  -3   8 1.16709 0.75455   1
  -6   1   3 24.3913 1.51502   1
  -6   0   4 19.9179   1.334   1
  -6  -1   5 84.4872  3.9138   1
  -6  -2   6 6.88964 0.96185   1
  -6  -3   7 20.5224 1.90567   1
  -6  -4   8 0.69405 1.70658   1
  -6   1   2 25.6271 1.80898   1
  -6   0   3 1.16218 0.43098   1
  -6  -1   4-0.10309 1.29345   1
  -6  -2   5    0.94 1.45994   1
  -6  -3   6 13.9642 1.85556   1
  -6  -4   7 3.39264 0.90905   1
  -6   0   2 0.23003  0.8333   1
  -6  -1   3 0.08433 0.59136   1
  -6  -2   4 1.77731  1.1409   1
  -6  -3   5 0.95792 0.71898   1
  -6  -4   6 25.1613 3.00552   1
  -6  -5   7 40.3227 3.18962   1
  -6   0   1 17.5631  1.1809   1
  -6  -1   2  15.997 1.10331   1
  -6  -2   3 0.13634 1.57033   1
  -6  -3   4 3.74605  0.6893   1
  -6  -4   5 16.4077  3.6596   1
  -6  -5   6 38.4032 2.98052   1
  -6  -6   7 9.61618  2.0758   1
  -6   0   0 37.5562 4.55769   1
  -6  -1   1 12.2308 0.81029   1
  -6  -2   2 3.59573 0.51357   1
  -6  -3   3 0.18859 0.65822   1
  -6  -4   4 0.86949   0.559   1
  -6  -5   5 14.8036 1.88787   1
  -6  -6   6 0.55875 0.77857   1
  -6  -1   0 0.83832 0.38535   1
  -6  -2   1 1.72148 0.42394   1
  -6  -3   2 11.7823 0.95418   1
  -6  -4   3 1.18092 1.14822   1
  -6  -5   4-0.19445 0.78129   1
  -6  -6   5 8.62372 4.17715   1
  -6  -7   6 5.14021 1.61212   1
  -6  -1  -1-0.09196 0.68051   1
  -6  -2   0 0.75058 0.56108   1
  -6  -3   1 5.72875  0.6344   1
  -6  -4   2 21.3406 1.46401   1
  -6  -5   3 11.0927 1.63515   1
  -6  -6   4 3.10595 0.79329   1
  -6  -7   5 1.82135 0.85541   1
  -6  -2  -1-0.19587 0.71715   1
  -6  -3   0 7.52585 0.76989   1
  -6  -4   1 1.57435 0.57765   1
  -6  -5   2 3.43841 2.13731   1
  -6  -6   3-0.10253  0.9258   1
  -6  -7   4 0.26658 1.07088   1
  -6  -2  -2 10.0773 1.14928   1
  -6  -3  -1 40.5251 2.42115   1
  -6  -4   0 2.84624 0.68923   1
  -6  -5   1 3.21376 0.75988   1
  -6  -6   2 12.8627 2.24964   1
  -6  -7   3 2.23614 1.06044   1
  -6  -3  -2 46.9199 2.74463   1
  -6  -4  -1 5.75498 0.88835   1
  -6  -5   0 17.2356 1.69435   1
  -6  -6   1 2.81148 2.58439   1
  -6  -7   2 2.93692 0.95534   1
  -6  -8   3 7.62421 2.13704   1
  -6  -3  -3 16.0325 2.79907   1
  -6  -4  -2 11.1671 1.28827   1
  -6  -5  -1 3.68072 0.84874   1
  -6  -6   0 7.02402 1.15172   1
  -6  -7   1 3.46356 1.04108   1
  -6  -4  -3  3.8308 0.76296   1
  -6  -5  -2 1.30241 0.78502   1
  -6  -6  -1 0.89756  0.8265   1
  -6  -7   0  1.2611  1.3196   1
  -6  -4  -4  0.0587 1.77463   1
  -6  -5  -3 1.69493 0.86071   1
  -6  -6  -2 0.73778 0.87828   1
  -6  -7  -1 1.80192 0.99016   1
  -6  -5  -4 4.14006 1.25187   1
  -6  -6  -3 2.07002 1.55345   1
  -6  -6  -4 2.55304  1.5448   1
  -7   5   6 16.7593 2.64857   1
  -7   4   7 5.65117 1.56919   1
  -7   4   6 25.7421 2.46635   1
  -7   3   7 32.6455 2.90876   1
  -7   2   8 1.07607 1.97282   1
  -7   4   5 3.73063 1.64952   1
  -7   3   6 4.42913 0.96885   1
  -7   2   7 1.37569 0.61927   1
  -7   1   8 17.9594 1.99453   1
  -7   3   5 7.35078 1.09649   1
  -7   2   6 0.76378 0.68988   1
  -7   1   7 2.22237 0.66337   1
  -7   0   8 15.0396 2.36356   1
  -7   3   4  24.386 2.10465   1
  -7   2   5-0.96759  0.8058   1
  -7   1   6 15.0633 1.31545   1
  -7   0   7-0.00502 0.89509   1
  -7  -1   8 1.31241 1.09637   1
  -7   2   4 37.0431 2.81233   1
  -7   1   5 2.46524 0.56134   1
  -7   0   6 24.0272 2.12925   1
  -7  -1   7 4.36615 0.98823   1
  -7  -2   8 6.56203 1.60789   1
  -7   2   3 39.2804 2.87607   1
  -7   1   4  13.642 1.83443   1
  -7   0   5 5.89013 0.88827   1
  -7  -1   6 26.2479 2.29208   1
  -7  -2   7 6.70023  1.1554   1
  -7   1   3 0.12472 1.48561   1
  -7   0   4 22.9096 1.60081   1
  -7  -1   5 10.8553  1.2681   1
  -7  -2   6 2.04658 0.77982   1
  -7  -3   7 4.29853 1.05389   1
  -7   1   2 70.2253 4.20425   1
  -7   0   3 57.7655 3.74738   1
  -7  -1   4 14.2265 2.90124   1
  -7  -2   5 12.9207 2.36988   1
  -7  -3   6  1.8934 0.80333   1
  -7   0   2 7.58188 1.00133   1
  -7  -1   3 4.54601 0.63062   1
  -7  -2   4 0.75385 1.26848   1
  -7  -3   5 18.2302 2.50071   1
  -7  -4   6 0.64106 1.10897   1
  -7   0   1  64.648  3.9829   1
  -7  -1   2 26.0273 1.71835   1
  -7  -2   3 0.69054  0.6017   1
  -7  -3   4 6.26023 0.93285   1
  -7  -4   5 0.28716 0.72817   1
  -7  -5   6 0.95567 1.19212   1
  -7   0   0 38.7133 2.78599   1
  -7  -1   1 13.0927 2.29567   1
  -7  -2   2 -0.1992 0.75152   1
  -7  -3   3  1.4163 1.19115   1
  -7  -4   4 0.14354 0.93286   1
  -7  -5   5 0.11726  0.8316   1
  -7  -1   0 20.6297 1.79411   1
  -7  -2   1 0.64072 0.81947   1
  -7  -3   2 8.22293 1.52789   1
  -7  -4   3 1.87982 1.27143   1
  -7  -5   4 1.21784 0.77351   1
  -7  -6   5 6.11103 1.77509   1
  -7  -1  -1  0.7461  1.6361   1
  -7  -2   0 34.4626 2.71211   1
  -7  -3   1 1.35342 0.84085   1
  -7  -4   2 6.36722 1.32507   1
  -7  -5   3-0.67671 0.99289   1
  -7  -6   4 1.43544 1.27705   1
  -7  -2  -1 1.28849 0.72118   1
  -7  -3   0  0.2705 0.96945   1
  -7  -4   1 2.35823 0.95405   1
  -7  -5   2 1.37393 1.06199   1
  -7  -6   3 0.42038 1.22329   1
  -7  -2  -2-0.34241 2.66851   1
  -7  -3  -1 1.58295 1.05118   1
  -7  -4   0 1.36096 0.88094   1
  -7  -5   1 6.73315 1.13622   1
  -7  -6   2 5.91608 1.65681   1
  -7  -3  -2 0.62951   0.815   1
  -7  -4  -1 2.79521  1.3048   1
  -7  -5   0 0.65969 0.81112   1
  -7  -6   1 1.29856 2.31504   1
  -7  -3  -3  21.302 5.92886   1
  -7  -4  -2 1.57293 1.34653   1
  -7  -5  -1  5.4587  2.0117   1
  -7  -6   0 2.45383  1.0691   1
  -7  -4  -3 0.24045 1.43318   1
  -7  -5  -2 2.24418 1.63335   1
  -7  -6  -1 1.24064 1.47151   1
  -8   3   5 5.31523 1.14144   1
  -8   2   6 5.94547  1.7219   1
  -8   3   4 11.8591 1.54753   1
  -8   2   5 0.98621 1.36571   1
  -8   0   7 2.95291 1.28148   1
  -8   2   4 0.63493 0.76084   1
  -8   1   5 1.51232 0.83894   1
  -8  -1   7 3.47583 1.33282   1
  -8   2   3 5.92398 1.08943   1
  -8   1   4 0.88234 0.81367   1
  -8   0   5 1.83944 1.35071   1
  -8  -1   6-0.89203 0.97268   1
  -8   1   3 24.2121 2.20703   1
  -8   0   4 6.98987 1.65357   1
  -8  -1   5 0.78687  1.3297   1
  -8  -2   6 1.90709 1.30346   1
  -8   1   2 0.67285 1.64984   1
  -8   0   3 41.4123 5.76839   1
  -8  -1   4   15.39 2.40525   1
  -8  -2   5 8.98727 4.31564   1
  -8   0   2 0.74176 0.84549   1
  -8  -1   3 1.66571 1.17586   1
  -8  -2   4 4.89495 1.56538   1
  -8  -3   5 2.72734 1.06947   1
  -8   0   1 1.84986 0.88513   1
  -8  -3   4  3.3656 1.77343   1
  -8   0   0 13.4324 1.55851   1
  -8  -1   1  0.6118 1.44713   1
  -8  -2   2 0.98103 1.15404   1
  -8  -3   3 2.73872 1.35677   1
  -8  -4   4-0.87009 1.34059   1
  -8  -1   0 56.8523 6.62016   1
  -8  -4   3  1.1176 1.24944   1
  -8  -1  -1 54.1264   6.341   1
  -8  -5   2 2.06089 1.45717   1
  -8  -2  -2 8.95982 1.44269   1
  -8  -3  -1 4.41824 1.56524   1
  -8  -3  -2  0.4809 1.64181   1
  -8  -4  -1 2.39446 1.71474   1
  -9   2   3 0.87433 1.52222   1
  -9   1   3-0.87433 1.53041   1
  -9   1   2-0.09234 1.56614   1
  -9   0   3 4.67013   1.817   1
  -9   0   2 -0.9095  1.3892   1
  -9  -1   3 3.96501 1.90159   1
  -9   0   1 6.38343 1.69885   1
  -9  -1   2 0.17372 1.63325   1
  -9   0   0 12.6521  2.6651   1
  -9  -1  -1 3.66192 2.14091   1
   0   0   0    0.00    0.00   1
;
loop_
_symmetry_equiv_pos_as_xyz
'x, y, z'
'-x, -y, -z'
loop_
_atom_site_label
_atom_site_type_symbol
_atom_site_fract_x
_atom_site_fract_y
_atom_site_fract_z
_atom_site_U_iso_or_equiv
_atom_site_adp_type
_atom_site_occupancy
_atom_site_site_symmetry_order
_atom_site_calc_flag
_atom_site_refinement_flags_posn
_atom_site_refinement_flags_adp
_atom_site_refinement_flags_occupancy
_atom_site_disorder_assembly
_atom_site_disorder_group
N1 N -0.0288(2) 0.7684(2) 1.03015(18) 0.0365(4) Uani 1 1 d . . . . .
C2 C -0.1681(3) 0.8289(2) 1.1010(2) 0.0383(5) Uani 1 1 d . . . . .
H2 H -0.173607 0.821164 1.197114 0.046 Uiso 1 1 calc R U . . .
N3 N -0.2996(2) 0.8985(2) 1.05238(18) 0.0357(4) Uani 1 1 d . . . . .
C4 C -0.2824(3) 0.9026(2) 0.9124(2) 0.0301(4) Uani 1 1 d . . . . .
C5 C -0.1466(3) 0.8461(2) 0.8263(2) 0.0311(5) Uani 1 1 d . . . . .
C6 C -0.0133(3) 0.7769(2) 0.8909(2) 0.0322(5) Uani 1 1 d . . . . .
N6 N 0.1246(2) 0.7178(2) 0.81766(19) 0.0397(5) Uani 1 1 d . . . . .
H6 H 0.133127 0.726881 0.729526 0.06 Uiso 1 1 calc R U . . .
N7 N -0.1759(2) 0.8674(2) 0.68751(18) 0.0370(4) Uani 1 1 d . . . . .
C8 C -0.3261(3) 0.9344(2) 0.6934(2) 0.0375(5) Uani 1 1 d . . . . .
H8 H -0.379632 0.962138 0.614086 0.045 Uiso 1 1 calc R U . . .
N9 N -0.3957(2) 0.9595(2) 0.82554(18) 0.0357(4) Uani 1 1 d . . . . .
H9 H -0.500(3) 1.0060(13) 0.8521(8) 0.054 Uiso 1 1 calc R U . . .
C10 C 0.2612(3) 0.6392(2) 0.8763(2) 0.0363(5) Uani 1 1 d . . . . .
H10A H 0.196366 0.563376 0.922839 0.044 Uiso 1 1 calc R U . . .
H10B H 0.348624 0.711034 0.947985 0.044 Uiso 1 1 calc R U . . .
C11 C 0.3676(3) 0.5641(3) 0.7532(2) 0.0409(5) Uani 1 1 d . . . . .
H11A H 0.423319 0.641001 0.704055 0.049 Uiso 1 1 calc R U . . .
H11B H 0.277602 0.4914 0.684157 0.049 Uiso 1 1 calc R U . . .
C12 C 0.5229(3) 0.4825(2) 0.7965(2) 0.0365(5) Uani 1 1 d . . . . .
H12A H 0.61919 0.555172 0.859882 0.044 Uiso 1 1 calc R U . . .
H12B H 0.470455 0.40798 0.849479 0.044 Uiso 1 1 calc R U . . .
C13 C 0.6115(4) 0.4041(3) 0.6642(3) 0.0554(7) Uani 1 1 d . . . . .
H13A H 0.517189 0.323144 0.608514 0.066 Uiso 1 1 calc R U . . .
H13B H 0.64405 0.476722 0.60443 0.066 Uiso 1 1 calc R U . . .
C14 C 0.7841(3) 0.3380(3) 0.6929(2) 0.0439(6) Uani 1 1 d . . . . .
H14A H 0.75589 0.271603 0.75927 0.053 Uiso 1 1 calc R U . . .
H14B H 0.883804 0.419634 0.739756 0.053 Uiso 1 1 calc R U . . .
C15 C 0.8540(3) 0.2498(3) 0.5581(2) 0.0380(5) Uani 1 1 d . . . . .
O15 O 0.7512(2) 0.1817(2) 0.45348(17) 0.0534(5) Uani 1 1 d . . . . .
O16 O 1.0369(2) 0.2516(2) 0.56383(18) 0.0587(5) Uani 1 1 d . . . . .
H16 H 1.067945 0.209496 0.484585 0.088 Uiso 1 1 calc R U . . .
loop_
_atom_site_aniso_label
_atom_site_aniso_U_11
_atom_site_aniso_U_22
_atom_site_aniso_U_33
_atom_site_aniso_U_23
_atom_site_aniso_U_13
_atom_site_aniso_U_12
N1 0.0308(9) 0.0494(10) 0.0344(9) 0.0120(8) 0.0061(7) 0.0177(8)
C2 0.0332(11) 0.0541(13) 0.0321(11) 0.0133(9) 0.0062(9) 0.0152(10)
N3 0.0297(9) 0.0486(10) 0.0324(9) 0.0085(7) 0.0076(7) 0.0174(8)
C4 0.0239(10) 0.0355(10) 0.0331(10) 0.0075(8) 0.0052(8) 0.0112(8)
C5 0.0256(10) 0.0377(11) 0.0317(11) 0.0067(8) 0.0061(8) 0.0114(8)
C6 0.0275(10) 0.0369(11) 0.0337(11) 0.0059(8) 0.0052(8) 0.0116(8)
N6 0.0351(10) 0.0564(11) 0.0353(10) 0.0119(8) 0.0098(7) 0.0279(8)
N7 0.0330(9) 0.0504(10) 0.0328(9) 0.0108(8) 0.0084(7) 0.0195(8)
C8 0.0330(11) 0.0513(13) 0.0340(11) 0.0134(9) 0.0060(9) 0.0189(9)
N9 0.0295(9) 0.0491(10) 0.0342(9) 0.0104(8) 0.0091(7) 0.0215(8)
C10 0.0304(11) 0.0471(12) 0.0349(11) 0.0088(9) 0.0035(8) 0.0179(9)
C11 0.0367(12) 0.0527(13) 0.0361(12) 0.0044(9) 0.0051(9) 0.0240(10)
C12 0.0334(11) 0.0435(12) 0.0361(11) 0.0065(9) 0.0075(9) 0.0197(9)
C13 0.0538(15) 0.0821(18) 0.0364(12) 0.0037(12) 0.0062(11) 0.0440(13)
C14 0.0422(13) 0.0596(14) 0.0338(11) 0.0048(10) 0.0080(9) 0.0282(11)
C15 0.0361(12) 0.0517(12) 0.0323(11) 0.0119(9) 0.0062(9) 0.0220(10)
O15 0.0392(9) 0.0802(12) 0.0383(9) -0.0012(8) 0.0040(7) 0.0224(8)
O16 0.0377(9) 0.0938(14) 0.0405(9) -0.0065(9) 0.0065(7) 0.0284(9)
loop_
_atom_type_symbol
_atom_type_description
_atom_type_scat_dispersion_real
_atom_type_scat_dispersion_imag
_atom_type_scat_source
C C 0.0033 0.0016 'International Tables Vol C Tables 4.2.6.8 and 6.1.1.4'
H H 0 0 'International Tables Vol C Tables 4.2.6.8 and 6.1.1.4'
N N 0.0061 0.0033 'International Tables Vol C Tables 4.2.6.8 and 6.1.1.4'
O O 0.0106 0.006 'International Tables Vol C Tables 4.2.6.8 and 6.1.1.4'
loop_
_geom_angle_atom_site_label_1
_geom_angle_atom_site_label_2
_geom_angle_atom_site_label_3
_geom_angle
_geom_angle_site_symmetry_1
_geom_angle_site_symmetry_3
_geom_angle_publ_flag
C2 N1 C6 118.25(17) . . ?
N3 C2 N1 128.76(19) . . ?
N3 C2 H2 115.6 . . ?
N1 C2 H2 115.6 . . ?
C2 N3 C4 111.55(16) . . ?
N3 C4 N9 127.90(16) . . ?
N3 C4 C5 126.16(17) . . ?
N9 C4 C5 105.92(17) . . ?
C4 C5 N7 109.98(17) . . ?
C4 C5 C6 116.93(18) . . ?
N7 C5 C6 133.07(17) . . ?
N6 C6 N1 119.55(18) . . ?
N6 C6 C5 122.11(18) . . ?
N1 C6 C5 118.33(17) . . ?
C6 N6 C10 124.71(17) . . ?
C6 N6 H6 117.6 . . ?
C10 N6 H6 117.6 . . ?
C8 N7 C5 104.17(16) . . ?
N7 C8 N9 113.50(19) . . ?
N7 C8 H8 123.2 . . ?
N9 C8 H8 123.2 . . ?
C8 N9 C4 106.43(16) . . ?
C8 N9 H9 126.8 . . ?
C4 N9 H9 126.8 . . ?
N6 C10 C11 108.39(16) . . ?
N6 C10 H10A 110 . . ?
C11 C10 H10A 110 . . ?
N6 C10 H10B 110 . . ?
C11 C10 H10B 110 . . ?
H10A C10 H10B 108.4 . . ?
C10 C11 C12 115.34(17) . . ?
C10 C11 H11A 108.4 . . ?
C12 C11 H11A 108.4 . . ?
C10 C11 H11B 108.4 . . ?
C12 C11 H11B 108.4 . . ?
H11A C11 H11B 107.5 . . ?
C13 C12 C11 110.67(17) . . ?
C13 C12 H12A 109.5 . . ?
C11 C12 H12A 109.5 . . ?
C13 C12 H12B 109.5 . . ?
C11 C12 H12B 109.5 . . ?
H12A C12 H12B 108.1 . . ?
C14 C13 C12 115.89(19) . . ?
C14 C13 H13A 108.3 . . ?
C12 C13 H13A 108.3 . . ?
C14 C13 H13B 108.3 . . ?
C12 C13 H13B 108.3 . . ?
H13A C13 H13B 107.4 . . ?
C13 C14 C15 113.04(18) . . ?
C13 C14 H14A 109 . . ?
C15 C14 H14A 109 . . ?
C13 C14 H14B 109 . . ?
C15 C14 H14B 109 . . ?
H14A C14 H14B 107.8 . . ?
O15 C15 O16 122.59(19) . . ?
O15 C15 C14 123.43(19) . . ?
O16 C15 C14 113.98(19) . . ?
C15 O16 H16 109.5 . . ?
loop_
_geom_bond_atom_site_label_1
_geom_bond_atom_site_label_2
_geom_bond_distance
_geom_bond_site_symmetry_2
_geom_bond_publ_flag
N1 C2 1.340(3) . ?
N1 C6 1.345(3) . ?
C2 N3 1.332(2) . ?
C2 H2 0.93 . ?
N3 C4 1.344(3) . ?
C4 N9 1.365(3) . ?
C4 C5 1.377(3) . ?
C5 N7 1.383(3) . ?
C5 C6 1.410(3) . ?
C6 N6 1.337(2) . ?
N6 C10 1.455(2) . ?
N6 H6 0.86 . ?
N7 C8 1.310(2) . ?
C8 N9 1.349(3) . ?
C8 H8 0.93 . ?
N9 H9 0.93(3) . ?
C10 C11 1.510(3) . ?
C10 H10A 0.97 . ?
C10 H10B 0.97 . ?
C11 C12 1.517(3) . ?
C11 H11A 0.97 . ?
C11 H11B 0.97 . ?
C12 C13 1.512(3) . ?
C12 H12A 0.97 . ?
C12 H12B 0.97 . ?
C13 C14 1.493(3) . ?
C13 H13A 0.97 . ?
C13 H13B 0.97 . ?
C14 C15 1.499(3) . ?
C14 H14A 0.97 . ?
C14 H14B 0.97 . ?
C15 O15 1.208(3) . ?
C15 O16 1.307(3) . ?
O16 H16 0.82 . ?
loop_
_geom_hbond_atom_site_label_D
_geom_hbond_atom_site_label_H
_geom_hbond_atom_site_label_A
_geom_hbond_distance_DH
_geom_hbond_distance_HA
_geom_hbond_distance_DA
_geom_hbond_angle_DHA
_geom_hbond_site_symmetry_A
_geom_hbond_publ_flag
N6 H6 O15 0.86 2.22 3.028(3) 157 2_666 yes
N9 H9 N3 0.93 1.94 2.851(2) 168 2_477 yes
C11 H11B O16 0.97 2.6 3.532(3) 162 1_455 yes
O16 H16 N7 0.82 1.87 2.683(2) 171 2_666 yes
loop_
_geom_torsion_atom_site_label_1
_geom_torsion_atom_site_label_2
_geom_torsion_atom_site_label_3
_geom_torsion_atom_site_label_4
_geom_torsion
_geom_torsion_site_symmetry_1
_geom_torsion_site_symmetry_2
_geom_torsion_site_symmetry_3
_geom_torsion_site_symmetry_4
_geom_torsion_publ_flag
C6 N1 C2 N3 0.3(3) . . . . ?
N1 C2 N3 C4 0.9(3) . . . . ?
C2 N3 C4 N9 177.36(19) . . . . ?
C2 N3 C4 C5 -1.1(3) . . . . ?
N3 C4 C5 N7 178.59(19) . . . . ?
N9 C4 C5 N7 -0.2(2) . . . . ?
N3 C4 C5 C6 0.2(3) . . . . ?
N9 C4 C5 C6 -178.51(17) . . . . ?
C2 N1 C6 N6 179.84(18) . . . . ?
C2 N1 C6 C5 -1.3(3) . . . . ?
C4 C5 C6 N6 179.87(18) . . . . ?
N7 C5 C6 N6 2.0(4) . . . . ?
C4 C5 C6 N1 1.0(3) . . . . ?
N7 C5 C6 N1 -176.9(2) . . . . ?
N1 C6 N6 C10 1.6(3) . . . . ?
C5 C6 N6 C10 -177.22(19) . . . . ?
C4 C5 N7 C8 -0.2(2) . . . . ?
C6 C5 N7 C8 177.8(2) . . . . ?
C5 N7 C8 N9 0.5(2) . . . . ?
N7 C8 N9 C4 -0.6(2) . . . . ?
N3 C4 N9 C8 -178.3(2) . . . . ?
C5 C4 N9 C8 0.4(2) . . . . ?
C6 N6 C10 C11 169.22(19) . . . . ?
N6 C10 C11 C12 177.33(18) . . . . ?
C10 C11 C12 C13 176.6(2) . . . . ?
C11 C12 C13 C14 171.7(2) . . . . ?
C12 C13 C14 C15 174.7(2) . . . . ?
C13 C14 C15 O15 -30.9(3) . . . . ?
C13 C14 C15 O16 149.8(2) . . . . ?
