#------------------------------------------------------------------------------
#$Date: 2020-10-06 12:51:28 +0300 (Tue, 06 Oct 2020) $
#$Revision: 257689 $
#$URL: file:///home/coder/svn-repositories/cod/cif/7/05/90/7059070.cif $
#------------------------------------------------------------------------------
#
# This file is available in the Crystallography Open Database (COD),
# http://www.crystallography.net/
#
# All data on this site have been placed in the public domain by the
# contributors.
#
data_7059070
loop_
_publ_author_name
'Vaddamanu, Moulali'
'Velappan, Kavitha'
'Prabusankar, Ganesan'
_publ_section_title
;
 Highly active mesoionic chalcogenone zinc(ii) derivatives for C--S
 cross-coupling reactions
;
_journal_issue                   1
_journal_name_full               'New Journal of Chemistry'
_journal_page_first              129
_journal_page_last               140
_journal_paper_doi               10.1039/C9NJ04440J
_journal_volume                  44
_journal_year                    2020
_chemical_formula_moiety         'C20 H13 Cl S'
_chemical_formula_sum            'C20 H13 Cl S'
_chemical_formula_weight         320.84
_space_group_crystal_system      triclinic
_space_group_IT_number           2
_space_group_name_Hall           '-P 1'
_space_group_name_H-M_alt        'P -1'
_symmetry_Int_Tables_number      2
_atom_sites_solution_primary     iterative
_audit_creation_date             2019-02-04
_audit_creation_method
;
Olex2 1.2
(compiled 2018.05.29 svn.r3508 for OlexSys, GUI svn.r5506)
;
_audit_update_record
;
2019-02-07 deposited with the CCDC.	2019-11-19 downloaded from the CCDC.
;
_cell_angle_alpha                107.316(7)
_cell_angle_beta                 94.243(6)
_cell_angle_gamma                99.600(6)
_cell_formula_units_Z            2
_cell_length_a                   5.5355(3)
_cell_length_b                   11.3824(10)
_cell_length_c                   13.4351(10)
_cell_measurement_reflns_used    2307
_cell_measurement_temperature    293
_cell_measurement_theta_max      69.1210
_cell_measurement_theta_min      3.4740
_cell_volume                     789.92(11)
_computing_cell_refinement       'CrysAlisPro 1.171.39.46e (Rigaku OD, 2018)'
_computing_data_collection       'CrysAlisPro 1.171.39.46e (Rigaku OD, 2018)'
_computing_data_reduction        'CrysAlisPro 1.171.39.46e (Rigaku OD, 2018)'
_computing_molecular_graphics    'Olex2 (Dolomanov et al., 2009)'
_computing_publication_material  'Olex2 (Dolomanov et al., 2009)'
_computing_structure_refinement  'olex2.refine (Bourhis et al., 2015)'
_computing_structure_solution    'olex2.solve (Bourhis et al., 2015)'
_diffrn_ambient_temperature      293
_diffrn_detector                 'CCD plate'
_diffrn_detector_area_resol_mean 16.1293
_diffrn_detector_type            Eos
_diffrn_measured_fraction_theta_full 0.9930
_diffrn_measured_fraction_theta_max 0.9930
_diffrn_measurement_details
;
List of Runs (angles in degrees, time in seconds):

  # Type    Start    End  Width  t~exp~   \w     \q     \k     \f   Frames
#--------------------------------------------------------------------------
  1  \w     32.00  64.00   1.00    1.00    --    0.00  57.00 120.00   32
  2  \w    -20.00   7.00   1.00    1.00    --    0.00  57.00-120.00   27
  3  \w    -22.00  11.00   1.00    1.00    --    0.00  57.00 120.00   33
  4  \w     36.00  63.00   1.00    1.00    --    0.00  57.00-120.00   27
  5  \w     -9.00  60.00   1.00    3.87    --   54.00 -19.00-180.00   69
  6  \w     47.00  80.00   1.00    3.87    --   54.00-125.00  90.00   33
  7  \w     30.00 127.00   1.00    3.87    --   54.00  38.00-180.00   97
  8  \w     -1.00  71.00   1.00    3.87    --   54.00 -57.00 -90.00   72
  9  \w     32.00  95.00   1.00    3.87    --   54.00 -99.00-180.00   63
 10  \w     71.00 103.00   1.00    3.87    --   54.00 -19.00-180.00   32
 11  \w    -11.00  80.00   1.00    3.87    --   54.00 -38.00   0.00   91
 12  \w     54.00 131.00   1.00    3.87    --  108.00 -50.00-150.00   77
 13  \w     67.00  94.00   1.00    3.87    --  108.00-111.00 120.00   27
 14  \w     38.00  75.00   1.00    3.87    --  108.00 -50.00 120.00   37
 15  \w     92.00 128.00   1.00    3.87    --  108.00 -63.00-120.00   36
 16  \w     85.00 170.00   1.00    3.87    --  108.00  50.00  30.00   85
 17  \w     43.00  88.00   1.00    3.87    --  108.00 -91.00 -60.00   45
 18  \w     69.00 141.00   1.00    3.87    --  108.00 178.00 -60.00   72
 19  \w     41.00  73.00   1.00    3.87    --  108.00 -63.00-150.00   32
 20  \w     84.00 124.00   1.00    3.87    --  108.00  63.00  60.00   40
 21  \w     74.00 100.00   1.00    3.87    --  108.00-111.00-120.00   26
 22  \w    129.00 174.00   1.00    3.87    --  108.00  63.00 -30.00   45
 23  \w     42.00  67.00   1.00    3.87    --  108.00-111.00  30.00   25
 24  \w     87.00 112.00   1.00    3.87    --  108.00-111.00  30.00   25
 25  \w    113.00 138.00   1.00    3.87    --  108.00 -77.00  60.00   25
 26  \w    100.00 126.00   1.00    3.87    --  108.00 -12.00  30.00   26
 27  \w     87.00 123.00   1.00    3.87    --  108.00 -50.00   0.00   36
 28  \w    138.00 169.00   1.00    3.87    --  108.00  50.00  90.00   31
 29  \w     37.00 115.00   1.00    3.87    --  108.00  12.00  60.00   78
 30  \w    153.00 178.00   1.00    3.87    --  108.00  12.00  60.00   25
 31  \w     84.00 127.00   1.00    3.87    --  108.00 -63.00 -60.00   43
 32  \w     55.00 103.00   1.00    3.87    --  108.00-111.00  90.00   48
 33  \w    143.00 174.00   1.00    3.87    --  108.00  63.00 -90.00   31
 34  \w     91.00 116.00   1.00    3.87    --  108.00  63.00 -90.00   25
 35  \w    107.00 132.00   1.00    3.87    --  108.00 178.00 -30.00   25
 36  \w     35.00  74.00   1.00    3.87    --  108.00 -12.00  30.00   39
 37  \w     81.00 112.00   1.00    3.87    --  108.00 -50.00 120.00   31
 38  \w     84.00 111.00   1.00    3.87    --  108.00-111.00 -90.00   27
 39  \w     76.00 105.00   1.00    3.87    --  108.00-111.00   0.00   29
 40  \w     80.00 110.00   1.00    3.87    --  108.00-111.00 150.00   30
 41  \w     88.00 113.00   1.00    3.87    --  108.00  50.00  90.00   25
 42  \w     65.00 129.00   1.00    3.87    --  108.00 -63.00  30.00   64
 43  \w    114.00 139.00   1.00    3.87    --  108.00 -91.00 -60.00   25
;
_diffrn_measurement_device       'four-circle diffractometer'
_diffrn_measurement_device_type  'SuperNova, Dual, Cu at home/near, Eos'
_diffrn_measurement_method       '\w scans'
_diffrn_orient_matrix_type
'CrysAlisPro convention (1999,Acta A55,543-557)'
_diffrn_orient_matrix_UB_11      0.0650454000
_diffrn_orient_matrix_UB_12      0.1417389000
_diffrn_orient_matrix_UB_13      0.0602364000
_diffrn_orient_matrix_UB_21      0.1623172000
_diffrn_orient_matrix_UB_22      0.0209525000
_diffrn_orient_matrix_UB_23      -0.0839040000
_diffrn_orient_matrix_UB_31      -0.2247030000
_diffrn_orient_matrix_UB_32      0.0198197000
_diffrn_orient_matrix_UB_33      -0.0633349000
_diffrn_radiation_monochromator  mirror
_diffrn_radiation_probe          x-ray
_diffrn_radiation_type           'Cu K\a'
_diffrn_radiation_wavelength     1.54184
_diffrn_reflns_av_R_equivalents  0.0142
_diffrn_reflns_av_unetI/netI     0.0175
_diffrn_reflns_limit_h_max       6
_diffrn_reflns_limit_h_min       -6
_diffrn_reflns_limit_k_max       13
_diffrn_reflns_limit_k_min       -13
_diffrn_reflns_limit_l_max       15
_diffrn_reflns_limit_l_min       -16
_diffrn_reflns_number            6327
_diffrn_reflns_theta_full        69.9672
_diffrn_reflns_theta_max         69.97
_diffrn_reflns_theta_min         3.48
_diffrn_source                   'micro-focus sealed X-ray tube'
_diffrn_source_type              'SuperNova (Cu) X-ray Source'
_exptl_absorpt_coefficient_mu    3.296
_exptl_absorpt_correction_T_max  1.00000
_exptl_absorpt_correction_T_min  0.76582
_exptl_absorpt_correction_type   multi-scan
_exptl_absorpt_process_details
;
CrysAlisPro 1.171.39.46e (Rigaku Oxford Diffraction, 2018)
Empirical absorption correction using spherical harmonics,
 implemented in SCALE3 ABSPACK scaling algorithm.
;
_exptl_crystal_colour            yellow
_exptl_crystal_colour_primary    yellow
_exptl_crystal_density_diffrn    1.3488
_exptl_crystal_density_method    'not measured'
_exptl_crystal_description       block
_exptl_crystal_F_000             334.1556
_exptl_crystal_size_max          0.07
_exptl_crystal_size_mid          0.07
_exptl_crystal_size_min          0.06
_refine_diff_density_max         0.2080
_refine_diff_density_min         -0.2583
_refine_diff_density_rms         0.0364
_refine_ls_d_res_high            0.8206
_refine_ls_d_res_low             12.7152
_refine_ls_goodness_of_fit_ref   1.0425
_refine_ls_hydrogen_treatment    constr
_refine_ls_matrix_type           full
_refine_ls_number_constraints    26
_refine_ls_number_parameters     199
_refine_ls_number_reflns         2976
_refine_ls_number_restraints     0
_refine_ls_restrained_S_all      1.0425
_refine_ls_R_factor_all          0.0445
_refine_ls_R_factor_gt           0.0370
_refine_ls_shift/su_max          0.0000
_refine_ls_shift/su_mean         0.0000
_refine_ls_structure_factor_coef Fsqd
_refine_ls_weighting_details
'w=1/[\s^2^(Fo^2^)+(0.0591P)^2^+0.0967P] where P=(Fo^2^+2Fc^2^)/3'
_refine_ls_weighting_scheme      calc
_refine_ls_wR_factor_gt          0.1055
_refine_ls_wR_factor_ref         0.1133
_reflns_Friedel_coverage         0.0
_reflns_limit_h_max              6
_reflns_limit_h_min              -6
_reflns_limit_k_max              12
_reflns_limit_k_min              -13
_reflns_limit_l_max              16
_reflns_limit_l_min              0
_reflns_number_gt                2458
_reflns_number_total             2976
_reflns_threshold_expression     I>=2u(I)
_iucr_refine_instructions_details
;
TITL exp_9422 in P-1 #2
REM reset to P-1 #2
CELL 1.54184 5.535471 11.382402 13.435132 107.3156 94.2429 99.6005
ZERR 2 0.000324 0.000958 0.001037 0.0073 0.0055 0.0059
LATT 1
SFAC C H S Cl
UNIT 20 13 1 1

L.S. 4 0 0 511
PLAN  20
SIZE 0.06 0.07 0.07
TEMP 19.85
BOND 
fmap 2
ACTA 
WGHT 0.059116 0.096711
FVAR 10.032681
REM <olex2.extras>
REM <HklSrc "%.\\exp_9422.hkl">
REM </olex2.extras>

S1    3     0.06452 -0.00374  0.82420  11.00000  0.05442  0.06747  0.07012 =
 0.02037 -0.00432  0.01368 
Cl1   4    -0.36660  0.47485  0.83359  11.00000  0.08168  0.05913  0.12174 =
 0.01746  0.00007  0.01909 
C3    1    -0.06566  0.12772  0.82271  11.00000  0.04666  0.06126  0.04588 =
 0.01611  0.00774  0.00853 
C4    1    -0.29375  0.11873  0.76653  11.00000  0.04763  0.05602  0.05859 =
 0.01459  0.00172  0.00366 
AFIX 43
H4    2    -0.38535  0.04037  0.72653  11.00000 -1.20000 
AFIX 0
C5    1    -0.36080 -0.18486  0.78211  11.00000  0.06076  0.05046  0.05530 =
 0.01814  0.00457  0.01976 
C6    1     0.06891  0.24610  0.88101  11.00000  0.04714  0.07143  0.05098 =
 0.00895  0.00036  0.00626 
AFIX 43
H6    2     0.22117  0.25315  0.91884  11.00000 -1.20000 
AFIX 0
C7    1    -0.13876 -0.17473  0.63206  11.00000  0.06986  0.06470  0.05628 =
 0.02239  0.00902  0.02866 
C8    1    -0.38371  0.22496  0.76998  11.00000  0.04608  0.06295  0.06735 =
 0.01833  0.00089  0.00828 
AFIX 43
H8    2    -0.53648  0.21846  0.73279  11.00000 -1.20000 
AFIX 0
C9    1    -0.16221 -0.13066  0.74001  11.00000  0.05990  0.05472  0.05337 =
 0.01637  0.00442  0.01888 
C10   1    -0.24741  0.34145  0.82867  11.00000  0.05687  0.05627  0.06557 =
 0.01504  0.01242  0.01225 
C11   1    -0.54606 -0.28518  0.71339  11.00000  0.07006  0.05078  0.06496 =
 0.02020  0.00199  0.01445 
C12   1    -0.01880  0.35235  0.88368  11.00000  0.05717  0.05678  0.05902 =
 0.00348  0.00640  0.00477 
AFIX 43
H12   2     0.07413  0.43105  0.92204  11.00000 -1.20000 
AFIX 0
C13   1    -0.32406 -0.27657  0.56499  11.00000  0.09578  0.06253  0.05363 =
 0.01656  0.00557  0.03185 
C14   1    -0.38942 -0.14305  0.89121  11.00000  0.07019  0.06800  0.05638 =
 0.01992  0.00819  0.02001 
AFIX 43
H14   2    -0.27013 -0.07902  0.93772  11.00000 -1.20000 
AFIX 0
C15   1    -0.52233 -0.32765  0.60649  11.00000  0.09471  0.05063  0.06812 =
 0.00865 -0.01009  0.01065 
AFIX 43
H15   2    -0.64336 -0.39228  0.56167  11.00000 -1.20000 
AFIX 0
C16   1    -0.75319 -0.33608  0.75593  11.00000  0.07312  0.06331  0.10023 =
 0.03347 -0.00077  0.00644 
AFIX 43
H16   2    -0.87654 -0.40005  0.71183  11.00000 -1.20000 
AFIX 0
C17   1    -0.58787 -0.19528  0.92800  11.00000  0.08406  0.08642  0.06961 =
 0.03579  0.02256  0.03227 
AFIX 43
H17   2    -0.60268 -0.16671  0.99929  11.00000 -1.20000 
AFIX 0
C18   1    -0.29844 -0.32200  0.45471  11.00000  0.14331  0.08808  0.05501 =
 0.01061  0.00396  0.04661 
AFIX 43
H18   2    -0.41697 -0.38782  0.40972  11.00000 -1.20000 
AFIX 0
C19   1     0.05861 -0.12264  0.58608  11.00000  0.08086  0.10762  0.07274 =
 0.03966  0.02235  0.03281 
AFIX 43
H19   2     0.17868 -0.05524  0.62800  11.00000 -1.20000 
AFIX 0
C1A   1    -0.77067 -0.29178  0.85979  11.00000  0.07211  0.08388  0.10252 =
 0.05009  0.02526  0.02106 
AFIX 43
H1A   2    -0.90609 -0.32587  0.88636  11.00000 -1.20000 
AFIX 0
C20   1     0.07359 -0.17017  0.48187  11.00000  0.11002  0.15005  0.07880 =
 0.05543  0.03854  0.05715 
AFIX 43
H20   2     0.20526 -0.13547  0.45367  11.00000 -1.20000 
AFIX 0
C21   1    -0.10527 -0.27039  0.41606  11.00000  0.14646  0.13693  0.05687 =
 0.03448  0.03242  0.07079 
AFIX 43
H21   2    -0.09060 -0.30166  0.34495  11.00000 -1.20000 
AFIX 0
HKLF 4

END
Q1 1 -0.777778 -0.444444 0.533333 11 0.05 0.21
Q2 1 -0.222222 0.5 0.8 11 0.05 0.18
Q3 1 -0.555556 -0.277778 0.666667 11 0.05 0.18
Q4 1 -0.166667 0.138889 0.8 11 0.05 0.17
Q5 1 -0.388889 -0.166667 0.822222 11 0.05 0.16
Q6 1 -0.111111 0.361111 0.844444 11 0.05 0.16
Q7 1 -0.5 -0.388889 0.422222 11 0.05 0.15
Q8 1 0.5 -0.055556 0.488889 11 0.05 0.14
Q9 1 -0.166667 -0.138889 0.688889 11 0.05 0.13
Q10 1 -0.277778 -0.277778 0.533333 11 0.05 0.13
Q11 1 -0.666667 -0.305556 0.733333 11 0.05 0.13
Q12 1 0.055556 -0.027778 0.755556 11 0.05 0.12
Q13 1 -0.055556 0.055556 0.822222 11 0.05 0.11
Q14 1 -0.277778 -0.194444 0.6 11 0.05 0.11
Q15 1 -0.333333 0.277778 0.8 11 0.05 0.11
Q16 1 -0.833333 -0.416667 0.688889 11 0.05 0.1
Q17 1 -0.388889 0.472222 0.822222 11 0.05 0.1
Q18 1 0.277778 -0.055556 0.488889 11 0.05 0.1
Q19 1 -0.611111 -0.305556 0.444444 11 0.05 0.1
Q20 1 0 0.305556 0.888889 11 0.05 0.1

  REM The information below was added by Olex2.
  REM
  REM R1 = 0.0370 for 2458 Fo > 4sig(Fo) and 0.0445 for all 2976 data
  REM 199 parameters refined using 0 restraints
  REM Highest difference peak 0.2080, deepest hole -0.2583
  REM Mean Shift 0.0000, Max Shift 0.0000.

  REM +++ Tabular Listing of Refinement Information +++
  REM R1_all = 0.0445
  REM R1_gt = 0.0370
  REM wR_ref = 0.1133
  REM GOOF = 1.0425
  REM Shift_max = 0.0000
  REM Shift_mean = 0.0000
  REM Reflections_all = 2976
  REM Reflections_gt = 2458
  REM Parameters = 199
  REM Hole = -0.2583
  REM Peak = 0.2080
  REM Flack = n/a

  
;
_cod_data_source_file            c9nj04440j2.cif
_cod_data_source_block           E14
_cod_depositor_comments
;Adding full bibliography for 7059065--7059073.cif.

 Adding full bibliography for 7059065--7059073.cif.
;
_cod_database_code               7059070
_chemical_oxdiff_formula         C10H10SF
_reflns_odcompleteness_completeness 92.51
_reflns_odcompleteness_iscentric 1
_reflns_odcompleteness_theta     74.33
_olex2_refinement_description
;
1. Fixed Uiso
 At 1.2 times of:
  All C(H) groups
2.a Aromatic/amide H refined with riding coordinates:
 C4(H4), C6(H6), C8(H8), C12(H12), C14(H14), C15(H15), C16(H16), C17(H17),
 C18(H18), C19(H19), C1A(H1A), C20(H20), C21(H21)
;
_iucr_refine_fcf_details
;
data_exp_9422
_computing_structure_refinement   'olex2.refine (Bourhis et al., 2015)'
_shelx_refln_list_code            4
loop_
  _space_group_symop_id
  _space_group_symop_operation_xyz
  1  x,y,z
  2  -x,-y,-z

_space_group_crystal_system       triclinic
_space_group_IT_number            2
_space_group_name_H-M_alt         'P -1'
_space_group_name_Hall            '-P 1'
_symmetry_space_group_name_H-M    'P -1'
_symmetry_space_group_name_Hall   '-P 1'
_symmetry_Int_Tables_number       2
_cell_length_a                    5.5355(3)
_cell_length_b                    11.3824(10)
_cell_length_c                    13.4351(10)
_cell_angle_alpha                 107.316(7)
_cell_angle_beta                  94.243(6)
_cell_angle_gamma                 99.600(6)
_cell_volume                      789.92(11)
loop_
  _refln_index_h
  _refln_index_k
  _refln_index_l
  _refln_F_squared_calc
  _refln_F_squared_meas
  _refln_F_squared_sigma
  _refln_F_squared_weight
  _refln_observed_status
-6 -4 2 0.217 -0.063 0.226 876.212 o
-6 -4 3 0.725 0.620 0.361 286.436 o
-6 -4 5 5.441 4.288 0.661 56.095 o
-6 -3 1 10.875 11.865 1.172 19.655 o
-6 -3 2 0.332 0.345 0.384 315.823 o
-6 -3 3 2.174 1.463 0.564 109.728 o
-6 -3 4 2.114 2.119 0.579 102.572 o
-6 -3 5 0.258 0.293 0.263 594.780 o
-6 -3 6 0.725 -0.440 0.382 293.921 o
-6 -3 7 0.651 0.639 0.380 273.324 o
-6 -2 1 1.017 0.998 0.367 240.886 o
-6 -2 2 3.706 3.655 0.823 52.590 o
-6 -2 3 7.054 9.346 1.185 23.977 o
-6 -2 4 0.234 -0.049 0.334 449.812 o
-6 -2 5 6.021 5.416 0.614 53.802 o
-6 -2 6 4.474 7.369 0.947 37.297 o
-6 -2 7 0.312 0.275 0.249 622.176 o
-6 -1 1 18.247 17.021 0.892 15.671 o
-6 -1 2 2.108 2.141 0.492 123.140 o
-6 -1 3 3.494 2.974 0.551 85.796 o
-6 -1 4 3.732 2.724 0.516 89.693 o
-6 -1 5 1.187 0.135 0.339 287.159 o
-6 -1 6 1.764 1.354 0.544 122.936 o
-6 -1 7 0.111 -0.165 0.284 647.688 o
-6 -1 8 0.175 0.262 0.327 449.197 o
-6 0 1 5.043 4.620 0.506 69.927 o
-6 0 2 6.283 7.923 0.845 37.031 o
-6 0 3 14.298 17.096 1.356 13.805 o
-6 0 4 3.809 2.509 0.546 85.674 o
-6 0 5 0.639 1.661 0.635 113.429 o
-6 0 6 12.568 14.183 0.968 20.292 o
-6 0 7 0.031 0.331 0.297 565.197 o
-6 0 8 2.312 3.256 0.432 122.552 o
-6 1 1 56.982 57.840 2.112 2.652 o
-6 1 2 4.096 4.444 0.934 42.440 o
-6 1 3 32.601 33.505 1.273 6.629 o
-6 1 4 68.849 75.219 3.320 1.604 o
-6 1 5 0.429 0.157 0.381 318.912 o
-6 1 6 19.462 18.521 1.103 13.085 o
-6 1 7 6.913 7.253 0.670 43.776 o
-6 1 8 0.177 -0.136 0.280 633.317 o
-6 2 1 1.406 1.266 0.361 212.285 o
-6 2 2 0.083 -0.332 0.566 175.068 o
-6 2 3 10.768 12.095 0.951 23.440 o
-6 2 4 1.778 1.277 0.336 204.789 o
-6 2 5 28.464 34.208 1.499 6.769 o
-6 2 6 7.143 9.336 0.777 36.001 o
-6 2 7 0.017 0.429 0.996 56.516 o
-6 2 8 10.968 11.923 0.996 22.502 o
-6 3 1 28.081 27.417 1.346 7.886 o
-6 3 2 0.806 0.532 0.365 279.051 o
-6 3 3 38.007 39.035 2.514 3.753 o
-6 3 4 20.140 19.310 1.163 12.236 o
-6 3 5 0.131 0.111 0.336 456.600 o
-6 3 6 24.125 24.309 1.170 9.896 o
-6 3 7 33.114 32.599 1.217 6.729 o
-6 4 1 1.784 1.236 0.357 195.469 o
-6 4 2 5.002 4.121 1.306 25.443 o
-6 4 3 2.698 1.658 0.461 123.939 o
-6 4 4 0.565 0.456 0.324 361.687 o
-6 4 5 13.720 10.507 0.801 23.487 o
-6 4 6 3.575 2.253 0.406 113.268 o
-6 5 1 10.376 11.219 0.853 26.418 o
-6 5 2 0.277 0.428 0.322 418.592 o
-6 5 3 0.197 0.755 0.340 371.831 o
-6 5 4 2.322 2.055 0.429 136.480 o
-6 5 5 0.691 0.586 0.289 382.903 o
-6 5 6 1.924 0.654 0.399 182.475 o
-6 6 1 0.370 0.103 0.372 343.328 o
-6 6 2 5.467 6.421 0.635 52.710 o
-6 6 3 1.871 1.840 0.387 166.373 o
-6 6 4 1.885 2.197 0.388 159.621 o
-6 6 5 3.573 2.735 0.535 88.567 o
-6 7 1 17.349 16.670 0.879 16.486 o
-6 7 2 0.887 1.268 0.309 288.372 o
-6 7 3 18.741 17.828 0.862 15.330 o
-5 -7 1 16.326 16.277 1.187 14.535 o
-5 -7 2 0.382 1.305 0.454 207.223 o
-5 -7 3 2.866 3.319 0.622 80.088 o
-5 -7 4 1.206 1.244 0.438 180.716 o
-5 -7 5 0.349 1.419 0.419 231.968 o
-5 -7 6 0.047 0.022 0.260 795.101 o
-5 -7 7 1.054 1.781 0.462 165.233 o
-5 -6 1 7.606 7.140 1.063 27.838 o
-5 -6 2 0.705 1.126 0.540 151.655 o
-5 -6 3 2.870 2.711 0.528 98.232 o
-5 -6 4 1.310 1.197 0.348 228.023 o
-5 -6 5 0.787 0.520 0.295 364.210 o
-5 -6 6 4.312 4.798 0.845 46.814 o
-5 -6 7 0.400 -0.413 0.429 270.757 o
-5 -6 8 0.384 0.781 0.285 430.892 o
-5 -6 9 0.484 0.121 0.275 511.979 o
-5 -5 1 44.624 49.235 2.885 2.813 o
-5 -5 2 0.415 0.233 0.567 159.925 o
-5 -5 3 69.351 71.232 3.560 1.557 o
-5 -5 4 59.269 62.602 2.182 2.439 o
-5 -5 5 0.752 0.875 0.421 222.572 o
-5 -5 6 62.394 61.900 3.859 1.652 o
-5 -5 7 24.470 32.535 2.180 5.717 o
-5 -5 8 0.578 0.655 0.282 408.680 o
-5 -5 9 11.121 10.995 0.856 25.481 o
-5 -5 10 5.269 6.971 0.784 43.870 o
-5 -4 1 39.446 41.949 2.905 3.162 o
-5 -4 2 132.035 134.095 5.167 0.563 o
-5 -4 3 13.420 13.887 0.954 19.857 o
-5 -4 4 39.904 38.265 1.531 4.922 o
-5 -4 5 52.292 50.357 2.056 3.069 o
-5 -4 6 1.826 1.452 0.463 146.168 o
-5 -4 7 12.024 12.996 1.568 13.594 o
-5 -4 8 2.708 2.130 0.487 113.291 o
-5 -4 9 0.704 0.926 0.505 171.529 o
-5 -4 10 1.281 1.232 0.339 234.582 o
-5 -3 1 0.138 -0.896 0.787 90.622 o
-5 -3 2 2.136 1.684 0.572 106.833 o
-5 -3 3 0.593 0.694 0.371 285.563 o
-5 -3 4 2.133 2.385 0.630 90.613 o
-5 -3 5 3.649 2.647 0.621 76.449 o
-5 -3 6 0.209 0.375 0.419 282.290 o
-5 -3 7 15.499 20.236 1.922 8.943 o
-5 -3 8 0.293 0.479 0.344 372.499 o
-5 -3 9 8.259 9.743 0.847 31.084 o
-5 -3 10 5.079 5.868 0.635 55.817 o
-5 -3 11 1.650 1.304 0.446 160.053 o
-5 -2 1 1.778 1.513 0.564 115.730 o
-5 -2 2 0.494 0.400 0.524 178.071 o
-5 -2 3 1.859 1.149 0.421 165.870 o
-5 -2 4 23.470 24.177 1.564 8.492 o
-5 -2 5 43.978 44.799 2.070 3.694 o
-5 -2 6 4.856 5.168 0.755 50.102 o
-5 -2 7 54.085 52.329 3.102 2.295 o
-5 -2 8 17.299 14.393 1.029 15.942 o
-5 -2 9 1.235 0.640 0.336 262.664 o
-5 -2 10 17.448 15.347 1.468 11.970 o
-5 -2 11 7.098 6.284 0.893 35.118 o
-5 -1 1 23.729 21.170 2.046 6.919 o
-5 -1 2 3.779 3.918 0.638 68.726 o
-5 -1 3 17.484 18.478 1.134 13.819 o
-5 -1 4 13.516 15.456 1.263 15.524 o
-5 -1 5 0.014 0.531 0.479 229.852 o
-5 -1 6 36.227 41.028 2.635 3.648 o
-5 -1 7 0.039 0.799 0.591 150.575 o
-5 -1 8 0.293 0.181 0.288 527.927 o
-5 -1 9 0.427 1.703 0.535 153.231 o
-5 -1 10 0.171 -0.166 0.485 231.083 o
-5 -1 11 0.606 0.306 0.432 240.488 o
-5 0 1 87.217 84.249 4.200 1.095 o
-5 0 2 23.203 24.370 1.595 8.408 o
-5 0 3 1.796 2.052 0.816 66.214 o
-5 0 4 16.382 14.060 1.746 10.522 o
-5 0 5 5.524 5.359 1.096 31.039 o
-5 0 6 5.800 4.069 0.682 53.446 o
-5 0 7 1.130 0.545 0.497 167.094 o
-5 0 8 0.209 0.540 0.467 228.442 o
-5 0 9 1.668 1.669 0.454 150.986 o
-5 0 10 0.162 -0.443 0.600 153.470 o
-5 0 11 0.049 0.128 0.291 617.648 o
-5 1 1 30.040 29.381 2.523 4.607 o
-5 1 2 7.182 6.619 1.269 23.172 o
-5 1 3 42.253 39.020 2.836 3.172 o
-5 1 4 6.794 6.184 0.822 38.859 o
-5 1 5 26.488 26.270 2.388 5.321 o
-5 1 6 14.542 15.233 1.704 11.174 o
-5 1 7 1.005 1.256 0.470 172.396 o
-5 1 8 2.381 2.627 0.586 94.379 o
-5 1 9 21.844 25.934 1.073 10.785 o
-5 1 10 2.133 2.702 0.483 119.401 o
-5 1 11 0.899 0.908 0.370 250.641 o
-5 2 1 95.240 102.134 4.974 0.844 o
-5 2 2 47.392 46.966 2.425 3.118 o
-5 2 3 7.196 6.712 0.873 35.232 o
-5 2 4 28.575 28.173 1.662 6.825 o
-5 2 5 5.129 4.599 1.013 35.785 o
-5 2 6 0.410 0.140 0.534 179.826 o
-5 2 7 2.099 1.643 0.539 115.731 o
-5 2 8 1.249 0.913 0.292 284.868 o
-5 2 9 6.603 5.692 0.528 55.457 o
-5 2 10 12.294 9.699 1.026 21.777 o
-5 3 1 11.333 12.094 1.110 20.166 o
-5 3 2 8.518 9.467 1.016 26.358 o
-5 3 3 76.746 83.424 3.892 1.277 o
-5 3 4 9.690 10.132 1.459 16.656 o
-5 3 5 19.016 25.059 1.498 9.773 o
-5 3 6 0.405 1.044 0.502 181.755 o
-5 3 7 9.438 11.071 0.777 29.694 o
-5 3 8 2.559 3.526 0.463 109.000 o
-5 3 9 0.292 0.846 0.330 365.522 o
-5 3 10 1.010 0.923 0.397 222.248 o
-5 4 1 185.379 178.066 3.821 0.381 o
-5 4 2 90.469 92.227 4.039 1.052 o
-5 4 3 38.342 38.815 2.685 3.532 o
-5 4 4 191.213 194.409 5.920 0.311 o
-5 4 5 86.798 98.634 4.184 1.034 o
-5 4 6 1.025 1.985 0.536 134.463 o
-5 4 7 157.770 164.647 3.365 0.489 o
-5 4 8 2.462 1.729 0.441 133.695 o
-5 4 9 0.401 0.646 0.379 297.718 o
-5 5 1 1.158 1.424 0.465 166.280 o
-5 5 2 16.642 14.995 1.165 14.907 o
-5 5 3 10.648 8.041 0.900 27.232 o
-5 5 4 1.654 2.009 0.534 121.784 o
-5 5 5 33.515 28.316 1.197 7.083 o
-5 5 6 57.030 65.737 1.717 2.673 o
-5 5 7 5.809 5.938 0.531 58.834 o
-5 5 8 2.735 3.838 0.634 77.372 o
-5 5 9 4.683 4.687 0.669 58.251 o
-5 6 1 15.734 16.525 1.181 14.838 o
-5 6 2 0.775 0.400 0.381 271.572 o
-5 6 3 5.511 5.122 0.718 50.033 o
-5 6 4 10.048 9.621 0.898 27.005 o
-5 6 5 0.213 0.299 0.358 375.761 o
-5 6 6 70.091 66.871 1.946 2.100 o
-5 6 7 0.105 0.316 0.537 186.523 o
-5 6 8 0.146 0.219 0.320 477.522 o
-5 7 1 2.464 2.334 0.518 108.918 o
-5 7 2 2.659 3.315 0.836 56.599 o
-5 7 3 1.087 1.881 0.465 161.067 o
-5 7 4 0.047 -0.276 0.334 496.483 o
-5 7 5 9.152 10.734 1.290 19.440 o
-5 7 6 3.711 2.248 0.644 74.598 o
-5 7 7 1.436 1.126 0.416 184.934 o
-5 8 1 42.729 45.007 2.106 3.733 o
-5 8 2 3.656 3.391 0.546 82.819 o
-5 8 3 8.353 9.237 0.753 34.194 o
-5 8 4 10.636 11.832 0.852 25.653 o
-5 8 5 0.008 0.167 0.254 807.739 o
-5 8 6 0.688 0.821 0.415 232.671 o
-5 9 1 0.002 -0.026 0.236 1022.770 o
-5 9 2 1.423 1.707 0.393 184.286 o
-5 9 3 2.773 2.858 0.511 101.747 o
-5 9 4 0.162 0.619 0.338 392.472 o
-5 10 1 44.039 40.429 1.975 3.938 o
-5 10 2 0.220 0.424 0.342 391.488 o
-4 -9 1 0.231 0.955 0.410 265.658 o
-4 -9 2 6.996 6.166 0.772 40.540 o
-4 -9 3 5.631 4.199 0.681 53.956 o
-4 -9 4 0.079 0.333 0.288 575.616 o
-4 -9 5 6.052 5.969 0.814 41.488 o
-4 -9 6 5.974 7.124 0.871 37.560 o
-4 -9 7 0.537 1.086 0.451 207.135 o
-4 -9 8 4.697 3.659 0.618 65.536 o
-4 -8 1 20.902 21.877 1.212 11.170 o
-4 -8 2 2.001 2.238 0.483 126.534 o
-4 -8 3 1.093 0.974 0.283 305.947 o
-4 -8 4 9.214 10.200 0.880 28.242 o
-4 -8 5 2.331 3.086 0.796 62.783 o
-4 -8 6 1.748 1.215 0.629 102.335 o
-4 -8 7 9.463 11.193 1.297 18.935 o
-4 -8 8 0.827 1.504 0.561 135.419 o
-4 -8 9 0.686 0.720 0.443 214.626 o
-4 -8 10 1.528 1.588 0.309 224.718 o
-4 -7 1 0.001 -0.407 0.380 393.067 o
-4 -7 2 3.595 3.448 0.626 73.035 o
-4 -7 3 5.858 4.596 0.555 60.755 o
-4 -7 4 0.003 -0.374 0.439 295.516 o
-4 -7 5 1.123 -0.226 0.562 145.685 o
-4 -7 6 0.041 0.225 0.562 174.665 o
-4 -7 7 0.201 0.187 0.519 197.158 o
-4 -7 8 1.307 0.666 0.607 118.947 o
-4 -7 9 4.187 5.504 0.910 42.174 o
-4 -7 10 0.789 0.260 0.392 265.937 o
-4 -7 11 1.754 1.196 0.303 225.649 o
-4 -6 1 46.429 45.648 1.771 3.782 o
-4 -6 2 5.400 7.425 0.920 36.415 o
-4 -6 3 2.377 2.797 2.028 13.003 o
-4 -6 4 27.964 24.160 1.599 7.461 o
-4 -6 5 15.014 17.835 1.381 13.118 o
-4 -6 6 1.579 2.014 0.809 68.417 o
-4 -6 7 12.566 16.943 1.840 10.483 o
-4 -6 8 16.113 16.250 1.185 14.673 o
-4 -6 9 7.061 6.506 1.104 27.775 o
-4 -6 10 16.040 17.654 1.117 14.937 o
-4 -6 11 1.488 2.035 0.422 162.803 o
-4 -6 12 6.349 5.801 0.785 42.284 o
-4 -5 1 0.792 0.392 0.399 253.377 o
-4 -5 2 15.775 13.287 1.298 14.553 o
-4 -5 3 13.268 13.113 1.216 16.905 o
-4 -5 4 6.451 6.409 0.898 36.166 o
-4 -5 5 5.742 6.566 0.904 37.301 o
-4 -5 6 6.062 4.247 1.113 30.413 o
-4 -5 7 12.110 10.860 1.057 20.880 o
-4 -5 8 45.052 38.369 1.846 4.078 o
-4 -5 9 0.724 1.196 0.477 180.227 o
-4 -5 10 5.172 5.424 1.349 23.487 o
-4 -5 11 7.456 6.724 0.741 39.839 o
-4 -5 12 0.013 -0.010 0.421 319.213 o
-4 -5 13 0.571 1.142 0.291 354.540 o
-4 -4 1 38.621 43.247 2.138 4.040 o
-4 -4 2 88.320 83.492 2.390 1.410 o
-4 -4 3 63.862 59.410 2.046 2.390 o
-4 -4 4 123.221 126.363 2.978 0.760 o
-4 -4 5 18.774 19.173 1.197 12.619 o
-4 -4 6 19.778 18.242 1.359 11.371 o
-4 -4 7 117.319 113.690 4.084 0.759 o
-4 -4 8 0.081 1.324 0.512 182.906 o
-4 -4 9 7.159 9.317 1.686 14.893 o
-4 -4 10 13.599 17.478 0.986 17.854 o
-4 -4 11 0.842 1.401 0.350 252.026 o
-4 -4 12 4.858 5.115 0.739 51.268 o
-4 -4 13 19.053 22.885 1.441 10.376 o
-4 -3 1 3.677 5.916 1.373 23.914 o
-4 -3 2 363.506 345.688 5.796 0.111 o
-4 -3 3 54.107 58.024 2.340 2.639 o
-4 -3 4 6.965 7.086 0.729 41.238 o
-4 -3 5 19.850 17.738 1.128 12.922 o
-4 -3 6 13.860 13.556 1.211 16.453 o
-4 -3 7 9.239 8.660 1.424 17.856 o
-4 -3 8 11.673 11.102 1.521 14.650 o
-4 -3 9 0.002 -0.000 0.421 321.029 o
-4 -3 10 5.423 5.051 0.610 57.909 o
-4 -3 11 2.268 1.926 0.529 112.824 o
-4 -3 12 1.097 0.882 0.375 233.672 o
-4 -3 13 11.103 9.955 1.019 22.980 o
-4 -2 1 395.328 389.119 8.878 0.087 o
-4 -2 2 15.294 15.590 1.821 10.105 o
-4 -2 3 49.123 46.595 1.711 3.616 o
-4 -2 4 134.321 143.655 3.026 0.644 o
-4 -2 5 7.048 7.332 0.635 44.735 o
-4 -2 6 126.152 125.786 3.497 0.712 o
-4 -2 7 42.216 50.193 2.215 3.495 o
-4 -2 8 0.373 0.862 0.689 108.007 o
-4 -2 9 14.257 17.345 1.075 16.497 o
-4 -2 10 29.908 35.463 1.836 5.711 o
-4 -2 11 1.115 1.050 0.375 227.098 o
-4 -2 12 1.653 1.512 0.607 106.880 o
-4 -2 13 0.853 1.738 0.516 148.991 o
-4 -1 1 83.665 81.373 3.664 1.252 o
-4 -1 2 104.276 118.171 4.300 0.808 o
-4 -1 3 70.158 69.444 3.408 1.605 o
-4 -1 4 39.838 39.853 2.652 3.463 o
-4 -1 5 148.646 145.079 3.429 0.558 o
-4 -1 6 32.753 33.889 1.441 6.243 o
-4 -1 7 9.648 9.282 0.791 30.528 o
-4 -1 8 12.824 10.108 0.796 24.945 o
-4 -1 9 1.171 0.992 0.462 175.007 o
-4 -1 10 8.887 7.988 0.794 33.114 o
-4 -1 11 0.281 -0.033 0.318 476.743 o
-4 -1 12 1.633 1.412 0.563 119.643 o
-4 -1 13 0.498 0.798 0.435 228.880 o
-4 0 1 23.110 23.188 2.049 6.853 o
-4 0 2 0.014 0.032 0.241 949.313 o
-4 0 3 3.951 3.425 0.569 77.034 o
-4 0 4 28.429 32.151 2.114 5.465 o
-4 0 5 1.870 1.393 0.302 213.293 o
-4 0 6 0.592 1.011 0.253 416.419 o
-4 0 7 10.944 10.459 0.706 29.232 o
-4 0 8 3.956 5.077 0.615 66.031 o
-4 0 9 0.764 0.708 0.374 266.310 o
-4 0 10 0.087 0.032 0.374 388.984 o
-4 0 11 0.015 0.227 0.365 402.419 o
-4 0 12 10.969 10.376 1.159 20.401 o
-4 0 13 2.002 2.238 0.376 159.202 o
-4 1 1 39.843 39.573 1.666 4.688 o
-4 1 2 1.544 0.886 0.493 150.699 o
-4 1 3 0.144 0.309 0.307 500.225 o
-4 1 4 32.215 31.944 1.574 6.193 o
-4 1 5 28.474 25.647 2.106 5.839 o
-4 1 6 5.569 5.073 0.495 65.472 o
-4 1 7 4.387 4.336 0.552 71.671 o
-4 1 8 180.921 183.744 3.302 0.395 o
-4 1 9 4.356 4.176 1.123 32.699 o
-4 1 10 0.904 0.985 0.482 174.947 o
-4 1 11 0.032 0.100 0.395 353.306 o
-4 1 12 1.020 1.054 0.443 189.909 o
-4 1 13 0.179 0.260 0.311 487.411 o
-4 2 1 1.043 3.581 0.746 75.737 o
-4 2 2 2.643 1.943 0.609 91.198 o
-4 2 3 121.062 121.464 4.092 0.713 o
-4 2 4 71.096 73.327 3.297 1.588 o
-4 2 5 0.021 0.001 0.372 406.246 o
-4 2 6 29.324 36.409 1.760 5.886 o
-4 2 7 316.957 325.932 4.340 0.140 o
-4 2 8 7.577 7.768 0.920 31.807 o
-4 2 9 102.468 108.097 4.537 0.828 o
-4 2 10 32.590 33.635 2.357 4.542 o
-4 2 11 1.138 1.545 0.401 196.495 o
-4 2 12 9.578 9.263 0.708 32.873 o
-4 3 1 0.751 0.344 0.412 246.845 o
-4 3 2 268.094 275.564 6.040 0.179 o
-4 3 3 7.518 6.059 0.998 30.782 o
-4 3 4 51.006 51.589 1.389 3.549 o
-4 3 5 40.644 38.180 1.240 5.207 o
-4 3 6 0.184 -0.149 0.250 763.365 o
-4 3 7 316.358 314.101 4.264 0.143 o
-4 3 8 7.059 8.836 0.771 36.967 o
-4 3 9 0.791 0.781 0.611 126.072 o
-4 3 10 37.033 38.657 2.422 3.943 o
-4 3 11 12.153 11.736 1.223 17.997 o
-4 3 12 0.603 0.628 0.378 279.729 o
-4 4 1 328.790 326.994 6.617 0.126 o
-4 4 2 0.253 0.510 0.590 149.345 o
-4 4 3 65.793 69.939 1.877 2.207 o
-4 4 4 23.676 25.345 1.004 10.536 o
-4 4 5 4.005 5.126 0.613 65.734 o
-4 4 6 36.134 39.137 1.878 4.769 o
-4 4 7 3.021 2.303 0.586 88.969 o
-4 4 8 17.268 19.491 1.304 12.444 o
-4 4 9 0.104 -0.328 0.622 144.656 o
-4 4 10 1.124 1.746 0.642 104.127 o
-4 4 11 0.095 0.039 0.363 409.243 o
-4 5 1 474.152 481.400 12.112 0.058 o
-4 5 2 213.067 211.671 3.257 0.301 o
-4 5 3 1.823 1.817 0.378 172.135 o
-4 5 4 63.183 61.796 2.371 2.238 o
-4 5 5 58.907 58.751 2.271 2.480 o
-4 5 6 0.875 0.818 0.458 192.649 o
-4 5 7 2.768 3.636 0.678 72.235 o
-4 5 8 6.413 6.046 1.020 31.863 o
-4 5 9 0.043 0.163 0.446 274.761 o
-4 5 10 5.408 4.524 0.770 48.272 o
-4 5 11 0.762 0.730 0.318 323.275 o
-4 6 1 3.101 2.120 0.382 129.115 o
-4 6 2 0.927 0.789 0.288 332.673 o
-4 6 3 20.481 25.361 1.183 10.850 o
-4 6 4 11.075 11.390 0.815 26.084 o
-4 6 5 2.087 2.273 0.578 101.957 o
-4 6 6 20.829 24.243 1.541 9.201 o
-4 6 7 2.392 2.891 0.593 91.587 o
-4 6 8 1.337 2.218 0.491 139.464 o
-4 6 9 0.147 0.205 0.382 350.690 o
-4 6 10 1.203 1.300 0.485 158.003 o
-4 7 1 36.034 35.071 1.711 5.251 o
-4 7 2 119.081 113.585 3.015 0.831 o
-4 7 3 1.120 1.147 0.362 232.546 o
-4 7 4 68.630 69.042 2.444 1.953 o
-4 7 5 39.556 38.629 2.497 3.693 o
-4 7 6 0.706 0.613 0.324 330.962 o
-4 7 7 10.075 10.775 0.720 30.162 o
-4 7 8 21.652 21.577 1.075 11.658 o
-4 7 9 0.177 0.350 0.378 343.814 o
-4 8 1 3.510 3.791 0.509 87.184 o
-4 8 2 5.398 4.979 1.042 33.658 o
-4 8 3 0.194 0.222 0.591 154.306 o
-4 8 4 0.041 -0.204 0.663 128.683 o
-4 8 5 0.221 -0.431 0.361 392.768 o
-4 8 6 0.462 -0.020 0.333 403.799 o
-4 8 7 0.454 0.455 0.379 302.553 o
-4 9 1 98.810 99.645 2.313 1.156 o
-4 9 2 0.474 1.246 0.367 274.294 o
-4 9 3 3.281 3.694 0.641 72.758 o
-4 9 4 12.991 12.827 0.940 20.931 o
-4 9 5 3.520 2.960 0.472 97.464 o
-4 9 6 0.203 0.089 0.270 639.612 o
-4 10 1 0.014 0.012 0.282 704.357 o
-4 10 2 29.226 25.992 1.055 8.618 o
-4 10 3 3.073 4.025 0.577 81.180 o
-4 10 4 0.008 -0.007 0.360 436.796 o
-4 10 5 2.073 2.248 0.502 120.197 o
-4 11 1 6.718 6.724 0.502 53.694 o
-4 11 2 15.912 12.825 1.022 17.477 o
-4 11 3 1.704 1.383 0.379 185.306 o
-3 -11 3 0.201 0.229 0.307 495.248 o
-3 -11 4 1.606 1.623 0.481 143.667 o
-3 -11 5 3.965 5.637 0.507 74.351 o
-3 -11 6 0.993 1.909 0.465 163.891 o
-3 -11 7 2.428 1.897 0.478 122.734 o
-3 -10 1 14.259 15.024 0.937 18.863 o
-3 -10 2 0.013 0.310 0.423 299.961 o
-3 -10 3 4.495 5.181 0.605 63.173 o
-3 -10 4 2.882 3.283 0.714 68.332 o
-3 -10 5 0.008 0.780 0.534 182.933 o
-3 -10 6 1.619 3.030 0.709 79.020 o
-3 -10 7 0.388 1.119 0.596 136.378 o
-3 -10 8 0.019 0.003 0.387 375.821 o
-3 -10 9 0.199 0.566 0.422 271.126 o
-3 -10 10 0.076 0.617 0.320 445.947 o
-3 -9 1 19.406 17.090 2.317 6.789 o
-3 -9 2 102.937 99.190 2.673 1.072 o
-3 -9 3 14.237 14.840 1.571 12.394 o
-3 -9 4 26.186 24.985 2.072 6.248 o
-3 -9 5 63.713 61.767 3.226 1.872 o
-3 -9 6 8.717 11.030 1.431 17.357 o
-3 -9 7 6.692 7.588 1.242 23.821 o
-3 -9 8 7.265 9.854 1.271 21.624 o
-3 -9 9 3.350 3.793 0.732 62.091 o
-3 -9 10 0.955 0.541 0.265 374.907 o
-3 -9 11 2.146 1.974 0.369 161.010 o
-3 -9 12 0.107 0.141 0.185 1246.900 o
-3 -8 1 0.013 -0.184 0.403 349.259 o
-3 -8 2 0.025 0.029 0.290 656.788 o
-3 -8 3 2.487 2.089 0.848 58.928 o
-3 -8 4 0.146 0.731 0.802 84.093 o
-3 -8 5 3.636 1.778 0.820 57.120 o
-3 -8 6 3.284 3.211 0.972 43.873 o
-3 -8 7 0.288 -1.709 0.792 88.209 o
-3 -8 8 5.903 5.704 1.118 29.424 o
-3 -8 9 16.766 14.158 1.048 16.172 o
-3 -8 10 1.091 0.733 0.318 286.462 o
-3 -8 11 1.951 1.338 0.289 216.578 o
-3 -8 12 2.120 1.014 0.264 228.048 o
-3 -7 1 39.619 40.708 2.076 4.135 o
-3 -7 2 13.649 11.399 0.898 21.598 o
-3 -7 3 8.905 7.220 0.638 39.062 o
-3 -7 4 14.480 13.812 1.212 16.000 o
-3 -7 5 15.380 17.836 1.390 12.893 o
-3 -7 6 0.133 -0.068 0.585 162.458 o
-3 -7 7 13.011 13.601 1.158 17.639 o
-3 -7 8 51.714 52.227 2.159 2.983 o
-3 -7 9 1.641 0.784 0.626 107.586 o
-3 -7 10 10.273 8.877 1.089 23.039 o
-3 -7 11 2.494 3.820 0.588 86.257 o
-3 -7 12 0.000 -0.069 0.265 812.461 o
-3 -7 13 0.469 0.330 0.225 618.130 o
-3 -7 14 2.039 2.999 0.536 106.375 o
-3 -6 1 150.457 170.010 4.267 0.476 o
-3 -6 2 0.003 0.462 0.278 614.302 o
-3 -6 3 98.535 83.047 2.208 1.283 o
-3 -6 4 3.371 3.003 0.548 87.394 o
-3 -6 5 0.243 0.339 0.338 404.128 o
-3 -6 6 14.525 15.872 0.895 18.766 o
-3 -6 7 41.143 38.129 1.811 4.450 o
-3 -6 8 0.041 0.001 0.413 329.366 o
-3 -6 9 75.034 71.734 2.009 1.879 o
-3 -6 10 1.950 1.820 0.676 87.041 o
-3 -6 11 0.016 0.402 0.381 357.531 o
-3 -6 12 2.928 3.169 0.453 107.821 o
-3 -6 13 0.108 0.033 0.226 958.854 o
-3 -6 14 0.599 0.820 0.343 308.649 o
-3 -5 1 16.362 15.905 1.853 9.617 o
-3 -5 2 903.731 929.970 13.297 0.018 o
-3 -5 3 3.025 3.148 0.941 46.886 o
-3 -5 4 231.423 234.978 6.659 0.222 o
-3 -5 5 218.189 226.298 4.631 0.267 o
-3 -5 6 0.430 -0.363 0.628 134.842 o
-3 -5 7 202.858 193.081 3.421 0.334 o
-3 -5 8 20.475 24.433 1.254 10.658 o
-3 -5 9 4.872 4.666 0.587 63.987 o
-3 -5 10 23.486 23.229 1.161 10.306 o
-3 -5 11 16.001 16.549 1.187 14.635 o
-3 -5 12 0.759 0.099 0.326 357.633 o
-3 -5 13 0.048 0.022 0.374 395.450 o
-3 -5 14 0.672 1.357 0.334 282.354 o
-3 -4 1 89.285 87.964 3.941 1.101 o
-3 -4 2 90.228 89.469 3.912 1.088 o
-3 -4 3 0.167 0.837 0.642 126.211 o
-3 -4 4 6.571 7.760 1.215 24.546 o
-3 -4 5 35.638 40.721 2.697 3.612 o
-3 -4 6 45.922 42.584 2.735 3.023 o
-3 -4 7 1.300 1.852 0.467 154.141 o
-3 -4 8 0.420 1.074 0.406 249.686 o
-3 -4 9 2.572 4.448 0.429 107.537 o
-3 -4 10 5.100 5.356 0.615 58.467 o
-3 -4 11 0.091 -0.186 0.302 587.271 o
-3 -4 12 33.241 32.033 1.303 6.586 o
-3 -4 13 7.429 6.926 0.764 38.704 o
-3 -4 14 1.244 0.999 0.535 141.309 o
-3 -4 15 3.013 2.728 0.534 95.400 o
-3 -3 1 503.724 461.005 8.223 0.060 o
-3 -3 2 71.460 72.020 3.293 1.594 o
-3 -3 3 5.888 6.820 1.121 28.613 o
-3 -3 4 117.154 108.681 4.115 0.773 o
-3 -3 5 134.903 146.002 4.792 0.550 o
-3 -3 6 0.205 0.233 0.497 212.115 o
-3 -3 7 54.664 57.451 3.180 2.165 o
-3 -3 8 27.318 30.153 1.141 8.338 o
-3 -3 9 5.120 4.904 0.483 70.217 o
-3 -3 10 59.631 58.542 1.621 2.758 o
-3 -3 11 22.774 24.056 1.048 10.899 o
-3 -3 12 21.399 19.132 1.280 11.107 o
-3 -3 13 92.835 90.894 2.525 1.265 o
-3 -3 14 6.970 7.464 1.010 30.138 o
-3 -3 15 4.588 2.902 0.553 75.662 o
-3 -2 1 1.095 1.937 0.955 54.105 o
-3 -2 2 26.043 30.031 2.005 6.129 o
-3 -2 3 30.932 43.795 2.439 4.158 o
-3 -2 4 4.915 3.266 0.764 53.044 o
-3 -2 5 36.284 37.811 2.363 4.104 o
-3 -2 6 12.522 12.061 1.421 15.182 o
-3 -2 7 0.000 0.122 0.527 201.972 o
-3 -2 8 14.411 16.089 1.181 15.698 o
-3 -2 9 475.137 480.621 4.075 0.066 o
-3 -2 10 13.430 14.422 0.849 20.973 o
-3 -2 11 37.331 35.427 1.902 4.795 o
-3 -2 12 44.564 42.007 1.896 3.926 o
-3 -2 13 5.625 6.130 1.111 29.769 o
-3 -2 14 9.676 8.290 1.056 24.707 o
-3 -2 15 2.186 2.325 0.496 118.716 o
-3 -1 1 1110.940 1144.970 10.561 0.012 o
-3 -1 2 80.143 57.531 1.900 1.959 o
-3 -1 3 120.129 111.597 3.655 0.782 o
-3 -1 4 490.710 465.164 7.671 0.062 o
-3 -1 5 110.169 113.647 3.951 0.817 o
-3 -1 6 14.419 12.226 1.380 14.657 o
-3 -1 7 67.766 71.844 3.393 1.631 o
-3 -1 8 203.932 205.957 4.152 0.310 o
-3 -1 9 64.668 67.542 2.008 2.239 o
-3 -1 10 87.270 100.269 2.438 1.290 o
-3 -1 11 6.286 7.191 0.821 38.918 o
-3 -1 12 4.227 4.457 1.012 37.819 o
-3 -1 13 0.243 -0.534 0.589 157.111 o
-3 -1 14 0.201 0.185 0.372 361.865 o
-3 0 1 99.092 114.982 2.624 1.034 o
-3 0 2 4.836 6.129 0.618 57.595 o
-3 0 3 1222.600 1283.870 11.932 0.010 o
-3 0 4 2.500 2.704 0.683 77.136 o
-3 0 5 46.284 53.062 2.659 2.846 o
-3 0 6 2.447 2.256 0.743 70.903 o
-3 0 7 4.087 3.547 0.857 48.807 o
-3 0 8 228.572 215.694 4.276 0.264 o
-3 0 9 260.959 267.153 5.564 0.191 o
-3 0 10 4.394 4.409 0.605 66.244 o
-3 0 11 6.235 6.648 1.183 26.374 o
-3 0 12 0.271 0.391 0.536 179.358 o
-3 0 13 1.192 1.278 0.624 111.178 o
-3 0 14 0.066 -0.352 0.374 394.192 o
-3 1 1 8.017 14.957 0.684 30.936 o
-3 1 2 380.616 368.997 8.847 0.093 o
-3 1 3 7.692 11.023 0.784 32.764 o
-3 1 4 122.627 129.011 3.891 0.698 o
-3 1 5 40.931 35.629 1.501 4.993 o
-3 1 6 61.027 59.330 2.738 2.179 o
-3 1 7 94.392 86.517 3.438 1.136 o
-3 1 8 0.103 0.216 0.293 571.005 o
-3 1 9 169.445 177.775 2.809 0.444 o
-3 1 10 0.357 0.792 0.509 184.785 o
-3 1 11 2.385 4.034 0.975 45.016 o
-3 1 12 0.238 0.186 0.492 215.825 o
-3 1 13 3.418 3.839 0.789 56.296 o
-3 1 14 0.565 0.570 0.244 493.071 o
-3 2 1 4.292 4.506 0.413 86.374 o
-3 2 2 563.276 550.289 8.256 0.047 o
-3 2 3 0.783 0.405 0.398 254.723 o
-3 2 4 2.621 2.163 0.552 100.848 o
-3 2 5 27.803 23.692 1.677 7.287 o
-3 2 6 21.064 18.461 1.554 9.824 o
-3 2 7 4.370 3.222 0.551 76.445 o
-3 2 8 45.120 45.176 1.355 4.273 o
-3 2 9 5.668 4.858 0.626 56.065 o
-3 2 10 0.017 -0.376 0.568 176.112 o
-3 2 11 1.355 2.376 0.772 73.879 o
-3 2 12 3.359 2.176 0.478 104.275 o
-3 2 13 0.138 0.102 0.253 745.815 o
-3 3 1 479.840 469.659 6.512 0.065 o
-3 3 2 46.518 41.489 2.024 3.682 o
-3 3 3 222.140 220.667 4.841 0.263 o
-3 3 4 548.317 578.454 5.681 0.048 o
-3 3 5 50.449 48.408 1.755 3.440 o
-3 3 6 82.659 88.364 2.479 1.448 o
-3 3 7 244.090 247.982 2.752 0.235 o
-3 3 8 4.912 4.221 0.796 48.973 o
-3 3 9 24.915 25.860 2.122 6.210 o
-3 3 10 12.997 13.315 1.097 18.539 o
-3 3 11 2.211 2.366 0.674 82.322 o
-3 3 12 12.057 12.228 0.886 23.043 o
-3 3 13 3.786 4.081 0.464 88.442 o
-3 4 1 3.039 4.636 0.759 58.971 o
-3 4 2 261.761 266.567 5.664 0.190 o
-3 4 3 333.897 328.374 4.379 0.130 o
-3 4 4 36.573 39.634 1.565 5.163 o
-3 4 5 224.717 228.175 4.767 0.255 o
-3 4 6 70.737 68.381 1.816 2.096 o
-3 4 7 21.849 19.789 0.818 13.296 o
-3 4 8 34.662 30.905 1.636 5.803 o
-3 4 9 21.903 20.755 1.361 10.252 o
-3 4 10 0.067 -0.259 0.400 347.135 o
-3 4 11 3.721 2.885 0.703 65.565 o
-3 4 12 0.001 0.493 0.292 561.446 o
-3 5 1 163.174 145.699 4.045 0.482 o
-3 5 2 9.101 8.479 0.711 34.668 o
-3 5 3 2.119 2.796 0.522 109.885 o
-3 5 4 41.246 38.971 2.654 3.411 o
-3 5 5 1.416 1.092 0.290 263.183 o
-3 5 6 6.548 7.295 0.565 50.038 o
-3 5 7 17.081 18.541 1.042 14.735 o
-3 5 8 0.835 0.842 0.539 152.357 o
-3 5 9 0.067 0.162 0.538 190.322 o
-3 5 10 69.105 66.495 2.950 1.803 o
-3 5 11 0.066 -0.296 0.274 719.361 o
-3 5 12 10.352 9.262 0.904 26.703 o
-3 6 1 34.677 35.708 2.182 4.578 o
-3 6 2 309.719 294.631 6.085 0.146 o
-3 6 3 0.697 0.928 0.250 408.421 o
-3 6 4 29.392 32.099 1.123 7.694 o
-3 6 5 71.913 67.561 1.918 2.044 o
-3 6 6 8.912 7.990 0.890 30.241 o
-3 6 7 15.325 15.998 1.192 15.101 o
-3 6 8 109.563 106.452 2.820 0.955 o
-3 6 9 1.151 0.630 0.555 140.212 o
-3 6 10 45.877 41.011 1.510 4.247 o
-3 6 11 24.923 25.345 1.498 8.293 o
-3 7 1 98.610 104.408 2.836 1.072 o
-3 7 2 0.489 0.648 0.304 391.007 o
-3 7 3 266.678 276.402 3.865 0.193 o
-3 7 4 9.947 10.743 0.818 28.159 o
-3 7 5 0.079 0.117 0.483 235.037 o
-3 7 6 5.687 6.553 0.817 41.556 o
-3 7 7 1.700 1.371 0.390 180.713 o
-3 7 8 5.111 4.689 0.517 68.192 o
-3 7 9 1.678 1.696 0.636 98.553 o
-3 7 10 2.690 3.276 0.654 77.336 o
-3 8 1 64.685 64.717 2.350 2.156 o
-3 8 2 22.307 19.665 1.081 11.749 o
-3 8 3 45.446 43.994 1.979 3.714 o
-3 8 4 4.497 4.306 0.560 70.156 o
-3 8 5 20.903 21.448 1.391 10.300 o
-3 8 6 2.290 1.694 0.508 119.737 o
-3 8 7 1.269 0.645 0.564 134.104 o
-3 8 8 0.956 0.692 0.489 174.740 o
-3 8 9 0.052 -0.345 0.382 381.682 o
-3 9 1 2.690 1.563 0.517 111.635 o
-3 9 2 6.224 5.336 0.625 52.353 o
-3 9 3 1.579 0.903 0.344 222.504 o
-3 9 4 2.735 2.685 0.567 93.229 o
-3 9 5 0.362 0.654 0.428 249.050 o
-3 9 6 14.107 12.906 0.945 19.792 o
-3 9 7 7.111 6.592 0.918 33.851 o
-3 9 8 0.946 0.870 0.402 224.223 o
-3 10 1 5.407 6.047 0.775 45.389 o
-3 10 2 65.937 66.206 1.831 2.279 o
-3 10 3 5.868 6.111 0.582 54.819 o
-3 10 4 3.444 3.689 0.592 77.422 o
-3 10 5 29.822 27.495 1.273 7.715 o
-3 10 6 0.491 0.338 0.356 335.163 o
-3 11 1 4.797 5.381 0.643 57.903 o
-3 11 2 1.578 1.049 0.295 248.230 o
-3 11 3 0.576 0.495 0.439 230.797 o
-3 11 4 6.463 7.004 0.845 37.661 o
-3 12 1 23.514 23.710 1.297 9.641 o
-3 12 2 52.566 53.613 2.120 2.935 o
-2 -12 2 9.623 7.354 0.816 31.644 o
-2 -12 3 19.748 17.333 1.270 12.114 o
-2 -12 4 0.937 0.357 0.285 367.132 o
-2 -12 5 11.489 10.770 1.009 22.335 o
-2 -12 6 7.128 4.580 0.681 47.114 o
-2 -12 7 0.080 0.146 0.335 466.410 o
-2 -12 8 0.117 -0.341 0.352 432.609 o
-2 -11 1 0.171 0.009 0.297 572.199 o
-2 -11 2 1.095 1.478 0.449 175.243 o
-2 -11 3 0.039 0.246 0.312 527.813 o
-2 -11 4 29.867 26.171 1.422 7.433 o
-2 -11 5 6.665 7.016 1.045 29.823 o
-2 -11 6 0.827 1.258 0.621 117.900 o
-2 -11 7 27.042 27.084 1.926 6.406 o
-2 -11 8 11.946 10.851 1.194 18.890 o
-2 -11 9 2.251 2.093 0.543 108.532 o
-2 -11 10 6.816 7.270 0.567 48.884 o
-2 -11 11 7.120 6.173 0.703 43.323 o
-2 -10 1 0.037 -0.340 0.451 276.545 o
-2 -10 2 21.527 21.397 1.614 9.039 o
-2 -10 3 1.490 1.920 0.562 117.920 o
-2 -10 4 2.868 3.647 0.736 64.812 o
-2 -10 5 18.593 20.515 1.460 10.770 o
-2 -10 6 42.652 44.194 2.775 3.096 o
-2 -10 7 0.924 1.192 0.718 92.195 o
-2 -10 8 63.125 66.474 4.240 1.474 o
-2 -10 9 63.918 65.402 2.127 2.254 o
-2 -10 10 6.938 5.871 0.619 48.597 o
-2 -10 11 44.625 43.881 1.435 4.302 o
-2 -10 12 3.410 3.744 0.426 100.668 o
-2 -9 1 15.853 17.056 1.051 15.810 o
-2 -9 2 25.667 28.775 1.347 8.262 o
-2 -9 3 6.245 5.541 0.845 40.040 o
-2 -9 4 76.634 72.754 2.667 1.663 o
-2 -9 5 0.979 1.102 0.560 136.799 o
-2 -9 6 0.491 0.712 0.577 146.296 o
-2 -9 7 0.366 0.031 0.380 336.713 o
-2 -9 8 7.622 8.228 0.872 32.868 o
-2 -9 9 3.149 3.758 0.810 55.821 o
-2 -9 10 28.633 26.354 1.370 7.810 o
-2 -9 11 1.007 2.296 0.719 85.886 o
-2 -9 12 0.106 0.246 0.313 504.936 o
-2 -9 13 4.897 5.238 0.534 66.350 o
-2 -8 1 6.312 5.322 0.565 55.653 o
-2 -8 2 61.573 57.175 1.677 2.679 o
-2 -8 3 572.212 603.883 6.259 0.044 o
-2 -8 4 1.119 1.895 0.500 146.043 o
-2 -8 5 148.080 142.790 3.035 0.580 o
-2 -8 6 46.798 47.663 1.300 4.068 o
-2 -8 7 2.608 1.623 0.518 112.218 o
-2 -8 8 51.606 50.305 2.101 3.074 o
-2 -8 9 0.108 0.385 0.496 214.137 o
-2 -8 10 6.194 6.542 0.784 41.708 o
-2 -8 11 12.855 12.774 1.474 14.271 o
-2 -8 12 10.674 12.068 1.384 16.614 o
-2 -8 13 4.549 4.128 0.630 63.898 o
-2 -8 14 9.997 8.832 0.697 32.752 o
-2 -7 1 5.503 5.333 0.530 62.458 o
-2 -7 2 53.214 53.284 3.247 2.224 o
-2 -7 3 42.246 37.351 2.716 3.335 o
-2 -7 4 73.893 66.922 2.271 1.899 o
-2 -7 5 0.119 0.155 0.236 832.807 o
-2 -7 6 1.241 1.305 0.259 292.114 o
-2 -7 7 0.196 0.046 0.282 608.822 o
-2 -7 8 0.026 -0.061 0.310 582.256 o
-2 -7 9 1.700 1.112 0.857 64.086 o
-2 -7 10 0.617 1.195 0.773 83.872 o
-2 -7 11 2.592 2.103 0.783 65.588 o
-2 -7 12 3.088 2.351 0.551 93.840 o
-2 -7 13 2.594 3.293 0.527 98.390 o
-2 -7 14 4.086 3.660 0.486 84.700 o
-2 -7 15 4.223 3.069 0.586 74.298 o
-2 -6 1 23.013 23.206 1.746 7.970 o
-2 -6 2 231.891 231.128 6.247 0.229 o
-2 -6 3 1.676 2.369 0.493 129.294 o
-2 -6 4 18.480 18.704 1.243 12.532 o
-2 -6 5 77.421 77.205 2.589 1.622 o
-2 -6 6 48.788 48.303 1.876 3.453 o
-2 -6 7 3.429 2.204 0.493 100.356 o
-2 -6 8 17.415 15.097 0.712 18.458 o
-2 -6 9 6.314 7.515 0.697 44.036 o
-2 -6 10 1.886 1.313 0.689 87.671 o
-2 -6 11 1.210 -0.350 0.519 162.640 o
-2 -6 12 0.235 -0.044 0.308 516.643 o
-2 -6 13 4.036 4.356 0.609 68.482 o
-2 -6 14 3.814 5.387 0.495 77.946 o
-2 -6 15 0.094 -0.945 0.364 410.858 o
-2 -5 1 15.223 24.705 1.622 10.184 o
-2 -5 2 2.455 2.922 0.473 113.934 o
-2 -5 3 62.086 58.108 1.900 2.542 o
-2 -5 4 196.890 225.705 3.593 0.313 o
-2 -5 5 7.194 7.821 0.721 39.878 o
-2 -5 6 6.763 8.106 0.747 39.593 o
-2 -5 7 42.799 44.806 1.752 4.102 o
-2 -5 8 2.003 2.345 0.510 118.475 o
-2 -5 9 1.796 2.212 0.411 154.312 o
-2 -5 10 95.652 93.715 4.472 0.937 o
-2 -5 11 6.101 6.111 0.796 42.029 o
-2 -5 12 0.816 0.624 0.333 307.239 o
-2 -5 13 3.119 2.764 0.494 100.552 o
-2 -5 14 1.294 1.098 0.320 250.991 o
-2 -5 15 2.441 2.714 0.573 95.506 o
-2 -4 1 162.679 170.388 3.740 0.454 o
-2 -4 2 1551.840 1662.720 8.635 0.006 o
-2 -4 3 112.851 94.928 2.099 1.041 o
-2 -4 4 407.553 412.287 4.484 0.088 o
-2 -4 5 362.554 334.222 4.188 0.117 o
-2 -4 6 35.763 33.517 3.047 3.357 o
-2 -4 7 77.221 70.175 2.099 1.822 o
-2 -4 8 108.303 100.670 2.611 1.014 o
-2 -4 9 66.110 69.591 2.251 2.078 o
-2 -4 10 42.311 39.858 1.468 4.671 o
-2 -4 11 199.179 214.990 3.274 0.322 o
-2 -4 12 0.013 -0.034 0.339 490.872 o
-2 -4 13 1.103 1.004 0.356 243.167 o
-2 -4 14 0.486 0.791 0.294 393.789 o
-2 -4 15 0.208 -0.306 0.590 157.558 o
-2 -3 1 140.106 148.765 3.445 0.586 o
-2 -3 2 10.584 12.895 1.222 18.720 o
-2 -3 3 63.721 66.173 2.233 2.208 o
-2 -3 4 680.271 742.161 5.556 0.031 o
-2 -3 5 0.734 0.020 0.249 513.439 o
-2 -3 6 79.996 79.479 2.016 1.672 o
-2 -3 7 123.000 120.445 3.743 0.730 o
-2 -3 8 1.581 1.597 0.397 177.985 o
-2 -3 9 0.189 1.024 0.414 262.000 o
-2 -3 10 646.695 630.175 4.950 0.037 o
-2 -3 11 5.957 6.773 0.513 56.837 o
-2 -3 12 28.300 29.143 1.065 8.429 o
-2 -3 13 24.152 23.313 1.239 9.755 o
-2 -3 14 0.294 -0.287 0.327 452.347 o
-2 -3 15 0.760 0.884 0.326 305.845 o
-2 -2 1 124.537 118.152 1.582 0.853 o
-2 -2 2 238.612 211.138 2.705 0.267 o
-2 -2 3 776.264 816.424 5.459 0.025 o
-2 -2 4 13.933 8.596 0.618 27.450 o
-2 -2 5 1633.870 1743.270 11.087 0.006 o
-2 -2 6 157.972 147.654 2.660 0.540 o
-2 -2 7 687.643 683.112 12.875 0.030 o
-2 -2 8 680.746 692.508 6.539 0.033 o
-2 -2 9 5.742 6.580 0.732 45.715 o
-2 -2 10 870.051 862.607 5.171 0.021 o
-2 -2 11 14.331 14.863 0.709 21.553 o
-2 -2 12 1.740 2.125 0.373 171.349 o
-2 -2 13 34.808 39.730 1.774 5.031 o
-2 -2 14 19.835 21.849 1.236 11.429 o
-2 -2 15 0.019 -0.213 0.216 1189.460 o
-2 -1 1 9.085 8.954 0.576 38.144 o
-2 -1 2 6.606 8.142 0.550 48.724 o
-2 -1 3 1531.250 1695.750 6.659 0.006 o
-2 -1 4 0.248 0.917 0.220 599.601 o
-2 -1 5 76.187 81.018 1.779 1.788 o
-2 -1 6 759.240 769.393 6.678 0.026 o
-2 -1 7 211.036 208.816 3.362 0.306 o
-2 -1 8 77.459 78.069 2.214 1.700 o
-2 -1 9 24.802 27.249 1.973 6.571 o
-2 -1 10 49.278 42.936 1.055 4.233 o
-2 -1 11 3.001 2.858 0.360 127.760 o
-2 -1 12 0.465 0.678 0.432 237.584 o
-2 -1 13 3.660 3.997 0.991 40.729 o
-2 -1 14 1.911 2.352 0.501 122.504 o
-2 -1 15 0.018 0.107 0.560 179.015 o
-2 0 1 1349.430 1339.910 14.788 0.009 o
-2 0 2 914.214 832.229 7.716 0.020 o
-2 0 3 5.569 4.853 0.356 76.805 o
-2 0 4 309.583 293.123 3.054 0.157 o
-2 0 5 118.910 104.016 2.007 0.942 o
-2 0 6 4.898 3.810 0.482 76.681 o
-2 0 7 0.815 0.327 0.483 191.339 o
-2 0 8 81.081 73.116 2.870 1.525 o
-2 0 9 0.216 0.283 0.269 596.427 o
-2 0 10 0.723 0.921 0.213 459.156 o
-2 0 11 16.231 20.111 1.346 12.427 o
-2 0 12 0.001 0.021 0.355 448.686 o
-2 0 13 34.620 35.418 1.664 5.476 o
-2 0 14 6.478 7.605 0.739 41.447 o
-2 0 15 0.014 0.072 0.242 923.085 o
-2 1 1 400.799 412.508 3.145 0.092 o
-2 1 2 0.019 0.092 0.283 677.601 o
-2 1 3 20.138 16.983 0.878 14.635 o
-2 1 4 32.560 28.167 1.031 7.641 o
-2 1 5 4.942 3.586 0.405 85.080 o
-2 1 6 5.085 4.200 0.630 60.519 o
-2 1 7 0.227 0.152 0.209 895.505 o
-2 1 8 17.775 13.624 0.950 16.612 o
-2 1 9 3.165 2.799 0.379 120.971 o
-2 1 10 3.806 3.144 0.392 104.392 o
-2 1 11 2.547 3.084 0.800 61.229 o
-2 1 12 32.474 29.896 1.605 6.237 o
-2 1 13 0.128 0.006 0.382 368.206 o
-2 1 14 6.959 8.095 0.785 37.578 o
-2 1 15 0.389 0.670 0.443 233.185 o
-2 2 1 339.971 339.924 3.062 0.128 o
-2 2 2 1214.290 1118.350 8.430 0.011 o
-2 2 3 2.898 2.915 0.504 100.793 o
-2 2 4 84.507 80.980 2.436 1.488 o
-2 2 5 418.656 406.061 7.149 0.082 o
-2 2 6 0.176 0.159 0.195 1038.930 o
-2 2 7 51.958 49.553 1.341 3.582 o
-2 2 8 45.417 43.908 2.689 3.056 o
-2 2 9 0.160 0.188 0.190 1086.440 o
-2 2 10 9.344 6.575 0.551 41.662 o
-2 2 11 54.596 53.683 2.240 2.768 o
-2 2 12 1.354 1.207 0.625 108.764 o
-2 2 13 0.712 0.339 0.488 191.979 o
-2 2 14 0.895 0.398 0.478 189.314 o
-2 3 1 12.723 10.779 0.581 28.251 o
-2 3 2 62.545 52.837 1.340 2.871 o
-2 3 3 99.546 89.670 1.852 1.262 o
-2 3 4 46.883 48.709 1.454 3.902 o
-2 3 5 50.671 58.136 2.811 2.484 o
-2 3 6 9.423 6.633 0.506 42.822 o
-2 3 7 1.942 2.721 0.482 123.176 o
-2 3 8 1.353 0.637 0.285 294.609 o
-2 3 9 10.723 11.027 0.803 27.093 o
-2 3 10 2.960 2.002 0.821 59.639 o
-2 3 11 27.183 26.921 1.466 7.759 o
-2 3 12 4.243 2.483 0.719 62.044 o
-2 3 13 0.971 1.322 0.646 108.088 o
-2 3 14 0.140 0.129 0.343 434.978 o
-2 4 1 1309.380 1396.640 7.337 0.009 o
-2 4 2 663.266 684.516 5.141 0.034 o
-2 4 3 4.586 6.269 0.574 61.856 o
-2 4 4 2108.690 2149.100 42.989 0.003 o
-2 4 5 69.559 64.261 1.859 2.183 o
-2 4 6 8.521 10.110 1.246 20.977 o
-2 4 7 204.369 217.608 5.784 0.276 o
-2 4 8 47.373 46.932 1.603 3.813 o
-2 4 9 0.149 -0.061 0.388 355.296 o
-2 4 10 102.528 105.873 2.910 1.016 o
-2 4 11 0.909 1.944 0.853 66.590 o
-2 4 12 1.893 0.773 0.373 193.499 o
-2 4 13 7.339 8.222 0.992 29.561 o
-2 5 1 198.677 200.205 2.878 0.342 o
-2 5 2 232.139 245.358 3.359 0.248 o
-2 5 3 51.756 49.919 1.633 3.398 o
-2 5 4 53.935 54.440 1.746 3.075 o
-2 5 5 0.176 0.341 0.304 495.840 o
-2 5 6 30.902 29.866 2.182 5.184 o
-2 5 7 0.044 0.141 0.368 398.928 o
-2 5 8 2.875 2.201 0.524 102.541 o
-2 5 9 1.069 -0.292 0.538 158.158 o
-2 5 10 3.093 2.095 0.753 66.172 o
-2 5 11 3.544 2.019 0.459 106.158 o
-2 5 12 0.128 0.247 0.272 628.618 o
-2 6 1 36.075 33.305 1.891 5.040 o
-2 6 2 49.230 42.658 2.177 3.344 o
-2 6 3 79.803 81.547 3.048 1.436 o
-2 6 4 6.942 6.803 0.944 33.013 o
-2 6 5 106.310 104.603 2.834 0.993 o
-2 6 6 29.920 30.126 1.570 6.690 o
-2 6 7 167.736 173.911 3.657 0.436 o
-2 6 8 41.783 42.019 2.478 3.489 o
-2 6 9 20.781 21.989 1.943 7.701 o
-2 6 10 38.729 37.728 2.273 4.057 o
-2 6 11 10.164 10.765 1.065 22.664 o
-2 7 1 7.020 5.007 0.875 37.452 o
-2 7 2 88.914 87.521 3.371 1.204 o
-2 7 3 392.653 414.125 7.335 0.087 o
-2 7 4 3.951 4.269 0.668 63.540 o
-2 7 5 119.121 127.167 3.378 0.759 o
-2 7 6 178.781 176.450 3.128 0.413 o
-2 7 7 1.255 1.285 0.397 199.518 o
-2 7 8 72.152 71.750 3.425 1.546 o
-2 7 9 26.523 27.222 1.961 6.369 o
-2 7 10 1.058 0.295 0.375 258.380 o
-2 8 1 93.785 94.516 1.930 1.302 o
-2 8 2 9.130 7.890 0.657 36.956 o
-2 8 3 0.137 0.214 0.347 417.932 o
-2 8 4 6.542 8.573 0.957 31.702 o
-2 8 5 3.852 3.555 0.716 61.531 o
-2 8 6 10.410 8.133 0.905 27.387 o
-2 8 7 2.612 2.354 0.547 100.515 o
-2 8 8 0.082 -0.376 0.605 153.532 o
-2 8 9 0.040 0.075 0.314 549.852 o
-2 9 1 0.180 -0.143 0.288 601.294 o
-2 9 2 37.479 37.982 1.511 5.233 o
-2 9 3 18.439 18.719 1.248 12.512 o
-2 9 4 4.995 4.716 0.599 62.069 o
-2 9 5 70.931 73.356 3.513 1.527 o
-2 9 6 1.285 1.103 0.429 185.175 o
-2 9 7 0.056 0.207 0.327 485.411 o
-2 9 8 0.567 0.801 0.301 368.745 o
-2 10 1 34.925 38.432 1.496 5.536 o
-2 10 2 5.074 3.807 0.539 69.754 o
-2 10 3 2.476 2.811 0.635 84.161 o
-2 10 4 181.338 193.751 5.485 0.338 o
-2 10 5 2.802 2.404 0.486 109.701 o
-2 10 6 25.545 23.034 1.104 9.913 o
-2 10 7 8.319 6.455 0.786 36.276 o
-2 11 1 0.372 0.227 0.384 317.304 o
-2 11 2 40.116 41.731 1.649 4.580 o
-2 11 3 3.634 2.960 0.778 58.386 o
-2 11 4 19.931 21.220 1.613 9.455 o
-2 11 5 5.265 3.415 0.659 59.324 o
-2 12 1 5.801 6.644 0.951 35.097 o
-2 12 2 0.041 0.417 0.426 287.949 o
-2 12 3 35.274 36.220 1.766 5.181 o
-1 -13 3 1.991 1.697 0.452 142.397 o
-1 -13 4 2.078 1.612 0.435 146.737 o
-1 -13 5 0.082 0.175 0.265 701.593 o
-1 -13 6 0.050 0.301 0.388 347.465 o
-1 -13 7 3.387 1.865 0.453 111.067 o
-1 -12 1 8.289 9.990 0.737 34.002 o
-1 -12 2 15.156 16.712 1.393 13.193 o
-1 -12 3 4.726 5.749 0.658 56.202 o
-1 -12 4 7.666 8.267 0.783 35.787 o
-1 -12 5 29.453 26.829 1.355 7.638 o
-1 -12 6 0.944 0.428 0.459 197.955 o
-1 -12 7 0.411 -0.027 0.461 237.787 o
-1 -12 8 0.051 0.041 0.440 286.917 o
-1 -12 9 1.822 1.315 0.318 210.441 o
-1 -12 10 0.102 -0.134 0.304 575.028 o
-1 -11 1 22.052 20.602 1.526 9.423 o
-1 -11 2 0.016 0.372 0.417 304.433 o
-1 -11 3 2.398 2.206 0.830 60.944 o
-1 -11 4 95.879 107.422 3.011 1.065 o
-1 -11 5 0.059 0.301 0.451 262.708 o
-1 -11 6 15.480 15.552 1.888 9.639 o
-1 -11 7 0.086 -0.384 0.666 126.715 o
-1 -11 8 0.075 -0.970 0.816 84.787 o
-1 -11 9 0.079 0.297 0.269 652.066 o
-1 -11 10 5.339 4.210 0.666 56.344 o
-1 -11 11 1.259 1.376 0.506 146.897 o
-1 -11 12 0.337 0.123 0.351 380.943 o
-1 -10 1 19.986 20.631 1.132 12.212 o
-1 -10 2 63.389 68.187 2.535 2.072 o
-1 -10 3 45.459 46.882 2.150 3.463 o
-1 -10 4 24.942 25.948 1.624 7.781 o
-1 -10 5 381.819 394.523 7.813 0.092 o
-1 -10 6 0.670 1.044 0.548 150.107 o
-1 -10 7 72.198 75.502 2.608 1.742 o
-1 -10 8 50.144 49.388 1.869 3.345 o
-1 -10 9 0.333 -0.167 0.413 295.842 o
-1 -10 10 31.755 31.826 1.414 6.617 o
-1 -10 11 1.520 0.997 0.467 160.395 o
-1 -10 12 0.215 0.228 0.391 326.836 o
-1 -10 13 1.563 1.476 0.367 195.441 o
-1 -9 1 90.200 79.446 1.900 1.490 o
-1 -9 2 42.795 41.870 1.595 4.391 o
-1 -9 3 394.102 411.869 5.954 0.090 o
-1 -9 4 8.674 7.219 0.639 39.675 o
-1 -9 5 89.360 91.173 2.028 1.385 o
-1 -9 6 175.698 174.993 5.337 0.372 o
-1 -9 7 28.495 27.976 1.238 8.046 o
-1 -9 8 30.361 32.533 1.593 6.381 o
-1 -9 9 30.949 33.318 1.576 6.274 o
-1 -9 10 1.253 2.115 0.895 59.406 o
-1 -9 11 2.480 2.390 0.521 107.496 o
-1 -9 12 2.620 1.119 0.614 95.275 o
-1 -9 13 0.345 0.136 0.356 369.830 o
-1 -9 14 1.881 1.487 0.271 224.643 o
-1 -8 1 0.846 0.758 0.272 366.807 o
-1 -8 2 0.367 -0.024 0.453 248.437 o
-1 -8 3 1.383 0.980 0.528 140.421 o
-1 -8 4 7.931 6.781 0.767 37.519 o
-1 -8 5 7.485 7.314 0.812 36.252 o
-1 -8 6 3.585 4.166 0.548 79.547 o
-1 -8 7 10.222 10.966 0.689 30.443 o
-1 -8 8 50.653 51.178 1.402 3.578 o
-1 -8 9 0.578 0.397 0.310 387.661 o
-1 -8 10 19.910 22.582 1.346 10.667 o
-1 -8 11 0.247 0.461 0.595 147.626 o
-1 -8 12 0.265 0.241 0.504 203.838 o
-1 -8 13 2.092 1.508 0.602 101.926 o
-1 -8 14 1.290 1.047 0.291 275.438 o
-1 -8 15 0.040 0.001 0.234 992.966 o
-1 -7 1 74.658 77.587 3.191 1.518 o
-1 -7 2 96.597 96.037 2.457 1.190 o
-1 -7 3 330.663 329.422 6.292 0.126 o
-1 -7 4 11.880 10.577 0.875 24.433 o
-1 -7 5 185.497 193.617 3.669 0.366 o
-1 -7 6 66.757 64.394 2.098 2.190 o
-1 -7 7 8.273 9.106 1.205 22.448 o
-1 -7 8 138.503 140.241 2.581 0.649 o
-1 -7 9 171.099 171.202 2.961 0.446 o
-1 -7 10 16.509 17.548 0.858 16.943 o
-1 -7 11 6.266 6.409 0.828 39.643 o
-1 -7 12 298.462 285.009 6.397 0.153 o
-1 -7 13 0.924 0.702 0.362 263.821 o
-1 -7 14 5.464 5.596 0.605 56.629 o
-1 -7 15 7.325 7.820 0.789 36.873 o
-1 -6 1 8.124 7.301 0.945 30.476 o
-1 -6 2 2.107 1.772 0.418 149.141 o
-1 -6 3 6.921 5.267 0.774 41.946 o
-1 -6 4 140.277 145.114 2.857 0.617 o
-1 -6 5 184.344 218.941 3.537 0.344 o
-1 -6 6 2.071 2.540 0.450 130.754 o
-1 -6 7 2.260 1.001 0.554 114.614 o
-1 -6 8 2.441 2.347 0.692 77.770 o
-1 -6 9 14.232 13.975 0.855 20.338 o
-1 -6 10 20.023 17.928 0.858 14.556 o
-1 -6 11 183.180 176.318 3.646 0.392 o
-1 -6 12 43.830 44.514 2.579 3.217 o
-1 -6 13 11.202 10.777 0.902 24.635 o
-1 -6 14 5.679 6.484 0.694 48.197 o
-1 -6 15 1.739 1.769 0.377 176.644 o
-1 -6 16 0.389 0.454 0.311 415.680 o
-1 -5 1 54.366 49.525 2.063 2.983 o
-1 -5 2 116.524 101.182 2.726 0.924 o
-1 -5 3 186.090 166.294 3.639 0.398 o
-1 -5 4 189.038 199.767 3.036 0.361 o
-1 -5 5 18.499 29.160 1.204 10.775 o
-1 -5 6 597.923 652.912 6.348 0.040 o
-1 -5 7 5.673 4.134 0.528 65.380 o
-1 -5 8 68.325 64.316 2.898 1.863 o
-1 -5 9 20.804 20.852 1.767 8.561 o
-1 -5 10 1.739 0.791 0.303 240.992 o
-1 -5 11 309.721 314.759 4.951 0.145 o
-1 -5 12 67.293 64.998 2.223 2.120 o
-1 -5 13 0.089 0.069 0.319 519.755 o
-1 -5 14 7.377 8.932 0.560 43.947 o
-1 -5 15 0.526 1.477 0.387 243.109 o
-1 -5 16 0.016 -0.110 0.327 526.910 o
-1 -4 1 133.619 134.905 2.559 0.692 o
-1 -4 2 188.148 190.598 2.284 0.384 o
-1 -4 3 8.265 8.605 1.925 11.952 o
-1 -4 4 155.873 180.671 4.269 0.444 o
-1 -4 5 374.186 393.836 4.013 0.102 o
-1 -4 6 13.365 14.830 0.841 20.942 o
-1 -4 7 6.963 6.330 0.594 48.871 o
-1 -4 8 2.214 1.255 0.569 109.534 o
-1 -4 9 0.035 -0.193 0.423 314.026 o
-1 -4 10 40.155 41.380 2.522 3.550 o
-1 -4 11 1.224 0.624 0.489 166.324 o
-1 -4 12 31.902 34.284 1.822 5.572 o
-1 -4 13 9.912 8.378 0.695 33.455 o
-1 -4 14 5.751 5.845 0.574 56.578 o
-1 -4 15 0.473 0.011 0.446 247.722 o
-1 -4 16 5.135 4.204 0.659 57.948 o
-1 -3 1 23.696 26.336 0.907 10.720 o
-1 -3 2 1707.930 1725.170 5.696 0.005 o
-1 -3 3 571.681 524.181 3.879 0.050 o
-1 -3 4 1.276 1.150 0.259 297.292 o
-1 -3 5 627.333 637.678 4.782 0.039 o
-1 -3 6 40.546 32.639 1.163 5.669 o
-1 -3 7 0.099 0.345 0.538 185.643 o
-1 -3 8 19.951 17.794 1.472 10.698 o
-1 -3 9 86.858 83.742 3.330 1.261 o
-1 -3 10 12.683 12.424 1.428 14.936 o
-1 -3 11 0.666 1.158 0.383 248.041 o
-1 -3 12 24.168 26.228 1.205 9.465 o
-1 -3 13 8.531 7.654 0.590 41.173 o
-1 -3 14 26.431 28.696 1.453 7.772 o
-1 -3 15 0.427 1.085 0.545 157.642 o
-1 -3 16 1.801 1.648 0.462 144.679 o
-1 -2 1 3.060 1.711 0.227 173.761 o
-1 -2 2 26.152 26.905 1.542 7.727 o
-1 -2 3 485.225 523.767 3.295 0.061 o
-1 -2 4 1323.930 1383.350 5.627 0.009 o
-1 -2 5 135.695 137.670 2.104 0.689 o
-1 -2 6 303.524 307.452 3.396 0.156 o
-1 -2 7 698.090 674.339 6.320 0.032 o
-1 -2 8 32.473 31.924 1.278 6.776 o
-1 -2 9 4.532 6.961 1.051 33.081 o
-1 -2 10 49.171 48.245 2.699 2.796 o
-1 -2 11 2.596 3.389 0.403 121.666 o
-1 -2 12 0.000 -0.091 0.267 798.862 o
-1 -2 13 7.334 7.519 0.848 35.033 o
-1 -2 14 5.335 5.398 0.906 39.566 o
-1 -2 15 0.053 0.980 0.660 120.940 o
-1 -2 16 1.766 1.343 0.404 172.689 o
-1 -1 1 13.194 8.424 0.670 27.879 o
-1 -1 2 7418.330 7301.440 16.077 0.000 o
-1 -1 3 8492.620 8032.500 18.350 0.000 o
-1 -1 4 147.508 143.457 1.792 0.619 o
-1 -1 5 3457.480 3672.540 10.784 0.001 o
-1 -1 6 2084.350 1989.620 13.238 0.004 o
-1 -1 7 92.861 84.137 2.780 1.273 o
-1 -1 8 474.519 495.994 7.356 0.062 o
-1 -1 9 138.562 140.530 4.255 0.573 o
-1 -1 10 10.722 10.257 1.274 18.757 o
-1 -1 11 3.150 5.857 0.528 78.225 o
-1 -1 12 58.537 54.152 2.170 2.633 o
-1 -1 13 0.119 -0.343 0.452 268.936 o
-1 -1 14 2.519 2.821 0.448 119.041 o
-1 -1 15 2.205 2.483 0.441 130.706 o
-1 0 1 665.318 763.294 5.212 0.032 o
-1 0 2 718.587 726.497 8.446 0.029 o
-1 0 3 2379.430 2369.610 9.107 0.003 o
-1 0 4 1491.440 1618.610 6.397 0.007 o
-1 0 5 0.165 0.048 0.228 888.234 o
-1 0 6 707.845 792.269 7.778 0.028 o
-1 0 7 35.815 31.383 1.757 5.407 o
-1 0 8 13.897 12.601 1.091 18.210 o
-1 0 9 0.979 0.914 0.506 161.723 o
-1 0 10 2.175 1.773 0.373 162.220 o
-1 0 11 5.408 5.777 0.613 55.960 o
-1 0 12 27.730 26.264 1.542 7.484 o
-1 0 13 37.364 35.811 1.716 5.059 o
-1 0 14 3.084 2.296 0.391 125.569 o
-1 0 15 0.371 0.654 0.485 202.717 o
-1 1 1 141.919 126.098 3.104 0.646 o
-1 1 2 4.679 4.496 0.869 44.570 o
-1 1 3 2.203 5.301 1.590 19.787 o
-1 1 4 3.430 3.486 0.974 43.015 o
-1 1 5 2545.140 2452.510 12.368 0.003 o
-1 1 6 1.230 5.019 0.373 141.685 o
-1 1 7 77.841 76.053 2.836 1.565 o
-1 1 8 578.923 618.784 18.136 0.035 o
-1 1 9 68.014 69.551 2.211 2.038 o
-1 1 10 25.490 25.915 1.200 9.161 o
-1 1 11 280.187 286.518 4.986 0.172 o
-1 1 12 3.083 3.698 0.725 64.547 o
-1 1 13 20.938 16.050 0.982 13.764 o
-1 1 14 19.517 22.676 1.935 7.892 o
-1 1 15 1.211 1.009 0.473 168.018 o
-1 2 1 698.888 698.535 4.787 0.032 o
-1 2 2 6.410 4.906 0.265 74.520 o
-1 2 3 29.941 33.240 0.695 8.307 o
-1 2 4 31.040 34.950 0.928 7.446 o
-1 2 5 1.006 1.408 0.228 341.498 o
-1 2 6 86.057 102.810 2.155 1.328 o
-1 2 7 95.183 100.040 2.968 1.118 o
-1 2 8 13.321 13.371 0.944 20.307 o
-1 2 9 51.257 59.304 1.847 3.028 o
-1 2 10 7.489 9.514 0.766 35.370 o
-1 2 11 22.620 22.199 1.437 9.479 o
-1 2 12 0.369 0.466 0.372 320.779 o
-1 2 13 1.604 1.769 0.838 65.214 o
-1 2 14 1.606 2.174 0.679 88.204 o
-1 3 1 60.984 68.647 0.876 2.708 o
-1 3 2 779.694 794.264 3.847 0.025 o
-1 3 3 369.005 332.814 2.492 0.117 o
-1 3 4 297.671 298.674 2.553 0.165 o
-1 3 5 61.969 83.087 1.919 2.108 o
-1 3 6 152.097 144.231 2.737 0.569 o
-1 3 7 9.624 10.668 1.491 16.096 o
-1 3 8 37.156 35.707 1.593 5.277 o
-1 3 9 9.612 10.447 0.786 29.716 o
-1 3 10 3.753 2.985 0.599 76.986 o
-1 3 11 3.969 4.468 0.781 53.241 o
-1 3 12 1.399 1.536 0.840 66.703 o
-1 3 13 0.110 0.537 0.508 201.177 o
-1 3 14 1.473 0.596 0.443 180.402 o
-1 4 1 3.026 4.473 0.313 118.452 o
-1 4 2 4.843 3.444 0.297 98.433 o
-1 4 3 33.721 30.910 0.857 7.429 o
-1 4 4 136.809 154.566 2.025 0.639 o
-1 4 5 6.105 7.843 1.343 21.830 o
-1 4 6 10.874 10.252 1.138 20.894 o
-1 4 7 2.674 3.065 0.740 67.291 o
-1 4 8 1.007 1.018 0.413 209.420 o
-1 4 9 1.298 1.093 0.422 188.267 o
-1 4 10 3.694 1.955 0.870 52.129 o
-1 4 11 0.370 0.129 0.658 123.264 o
-1 4 12 0.095 -0.100 0.575 169.250 o
-1 4 13 3.712 2.755 0.705 65.792 o
-1 5 1 447.278 446.145 8.201 0.070 o
-1 5 2 1160.780 1220.820 10.685 0.011 o
-1 5 3 81.698 72.436 2.421 1.624 o
-1 5 4 54.757 55.859 2.419 2.611 o
-1 5 5 268.138 271.412 5.663 0.183 o
-1 5 6 35.105 34.641 2.193 4.570 o
-1 5 7 8.760 11.759 1.383 17.852 o
-1 5 8 64.655 62.199 1.890 2.373 o
-1 5 9 3.992 4.046 0.731 58.203 o
-1 5 10 29.322 27.928 1.536 7.062 o
-1 5 11 15.596 15.947 1.694 10.835 o
-1 5 12 0.085 0.289 0.423 293.573 o
-1 6 1 159.099 152.925 2.620 0.526 o
-1 6 2 1.191 1.002 0.328 257.459 o
-1 6 3 38.637 37.578 2.047 4.374 o
-1 6 4 3.100 2.342 0.642 79.493 o
-1 6 5 10.348 10.678 1.249 19.268 o
-1 6 6 177.218 176.223 5.151 0.372 o
-1 6 7 10.908 9.565 0.932 25.154 o
-1 6 8 1.514 0.600 0.590 121.205 o
-1 6 9 3.737 3.772 0.640 69.315 o
-1 6 10 0.015 0.346 0.588 159.241 o
-1 6 11 3.315 4.721 0.805 53.480 o
-1 7 1 236.049 246.819 3.704 0.240 o
-1 7 2 453.282 451.495 5.126 0.072 o
-1 7 3 18.578 17.045 1.550 10.760 o
-1 7 4 213.903 212.540 3.334 0.298 o
-1 7 5 698.416 716.614 8.545 0.030 o
-1 7 6 10.727 11.451 1.044 22.130 o
-1 7 7 228.208 231.078 6.244 0.233 o
-1 7 8 60.557 53.538 2.912 2.193 o
-1 7 9 0.554 1.250 0.610 126.322 o
-1 7 10 2.670 3.405 0.787 61.197 o
-1 8 1 228.666 230.759 5.570 0.240 o
-1 8 2 41.355 42.579 1.169 4.949 o
-1 8 3 282.505 292.810 4.035 0.173 o
-1 8 4 54.767 55.907 1.805 2.962 o
-1 8 5 169.484 176.155 3.931 0.421 o
-1 8 6 7.668 6.240 1.149 25.919 o
-1 8 7 10.917 9.637 1.324 18.054 o
-1 8 8 2.947 3.570 0.595 81.984 o
-1 8 9 2.802 3.477 0.402 117.046 o
-1 9 1 2.521 2.906 0.423 123.923 o
-1 9 2 0.330 0.772 0.244 534.953 o
-1 9 3 0.004 -0.140 0.361 434.846 o
-1 9 4 26.115 29.097 1.648 7.201 o
-1 9 5 26.308 26.732 1.545 7.704 o
-1 9 6 8.646 8.489 0.879 30.581 o
-1 9 7 0.526 0.868 0.557 152.332 o
-1 9 8 5.347 4.940 0.441 71.709 o
-1 10 1 1.421 1.012 0.423 184.404 o
-1 10 2 0.586 0.599 0.333 337.070 o
-1 10 3 6.369 7.457 0.866 36.511 o
-1 10 4 6.239 6.709 0.802 40.521 o
-1 10 5 7.731 7.369 0.760 37.564 o
-1 10 6 43.236 43.190 1.558 4.333 o
-1 10 7 1.566 1.841 0.277 230.751 o
-1 11 1 41.563 40.050 2.624 3.399 o
-1 11 2 23.385 22.833 1.945 7.198 o
-1 11 3 1.412 1.184 0.451 168.191 o
-1 11 4 0.622 0.191 0.290 434.529 o
-1 11 5 9.619 8.133 0.679 34.827 o
-1 12 1 4.390 3.797 0.542 74.882 o
-1 12 2 3.311 2.928 0.478 99.625 o
-1 12 3 6.810 7.588 0.630 45.340 o
0 -13 1 0.006 -0.250 0.220 1167.790 o
0 -13 2 6.396 6.972 0.604 49.323 o
0 -13 3 7.190 7.954 0.678 41.455 o
0 -13 4 3.890 3.639 0.765 56.673 o
0 -13 5 1.997 2.666 0.475 124.424 o
0 -13 6 78.417 76.861 2.854 1.543 o
0 -13 7 0.227 0.493 0.267 557.954 o
0 -13 8 12.495 10.526 0.666 27.386 o
0 -13 9 4.003 3.538 0.551 78.201 o
0 -12 1 18.538 17.473 1.129 13.587 o
0 -12 2 8.142 6.419 0.756 37.840 o
0 -12 3 8.775 9.442 0.908 28.775 o
0 -12 4 50.636 50.539 1.982 3.203 o
0 -12 5 4.546 5.912 1.032 34.775 o
0 -12 6 21.726 24.264 1.357 9.808 o
0 -12 7 2.934 2.544 0.736 67.760 o
0 -12 8 0.228 -0.049 0.347 420.564 o
0 -12 9 2.934 3.429 0.646 75.786 o
0 -12 10 0.505 0.985 0.331 324.091 o
0 -12 11 0.001 -0.701 0.759 98.919 o
0 -11 1 0.171 0.126 0.399 325.843 o
0 -11 2 2.966 3.506 0.658 73.693 o
0 -11 3 1.506 0.347 0.453 179.183 o
0 -11 4 0.454 -0.030 0.393 309.354 o
0 -11 5 15.819 17.915 1.311 13.330 o
0 -11 6 1.560 0.745 0.370 213.030 o
0 -11 7 0.104 0.014 0.284 648.614 o
0 -11 8 19.813 21.355 1.299 11.167 o
0 -11 9 18.448 16.155 1.446 11.633 o
0 -11 10 0.511 0.614 0.527 171.541 o
0 -11 11 9.007 8.250 0.692 35.730 o
0 -11 12 0.098 0.230 0.281 614.023 o
0 -11 13 2.076 1.488 0.325 189.867 o
0 -10 1 2.281 1.923 0.779 68.399 o
0 -10 2 0.569 0.011 0.430 255.922 o
0 -10 3 0.358 0.040 0.560 168.384 o
0 -10 4 1.612 0.671 0.478 158.052 o
0 -10 5 0.146 0.043 0.443 275.400 o
0 -10 6 11.448 11.214 0.816 25.669 o
0 -10 7 0.539 0.024 0.516 188.428 o
0 -10 8 0.162 0.455 0.310 469.158 o
0 -10 9 23.165 23.074 1.468 9.089 o
0 -10 10 10.640 10.780 0.987 23.659 o
0 -10 11 0.004 0.252 0.543 188.010 o
0 -10 12 1.041 1.424 0.423 191.808 o
0 -10 13 52.715 52.047 2.175 2.929 o
0 -10 14 1.692 1.664 0.304 214.570 o
0 -9 1 45.536 46.633 1.411 4.127 o
0 -9 2 376.688 391.382 4.594 0.100 o
0 -9 3 130.152 126.167 2.609 0.737 o
0 -9 4 58.990 59.200 2.209 2.499 o
0 -9 5 290.634 304.864 3.449 0.165 o
0 -9 6 0.855 1.590 0.322 265.668 o
0 -9 7 33.522 33.551 1.129 6.740 o
0 -9 8 20.865 18.414 0.982 13.214 o
0 -9 9 7.920 7.470 1.062 27.238 o
0 -9 10 0.095 -0.504 0.471 250.098 o
0 -9 11 6.617 5.254 0.681 47.719 o
0 -9 12 68.422 64.153 2.434 2.026 o
0 -9 13 8.834 9.606 1.306 19.811 o
0 -9 14 59.345 55.163 1.637 2.843 o
0 -9 15 2.858 3.374 0.561 88.987 o
0 -8 1 770.837 849.673 10.773 0.024 o
0 -8 2 19.429 19.093 1.164 12.576 o
0 -8 3 241.332 241.227 5.628 0.220 o
0 -8 4 205.864 211.468 5.342 0.285 o
0 -8 5 16.649 17.324 1.594 11.018 o
0 -8 6 1.226 2.092 0.655 97.466 o
0 -8 7 202.618 219.141 5.736 0.278 o
0 -8 8 0.186 0.059 0.277 627.065 o
0 -8 9 4.447 3.808 0.499 78.883 o
0 -8 10 0.227 -0.029 0.464 247.181 o
0 -8 11 6.011 5.341 0.727 47.252 o
0 -8 12 112.424 113.492 2.366 0.934 o
0 -8 13 51.680 46.023 2.280 3.047 o
0 -8 14 8.671 8.162 0.590 40.006 o
0 -8 15 11.943 12.977 0.775 24.564 o
0 -7 1 0.462 0.384 0.380 304.537 o
0 -7 2 42.992 37.230 2.058 4.036 o
0 -7 3 59.010 58.568 2.549 2.343 o
0 -7 4 28.715 30.147 1.872 6.118 o
0 -7 5 50.053 47.897 2.413 2.980 o
0 -7 6 293.934 306.184 6.118 0.151 o
0 -7 7 14.840 14.254 1.439 13.438 o
0 -7 8 198.027 203.682 5.398 0.303 o
0 -7 9 26.766 26.320 1.149 8.936 o
0 -7 10 36.463 37.292 1.386 5.585 o
0 -7 11 65.655 62.553 2.306 2.176 o
0 -7 12 0.297 1.175 0.439 227.112 o
0 -7 14 0.116 0.234 0.314 500.919 o
0 -7 15 4.657 4.501 0.532 70.896 o
0 -6 1 152.455 158.857 3.779 0.505 o
0 -6 2 2.182 1.814 0.548 110.632 o
0 -6 3 880.221 939.912 9.114 0.019 o
0 -6 4 482.299 524.682 6.965 0.059 o
0 -6 5 31.768 31.722 1.815 5.755 o
0 -6 6 1366.100 1454.000 12.477 0.008 o
0 -6 7 133.780 137.756 4.029 0.611 o
0 -6 8 40.780 41.196 2.346 3.718 o
0 -6 9 242.810 258.952 6.075 0.206 o
0 -6 10 69.560 72.622 1.869 2.053 o
0 -6 11 27.082 28.218 1.212 8.421 o
0 -6 12 0.663 0.977 1.631 20.803 o
0 -6 13 14.161 15.617 1.484 13.032 o
0 -6 14 4.144 4.787 0.924 42.445 o
0 -6 15 3.948 4.435 0.548 75.168 o
0 -6 16 0.005 -0.116 0.210 1286.290 o
0 -5 1 93.190 106.130 2.723 1.137 o
0 -5 2 2.033 1.110 0.373 179.989 o
0 -5 3 3.209 4.333 0.624 72.895 o
0 -5 4 13.476 13.084 1.034 19.083 o
0 -5 5 2.088 1.442 0.464 139.287 o
0 -5 6 0.918 1.112 0.516 156.274 o
0 -5 7 7.268 4.888 0.782 41.103 o
0 -5 8 37.272 34.880 2.066 4.573 o
0 -5 9 7.885 6.309 1.001 29.899 o
0 -5 10 0.571 0.813 0.543 158.275 o
0 -5 11 20.225 18.422 0.964 13.641 o
0 -5 12 0.607 -0.293 0.807 82.462 o
0 -5 13 0.391 -0.782 0.682 116.052 o
0 -5 14 1.523 0.543 0.394 206.493 o
0 -5 15 2.045 3.129 0.502 112.668 o
0 -5 16 0.177 0.324 0.227 771.563 o
0 -4 1 811.709 833.668 4.985 0.023 o
0 -4 2 46.738 43.715 1.809 3.794 o
0 -4 3 1126.630 1158.600 6.950 0.012 o
0 -4 4 722.719 699.593 4.615 0.030 o
0 -4 5 31.140 29.178 0.898 8.128 o
0 -4 6 251.938 246.733 4.484 0.216 o
0 -4 7 183.466 171.940 4.020 0.389 o
0 -4 8 22.446 17.644 1.413 10.291 o
0 -4 9 35.212 34.965 2.140 4.631 o
0 -4 10 8.688 8.135 1.158 23.554 o
0 -4 11 5.165 5.385 0.888 40.912 o
0 -4 12 0.602 0.007 0.603 141.098 o
0 -4 13 9.246 10.071 1.362 18.410 o
0 -4 14 1.789 0.976 0.409 176.810 o
0 -4 15 0.876 1.773 0.448 178.218 o
0 -4 16 0.102 -0.072 0.199 1233.070 o
0 -3 1 529.683 575.809 7.297 0.050 o
0 -3 2 329.880 322.715 4.026 0.135 o
0 -3 3 17.200 16.531 0.702 18.120 o
0 -3 4 27.626 23.497 0.701 10.467 o
0 -3 5 240.429 221.732 2.354 0.259 o
0 -3 6 18.713 20.608 1.279 11.823 o
0 -3 7 28.358 31.306 1.672 6.587 o
0 -3 8 192.078 201.373 4.583 0.329 o
0 -3 9 9.176 8.801 1.068 24.730 o
0 -3 10 40.733 38.500 2.374 3.772 o
0 -3 11 51.692 50.109 2.017 3.134 o
0 -3 12 0.284 0.313 0.547 173.720 o
0 -3 13 2.027 2.371 0.576 102.504 o
0 -3 14 58.867 58.275 2.100 2.574 o
0 -3 15 0.127 -0.252 0.324 502.146 o
0 -3 16 0.235 0.051 0.205 968.704 o
0 -2 1 2666.290 2563.480 13.172 0.002 o
0 -2 2 93.178 73.075 2.961 1.316 o
0 -2 3 130.462 152.125 4.767 0.557 o
0 -2 4 24.727 23.863 0.949 10.638 o
0 -2 5 134.417 128.527 2.040 0.727 o
0 -2 6 1875.360 1845.730 11.347 0.005 o
0 -2 7 7.577 13.630 0.768 30.937 o
0 -2 8 289.835 304.148 5.524 0.157 o
0 -2 9 487.815 517.929 7.864 0.058 o
0 -2 10 6.512 5.999 1.015 31.891 o
0 -2 11 67.701 65.898 2.807 1.891 o
0 -2 12 161.108 176.244 3.261 0.462 o
0 -2 13 1.039 1.200 0.478 168.063 o
0 -2 14 40.628 39.475 1.716 4.555 o
0 -2 15 2.283 4.344 0.720 68.096 o
0 -2 16 0.497 0.261 0.296 442.389 o
0 -1 1 217.447 220.897 3.572 0.283 o
0 -1 2 1739.850 1767.890 12.712 0.005 o
0 -1 3 12.403 11.592 1.210 18.063 o
0 -1 4 1814.270 1961.430 8.109 0.005 o
0 -1 5 324.396 333.676 5.727 0.130 o
0 -1 6 18.060 18.382 0.591 17.460 o
0 -1 7 793.397 917.859 8.864 0.022 o
0 -1 8 14.714 18.826 1.428 12.656 o
0 -1 9 30.972 29.817 1.888 5.812 o
0 -1 10 0.758 -0.076 0.463 215.601 o
0 -1 11 9.035 8.930 0.746 33.286 o
0 -1 12 20.795 21.565 1.187 11.399 o
0 -1 13 45.514 45.369 1.634 3.983 o
0 -1 14 2.350 2.559 0.436 128.004 o
0 -1 15 0.065 0.489 0.243 718.786 o
0 0 1 305.596 242.053 3.207 0.178 o
0 0 2 3131.910 2842.070 15.637 0.002 o
0 0 3 9342.400 9390.750 52.650 0.000 o
0 0 4 786.660 710.675 3.694 0.027 o
0 0 5 819.618 805.434 4.107 0.024 o
0 0 6 17.334 25.924 0.933 13.395 o
0 0 7 168.385 154.839 2.648 0.488 o
0 0 8 20.327 19.691 1.520 10.040 o
0 0 9 75.549 65.518 2.972 1.672 o
0 0 10 2.005 1.763 0.397 159.537 o
0 0 11 41.451 40.858 1.213 4.989 o
0 0 12 27.839 33.946 1.482 6.937 o
0 0 13 1.666 0.825 0.389 195.084 o
0 0 14 17.200 21.244 1.009 14.179 o
0 0 15 14.070 14.835 1.442 13.610 o
0 1 0 436.269 378.588 3.618 0.086 o
0 1 1 232.365 207.258 3.651 0.271 o
0 1 2 265.602 253.467 5.290 0.195 o
0 1 3 2.719 2.320 0.307 154.838 o
0 1 4 74.516 74.879 1.261 2.013 o
0 1 5 1.146 0.287 0.186 473.490 o
0 1 6 83.557 92.269 1.857 1.500 o
0 1 7 0.639 1.737 0.523 152.153 o
0 1 8 49.853 49.657 2.498 2.887 o
0 1 9 0.028 -0.106 0.403 346.074 o
0 1 10 20.476 20.677 0.931 13.151 o
0 1 11 17.088 16.564 0.902 16.501 o
0 1 12 6.967 8.265 0.644 43.075 o
0 1 13 3.514 4.551 0.567 76.241 o
0 1 14 5.670 5.000 0.623 55.870 o
0 2 0 2544.400 2462.700 13.264 0.003 o
0 2 1 294.301 273.656 5.133 0.166 o
0 2 2 1426.790 1443.190 7.138 0.008 o
0 2 3 2738.900 2797.470 7.791 0.002 o
0 2 4 74.409 63.556 1.396 2.164 o
0 2 5 600.912 608.006 7.462 0.041 o
0 2 6 1418.860 1478.460 11.801 0.008 o
0 2 7 10.489 9.986 1.124 21.612 o
0 2 8 124.219 142.990 4.393 0.623 o
0 2 9 187.300 195.901 3.610 0.361 o
0 2 10 0.853 0.910 0.271 354.335 o
0 2 11 37.371 39.357 1.595 5.047 o
0 2 12 6.525 9.216 0.785 37.270 o
0 2 13 0.722 0.644 0.420 232.068 o
0 2 14 4.843 4.688 0.663 57.907 o
0 3 0 15.365 13.341 0.525 23.225 o
0 3 1 3.846 3.250 0.284 118.658 o
0 3 2 266.894 295.249 2.547 0.190 o
0 3 3 81.169 82.269 2.278 1.568 o
0 3 4 212.419 235.416 4.225 0.273 o
0 3 5 17.310 20.784 1.423 11.380 o
0 3 6 25.653 32.217 1.907 6.299 o
0 3 7 452.379 468.075 7.766 0.068 o
0 3 8 17.674 15.053 1.563 11.259 o
0 3 9 16.247 17.278 0.800 17.752 o
0 3 10 7.859 7.648 0.755 37.068 o
0 3 11 1.666 1.010 0.452 161.743 o
0 3 12 0.093 0.152 0.374 377.125 o
0 3 13 3.755 3.720 0.868 48.910 o
0 4 0 149.911 156.579 2.518 0.558 o
0 4 1 14.101 15.450 0.704 21.534 o
0 4 2 136.298 128.039 1.939 0.721 o
0 4 3 160.733 139.790 3.349 0.524 o
0 4 4 4.859 4.884 0.780 48.985 o
0 4 5 138.244 118.978 3.656 0.655 o
0 4 6 307.703 296.112 6.130 0.146 o
0 4 7 22.383 26.238 2.008 6.875 o
0 4 8 344.789 341.611 4.498 0.122 o
0 4 9 24.449 23.949 1.569 8.285 o
0 4 10 0.164 -0.084 0.393 344.406 o
0 4 11 5.804 6.601 0.830 40.507 o
0 4 12 4.583 5.228 0.894 42.348 o
0 4 13 1.604 1.068 0.521 136.734 o
0 5 0 232.180 231.605 4.156 0.250 o
0 5 1 731.795 762.131 7.843 0.028 o
0 5 2 5.147 4.500 0.724 52.389 o
0 5 3 3.647 2.751 0.630 74.963 o
0 5 4 6.829 7.539 0.973 31.551 o
0 5 5 0.085 -0.765 0.527 201.247 o
0 5 6 88.736 97.774 3.828 1.075 o
0 5 7 386.186 386.145 4.708 0.098 o
0 5 8 0.106 0.149 0.484 231.109 o
0 5 9 2.328 1.804 0.565 104.766 o
0 5 10 8.716 7.335 0.840 32.669 o
0 5 11 1.973 1.740 0.720 79.768 o
0 5 12 1.886 1.391 0.448 150.814 o
0 6 0 1463.010 1550.920 12.023 0.007 o
0 6 1 15.172 17.733 1.393 12.972 o
0 6 2 446.334 515.598 7.545 0.065 o
0 6 3 268.122 271.666 5.797 0.182 o
0 6 4 5.662 5.501 0.938 37.171 o
0 6 5 247.006 253.459 6.781 0.198 o
0 6 6 3.447 2.812 0.667 71.665 o
0 6 7 88.396 92.947 2.920 1.252 o
0 6 8 5.943 6.900 1.266 24.278 o
0 6 9 22.975 23.444 2.063 6.808 o
0 6 10 7.015 5.899 1.080 29.001 o
0 6 11 32.935 32.045 1.297 6.649 o
0 7 0 136.562 147.358 4.160 0.572 o
0 7 1 56.359 65.688 2.865 2.163 o
0 7 2 0.481 0.868 0.455 212.621 o
0 7 3 1.452 1.971 0.688 89.052 o
0 7 4 14.417 13.692 1.088 17.472 o
0 7 5 0.305 0.617 0.344 358.898 o
0 7 6 26.681 25.293 2.112 6.056 o
0 7 7 108.230 113.877 4.420 0.785 o
0 7 8 0.002 -0.215 0.438 296.817 o
0 7 9 6.635 7.290 0.774 39.914 o
0 7 10 3.223 3.856 0.525 87.658 o
0 8 0 146.748 142.920 4.527 0.525 o
0 8 1 76.042 80.835 2.528 1.628 o
0 8 2 390.347 389.951 4.643 0.096 o
0 8 3 122.922 119.910 3.490 0.750 o
0 8 4 18.779 16.182 1.284 12.641 o
0 8 5 47.852 45.805 2.045 3.446 o
0 8 6 45.700 43.847 2.731 3.008 o
0 8 7 0.540 0.909 0.417 237.328 o
0 8 8 4.771 3.848 0.846 46.796 o
0 8 9 2.714 2.075 0.565 97.722 o
0 9 0 88.188 85.465 2.228 1.422 o
0 9 1 211.649 218.934 4.056 0.288 o
0 9 2 5.600 5.868 0.834 41.899 o
0 9 3 32.641 32.243 1.746 5.759 o
0 9 4 15.621 16.177 1.471 12.468 o
0 9 5 0.205 0.202 0.377 351.611 o
0 9 6 4.146 4.324 0.531 75.849 o
0 9 7 0.179 0.480 0.328 422.585 o
0 9 8 0.518 0.975 0.451 210.710 o
0 10 0 5.045 5.222 0.795 46.802 o
0 10 1 1.543 1.296 0.411 179.267 o
0 10 2 30.878 30.181 1.654 6.336 o
0 10 3 8.065 6.744 0.827 35.038 o
0 10 4 10.588 10.083 0.925 25.381 o
0 10 5 40.442 41.968 1.408 4.823 o
0 10 6 4.725 4.031 0.410 84.510 o
0 11 0 10.296 10.251 0.797 28.485 o
0 11 1 11.620 12.217 0.820 24.718 o
0 11 2 0.179 0.422 0.404 301.560 o
0 11 3 11.874 12.528 0.968 21.754 o
0 11 4 13.776 14.693 0.921 19.610 o
0 11 5 0.003 0.237 0.347 444.429 o
0 12 0 0.647 0.625 0.310 357.122 o
0 12 1 13.868 12.564 0.867 21.226 o
0 12 2 0.412 0.272 0.241 606.688 o
1 -13 0 1.104 0.358 0.241 397.479 o
1 -13 1 6.250 6.248 0.463 59.611 o
1 -13 2 9.021 8.959 0.726 33.883 o
1 -13 3 0.869 -0.092 0.306 377.765 o
1 -13 4 5.890 4.729 0.863 41.173 o
1 -13 5 4.409 4.757 0.850 46.191 o
1 -13 6 0.022 -0.382 0.441 290.782 o
1 -13 7 4.425 2.835 0.421 93.735 o
1 -13 8 0.022 -0.180 0.408 338.630 o
1 -13 9 0.937 1.653 0.468 168.636 o
1 -12 0 33.772 36.695 1.591 5.630 o
1 -12 1 4.326 4.285 0.666 61.498 o
1 -12 2 19.431 17.005 1.186 12.878 o
1 -12 3 41.072 43.829 1.861 4.159 o
1 -12 4 8.131 7.479 0.823 34.260 o
1 -12 5 16.768 17.865 1.300 13.016 o
1 -12 6 32.382 35.354 1.706 5.675 o
1 -12 7 0.556 1.239 0.429 217.571 o
1 -12 8 11.128 12.398 1.215 18.609 o
1 -12 9 0.802 1.221 0.547 144.878 o
1 -12 10 1.045 -0.235 1.283 33.175 o
1 -12 11 0.534 0.235 0.212 651.242 o
1 -11 0 2.946 3.826 1.034 40.093 o
1 -11 1 12.532 13.078 1.091 19.076 o
1 -11 2 82.179 86.400 2.683 1.434 o
1 -11 3 0.116 -0.088 0.441 281.839 o
1 -11 4 12.778 14.133 1.262 16.334 o
1 -11 5 6.499 5.214 1.127 28.653 o
1 -11 6 1.373 1.410 0.499 146.013 o
1 -11 7 8.632 7.428 0.802 33.956 o
1 -11 8 26.946 31.044 1.403 7.583 o
1 -11 9 0.072 -0.162 0.392 359.460 o
1 -11 10 0.053 -0.060 0.380 385.172 o
1 -11 11 0.266 -0.346 0.564 169.723 o
1 -11 12 1.763 2.181 0.325 188.290 o
1 -11 13 14.717 15.957 0.786 19.759 o
1 -10 0 0.436 0.982 0.352 307.369 o
1 -10 1 40.709 40.685 1.928 4.235 o
1 -10 2 0.272 -0.839 0.616 143.293 o
1 -10 3 81.083 82.091 2.150 1.596 o
1 -10 4 18.891 16.277 1.169 13.415 o
1 -10 5 30.833 30.037 1.265 7.277 o
1 -10 6 51.164 47.596 2.683 2.742 o
1 -10 7 48.813 46.376 1.929 3.468 o
1 -10 8 6.785 8.085 1.126 26.493 o
1 -10 9 84.297 84.738 2.411 1.463 o
1 -10 10 1.541 1.881 0.595 108.698 o
1 -10 11 12.463 11.247 1.086 19.945 o
1 -10 12 9.536 9.416 0.636 34.738 o
1 -10 13 0.547 0.763 0.353 306.307 o
1 -10 14 21.850 19.305 0.914 12.912 o
1 -9 0 0.864 0.620 0.238 423.131 o
1 -9 1 157.457 163.278 2.544 0.514 o
1 -9 2 5.047 5.427 0.491 68.207 o
1 -9 3 1.843 1.719 0.474 138.900 o
1 -9 4 82.984 88.079 2.570 1.428 o
1 -9 5 26.642 34.774 8.628 0.709 o
1 -9 6 15.686 16.398 1.122 15.449 o
1 -9 7 192.183 209.618 5.693 0.302 o
1 -9 8 2.378 2.125 1.246 31.730 o
1 -9 9 20.678 22.018 1.417 10.146 o
1 -9 10 12.053 16.086 1.887 10.383 o
1 -9 11 0.223 0.868 0.755 92.739 o
1 -9 12 2.111 1.940 0.454 135.762 o
1 -9 13 21.176 15.134 2.007 7.946 o
1 -9 14 0.002 0.521 0.320 475.956 o
1 -8 0 851.722 902.830 10.616 0.020 o
1 -8 1 10.572 10.919 1.223 19.439 o
1 -8 2 310.201 312.467 6.269 0.140 o
1 -8 3 114.461 116.714 3.873 0.785 o
1 -8 4 1.371 1.014 0.465 166.128 o
1 -8 5 56.627 51.707 2.604 2.511 o
1 -8 6 75.028 77.284 3.246 1.501 o
1 -8 7 2.821 1.648 0.569 98.267 o
1 -8 8 95.533 95.811 2.613 1.185 o
1 -8 9 73.965 76.575 2.048 1.836 o
1 -8 10 0.904 1.834 0.690 95.178 o
1 -8 11 55.759 53.562 2.626 2.497 o
1 -8 12 60.292 60.126 1.715 2.654 o
1 -8 13 4.153 3.583 0.606 70.631 o
1 -8 14 17.954 16.877 1.045 14.689 o
1 -8 15 6.107 5.506 0.427 65.026 o
1 -7 0 46.185 48.304 1.620 3.834 o
1 -7 1 31.631 26.351 1.622 6.589 o
1 -7 2 197.234 203.365 4.468 0.320 o
1 -7 3 18.099 17.936 1.400 11.752 o
1 -7 4 124.139 117.808 3.563 0.744 o
1 -7 5 46.061 45.761 2.259 3.362 o
1 -7 6 6.582 9.214 1.088 27.107 o
1 -7 7 39.841 35.794 2.140 4.223 o
1 -7 8 21.420 20.814 1.695 8.758 o
1 -7 9 24.669 25.405 1.175 9.551 o
1 -7 10 41.607 42.459 1.308 4.786 o
1 -7 11 0.025 1.189 1.606 21.739 o
1 -7 12 37.415 39.090 1.415 5.313 o
1 -7 13 12.428 11.111 3.389 4.329 o
1 -7 14 0.007 -0.095 0.315 569.740 o
1 -7 15 4.220 4.103 0.476 82.245 o
1 -6 0 67.726 77.243 1.814 2.054 o
1 -6 1 1.326 1.599 0.332 223.877 o
1 -6 2 1110.120 1162.110 7.039 0.012 o
1 -6 3 732.712 741.634 7.901 0.028 o
1 -6 4 4.482 5.606 0.770 49.738 o
1 -6 5 534.303 562.635 7.181 0.050 o
1 -6 6 535.080 531.760 7.345 0.052 o
1 -6 7 0.003 0.093 0.350 452.032 o
1 -6 8 13.038 13.312 1.001 19.801 o
1 -6 9 137.599 131.729 3.183 0.650 o
1 -6 10 4.700 4.836 0.520 70.420 o
1 -6 11 6.319 8.641 1.294 22.444 o
1 -6 12 19.608 18.528 1.275 11.906 o
1 -6 13 2.430 2.284 0.784 65.845 o
1 -6 14 2.085 3.024 0.633 87.209 o
1 -6 15 30.758 30.622 1.238 7.299 o
1 -5 0 262.214 250.343 2.872 0.214 o
1 -5 1 359.954 403.904 4.248 0.105 o
1 -5 2 1431.300 1477.810 10.352 0.008 o
1 -5 3 383.072 366.435 3.572 0.104 o
1 -5 4 478.637 527.657 6.080 0.060 o
1 -5 5 95.087 89.505 2.637 1.228 o
1 -5 6 394.738 402.348 5.895 0.091 o
1 -5 7 523.860 558.232 16.503 0.043 o
1 -5 8 8.510 10.941 0.884 28.646 o
1 -5 9 200.807 208.815 3.891 0.317 o
1 -5 10 76.288 79.580 2.993 1.523 o
1 -5 11 1.008 1.476 0.393 209.355 o
1 -5 12 28.942 28.896 2.279 5.215 o
1 -5 13 36.457 42.468 2.677 3.545 o
1 -5 14 2.586 2.591 0.535 101.655 o
1 -5 15 41.167 41.689 1.286 4.897 o
1 -4 0 154.735 190.415 2.152 0.483 o
1 -4 1 1.766 4.472 0.354 139.317 o
1 -4 2 3176.560 3366.470 13.521 0.002 o
1 -4 3 125.015 121.659 1.697 0.831 o
1 -4 4 6.844 6.978 0.674 44.248 o
1 -4 5 88.184 79.602 2.296 1.461 o
1 -4 6 26.642 24.508 1.109 9.352 o
1 -4 7 7.055 6.516 0.629 46.450 o
1 -4 8 612.854 639.661 6.132 0.039 o
1 -4 9 3.209 3.984 0.567 81.462 o
1 -4 10 4.678 5.098 0.946 39.490 o
1 -4 11 18.041 16.734 1.160 13.775 o
1 -4 12 8.928 9.822 1.424 17.694 o
1 -4 13 9.492 8.042 0.859 30.067 o
1 -4 14 27.642 27.937 1.404 7.750 o
1 -4 15 0.628 0.631 0.263 433.713 o
1 -3 0 25.813 19.476 0.483 12.681 o
1 -3 2 413.633 450.419 2.618 0.083 o
1 -3 3 740.606 743.032 6.226 0.028 o
1 -3 4 1565.970 1564.340 9.384 0.006 o
1 -3 5 32.555 28.880 0.820 7.981 o
1 -3 6 75.884 63.205 1.305 2.142 o
1 -3 7 50.063 63.676 1.754 3.032 o
1 -3 8 13.686 11.772 1.007 19.828 o
1 -3 9 8.955 10.387 1.154 22.272 o
1 -3 10 9.649 9.360 0.820 29.718 o
1 -3 11 1.349 1.609 0.854 65.041 o
1 -3 12 9.097 10.954 1.025 24.525 o
1 -3 13 1.737 1.183 0.474 148.649 o
1 -3 14 4.537 3.135 0.560 74.403 o
1 -3 15 0.051 0.164 0.280 653.743 o
1 -2 0 1205.880 1375.970 7.413 0.010 o
1 -2 1 692.924 664.112 4.354 0.033 o
1 -2 2 10174.500 9801.060 89.459 0.000 o
1 -2 3 69.489 75.448 0.838 2.235 o
1 -2 4 29.411 31.172 0.733 8.646 o
1 -2 5 332.217 349.864 2.676 0.130 o
1 -2 6 224.462 219.612 2.866 0.280 o
1 -2 7 282.797 302.735 9.187 0.140 o
1 -2 8 15.847 15.031 0.923 17.759 o
1 -2 9 119.128 112.246 5.020 0.676 o
1 -2 10 23.852 22.358 1.443 9.112 o
1 -2 11 67.250 62.957 1.854 2.282 o
1 -2 12 15.628 14.999 1.175 15.376 o
1 -2 13 0.303 0.158 0.391 320.351 o
1 -2 14 0.909 0.744 0.399 233.135 o
1 -2 15 2.655 3.167 0.449 113.249 o
1 -1 0 1928.570 1760.370 10.168 0.005 o
1 -1 1 3416.320 3385.530 11.137 0.001 o
1 -1 2 197.162 203.926 2.382 0.347 o
1 -1 3 1697.640 1628.210 6.989 0.006 o
1 -1 4 1701.910 1690.210 5.660 0.006 o
1 -1 5 0.102 0.761 0.439 253.443 o
1 -1 6 855.875 833.681 5.554 0.022 o
1 -1 7 917.131 911.926 6.272 0.019 o
1 -1 8 7.589 7.281 0.961 30.877 o
1 -1 9 113.538 127.435 4.056 0.742 o
1 -1 10 58.795 59.078 1.565 2.809 o
1 -1 11 4.642 5.241 0.523 69.122 o
1 -1 12 6.772 8.891 0.767 37.762 o
1 -1 13 1.553 1.154 0.354 211.040 o
1 -1 14 0.072 -0.081 0.298 609.640 o
1 -1 15 0.286 1.343 0.453 212.341 o
1 0 1 1150.740 1123.880 29.268 0.010 o
1 0 2 58.159 76.385 1.533 2.477 o
1 0 3 1.629 2.819 0.270 201.046 o
1 0 4 13.158 13.276 0.660 24.535 o
1 0 5 50.383 55.872 2.830 2.520 o
1 0 6 30.054 28.817 1.525 6.889 o
1 0 7 7.571 10.021 1.040 26.619 o
1 0 8 3.063 1.738 0.588 91.296 o
1 0 9 69.147 60.270 2.906 1.888 o
1 0 10 1.624 1.130 0.408 180.729 o
1 0 11 39.536 42.033 1.633 4.641 o
1 0 12 10.535 9.552 0.811 28.339 o
1 0 13 37.554 33.878 1.322 5.765 o
1 0 14 36.706 39.577 2.165 4.284 o
1 1 1 1432.040 1440.220 17.729 0.007 o
1 1 2 11.600 10.874 0.577 30.248 o
1 1 3 118.827 107.769 2.007 0.926 o
1 1 4 257.573 236.694 3.671 0.221 o
1 1 5 5.833 5.329 0.662 51.805 o
1 1 6 471.614 417.216 6.150 0.071 o
1 1 7 258.165 249.814 5.229 0.203 o
1 1 8 0.053 0.245 0.500 217.400 o
1 1 9 955.511 979.223 6.315 0.017 o
1 1 10 30.540 34.867 1.266 6.882 o
1 1 11 39.176 39.048 1.572 4.904 o
1 1 12 110.546 123.658 2.635 0.887 o
1 1 13 13.196 13.072 1.056 19.026 o
1 1 14 24.452 26.264 1.201 9.394 o
1 2 0 6.651 10.655 0.578 42.810 o
1 2 1 931.280 898.219 7.513 0.018 o
1 2 2 326.584 300.966 3.236 0.144 o
1 2 3 51.958 53.947 1.536 3.324 o
1 2 4 154.931 142.336 3.207 0.546 o
1 2 5 125.320 130.662 3.395 0.709 o
1 2 6 12.704 11.307 1.144 18.870 o
1 2 7 45.526 46.613 2.425 3.220 o
1 2 8 438.669 443.164 8.000 0.073 o
1 2 9 16.131 17.020 0.891 17.117 o
1 2 10 0.715 1.463 0.597 125.538 o
1 2 11 0.987 0.163 0.504 175.117 o
1 2 12 10.359 10.799 1.046 22.798 o
1 2 13 11.138 11.700 0.918 23.851 o
1 2 14 1.568 1.894 0.477 142.340 o
1 3 0 1741.510 1804.970 8.605 0.005 o
1 3 1 3917.950 4095.700 21.236 0.001 o
1 3 2 0.207 1.584 0.448 213.195 o
1 3 3 2649.800 2962.500 14.782 0.002 o
1 3 4 692.343 667.767 7.712 0.032 o
1 3 5 78.917 78.300 2.888 1.514 o
1 3 6 307.850 340.519 6.430 0.133 o
1 3 7 15.446 16.277 1.576 11.694 o
1 3 8 183.637 197.847 3.425 0.370 o
1 3 9 46.701 43.940 2.149 3.477 o
1 3 10 9.472 11.500 1.163 21.138 o
1 3 11 1.237 1.681 0.563 124.310 o
1 3 12 6.156 6.991 0.786 41.103 o
1 3 13 0.636 0.737 0.327 328.485 o
1 4 0 6.781 7.461 0.768 39.540 o
1 4 1 923.977 1041.760 8.816 0.017 o
1 4 2 71.150 87.782 2.708 1.612 o
1 4 3 1.689 2.112 0.546 117.061 o
1 4 4 50.879 60.638 2.558 2.585 o
1 4 5 9.594 9.202 1.132 22.691 o
1 4 6 4.168 2.236 0.683 66.931 o
1 4 7 83.859 74.855 2.831 1.472 o
1 4 8 64.698 67.266 2.066 2.221 o
1 4 9 0.483 0.280 0.458 227.005 o
1 4 10 0.540 0.352 0.575 150.910 o
1 4 11 1.814 0.869 0.493 143.709 o
1 4 12 0.982 1.575 0.726 88.037 o
1 5 0 360.003 337.360 5.499 0.114 o
1 5 1 7.098 3.055 0.623 53.731 o
1 5 2 157.775 172.952 4.256 0.450 o
1 5 3 169.363 138.842 4.000 0.475 o
1 5 4 54.740 55.803 2.714 2.443 o
1 5 5 27.451 25.453 1.936 6.434 o
1 5 6 104.979 113.564 2.560 0.988 o
1 5 7 35.822 38.169 1.193 5.901 o
1 5 8 2.229 2.829 0.484 116.232 o
1 5 9 41.295 42.623 1.567 4.525 o
1 5 10 2.173 3.093 0.970 47.342 o
1 5 11 0.632 0.123 0.590 144.421 o
1 6 0 3.387 4.281 0.750 58.903 o
1 6 1 46.476 60.688 2.692 2.664 o
1 6 2 6.626 7.817 1.081 28.189 o
1 6 3 1.192 0.772 0.476 171.421 o
1 6 4 9.868 7.478 0.821 30.942 o
1 6 5 11.802 8.868 0.647 30.361 o
1 6 6 0.145 -0.093 0.359 411.666 o
1 6 7 0.065 0.245 0.300 555.750 o
1 6 8 14.811 12.521 0.894 19.989 o
1 6 9 0.853 0.509 0.432 219.057 o
1 6 10 0.009 0.819 0.650 126.720 o
1 7 0 349.893 355.266 6.893 0.111 o
1 7 1 88.112 89.105 3.559 1.172 o
1 7 2 74.727 71.099 2.368 1.801 o
1 7 3 239.454 225.425 3.320 0.251 o
1 7 4 26.732 24.762 1.059 9.455 o
1 7 5 79.725 75.296 2.108 1.704 o
1 7 6 135.523 134.425 2.446 0.687 o
1 7 7 4.398 3.943 0.571 71.157 o
1 7 8 15.771 13.231 0.821 19.653 o
1 7 9 65.352 63.850 1.813 2.347 o
1 8 0 0.013 0.055 0.301 610.324 o
1 8 1 6.916 6.925 0.677 43.966 o
1 8 2 7.323 7.418 0.712 40.436 o
1 8 3 4.532 3.027 1.125 33.231 o
1 8 4 13.673 14.609 0.992 18.850 o
1 8 5 6.231 6.376 0.976 33.539 o
1 8 6 2.810 2.741 0.590 88.218 o
1 8 7 16.984 16.876 1.206 13.894 o
1 8 8 0.327 0.326 0.255 587.940 o
1 9 0 133.417 132.299 2.887 0.685 o
1 9 1 5.101 5.026 0.657 56.185 o
1 9 2 61.786 57.335 1.922 2.560 o
1 9 3 16.033 17.656 1.066 15.392 o
1 9 4 0.069 0.282 0.340 440.203 o
1 9 5 6.204 8.143 0.865 36.154 o
1 9 6 11.815 13.053 0.932 22.124 o
1 9 7 0.424 0.864 0.423 241.811 o
1 10 0 1.018 0.648 0.343 274.916 o
1 10 1 0.227 0.387 0.430 268.587 o
1 10 2 3.694 4.076 0.526 81.665 o
1 10 3 8.457 7.408 0.807 34.194 o
1 10 4 1.356 1.832 0.424 170.078 o
1 10 5 0.380 0.692 0.451 227.027 o
1 11 0 32.336 32.732 1.556 6.156 o
1 11 1 0.108 0.267 0.264 667.017 o
1 11 2 4.691 5.650 0.629 58.776 o
1 11 3 34.764 33.119 1.255 6.342 o
1 12 0 1.600 1.536 0.410 172.975 o
1 12 1 32.697 33.380 1.620 5.932 o
2 -13 0 16.573 18.902 0.942 15.737 o
2 -13 1 26.404 30.420 1.201 8.353 o
2 -13 2 10.309 9.742 0.744 30.128 o
2 -13 3 7.554 10.467 0.791 33.389 o
2 -13 4 55.721 58.320 1.398 3.057 o
2 -13 5 1.290 0.410 0.230 372.862 o
2 -13 6 16.319 16.695 1.241 13.971 o
2 -13 7 15.416 14.276 1.094 16.538 o
2 -13 8 4.238 3.309 0.595 72.226 o
2 -13 9 2.174 2.600 0.517 111.515 o
2 -12 0 9.575 9.653 0.801 30.071 o
2 -12 1 0.711 1.190 0.428 210.943 o
2 -12 2 53.157 55.526 2.162 2.837 o
2 -12 3 1.538 1.517 0.459 155.128 o
2 -12 4 3.313 3.568 0.578 80.908 o
2 -12 5 9.120 9.521 0.697 33.881 o
2 -12 6 0.897 1.016 0.334 277.264 o
2 -12 7 3.880 3.246 0.776 56.666 o
2 -12 8 23.724 24.523 2.251 6.056 o
2 -12 9 5.414 6.273 1.023 33.248 o
2 -12 10 8.590 8.020 0.520 42.831 o
2 -12 11 0.780 0.434 0.945 59.331 o
2 -11 0 44.901 48.277 1.938 3.647 o
2 -11 1 102.636 103.125 2.846 1.035 o
2 -11 2 5.784 5.529 1.079 31.141 o
2 -11 3 94.073 104.899 4.101 0.955 o
2 -11 4 13.157 15.393 1.161 16.895 o
2 -11 5 0.001 0.130 0.373 396.541 o
2 -11 6 17.093 20.916 1.257 12.553 o
2 -11 7 21.829 23.954 1.309 10.041 o
2 -11 8 0.007 -0.187 0.410 337.468 o
2 -11 9 35.824 42.457 2.271 4.098 o
2 -11 10 6.879 8.652 0.785 37.096 o
2 -11 11 0.102 -0.120 0.362 413.956 o
2 -11 12 11.418 11.370 0.695 27.896 o
2 -10 0 7.875 8.824 0.774 35.007 o
2 -10 1 3.379 4.205 0.575 77.959 o
2 -10 2 15.656 13.588 1.105 16.493 o
2 -10 3 17.984 21.477 1.968 8.126 o
2 -10 4 0.115 0.174 0.376 368.755 o
2 -10 5 1.967 2.348 0.561 106.853 o
2 -10 6 1.201 1.373 0.458 168.932 o
2 -10 7 0.792 1.083 0.624 119.049 o
2 -10 8 0.181 0.236 0.609 145.880 o
2 -10 9 0.377 0.401 0.461 227.267 o
2 -10 10 0.840 1.020 0.435 204.274 o
2 -10 11 2.881 2.887 0.535 95.896 o
2 -10 12 1.291 0.782 0.320 264.712 o
2 -10 13 4.683 4.261 0.756 52.533 o
2 -9 0 95.712 86.037 2.220 1.301 o
2 -9 1 49.916 46.839 2.390 3.029 o
2 -9 2 3.687 3.566 0.626 71.920 o
2 -9 3 280.902 266.083 6.548 0.170 o
2 -9 4 116.493 109.610 6.084 0.608 o
2 -9 5 11.857 12.424 1.045 20.590 o
2 -9 6 190.152 186.934 4.198 0.354 o
2 -9 7 80.926 80.306 3.629 1.301 o
2 -9 8 2.689 2.126 0.816 61.231 o
2 -9 9 4.123 3.034 0.797 54.276 o
2 -9 10 22.143 21.353 1.353 10.127 o
2 -9 11 1.002 0.772 0.407 220.234 o
2 -9 12 0.124 -0.092 0.322 510.513 o
2 -9 13 1.187 1.416 0.299 261.957 o
2 -9 14 1.097 0.624 0.399 224.977 o
2 -8 0 21.210 22.051 1.803 8.200 o
2 -8 1 19.327 16.684 1.596 10.311 o
2 -8 2 55.535 56.252 2.824 2.348 o
2 -8 3 65.041 57.883 3.245 1.878 o
2 -8 4 2.743 1.552 0.702 77.019 o
2 -8 5 9.660 11.834 1.621 14.194 o
2 -8 6 0.404 1.393 0.524 163.728 o
2 -8 7 12.473 14.735 0.928 20.685 o
2 -8 8 0.909 1.204 2.234 11.178 o
2 -8 9 11.108 11.631 0.956 23.234 o
2 -8 10 3.594 4.097 0.563 78.008 o
2 -8 11 19.240 16.309 1.183 13.143 o
2 -8 12 1.110 3.012 1.937 14.477 o
2 -8 13 1.827 0.316 0.316 242.989 o
2 -8 14 0.469 0.388 0.228 596.916 o
2 -7 0 127.068 124.923 3.883 0.685 o
2 -7 1 51.435 51.743 2.526 2.757 o
2 -7 2 11.214 10.452 0.875 25.359 o
2 -7 3 179.126 210.077 8.397 0.266 o
2 -7 4 358.195 375.411 8.022 0.101 o
2 -7 5 32.742 32.249 2.470 4.392 o
2 -7 6 236.503 233.284 6.702 0.218 o
2 -7 7 98.703 91.310 4.346 0.940 o
2 -7 8 66.054 68.588 2.423 2.034 o
2 -7 9 661.823 679.087 5.323 0.034 o
2 -7 10 6.000 6.001 0.844 40.111 o
2 -7 11 57.155 62.837 2.200 2.503 o
2 -7 12 100.515 103.481 2.283 1.115 o
2 -7 13 4.481 4.670 0.552 69.757 o
2 -7 14 4.222 3.549 0.448 88.504 o
2 -6 0 5.602 7.313 0.933 35.550 o
2 -6 1 18.965 13.795 1.231 13.487 o
2 -6 2 1920.420 2004.660 18.772 0.004 o
2 -6 3 47.968 54.955 1.817 3.347 o
2 -6 4 607.680 614.886 6.158 0.041 o
2 -6 5 330.302 338.242 7.359 0.120 o
2 -6 6 2.873 4.086 0.976 43.529 o
2 -6 7 145.877 141.251 5.147 0.503 o
2 -6 8 14.618 12.316 1.652 12.014 o
2 -6 9 22.005 23.332 1.227 10.469 o
2 -6 10 6.820 7.394 0.628 45.728 o
2 -6 11 13.967 13.960 1.159 16.870 o
2 -6 12 19.773 19.157 1.038 13.215 o
2 -6 13 10.498 12.179 0.856 25.529 o
2 -6 14 0.569 0.084 0.277 488.485 o
2 -6 15 7.472 6.731 0.572 47.118 o
2 -5 0 1668.120 1791.260 8.123 0.005 o
2 -5 1 536.355 618.782 5.172 0.048 o
2 -5 2 4.239 3.182 0.491 84.932 o
2 -5 3 5615.970 5859.530 13.650 0.000 o
2 -5 4 4.143 2.807 0.367 105.424 o
2 -5 5 19.279 20.628 1.740 9.043 o
2 -5 6 165.216 177.358 5.241 0.395 o
2 -5 7 67.718 63.754 3.319 1.733 o
2 -5 8 53.952 52.104 3.095 2.307 o
2 -5 9 2.067 2.477 0.482 123.093 o
2 -5 10 54.252 52.366 1.798 3.083 o
2 -5 11 10.171 9.441 0.793 29.452 o
2 -5 12 44.288 47.048 1.605 4.040 o
2 -5 13 7.451 7.524 0.688 40.920 o
2 -5 14 11.484 10.044 1.031 22.326 o
2 -5 15 12.033 10.967 0.713 26.928 o
2 -4 0 10.195 10.173 0.475 36.178 o
2 -4 1 1257.100 1252.880 6.696 0.010 o
2 -4 2 201.887 235.527 2.502 0.307 o
2 -4 3 7.713 6.736 0.475 50.354 o
2 -4 4 165.116 151.822 2.121 0.516 o
2 -4 5 166.770 161.638 3.047 0.473 o
2 -4 6 11.538 13.107 0.948 22.114 o
2 -4 7 237.110 232.619 6.017 0.225 o
2 -4 8 141.461 142.260 4.913 0.527 o
2 -4 9 6.678 6.815 0.519 52.809 o
2 -4 10 73.653 76.807 2.425 1.746 o
2 -4 11 9.432 9.601 0.800 30.404 o
2 -4 12 16.329 19.153 1.335 12.667 o
2 -4 13 13.908 19.112 1.034 16.564 o
2 -4 14 0.478 0.111 0.285 490.559 o
2 -4 15 7.583 7.440 0.802 36.251 o
2 -3 0 28.430 27.279 0.835 9.243 o
2 -3 1 44.118 39.870 0.951 4.990 o
2 -3 2 711.688 710.636 4.398 0.031 o
2 -3 3 29.257 31.492 0.844 8.422 o
2 -3 4 33.987 30.056 1.246 6.740 o
2 -3 5 35.877 33.230 1.403 5.910 o
2 -3 6 180.580 178.588 3.384 0.401 o
2 -3 7 26.201 24.556 1.346 8.634 o
2 -3 8 2.248 2.923 0.777 65.875 o
2 -3 9 26.919 26.313 1.038 9.248 o
2 -3 10 28.756 26.585 1.083 8.586 o
2 -3 11 2.740 2.218 0.616 87.518 o
2 -3 12 12.603 11.576 0.876 22.972 o
2 -3 13 6.705 6.914 0.800 39.101 o
2 -3 14 2.755 1.797 0.417 132.395 o
2 -3 15 3.501 3.268 0.545 85.046 o
2 -2 0 1.414 1.433 0.184 319.586 o
2 -2 1 591.080 556.418 3.282 0.046 o
2 -2 2 272.571 259.130 2.154 0.202 o
2 -2 3 4.556 1.943 0.246 122.574 o
2 -2 4 7.427 22.625 4.701 2.387 o
2 -2 5 36.501 25.022 1.224 6.784 o
2 -2 6 13.948 8.586 1.160 18.733 o
2 -2 7 71.036 59.974 3.065 1.792 o
2 -2 8 14.648 12.170 1.496 13.415 o
2 -2 9 1.423 0.839 0.255 300.629 o
2 -2 10 354.058 358.175 7.245 0.108 o
2 -2 11 1.279 1.519 0.531 135.715 o
2 -2 12 13.119 12.461 1.104 18.679 o
2 -2 13 18.512 18.991 2.475 6.222 o
2 -2 14 0.187 0.175 0.390 335.359 o
2 -1 0 924.619 992.174 3.719 0.018 o
2 -1 1 16.960 14.434 0.422 21.524 o
2 -1 2 1325.130 1371.320 5.812 0.009 o
2 -1 3 57.327 75.093 2.749 2.058 o
2 -1 4 34.026 28.939 1.855 5.569 o
2 -1 5 385.269 386.656 7.128 0.094 o
2 -1 6 259.604 282.034 6.511 0.179 o
2 -1 7 9.212 7.039 1.213 22.381 o
2 -1 8 26.273 25.831 2.277 5.639 o
2 -1 9 360.212 358.169 4.449 0.112 o
2 -1 10 17.885 20.483 1.051 13.728 o
2 -1 11 47.595 43.860 3.132 2.611 o
2 -1 12 10.162 10.741 1.385 17.273 o
2 -1 13 2.160 2.261 0.694 80.086 o
2 -1 14 0.168 -0.102 0.397 338.515 o
2 0 0 199.683 179.497 2.340 0.369 o
2 0 1 2020.210 2002.800 8.921 0.004 o
2 0 2 1730.740 1700.880 12.344 0.005 o
2 0 3 11.983 9.626 1.094 20.939 o
2 0 4 2419.440 2409.000 17.238 0.003 o
2 0 5 175.262 164.943 4.963 0.394 o
2 0 6 77.235 73.718 3.596 1.405 o
2 0 7 62.672 67.243 3.634 1.683 o
2 0 8 0.080 0.883 0.614 138.371 o
2 0 9 148.824 154.444 3.228 0.545 o
2 0 10 199.157 193.767 4.384 0.326 o
2 0 11 0.013 -0.186 0.680 122.997 o
2 0 12 0.207 0.729 0.438 248.742 o
2 0 13 0.626 0.263 0.417 254.425 o
2 0 14 1.094 0.860 0.376 234.132 o
2 1 0 73.502 88.965 1.658 1.780 o
2 1 1 7.217 6.587 0.541 49.828 o
2 1 2 184.031 196.288 4.432 0.352 o
2 1 3 1005.810 1131.730 11.649 0.014 o
2 1 4 25.300 24.753 1.943 6.770 o
2 1 5 117.492 126.844 4.610 0.680 o
2 1 6 198.981 208.438 6.310 0.282 o
2 1 7 0.481 0.977 0.853 71.925 o
2 1 8 389.488 382.414 4.208 0.098 o
2 1 9 6.451 6.887 0.775 40.916 o
2 1 10 37.937 40.585 2.662 3.534 o
2 1 11 47.425 46.098 2.044 3.464 o
2 1 12 27.954 28.899 1.478 7.383 o
2 1 13 0.611 0.128 0.457 225.060 o
2 2 0 184.581 167.455 2.524 0.420 o
2 2 1 505.861 509.872 4.145 0.059 o
2 2 2 39.770 31.672 2.867 3.428 o
2 2 3 744.937 798.264 13.071 0.025 o
2 2 4 368.030 307.101 5.097 0.118 o
2 2 5 41.415 43.750 2.089 3.881 o
2 2 7 499.502 500.145 5.689 0.060 o
2 2 8 5.732 7.366 0.803 40.963 o
2 2 9 40.095 36.275 2.556 3.659 o
2 2 10 234.599 247.706 4.784 0.232 o
2 2 11 0.234 0.797 0.452 231.903 o
2 2 12 25.560 28.570 1.359 8.270 o
2 2 13 7.019 7.080 0.776 39.082 o
2 3 0 88.330 103.785 1.962 1.311 o
2 3 1 2.827 4.001 0.457 102.248 o
2 3 2 183.304 223.950 3.287 0.344 o
2 3 3 2.136 1.718 0.395 156.646 o
2 3 4 0.672 0.189 0.325 364.707 o
2 3 5 0.191 0.310 0.365 365.308 o
2 3 6 4.543 4.318 0.802 49.728 o
2 3 7 21.868 25.256 1.126 10.659 o
2 3 8 32.519 32.524 1.829 5.589 o
2 3 9 10.884 10.953 1.115 20.979 o
2 3 10 10.014 10.332 1.009 24.183 o
2 3 11 3.469 3.497 0.469 95.133 o
2 3 12 3.454 4.085 1.386 24.521 o
2 4 0 448.539 461.844 6.238 0.071 o
2 4 1 882.861 885.419 10.326 0.019 o
2 4 2 56.763 59.461 1.868 2.752 o
2 4 3 93.572 89.678 2.433 1.276 o
2 4 4 160.901 164.999 4.499 0.445 o
2 4 5 8.922 7.902 0.506 42.366 o
2 4 6 25.809 22.727 0.851 10.805 o
2 4 7 28.413 31.387 1.780 6.300 o
2 4 8 1.145 1.485 0.542 135.043 o
2 4 9 8.226 8.827 0.765 34.544 o
2 4 10 29.171 34.099 1.284 7.162 o
2 4 11 0.137 0.588 0.549 172.484 o
2 5 0 2.554 3.360 0.670 75.952 o
2 5 1 2.568 3.999 0.757 63.300 o
2 5 2 3.602 4.960 0.829 50.083 o
2 5 3 9.799 10.417 1.217 20.332 o
2 5 4 0.111 0.160 0.215 972.410 o
2 5 5 17.281 13.833 0.623 19.917 o
2 5 6 7.974 7.248 0.561 44.758 o
2 5 7 0.003 -0.046 0.315 571.196 o
2 5 8 0.829 0.567 0.463 197.344 o
2 5 9 6.015 4.669 0.676 51.555 o
2 5 10 14.654 21.695 1.119 14.572 o
2 6 0 70.044 62.693 2.843 1.861 o
2 6 1 124.897 132.114 4.200 0.657 o
2 6 2 1.829 2.913 0.386 150.748 o
2 6 3 110.402 107.695 1.792 1.022 o
2 6 4 45.077 51.796 1.264 4.067 o
2 6 5 1.045 0.512 0.320 301.776 o
2 6 6 20.969 24.695 1.299 10.240 o
2 6 7 13.376 14.234 0.937 19.958 o
2 6 8 0.110 -0.184 0.387 363.266 o
2 6 9 23.689 25.403 1.187 9.795 o
2 7 0 3.029 2.327 0.391 126.415 o
2 7 1 3.009 2.362 0.381 128.523 o
2 7 2 23.298 15.379 0.782 13.880 o
2 7 3 1.134 0.934 0.313 277.237 o
2 7 4 37.971 29.684 1.067 6.413 o
2 7 5 5.265 4.398 0.449 73.974 o
2 7 6 0.937 1.289 0.403 212.063 o
2 7 7 1.679 1.214 0.344 207.702 o
2 7 8 11.455 9.052 1.099 21.611 o
2 8 0 159.001 165.209 6.607 0.380 o
2 8 1 128.280 126.350 3.497 0.698 o
2 8 2 2.723 1.769 0.483 117.075 o
2 8 3 43.488 45.556 1.699 4.071 o
2 8 4 88.164 86.210 2.197 1.421 o
2 8 5 0.008 0.053 0.411 331.770 o
2 8 6 37.124 34.548 1.503 5.493 o
2 8 7 9.315 8.847 0.671 34.930 o
2 9 0 2.880 3.087 0.656 76.285 o
2 9 1 6.042 6.100 0.771 43.465 o
2 9 2 30.352 27.756 1.586 6.771 o
2 9 3 0.158 0.269 0.367 371.000 o
2 9 4 14.680 12.808 1.459 13.625 o
2 9 5 0.013 0.259 0.429 294.064 o
2 10 0 16.013 16.740 1.135 15.043 o
2 10 1 11.059 12.618 0.787 25.779 o
2 10 2 0.208 0.659 0.367 335.118 o
2 10 3 36.959 34.871 1.983 4.729 o
2 10 4 7.080 7.528 0.878 34.431 o
2 11 0 0.408 0.285 0.236 621.390 o
2 11 1 0.129 0.427 0.248 678.835 o
3 -13 2 0.334 0.269 0.311 446.960 o
3 -13 3 9.943 8.508 0.497 38.582 o
3 -13 4 2.352 1.862 0.280 185.389 o
3 -13 5 0.526 0.258 0.352 341.594 o
3 -13 6 0.233 -0.270 0.390 339.877 o
3 -12 0 2.307 3.041 0.726 71.448 o
3 -12 1 44.013 43.158 2.197 3.617 o
3 -12 2 12.975 12.068 0.953 21.118 o
3 -12 3 6.560 7.162 0.738 41.890 o
3 -12 4 46.829 46.255 1.673 3.817 o
3 -12 5 17.179 15.745 0.968 16.139 o
3 -12 6 8.563 11.064 0.758 31.772 o
3 -12 7 52.156 59.588 2.318 2.699 o
3 -12 8 13.781 15.247 2.490 6.865 o
3 -12 9 6.701 9.677 1.587 16.409 o
3 -11 0 11.379 11.239 0.928 23.652 o
3 -11 1 1.347 1.036 0.342 234.624 o
3 -11 2 1.384 1.546 0.491 146.995 o
3 -11 3 8.170 7.043 0.812 35.032 o
3 -11 4 2.422 2.214 0.553 103.066 o
3 -11 5 1.828 2.094 0.580 106.570 o
3 -11 6 1.997 2.073 0.658 88.465 o
3 -11 7 1.637 1.754 0.675 90.802 o
3 -11 8 1.005 1.636 0.604 116.821 o
3 -11 9 0.408 0.808 0.514 179.056 o
3 -11 10 4.373 4.164 0.383 90.741 o
3 -11 11 7.395 10.803 0.990 27.640 o
3 -10 0 4.748 4.875 0.728 53.053 o
3 -10 1 45.669 52.945 2.084 3.333 o
3 -10 2 15.639 16.667 1.287 13.901 o
3 -10 3 3.707 4.973 0.776 53.611 o
3 -10 4 8.197 4.716 0.766 39.513 o
3 -10 5 75.632 78.813 2.535 1.655 o
3 -10 6 5.008 7.304 0.810 42.792 o
3 -10 7 35.239 41.491 2.318 4.109 o
3 -10 8 9.298 8.777 0.665 35.245 o
3 -10 9 18.919 20.568 0.938 13.928 o
3 -10 10 86.254 82.671 1.697 1.564 o
3 -10 11 0.045 0.229 0.344 443.503 o
3 -10 12 15.749 14.324 0.802 19.394 o
3 -9 0 0.175 0.364 0.408 299.544 o
3 -9 1 0.822 0.648 0.383 255.978 o
3 -9 2 0.762 2.543 0.589 117.472 o
3 -9 3 118.010 125.332 2.656 0.820 o
3 -9 4 4.284 5.496 0.627 61.675 o
3 -9 5 169.943 173.504 3.104 0.443 o
3 -9 6 2.948 2.669 0.926 48.949 o
3 -9 7 3.877 4.837 0.734 56.608 o
3 -9 8 15.052 16.381 0.946 17.613 o
3 -9 9 0.110 -0.063 0.327 498.551 o
3 -9 10 11.103 10.950 0.789 26.870 o
3 -9 11 3.402 1.292 0.457 114.986 o
3 -9 12 0.196 -0.090 0.485 230.003 o
3 -9 13 3.735 3.407 0.623 72.575 o
3 -8 0 96.834 89.277 2.703 1.198 o
3 -8 1 300.872 291.787 3.813 0.161 o
3 -8 2 55.460 57.798 1.730 2.921 o
3 -8 3 9.529 10.227 0.687 32.549 o
3 -8 4 1120.070 1148.070 12.523 0.012 o
3 -8 5 1.946 2.931 0.456 127.622 o
3 -8 6 16.425 17.737 0.948 16.152 o
3 -8 7 31.986 29.090 1.675 6.209 o
3 -8 8 6.546 6.371 0.859 37.635 o
3 -8 9 3.077 3.712 0.654 72.591 o
3 -8 10 5.645 5.264 0.512 63.093 o
3 -8 11 5.869 5.398 0.598 55.555 o
3 -8 12 1.342 1.729 0.359 204.034 o
3 -8 13 8.266 8.548 0.701 36.863 o
3 -7 0 74.189 77.389 3.328 1.492 o
3 -7 1 0.923 0.957 0.492 169.415 o
3 -7 2 15.084 13.368 1.439 13.521 o
3 -7 3 164.213 170.510 12.153 0.219 o
3 -7 4 12.679 10.901 0.617 27.632 o
3 -7 5 200.337 190.276 2.876 0.349 o
3 -7 6 14.452 16.482 0.812 19.475 o
3 -7 7 2.480 2.262 0.372 145.505 o
3 -7 8 13.539 12.308 0.822 22.341 o
3 -7 9 1.372 1.007 0.426 184.842 o
3 -7 10 4.861 3.676 0.508 74.882 o
3 -7 11 0.608 0.507 0.399 263.737 o
3 -7 12 1.831 0.623 0.343 216.520 o
3 -7 13 2.062 2.031 0.431 142.811 o
3 -6 0 74.520 68.139 2.942 1.676 o
3 -6 1 227.587 221.031 5.208 0.251 o
3 -6 2 47.706 50.366 2.473 2.986 o
3 -6 3 803.164 790.187 10.387 0.024 o
3 -6 4 117.301 111.727 2.824 0.866 o
3 -6 5 12.194 10.774 1.526 14.443 o
3 -6 6 439.436 442.634 4.748 0.077 o
3 -6 7 386.228 391.895 3.760 0.098 o
3 -6 8 0.036 -0.190 0.322 537.471 o
3 -6 9 86.755 85.703 2.322 1.429 o
3 -6 10 85.295 82.651 2.113 1.517 o
3 -6 11 0.687 0.702 0.387 260.946 o
3 -6 12 1.706 2.469 0.473 133.458 o
3 -6 13 8.792 8.752 0.667 36.422 o
3 -6 14 0.147 0.560 0.366 351.461 o
3 -5 0 41.720 41.992 2.148 3.854 o
3 -5 1 27.409 26.988 1.713 6.968 o
3 -5 2 425.150 413.129 5.317 0.083 o
3 -5 3 129.276 130.861 2.368 0.739 o
3 -5 4 48.443 47.150 1.925 3.470 o
3 -5 5 143.392 133.288 3.371 0.609 o
3 -5 6 15.919 16.187 1.851 9.700 o
3 -5 7 86.472 82.388 1.624 1.573 o
3 -5 8 33.644 35.819 1.176 6.442 o
3 -5 9 1.935 2.046 0.438 143.744 o
3 -5 10 14.036 12.645 0.991 19.369 o
3 -5 11 49.829 57.768 2.031 3.024 o
3 -5 12 14.066 14.095 1.176 16.565 o
3 -5 13 3.025 2.434 0.414 120.373 o
3 -5 14 0.053 -0.144 0.269 752.597 o
3 -4 0 313.288 315.091 5.523 0.140 o
3 -4 1 273.445 294.136 5.209 0.173 o
3 -4 2 0.434 0.405 0.261 517.554 o
3 -4 3 172.395 172.939 2.588 0.447 o
3 -4 4 35.248 36.573 1.908 4.931 o
3 -4 5 4.619 4.980 1.005 36.793 o
3 -4 6 73.399 73.312 3.549 1.478 o
3 -4 7 115.590 115.346 2.077 0.916 o
3 -4 8 0.329 -0.478 0.299 513.192 o
3 -4 9 110.529 112.374 2.067 0.978 o
3 -4 10 191.182 206.292 3.684 0.341 o
3 -4 11 0.495 1.884 0.744 87.581 o
3 -4 12 175.009 171.793 3.820 0.415 o
3 -4 13 17.131 16.288 1.029 15.468 o
3 -4 14 1.431 0.403 0.384 221.415 o
3 -3 0 197.698 191.566 3.156 0.350 o
3 -3 1 77.116 68.995 2.404 1.761 o
3 -3 2 310.634 312.695 5.970 0.141 o
3 -3 3 167.931 166.759 4.896 0.412 o
3 -3 4 6.660 4.765 0.927 36.290 o
3 -3 5 794.868 824.141 11.727 0.023 o
3 -3 6 5.545 3.497 0.891 42.252 o
3 -3 7 68.546 64.940 1.267 2.375 o
3 -3 8 50.019 45.327 1.186 3.981 o
3 -3 9 4.310 5.621 0.607 62.788 o
3 -3 10 164.125 174.578 2.868 0.464 o
3 -3 11 50.030 48.517 2.241 3.096 o
3 -3 12 4.623 4.782 0.535 69.841 o
3 -3 13 12.363 15.444 1.380 14.880 o
3 -2 0 37.629 32.225 1.558 5.485 o
3 -2 1 197.215 193.478 4.307 0.331 o
3 -2 2 3.636 3.773 0.870 49.060 o
3 -2 3 1.170 1.395 0.648 104.371 o
3 -2 4 555.506 607.970 9.894 0.044 o
3 -2 5 26.875 26.702 2.258 5.577 o
3 -2 6 118.943 128.580 5.049 0.636 o
3 -2 7 97.032 100.787 1.571 1.245 o
3 -2 8 0.024 -0.280 0.303 609.797 o
3 -2 9 65.761 66.693 1.798 2.288 o
3 -2 10 0.606 1.083 0.419 226.502 o
3 -2 11 20.872 21.836 0.950 12.587 o
3 -2 12 1.615 0.981 0.354 212.614 o
3 -2 13 6.416 6.429 1.006 32.025 o
3 -1 0 6.746 4.870 0.509 57.956 o
3 -1 1 49.823 32.952 2.107 3.662 o
3 -1 2 34.092 19.888 1.715 6.473 o
3 -1 3 0.561 -0.107 0.605 141.499 o
3 -1 4 342.977 346.653 7.750 0.112 o
3 -1 5 1.377 1.660 0.840 66.559 o
3 -1 6 0.356 1.021 0.673 111.489 o
3 -1 7 87.456 88.870 1.629 1.491 o
3 -1 8 67.560 65.888 1.609 2.299 o
3 -1 9 3.183 2.617 0.498 100.020 o
3 -1 10 0.963 1.166 0.476 172.341 o
3 -1 11 52.631 49.250 1.530 3.431 o
3 -1 12 0.617 0.794 0.451 210.641 o
3 -1 13 1.106 2.290 0.632 103.159 o
3 0 0 547.837 586.621 4.106 0.049 o
3 0 1 259.380 288.375 6.090 0.180 o
3 0 2 37.975 39.429 2.462 3.808 o
3 0 3 396.219 460.990 8.767 0.078 o
3 0 4 23.077 27.840 2.339 5.701 o
3 0 5 19.304 25.413 2.361 6.166 o
3 0 6 50.577 56.821 3.639 2.031 o
3 0 7 24.662 24.355 0.965 10.513 o
3 0 8 1.046 1.557 0.471 165.062 o
3 0 9 3.458 4.787 1.931 13.681 o
3 0 10 15.328 15.372 1.092 16.273 o
3 0 11 2.066 1.615 0.582 105.938 o
3 0 12 5.377 4.857 0.755 48.749 o
3 1 0 14.840 13.128 0.884 19.808 o
3 1 1 345.462 331.490 6.689 0.118 o
3 1 2 322.297 311.631 6.993 0.131 o
3 1 3 0.145 0.867 0.616 136.316 o
3 1 4 6.932 3.960 1.081 30.491 o
3 1 5 18.419 19.722 2.199 7.202 o
3 1 6 0.001 0.148 0.295 618.568 o
3 1 7 0.298 0.702 0.347 348.727 o
3 1 8 1.025 1.603 0.595 119.285 o
3 1 9 0.253 -0.170 0.477 232.918 o
3 1 10 4.654 5.530 0.572 63.885 o
3 1 11 1.814 2.915 0.654 86.951 o
3 1 12 1.330 1.122 0.466 165.104 o
3 2 0 207.830 202.810 3.527 0.315 o
3 2 1 84.263 91.216 2.466 1.400 o
3 2 2 59.426 60.011 3.155 2.022 o
3 2 3 476.876 485.226 9.515 0.060 o
3 2 4 118.821 122.018 5.087 0.649 o
3 2 5 105.309 106.755 2.319 1.040 o
3 2 6 335.302 328.467 4.854 0.128 o
3 2 7 43.831 46.155 2.196 3.538 o
3 2 8 47.818 44.512 2.101 3.438 o
3 2 9 72.198 73.672 2.431 1.813 o
3 2 10 12.488 11.916 0.937 21.926 o
3 2 11 0.927 2.420 0.447 165.116 o
3 3 0 2.799 2.005 0.648 82.807 o
3 3 1 394.445 368.964 16.564 0.068 o
3 3 2 373.883 406.349 8.322 0.091 o
3 3 3 24.013 26.154 2.333 5.708 o
3 3 4 546.553 519.578 5.130 0.052 o
3 3 5 166.085 166.148 2.976 0.469 o
3 3 6 53.471 46.932 2.219 2.984 o
3 3 7 160.274 167.946 4.044 0.456 o
3 3 8 24.195 24.244 1.521 8.490 o
3 3 9 8.608 9.705 0.738 33.597 o
3 3 10 34.578 36.413 1.534 5.644 o
3 3 11 0.564 0.223 0.339 357.901 o
3 4 0 4.460 7.061 1.189 28.075 o
3 4 1 8.983 10.005 1.388 18.170 o
3 4 2 13.640 12.307 0.790 22.691 o
3 4 3 3.197 3.404 0.505 93.560 o
3 4 4 3.238 3.907 0.466 95.898 o
3 4 5 0.877 -0.097 0.345 322.386 o
3 4 6 0.889 0.675 0.357 272.631 o
3 4 7 2.832 4.349 0.601 78.767 o
3 4 8 0.981 0.851 0.324 286.556 o
3 4 9 18.016 19.100 1.759 9.408 o
3 4 10 1.689 2.458 0.416 151.990 o
3 5 0 37.096 35.562 1.327 5.705 o
3 5 1 81.822 88.206 1.873 1.570 o
3 5 2 35.441 34.728 1.350 5.955 o
3 5 3 1.541 0.698 0.361 221.066 o
3 5 4 5.253 8.434 0.713 45.229 o
3 5 5 36.294 32.139 1.276 6.146 o
3 5 6 0.106 0.161 0.284 612.528 o
3 5 7 40.930 43.868 1.494 4.582 o
3 5 8 7.077 7.444 0.770 38.701 o
3 5 9 11.229 10.603 0.734 28.055 o
3 6 0 6.569 5.656 0.845 39.088 o
3 6 1 0.960 1.174 0.325 272.273 o
3 6 2 4.134 4.140 0.542 75.573 o
3 6 3 1.764 2.803 0.474 128.116 o
3 6 4 1.351 1.663 0.410 180.034 o
3 6 5 12.995 11.434 0.759 24.463 o
3 6 6 4.815 4.338 0.457 77.486 o
3 6 7 3.266 2.913 0.337 125.807 o
3 6 8 0.520 0.993 0.501 178.883 o
3 7 0 0.077 0.086 0.453 267.677 o
3 7 1 42.242 49.001 2.299 3.448 o
3 7 2 12.079 14.811 1.800 11.194 o
3 7 3 1.916 2.207 0.516 119.855 o
3 7 4 45.235 42.283 1.545 4.213 o
3 7 5 2.683 3.635 0.527 95.051 o
3 7 6 2.427 2.664 1.113 37.847 o
3 8 0 11.301 11.396 0.891 24.343 o
3 8 1 0.065 0.176 0.346 439.954 o
3 8 2 10.180 10.030 1.024 23.851 o
3 8 3 11.827 9.942 0.902 24.383 o
3 8 4 0.075 0.353 0.341 429.987 o
3 8 5 2.066 0.574 0.287 234.360 o
3 9 0 9.784 9.683 1.794 12.670 o
3 9 1 48.498 51.755 1.897 3.351 o
3 9 2 6.160 5.394 0.641 51.551 o
3 9 3 6.972 6.200 0.588 49.403 o
3 10 0 0.230 0.366 0.289 516.727 o
3 10 1 0.900 0.790 0.263 366.862 o
4 -12 1 0.032 -0.177 0.194 1439.710 o
4 -12 2 0.170 -0.066 0.587 160.236 o
4 -12 3 0.557 -0.095 0.294 463.880 o
4 -12 4 2.295 2.055 0.440 133.895 o
4 -12 5 0.243 -0.091 0.458 252.359 o
4 -12 6 13.868 10.637 0.882 21.998 o
4 -11 0 9.403 7.884 0.656 36.308 o
4 -11 1 25.638 26.150 1.280 8.807 o
4 -11 2 55.761 53.312 1.830 2.963 o
4 -11 3 6.580 6.075 0.691 45.837 o
4 -11 4 20.114 23.816 1.616 9.080 o
4 -11 5 247.313 233.560 3.272 0.237 o
4 -11 6 0.860 2.271 0.642 104.037 o
4 -11 7 54.771 61.054 2.723 2.351 o
4 -11 8 27.624 26.818 1.371 7.971 o
4 -10 0 21.329 18.528 0.964 13.067 o
4 -10 1 3.071 2.136 0.518 101.271 o
4 -10 2 0.367 0.078 0.297 495.922 o
4 -10 3 0.779 0.445 0.423 231.894 o
4 -10 4 22.869 22.863 1.296 9.952 o
4 -10 5 11.465 10.243 1.218 19.096 o
4 -10 6 60.660 52.152 2.531 2.404 o
4 -10 7 0.727 0.910 0.377 257.833 o
4 -10 8 0.932 0.331 0.428 222.363 o
4 -10 9 0.109 -0.349 0.550 184.059 o
4 -10 10 1.001 2.147 1.528 22.986 o
4 -9 0 2.735 2.769 0.458 113.533 o
4 -9 1 25.769 29.312 1.258 8.461 o
4 -9 2 54.158 56.228 2.158 2.780 o
4 -9 3 1.178 1.544 0.383 204.629 o
4 -9 4 145.872 143.657 3.492 0.570 o
4 -9 5 1.661 1.683 0.763 75.506 o
4 -9 6 1.086 1.538 0.705 91.473 o
4 -9 7 52.345 55.397 2.794 2.484 o
4 -9 8 33.481 34.268 2.098 4.888 o
4 -9 9 0.747 0.374 0.279 407.970 o
4 -9 10 12.026 11.257 0.801 25.148 o
4 -9 11 10.294 9.050 0.859 27.971 o
4 -8 0 0.854 0.537 0.380 260.041 o
4 -8 1 0.020 0.064 0.305 589.544 o
4 -8 2 7.165 6.059 0.671 44.836 o
4 -8 3 27.192 26.347 1.272 8.431 o
4 -8 4 1.496 1.665 0.438 162.587 o
4 -8 5 1.051 0.923 0.469 177.434 o
4 -8 6 16.484 12.895 0.907 18.258 o
4 -8 7 1.118 1.820 1.249 33.554 o
4 -8 8 7.278 7.163 0.830 36.196 o
4 -8 9 1.240 0.766 0.363 236.660 o
4 -8 10 4.307 4.610 0.888 44.394 o
4 -8 11 1.028 0.866 0.426 204.126 o
4 -7 0 0.287 0.307 0.267 568.466 o
4 -7 1 60.079 57.583 1.895 2.637 o
4 -7 2 30.521 29.054 1.107 7.816 o
4 -7 3 0.018 -0.263 0.312 576.857 o
4 -7 4 6.851 6.252 1.135 27.275 o
4 -7 5 6.820 5.383 0.801 40.782 o
4 -7 6 0.855 0.489 0.344 297.592 o
4 -7 7 4.771 4.715 0.624 61.372 o
4 -7 8 20.659 20.106 0.914 13.299 o
4 -7 9 2.524 2.191 0.393 139.577 o
4 -7 10 42.232 45.075 1.746 4.143 o
4 -7 11 27.897 32.490 1.361 7.369 o
4 -7 12 2.008 1.705 0.490 130.191 o
4 -6 0 1.642 0.720 0.294 256.841 o
4 -6 1 0.266 0.222 0.297 504.613 o
4 -6 2 27.642 28.230 1.054 8.741 o
4 -6 3 47.369 45.863 1.411 4.008 o
4 -6 4 1.079 0.454 0.312 309.072 o
4 -6 5 37.757 41.724 1.422 5.110 o
4 -6 6 17.403 19.043 0.742 16.683 o
4 -6 7 2.938 3.128 0.380 122.128 o
4 -6 8 1.836 1.143 0.285 232.076 o
4 -6 9 0.007 -0.207 0.257 858.070 o
4 -6 10 9.934 9.909 0.686 32.083 o
4 -6 11 23.268 29.538 1.876 6.926 o
4 -6 12 38.059 38.068 2.010 4.453 o
4 -5 0 18.383 20.044 0.885 14.719 o
4 -5 1 579.761 583.807 5.361 0.045 o
4 -5 2 342.442 357.496 4.547 0.120 o
4 -5 3 53.787 53.066 1.794 3.090 o
4 -5 4 306.726 306.550 4.422 0.151 o
4 -5 5 269.408 272.213 2.493 0.198 o
4 -5 6 3.707 4.159 0.363 102.214 o
4 -5 7 191.858 191.161 2.431 0.373 o
4 -5 8 29.719 29.448 1.195 7.732 o
4 -5 9 3.381 3.262 0.431 103.869 o
4 -5 10 21.210 21.928 1.002 12.145 o
4 -5 11 0.101 0.197 0.376 368.969 o
4 -5 12 23.570 24.837 1.758 7.670 o
4 -4 0 25.937 27.363 1.879 6.679 o
4 -4 1 0.367 -0.030 0.405 302.686 o
4 -4 2 159.699 145.950 5.466 0.441 o
4 -4 3 38.941 35.576 1.278 5.532 o
4 -4 4 10.890 11.237 0.555 31.690 o
4 -4 5 142.986 138.613 1.683 0.658 o
4 -4 6 33.697 35.896 0.947 6.801 o
4 -4 7 13.038 12.929 0.581 26.038 o
4 -4 8 0.963 0.844 0.237 383.497 o
4 -4 9 2.826 2.496 0.428 120.788 o
4 -4 10 4.031 4.637 0.663 62.465 o
4 -4 11 14.090 10.785 1.467 14.236 o
4 -4 12 2.819 2.453 0.686 75.198 o
4 -3 0 62.955 62.101 2.697 2.104 o
4 -3 1 127.820 122.511 4.894 0.621 o
4 -3 2 81.984 81.370 4.072 1.189 o
4 -3 3 37.525 36.192 2.797 3.510 o
4 -3 4 287.877 285.287 2.672 0.176 o
4 -3 5 39.160 39.196 0.905 5.710 o
4 -3 6 119.162 119.163 1.594 0.894 o
4 -3 7 162.187 162.064 1.934 0.511 o
4 -3 8 22.253 20.928 0.854 12.644 o
4 -3 9 39.184 35.193 1.375 5.390 o
4 -3 10 65.598 64.738 2.922 1.913 o
4 -3 11 5.160 6.464 1.183 27.771 o
4 -3 12 0.667 0.382 0.443 225.540 o
4 -2 0 284.141 287.279 5.519 0.166 o
4 -2 1 1.003 1.008 0.646 109.976 o
4 -2 2 153.516 143.103 5.395 0.465 o
4 -2 3 91.535 84.554 4.261 1.043 o
4 -2 4 18.288 16.411 0.993 15.037 o
4 -2 5 46.597 38.190 1.110 4.677 o
4 -2 6 31.460 26.338 0.952 8.277 o
4 -2 7 20.389 18.597 0.795 14.541 o
4 -2 8 38.510 33.307 1.483 5.429 o
4 -2 9 0.457 0.442 0.458 223.916 o
4 -2 10 13.324 14.906 1.779 11.002 o
4 -2 11 20.384 19.829 1.774 8.723 o
4 -1 0 0.497 0.881 0.606 132.726 o
4 -1 1 129.044 130.119 5.013 0.592 o
4 -1 2 29.517 29.492 2.493 4.699 o
4 -1 3 27.927 27.652 1.786 6.626 o
4 -1 4 148.928 161.458 2.805 0.544 o
4 -1 5 28.887 29.326 1.252 7.775 o
4 -1 6 10.823 10.413 0.883 25.735 o
4 -1 7 62.867 63.588 2.073 2.341 o
4 -1 8 13.794 13.073 0.948 19.965 o
4 -1 9 4.939 3.167 0.655 62.149 o
4 -1 10 14.173 14.422 1.058 17.746 o
4 -1 11 5.261 4.946 0.862 42.635 o
4 0 0 87.288 72.326 3.614 1.274 o
4 0 1 1.018 0.341 0.535 155.871 o
4 0 2 57.198 53.392 3.354 2.063 o
4 0 3 33.315 29.442 1.420 6.545 o
4 0 4 18.206 18.546 0.980 14.576 o
4 0 5 72.065 64.598 1.839 2.106 o
4 0 6 3.191 2.716 0.512 96.852 o
4 0 7 20.331 18.996 1.140 12.364 o
4 0 8 8.451 7.710 0.932 30.010 o
4 0 9 0.282 0.404 0.424 269.749 o
4 0 10 2.440 2.075 0.461 125.074 o
4 0 11 1.377 1.565 0.440 167.386 o
4 1 0 8.569 9.925 1.405 18.177 o
4 1 1 98.196 121.895 4.818 0.782 o
4 1 2 24.961 24.208 1.272 9.267 o
4 1 3 2.064 1.647 0.376 167.331 o
4 1 4 19.860 23.027 1.133 11.775 o
4 1 5 5.236 5.637 0.581 59.445 o
4 1 6 27.916 26.061 1.146 8.682 o
4 1 7 12.286 13.459 1.154 18.251 o
4 1 8 0.141 0.912 0.619 134.865 o
4 1 9 18.933 19.317 1.142 12.883 o
4 1 10 23.118 22.758 1.032 11.081 o
4 2 0 16.345 15.513 1.911 9.322 o
4 2 1 42.135 40.493 1.946 4.109 o
4 2 2 2.520 1.860 0.454 127.309 o
4 2 3 0.216 0.281 0.329 432.816 o
4 2 4 0.119 0.206 0.397 330.650 o
4 2 5 2.236 1.186 0.449 143.730 o
4 2 6 2.205 0.971 0.332 192.996 o
4 2 7 0.056 0.112 0.271 707.026 o
4 2 8 17.470 18.392 0.952 15.261 o
4 2 9 0.005 -0.690 0.335 505.348 o
4 3 0 732.272 759.348 7.252 0.028 o
4 3 1 204.533 197.973 5.196 0.300 o
4 3 2 0.317 1.099 0.564 151.613 o
4 3 3 182.552 184.072 3.037 0.395 o
4 3 4 109.708 117.476 2.101 0.959 o
4 3 5 0.004 -0.062 0.286 693.018 o
4 3 6 3.523 4.606 0.587 73.671 o
4 3 7 32.124 34.318 1.301 6.586 o
4 3 8 3.748 3.399 0.506 87.148 o
4 3 9 0.901 0.453 0.341 297.789 o
4 4 0 76.260 70.669 2.291 1.791 o
4 4 1 44.541 41.323 2.166 3.673 o
4 4 2 222.130 230.615 5.872 0.244 o
4 4 3 9.813 10.920 0.890 26.608 o
4 4 4 46.600 46.655 1.297 4.129 o
4 4 5 74.465 71.627 2.008 1.896 o
4 4 6 0.111 0.097 0.461 255.488 o
4 4 7 10.187 7.698 0.688 33.809 o
4 4 8 0.928 0.860 0.405 223.624 o
4 5 0 58.943 60.477 2.107 2.525 o
4 5 1 1.047 1.606 0.465 166.884 o
4 5 2 2.942 3.512 0.572 85.648 o
4 5 3 4.719 5.637 0.651 57.029 o
4 5 4 17.908 21.115 1.669 9.681 o
4 5 5 0.167 -0.077 0.352 423.270 o
4 5 6 27.325 26.058 1.175 8.741 o
4 5 7 13.207 13.297 1.188 17.230 o
4 6 0 5.450 6.239 0.719 48.068 o
4 6 1 7.186 7.601 0.762 38.537 o
4 6 2 30.852 31.328 1.397 6.849 o
4 6 3 2.203 1.641 0.413 149.760 o
4 6 4 22.997 24.349 1.298 9.692 o
4 6 5 25.517 29.061 1.259 8.550 o
4 7 0 0.681 0.484 0.399 258.816 o
4 7 1 1.771 1.476 0.396 173.493 o
4 7 2 3.133 3.443 0.553 86.904 o
4 7 3 0.030 -0.177 0.296 635.324 o
4 7 4 1.353 1.217 0.310 248.845 o
4 8 0 1.612 2.192 0.470 139.913 o
4 8 1 15.415 18.178 1.067 15.594 o
4 8 2 5.071 4.932 0.714 52.495 o
5 -10 0 11.295 11.635 1.098 20.588 o
5 -10 1 3.887 3.920 0.835 50.504 o
5 -10 2 44.476 48.301 2.157 3.473 o
5 -10 3 19.331 19.093 1.350 11.429 o
5 -10 4 7.770 10.189 1.024 26.651 o
5 -10 5 27.437 34.223 1.726 6.371 o
5 -10 6 7.945 7.538 1.031 28.035 o
5 -9 0 0.409 -0.132 0.249 641.468 o
5 -9 1 0.894 0.463 0.524 162.944 o
5 -9 2 0.217 0.344 0.331 421.468 o
5 -9 3 0.400 0.091 0.434 262.209 o
5 -9 4 1.894 1.657 0.420 156.710 o
5 -9 5 0.014 0.019 0.477 248.896 o
5 -9 6 0.022 -0.186 0.316 560.899 o
5 -9 7 3.069 2.914 0.473 103.937 o
5 -9 8 3.004 2.368 0.495 104.888 o
5 -8 0 51.823 50.505 1.827 3.246 o
5 -8 1 7.798 7.465 1.130 25.571 o
5 -8 2 97.122 96.992 2.583 1.162 o
5 -8 3 26.974 29.867 1.483 7.461 o
5 -8 4 12.679 14.597 0.863 21.459 o
5 -8 5 39.232 44.323 1.416 4.816 o
5 -8 6 25.879 25.519 1.245 8.951 o
5 -8 7 0.450 0.209 0.354 352.330 o
5 -8 8 38.328 37.284 1.277 5.503 o
5 -7 0 46.916 48.279 1.899 3.551 o
5 -7 1 2.070 1.548 0.777 71.166 o
5 -7 2 5.721 4.923 0.709 50.155 o
5 -7 3 10.679 8.792 0.896 26.743 o
5 -7 4 1.077 0.740 0.334 273.380 o
5 -7 5 5.991 5.990 0.609 52.908 o
5 -7 6 4.611 3.388 0.485 80.888 o
5 -7 7 39.616 42.781 1.309 4.981 o
5 -7 8 3.799 3.417 0.494 88.078 o
5 -7 9 5.535 4.898 0.746 48.613 o
5 -6 0 2.110 2.854 1.070 40.886 o
5 -6 1 14.995 16.367 1.164 15.450 o
5 -6 2 6.043 5.795 0.764 44.303 o
5 -6 3 8.665 10.648 0.982 26.237 o
5 -6 4 17.232 18.378 1.296 12.739 o
5 -6 5 73.443 75.287 1.654 1.958 o
5 -6 6 2.871 2.894 0.388 124.206 o
5 -6 7 76.738 80.109 1.639 1.813 o
5 -6 8 30.388 34.883 1.207 7.033 o
5 -6 9 0.082 0.776 0.528 183.869 o
5 -5 0 110.257 113.637 3.010 0.901 o
5 -5 1 0.107 -0.001 0.489 230.954 o
5 -5 2 0.885 0.210 0.451 211.720 o
5 -5 3 0.118 0.058 0.378 374.407 o
5 -5 4 0.227 0.305 0.286 535.636 o
5 -5 5 9.272 9.045 0.590 37.117 o
5 -5 6 0.341 0.131 0.270 573.705 o
5 -5 7 0.093 0.416 0.290 549.634 o
5 -5 8 6.161 5.562 0.564 55.900 o
5 -5 9 0.284 0.664 0.516 185.553 o
5 -4 0 23.369 24.532 1.193 9.999 o
5 -4 1 49.108 48.224 2.049 3.300 o
5 -4 2 154.288 158.588 3.680 0.502 o
5 -4 3 4.520 3.559 0.622 66.580 o
5 -4 4 37.925 36.070 1.561 5.219 o
5 -4 5 51.838 53.296 1.587 3.320 o
5 -4 6 1.965 0.759 0.384 185.211 o
5 -4 7 6.463 7.425 0.592 48.764 o
5 -4 8 25.391 26.756 1.112 9.375 o
5 -4 9 0.491 0.568 0.649 120.718 o
5 -4 10 14.805 19.112 1.503 11.980 o
5 -3 0 38.470 41.228 1.338 5.164 o
5 -3 1 4.460 3.946 0.574 70.360 o
5 -3 2 3.310 2.840 0.413 111.593 o
5 -3 3 1.008 1.021 0.411 210.238 o
5 -3 4 4.115 5.029 0.543 71.967 o
5 -3 5 0.263 0.030 0.316 481.454 o
5 -3 6 3.326 3.308 0.437 103.365 o
5 -3 7 8.338 8.242 0.607 40.280 o
5 -3 8 3.753 4.462 0.664 64.507 o
5 -3 9 0.742 0.331 0.546 158.878 o
5 -2 0 28.077 27.496 1.128 8.513 o
5 -2 1 28.862 26.242 1.276 8.050 o
5 -2 2 218.957 229.492 5.097 0.258 o
5 -2 3 4.243 3.331 0.581 73.667 o
5 -2 4 102.667 99.908 2.191 1.120 o
5 -2 5 92.161 90.952 2.076 1.336 o
5 -2 6 0.764 0.764 0.330 307.661 o
5 -2 7 85.239 83.896 1.748 1.565 o
5 -2 8 20.516 20.301 0.967 13.017 o
5 -2 9 1.341 1.094 0.538 136.710 o
5 -1 0 214.710 207.560 6.408 0.260 o
5 -1 1 9.549 10.611 1.538 15.526 o
5 -1 2 117.042 116.086 4.206 0.743 o
5 -1 3 41.489 37.550 1.560 4.760 o
5 -1 4 0.705 1.539 0.473 176.763 o
5 -1 5 30.487 27.017 1.424 7.232 o
5 -1 6 7.715 6.353 0.617 44.932 o
5 -1 7 0.315 0.285 0.313 446.494 o
5 -1 8 2.430 1.471 0.408 147.365 o
5 -1 9 5.519 5.276 0.736 48.639 o
5 0 0 0.271 -0.024 0.732 102.760 o
5 0 1 288.986 312.420 7.785 0.143 o
5 0 2 20.518 21.396 2.723 5.203 o
5 0 3 0.987 1.135 0.395 218.753 o
5 0 4 31.567 33.566 1.448 6.436 o
5 0 5 23.799 27.090 1.276 9.178 o
5 0 6 0.321 0.079 0.266 604.220 o
5 0 7 0.191 0.431 0.260 606.620 o
5 0 8 13.553 11.420 1.060 19.350 o
5 1 0 5.857 4.215 0.752 48.331 o
5 1 1 2.301 1.024 0.546 115.777 o
5 1 2 0.468 0.542 0.442 233.342 o
5 1 3 13.137 14.268 1.236 16.394 o
5 1 4 0.541 0.097 0.475 215.735 o
5 1 5 4.458 4.257 0.656 61.723 o
5 1 6 2.614 1.778 0.414 136.776 o
5 1 7 1.125 1.128 0.356 236.808 o
5 1 8 2.875 1.883 0.476 114.829 o
5 2 0 0.487 1.361 0.535 156.759 o
5 2 1 13.171 11.125 1.136 18.705 o
5 2 2 14.964 17.461 1.067 16.087 o
5 2 3 0.028 0.122 0.369 400.199 o
5 2 4 35.703 40.146 1.485 5.353 o
5 2 5 20.176 21.496 1.005 12.680 o
5 2 6 3.716 2.555 0.457 99.895 o
5 2 7 50.298 46.571 2.029 3.295 o
5 3 0 3.686 3.414 1.093 35.848 o
5 3 1 0.264 0.592 0.448 240.256 o
5 3 2 4.774 4.875 0.587 63.925 o
5 3 3 5.003 4.775 0.470 72.744 o
5 3 4 0.675 0.570 0.292 383.476 o
5 3 5 17.934 15.717 0.778 17.241 o
5 3 6 5.749 5.418 0.748 46.797 o
5 4 0 9.968 10.643 1.007 24.088 o
5 4 1 40.001 40.127 1.821 4.449 o
5 4 2 14.554 15.334 0.893 18.996 o
5 4 3 0.023 0.130 0.212 1125.120 o
5 4 4 5.319 6.665 0.522 60.133 o
5 4 5 4.275 3.660 0.598 70.355 o
5 5 0 35.516 35.762 1.604 5.450 o
5 5 1 0.534 0.182 0.296 442.427 o
5 5 2 25.491 29.169 0.906 9.649 o
5 5 3 1.054 1.038 0.446 187.123 o
5 6 0 0.099 0.133 0.528 196.942 o
5 6 1 36.872 38.322 0.931 6.084 o
6 -8 0 0.031 0.397 0.228 853.192 o
6 -8 1 7.531 5.205 0.709 43.275 o
6 -8 2 0.463 0.455 0.318 388.264 o
6 -8 3 0.001 0.003 0.283 707.896 o
6 -7 0 19.371 16.928 0.902 14.936 o
6 -7 1 0.550 0.757 0.303 371.956 o
6 -7 2 2.789 3.185 0.349 131.092 o
6 -7 3 16.388 16.155 0.698 19.011 o
6 -7 4 0.123 1.094 0.511 186.353 o
6 -6 0 1.686 0.865 0.515 139.216 o
6 -6 1 0.323 0.653 0.302 426.422 o
6 -6 2 1.147 0.584 0.445 193.430 o
6 -6 3 0.064 0.044 0.309 563.741 o
6 -6 4 9.657 10.271 0.726 31.253 o
6 -6 5 4.075 3.603 0.678 63.800 o
6 -5 0 18.547 21.301 1.674 9.471 o
6 -5 1 1.409 1.599 0.414 177.008 o
6 -5 2 23.590 22.866 1.241 9.980 o
6 -5 3 57.436 62.572 5.828 1.096 o
6 -5 4 1.005 1.533 0.612 115.194 o
6 -5 5 34.281 37.212 1.952 4.923 o
6 -5 6 10.882 10.986 0.991 23.195 o
6 -4 0 2.357 2.974 0.581 93.591 o
6 -4 1 12.346 13.128 0.934 21.506 o
6 -4 2 17.774 17.128 1.547 11.016 o
6 -4 3 34.263 37.818 1.617 5.455 o
6 -4 4 0.152 0.451 0.374 345.998 o
6 -4 5 7.770 7.985 0.966 29.848 o
6 -4 6 0.991 0.516 0.387 244.967 o
6 -3 0 22.752 20.868 1.598 8.887 o
6 -3 1 1.199 0.821 0.555 136.856 o
6 -3 2 106.803 123.468 4.270 0.777 o
6 -3 3 1.806 1.760 0.735 78.505 o
6 -3 4 7.411 8.320 1.027 28.349 o
6 -3 5 26.164 28.667 2.745 4.484 o
6 -3 6 9.041 12.432 1.114 22.006 o
6 -2 0 0.180 -0.139 0.463 252.009 o
6 -2 1 42.851 41.735 1.766 4.206 o
6 -2 2 1.207 1.276 0.433 182.730 o
6 -2 3 24.498 24.992 1.307 9.152 o
6 -2 4 1.437 0.683 0.366 224.693 o
6 -2 5 2.735 2.762 0.704 72.247 o
6 -1 0 23.657 26.399 1.378 8.914 o
6 -1 1 21.895 22.588 1.035 11.565 o
6 -1 2 9.584 9.966 0.701 32.329 o
6 -1 3 14.674 15.365 1.038 17.275 o
6 -1 4 4.462 3.801 0.602 68.166 o
6 -1 5 30.629 30.003 1.748 6.165 o
6 0 0 22.756 23.795 1.060 10.900 o
6 0 1 13.368 10.444 0.726 25.153 o
6 0 2 1.144 0.812 0.334 264.713 o
6 0 3 22.440 20.166 1.122 11.389 o
6 0 4 1.029 1.181 0.349 246.960 o
6 1 0 5.803 6.109 0.563 56.341 o
6 1 1 0.295 0.425 0.266 547.675 o
6 1 2 9.861 9.371 0.618 34.527 o
6 1 3 6.286 7.226 0.914 35.006 o
6 2 0 1.677 1.439 0.319 214.421 o
6 2 1 0.538 0.715 0.248 471.404 o
6 2 2 0.685 0.017 0.428 249.227 o
6 3 0 4.367 4.285 0.497 77.673 o
6 3 1 5.967 5.349 0.745 46.355 o
;
_olex2_submission_special_instructions 'No special instructions were received'
_oxdiff_exptl_absorpt_empirical_details
;
Empirical correction (ABSPACK) includes:
- Absorption correction using spherical harmonics
- Frame scaling
;
_oxdiff_exptl_absorpt_empirical_full_max 1.442
_oxdiff_exptl_absorpt_empirical_full_min 0.690
loop_
_space_group_symop_id
_space_group_symop_operation_xyz
1 x,y,z
2 -x,-y,-z
loop_
_atom_site_label
_atom_site_type_symbol
_atom_site_fract_x
_atom_site_fract_y
_atom_site_fract_z
_atom_site_U_iso_or_equiv
_atom_site_adp_type
_atom_site_occupancy
_atom_site_refinement_flags_posn
S1 S 0.06452(8) -0.00374(4) 0.82420(4) 0.06477(17) Uani 1.000000 .
Cl1 Cl -0.36660(10) 0.47485(5) 0.83359(5) 0.0901(2) Uani 1.000000 .
C3 C -0.0657(3) 0.12772(15) 0.82271(12) 0.0516(4) Uani 1.000000 .
C4 C -0.2938(3) 0.11873(16) 0.76653(13) 0.0559(4) Uani 1.000000 .
H4 H -0.3853(3) 0.04037(16) 0.72653(13) 0.0671(5) Uiso 1.000000 R
C5 C -0.3608(3) -0.18486(15) 0.78211(12) 0.0543(4) Uani 1.000000 .
C6 C 0.0689(3) 0.24610(17) 0.88101(13) 0.0598(4) Uani 1.000000 .
H6 H 0.2212(3) 0.25315(17) 0.91884(13) 0.0718(5) Uiso 1.000000 R
C7 C -0.1388(3) -0.17473(17) 0.63206(13) 0.0610(4) Uani 1.000000 .
C8 C -0.3837(3) 0.22496(16) 0.76998(14) 0.0599(4) Uani 1.000000 .
H8 H -0.5365(3) 0.21846(16) 0.73279(14) 0.0719(5) Uiso 1.000000 R
C9 C -0.1622(3) -0.13066(15) 0.74001(13) 0.0554(4) Uani 1.000000 .
C10 C -0.2474(3) 0.34145(16) 0.82867(14) 0.0601(4) Uani 1.000000 .
C11 C -0.5461(4) -0.28518(16) 0.71339(14) 0.0616(4) Uani 1.000000 .
C12 C -0.0188(3) 0.35235(17) 0.88368(14) 0.0618(4) Uani 1.000000 .
H12 H 0.0741(3) 0.43105(17) 0.92204(14) 0.0742(5) Uiso 1.000000 R
C13 C -0.3241(4) -0.27657(18) 0.56499(14) 0.0693(5) Uani 1.000000 .
C14 C -0.3894(4) -0.14305(18) 0.89121(14) 0.0640(4) Uani 1.000000 .
H14 H -0.2701(4) -0.07902(18) 0.93772(14) 0.0768(5) Uiso 1.000000 R
C15 C -0.5223(4) -0.32765(17) 0.60649(16) 0.0750(5) Uani 1.000000 .
H15 H -0.6434(4) -0.39228(17) 0.56167(16) 0.0900(7) Uiso 1.000000 R
C16 C -0.7532(4) -0.33608(19) 0.75593(19) 0.0787(6) Uani 1.000000 .
H16 H -0.8765(4) -0.40005(19) 0.71183(19) 0.0944(7) Uiso 1.000000 R
C17 C -0.5879(4) -0.1953(2) 0.92800(17) 0.0750(5) Uani 1.000000 .
H17 H -0.6027(4) -0.1667(2) 0.99929(17) 0.0900(6) Uiso 1.000000 R
C18 C -0.2984(6) -0.3220(2) 0.45471(17) 0.0958(8) Uani 1.000000 .
H18 H -0.4170(6) -0.3878(2) 0.40972(17) 0.1149(9) Uiso 1.000000 R
C19 C 0.0586(4) -0.1226(2) 0.58608(17) 0.0822(6) Uani 1.000000 .
H19 H 0.1787(4) -0.0552(2) 0.62800(17) 0.0986(7) Uiso 1.000000 R
C1A C -0.7707(4) -0.2918(2) 0.85979(19) 0.0801(6) Uani 1.000000 .
H1A H -0.9061(4) -0.3259(2) 0.88636(19) 0.0961(7) Uiso 1.000000 R
C20 C 0.0736(6) -0.1702(3) 0.4819(2) 0.1034(9) Uani 1.000000 .
H20 H 0.2053(6) -0.1355(3) 0.4537(2) 0.1241(10) Uiso 1.000000 R
C21 C -0.1053(6) -0.2704(3) 0.41606(19) 0.1063(9) Uani 1.000000 .
H21 H -0.0906(6) -0.3017(3) 0.34495(19) 0.1276(11) Uiso 1.000000 R
loop_
_atom_site_aniso_label
_atom_site_aniso_U_11
_atom_site_aniso_U_22
_atom_site_aniso_U_33
_atom_site_aniso_U_12
_atom_site_aniso_U_13
_atom_site_aniso_U_23
S1 0.0544(3) 0.0675(3) 0.0701(3) 0.0137(2) -0.00432(19) 0.0204(2)
Cl1 0.0817(4) 0.0591(3) 0.1217(5) 0.0191(2) 0.0001(3) 0.0175(3)
C3 0.0467(8) 0.0613(9) 0.0459(8) 0.0085(7) 0.0077(6) 0.0161(7)
C4 0.0476(8) 0.0560(9) 0.0586(9) 0.0037(7) 0.0017(7) 0.0146(7)
C5 0.0608(9) 0.0505(8) 0.0553(9) 0.0198(7) 0.0046(7) 0.0181(7)
C6 0.0471(8) 0.0714(11) 0.0510(9) 0.0063(8) 0.0004(7) 0.0090(8)
C7 0.0699(11) 0.0647(10) 0.0563(9) 0.0287(9) 0.0090(8) 0.0224(8)
C8 0.0461(8) 0.0630(10) 0.0674(10) 0.0083(7) 0.0009(7) 0.0183(8)
C9 0.0599(9) 0.0547(9) 0.0534(9) 0.0189(7) 0.0044(7) 0.0164(7)
C10 0.0569(9) 0.0563(9) 0.0656(10) 0.0122(7) 0.0124(8) 0.0150(8)
C11 0.0701(11) 0.0508(9) 0.0650(10) 0.0144(8) 0.0020(8) 0.0202(8)
C12 0.0572(9) 0.0568(9) 0.0590(10) 0.0048(7) 0.0064(7) 0.0035(8)
C13 0.0958(14) 0.0625(11) 0.0536(10) 0.0319(10) 0.0056(9) 0.0166(8)
C14 0.0702(11) 0.0680(11) 0.0564(10) 0.0200(9) 0.0082(8) 0.0199(8)
C15 0.0947(15) 0.0506(10) 0.0681(12) 0.0106(9) -0.0101(10) 0.0087(8)
C16 0.0731(13) 0.0633(11) 0.1002(16) 0.0064(9) -0.0008(11) 0.0335(11)
C17 0.0841(14) 0.0864(14) 0.0696(12) 0.0323(11) 0.0226(10) 0.0358(11)
C18 0.143(2) 0.0881(16) 0.0550(12) 0.0466(16) 0.0040(13) 0.0106(11)
C19 0.0809(14) 0.1076(17) 0.0727(13) 0.0328(12) 0.0223(11) 0.0397(12)
C1A 0.0721(13) 0.0839(14) 0.1025(16) 0.0211(11) 0.0253(12) 0.0501(13)
C20 0.110(2) 0.150(3) 0.0788(15) 0.0571(19) 0.0385(14) 0.0554(17)
C21 0.146(3) 0.137(2) 0.0569(13) 0.071(2) 0.0324(15) 0.0345(15)
loop_
_atom_type_symbol
_atom_type_scat_dispersion_real
_atom_type_scat_dispersion_imag
_atom_type_scat_Cromer_Mann_a1
_atom_type_scat_Cromer_Mann_a2
_atom_type_scat_Cromer_Mann_a3
_atom_type_scat_Cromer_Mann_a4
_atom_type_scat_Cromer_Mann_b1
_atom_type_scat_Cromer_Mann_b2
_atom_type_scat_Cromer_Mann_b3
_atom_type_scat_Cromer_Mann_b4
_atom_type_scat_Cromer_Mann_c
_atom_type_scat_source
_atom_type_scat_dispersion_source
H 0.00000 0.00000 0.49300 0.32291 0.14019 0.04081 10.51090 26.12570 3.14236
57.79970 0.0030380000826
'International Tables Volume C Table 6.1.1.4 (pp. 500-502)'
'Henke, Gullikson and Davis, At. Data and Nucl. Data Tables, 1993, 54, 2'
C 0.01920 0.00962 2.31000 1.02000 1.58860 0.86500 20.84390 10.20750 0.56870
51.65120 0.215599998832
'International Tables Volume C Table 6.1.1.4 (pp. 500-502)'
'Henke, Gullikson and Davis, At. Data and Nucl. Data Tables, 1993, 54, 2'
S 0.33537 0.55136 6.90530 5.20340 1.43790 1.58630 1.46790 22.21510 0.25360
56.17200 0.866900026798
'International Tables Volume C Table 6.1.1.4 (pp. 500-502)'
'Henke, Gullikson and Davis, At. Data and Nucl. Data Tables, 1993, 54, 2'
Cl 0.36843 0.69943 11.46040 7.19640 6.25560 1.64550 0.01040 1.16620 18.51940
47.77840 -9.55739974976
'International Tables Volume C Table 6.1.1.4 (pp. 500-502)'
'Henke, Gullikson and Davis, At. Data and Nucl. Data Tables, 1993, 54, 2'
loop_
_geom_angle_atom_site_label_1
_geom_angle_atom_site_label_2
_geom_angle_atom_site_label_3
_geom_angle
C9 S1 C3 102.16(7)
C4 C3 S1 123.66(13)
C6 C3 S1 117.62(12)
C6 C3 C4 118.72(16)
C8 C4 C3 120.31(15)
C11 C5 C9 119.26(15)
C14 C5 C9 122.97(16)
C14 C5 C11 117.77(16)
C12 C6 C3 121.16(16)
C13 C7 C9 118.31(17)
C19 C7 C9 123.40(18)
C19 C7 C13 118.28(17)
C10 C8 C4 119.99(16)
C5 C9 S1 119.55(12)
C7 C9 S1 118.95(14)
C7 C9 C5 121.50(16)
C8 C10 Cl1 119.30(14)
C12 C10 Cl1 120.18(14)
C12 C10 C8 120.52(17)
C15 C11 C5 118.85(17)
C16 C11 C5 118.96(17)
C16 C11 C15 122.16(18)
C10 C12 C6 119.30(16)
C15 C13 C7 119.91(17)
C18 C13 C7 118.1(2)
C18 C13 C15 121.9(2)
C17 C14 C5 121.07(19)
C13 C15 C11 122.13(18)
C1A C16 C11 120.4(2)
C1A C17 C14 120.74(19)
C21 C18 C13 120.9(2)
C20 C19 C7 120.8(2)
C17 C1A C16 121.00(19)
C21 C20 C19 121.2(3)
C20 C21 C18 120.6(2)
loop_
_geom_bond_atom_site_label_1
_geom_bond_atom_site_label_2
_geom_bond_distance
S1 C3 1.7703(17)
S1 C9 1.7760(17)
Cl1 C10 1.7396(18)
C3 C4 1.394(2)
C3 C6 1.391(2)
C4 C8 1.372(2)
C5 C9 1.408(2)
C5 C11 1.432(2)
C5 C14 1.430(2)
C6 C12 1.368(3)
C7 C9 1.410(2)
C7 C13 1.433(3)
C7 C19 1.424(3)
C8 C10 1.380(2)
C10 C12 1.385(2)
C11 C15 1.396(3)
C11 C16 1.432(3)
C13 C15 1.387(3)
C13 C18 1.443(3)
C14 C17 1.357(3)
C16 C1A 1.352(3)
C17 C1A 1.401(3)
C18 C21 1.346(4)
C19 C20 1.357(3)
C20 C21 1.399(4)
