#------------------------------------------------------------------------------
#$Date: 2020-11-06 14:51:20 +0200 (Fri, 06 Nov 2020) $
#$Revision: 258938 $
#$URL: file:///home/coder/svn-repositories/cod/cif/7/05/99/7059947.cif $
#------------------------------------------------------------------------------
#
# This file is available in the Crystallography Open Database (COD),
# http://www.crystallography.net/
#
# All data on this site have been placed in the public domain by the
# contributors.
#
data_7059947
loop_
_publ_author_name
'Peerzada, Mudasir Nabi'
'Khan, Parvez'
'Khan, Nashrah Sharif'
'Gaur, Aysha'
'Avecilla, Fernando'
'Hassan, Md. Imtaiyaz'
'Azam, Amir'
_publ_section_title
;
 Identification of morpholine based hydroxylamine analogues: selective
 inhibitors of MARK4/Par-1d causing cancer cell death through apoptosis
;
_journal_issue                   38
_journal_name_full               'New Journal of Chemistry'
_journal_page_first              16626
_journal_page_last               16637
_journal_paper_doi               10.1039/D0NJ03474F
_journal_volume                  44
_journal_year                    2020
_chemical_formula_moiety         'C12 H13 F3 N2 O2'
_chemical_formula_sum            'C12 H13 F3 N2 O2'
_chemical_formula_weight         274.24
_space_group_IT_number           2
_space_group_name_Hall           '-P 1'
_space_group_name_H-M_alt        'P -1'
_symmetry_cell_setting           triclinic
_symmetry_space_group_name_Hall  '-P 1'
_symmetry_space_group_name_H-M   'P -1'
_atom_sites_solution_hydrogens   geom
_atom_sites_solution_primary     direct
_atom_sites_solution_secondary   difmap
_audit_creation_method           SHELXL-97
_audit_update_record
;
2020-08-06 deposited with the CCDC.	2020-08-27 downloaded from the CCDC.
;
_cell_angle_alpha                84.670(4)
_cell_angle_beta                 68.742(4)
_cell_angle_gamma                82.721(4)
_cell_formula_units_Z            2
_cell_length_a                   7.2135(9)
_cell_length_b                   9.5319(10)
_cell_length_c                   9.6366(11)
_cell_measurement_reflns_used    19936
_cell_measurement_temperature    100(2)
_cell_measurement_theta_max      52.762
_cell_measurement_theta_min      7.987
_cell_volume                     611.74(12)
_computing_cell_refinement       'Bruker SAINT'
_computing_data_collection       'Bruker APEX2'
_computing_data_reduction        'Bruker SAINT'
_computing_molecular_graphics    'Bruker SHELXTL'
_computing_publication_material  'Bruker SHELXTL'
_computing_structure_refinement  'SHELXL-2014 (Sheldrick 2014)'
_computing_structure_solution    'SHELXS-97 (Sheldrick 2008)'
_diffrn_ambient_temperature      100(2)
_diffrn_measured_fraction_theta_full 0.999
_diffrn_measured_fraction_theta_max 0.999
_diffrn_measurement_device_type  'CCD area detector'
_diffrn_measurement_method       'phi and omega scans'
_diffrn_radiation_monochromator  graphite
_diffrn_radiation_source         'fine-focus sealed tube'
_diffrn_radiation_type           MoK\a
_diffrn_radiation_wavelength     0.71073
_diffrn_reflns_av_R_equivalents  0.0482
_diffrn_reflns_av_unetI/netI     0.0334
_diffrn_reflns_limit_h_max       9
_diffrn_reflns_limit_h_min       -9
_diffrn_reflns_limit_k_max       12
_diffrn_reflns_limit_k_min       -12
_diffrn_reflns_limit_l_max       12
_diffrn_reflns_limit_l_min       -12
_diffrn_reflns_number            19936
_diffrn_reflns_theta_full        28.34
_diffrn_reflns_theta_max         28.34
_diffrn_reflns_theta_min         3.05
_exptl_absorpt_coefficient_mu    0.132
_exptl_absorpt_correction_T_max  0.995
_exptl_absorpt_correction_T_min  0.975
_exptl_absorpt_correction_type   multi-scan
_exptl_absorpt_process_details   SADABS
_exptl_crystal_colour            colourless
_exptl_crystal_density_diffrn    1.489
_exptl_crystal_density_method    'not measured'
_exptl_crystal_description       prism
_exptl_crystal_F_000             284
_exptl_crystal_size_max          0.200
_exptl_crystal_size_mid          0.170
_exptl_crystal_size_min          0.050
_refine_diff_density_max         0.352
_refine_diff_density_min         -0.241
_refine_diff_density_rms         0.052
_refine_ls_extinction_method     none
_refine_ls_goodness_of_fit_ref   1.038
_refine_ls_hydrogen_treatment    mixed
_refine_ls_matrix_type           full
_refine_ls_number_parameters     224
_refine_ls_number_reflns         3037
_refine_ls_number_restraints     0
_refine_ls_restrained_S_all      1.038
_refine_ls_R_factor_all          0.0663
_refine_ls_R_factor_gt           0.0435
_refine_ls_shift/su_max          0.000
_refine_ls_shift/su_mean         0.000
_refine_ls_structure_factor_coef Fsqd
_refine_ls_weighting_details
'calc w=1/[\s^2^(Fo^2^)+(0.0309P)^2^+0.3911P] where P=(Fo^2^+2Fc^2^)/3'
_refine_ls_weighting_scheme      calc
_refine_ls_wR_factor_gt          0.0868
_refine_ls_wR_factor_ref         0.0976
_reflns_number_gt                2320
_reflns_number_total             3037
_reflns_threshold_expression     >2sigma(I)
_cod_data_source_file            d0nj03474f2.cif
_cod_data_source_block           compoundC32
_cod_depositor_comments
;
The following automatic conversions were performed:

data item '_symmetry_cell_setting' value 'Triclinic' was changed to
'triclinic' in accordance with the
/home/data/users/saulius/crontab/automatic-downloads/rss-feeds/RSC/lib/dictionaries/cif_core.dic
dictionary named 'cif_core.dic' version 2.4.2 last updated on
2011-04-26.

Automatic conversion script
Id: cif_fix_values 7556 2019-12-06 15:28:31Z antanas 

 Adding full bibliography for 7059945--7059947.cif.
;
_cod_original_sg_symbol_Hall     -P1
_cod_original_sg_symbol_H-M      P-1
_cod_database_code               7059947
_shelx_res_file
; 
TITL C32 in P-1
CELL 0.71073   7.2135   9.5319   9.6366  84.670  68.742  82.721
ZERR    2.00   0.0009   0.0010   0.0011   0.004   0.004   0.004
LATT  1
SFAC C H N O F
UNIT 24 26 4 4 6
TEMP -173.150
 
L.S. 30
BOND
FMAP 2
PLAN -10
ACTA
CONF
WPDB -1
BOND $H
OMIT 0 0 1
HTAB O1   N1_$1
EQIV $1 [ -x, -y+1, -z ]
HTAB O1   O1_$2
EQIV $2 [ -x, -y+1, -z ]
 
WGHT    0.030900    0.391100
FVAR       0.34586
O1    4    0.182988    0.575345   -0.122266    11.00000    0.02523    0.03158 =
         0.01359   -0.00266   -0.00744   -0.00762
H1O   2    0.084502    0.514485   -0.117754    11.00000    0.05865
F1    5   -0.221700    0.801620    0.277459    11.00000    0.02316    0.03954 =
         0.04503    0.00223   -0.01762   -0.00548
N1    3    0.132859    0.585645    0.033696    11.00000    0.02249    0.02444 =
         0.01200   -0.00192   -0.00712   -0.00335
C1    1    0.246991    0.659386    0.066744    11.00000    0.01765    0.01924 =
         0.01583   -0.00115   -0.00735   -0.00001
O2    4    0.698155    0.904778   -0.217836    11.00000    0.02299    0.02518 =
         0.02287    0.00115   -0.00617   -0.00513
F2    5   -0.133633    0.970471    0.365205    11.00000    0.03505    0.03195 =
         0.02935   -0.01170   -0.00852    0.00824
N2    3    0.403942    0.728301   -0.033619    11.00000    0.01959    0.02181 =
         0.01688   -0.00001   -0.00801   -0.00351
C2    1    0.209713    0.655879    0.230928    11.00000    0.01862    0.02058 =
         0.01769   -0.00129   -0.00783   -0.00478
F3    5    0.023673    0.915430    0.137987    11.00000    0.02802    0.02941 =
         0.02213    0.00213   -0.00660    0.00306
C3    1    0.076837    0.754941    0.327377    11.00000    0.01823    0.02319 =
         0.01751   -0.00066   -0.00593   -0.00570
C4    1    0.057374    0.748942    0.477050    11.00000    0.02283    0.03183 =
         0.01867   -0.00490   -0.00564   -0.00572
H4    2   -0.032987    0.819317    0.542932    11.00000    0.02889
C5    1    0.164985    0.642361    0.531941    11.00000    0.02978    0.04012 =
         0.01665   -0.00091   -0.01063   -0.00888
H5    2    0.151934    0.640407    0.635429    11.00000    0.03507
C6    1    0.289821    0.540519    0.439085    11.00000    0.02683    0.03172 =
         0.02260    0.00343   -0.01400   -0.00544
H6    2    0.361329    0.463190    0.475756    11.00000    0.02637
C7    1    0.314695    0.548419    0.288646    11.00000    0.02129    0.02447 =
         0.02096   -0.00033   -0.00863   -0.00353
H7    2    0.407022    0.480222    0.224018    11.00000    0.02747
C8    1    0.549715    0.776513    0.021118    11.00000    0.02102    0.02558 =
         0.02208   -0.00050   -0.00973   -0.00618
H8B   2    0.495394    0.864735    0.073347    11.00000    0.02476
H8A   2    0.586477    0.700558    0.086748    11.00000    0.02601
C9    1    0.736831    0.801840   -0.111701    11.00000    0.02215    0.02508 =
         0.02536    0.00001   -0.00909   -0.00424
H9B   2    0.796868    0.711454   -0.161369    11.00000    0.02232
H9A   2    0.833464    0.839998   -0.077663    11.00000    0.02743
C10   1    0.556791    0.857805   -0.271545    11.00000    0.02370    0.02661 =
         0.02066    0.00137   -0.00734   -0.00419
H10B  2    0.527611    0.934479   -0.336114    11.00000    0.02190
H10A  2    0.617054    0.765422   -0.325144    11.00000    0.02547
C11   1    0.362939    0.831899   -0.145122    11.00000    0.02281    0.02418 =
         0.01964    0.00199   -0.00852   -0.00347
H11B  2    0.270838    0.793294   -0.184343    11.00000    0.02823
H11A  2    0.298805    0.923204   -0.094093    11.00000    0.02863
C12   1   -0.060634    0.860498    0.276918    11.00000    0.02149    0.02549 =
         0.02123   -0.00292   -0.00557   -0.00271
HKLF 4
 
REM  C32 in P-1
REM R1 =  0.0435 for   2320 Fo > 4sig(Fo)  and  0.0663 for all   3037 data
REM    224 parameters refined using      0 restraints
 
END  
     
WGHT      0.0309      0.3913 
REM Highest difference peak  0.352,  deepest hole -0.241,  1-sigma level  0.052
Q1    1   0.0172  0.8077  0.3006  11.00000  0.05    0.35
Q2    1   0.0537  0.7479  0.3989  11.00000  0.05    0.25
Q3    1   0.2220  0.6575  0.1545  11.00000  0.05    0.23
Q4    1   0.4543  0.8628 -0.1997  11.00000  0.05    0.23
Q5    1   0.1569  0.7224  0.2732  11.00000  0.05    0.22
Q6    1   0.3142  0.7255  0.0260  11.00000  0.05    0.20
Q7    1   0.0944  0.7044  0.2976  11.00000  0.05    0.19
Q8    1   0.6482  0.7953 -0.0382  11.00000  0.05    0.18
Q9    1   0.2548  0.5999  0.2642  11.00000  0.05    0.18
Q10   1   0.0290  1.0819  0.0750  11.00000  0.05    0.18
;
_shelx_fcf_file
; 
# 
# h,k,l, Fc-squared, Fo-squared, sigma(Fo-squared) and status flag 
# 
data_c32 
_shelx_title ' C32 in P-1' 
_shelx_refln_list_code          4 
_shelx_F_calc_maximum       94.21 
_exptl_crystal_F_000       284.00 
_reflns_d_resolution_high  0.7487 
 
loop_ 
 _symmetry_equiv_pos_as_xyz 
 'x, y, z' 
 '-x, -y, -z' 
 
_cell_length_a     7.2135 
_cell_length_b     9.5319 
_cell_length_c     9.6366 
_cell_angle_alpha  84.670 
_cell_angle_beta   68.742 
_cell_angle_gamma  82.721 
 
_shelx_F_squared_multiplier     1.000 
 
loop_ 
 _refln_index_h 
 _refln_index_k 
 _refln_index_l 
 _refln_F_squared_calc 
 _refln_F_squared_meas 
 _refln_F_squared_sigma 
 _refln_observed_status 
   1   0   0      853.57      829.04      5.53 o 
   2   0   0      782.62      787.91      6.00 o 
   3   0   0       29.35       31.90      1.08 o 
   4   0   0       19.56       23.00      1.39 o 
   5   0   0       12.93       13.94      1.33 o 
   6   0   0       12.44       10.58      1.94 o 
   7   0   0        7.78        9.42      1.99 o 
   8   0   0       31.87       29.44      4.22 o 
  -8   1   0        1.70        0.30      3.31 o 
  -7   1   0        4.25        2.75      1.93 o 
  -6   1   0      147.81      149.57      4.54 o 
  -5   1   0       47.71       49.31      2.03 o 
  -4   1   0        0.64        2.30      0.62 o 
  -3   1   0        0.00       -0.03      0.44 o 
  -2   1   0      283.57      261.08      2.99 o 
  -1   1   0      112.44      110.07      1.76 o 
   1   1   0      559.69      546.72      4.70 o 
   2   1   0     2714.84     2712.09     17.79 o 
   3   1   0     1011.20     1045.37      8.51 o 
   4   1   0      163.62      160.89      3.17 o 
   5   1   0      150.89      138.71      3.79 o 
   6   1   0       59.72       57.96      3.41 o 
   7   1   0        0.64       -2.28      2.28 o 
   8   1   0       27.12       25.41      3.49 o 
  -8   2   0        2.49        2.87      5.35 o 
  -7   2   0      151.89      155.07      5.40 o 
  -6   2   0       74.87       74.82      3.04 o 
  -5   2   0       54.73       48.55      2.33 o 
  -4   2   0      471.90      456.28      5.88 o 
  -3   2   0      131.39      131.44      2.94 o 
  -2   2   0      178.02      154.05      2.69 o 
  -1   2   0     8874.60     8073.19     59.77 o 
   0   2   0      524.80      465.62      3.40 o 
   1   2   0     4338.43     4198.70     27.46 o 
   2   2   0     1109.55     1122.23      9.31 o 
   3   2   0      270.73      287.26      3.56 o 
   4   2   0       22.40       24.67      1.72 o 
   5   2   0      262.76      274.92      5.12 o 
   6   2   0      696.46      704.47      9.79 o 
   7   2   0       69.46       73.15      4.42 o 
   8   2   0        0.38       -0.36      4.59 o 
  -8   3   0       18.90       26.07      5.24 o 
  -7   3   0        6.90       11.89      2.52 o 
  -6   3   0        3.24        3.32      2.01 o 
  -5   3   0       28.53       29.24      2.03 o 
  -4   3   0        9.44       11.03      1.21 o 
  -3   3   0        0.03        0.02      0.64 o 
  -2   3   0      183.59      171.49      3.16 o 
  -1   3   0        0.94        0.86      0.32 o 
   0   3   0      640.19      566.73      4.01 o 
   1   3   0     1671.39     1635.11      8.50 o 
   2   3   0      109.78      105.10      1.76 o 
   3   3   0     1743.88     1804.26     12.39 o 
   4   3   0      649.74      654.90      6.32 o 
   5   3   0        4.68        3.66      1.19 o 
   6   3   0        9.06        4.69      1.85 o 
   7   3   0       51.05       50.91      5.57 o 
   8   3   0       21.82        7.74      3.05 o 
  -8   4   0        1.57        5.91      3.58 o 
  -7   4   0        8.20        6.16      3.02 o 
  -6   4   0      283.29      296.43      8.12 o 
  -5   4   0      635.31      657.19     11.85 o 
  -4   4   0        1.50       -0.46      1.17 o 
  -3   4   0       21.86       23.38      1.63 o 
  -2   4   0       71.67       74.44      2.03 o 
  -1   4   0        0.35        0.46      0.37 o 
   0   4   0       26.02       25.76      0.86 o 
   1   4   0      115.14      111.78      1.72 o 
   2   4   0       53.30       60.20      1.29 o 
   3   4   0        6.40        7.32      0.64 o 
   4   4   0      319.43      347.84      4.57 o 
   5   4   0      364.52      363.54      5.73 o 
   6   4   0        8.20        9.03      1.56 o 
   7   4   0       29.40       24.16      3.24 o 
   8   4   0        8.40        6.59      2.69 o 
  -7   5   0       39.89       30.82      4.32 o 
  -6   5   0        2.26        4.06      2.04 o 
  -5   5   0       64.23       53.60      3.74 o 
  -4   5   0      352.94      361.66      6.64 o 
  -3   5   0     1118.13     1096.58     10.09 o 
  -2   5   0      190.68      182.18      3.06 o 
  -1   5   0       12.42       12.37      0.63 o 
   0   5   0       92.02       96.15      1.80 o 
   1   5   0       78.32       77.31      1.51 o 
   2   5   0      252.87      247.54      3.06 o 
   3   5   0      141.66      131.93      2.65 o 
   4   5   0       84.83       85.32      2.73 o 
   5   5   0      145.52      150.03      3.42 o 
   6   5   0        0.01        6.06      2.14 o 
   7   5   0        4.24       11.71      2.76 o 
   8   5   0       58.26       57.89      7.86 o 
  -7   6   0       36.06       38.35      5.09 o 
  -6   6   0       45.09       44.66      5.03 o 
  -5   6   0        4.48        3.00      1.61 o 
  -4   6   0        0.26        0.09      1.02 o 
  -3   6   0      134.78      139.10      3.36 o 
  -2   6   0      208.50      202.72      3.33 o 
  -1   6   0       16.34       17.06      1.04 o 
   0   6   0      140.33      131.28      2.35 o 
   1   6   0      583.81      580.79      5.01 o 
   2   6   0      117.01      120.30      2.23 o 
   3   6   0        5.76        7.81      1.20 o 
   4   6   0       23.84       25.36      1.74 o 
   5   6   0       13.04       11.59      1.49 o 
   6   6   0        0.12        1.16      1.17 o 
   7   6   0        5.78        6.47      1.98 o 
   8   6   0       23.77       25.81      5.14 o 
  -6   7   0       10.47        1.74      3.43 o 
  -5   7   0        0.76        1.35      2.07 o 
  -4   7   0      270.85      284.46      7.14 o 
  -3   7   0       82.49       76.10      2.65 o 
  -2   7   0      574.95      585.83     10.26 o 
  -1   7   0        7.75        6.72      0.84 o 
   0   7   0       11.97       13.10      0.91 o 
   1   7   0       20.27       19.65      1.11 o 
   2   7   0      138.84      134.99      2.52 o 
   3   7   0      225.28      227.12      3.96 o 
   4   7   0      132.74      124.28      4.29 o 
   5   7   0       22.97       22.92      2.41 o 
   6   7   0        9.85        6.45      1.82 o 
   7   7   0       24.41       28.09      5.50 o 
  -6   8   0        9.06        9.92      3.11 o 
  -5   8   0        3.32       -0.05      3.00 o 
  -4   8   0        1.79        3.32      1.60 o 
  -3   8   0        4.85        6.51      2.01 o 
  -2   8   0      498.46      528.65      8.65 o 
  -1   8   0        7.68        7.09      1.32 o 
   0   8   0       19.91       19.21      1.50 o 
   1   8   0        0.21        0.33      1.04 o 
   2   8   0       18.51       19.02      1.31 o 
   3   8   0        1.05        0.75      0.82 o 
   4   8   0       83.74       83.45      3.57 o 
   5   8   0       45.91       37.65      3.24 o 
   6   8   0       48.14       45.88      4.72 o 
   7   8   0       16.03        5.01      5.15 o 
  -5   9   0       49.80       53.64      4.96 o 
  -4   9   0       13.52       11.29      1.89 o 
  -3   9   0       83.51       81.75      4.40 o 
  -2   9   0        4.45        3.36      2.07 o 
  -1   9   0       20.36       20.20      2.19 o 
   0   9   0       77.31       78.84      3.94 o 
   1   9   0       66.08       63.41      3.22 o 
   2   9   0      197.93      204.30      4.60 o 
   3   9   0      157.32      163.20      3.92 o 
   4   9   0      191.08      197.41      7.01 o 
   5   9   0        1.73        1.56      2.02 o 
   6   9   0        3.68        6.05      3.59 o 
  -4  10   0        7.22       12.17      3.70 o 
  -3  10   0       71.29       81.82      5.35 o 
  -2  10   0       37.48       36.35      3.32 o 
  -1  10   0        0.21       -1.29      1.65 o 
   0  10   0       50.14       41.29      3.17 o 
   1  10   0        3.17        1.52      1.45 o 
   2  10   0        9.42        8.67      1.63 o 
   3  10   0       73.59       75.70      4.66 o 
   4  10   0        3.97        3.88      2.44 o 
   5  10   0        2.63        3.77      3.02 o 
   6  10   0        6.33        4.06      5.43 o 
  -3  11   0       43.20       33.67      4.64 o 
  -2  11   0        0.19        2.13      2.32 o 
  -1  11   0      104.00      104.11      4.76 o 
   0  11   0       16.41       16.91      2.26 o 
   1  11   0      229.24      261.06      6.90 o 
   2  11   0      149.28      163.54      5.93 o 
   3  11   0      107.22      115.27      4.97 o 
   4  11   0        7.77       20.97      5.20 o 
   5  11   0        2.96       -0.90      4.31 o 
  -2  12   0       12.96        8.92      6.05 o 
  -1  12   0        7.43        2.08      4.77 o 
   0  12   0       20.82       18.77      3.61 o 
   1  12   0       48.06       43.17      4.20 o 
   2  12   0        0.26        4.63      3.48 o 
   3  12   0       19.63       18.49      5.34 o 
  -3 -12   1       28.56       39.02      6.85 o 
  -2 -12   1        0.05       -2.53      2.81 o 
  -1 -12   1       27.63       20.98      3.48 o 
   0 -12   1       22.36       18.28      3.44 o 
   1 -12   1        0.49        6.05      3.38 o 
  -4 -11   1      110.33      124.84      9.25 o 
  -3 -11   1       66.50       75.83      5.04 o 
  -2 -11   1       32.50       31.59      3.33 o 
  -1 -11   1        4.83        4.85      2.12 o 
   0 -11   1        0.41        0.67      2.30 o 
   1 -11   1        4.18        2.34      2.15 o 
   2 -11   1        2.91        5.54      2.51 o 
   3 -11   1       18.09       10.79      3.37 o 
  -5 -10   1       55.32       43.67      8.35 o 
  -4 -10   1       45.89       34.35      4.12 o 
  -3 -10   1        9.44        8.23      2.23 o 
  -2 -10   1       88.13       86.08      3.32 o 
  -1 -10   1       29.33       28.18      2.40 o 
   0 -10   1       17.15       18.31      3.65 o 
   1 -10   1       12.34       12.54      2.71 o 
   2 -10   1       18.32       20.38      2.61 o 
   3 -10   1       16.04       19.71      4.21 o 
   4 -10   1        0.75       -2.24      2.34 o 
  -6  -9   1        0.52        7.56      3.85 o 
  -5  -9   1       43.67       45.53      5.75 o 
  -4  -9   1      107.62      111.66      6.68 o 
  -3  -9   1      119.21      121.54      3.48 o 
  -2  -9   1       28.48       30.35      2.84 o 
  -1  -9   1        3.87        1.67      1.14 o 
   0  -9   1       48.84       40.96      2.82 o 
   1  -9   1       41.15       37.11      2.57 o 
   2  -9   1      191.00      201.42      6.60 o 
   3  -9   1        0.22        3.69      2.21 o 
   4  -9   1       25.45       24.09      2.48 o 
   5  -9   1       27.35       30.49      5.25 o 
  -7  -8   1        0.93       -3.97      4.81 o 
  -6  -8   1        9.67        9.38      2.82 o 
  -5  -8   1       18.75       24.05      3.82 o 
  -4  -8   1       20.90       23.53      2.40 o 
  -3  -8   1       68.45       67.07      2.41 o 
  -2  -8   1        1.02        0.06      0.84 o 
  -1  -8   1        8.12        9.59      1.21 o 
   0  -8   1        3.13        3.89      1.00 o 
   1  -8   1      490.80      517.83      7.43 o 
   2  -8   1        1.92        2.72      2.35 o 
   3  -8   1       29.53       25.81      2.44 o 
   4  -8   1      177.28      199.49      6.60 o 
   5  -8   1      140.12      156.65      5.40 o 
   6  -8   1        9.49        6.35      3.11 o 
  -7  -7   1        9.63        3.16      5.21 o 
  -6  -7   1        0.82        3.42      1.98 o 
  -5  -7   1       42.98       38.93      3.32 o 
  -4  -7   1      283.09      278.90      6.22 o 
  -3  -7   1        4.69        3.21      0.94 o 
  -2  -7   1      113.11      117.09      2.72 o 
  -1  -7   1        0.17        0.26      0.52 o 
   0  -7   1       53.23       56.01      1.81 o 
   1  -7   1       67.02       63.90      2.08 o 
   2  -7   1      114.12      115.83      3.05 o 
   3  -7   1       25.90       21.84      1.72 o 
   4  -7   1       44.31       40.82      2.96 o 
   5  -7   1       29.31       26.47      2.61 o 
   6  -7   1       13.54       12.51      3.03 o 
   7  -7   1        7.79        8.44      2.59 o 
  -7  -6   1       68.58       90.75      8.07 o 
  -6  -6   1       34.55       35.85      3.68 o 
  -5  -6   1      149.76      144.20      5.17 o 
  -4  -6   1       12.80       10.94      1.39 o 
  -3  -6   1       30.82       27.44      1.85 o 
  -2  -6   1       11.19        9.23      0.79 o 
  -1  -6   1       81.03       74.89      1.78 o 
   0  -6   1      470.43      444.07      5.01 o 
   1  -6   1        0.00       -0.61      0.61 o 
   2  -6   1        4.40        4.50      0.86 o 
   3  -6   1      891.08      901.34     10.75 o 
   4  -6   1      188.08      192.56      4.73 o 
   5  -6   1       43.35       45.57      3.88 o 
   6  -6   1        4.98        2.14      2.73 o 
   7  -6   1       20.82       19.51      4.13 o 
  -8  -5   1       27.70       25.28      6.09 o 
  -7  -5   1       60.12       67.63      5.88 o 
  -6  -5   1        9.81        5.98      2.33 o 
  -5  -5   1       79.82       79.29      3.89 o 
  -4  -5   1       18.68       19.57      1.64 o 
  -3  -5   1        6.09        7.82      0.99 o 
  -2  -5   1       41.43       41.37      1.11 o 
  -1  -5   1      590.21      582.99      5.70 o 
   0  -5   1      127.20      130.97      2.28 o 
   1  -5   1      255.67      252.14      3.80 o 
   2  -5   1      435.50      424.46      5.17 o 
   3  -5   1      464.42      445.71      6.11 o 
   4  -5   1      176.05      167.33      4.32 o 
   5  -5   1      181.91      193.39      5.78 o 
   6  -5   1        0.01       -2.13      2.13 o 
   7  -5   1        0.19        1.18      2.47 o 
   8  -5   1       24.73       11.69      5.72 o 
  -8  -4   1       10.58       10.38      3.77 o 
  -7  -4   1        0.01       -1.53      1.53 o 
  -6  -4   1        1.04        4.03      1.28 o 
  -5  -4   1       58.64       60.94      2.38 o 
  -4  -4   1      236.81      240.97      4.59 o 
  -3  -4   1       16.74       18.87      1.43 o 
  -2  -4   1      166.00      152.10      2.03 o 
  -1  -4   1     1283.92     1216.56      7.51 o 
   0  -4   1      513.93      483.42      4.17 o 
   1  -4   1      616.46      634.62      6.12 o 
   2  -4   1        0.02       -0.50      0.50 o 
   3  -4   1        7.85        8.66      1.12 o 
   4  -4   1      167.44      168.45      4.34 o 
   5  -4   1      133.48      132.97      4.96 o 
   6  -4   1       11.15        7.85      2.19 o 
   7  -4   1       11.62       11.85      2.80 o 
   8  -4   1       57.12       55.06      6.64 o 
  -8  -3   1      133.79      140.59      7.92 o 
  -7  -3   1        5.05        5.61      2.36 o 
  -6  -3   1       44.63       42.64      4.06 o 
  -5  -3   1       81.38       88.43      3.70 o 
  -4  -3   1       27.26       27.94      1.56 o 
  -3  -3   1        5.39        4.08      0.62 o 
  -2  -3   1      379.49      397.00      4.17 o 
  -1  -3   1       10.90       13.79      0.63 o 
   0  -3   1       14.16       10.40      0.63 o 
   1  -3   1     1215.49     1100.34      9.63 o 
   2  -3   1     2555.84     2439.77     16.42 o 
   3  -3   1        3.65        5.23      0.83 o 
   4  -3   1      143.69      147.89      3.86 o 
   5  -3   1       84.61       83.07      2.70 o 
   6  -3   1      522.61      536.18      8.70 o 
   7  -3   1       54.73       57.16      3.60 o 
   8  -3   1        2.07        4.84      3.09 o 
  -8  -2   1        5.52        1.18      3.47 o 
  -7  -2   1       19.48       19.79      4.73 o 
  -6  -2   1       63.22       58.94      3.21 o 
  -5  -2   1       65.87       65.59      2.64 o 
  -4  -2   1      146.63      149.03      2.88 o 
  -3  -2   1       50.46       49.10      1.64 o 
  -2  -2   1     1205.18     1252.29     11.09 o 
  -1  -2   1        8.52        5.17      0.45 o 
   0  -2   1       54.11       43.37      1.02 o 
   1  -2   1        2.25        3.27      0.58 o 
   2  -2   1      383.14      380.49      4.64 o 
   3  -2   1      153.35      153.19      2.67 o 
   4  -2   1       98.18       91.40      2.46 o 
   5  -2   1       75.35       64.68      2.33 o 
   6  -2   1        8.06        8.45      1.57 o 
   7  -2   1      111.30      105.55      4.33 o 
   8  -2   1       26.28       27.46      3.61 o 
  -8  -1   1       10.92       12.86      3.62 o 
  -7  -1   1       58.06       55.02      3.55 o 
  -6  -1   1      135.76      134.01      4.94 o 
  -5  -1   1       32.25       33.56      1.88 o 
  -4  -1   1       32.11       41.79      1.76 o 
  -3  -1   1      873.48      895.87      7.95 o 
  -2  -1   1      197.51      211.16      4.61 o 
  -1  -1   1     3553.07     3318.18     25.66 o 
   0  -1   1      352.08      337.90      2.65 o 
   1  -1   1     2149.63     2038.42     15.01 o 
   2  -1   1      239.75      244.35      2.87 o 
   3  -1   1      998.71      952.52      7.61 o 
   4  -1   1      108.98      105.71      2.49 o 
   5  -1   1       20.11       21.83      1.50 o 
   6  -1   1        2.67        3.86      1.21 o 
   7  -1   1      118.81      124.21      4.61 o 
   8  -1   1       32.10       32.25      3.59 o 
   9  -1   1       22.90       12.20      4.03 o 
  -8   0   1       48.78       49.32      5.12 o 
  -7   0   1       54.03       54.24      3.91 o 
  -6   0   1      101.72       96.55      4.13 o 
  -5   0   1      465.86      469.36      6.77 o 
  -4   0   1      522.21      518.42      6.18 o 
  -3   0   1       20.86       25.00      1.29 o 
  -2   0   1      662.60      606.42      9.61 o 
  -1   0   1      221.38      204.95      2.38 o 
   1   0   1     1634.01     1591.67     10.19 o 
   2   0   1      647.16      608.80      5.18 o 
   3   0   1       24.06       24.64      0.95 o 
   4   0   1      203.14      208.11      3.24 o 
   5   0   1        0.37        0.84      0.83 o 
   6   0   1       52.18       52.82      3.00 o 
   7   0   1        1.06        3.56      1.62 o 
   8   0   1       13.88       15.65      2.61 o 
   9   0   1       34.01       27.81      4.02 o 
  -8   1   1        1.75       -2.62      2.62 o 
  -7   1   1        4.64        3.20      1.78 o 
  -6   1   1       57.66       55.48      3.14 o 
  -5   1   1      137.92      125.82      3.56 o 
  -4   1   1      571.08      581.81      6.47 o 
  -3   1   1      351.59      354.85      4.24 o 
  -2   1   1       40.62       40.85      1.46 o 
  -1   1   1       18.42       17.95      0.82 o 
   0   1   1      223.28      204.25      1.67 o 
   1   1   1     2371.58     2298.62     12.98 o 
   2   1   1       14.08       13.14      0.70 o 
   3   1   1      482.51      476.09      5.05 o 
   4   1   1      359.17      361.07      4.81 o 
   5   1   1       79.72       77.17      2.25 o 
   6   1   1       12.84       12.06      1.48 o 
   7   1   1      378.59      393.82     10.44 o 
   8   1   1       46.70       50.56      7.06 o 
   9   1   1        9.95       12.40      3.93 o 
  -8   2   1        8.44        3.22      5.04 o 
  -7   2   1       99.98      113.50      5.08 o 
  -6   2   1       13.71       15.10      2.28 o 
  -5   2   1      155.76      151.46      3.64 o 
  -4   2   1        1.19        0.90      0.70 o 
  -3   2   1      529.46      513.03      6.06 o 
  -2   2   1       64.55       67.06      1.82 o 
  -1   2   1     7682.54     7172.17     39.30 o 
   0   2   1      740.50      696.87      4.28 o 
   1   2   1     5336.03     4989.48     26.10 o 
   2   2   1     3545.48     3514.37     17.16 o 
   3   2   1       42.16       40.21      1.20 o 
   4   2   1       33.84       32.87      1.35 o 
   5   2   1       63.58       61.85      2.07 o 
   6   2   1       47.28       47.58      2.53 o 
   7   2   1       83.65       81.87      5.59 o 
   8   2   1        2.56        2.89      2.29 o 
   9   2   1       15.38       16.33      4.51 o 
  -8   3   1        0.00        3.37      5.40 o 
  -7   3   1        8.71        8.80      2.67 o 
  -6   3   1      103.12       99.35      3.75 o 
  -5   3   1        4.77        5.04      1.23 o 
  -4   3   1       14.80       16.89      1.38 o 
  -3   3   1        3.38        3.47      0.75 o 
  -2   3   1      117.41      134.21      2.96 o 
  -1   3   1       17.88       20.21      0.82 o 
   0   3   1      123.98      120.33      1.40 o 
   1   3   1      179.00      166.88      2.23 o 
   2   3   1     1024.82     1031.86      7.02 o 
   3   3   1     2425.60     2467.19     16.38 o 
   4   3   1      171.49      189.63      3.54 o 
   5   3   1        1.63        2.77      0.98 o 
   6   3   1      418.78      420.27      6.63 o 
   7   3   1       77.04       62.45      3.31 o 
   8   3   1       90.04       96.77      4.49 o 
   9   3   1       14.97       17.74      3.97 o 
  -7   4   1       17.58       19.21      2.75 o 
  -6   4   1       52.28       48.76      4.69 o 
  -5   4   1        6.78        4.31      1.41 o 
  -4   4   1        0.01        0.37      0.68 o 
  -3   4   1        4.25        2.12      0.73 o 
  -2   4   1      544.25      539.44      5.31 o 
  -1   4   1      571.64      586.52      4.52 o 
   0   4   1      110.04      111.65      1.51 o 
   1   4   1        0.45       -0.13      0.36 o 
   2   4   1        1.95        0.60      0.41 o 
   3   4   1      448.91      464.06      5.42 o 
   4   4   1       80.16       91.76      2.10 o 
   5   4   1      954.93      971.51     11.08 o 
   6   4   1       66.26       69.44      3.66 o 
   7   4   1        2.62       -0.33      1.76 o 
   8   4   1       26.80       25.88      4.15 o 
   9   4   1        2.31        3.25      3.05 o 
  -7   5   1        2.39       -0.72      3.50 o 
  -6   5   1        2.01        1.69      1.70 o 
  -5   5   1        0.72        2.00      1.70 o 
  -4   5   1       17.43       17.15      1.63 o 
  -3   5   1        0.48        2.18      0.73 o 
  -2   5   1      108.60       99.51      1.93 o 
  -1   5   1      759.59      714.78      8.56 o 
   0   5   1       98.45      103.81      1.68 o 
   1   5   1      386.78      364.01      4.69 o 
   2   5   1      238.36      242.79      2.64 o 
   3   5   1       15.46       13.09      0.99 o 
   4   5   1      636.59      640.92      6.81 o 
   5   5   1      643.68      644.88      7.72 o 
   6   5   1       30.18       34.38      2.27 o 
   7   5   1      108.76      110.98      4.80 o 
   8   5   1        6.44        6.94      2.47 o 
  -7   6   1       42.76       50.69      6.03 o 
  -6   6   1       16.66       15.41      3.35 o 
  -5   6   1       25.55       24.04      2.34 o 
  -4   6   1      213.98      206.74      4.88 o 
  -3   6   1       46.02       52.13      2.60 o 
  -2   6   1      151.53      148.92      2.48 o 
  -1   6   1      111.98      108.35      2.33 o 
   0   6   1        6.28        4.78      0.64 o 
   1   6   1       12.40       12.60      0.93 o 
   2   6   1        5.30        5.93      0.56 o 
   3   6   1        2.05        2.72      0.64 o 
   4   6   1      908.31      929.24      9.98 o 
   5   6   1        2.21        5.13      1.37 o 
   6   6   1      114.16      116.11      5.62 o 
   7   6   1       81.29       72.20      4.70 o 
   8   6   1        1.86        3.92      2.90 o 
  -6   7   1        2.22        3.13      3.30 o 
  -5   7   1        1.10        2.82      2.13 o 
  -4   7   1      178.38      186.83      5.11 o 
  -3   7   1      197.63      216.67      4.36 o 
  -2   7   1      576.08      594.40      8.50 o 
  -1   7   1       95.06       88.06      2.27 o 
   0   7   1       91.01       85.48      1.91 o 
   1   7   1       22.28       22.71      1.42 o 
   2   7   1       71.15       68.57      1.98 o 
   3   7   1       50.67       48.67      1.60 o 
   4   7   1        7.74        4.17      1.09 o 
   5   7   1       41.65       41.10      2.63 o 
   6   7   1      248.66      239.45      8.00 o 
   7   7   1       13.99       10.07      5.60 o 
   8   7   1       19.99       10.11      5.29 o 
  -6   8   1       42.09       35.84      5.73 o 
  -5   8   1        4.74        5.50      2.09 o 
  -4   8   1       33.99       30.93      3.77 o 
  -3   8   1       30.46       27.04      3.96 o 
  -2   8   1        0.77       -0.20      1.58 o 
  -1   8   1      187.25      184.26      4.00 o 
   0   8   1      253.42      258.01      3.89 o 
   1   8   1        1.52        4.05      0.71 o 
   2   8   1        0.57        0.84      1.05 o 
   3   8   1       88.17       87.35      4.01 o 
   4   8   1        6.01        6.82      1.43 o 
   5   8   1      215.35      231.73      5.71 o 
   6   8   1       89.68       97.78      4.97 o 
   7   8   1       61.23       51.52      4.86 o 
  -5   9   1       43.11       74.89      7.77 o 
  -4   9   1       51.46       52.11      5.24 o 
  -3   9   1        4.26        3.98      1.91 o 
  -2   9   1       15.16       18.23      2.06 o 
  -1   9   1      213.73      225.13      5.69 o 
   0   9   1       49.69       48.31      2.32 o 
   1   9   1       30.10       39.39      2.11 o 
   2   9   1       79.69       80.48      2.89 o 
   3   9   1       16.52       17.68      2.47 o 
   4   9   1        5.28        2.50      1.54 o 
   5   9   1       27.60       29.28      3.52 o 
   6   9   1        9.92       13.16      2.70 o 
   7   9   1       44.48       39.55      6.16 o 
  -4  10   1        0.33        4.17      2.99 o 
  -3  10   1       32.81       31.32      4.84 o 
  -2  10   1       58.01       58.55      4.61 o 
  -1  10   1        3.56        1.80      1.77 o 
   0  10   1      133.63      128.88      6.12 o 
   1  10   1      140.55      157.51      6.33 o 
   2  10   1       78.92       86.85      5.84 o 
   3  10   1       34.53       29.79      3.51 o 
   4  10   1       69.82       78.96      4.66 o 
   5  10   1       44.48       47.30      5.31 o 
   6  10   1        2.34        1.82      5.00 o 
  -3  11   1       17.17       14.78      6.82 o 
  -2  11   1        0.29        2.72      2.66 o 
  -1  11   1       21.20       27.38      4.00 o 
   0  11   1        3.18        0.04      1.25 o 
   1  11   1      102.25      106.71      6.06 o 
   2  11   1       20.23       19.85      2.21 o 
   3  11   1       77.85       83.37      4.52 o 
   4  11   1       48.77       36.25      5.09 o 
   5  11   1       12.52       11.35      3.85 o 
  -1  12   1        0.04       -2.51      4.77 o 
   0  12   1       30.97       31.28      6.24 o 
   1  12   1        0.01        0.38      3.40 o 
   2  12   1      124.02      117.64      7.92 o 
   3  12   1        4.11        5.87      5.73 o 
   4  12   1       12.77       14.36      3.95 o 
  -2 -12   2       14.27        5.99      4.90 o 
  -1 -12   2        0.93        6.44      6.68 o 
   0 -12   2       16.88       11.80      4.25 o 
   1 -12   2        0.20        3.99      3.32 o 
  -4 -11   2        1.92        4.33      3.77 o 
  -3 -11   2       23.76       19.96      2.97 o 
  -2 -11   2        4.75        7.60      2.67 o 
  -1 -11   2        5.68        1.24      3.28 o 
   0 -11   2        3.12        6.43      2.28 o 
   1 -11   2        0.03        1.99      1.90 o 
   2 -11   2        1.76        2.40      2.78 o 
   3 -11   2        3.92        2.57      3.54 o 
  -5 -10   2        1.79        7.74      3.97 o 
  -4 -10   2       24.97       27.38      4.53 o 
  -3 -10   2       14.56        9.28      2.51 o 
  -2 -10   2       66.58       70.85      3.40 o 
  -1 -10   2      109.67      117.84      4.93 o 
   0 -10   2        0.56        1.56      1.59 o 
   1 -10   2       16.58       15.19      2.66 o 
   2 -10   2       22.87       24.80      3.84 o 
   3 -10   2       21.85       21.69      3.50 o 
   4 -10   2       76.04       94.92      5.54 o 
  -6  -9   2        5.20        4.63      3.72 o 
  -5  -9   2        0.24        5.81      3.14 o 
  -4  -9   2        1.75        2.29      5.60 o 
  -3  -9   2       51.30       50.20      3.30 o 
  -2  -9   2       63.27       63.45      2.91 o 
  -1  -9   2       32.49       29.66      2.14 o 
   0  -9   2        0.00       -1.01      1.10 o 
   1  -9   2       51.96       57.28      3.03 o 
   2  -9   2      254.51      271.17      8.27 o 
   3  -9   2       15.64       15.42      2.82 o 
   4  -9   2        3.60        7.68      2.42 o 
   5  -9   2       53.42       50.45      5.41 o 
  -6  -8   2       15.60       12.28      3.61 o 
  -5  -8   2       42.63       37.71      4.77 o 
  -4  -8   2       79.78       75.73      4.79 o 
  -3  -8   2       52.92       51.30      3.79 o 
  -2  -8   2        0.00       -0.68      0.87 o 
  -1  -8   2       24.41       25.04      1.79 o 
   0  -8   2      151.91      161.28      3.57 o 
   1  -8   2       18.47       21.13      1.94 o 
   2  -8   2        1.77        2.46      1.07 o 
   3  -8   2      125.98      127.18      3.83 o 
   4  -8   2       27.52       32.94      2.67 o 
   5  -8   2      163.62      185.56      9.81 o 
   6  -8   2       10.19       11.41      2.92 o 
  -7  -7   2        4.05        4.30      4.44 o 
  -6  -7   2        0.03        2.14      4.57 o 
  -5  -7   2       18.23       15.15      2.30 o 
  -4  -7   2       13.35       12.32      1.88 o 
  -3  -7   2       11.76       12.74      1.66 o 
  -2  -7   2       23.75       23.46      1.52 o 
  -1  -7   2      138.94      135.55      3.10 o 
   0  -7   2      128.57      118.82      2.87 o 
   1  -7   2      388.25      402.12      5.55 o 
   2  -7   2      182.07      179.26      3.31 o 
   3  -7   2        0.64        3.78      1.18 o 
   4  -7   2        0.98        0.36      1.49 o 
   5  -7   2        4.03        5.76      1.74 o 
   6  -7   2       63.32       65.94      5.40 o 
   7  -7   2       30.46       32.20      4.16 o 
  -7  -6   2        0.03       -1.86      2.76 o 
  -6  -6   2       17.16       14.47      2.28 o 
  -5  -6   2      105.38      101.99      4.50 o 
  -4  -6   2        9.62       12.08      2.19 o 
  -3  -6   2       73.96       70.41      2.96 o 
  -2  -6   2      103.28      109.81      2.15 o 
  -1  -6   2      171.87      177.26      2.81 o 
   0  -6   2       72.92       78.12      1.92 o 
   1  -6   2       29.42       26.22      1.19 o 
   2  -6   2      509.22      508.47      5.74 o 
   3  -6   2      240.85      248.53      4.90 o 
   4  -6   2       98.71      103.41      4.44 o 
   5  -6   2        3.73        2.93      2.35 o 
   6  -6   2        0.29        2.77      3.91 o 
   7  -6   2       29.29       25.53      4.38 o 
  -7  -5   2        8.26       10.58      4.03 o 
  -6  -5   2        0.60       -1.11      1.47 o 
  -5  -5   2      189.90      184.77      5.74 o 
  -4  -5   2       28.35       33.14      2.46 o 
  -3  -5   2      154.82      155.31      3.34 o 
  -2  -5   2       15.85       20.76      1.16 o 
  -1  -5   2       87.51       88.45      1.82 o 
   0  -5   2      650.35      671.12      6.13 o 
   1  -5   2       16.65       19.35      1.12 o 
   2  -5   2       89.06       90.23      2.36 o 
   3  -5   2       16.78       20.45      1.85 o 
   4  -5   2        0.05       -0.49      2.25 o 
   5  -5   2       24.56       22.40      2.42 o 
   6  -5   2       16.23       10.78      3.89 o 
   7  -5   2      261.49      297.74     11.59 o 
   8  -5   2       45.78       43.30     10.42 o 
  -8  -4   2       23.59       33.63      5.80 o 
  -7  -4   2       11.02       17.37      4.25 o 
  -6  -4   2      131.42      141.62      5.02 o 
  -5  -4   2      202.13      215.64      7.31 o 
  -4  -4   2       78.01       74.03      2.83 o 
  -3  -4   2        2.17        2.03      0.71 o 
  -2  -4   2       27.22       28.39      1.29 o 
  -1  -4   2      535.64      536.49      4.59 o 
   0  -4   2      112.47      107.78      2.03 o 
   1  -4   2      112.05      115.49      2.13 o 
   2  -4   2     1349.98     1387.85     10.73 o 
   3  -4   2        1.09        1.54      0.73 o 
   4  -4   2       67.52       67.75      2.63 o 
   5  -4   2       26.92       24.35      2.59 o 
   6  -4   2        4.07        6.18      2.06 o 
   7  -4   2       13.23       11.41      2.43 o 
   8  -4   2       52.74       45.56      6.64 o 
  -8  -3   2       25.70       28.79      4.81 o 
  -7  -3   2       17.77       19.52      2.61 o 
  -6  -3   2      105.20      100.73      4.21 o 
  -5  -3   2       78.34       89.11      2.65 o 
  -4  -3   2       30.46       33.95      1.59 o 
  -3  -3   2        0.22        1.55      0.52 o 
  -2  -3   2      171.41      168.60      2.78 o 
  -1  -3   2      147.49      132.15      2.18 o 
   0  -3   2      333.04      305.40      3.58 o 
   1  -3   2     1754.22     1773.62     12.93 o 
   2  -3   2     1239.37     1189.90     10.17 o 
   3  -3   2      306.38      274.03      5.44 o 
   4  -3   2       88.92       85.68      2.93 o 
   5  -3   2       45.72       42.14      2.43 o 
   6  -3   2      316.48      316.19      7.83 o 
   7  -3   2        3.78        5.45      2.26 o 
   8  -3   2       20.11       22.10      3.77 o 
  -8  -2   2        5.78        3.70      3.66 o 
  -7  -2   2        6.31        5.70      2.74 o 
  -6  -2   2        4.21        3.29      1.64 o 
  -5  -2   2        0.00       -0.34      1.38 o 
  -4  -2   2       26.27       33.34      1.61 o 
  -3  -2   2       85.28       89.81      2.36 o 
  -2  -2   2     1414.66     1440.40     16.08 o 
  -1  -2   2      164.42      172.59      2.85 o 
   0  -2   2        2.02        1.33      0.38 o 
   1  -2   2       40.38       42.11      1.19 o 
   2  -2   2     1375.29     1335.00     13.05 o 
   3  -2   2     1534.34     1547.53     13.89 o 
   4  -2   2      182.65      168.50      3.30 o 
   5  -2   2      107.21      101.02      3.04 o 
   6  -2   2       78.07       77.42      3.11 o 
   7  -2   2      127.97      127.75      5.39 o 
   8  -2   2      137.05      144.37      8.32 o 
   9  -2   2       30.65       32.54      6.11 o 
  -8  -1   2       34.92       31.87      4.16 o 
  -7  -1   2       21.16       27.74      3.31 o 
  -6  -1   2        1.07        1.95      1.30 o 
  -5  -1   2       12.71        9.67      1.36 o 
  -4  -1   2        0.03        0.70      0.64 o 
  -3  -1   2       45.57       55.16      1.79 o 
  -2  -1   2       90.41       84.71      1.98 o 
  -1  -1   2     2114.00     2076.33     20.66 o 
   0  -1   2      211.07      191.10      2.27 o 
   1  -1   2     4639.69     4437.55     40.00 o 
   2  -1   2     1364.40     1244.27      9.64 o 
   3  -1   2       14.08       19.51      1.20 o 
   4  -1   2       78.75       88.13      2.07 o 
   5  -1   2       14.39       14.15      1.17 o 
   6  -1   2       16.32       14.71      1.54 o 
   7  -1   2      154.50      149.69      5.99 o 
   8  -1   2      139.02      146.93      6.95 o 
   9  -1   2        0.03        2.02      4.03 o 
  -8   0   2       73.12       73.64      6.71 o 
  -7   0   2       15.20       15.12      2.87 o 
  -6   0   2       14.95       14.72      2.41 o 
  -5   0   2       23.43       23.42      2.52 o 
  -4   0   2       61.24       67.91      2.46 o 
  -3   0   2      315.10      334.20      5.41 o 
  -2   0   2     1649.93     1686.39     15.82 o 
  -1   0   2       62.00       61.37      1.53 o 
   0   0   2      110.69      107.44      1.54 o 
   1   0   2      137.85      128.57      2.03 o 
   2   0   2      261.91      244.36      3.59 o 
   3   0   2        1.30        3.70      0.59 o 
   4   0   2      250.19      247.47      3.63 o 
   5   0   2       18.18       18.66      1.16 o 
   6   0   2        8.53        7.72      1.41 o 
   7   0   2      195.08      196.98      5.84 o 
   8   0   2        7.24        4.42      2.25 o 
   9   0   2      175.69      191.70     13.75 o 
  -8   1   2        0.72        2.79      3.23 o 
  -7   1   2       32.60       31.73      4.09 o 
  -6   1   2        1.07       -0.24      1.15 o 
  -5   1   2        2.78        3.89      1.35 o 
  -4   1   2      121.24      128.13      3.00 o 
  -3   1   2        6.29        7.30      0.96 o 
  -2   1   2      849.67      793.54      7.06 o 
  -1   1   2      124.98      115.98      2.19 o 
   0   1   2     4716.75     4587.26     28.40 o 
   1   1   2       41.63       43.49      0.96 o 
   2   1   2      178.29      183.29      2.35 o 
   3   1   2        0.67        0.45      0.42 o 
   4   1   2        0.00        0.72      0.62 o 
   5   1   2      181.44      183.47      3.95 o 
   6   1   2      122.79      127.79      3.90 o 
   7   1   2       69.84       68.99      5.58 o 
   8   1   2        1.37        1.61      3.03 o 
   9   1   2       57.65       52.84      5.10 o 
  -8   2   2        3.58        1.33      6.36 o 
  -7   2   2       45.17       34.01      4.98 o 
  -6   2   2        4.59        3.83      2.12 o 
  -5   2   2       10.11        9.77      1.44 o 
  -4   2   2       60.44       58.33      2.24 o 
  -3   2   2      660.04      659.30      7.33 o 
  -2   2   2      413.98      420.74      5.09 o 
  -1   2   2       32.27       30.87      1.31 o 
   0   2   2      466.52      437.23      3.31 o 
   1   2   2     1239.97     1202.94      9.32 o 
   2   2   2      179.69      185.21      2.07 o 
   3   2   2     2554.23     2793.20     17.18 o 
   4   2   2      164.89      169.36      2.83 o 
   5   2   2      523.87      509.40      6.74 o 
   6   2   2       92.41       94.06      3.16 o 
   7   2   2        7.77        6.64      1.70 o 
   8   2   2       60.23       59.20      5.37 o 
   9   2   2       24.03       19.75      3.48 o 
  -7   3   2       11.07        5.25      3.34 o 
  -6   3   2        1.07        4.15      2.19 o 
  -5   3   2        0.04        0.68      1.13 o 
  -4   3   2        9.21        9.43      1.65 o 
  -3   3   2      148.37      134.58      3.67 o 
  -2   3   2      236.26      244.67      4.08 o 
  -1   3   2      380.69      409.94      4.11 o 
   0   3   2     1069.12     1034.66      6.34 o 
   1   3   2        8.83        9.99      0.56 o 
   2   3   2      356.79      388.07      3.74 o 
   3   3   2       91.64       97.58      1.48 o 
   4   3   2      178.71      187.20      2.93 o 
   5   3   2      215.65      213.54      3.63 o 
   6   3   2      563.25      558.61      7.02 o 
   7   3   2        2.04        3.16      1.11 o 
   8   3   2       24.86       26.61      2.49 o 
   9   3   2        0.75       -2.36      2.56 o 
  -7   4   2       21.61       22.04      4.49 o 
  -6   4   2        2.81        3.44      1.91 o 
  -5   4   2        3.21        5.54      1.69 o 
  -4   4   2        4.67        5.55      1.35 o 
  -3   4   2      121.44      124.12      3.59 o 
  -2   4   2      280.27      255.48      3.57 o 
  -1   4   2       95.83      109.64      1.98 o 
   0   4   2     2136.24     2153.11     12.75 o 
   1   4   2        1.01        1.38      0.40 o 
   2   4   2      332.24      355.21      3.74 o 
   3   4   2      865.15      879.75      6.90 o 
   4   4   2     1476.88     1484.81     11.88 o 
   5   4   2      237.38      241.64      4.40 o 
   6   4   2       75.14       72.42      2.98 o 
   7   4   2        0.35       -0.06      1.48 o 
   8   4   2        7.09        1.71      3.28 o 
   9   4   2       31.29       36.08      4.51 o 
  -7   5   2        0.05       -1.21      3.60 o 
  -6   5   2       11.88       10.71      3.24 o 
  -5   5   2        0.03       -0.03      1.30 o 
  -4   5   2        2.24        3.04      1.14 o 
  -3   5   2      107.43       99.97      2.89 o 
  -2   5   2      287.07      293.14      3.73 o 
  -1   5   2        1.83        3.99      0.68 o 
   0   5   2      209.98      224.45      3.00 o 
   1   5   2       40.96       41.64      1.57 o 
   2   5   2      272.58      284.27      3.85 o 
   3   5   2      144.31      145.94      2.43 o 
   4   5   2        5.18        4.11      0.79 o 
   5   5   2       89.97       83.90      3.00 o 
   6   5   2      358.60      365.54      7.11 o 
   7   5   2       54.73       59.63      3.56 o 
   8   5   2        7.63        6.70      2.13 o 
   9   5   2        0.37       -0.05      3.46 o 
  -6   6   2        1.69        0.18      2.27 o 
  -5   6   2       15.93       15.13      3.77 o 
  -4   6   2        0.05       -0.06      1.60 o 
  -3   6   2      235.33      235.00      4.10 o 
  -2   6   2       15.59       18.42      1.03 o 
  -1   6   2       21.87       26.52      1.42 o 
   0   6   2      108.16      113.20      2.22 o 
   1   6   2      241.24      254.13      4.12 o 
   2   6   2      108.94      114.53      2.80 o 
   3   6   2       42.13       44.99      1.28 o 
   4   6   2      129.52      123.68      3.03 o 
   5   6   2      322.33      329.09      6.29 o 
   6   6   2      101.30      104.31      6.92 o 
   7   6   2       11.10        5.97      2.33 o 
   8   6   2       20.27       21.37      5.09 o 
  -6   7   2       34.41       34.64      4.81 o 
  -5   7   2        3.33        2.42      1.92 o 
  -4   7   2       33.91       34.94      2.88 o 
  -3   7   2       51.94       51.72      2.38 o 
  -2   7   2       27.86       29.73      2.20 o 
  -1   7   2       39.51       35.99      2.13 o 
   0   7   2       64.76       69.37      1.70 o 
   1   7   2       70.21       78.99      2.40 o 
   2   7   2       14.66       14.88      1.40 o 
   3   7   2      133.22      141.01      3.15 o 
   4   7   2       52.68       57.69      2.15 o 
   5   7   2      119.12      122.55      4.19 o 
   6   7   2        0.05       -1.65      1.65 o 
   7   7   2       53.24       39.60      5.98 o 
   8   7   2        0.32        6.14      5.52 o 
  -5   8   2       78.74       99.32      5.35 o 
  -4   8   2       24.65       21.90      1.89 o 
  -3   8   2       59.14       52.33      3.87 o 
  -2   8   2       71.22       81.40      3.53 o 
  -1   8   2       53.29       54.32      2.32 o 
   0   8   2       61.34       62.49      2.59 o 
   1   8   2       62.39       64.00      2.01 o 
   2   8   2       19.46       19.88      2.24 o 
   3   8   2      322.61      330.44      5.46 o 
   4   8   2        1.13        0.86      1.12 o 
   5   8   2       36.66       44.46      3.91 o 
   6   8   2        0.00        6.34      1.73 o 
   7   8   2        4.84       -2.27      3.97 o 
  -5   9   2        1.59        6.53      4.08 o 
  -4   9   2       19.78       12.34      2.58 o 
  -3   9   2       99.64      119.29      6.51 o 
  -2   9   2       64.79       66.08      3.80 o 
  -1   9   2       18.16       20.03      2.16 o 
   0   9   2       48.88       46.98      2.04 o 
   1   9   2      191.97      200.96      4.12 o 
   2   9   2       22.04       17.02      2.75 o 
   3   9   2        0.13        0.37      1.47 o 
   4   9   2       52.67       56.21      3.29 o 
   5   9   2       40.52       44.46      3.16 o 
   6   9   2        4.85        5.03      2.07 o 
   7   9   2       36.93       25.68      4.06 o 
  -4  10   2        0.12       -0.13      3.20 o 
  -3  10   2        3.27       -1.40      2.53 o 
  -2  10   2       17.93       24.65      2.63 o 
  -1  10   2        9.07        5.42      1.45 o 
   0  10   2        3.98        9.22      1.69 o 
   1  10   2      191.79      196.90      5.54 o 
   2  10   2       74.20       77.06      3.29 o 
   3  10   2        0.81        4.94      3.95 o 
   4  10   2       32.43       30.21      2.92 o 
   5  10   2       31.54       19.46      3.71 o 
   6  10   2        2.56        3.75      3.59 o 
  -3  11   2        3.70        5.12      6.16 o 
  -2  11   2       49.53       62.13      5.09 o 
  -1  11   2        6.98       11.69      2.26 o 
   0  11   2       12.09        8.24      2.57 o 
   1  11   2        3.23       -1.37      2.58 o 
   2  11   2       29.51       25.90      2.78 o 
   3  11   2        1.38       -1.49      1.49 o 
   4  11   2       19.76       18.02      2.86 o 
   5  11   2        0.08        6.92      3.77 o 
  -1  12   2        0.50       -1.54      3.98 o 
   0  12   2        4.76        7.45      4.14 o 
   1  12   2       45.42       33.83      4.57 o 
   2  12   2        3.80        1.81      2.26 o 
   3  12   2        4.73        9.89      4.83 o 
   4  12   2        5.19        1.71      5.84 o 
   0 -12   3        0.37       -2.64      4.28 o 
  -3 -11   3        0.17        0.54      4.38 o 
  -2 -11   3       11.70       14.15      2.71 o 
  -1 -11   3       12.97       14.45      2.83 o 
   0 -11   3       50.48       53.41      6.78 o 
   1 -11   3        4.17        2.35      2.95 o 
   2 -11   3        0.35       -1.33      2.73 o 
   3 -11   3        6.76       13.38      3.23 o 
  -4 -10   3        0.06        0.94      3.81 o 
  -3 -10   3       11.18       11.33      3.45 o 
  -2 -10   3        0.22        1.41      1.90 o 
  -1 -10   3       32.11       33.32      4.04 o 
   0 -10   3       22.90       19.80      2.33 o 
   1 -10   3        2.59        6.62      2.19 o 
   2 -10   3       13.21       12.71      2.37 o 
   3 -10   3        0.02       -0.63      2.12 o 
   4 -10   3        3.57        6.14      2.42 o 
  -5  -9   3        0.11        2.91      6.13 o 
  -4  -9   3       12.00       22.34      5.32 o 
  -3  -9   3       23.66       23.45      3.18 o 
  -2  -9   3        1.83       -0.26      1.58 o 
  -1  -9   3        1.54        2.80      1.28 o 
   0  -9   3        1.54        5.77      1.50 o 
   1  -9   3       23.56       19.87      2.55 o 
   2  -9   3      102.33      102.87      3.98 o 
   3  -9   3       37.31       31.78      3.49 o 
   4  -9   3        6.41        5.56      1.81 o 
   5  -9   3       36.27       39.86      4.04 o 
  -6  -8   3        0.58        3.47      4.90 o 
  -5  -8   3        0.84        8.31      2.62 o 
  -4  -8   3        0.02       -2.55      2.68 o 
  -3  -8   3      213.49      206.24      8.27 o 
  -2  -8   3       39.14       42.76      2.52 o 
  -1  -8   3       58.75       54.98      2.83 o 
   0  -8   3       62.23       59.47      2.70 o 
   1  -8   3       18.74       17.85      1.68 o 
   2  -8   3        9.55        8.65      1.20 o 
   3  -8   3       33.83       26.29      2.57 o 
   4  -8   3       16.89       13.20      1.98 o 
   5  -8   3        0.27       -1.48      2.06 o 
   6  -8   3       39.65       48.44      4.11 o 
  -6  -7   3        6.56        8.97      3.78 o 
  -5  -7   3        0.22       -2.28      2.32 o 
  -4  -7   3       28.46       30.22      2.73 o 
  -3  -7   3       45.74       45.92      2.25 o 
  -2  -7   3        8.00        4.70      0.98 o 
  -1  -7   3       35.69       37.08      1.60 o 
   0  -7   3      212.14      207.66      3.81 o 
   1  -7   3      346.63      367.47      5.04 o 
   2  -7   3        1.08        0.08      0.75 o 
   3  -7   3       52.68       55.90      2.72 o 
   4  -7   3       12.32       12.21      1.73 o 
   5  -7   3        3.14        2.93      2.09 o 
   6  -7   3        6.33        4.23      3.66 o 
   7  -7   3       11.94       11.54      3.61 o 
  -7  -6   3        0.02        3.34      6.02 o 
  -6  -6   3        0.84       -1.52      2.17 o 
  -5  -6   3       55.48       58.16      3.81 o 
  -4  -6   3      494.40      480.34      9.86 o 
  -3  -6   3       55.37       47.34      2.22 o 
  -2  -6   3      117.22      111.07      2.96 o 
  -1  -6   3       18.14       18.81      1.15 o 
   0  -6   3       45.26       43.37      1.86 o 
   1  -6   3       72.27       76.00      2.11 o 
   2  -6   3       12.49       12.91      1.26 o 
   3  -6   3      196.78      217.11      4.52 o 
   4  -6   3      112.23      126.47      5.47 o 
   5  -6   3       18.58       15.93      2.80 o 
   6  -6   3        0.08       -1.61      1.61 o 
   7  -6   3       18.95       24.92      7.05 o 
  -7  -5   3        0.01        2.36      3.12 o 
  -6  -5   3        1.19        4.09      1.78 o 
  -5  -5   3       10.97       13.34      2.28 o 
  -4  -5   3       23.66       16.96      2.79 o 
  -3  -5   3       10.74       10.17      1.21 o 
  -2  -5   3       80.65       80.97      2.63 o 
  -1  -5   3       98.22      101.24      2.16 o 
   0  -5   3       28.41       30.36      1.31 o 
   1  -5   3      304.51      333.01      4.81 o 
   2  -5   3      250.49      258.84      4.19 o 
   3  -5   3       16.58       15.68      1.47 o 
   4  -5   3       13.83       15.67      1.74 o 
   5  -5   3        0.03        1.28      1.31 o 
   6  -5   3        0.36       -2.05      2.24 o 
   7  -5   3       87.33       97.16      6.12 o 
   8  -5   3        9.85        7.16      4.88 o 
  -7  -4   3       38.06       50.65     11.60 o 
  -6  -4   3       11.88        5.76      2.50 o 
  -5  -4   3       15.86        8.46      2.48 o 
  -4  -4   3      344.37      325.40      5.73 o 
  -3  -4   3      333.50      318.23      5.29 o 
  -2  -4   3       27.29       29.83      1.45 o 
  -1  -4   3        0.89        0.83      0.47 o 
   0  -4   3        4.65        2.82      0.54 o 
   1  -4   3      474.13      479.72      5.19 o 
   2  -4   3     1027.38     1027.52     10.13 o 
   3  -4   3      130.52      123.47      3.19 o 
   4  -4   3        7.89        7.29      1.16 o 
   5  -4   3        0.92       -0.96      1.41 o 
   6  -4   3        0.99       -0.02      2.46 o 
   7  -4   3        0.88        4.66      2.12 o 
   8  -4   3        5.34        3.99      4.65 o 
  -7  -3   3        3.80       -1.16      2.33 o 
  -6  -3   3       50.74       41.98      2.89 o 
  -5  -3   3        1.69        3.19      1.34 o 
  -4  -3   3       15.03       14.72      1.46 o 
  -3  -3   3        3.27        5.52      1.17 o 
  -2  -3   3      505.56      498.52      6.38 o 
  -1  -3   3      269.86      288.17      3.73 o 
   0  -3   3      186.87      193.85      2.87 o 
   1  -3   3      369.50      357.25      4.28 o 
   2  -3   3      867.66      897.21      8.64 o 
   3  -3   3        2.60        6.32      1.02 o 
   4  -3   3      307.50      309.53      5.20 o 
   5  -3   3        2.28        2.13      0.86 o 
   6  -3   3      218.52      216.01      6.39 o 
   7  -3   3       31.69       42.52      4.67 o 
   8  -3   3       37.03       31.07      3.81 o 
  -7  -2   3        2.68        2.38      1.80 o 
  -6  -2   3       25.85       23.13      3.02 o 
  -5  -2   3      155.21      153.46      4.43 o 
  -4  -2   3       83.30       81.43      3.93 o 
  -3  -2   3        6.16        7.37      0.87 o 
  -2  -2   3      426.61      428.71      5.22 o 
  -1  -2   3       37.38       33.74      1.18 o 
   0  -2   3      434.83      452.77      4.57 o 
   1  -2   3     1651.34     1592.69     11.65 o 
   2  -2   3        4.43       10.06      0.93 o 
   3  -2   3       11.32       16.72      1.42 o 
   4  -2   3        0.77        0.23      0.65 o 
   5  -2   3       58.29       57.03      2.27 o 
   6  -2   3        1.23        1.57      1.14 o 
   7  -2   3       33.27       32.10      2.96 o 
   8  -2   3       61.09       63.63      4.51 o 
   9  -2   3        9.69        7.55      4.19 o 
  -7  -1   3      101.98      100.52      4.09 o 
  -6  -1   3       11.78       14.87      1.71 o 
  -5  -1   3       86.68       89.87      2.97 o 
  -4  -1   3        9.97       12.49      1.15 o 
  -3  -1   3      822.70      830.38      9.01 o 
  -2  -1   3      278.99      284.71      4.07 o 
  -1  -1   3        0.76        3.29      0.47 o 
   0  -1   3      248.23      240.75      3.55 o 
   1  -1   3      440.70      435.03      4.66 o 
   2  -1   3     1048.46     1034.07      9.59 o 
   3  -1   3      974.07      995.94      9.24 o 
   4  -1   3       80.11       82.34      2.79 o 
   5  -1   3      215.39      226.53      4.56 o 
   6  -1   3      122.61      120.44      3.67 o 
   7  -1   3       42.96       41.06      2.89 o 
   8  -1   3       17.69       15.10      2.83 o 
   9  -1   3        9.02       15.05      5.54 o 
  -7   0   3       17.99       15.37      4.07 o 
  -6   0   3       15.61       11.52      2.25 o 
  -5   0   3       35.39       37.98      2.15 o 
  -4   0   3        1.19        2.63      0.86 o 
  -3   0   3      716.10      708.70      6.92 o 
  -2   0   3      431.84      450.54      5.49 o 
  -1   0   3      369.65      381.61      4.74 o 
   0   0   3       13.91       19.51      0.79 o 
   1   0   3       27.87       24.60      1.00 o 
   2   0   3       35.63       34.00      1.36 o 
   3   0   3       54.27       56.26      1.99 o 
   4   0   3     1092.76     1119.24      9.93 o 
   5   0   3      725.38      727.37      7.96 o 
   6   0   3      379.30      355.94      5.32 o 
   7   0   3      110.54      104.16      4.09 o 
   8   0   3        0.01        1.90      1.71 o 
   9   0   3        2.30        1.64      2.57 o 
  -7   1   3      198.59      202.19      6.59 o 
  -6   1   3      190.77      202.93      6.09 o 
  -5   1   3        1.57        1.10      1.03 o 
  -4   1   3      156.07      152.77      3.51 o 
  -3   1   3      154.11      158.73      3.88 o 
  -2   1   3      510.81      499.48      6.03 o 
  -1   1   3        0.14        1.09      0.42 o 
   0   1   3      119.63      119.18      2.22 o 
   1   1   3      200.98      194.48      2.70 o 
   2   1   3        8.90        9.31      0.81 o 
   3   1   3      530.97      526.91      6.15 o 
   4   1   3       96.54      126.13      2.84 o 
   5   1   3      281.97      273.19      5.30 o 
   6   1   3      522.65      542.35      7.40 o 
   7   1   3       53.38       52.74      3.19 o 
   8   1   3        4.40        5.22      1.93 o 
   9   1   3        0.58        1.10      3.70 o 
  -7   2   3        6.19        3.16      3.18 o 
  -6   2   3      139.91      146.09      5.38 o 
  -5   2   3        0.04       -0.23      1.47 o 
  -4   2   3       52.27       59.36      3.04 o 
  -3   2   3      289.32      266.48      4.94 o 
  -2   2   3      200.24      215.56      3.88 o 
  -1   2   3       37.44       34.27      1.45 o 
   0   2   3        3.64        3.73      0.44 o 
   1   2   3      346.84      349.42      3.19 o 
   2   2   3      250.50      262.02      3.16 o 
   3   2   3     2015.58     2215.04     16.34 o 
   4   2   3      162.10      148.78      2.92 o 
   5   2   3       67.74       74.62      2.31 o 
   6   2   3      295.63      291.78      5.03 o 
   7   2   3       71.04       75.54      3.23 o 
   8   2   3       20.23       19.83      3.13 o 
   9   2   3       14.11       16.32      3.09 o 
  -7   3   3       35.38       39.06      4.17 o 
  -6   3   3        0.33        1.87      2.36 o 
  -5   3   3        8.38        3.23      2.01 o 
  -4   3   3       19.12       18.84      2.01 o 
  -3   3   3      310.86      305.84      5.26 o 
  -2   3   3      127.47      118.14      3.09 o 
  -1   3   3      165.56      172.19      2.73 o 
   0   3   3      653.24      617.78      5.19 o 
   1   3   3      117.67      116.15      1.88 o 
   2   3   3        0.03       -0.21      0.32 o 
   3   3   3        0.75        5.09      0.76 o 
   4   3   3        7.82        9.89      0.88 o 
   5   3   3       51.02       52.79      2.03 o 
   6   3   3       47.08       50.29      2.12 o 
   7   3   3       92.47       89.53      3.13 o 
   8   3   3       96.00      108.06      3.94 o 
   9   3   3        1.55        3.24      2.36 o 
  -7   4   3        9.91        4.85      3.04 o 
  -6   4   3        0.52       -1.80      1.80 o 
  -5   4   3        0.04        4.29      1.95 o 
  -4   4   3       14.75       20.12      1.98 o 
  -3   4   3        4.45        3.14      1.28 o 
  -2   4   3       13.22       10.15      1.07 o 
  -1   4   3       92.92       99.22      1.89 o 
   0   4   3     2136.10     2127.17     13.18 o 
   1   4   3       66.62       61.65      1.36 o 
   2   4   3      752.90      798.83      6.92 o 
   3   4   3      112.95      124.55      2.33 o 
   4   4   3        2.46        4.53      0.64 o 
   5   4   3      110.26      112.76      2.72 o 
   6   4   3       84.17       83.39      2.85 o 
   7   4   3       48.82       46.24      3.99 o 
   8   4   3        4.69       10.38      2.01 o 
   9   4   3        1.82        1.02      3.99 o 
  -6   5   3        0.00        2.99      2.08 o 
  -5   5   3        0.05       -0.74      1.76 o 
  -4   5   3        2.37        1.29      1.32 o 
  -3   5   3       88.61       79.55      2.85 o 
  -2   5   3       32.53       38.20      2.01 o 
  -1   5   3      828.47      829.06      9.84 o 
   0   5   3      507.09      518.20      5.04 o 
   1   5   3      369.61      385.49      5.70 o 
   2   5   3       12.44       15.31      1.25 o 
   3   5   3      154.36      151.50      2.56 o 
   4   5   3        5.56        6.09      0.71 o 
   5   5   3      210.43      201.57      4.31 o 
   6   5   3       85.03       85.09      4.05 o 
   7   5   3       14.16       17.02      2.22 o 
   8   5   3        2.50        1.96      2.04 o 
   9   5   3        0.04       -2.80      2.80 o 
  -6   6   3        0.03       -2.39      2.39 o 
  -5   6   3        0.39        0.65      1.61 o 
  -4   6   3        1.40        1.10      1.48 o 
  -3   6   3        2.41        0.94      1.47 o 
  -2   6   3        8.16        7.18      0.82 o 
  -1   6   3      785.83      835.59      8.15 o 
   0   6   3        5.05       11.05      0.97 o 
   1   6   3        4.23        5.17      0.89 o 
   2   6   3      327.50      343.95      5.24 o 
   3   6   3      170.37      186.66      3.23 o 
   4   6   3       29.81       36.02      1.33 o 
   5   6   3        0.09        0.80      0.97 o 
   6   6   3       63.58       61.47      4.55 o 
   7   6   3        0.01        2.36      2.55 o 
   8   6   3       14.76       10.97      3.32 o 
  -5   7   3       60.98       58.85      4.59 o 
  -4   7   3        3.63       -1.27      1.52 o 
  -3   7   3       21.28       26.34      3.58 o 
  -2   7   3      114.97      109.30      3.05 o 
  -1   7   3       62.34       60.97      2.25 o 
   0   7   3        4.34        3.91      0.89 o 
   1   7   3        6.97        4.89      1.21 o 
   2   7   3        1.27        2.53      0.83 o 
   3   7   3       31.46       32.16      1.99 o 
   4   7   3      115.54      107.15      3.14 o 
   5   7   3       76.55       69.21      2.96 o 
   6   7   3        5.97        7.01      1.52 o 
   7   7   3       91.36       89.17      5.91 o 
   8   7   3       19.30       15.06      3.73 o 
  -5   8   3       11.88       10.01      3.32 o 
  -4   8   3        9.96       13.69      2.38 o 
  -3   8   3       35.89       39.60      3.97 o 
  -2   8   3        6.67        7.27      1.37 o 
  -1   8   3        0.93        1.76      1.22 o 
   0   8   3        9.28        7.59      1.31 o 
   1   8   3       11.95       10.55      1.42 o 
   2   8   3        0.47       -0.96      0.96 o 
   3   8   3       79.36       76.29      3.52 o 
   4   8   3      229.06      233.07      4.64 o 
   5   8   3      103.92      104.40      3.07 o 
   6   8   3       10.06       10.53      2.72 o 
   7   8   3       31.43       33.22      4.39 o 
   8   8   3        6.41        6.23      3.73 o 
  -4   9   3        2.32        7.32      4.14 o 
  -3   9   3        0.37        1.00      1.84 o 
  -2   9   3        1.64        0.97      1.93 o 
  -1   9   3        1.01        4.15      1.44 o 
   0   9   3        7.90       12.25      1.63 o 
   1   9   3       74.30       70.97      5.11 o 
   2   9   3       15.46       18.20      2.72 o 
   3   9   3       27.49       25.47      4.19 o 
   4   9   3       11.46       10.87      1.62 o 
   5   9   3        0.59        2.53      2.02 o 
   6   9   3        3.00        5.34      3.50 o 
   7   9   3        9.94       11.48      3.40 o 
  -3  10   3       13.85       14.29      3.28 o 
  -2  10   3        0.05       -1.40      1.69 o 
  -1  10   3        2.78        9.78      1.84 o 
   0  10   3        0.64        1.94      1.56 o 
   1  10   3       77.04       70.90      3.29 o 
   2  10   3        0.93       -2.73      3.10 o 
   3  10   3       61.16       71.11      8.17 o 
   4  10   3       50.48       53.38      5.03 o 
   5  10   3        7.46        9.12      3.70 o 
   6  10   3        0.00        1.00      2.70 o 
  -2  11   3        0.16       -2.59      2.83 o 
  -1  11   3       19.60       24.32      3.20 o 
   0  11   3       44.34       46.42      5.03 o 
   1  11   3        0.45       -1.18      2.60 o 
   2  11   3       22.86       22.30      2.73 o 
   3  11   3        0.46       -2.58      2.58 o 
   4  11   3        1.26       -3.06      3.56 o 
   5  11   3        0.21       -5.27      5.27 o 
  -1  12   3        1.98       -1.08      3.69 o 
   0  12   3       49.94       51.38     10.99 o 
   1  12   3       27.43       18.04      3.25 o 
   2  12   3       41.88       36.43      4.50 o 
   3  12   3        1.52        6.46      4.40 o 
   4  12   3        0.34        6.84      7.15 o 
  -2 -11   4       38.20       34.91      4.26 o 
  -1 -11   4        1.91        8.49      2.73 o 
   0 -11   4        0.16       -0.62      2.74 o 
   1 -11   4        0.43        0.70      2.18 o 
   2 -11   4       50.98       64.21      9.99 o 
   3 -11   4        0.87        3.92      3.67 o 
  -3 -10   4        0.19       -1.17      4.89 o 
  -2 -10   4        0.09       -2.04      2.04 o 
  -1 -10   4       32.77       29.40      2.72 o 
   0 -10   4       78.46       72.96      4.26 o 
   1 -10   4        0.15       -0.04      1.88 o 
   2 -10   4       49.89       47.24      4.07 o 
   3 -10   4        3.07        8.41      2.29 o 
   4 -10   4       38.74       24.99      4.67 o 
  -4  -9   4        0.07       12.80      3.80 o 
  -3  -9   4        1.70        5.61      3.08 o 
  -2  -9   4        1.80        2.63      1.74 o 
  -1  -9   4        0.24        0.18      1.52 o 
   0  -9   4       26.76       30.56      3.10 o 
   1  -9   4      144.45      153.90      6.04 o 
   2  -9   4       84.90       79.97      3.21 o 
   3  -9   4        3.55        2.56      1.65 o 
   4  -9   4        0.74       -1.76      1.76 o 
   5  -9   4        0.48        2.13      2.55 o 
  -5  -8   4       21.97       21.48      5.35 o 
  -4  -8   4        5.67        7.78      2.45 o 
  -3  -8   4       13.87        8.32      1.92 o 
  -2  -8   4       17.63       18.24      2.56 o 
  -1  -8   4       21.62       22.30      1.69 o 
   0  -8   4      140.50      133.97      3.93 o 
   1  -8   4       34.35       37.18      2.26 o 
   2  -8   4       13.47       17.87      2.04 o 
   3  -8   4        4.37        4.44      1.91 o 
   4  -8   4       11.93       15.08      2.05 o 
   5  -8   4        3.16        2.06      1.79 o 
   6  -8   4        0.09       -0.73      2.35 o 
  -6  -7   4      103.40       96.27      7.65 o 
  -5  -7   4       63.48       47.82      6.13 o 
  -4  -7   4        2.58        3.35      1.93 o 
  -3  -7   4       17.77       16.87      1.97 o 
  -2  -7   4       97.67       85.92      3.26 o 
  -1  -7   4       73.17       62.43      2.28 o 
   0  -7   4        0.51        1.52      0.82 o 
   1  -7   4        2.72        1.52      1.08 o 
   2  -7   4       57.95       56.54      2.54 o 
   3  -7   4      111.63       93.51      3.14 o 
   4  -7   4        0.07        0.14      1.24 o 
   5  -7   4       61.88       63.52      4.22 o 
   6  -7   4       12.00        7.99      2.39 o 
   7  -7   4        0.16       -2.38      2.38 o 
  -6  -6   4        7.23        8.07      2.92 o 
  -5  -6   4       31.68       28.22      3.54 o 
  -4  -6   4       40.99       34.36      3.32 o 
  -3  -6   4        1.99        2.92      1.90 o 
  -2  -6   4        0.79        1.05      1.23 o 
  -1  -6   4      330.25      330.62      5.18 o 
   0  -6   4       31.64       31.57      1.64 o 
   1  -6   4        2.60        2.22      0.80 o 
   2  -6   4       26.05       27.71      1.69 o 
   3  -6   4        5.92        5.12      1.15 o 
   4  -6   4       58.21       47.16      2.86 o 
   5  -6   4       15.79       18.24      2.47 o 
   6  -6   4       52.98       47.22      3.85 o 
   7  -6   4       28.70       32.19      3.72 o 
  -6  -5   4       14.34       11.42      3.19 o 
  -5  -5   4       12.59        8.90      2.26 o 
  -4  -5   4      308.25      316.30      7.84 o 
  -3  -5   4      208.57      208.16      5.31 o 
  -2  -5   4        0.01       -0.13      0.75 o 
  -1  -5   4      205.40      203.95      3.67 o 
   0  -5   4        0.64        0.76      1.01 o 
   1  -5   4        3.43        4.43      0.81 o 
   2  -5   4      216.61      221.63      4.81 o 
   3  -5   4      109.58      107.85      3.19 o 
   4  -5   4        4.48        1.86      1.50 o 
   5  -5   4      151.99      165.84      5.70 o 
   6  -5   4       17.12       12.06      2.33 o 
   7  -5   4        3.80        3.96      2.11 o 
   8  -5   4        1.43       -1.50      4.22 o 
  -7  -4   4        2.14        1.53      4.86 o 
  -6  -4   4       68.17       74.24      4.12 o 
  -5  -4   4       51.01       39.71      2.53 o 
  -4  -4   4       32.53       25.14      2.28 o 
  -3  -4   4       62.53       67.79      2.48 o 
  -2  -4   4      357.46      372.75      5.96 o 
  -1  -4   4        2.95        3.20      0.67 o 
   0  -4   4        9.93       12.98      1.02 o 
   1  -4   4       62.76       62.16      2.01 o 
   2  -4   4       46.67       54.06      2.25 o 
   3  -4   4       48.69       48.86      2.20 o 
   4  -4   4       68.05       67.98      2.74 o 
   5  -4   4      236.79      265.86      7.19 o 
   6  -4   4       46.07       46.64      3.51 o 
   7  -4   4       79.56       70.06      8.38 o 
   8  -4   4       59.38       77.99      6.66 o 
  -7  -3   4       65.17       60.46      8.51 o 
  -6  -3   4       36.05       35.76      3.10 o 
  -5  -3   4       23.34       22.88      2.37 o 
  -4  -3   4        3.42        4.72      1.13 o 
  -3  -3   4       44.45       45.31      2.07 o 
  -2  -3   4       67.88       67.87      2.48 o 
  -1  -3   4        0.02        0.34      0.57 o 
   0  -3   4      196.06      188.56      3.15 o 
   1  -3   4        0.00        1.91      0.55 o 
   2  -3   4      194.71      214.94      4.36 o 
   3  -3   4      167.58      165.72      4.20 o 
   4  -3   4      232.93      236.33      4.47 o 
   5  -3   4       96.30       95.81      3.59 o 
   6  -3   4       54.08       60.76      4.08 o 
   7  -3   4        2.86       -1.73      2.29 o 
   8  -3   4       55.51       54.41      4.56 o 
   9  -3   4       16.75        9.86      9.45 o 
  -7  -2   4        1.62        2.45      3.26 o 
  -6  -2   4        2.19        4.92      1.85 o 
  -5  -2   4      121.17      104.51      3.57 o 
  -4  -2   4      117.99      125.94      3.60 o 
  -3  -2   4        2.28        4.11      1.00 o 
  -2  -2   4        9.20       11.82      1.17 o 
  -1  -2   4      593.20      589.86      7.78 o 
   0  -2   4      673.15      668.91      7.72 o 
   1  -2   4      144.88      168.13      2.86 o 
   2  -2   4       94.70      100.19      2.45 o 
   3  -2   4      150.06      148.25      4.06 o 
   4  -2   4      170.29      165.01      3.77 o 
   5  -2   4       14.01       13.68      1.48 o 
   6  -2   4        2.32        0.24      1.22 o 
   7  -2   4       83.13       84.52      3.69 o 
   8  -2   4       44.86       34.17      3.50 o 
   9  -2   4        0.19       -0.15      3.19 o 
  -7  -1   4       25.58       20.68      3.63 o 
  -6  -1   4        1.98        3.10      2.24 o 
  -5  -1   4        7.77       10.41      1.62 o 
  -4  -1   4        0.00       -0.87      0.87 o 
  -3  -1   4        4.06        2.06      1.08 o 
  -2  -1   4        0.09        1.15      0.61 o 
  -1  -1   4     1119.04     1103.38      9.20 o 
   0  -1   4     1190.65     1217.57     10.71 o 
   1  -1   4       33.63       38.97      1.31 o 
   2  -1   4      121.73      120.72      2.80 o 
   3  -1   4       11.73       12.94      1.15 o 
   4  -1   4      112.93      121.92      3.12 o 
   5  -1   4      123.59      111.88      3.33 o 
   6  -1   4       13.43       10.47      1.54 o 
   7  -1   4       54.30       43.99      3.14 o 
   8  -1   4      158.29      170.39      7.29 o 
   9  -1   4        0.77        1.54      4.76 o 
  -7   0   4       10.08        2.45      4.37 o 
  -6   0   4       65.66       64.07      3.89 o 
  -5   0   4       43.57       39.40      2.87 o 
  -4   0   4        0.43        1.22      1.16 o 
  -3   0   4        1.31        1.89      0.86 o 
  -2   0   4       12.04       12.85      1.27 o 
  -1   0   4      523.38      512.46      5.96 o 
   0   0   4      103.60      107.92      1.93 o 
   1   0   4      255.30      285.43      3.52 o 
   2   0   4      101.61      118.89      2.52 o 
   3   0   4       22.43       22.77      1.36 o 
   4   0   4       28.97       26.74      1.71 o 
   5   0   4       65.17       58.37      2.54 o 
   6   0   4       12.19        6.13      1.39 o 
   7   0   4        1.58        0.36      2.00 o 
   8   0   4       59.02       65.29      4.98 o 
   9   0   4        0.78       -1.48      5.33 o 
  -7   1   4        3.98        3.90      6.23 o 
  -6   1   4        0.95        4.03      2.46 o 
  -5   1   4        1.47        0.44      1.55 o 
  -4   1   4        2.28        4.59      1.27 o 
  -3   1   4        8.34       10.90      1.32 o 
  -2   1   4      657.86      654.49      7.56 o 
  -1   1   4      172.74      175.69      3.07 o 
   0   1   4       15.81       17.98      1.16 o 
   1   1   4       20.67       31.58      1.22 o 
   2   1   4        0.20       -0.25      0.36 o 
   3   1   4      145.56      148.11      2.85 o 
   4   1   4      318.36      342.47      6.71 o 
   5   1   4      202.39      209.01      4.33 o 
   6   1   4      100.99      114.72      3.65 o 
   7   1   4      168.88      163.18      4.67 o 
   8   1   4        1.31        6.20      2.67 o 
   9   1   4        2.78        5.72      3.70 o 
  -7   2   4        1.54       -0.43      2.92 o 
  -6   2   4       12.59       10.64      2.32 o 
  -5   2   4       12.86        9.29      2.03 o 
  -4   2   4        3.86        2.67      1.38 o 
  -3   2   4      611.26      611.37      8.87 o 
  -2   2   4      271.22      246.11      5.37 o 
  -1   2   4        7.16        5.96      0.80 o 
   0   2   4      713.10      735.67      6.42 o 
   1   2   4     1257.63     1309.87      9.91 o 
   2   2   4       19.12       18.74      0.89 o 
   3   2   4      130.56      135.66      2.48 o 
   4   2   4       59.00       70.42      1.93 o 
   5   2   4      514.96      513.16      5.59 o 
   6   2   4       93.49       99.50      2.93 o 
   7   2   4      137.90      136.19      4.04 o 
   8   2   4        6.82        5.05      2.20 o 
   9   2   4        5.29        8.29      2.62 o 
  -7   3   4        6.02        8.63      2.96 o 
  -6   3   4       74.22       66.52      4.33 o 
  -5   3   4      138.03      146.09      5.55 o 
  -4   3   4        0.55       -1.12      1.25 o 
  -3   3   4        0.00       -0.93      1.03 o 
  -2   3   4       84.92       86.00      2.62 o 
  -1   3   4       24.24       22.86      1.29 o 
   0   3   4        2.67        0.57      0.36 o 
   1   3   4      336.96      331.39      3.91 o 
   2   3   4      212.56      241.27      3.27 o 
   3   3   4      297.55      305.55      4.57 o 
   4   3   4      466.92      508.19      5.57 o 
   5   3   4      170.74      176.78      3.16 o 
   6   3   4       14.68       13.49      1.37 o 
   7   3   4        8.03       10.84      1.52 o 
   8   3   4       15.13       13.52      2.08 o 
   9   3   4       30.78       27.96      4.25 o 
  -6   4   4       11.02       11.35      3.27 o 
  -5   4   4       23.18       19.53      2.54 o 
  -4   4   4      723.02      726.09     13.57 o 
  -3   4   4        3.15        2.77      1.14 o 
  -2   4   4       10.13       10.68      1.08 o 
  -1   4   4      583.05      606.24      5.81 o 
   0   4   4      152.80      162.13      3.03 o 
   1   4   4      132.29      130.82      2.28 o 
   2   4   4       37.35       35.80      1.18 o 
   3   4   4      381.18      403.80      4.25 o 
   4   4   4      781.91      865.09      9.03 o 
   5   4   4        2.49        2.12      0.84 o 
   6   4   4       25.06       29.89      1.94 o 
   7   4   4        1.55       -0.61      1.21 o 
   8   4   4        5.01        9.34      2.83 o 
   9   4   4        5.32        1.12      2.48 o 
  -6   5   4       13.83        7.56      3.66 o 
  -5   5   4        1.69        2.19      2.47 o 
  -4   5   4        0.82        2.62      1.94 o 
  -3   5   4       90.63       87.66      3.36 o 
  -2   5   4      114.30       98.86      3.01 o 
  -1   5   4       64.63       58.95      2.62 o 
   0   5   4      100.80       98.42      2.37 o 
   1   5   4        2.59        1.25      0.63 o 
   2   5   4      145.75      143.01      2.16 o 
   3   5   4        7.53        5.89      0.74 o 
   4   5   4       15.79       14.91      1.12 o 
   5   5   4       13.19       12.23      1.24 o 
   6   5   4        5.95        4.47      1.57 o 
   7   5   4       33.85       30.76      3.38 o 
   8   5   4       31.39       31.35      3.26 o 
   9   5   4      212.13      248.41     13.47 o 
  -6   6   4        4.02       -0.59      3.07 o 
  -5   6   4      142.56      143.17      5.75 o 
  -4   6   4       24.60       22.55      2.43 o 
  -3   6   4      123.28      114.78      4.40 o 
  -2   6   4      221.95      207.66      4.21 o 
  -1   6   4       21.35       25.91      1.86 o 
   0   6   4       63.68       60.47      1.89 o 
   1   6   4      107.57      113.16      2.07 o 
   2   6   4      437.12      452.00      6.56 o 
   3   6   4       53.68       59.73      1.83 o 
   4   6   4      150.59      163.62      3.07 o 
   5   6   4      104.16      101.57      3.25 o 
   6   6   4       10.03        6.79      1.95 o 
   7   6   4        3.46        9.98      2.43 o 
   8   6   4       13.02        9.25      3.53 o 
  -5   7   4        0.00        0.97      1.97 o 
  -4   7   4        0.50        0.65      2.29 o 
  -3   7   4      100.01       94.29      3.75 o 
  -2   7   4       19.01       20.64      2.05 o 
  -1   7   4       15.03       12.31      1.57 o 
   0   7   4        0.32        0.08      1.07 o 
   1   7   4       28.24       30.53      1.72 o 
   2   7   4      352.97      347.20      6.17 o 
   3   7   4      118.52      123.45      3.86 o 
   4   7   4       16.76       18.87      1.39 o 
   5   7   4       15.39       13.70      1.29 o 
   6   7   4       87.04       90.84      3.80 o 
   7   7   4        1.89        2.16      2.39 o 
   8   7   4      113.75      133.45     10.31 o 
  -4   8   4       12.17       11.33      2.41 o 
  -3   8   4       21.86       18.70      2.44 o 
  -2   8   4       22.42       18.10      2.24 o 
  -1   8   4       24.86       20.21      2.28 o 
   0   8   4       32.53       34.88      1.91 o 
   1   8   4       91.52       90.12      4.08 o 
   2   8   4       24.80       26.80      2.58 o 
   3   8   4       63.76       62.09      4.62 o 
   4   8   4        9.12       11.04      1.53 o 
   5   8   4        3.31        2.62      1.25 o 
   6   8   4       14.79       12.54      2.07 o 
   7   8   4        4.91        4.77      3.84 o 
   8   8   4       18.38       17.24      4.39 o 
  -4   9   4        3.80        8.50      3.87 o 
  -3   9   4        4.95       11.37      2.20 o 
  -2   9   4       15.14       12.60      2.55 o 
  -1   9   4       13.21       15.86      2.18 o 
   0   9   4        9.78        7.20      1.44 o 
   1   9   4       65.45       65.43      2.98 o 
   2   9   4       35.96       30.99      3.57 o 
   3   9   4        2.11        7.27      3.51 o 
   4   9   4        6.04        1.70      1.42 o 
   5   9   4       44.28       41.50      2.36 o 
   6   9   4       35.48       43.36      3.41 o 
   7   9   4       11.70        5.11      4.30 o 
  -3  10   4        0.05       -1.48      2.80 o 
  -2  10   4        1.74        2.18      2.70 o 
  -1  10   4       15.99       11.02      2.10 o 
   0  10   4        1.00        4.78      2.14 o 
   1  10   4       15.32        8.50      2.06 o 
   2  10   4        0.01        9.38      3.23 o 
   3  10   4       15.93       15.58      3.99 o 
   4  10   4        3.56        0.20      1.75 o 
   5  10   4       44.58       44.70      4.17 o 
   6  10   4        7.78       17.66      3.55 o 
  -2  11   4       12.47       13.59      4.07 o 
  -1  11   4       20.79       12.59      3.35 o 
   0  11   4        4.43        4.50      2.48 o 
   1  11   4        6.81        8.75      2.16 o 
   2  11   4       28.57       26.27      5.09 o 
   3  11   4        0.12        2.17      4.10 o 
   4  11   4        0.34       -1.78      3.18 o 
   5  11   4        5.29        3.35      2.49 o 
   0  12   4        1.34       -2.95      2.95 o 
   1  12   4        1.86        2.41      3.84 o 
   2  12   4       51.04       43.50      8.53 o 
   3  12   4        1.24        5.52      6.02 o 
   4  12   4        0.53       -1.48      3.87 o 
  -1 -11   5        5.87       -3.67      3.67 o 
   0 -11   5        7.42       10.58      3.19 o 
   1 -11   5        8.51        2.88      3.07 o 
   2 -11   5        0.57       -0.88      3.03 o 
  -3 -10   5       56.36       63.38      8.66 o 
  -2 -10   5       17.29       11.85      4.66 o 
  -1 -10   5       40.20       40.62      4.59 o 
   0 -10   5        0.21        2.50      2.41 o 
   1 -10   5       13.48        6.69      2.83 o 
   2 -10   5        3.67        6.75      2.05 o 
   3 -10   5        0.42       -0.70      2.27 o 
   4 -10   5       70.70       78.82      5.45 o 
  -4  -9   5       33.39       26.62      5.71 o 
  -3  -9   5      145.93      142.14      6.55 o 
  -2  -9   5       11.65        6.14      3.17 o 
  -1  -9   5        0.22       -0.71      1.37 o 
   0  -9   5        2.06       -0.03      1.26 o 
   1  -9   5       17.24       16.89      2.14 o 
   2  -9   5       12.30        8.84      2.12 o 
   3  -9   5       39.96       43.44      3.52 o 
   4  -9   5       27.64       21.85      3.25 o 
   5  -9   5        5.70        1.65      3.78 o 
  -4  -8   5       54.59       67.18      5.21 o 
  -3  -8   5        0.74        1.55      1.81 o 
  -2  -8   5      210.19      209.45      5.67 o 
  -1  -8   5      126.61      132.76      4.85 o 
   0  -8   5       22.40       17.41      2.03 o 
   1  -8   5       76.64       78.98      3.43 o 
   2  -8   5       55.62       43.02      4.75 o 
   3  -8   5       49.40       53.46      3.45 o 
   4  -8   5       14.26       10.84      2.07 o 
   5  -8   5       10.67        6.61      2.85 o 
   6  -8   5        3.27        3.06      2.88 o 
  -5  -7   5        6.90        3.20      3.28 o 
  -4  -7   5       16.05       14.98      2.95 o 
  -3  -7   5       23.44       21.02      2.31 o 
  -2  -7   5       60.86       53.78      3.98 o 
  -1  -7   5      220.87      222.87      5.17 o 
   0  -7   5      116.93      117.91      3.49 o 
   1  -7   5        1.74        0.53      1.07 o 
   2  -7   5        5.81        5.66      1.39 o 
   3  -7   5       86.58       75.83      3.66 o 
   4  -7   5       21.09       15.79      2.36 o 
   5  -7   5       19.18       16.44      2.84 o 
   6  -7   5        1.26        1.11      2.02 o 
   7  -7   5        6.83        5.88      3.07 o 
  -5  -6   5        1.22        5.73      2.88 o 
  -4  -6   5        1.24        2.58      1.67 o 
  -3  -6   5       30.21       27.42      3.08 o 
  -2  -6   5       21.54       19.41      1.91 o 
  -1  -6   5      460.29      454.10      6.54 o 
   0  -6   5       11.56       12.21      1.36 o 
   1  -6   5       90.68       87.10      2.82 o 
   2  -6   5      106.79       97.49      3.52 o 
   3  -6   5       39.71       37.92      2.55 o 
   4  -6   5       51.72       57.30      3.65 o 
   5  -6   5       74.99       74.28      4.13 o 
   6  -6   5        0.91       -1.37      1.86 o 
   7  -6   5        0.17       -2.32      2.32 o 
  -6  -5   5        3.11        0.80      3.15 o 
  -5  -5   5       43.21       43.18      3.18 o 
  -4  -5   5       41.57       41.48      4.95 o 
  -3  -5   5       46.75       46.68      3.34 o 
  -2  -5   5      187.05      177.36      4.28 o 
  -1  -5   5        0.00       -1.26      1.26 o 
   0  -5   5        0.43       -0.58      0.91 o 
   1  -5   5      226.29      218.86      4.01 o 
   2  -5   5      197.39      201.24      4.67 o 
   3  -5   5        6.80        8.22      1.39 o 
   4  -5   5        8.66       12.65      1.87 o 
   5  -5   5      175.67      149.76      8.86 o 
   6  -5   5       24.29       28.37      2.93 o 
   7  -5   5        3.69        2.47      4.71 o 
   8  -5   5        0.00       -2.68      2.94 o 
  -6  -4   5       40.72       39.47      3.70 o 
  -5  -4   5        2.47        3.66      1.60 o 
  -4  -4   5        2.43       -1.07      1.43 o 
  -3  -4   5        3.96        1.33      1.16 o 
  -2  -4   5       58.58       60.86      2.71 o 
  -1  -4   5      135.63      131.33      3.61 o 
   0  -4   5      902.48      891.79      8.04 o 
   1  -4   5      350.13      361.16      5.11 o 
   2  -4   5        3.68        3.00      0.93 o 
   3  -4   5       97.65      102.66      3.16 o 
   4  -4   5       87.51       84.09      2.99 o 
   5  -4   5      198.12      202.89      5.61 o 
   6  -4   5       10.86        8.58      1.84 o 
   7  -4   5        0.01        1.98      2.14 o 
   8  -4   5        0.50        1.77      3.43 o 
  -6  -3   5        4.84        6.27      3.12 o 
  -5  -3   5      137.22      151.04      5.05 o 
  -4  -3   5       54.72       55.46      4.14 o 
  -3  -3   5       82.42       81.60      3.80 o 
  -2  -3   5      379.31      389.29      7.02 o 
  -1  -3   5       11.37       10.08      1.01 o 
   0  -3   5      313.67      301.59      4.13 o 
   1  -3   5      366.31      393.43      5.27 o 
   2  -3   5      354.93      361.74      5.45 o 
   3  -3   5        6.36        6.12      1.07 o 
   4  -3   5      142.69      136.98      3.34 o 
   5  -3   5       45.15       40.26      2.84 o 
   6  -3   5        0.42        4.52      1.34 o 
   7  -3   5       12.14       14.12      2.14 o 
   8  -3   5       41.64       35.43      4.06 o 
  -6  -2   5       37.40       40.02      3.41 o 
  -5  -2   5       12.32        6.54      1.77 o 
  -4  -2   5        0.65        2.95      1.30 o 
  -3  -2   5        1.29       -0.35      0.84 o 
  -2  -2   5        0.12        2.11      0.88 o 
  -1  -2   5     1668.51     1720.16     13.76 o 
   0  -2   5      786.51      794.12      9.65 o 
   1  -2   5       18.28       15.11      1.05 o 
   2  -2   5      385.71      403.70      5.58 o 
   3  -2   5        0.72        0.56      0.69 o 
   4  -2   5      465.49      471.40      6.76 o 
   5  -2   5       67.48       66.79      3.04 o 
   6  -2   5        0.04        2.32      1.89 o 
   7  -2   5       48.42       46.30      3.59 o 
   8  -2   5        4.13        5.75      2.10 o 
   9  -2   5       22.70       27.75      4.84 o 
  -6  -1   5       11.87       10.88      2.53 o 
  -5  -1   5       44.63       48.35      4.12 o 
  -4  -1   5      209.27      227.10      5.10 o 
  -3  -1   5        9.82        9.51      1.52 o 
  -2  -1   5       15.34       15.11      1.30 o 
  -1  -1   5       62.72       67.31      1.83 o 
   0  -1   5       37.34       38.07      1.56 o 
   1  -1   5       15.82       16.94      1.18 o 
   2  -1   5      213.56      240.92      3.85 o 
   3  -1   5       20.76       25.35      1.74 o 
   4  -1   5        0.79        0.10      0.71 o 
   5  -1   5        0.09       -0.10      0.87 o 
   6  -1   5      112.09      116.35      4.46 o 
   7  -1   5      404.92      392.82      7.79 o 
   8  -1   5       13.59       11.98      2.55 o 
   9  -1   5       15.18       10.99      7.64 o 
  -6   0   5       11.09        9.88      2.28 o 
  -5   0   5       88.71      111.01      4.56 o 
  -4   0   5       42.77       45.19      3.17 o 
  -3   0   5       63.38       64.88      2.83 o 
  -2   0   5       11.04       12.47      1.29 o 
  -1   0   5       28.37       27.82      1.43 o 
   0   0   5      443.91      477.79      5.24 o 
   1   0   5     1406.55     1595.56     14.86 o 
   2   0   5        1.60        3.17      0.69 o 
   3   0   5       47.58       56.12      2.17 o 
   4   0   5      183.20      184.71      4.11 o 
   5   0   5       63.89       65.66      2.60 o 
   6   0   5      222.35      226.28      5.32 o 
   7   0   5       92.40       95.93      4.78 o 
   8   0   5       17.53       13.36      2.91 o 
   9   0   5        0.44        2.19      2.89 o 
  -6   1   5        2.54        2.80      2.01 o 
  -5   1   5       73.61       84.10      4.15 o 
  -4   1   5       14.68       18.93      2.42 o 
  -3   1   5       20.67       21.69      2.32 o 
  -2   1   5      519.83      532.69      6.97 o 
  -1   1   5      103.66      101.30      2.97 o 
   0   1   5      246.02      264.81      4.83 o 
   1   1   5       94.12      102.70      2.66 o 
   2   1   5      854.46      911.48      9.11 o 
   3   1   5      561.69      585.70      6.92 o 
   4   1   5        7.48        7.87      1.05 o 
   5   1   5       91.01       89.09      2.85 o 
   6   1   5      208.89      198.47      5.21 o 
   7   1   5      124.30      117.58      4.79 o 
   8   1   5        0.99        3.20      2.25 o 
   9   1   5        6.21       10.08      3.21 o 
  -6   2   5      142.59      151.33      7.46 o 
  -5   2   5       78.06       85.48      5.35 o 
  -4   2   5       14.70       14.12      2.53 o 
  -3   2   5       38.76       33.10      2.74 o 
  -2   2   5        0.60        2.49      0.93 o 
  -1   2   5      195.98      184.01      4.07 o 
   0   2   5       90.33      102.45      2.51 o 
   1   2   5      261.47      260.65      3.98 o 
   2   2   5        1.83        0.91      0.39 o 
   3   2   5       69.97       64.82      1.98 o 
   4   2   5       28.75       31.41      1.49 o 
   5   2   5       20.99       23.74      1.63 o 
   6   2   5       12.08       10.18      1.23 o 
   7   2   5       58.18       54.42      2.73 o 
   8   2   5        0.27        2.43      2.60 o 
   9   2   5        2.31        2.35      3.40 o 
  -6   3   5        5.22        5.03      3.83 o 
  -5   3   5        0.00        0.34      3.51 o 
  -4   3   5       63.74       63.86      4.28 o 
  -3   3   5      376.69      376.32      7.38 o 
  -2   3   5        0.36        3.30      1.04 o 
  -1   3   5      273.71      289.30      4.69 o 
   0   3   5      151.28      154.80      2.83 o 
   1   3   5      451.21      442.93      4.75 o 
   2   3   5      575.53      594.58      5.80 o 
   3   3   5      209.05      231.78      3.29 o 
   4   3   5       29.13       32.61      1.76 o 
   5   3   5        2.63        2.72      0.79 o 
   6   3   5       99.96       91.81      2.59 o 
   7   3   5        5.31        7.87      1.56 o 
   8   3   5        0.26        0.17      1.72 o 
   9   3   5        1.25       -0.80      2.80 o 
  -6   4   5       24.88       23.51      3.53 o 
  -5   4   5       21.66       20.38      2.96 o 
  -4   4   5      141.63      144.65      5.92 o 
  -3   4   5       68.66       56.60      2.88 o 
  -2   4   5      368.68      375.33      5.99 o 
  -1   4   5       73.56       73.03      2.24 o 
   0   4   5      657.09      630.74      5.81 o 
   1   4   5      199.78      194.65      2.89 o 
   2   4   5       35.39       35.50      1.46 o 
   3   4   5       16.53       18.94      1.26 o 
   4   4   5      179.38      181.10      3.45 o 
   5   4   5       14.41       10.28      1.29 o 
   6   4   5        6.81        3.66      0.85 o 
   7   4   5        0.10       -0.59      1.56 o 
   8   4   5       48.04       52.63      4.07 o 
   9   4   5       20.02       25.85      3.55 o 
  -5   5   5       15.07       21.45      4.80 o 
  -4   5   5        1.17        0.72      1.71 o 
  -3   5   5       85.37       76.02      3.52 o 
  -2   5   5      450.51      447.82      7.38 o 
  -1   5   5       40.23       33.33      2.48 o 
   0   5   5      175.15      177.47      3.33 o 
   1   5   5      146.05      155.61      2.64 o 
   2   5   5        0.15        1.00      0.57 o 
   3   5   5      765.70      795.96      7.68 o 
   4   5   5       48.19       51.57      1.82 o 
   5   5   5       21.17       24.02      1.76 o 
   6   5   5       13.06        9.22      2.01 o 
   7   5   5        4.80        6.15      2.47 o 
   8   5   5       33.09       36.04      4.62 o 
   9   5   5        7.64        6.36      4.53 o 
  -5   6   5       96.35      101.59      5.76 o 
  -4   6   5        0.09        1.15      1.75 o 
  -3   6   5      139.74      148.35      4.76 o 
  -2   6   5        0.12        1.17      0.99 o 
  -1   6   5        4.40        4.71      1.37 o 
   0   6   5        3.96        5.34      0.94 o 
   1   6   5        2.42        1.01      0.64 o 
   2   6   5      118.21      117.23      2.17 o 
   3   6   5      426.88      446.79      5.95 o 
   4   6   5       91.95       93.29      2.38 o 
   5   6   5       12.49       17.64      1.83 o 
   6   6   5       34.54       32.49      2.39 o 
   7   6   5       18.46       23.56      3.64 o 
   8   6   5        0.25        4.92      2.69 o 
  -4   7   5        0.18        1.24      2.38 o 
  -3   7   5      137.91      154.06      6.26 o 
  -2   7   5       12.20        3.14      2.14 o 
  -1   7   5        0.12       -0.24      1.22 o 
   0   7   5       34.47       35.71      1.88 o 
   1   7   5        9.77        8.16      0.94 o 
   2   7   5      185.83      179.30      3.80 o 
   3   7   5       14.18       22.21      2.01 o 
   4   7   5      231.49      236.33      4.95 o 
   5   7   5      191.52      183.52      3.81 o 
   6   7   5        0.05       -0.54      1.15 o 
   7   7   5       26.73       19.59      7.05 o 
   8   7   5       41.59       42.70      5.92 o 
  -4   8   5        5.70        0.75      2.87 o 
  -3   8   5        1.07        4.33      3.68 o 
  -2   8   5        2.00        3.00      2.29 o 
  -1   8   5        9.54        8.66      1.66 o 
   0   8   5        0.59        1.27      1.05 o 
   1   8   5       72.38       75.86      2.94 o 
   2   8   5       61.39       57.08      2.64 o 
   3   8   5      180.35      180.47      5.24 o 
   4   8   5       14.95       14.07      2.28 o 
   5   8   5        0.08        3.98      1.41 o 
   6   8   5       17.22       18.38      1.80 o 
   7   8   5       11.23        8.16      2.70 o 
   8   8   5       26.73       34.53      5.43 o 
  -3   9   5       11.27       14.61      7.22 o 
  -2   9   5       42.63       43.42      5.30 o 
  -1   9   5       25.60       19.55      3.92 o 
   0   9   5       25.87       28.78      2.45 o 
   1   9   5       58.27       57.01      2.80 o 
   2   9   5        0.97       -2.20      3.80 o 
   3   9   5      275.07      284.71     12.34 o 
   4   9   5       72.80       60.94      3.44 o 
   5   9   5       21.78       16.37      2.60 o 
   6   9   5        0.22        5.96      2.01 o 
   7   9   5       15.78       23.41      4.12 o 
  -2  10   5       20.99       26.96      4.74 o 
  -1  10   5        0.03       -0.41      5.07 o 
   0  10   5       78.86       70.35      6.26 o 
   1  10   5       21.56       18.20      2.96 o 
   2  10   5        3.56        2.50      2.46 o 
   3  10   5       12.16        5.32      3.33 o 
   4  10   5        1.45        1.53      4.05 o 
   5  10   5        8.38       12.04      2.47 o 
   6  10   5       10.65        2.34      2.90 o 
  -1  11   5       22.35       23.74      4.11 o 
   0  11   5       19.06       17.31      3.26 o 
   1  11   5        4.80        5.16      3.40 o 
   2  11   5       73.46       89.77      8.47 o 
   3  11   5       13.99       14.04      6.10 o 
   4  11   5        5.33        3.01      4.93 o 
   5  11   5        0.01        1.41      2.87 o 
   1  12   5       49.33       60.18     16.09 o 
   2  12   5       58.80       88.50     22.82 o 
   3  12   5        1.67       -3.59      5.43 o 
  -1 -10   6        2.11        3.13      3.02 o 
   0 -10   6       60.49       78.07      5.08 o 
   1 -10   6        2.30        8.56      3.00 o 
   2 -10   6        0.02       -2.52      2.52 o 
   3 -10   6        0.37       -0.74      4.04 o 
  -3  -9   6       11.75        4.20      3.39 o 
  -2  -9   6       55.45       41.75      4.15 o 
  -1  -9   6        0.05        0.79      2.95 o 
   0  -9   6       18.84       18.73      2.22 o 
   1  -9   6        7.38        4.45      1.83 o 
   2  -9   6        2.28        2.63      1.71 o 
   3  -9   6       27.87       25.79      3.06 o 
   4  -9   6        0.20        1.73      2.32 o 
   5  -9   6       37.30       43.32      4.36 o 
  -4  -8   6       18.47        7.34      4.27 o 
  -3  -8   6       30.28       29.27      3.82 o 
  -2  -8   6       16.44       10.07      2.47 o 
  -1  -8   6        2.36        6.63      2.28 o 
   0  -8   6       11.84        7.42      3.03 o 
   1  -8   6       13.00        8.39      1.62 o 
   2  -8   6       16.39       12.95      2.55 o 
   3  -8   6        1.01        5.72      2.46 o 
   4  -8   6        0.01       -1.44      1.44 o 
   5  -8   6        0.01        0.83      3.37 o 
   6  -8   6       37.18       35.56      3.71 o 
  -4  -7   6        1.15        3.03      3.75 o 
  -3  -7   6        1.63        0.59      2.02 o 
  -2  -7   6       69.34       63.62      4.98 o 
  -1  -7   6       88.59       87.63      4.80 o 
   0  -7   6       48.22       38.02      2.62 o 
   1  -7   6       18.68       21.76      2.23 o 
   2  -7   6      152.56      153.07      4.98 o 
   3  -7   6       43.50       43.93      3.49 o 
   4  -7   6        4.99        2.24      2.73 o 
   5  -7   6        4.46        7.18      3.04 o 
   6  -7   6        1.98        2.94      2.56 o 
  -5  -6   6       36.42       40.60      4.90 o 
  -4  -6   6        2.13        3.50      2.51 o 
  -3  -6   6        8.74       11.06      2.07 o 
  -2  -6   6        3.42       -1.45      1.95 o 
  -1  -6   6       13.33       14.11      2.21 o 
   0  -6   6      557.41      551.62      8.26 o 
   1  -6   6       46.21       44.62      2.66 o 
   2  -6   6        1.15       -0.15      1.19 o 
   3  -6   6        0.04       -0.79      1.38 o 
   4  -6   6       62.78       58.13      3.79 o 
   5  -6   6        3.05       -1.30      1.30 o 
   6  -6   6       24.69       21.34      3.14 o 
   7  -6   6        5.56        5.35      5.51 o 
  -5  -5   6        1.22        2.61      2.55 o 
  -4  -5   6        6.72        6.11      2.63 o 
  -3  -5   6       67.68       71.74      3.90 o 
  -2  -5   6       48.63       49.48      3.18 o 
  -1  -5   6       27.92       31.03      2.57 o 
   0  -5   6      183.60      184.43      3.99 o 
   1  -5   6      134.88      130.23      3.80 o 
   2  -5   6      157.97      156.12      4.75 o 
   3  -5   6       63.71       70.04      3.54 o 
   4  -5   6       16.75       16.44      2.23 o 
   5  -5   6       18.27       12.93      2.29 o 
   6  -5   6      193.53      183.49      6.64 o 
   7  -5   6       13.84       11.72      2.58 o 
   8  -5   6        3.52        3.53      2.89 o 
  -5  -4   6        2.14        2.77      3.06 o 
  -4  -4   6        0.55       -0.22      1.63 o 
  -3  -4   6        0.29        2.87      1.55 o 
  -2  -4   6       13.82       13.98      1.86 o 
  -1  -4   6      489.26      490.94      7.32 o 
   0  -4   6      329.20      312.30      5.09 o 
   1  -4   6      658.63      641.78      7.88 o 
   2  -4   6      453.16      456.42      7.78 o 
   3  -4   6        1.36        2.27      1.08 o 
   4  -4   6       12.47       14.11      1.99 o 
   5  -4   6        0.20        1.57      1.76 o 
   6  -4   6       10.07        4.22      1.91 o 
   7  -4   6        7.63       10.08      2.27 o 
   8  -4   6       13.08        5.68      5.12 o 
  -6  -3   6       18.73       21.41      3.65 o 
  -5  -3   6       37.80       34.85      2.98 o 
  -4  -3   6       13.49       17.74      2.28 o 
  -3  -3   6       77.23       87.19      4.59 o 
  -2  -3   6        6.22        8.91      1.59 o 
  -1  -3   6       24.21       28.49      2.14 o 
   0  -3   6        1.04        2.08      0.68 o 
   1  -3   6        1.42        1.42      0.86 o 
   2  -3   6      163.11      161.38      3.72 o 
   3  -3   6      689.69      670.37      8.57 o 
   4  -3   6      323.80      328.08      7.41 o 
   5  -3   6      244.77      246.45      5.99 o 
   6  -3   6      137.93      130.83      6.71 o 
   7  -3   6        1.21       -0.46      1.61 o 
   8  -3   6       52.64       53.99      5.23 o 
  -6  -2   6       39.11       35.32      4.98 o 
  -5  -2   6      191.87      218.30      6.15 o 
  -4  -2   6       21.00       15.35      2.37 o 
  -3  -2   6       28.59       29.19      2.40 o 
  -2  -2   6      221.35      216.73      5.49 o 
  -1  -2   6      783.98      801.12      8.95 o 
   0  -2   6      196.40      198.62      4.31 o 
   1  -2   6      187.36      181.47      3.98 o 
   2  -2   6       33.36       33.04      2.18 o 
   3  -2   6      241.55      241.37      4.58 o 
   4  -2   6      161.45      153.59      4.27 o 
   5  -2   6        3.35        4.95      1.34 o 
   6  -2   6        4.85        6.56      1.80 o 
   7  -2   6        1.02        4.21      2.35 o 
   8  -2   6        7.06        0.14      2.22 o 
   9  -2   6       12.17        9.94      3.88 o 
  -6  -1   6        0.08       -1.25      7.35 o 
  -5  -1   6        9.76        9.64      2.05 o 
  -4  -1   6      375.08      391.24      7.29 o 
  -3  -1   6      224.31      238.60      4.88 o 
  -2  -1   6      103.97      107.95      3.15 o 
  -1  -1   6       56.32       59.68      1.90 o 
   0  -1   6       29.60       33.16      1.81 o 
   1  -1   6       46.51       44.37      1.71 o 
   2  -1   6      763.26      800.60      8.47 o 
   3  -1   6      375.88      375.85      5.99 o 
   4  -1   6      344.96      341.63      5.88 o 
   5  -1   6       18.57       19.70      1.88 o 
   6  -1   6       45.10       48.72      3.62 o 
   7  -1   6       16.55       12.52      2.48 o 
   8  -1   6        0.21       -0.63      2.77 o 
   9  -1   6       29.33       21.86      4.66 o 
  -6   0   6       35.85       22.50      4.93 o 
  -5   0   6       46.10       51.98      5.64 o 
  -4   0   6      191.17      181.54      5.68 o 
  -3   0   6       94.77       97.70      3.67 o 
  -2   0   6      595.64      612.41     11.16 o 
  -1   0   6      235.55      243.74      4.39 o 
   0   0   6        0.72        3.53      0.76 o 
   1   0   6        5.64        7.69      1.09 o 
   2   0   6       44.37       48.24      2.38 o 
   3   0   6      460.46      465.97      6.59 o 
   4   0   6       18.11       20.60      1.66 o 
   5   0   6      104.59      108.66      3.67 o 
   6   0   6       31.41       31.23      2.70 o 
   7   0   6        0.11       -1.52      1.52 o 
   8   0   6       52.14       45.05      4.51 o 
   9   0   6        2.68       -2.54      2.82 o 
  -6   1   6        0.03        4.66      2.59 o 
  -5   1   6        5.57        5.97      3.60 o 
  -4   1   6       25.82       25.72      2.87 o 
  -3   1   6      496.34      504.32     11.22 o 
  -2   1   6      744.90      756.66      9.50 o 
  -1   1   6      177.16      180.23      3.65 o 
   0   1   6       24.62       24.30      1.79 o 
   1   1   6      137.39      147.05      3.61 o 
   2   1   6      492.24      493.80      6.17 o 
   3   1   6       42.96       46.42      2.04 o 
   4   1   6      162.36      167.58      3.89 o 
   5   1   6        0.13        1.05      0.82 o 
   6   1   6      140.31      135.71      3.91 o 
   7   1   6       17.05       15.08      2.81 o 
   8   1   6       89.90       85.68      4.90 o 
   9   1   6       51.27       52.19      5.08 o 
  -6   2   6       13.35        9.29      3.09 o 
  -5   2   6        4.33        6.12      3.30 o 
  -4   2   6       29.68       31.16      3.50 o 
  -3   2   6       72.02       69.06      3.74 o 
  -2   2   6        1.35        0.54      1.14 o 
  -1   2   6      743.33      728.55      7.10 o 
   0   2   6      479.66      482.59      6.89 o 
   1   2   6        1.68        1.54      0.90 o 
   2   2   6       17.97       14.42      1.18 o 
   3   2   6      263.52      277.25      4.40 o 
   4   2   6       42.18       42.27      1.83 o 
   5   2   6        3.73        2.63      0.88 o 
   6   2   6        9.92       10.27      1.40 o 
   7   2   6       19.87       22.74      2.13 o 
   8   2   6        5.80        5.65      1.84 o 
   9   2   6       41.32       40.13      4.09 o 
  -5   3   6       50.40       50.05      4.64 o 
  -4   3   6       77.21       87.91      8.14 o 
  -3   3   6      529.56      558.91     11.58 o 
  -2   3   6        2.74        3.94      1.38 o 
  -1   3   6      147.50      142.12      2.72 o 
   0   3   6      121.30      127.21      2.87 o 
   1   3   6       11.80       15.53      1.32 o 
   2   3   6        0.15        0.07      0.66 o 
   3   3   6      327.10      334.67      4.50 o 
   4   3   6      372.05      380.43      5.43 o 
   5   3   6        0.04        2.12      0.87 o 
   6   3   6        0.39        1.47      1.03 o 
   7   3   6        1.05       -0.76      2.12 o 
   8   3   6        1.21        5.28      2.16 o 
   9   3   6        0.01        4.43      2.76 o 
  -5   4   6        5.12        5.91      3.00 o 
  -4   4   6        3.72        2.11      2.10 o 
  -3   4   6       86.67       82.26      4.65 o 
  -2   4   6       22.32       20.95      2.06 o 
  -1   4   6       85.74       84.37      2.56 o 
   0   4   6       29.46       34.12      1.47 o 
   1   4   6      274.29      251.25      4.81 o 
   2   4   6       14.43       13.59      1.07 o 
   3   4   6       12.56       14.93      1.16 o 
   4   4   6      104.58      110.49      2.88 o 
   5   4   6      110.71      118.45      3.74 o 
   6   4   6      293.59      257.45      5.19 o 
   7   4   6        6.59        5.69      1.67 o 
   8   4   6        3.87        6.83      2.27 o 
   9   4   6        1.91        5.25      2.94 o 
  -5   5   6       74.24       60.83      6.30 o 
  -4   5   6      136.92      144.16      5.81 o 
  -3   5   6       16.10       14.52      2.04 o 
  -2   5   6        0.14        2.68      1.45 o 
  -1   5   6       24.52       24.64      1.86 o 
   0   5   6       37.11       34.51      2.22 o 
   1   5   6        0.70       -0.65      0.65 o 
   2   5   6       13.65       14.03      1.10 o 
   3   5   6      370.61      385.41      5.46 o 
   4   5   6        4.08        3.99      1.29 o 
   5   5   6        2.21        1.28      1.18 o 
   6   5   6        0.03       -0.34      1.81 o 
   7   5   6        7.71        7.19      2.02 o 
   8   5   6        2.29        2.56      3.35 o 
   9   5   6        0.56        1.67      2.78 o 
  -4   6   6       28.08       32.54      3.25 o 
  -3   6   6      102.20      108.93      7.55 o 
  -2   6   6       76.11       79.77      4.00 o 
  -1   6   6       22.53       21.19      2.80 o 
   0   6   6       12.30       11.23      1.78 o 
   1   6   6       11.62       13.12      1.28 o 
   2   6   6        2.63        2.70      0.87 o 
   3   6   6       46.46       49.86      2.02 o 
   4   6   6       91.04       92.77      2.90 o 
   5   6   6      401.94      390.66      6.90 o 
   6   6   6        7.97        6.38      2.09 o 
   7   6   6       83.02       85.56      4.68 o 
   8   6   6       12.76        6.23      3.60 o 
  -4   7   6       21.83       13.78      3.56 o 
  -3   7   6       33.87       29.56      2.79 o 
  -2   7   6       13.82        9.83      2.39 o 
  -1   7   6       34.71       29.04      3.08 o 
   0   7   6       79.03       74.60      2.97 o 
   1   7   6        3.00        4.57      1.19 o 
   2   7   6      370.20      374.51      6.32 o 
   3   7   6       11.05       10.91      2.11 o 
   4   7   6       90.24      102.36      3.29 o 
   5   7   6        0.60        2.10      1.26 o 
   6   7   6       21.48       20.82      2.35 o 
   7   7   6       47.60       34.50      4.66 o 
   8   7   6       17.19       20.25      4.16 o 
  -3   8   6        2.90        3.92      3.33 o 
  -2   8   6        1.33       -1.00      4.25 o 
  -1   8   6        2.06        0.13      1.63 o 
   0   8   6      132.81      121.55      4.16 o 
   1   8   6      169.54      181.41      3.78 o 
   2   8   6       47.73       52.09      2.59 o 
   3   8   6       37.79       39.15      3.19 o 
   4   8   6      154.96      156.00      4.52 o 
   5   8   6       16.19       21.71      2.97 o 
   6   8   6       61.36       52.54      3.85 o 
   7   8   6        0.77        0.96      1.95 o 
   8   8   6       39.71       41.95      5.73 o 
  -2   9   6       28.96       17.30      3.91 o 
  -1   9   6       16.86       23.47      3.11 o 
   0   9   6       14.33       11.26      2.00 o 
   1   9   6       37.29       31.16      2.67 o 
   2   9   6       16.35       17.16      1.77 o 
   3   9   6       33.84       35.61      2.22 o 
   4   9   6       55.72       57.48      4.24 o 
   5   9   6        5.48        6.00      1.57 o 
   6   9   6        0.35        1.42      5.85 o 
   7   9   6       48.62       45.71      5.05 o 
  -1  10   6       15.99       16.47      3.36 o 
   0  10   6       95.85       97.75      5.65 o 
   1  10   6       31.87       28.89      3.06 o 
   2  10   6        2.55        1.58      2.51 o 
   3  10   6       57.45       47.72      5.58 o 
   4  10   6        1.89        0.82      4.06 o 
   5  10   6       27.85       23.51      4.31 o 
   6  10   6       17.56       20.26      7.44 o 
   0  11   6        3.06        3.06      4.73 o 
   1  11   6       24.86       14.46      4.22 o 
   2  11   6       57.81       58.45      4.53 o 
   3  11   6        3.88        2.51      6.10 o 
   4  11   6        2.74        4.60      5.02 o 
   5  11   6        0.04        4.43      5.94 o 
  -1  -9   7        0.06       -1.55      3.03 o 
   0  -9   7        0.93       -1.18      1.98 o 
   1  -9   7        2.78        5.11      4.11 o 
   2  -9   7        0.02        3.75      2.07 o 
   3  -9   7        4.85        4.40      2.62 o 
   4  -9   7        2.37        0.00      2.62 o 
  -3  -8   7        4.06       -3.62      3.62 o 
  -2  -8   7       76.60       69.11      8.68 o 
  -1  -8   7       27.24       22.82      3.36 o 
   0  -8   7       30.90       24.45      2.43 o 
   1  -8   7       50.46       56.72      4.55 o 
   2  -8   7        0.07       -0.31      1.55 o 
   3  -8   7        8.71        5.99      2.83 o 
   4  -8   7        2.86        3.08      2.26 o 
   5  -8   7       13.47       11.83      4.36 o 
  -3  -7   7        0.00       -0.21      2.83 o 
  -2  -7   7        5.97        5.07      2.85 o 
  -1  -7   7       71.41       69.20      5.83 o 
   0  -7   7       94.95       92.09      3.57 o 
   1  -7   7       13.91       15.28      2.18 o 
   2  -7   7       68.85       71.63      3.95 o 
   3  -7   7       51.01       45.56      3.75 o 
   4  -7   7       33.31       41.04      3.42 o 
   5  -7   7        8.36        4.26      3.06 o 
   6  -7   7       14.04       11.53      6.22 o 
  -4  -6   7       19.48       24.61      6.45 o 
  -3  -6   7       51.14       54.10      4.89 o 
  -2  -6   7       40.98       47.87      4.24 o 
  -1  -6   7      227.33      231.91      8.56 o 
   0  -6   7        3.78        2.79      1.30 o 
   1  -6   7      113.28      113.77      4.68 o 
   2  -6   7        1.45       -0.35      1.36 o 
   3  -6   7       40.99       37.17      3.20 o 
   4  -6   7       14.81       14.92      2.45 o 
   5  -6   7       23.26       23.14      2.36 o 
   6  -6   7        6.17        7.27      2.42 o 
   7  -6   7        0.04        3.48      2.72 o 
  -4  -5   7        1.84       -1.87      2.65 o 
  -3  -5   7        0.58       -0.03      2.68 o 
  -2  -5   7        0.11       -2.10      2.10 o 
  -1  -5   7        0.06       -0.55      1.90 o 
   0  -5   7       21.32       25.15      2.18 o 
   1  -5   7      935.01      932.97     11.06 o 
   2  -5   7      265.66      260.20      6.86 o 
   3  -5   7        1.69       -0.56      1.52 o 
   4  -5   7       17.72       15.75      2.47 o 
   5  -5   7       10.36       12.15      4.15 o 
   6  -5   7        5.84        7.90      3.20 o 
   7  -5   7        3.03       -0.32      3.42 o 
  -5  -4   7       21.34       26.81      4.01 o 
  -4  -4   7       32.32       33.80      3.79 o 
  -3  -4   7        0.14        0.88      2.01 o 
  -2  -4   7       18.68       18.77      2.26 o 
  -1  -4   7       39.16       37.77      3.71 o 
   0  -4   7      148.52      147.44      4.06 o 
   1  -4   7       36.89       38.65      2.42 o 
   2  -4   7      678.79      657.32     11.04 o 
   3  -4   7      145.60      160.56      5.21 o 
   4  -4   7        0.06        1.83      1.29 o 
   5  -4   7       61.94       54.81      3.31 o 
   6  -4   7        1.50        0.05      1.80 o 
   7  -4   7        4.02        2.01      2.09 o 
   8  -4   7        0.16       -0.67      3.73 o 
  -5  -3   7        0.97        6.05      2.73 o 
  -4  -3   7       54.71       56.91      4.37 o 
  -3  -3   7        9.28        7.09      2.93 o 
  -2  -3   7       92.48       87.10      5.30 o 
  -1  -3   7      202.10      204.14      4.59 o 
   0  -3   7      582.25      590.36      8.85 o 
   1  -3   7       55.97       57.95      2.69 o 
   2  -3   7      293.03      286.80      6.10 o 
   3  -3   7       58.84       59.26      3.23 o 
   4  -3   7       19.01       21.32      2.54 o 
   5  -3   7      113.59      106.82      4.08 o 
   6  -3   7       62.92       56.03      4.25 o 
   7  -3   7       39.14       35.75      3.48 o 
   8  -3   7       22.60       21.07      3.72 o 
  -5  -2   7       34.03       31.89      3.33 o 
  -4  -2   7       10.40        6.77      2.64 o 
  -3  -2   7        0.33        0.32      1.75 o 
  -2  -2   7       21.43       21.05      2.17 o 
  -1  -2   7      450.04      444.39      6.82 o 
   0  -2   7        1.08        1.27      1.02 o 
   1  -2   7        0.21       -0.09      0.72 o 
   2  -2   7       46.69       40.92      1.91 o 
   3  -2   7      119.49      118.25      3.59 o 
   4  -2   7       74.67       74.61      3.65 o 
   5  -2   7       11.88       12.92      2.07 o 
   6  -2   7       66.40       55.94      7.82 o 
   7  -2   7        9.33        7.27      2.70 o 
   8  -2   7       44.92       37.44      4.10 o 
  -5  -1   7       18.49       10.86      4.41 o 
  -4  -1   7       35.19       39.07      3.04 o 
  -3  -1   7        5.70        5.83      1.48 o 
  -2  -1   7        4.19        3.76      1.58 o 
  -1  -1   7       63.11       64.27      2.84 o 
   0  -1   7       50.69       43.30      2.91 o 
   1  -1   7       84.03       84.83      3.05 o 
   2  -1   7      301.66      314.67      5.18 o 
   3  -1   7        0.17        0.14      0.70 o 
   4  -1   7        7.28        7.94      1.31 o 
   5  -1   7     1480.23     1495.30     19.40 o 
   6  -1   7        9.23       18.76      3.14 o 
   7  -1   7       98.13      101.41      5.16 o 
   8  -1   7        3.06        0.54      2.20 o 
   9  -1   7        8.69        9.43      3.57 o 
  -5   0   7        1.80        0.10      3.16 o 
  -4   0   7       78.51       89.14      5.63 o 
  -3   0   7       60.01       61.38      3.03 o 
  -2   0   7      362.38      359.31      6.32 o 
  -1   0   7        0.77        0.70      1.06 o 
   0   0   7      116.48      123.77      3.52 o 
   1   0   7       31.84       31.06      2.40 o 
   2   0   7      130.03      126.86      2.77 o 
   3   0   7       34.40       37.64      1.93 o 
   4   0   7       15.12       17.24      1.53 o 
   5   0   7      162.61      157.30      4.69 o 
   6   0   7        1.52        3.04      1.28 o 
   7   0   7        3.08        3.43      2.56 o 
   8   0   7        3.27        4.05      2.27 o 
   9   0   7        6.43        9.81      3.42 o 
  -5   1   7       71.68       84.27      5.90 o 
  -4   1   7        7.62        8.42      2.89 o 
  -3   1   7        2.19        5.02      1.92 o 
  -2   1   7      281.07      272.96      5.79 o 
  -1   1   7       19.45       18.06      1.36 o 
   0   1   7        4.12        6.55      1.13 o 
   1   1   7       65.30       70.89      2.77 o 
   2   1   7       90.65       90.97      3.48 o 
   3   1   7       24.92       23.09      1.90 o 
   4   1   7      415.79      402.41      6.66 o 
   5   1   7      161.85      159.04      4.56 o 
   6   1   7      328.11      350.07      7.47 o 
   7   1   7        6.89        3.79      1.93 o 
   8   1   7       80.19       70.56      4.33 o 
   9   1   7        9.82        9.63      2.94 o 
  -5   2   7        0.05        4.88      5.54 o 
  -4   2   7       13.30        9.94      2.92 o 
  -3   2   7       41.13       45.71      4.39 o 
  -2   2   7       14.13       10.19      3.26 o 
  -1   2   7        3.29        2.00      1.09 o 
   0   2   7        5.51        8.33      1.23 o 
   1   2   7       90.55       91.43      2.83 o 
   2   2   7       22.14       27.37      1.69 o 
   3   2   7       52.23       54.29      2.16 o 
   4   2   7      663.18      676.71      7.88 o 
   5   2   7        1.82        2.59      1.04 o 
   6   2   7       85.78       90.90      3.68 o 
   7   2   7        0.01       -1.66      1.66 o 
   8   2   7       84.93       73.59      3.78 o 
   9   2   7        0.13       -1.17      2.50 o 
  -5   3   7       11.63       11.21      3.55 o 
  -4   3   7       55.88       74.47      6.84 o 
  -3   3   7        0.04        4.56      2.08 o 
  -2   3   7       26.90       30.44      2.61 o 
  -1   3   7      450.99      454.97      5.98 o 
   0   3   7      482.14      480.63      7.38 o 
   1   3   7      125.59      115.66      3.24 o 
   2   3   7       51.24       51.84      2.06 o 
   3   3   7       23.68       24.88      1.49 o 
   4   3   7       15.98       13.94      1.66 o 
   5   3   7        3.64        3.01      0.99 o 
   6   3   7      135.88      152.87      4.76 o 
   7   3   7      301.95      290.73      7.16 o 
   8   3   7       32.81       28.36      4.78 o 
   9   3   7       64.80       63.72      8.79 o 
  -4   4   7       61.87       61.84      6.22 o 
  -3   4   7        0.46        3.49      1.87 o 
  -2   4   7       40.13       41.07      3.76 o 
  -1   4   7       21.34       18.16      1.81 o 
   0   4   7      344.57      331.89      5.29 o 
   1   4   7      276.06      275.83      4.98 o 
   2   4   7      185.65      177.11      4.14 o 
   3   4   7      218.60      207.74      4.93 o 
   4   4   7       29.97       28.72      2.05 o 
   5   4   7        4.27        3.48      1.16 o 
   6   4   7       24.18       23.93      2.46 o 
   7   4   7       58.94       56.69      2.93 o 
   8   4   7       12.40        7.60      2.60 o 
   9   4   7       56.12       57.13      7.57 o 
  -4   5   7        0.23        0.60      2.44 o 
  -3   5   7        6.74        7.53      2.83 o 
  -2   5   7       78.39       79.64      5.12 o 
  -1   5   7       39.70       31.98      2.26 o 
   0   5   7      177.21      174.89      4.49 o 
   1   5   7      132.95      134.40      4.46 o 
   2   5   7      210.31      211.83      4.82 o 
   3   5   7      243.17      251.99      4.49 o 
   4   5   7       43.43       47.44      2.38 o 
   5   5   7       51.87       56.34      3.09 o 
   6   5   7       21.98       31.37      3.13 o 
   7   5   7       21.77       17.53      2.53 o 
   8   5   7       39.58       30.41      5.55 o 
   9   5   7        0.92       -1.11      5.60 o 
  -4   6   7        1.92        1.92      2.79 o 
  -3   6   7        0.65        1.29      3.82 o 
  -2   6   7       68.99       65.22      3.85 o 
  -1   6   7       64.54       52.06      3.66 o 
   0   6   7       15.38       14.52      1.83 o 
   1   6   7       74.35       66.65      3.05 o 
   2   6   7      527.95      542.94      7.70 o 
   3   6   7      541.77      556.75      7.77 o 
   4   6   7       24.30       28.64      1.97 o 
   5   6   7      139.82      136.84      4.02 o 
   6   6   7       46.57       52.51      3.23 o 
   7   6   7        1.69        4.04      2.71 o 
   8   6   7        0.31        8.59      3.39 o 
  -3   7   7       17.22       14.49      2.55 o 
  -2   7   7        0.37       -1.74      2.02 o 
  -1   7   7        5.83        3.03      2.80 o 
   0   7   7        1.87        3.25      1.87 o 
   1   7   7      203.86      200.68      5.07 o 
   2   7   7      288.80      296.30      5.15 o 
   3   7   7      208.50      216.64      4.36 o 
   4   7   7       66.52       73.60      2.84 o 
   5   7   7        2.79        1.66      1.91 o 
   6   7   7        2.88        7.55      2.02 o 
   7   7   7        0.60        1.03      2.09 o 
   8   7   7        2.89       -2.69      6.14 o 
  -2   8   7        1.91        4.20      2.70 o 
  -1   8   7        8.39        8.17      2.64 o 
   0   8   7       40.02       36.73      3.38 o 
   1   8   7       73.84       59.74      3.43 o 
   2   8   7       30.65       30.23      2.58 o 
   3   8   7      110.01      118.10      4.07 o 
   4   8   7      465.31      468.96      9.46 o 
   5   8   7       32.25       33.69      5.38 o 
   6   8   7       29.40       29.67      3.07 o 
   7   8   7        7.37        7.58      4.10 o 
  -2   9   7       26.88       26.09      4.46 o 
  -1   9   7        1.20        6.73      6.22 o 
   0   9   7       28.04       33.07      3.43 o 
   1   9   7        9.32        7.46      2.37 o 
   2   9   7       82.32       82.69      3.91 o 
   3   9   7        0.01       -1.53      1.70 o 
   4   9   7        0.53       -0.14      2.96 o 
   5   9   7       65.75       64.80      4.38 o 
   6   9   7       53.35       49.00      4.13 o 
   7   9   7        8.33       15.80      3.76 o 
  -1  10   7       14.70       23.32      7.27 o 
   0  10   7       33.33       32.93      5.56 o 
   1  10   7        3.48        3.37      3.19 o 
   2  10   7       29.37       36.62      4.26 o 
   3  10   7       73.46       77.10      5.24 o 
   4  10   7       27.85       15.48      4.29 o 
   5  10   7       77.75       69.84      7.16 o 
   6  10   7       13.83       17.52      3.52 o 
   1  11   7       13.51       27.49      4.78 o 
   2  11   7        5.82       14.57     12.66 o 
   3  11   7       30.13       26.90      6.30 o 
   4  11   7        6.37        9.81      4.14 o 
   1  -9   8       25.76       21.83      3.04 o 
   2  -9   8       32.47       31.75      3.62 o 
  -1  -8   8       20.03       12.18      3.66 o 
   0  -8   8       25.64       21.39      3.19 o 
   1  -8   8      122.43      126.01      4.63 o 
   2  -8   8       35.07       37.05      3.48 o 
   3  -8   8      177.75      212.89      6.33 o 
   4  -8   8       14.07       10.71      3.11 o 
  -2  -7   8       12.63        9.72      3.15 o 
  -1  -7   8        0.04        1.73      2.25 o 
   0  -7   8        2.02        0.35      2.08 o 
   1  -7   8        1.07       -0.78      1.81 o 
   2  -7   8        3.39       -0.64      2.48 o 
   3  -7   8       11.64       13.14      2.56 o 
   4  -7   8        2.13        2.40      2.16 o 
   5  -7   8        0.47        0.44      2.78 o 
   6  -7   8       30.13       22.67      4.14 o 
  -3  -6   8       54.79       54.29      5.70 o 
  -2  -6   8       39.61       41.37      4.29 o 
  -1  -6   8        0.44       -0.93      2.28 o 
   0  -6   8       17.93       12.79      4.97 o 
   1  -6   8       17.90       20.24      2.59 o 
   2  -6   8       36.46       40.00      3.11 o 
   3  -6   8        1.98        0.41      1.56 o 
   4  -6   8       90.76      111.06      5.48 o 
   5  -6   8      122.74      153.49      7.30 o 
   6  -6   8       34.57       30.08      3.92 o 
  -3  -5   8        7.61        8.87      4.10 o 
  -2  -5   8        0.87       -0.94      3.32 o 
  -1  -5   8       20.28       18.03      2.65 o 
   0  -5   8        8.09        5.86      1.76 o 
   1  -5   8       25.92       27.68      2.45 o 
   2  -5   8       41.79       44.61      3.20 o 
   3  -5   8       34.61       45.03      3.48 o 
   4  -5   8        8.68        7.16      1.88 o 
   5  -5   8        0.67        0.52      3.28 o 
   6  -5   8       16.67       22.28      2.72 o 
   7  -5   8        0.40        1.56      3.87 o 
  -4  -4   8       59.82       85.04      6.22 o 
  -3  -4   8      183.97      213.63      9.58 o 
  -2  -4   8       89.97      100.46      5.57 o 
  -1  -4   8        2.47        2.38      1.28 o 
   0  -4   8       13.51       14.73      2.14 o 
   1  -4   8        2.75        5.74      1.75 o 
   2  -4   8        4.60        4.01      1.75 o 
   3  -4   8        0.43        0.97      1.71 o 
   4  -4   8      149.59      156.61      5.56 o 
   5  -4   8        9.35       10.96      1.74 o 
   6  -4   8       13.93       13.55      2.20 o 
   7  -4   8        2.06        2.22      2.50 o 
  -4  -3   8        2.20        5.25      2.79 o 
  -3  -3   8       19.01       20.58      2.82 o 
  -2  -3   8       19.51       19.28      2.83 o 
  -1  -3   8        6.40        7.21      1.47 o 
   0  -3   8      249.66      245.65      5.74 o 
   1  -3   8      146.79      156.81      5.06 o 
   2  -3   8      120.83      134.42      4.36 o 
   3  -3   8      122.75      114.36      4.29 o 
   4  -3   8       11.62       14.49      2.09 o 
   5  -3   8        0.95        0.49      1.36 o 
   6  -3   8       24.79       19.08      2.63 o 
   7  -3   8        5.21        3.15      2.62 o 
   8  -3   8        0.22       -1.21      3.58 o 
  -4  -2   8       14.78       15.93      4.07 o 
  -3  -2   8       10.07       14.07      2.45 o 
  -2  -2   8        2.26        3.80      2.01 o 
  -1  -2   8      179.25      170.97      6.88 o 
   0  -2   8        1.14        2.43      1.83 o 
   1  -2   8       37.69       32.80      3.01 o 
   2  -2   8       49.53       41.25      2.62 o 
   3  -2   8      367.13      351.20      6.95 o 
   4  -2   8      682.24      717.55     13.20 o 
   5  -2   8       33.31       34.75      3.14 o 
   6  -2   8        9.87       11.37      2.11 o 
   7  -2   8       38.47       44.41      5.41 o 
   8  -2   8        7.85       15.41      5.55 o 
  -4  -1   8       38.95       34.70      4.16 o 
  -3  -1   8       64.74       77.91      4.88 o 
  -2  -1   8       43.44       49.25      3.75 o 
  -1  -1   8      146.94      144.91      4.05 o 
   0  -1   8       37.94       28.84      2.90 o 
   1  -1   8       92.90       86.81      4.59 o 
   2  -1   8       50.44       51.59      4.51 o 
   3  -1   8       43.61       43.14      2.44 o 
   4  -1   8        2.06        2.32      1.22 o 
   5  -1   8        0.02       -0.86      1.41 o 
   6  -1   8      296.47      282.77      8.86 o 
   7  -1   8        1.33       -0.46      2.16 o 
   8  -1   8       11.60       11.06      3.04 o 
  -4   0   8       19.06       19.85      4.18 o 
  -3   0   8       15.67       15.57      2.17 o 
  -2   0   8       83.61       74.15      3.72 o 
  -1   0   8        2.39        3.36      2.02 o 
   0   0   8      130.54      150.35      5.89 o 
   1   0   8      224.57      216.49      5.94 o 
   2   0   8       26.16       31.37      2.65 o 
   3   0   8       82.75       88.68      2.89 o 
   4   0   8        8.91        9.35      1.37 o 
   5   0   8      617.16      638.14     11.65 o 
   6   0   8      288.22      289.56      8.00 o 
   7   0   8       27.18       28.20      4.37 o 
   8   0   8       39.68       33.69      4.22 o 
   9   0   8        5.59        8.00      3.07 o 
  -4   1   8        1.72        8.47      3.20 o 
  -3   1   8        7.15        8.34      2.22 o 
  -2   1   8       19.15       20.54      2.37 o 
  -1   1   8        2.39        5.05      1.41 o 
   0   1   8      158.78      166.25      4.58 o 
   1   1   8      137.33      147.11      4.11 o 
   2   1   8       10.89       11.37      1.67 o 
   3   1   8        6.33        4.38      1.66 o 
   4   1   8      156.27      165.42      5.74 o 
   5   1   8      487.66      477.66      9.30 o 
   6   1   8       48.82       47.66      4.29 o 
   7   1   8      327.02      331.07      9.46 o 
   8   1   8       24.27       22.69      2.96 o 
   9   1   8        0.35        1.22      2.66 o 
  -4   2   8        0.83        3.20      4.71 o 
  -3   2   8       60.89       49.02      4.42 o 
  -2   2   8       48.53       46.01      4.35 o 
  -1   2   8      472.06      494.43      9.74 o 
   0   2   8       36.53       32.62      2.46 o 
   1   2   8       20.19       20.06      1.92 o 
   2   2   8       59.73       57.67      2.76 o 
   3   2   8       32.83       30.73      2.15 o 
   4   2   8      322.38      348.89      7.49 o 
   5   2   8        1.85        3.22      1.22 o 
   6   2   8       76.09       78.38      4.19 o 
   7   2   8       52.17       52.13      4.82 o 
   8   2   8        6.28        9.96      2.75 o 
   9   2   8       12.60       21.57      5.77 o 
  -4   3   8        3.75        2.45      2.54 o 
  -3   3   8       24.77       19.22      3.95 o 
  -2   3   8       12.99       11.22      2.54 o 
  -1   3   8      171.66      179.02      4.75 o 
   0   3   8      169.98      158.33      7.83 o 
   1   3   8       69.41       68.19      3.31 o 
   2   3   8        0.62        0.31      0.85 o 
   3   3   8       37.27       39.07      2.23 o 
   4   3   8      289.96      287.55      4.81 o 
   5   3   8        8.67        7.54      1.71 o 
   6   3   8      124.05      121.14      4.64 o 
   7   3   8       54.30       52.32      3.38 o 
   8   3   8       50.15       33.80      3.66 o 
   9   3   8      112.69       93.96     10.37 o 
  -4   4   8        0.33       -0.15      2.51 o 
  -3   4   8       13.85       12.87      4.86 o 
  -2   4   8       18.56       20.80      2.42 o 
  -1   4   8        3.54        0.38      1.70 o 
   0   4   8       97.44      100.19      3.44 o 
   1   4   8        1.01        0.43      1.54 o 
   2   4   8        1.23        4.20      1.10 o 
   3   4   8      176.18      165.20      5.33 o 
   4   4   8        2.32        1.75      1.23 o 
   5   4   8       64.18       63.04      4.01 o 
   6   4   8        0.00        2.77      1.55 o 
   7   4   8       20.05       18.61      2.54 o 
   8   4   8       52.68       47.69      4.80 o 
   9   4   8        7.33       -2.09      5.43 o 
  -3   5   8        0.35        0.12      3.16 o 
  -2   5   8       47.94       50.44      4.53 o 
  -1   5   8       26.12       26.57      2.24 o 
   0   5   8       35.27       30.92      3.55 o 
   1   5   8      254.59      245.85      7.22 o 
   2   5   8      192.82      192.85      5.97 o 
   3   5   8      103.03       99.33      4.08 o 
   4   5   8        6.15        6.27      1.36 o 
   5   5   8      142.79      145.19      5.14 o 
   6   5   8      180.38      188.13      6.58 o 
   7   5   8       19.45       23.02      3.92 o 
   8   5   8        6.08        3.12      2.90 o 
  -3   6   8        0.03        0.06      2.53 o 
  -2   6   8        5.57        9.15      3.63 o 
  -1   6   8       31.13        8.83      2.21 o 
   0   6   8        0.31       -1.90      1.90 o 
   1   6   8       73.95       72.59      3.65 o 
   2   6   8        0.15       -1.51      1.51 o 
   3   6   8      135.04      143.03      4.37 o 
   4   6   8        3.79        3.34      1.87 o 
   5   6   8        0.51        2.82      1.41 o 
   6   6   8        2.59       -0.38      7.57 o 
   7   6   8        0.20        5.10      2.51 o 
   8   6   8        0.02       -2.03      3.67 o 
  -2   7   8        1.78       -0.25      2.41 o 
  -1   7   8       80.03       84.29      6.63 o 
   0   7   8        0.23        1.18      1.91 o 
   1   7   8       94.26       92.25      4.19 o 
   2   7   8        3.64        5.72      1.61 o 
   3   7   8       48.21       55.19      3.68 o 
   4   7   8        1.11       -0.93      1.49 o 
   5   7   8        8.20        8.94      1.81 o 
   6   7   8       27.48       33.27      4.07 o 
   7   7   8       30.96       25.01      4.01 o 
   8   7   8        6.03        4.98      7.19 o 
  -2   8   8        1.48       -1.77      2.84 o 
  -1   8   8        0.41        2.51      2.89 o 
   0   8   8       88.04       85.17      5.29 o 
   1   8   8       60.35       59.57      3.90 o 
   2   8   8        0.99       -1.32      2.64 o 
   3   8   8        1.69       -0.21      2.40 o 
   4   8   8       63.16       64.25      5.72 o 
   5   8   8        0.62        7.42      2.11 o 
   6   8   8        3.32        2.66      2.63 o 
   7   8   8        1.91       -0.90      2.98 o 
  -1   9   8        2.13        5.16      3.74 o 
   0   9   8      102.29      101.87      8.52 o 
   1   9   8       27.65       28.51      6.61 o 
   2   9   8        6.63       11.05      3.14 o 
   3   9   8       64.69       71.86      6.14 o 
   4   9   8       11.04        7.17      3.19 o 
   5   9   8       72.00       70.76      5.39 o 
   6   9   8       10.79        6.50      5.38 o 
   1  10   8        2.65        3.96      3.66 o 
   2  10   8       28.62       20.60      4.03 o 
   3  10   8       36.90       26.00      4.97 o 
   4  10   8       14.53        9.12      2.85 o 
   5  10   8       23.84       17.29      6.42 o 
   1  -8   9       24.68       27.38      3.26 o 
   2  -8   9       42.37       42.01      3.38 o 
   3  -8   9       31.40       24.88      3.75 o 
  -1  -7   9        5.88       13.38      4.23 o 
   0  -7   9        1.45        4.46      2.32 o 
   1  -7   9        0.90       -2.15      2.15 o 
   2  -7   9       15.05       11.36      2.92 o 
   3  -7   9       21.67       19.15      2.97 o 
   4  -7   9       43.23       47.70      4.92 o 
   5  -7   9        1.82        1.90      2.99 o 
  -2  -6   9       16.17       12.52      3.70 o 
  -1  -6   9        0.24       -0.08      3.27 o 
   0  -6   9      113.09      109.21      6.07 o 
   1  -6   9       28.48       23.08      2.74 o 
   2  -6   9       10.20        5.07      2.45 o 
   3  -6   9        8.83        5.28      2.72 o 
   4  -6   9       30.17       35.53      3.79 o 
   5  -6   9       18.46       20.34      3.15 o 
   6  -6   9        1.13        7.00      4.22 o 
  -2  -5   9        0.10        1.77      3.31 o 
  -1  -5   9        9.26        1.26      2.94 o 
   0  -5   9       34.07       36.48      2.98 o 
   1  -5   9        8.98        6.45      1.88 o 
   2  -5   9        1.84        0.76      1.41 o 
   3  -5   9       28.51       25.19      2.65 o 
   4  -5   9        4.48        1.02      2.77 o 
   5  -5   9       17.71       15.47      4.01 o 
   6  -5   9        0.19        8.90      5.46 o 
  -3  -4   9       34.83       36.08      6.66 o 
  -2  -4   9       30.62       25.03      3.67 o 
  -1  -4   9       26.45       19.37      4.42 o 
   0  -4   9        2.85        4.04      2.57 o 
   1  -4   9        4.43        3.74      1.70 o 
   2  -4   9       27.02       30.48      2.69 o 
   3  -4   9        4.75        4.25      2.16 o 
   4  -4   9       23.16       19.92      2.42 o 
   5  -4   9        0.34       -0.55      2.22 o 
   6  -4   9      151.76      195.12      7.16 o 
   7  -4   9        1.32        3.87      4.25 o 
  -3  -3   9        7.90        5.36      3.10 o 
  -2  -3   9        8.25        6.84      2.44 o 
  -1  -3   9       11.42       13.95      1.90 o 
   0  -3   9        0.63        2.05      2.15 o 
   1  -3   9        9.62        8.39      2.53 o 
   2  -3   9       19.80       14.68      2.07 o 
   3  -3   9       34.20       32.34      2.90 o 
   4  -3   9       19.23       16.23      2.13 o 
   5  -3   9        1.28       -1.96      1.96 o 
   6  -3   9        1.77        1.66      3.03 o 
   7  -3   9      145.21      158.31      7.32 o 
  -3  -2   9       53.05       52.94      4.61 o 
  -2  -2   9       25.48       29.36      2.91 o 
  -1  -2   9       63.33       58.74      3.37 o 
   0  -2   9       18.59       15.18      2.27 o 
   1  -2   9        5.47        4.73      4.54 o 
   2  -2   9        2.27        1.63      1.61 o 
   3  -2   9      141.10      137.18      4.76 o 
   4  -2   9        3.03        2.35      2.01 o 
   5  -2   9       31.08       34.74      3.13 o 
   6  -2   9       16.88       19.67      2.54 o 
   7  -2   9        1.78        6.41      2.34 o 
   8  -2   9       15.42       12.63      4.65 o 
  -3  -1   9       21.59       36.02      3.86 o 
  -2  -1   9        0.66       -0.69      1.67 o 
  -1  -1   9       40.85       44.00      3.12 o 
   0  -1   9        5.30        5.12      3.30 o 
   1  -1   9       92.94       87.90      5.43 o 
   2  -1   9      153.75      147.01      6.68 o 
   3  -1   9       58.15       52.55      2.92 o 
   4  -1   9        1.20       -0.64      1.24 o 
   5  -1   9       90.73       92.80      4.08 o 
   6  -1   9      113.14      111.98      4.77 o 
   7  -1   9       47.19       41.56      3.96 o 
   8  -1   9       44.33       48.20      7.25 o 
  -3   0   9        0.07        1.54      2.24 o 
  -2   0   9        0.35        0.74      2.21 o 
  -1   0   9       50.05       53.59      4.50 o 
   0   0   9        2.20        3.85      2.23 o 
   1   0   9      130.36      112.74      5.17 o 
   2   0   9      131.94      125.69      5.39 o 
   3   0   9        0.04        1.66      1.28 o 
   4   0   9       20.64       19.92      2.06 o 
   5   0   9       97.93      104.22      4.66 o 
   6   0   9        0.03        1.65      1.64 o 
   7   0   9        4.38        3.10      3.32 o 
   8   0   9       11.39       13.31      2.95 o 
  -3   1   9        1.95        4.31      4.74 o 
  -2   1   9       25.58       22.75      2.74 o 
  -1   1   9        6.12        2.64      2.20 o 
   0   1   9       19.03       14.36      2.68 o 
   1   1   9       20.78       16.37      2.28 o 
   2   1   9      263.29      229.27      6.47 o 
   3   1   9      182.05      170.96      5.02 o 
   4   1   9        0.00        0.40      1.05 o 
   5   1   9      179.07      170.27      6.51 o 
   6   1   9        9.96       11.68      2.98 o 
   7   1   9        3.07       -1.61      1.61 o 
   8   1   9       45.58       37.32      3.55 o 
  -3   2   9        1.14        9.36      2.91 o 
  -2   2   9       59.97       53.53      5.15 o 
  -1   2   9       13.83       14.70      2.05 o 
   0   2   9       75.05       67.38      4.57 o 
   1   2   9        0.05        0.49      1.28 o 
   2   2   9       10.31       13.75      2.12 o 
   3   2   9        6.44        3.45      1.28 o 
   4   2   9      157.86      152.63      3.97 o 
   5   2   9      110.36      107.94      4.82 o 
   6   2   9        5.64        7.47      1.70 o 
   7   2   9       13.70        3.87      3.66 o 
   8   2   9       31.91       26.95      3.59 o 
  -3   3   9        1.28        5.28      2.56 o 
  -2   3   9        0.01        2.69      2.77 o 
  -1   3   9        4.85        3.28      1.79 o 
   0   3   9       24.41       26.48      2.76 o 
   1   3   9       49.71       46.37      3.22 o 
   2   3   9      179.92      176.14      5.68 o 
   3   3   9        9.29       12.54      1.90 o 
   4   3   9      262.16      252.43      5.52 o 
   5   3   9       50.93       49.33      2.99 o 
   6   3   9        0.00       -1.74      1.74 o 
   7   3   9       12.25        7.93      2.08 o 
   8   3   9      106.05      115.59      5.69 o 
  -3   4   9        0.45        3.69      3.81 o 
  -2   4   9       23.50       18.69      3.55 o 
  -1   4   9       19.03       21.19      2.75 o 
   0   4   9       48.86       55.54      4.67 o 
   1   4   9        4.74        6.74      1.76 o 
   2   4   9        9.57       13.29      2.16 o 
   3   4   9      214.16      227.66      6.70 o 
   4   4   9        0.28        1.72      1.29 o 
   5   4   9       28.81       28.45      2.55 o 
   6   4   9       58.21       54.41      4.08 o 
   7   4   9       34.97       35.35      5.08 o 
   8   4   9        5.35        6.72      3.16 o 
  -2   5   9        0.98        3.70      2.84 o 
  -1   5   9        7.23        1.74      2.64 o 
   0   5   9       48.24       48.14      3.17 o 
   1   5   9       37.26       33.22      3.22 o 
   2   5   9      108.95      123.39      6.39 o 
   3   5   9       49.94       48.69      5.24 o 
   4   5   9        0.33        0.37      2.30 o 
   5   5   9        0.02        2.45      1.73 o 
   6   5   9        2.54       -1.71      1.88 o 
   7   5   9       10.92       14.23      4.04 o 
   8   5   9        4.32       -1.71      4.15 o 
  -2   6   9       12.36       17.79      3.82 o 
  -1   6   9       23.78       26.46      7.66 o 
   0   6   9        0.10        5.40      8.28 o 
   1   6   9        0.12        2.69      2.06 o 
   2   6   9       59.85       55.34      4.42 o 
   3   6   9        0.07        5.48      1.83 o 
   4   6   9        1.86        3.83      2.07 o 
   5   6   9       36.65       29.44      3.14 o 
   6   6   9       12.84       11.90      5.52 o 
   7   6   9        9.49        7.47      4.22 o 
   8   6   9        1.36       -1.07      4.64 o 
  -1   7   9        0.10       -1.41      5.10 o 
   0   7   9       86.82      110.72      7.27 o 
   1   7   9        6.41        0.04      2.20 o 
   2   7   9       43.14       45.80      5.27 o 
   3   7   9      100.31       98.80      5.37 o 
   4   7   9        2.67        4.80      2.34 o 
   5   7   9       12.85       14.33      2.54 o 
   6   7   9       35.93       38.96      5.00 o 
   7   7   9        0.01        1.80      2.92 o 
   0   8   9        3.26        3.79      5.89 o 
   1   8   9       47.11       38.11      4.52 o 
   2   8   9       28.26       24.11      3.40 o 
   3   8   9        4.89        4.97      2.23 o 
   4   8   9       25.78       16.76      2.50 o 
   5   8   9       32.51       38.72      4.44 o 
   6   8   9       16.13       15.58      3.51 o 
   1   9   9       15.69       18.23      4.21 o 
   2   9   9        2.57       15.11      3.94 o 
   3   9   9        2.36        5.93      3.67 o 
   4   9   9       14.81       15.39      4.00 o 
   5   9   9       52.97       54.27      6.06 o 
   2  -7  10        3.67        7.39      2.71 o 
   0  -6  10       15.27       25.87      4.73 o 
   1  -6  10        7.40        9.86      3.80 o 
   2  -6  10        0.10       -2.39      2.39 o 
   3  -6  10        1.52        0.92      2.15 o 
   4  -6  10       64.74       70.22      7.78 o 
   5  -6  10        1.03        5.67      3.48 o 
  -1  -5  10        3.02       -0.80      5.31 o 
   0  -5  10       12.80       13.50      3.71 o 
   1  -5  10       30.87       35.11      3.54 o 
   2  -5  10       17.72       14.85      2.65 o 
   3  -5  10        2.93        2.38      1.94 o 
   4  -5  10       20.38       14.62      3.52 o 
   5  -5  10      119.25      146.89      6.93 o 
   6  -5  10        0.23        5.09      4.10 o 
  -2  -4  10        2.47        9.11      5.77 o 
  -1  -4  10       17.42       20.90      3.66 o 
   0  -4  10        1.69        3.10      2.52 o 
   1  -4  10        4.37        1.34      1.96 o 
   2  -4  10       11.51       12.75      2.06 o 
   3  -4  10        5.87        4.91      2.74 o 
   4  -4  10        2.29        5.39      3.01 o 
   5  -4  10        7.68        6.55      3.01 o 
   6  -4  10        4.67        5.41      2.67 o 
  -2  -3  10        1.47        0.57      5.58 o 
  -1  -3  10        9.07       14.60      4.87 o 
   0  -3  10       16.70       17.97      2.83 o 
   1  -3  10       13.21       11.16      2.50 o 
   2  -3  10        3.20        3.58      2.49 o 
   3  -3  10        8.82        7.36      2.86 o 
   4  -3  10       46.21       45.16      3.35 o 
   5  -3  10        1.89        2.36      2.17 o 
   6  -3  10       32.45       30.95      3.32 o 
   7  -3  10       50.57       45.95      4.43 o 
  -2  -2  10       18.20       16.01      3.95 o 
  -1  -2  10        1.24       -2.03      2.57 o 
   0  -2  10        6.12        8.24      3.02 o 
   1  -2  10        0.03        1.62      3.62 o 
   2  -2  10       44.46       54.24      4.55 o 
   3  -2  10       43.23       48.54      3.21 o 
   4  -2  10        1.74       -2.85      2.85 o 
   5  -2  10        6.82        5.99      1.93 o 
   6  -2  10       87.46       89.85      6.81 o 
   7  -2  10        4.36        8.58      2.83 o 
  -2  -1  10       24.89       20.87      3.54 o 
  -1  -1  10       10.00       12.02      2.31 o 
   0  -1  10        4.61       10.06      2.03 o 
   1  -1  10        0.90       -0.73      1.67 o 
   2  -1  10      186.68      195.49      7.26 o 
   3  -1  10       31.46       25.78      3.40 o 
   4  -1  10        0.48       -0.11      1.81 o 
   5  -1  10        1.22        1.45      1.74 o 
   6  -1  10       72.48       75.01      4.20 o 
   7  -1  10       33.93       26.69      3.94 o 
   8  -1  10        8.35        5.77      4.29 o 
  -2   0  10       51.17       65.72      4.95 o 
  -1   0  10        5.05        6.44      2.02 o 
   0   0  10       56.03       53.74      3.79 o 
   1   0  10       82.19       67.76      4.97 o 
   2   0  10      205.18      201.60      7.29 o 
   3   0  10       22.06       28.83      3.56 o 
   4   0  10       15.61       14.84      2.39 o 
   5   0  10        2.52        4.26      1.79 o 
   6   0  10        0.09        0.96      1.55 o 
   7   0  10        0.12       -0.63      1.99 o 
   8   0  10       28.76       30.54      3.76 o 
  -2   1  10        0.47        2.99      2.38 o 
  -1   1  10       73.99       73.43      7.06 o 
   0   1  10        9.97        9.34      2.23 o 
   1   1  10      151.69      162.73      6.80 o 
   2   1  10        0.98        6.29      1.97 o 
   3   1  10       39.18       31.75      3.88 o 
   4   1  10       24.49       25.48      3.32 o 
   5   1  10       43.23       33.84      3.51 o 
   6   1  10       13.48       13.05      3.23 o 
   7   1  10       32.17       28.33      3.79 o 
   8   1  10       20.30       26.31      8.25 o 
  -2   2  10        5.44       11.76      3.56 o 
  -1   2  10       38.87       36.19      3.59 o 
   0   2  10       17.96       16.28      2.49 o 
   1   2  10       69.16       63.25      4.58 o 
   2   2  10      156.73      159.59      7.02 o 
   3   2  10       21.84       25.59      2.79 o 
   4   2  10       18.27       12.00      2.10 o 
   5   2  10       27.58       29.21      2.94 o 
   6   2  10        3.92       -0.58      2.14 o 
   7   2  10       12.29        8.77      2.38 o 
   8   2  10       50.27       53.73      4.70 o 
  -2   3  10       63.46       74.43      7.57 o 
  -1   3  10        0.06        0.49      1.91 o 
   0   3  10       12.82       10.56      2.40 o 
   1   3  10        3.08        6.14      2.48 o 
   2   3  10        2.44       -0.54      2.03 o 
   3   3  10        2.17        5.49      1.68 o 
   4   3  10        8.65        7.46      2.31 o 
   5   3  10      145.68      136.62      5.17 o 
   6   3  10        3.61        4.81      1.91 o 
   7   3  10       46.11       47.43      4.14 o 
   8   3  10       32.42       31.99      3.86 o 
  -2   4  10        7.47       -1.04     11.54 o 
  -1   4  10        2.05        3.12      2.87 o 
   0   4  10        7.40        6.03      2.12 o 
   1   4  10       62.37       69.77      4.41 o 
   2   4  10        7.81        9.89      1.78 o 
   3   4  10       13.71       15.36      2.06 o 
   4   4  10       56.90       56.90      3.62 o 
   5   4  10       64.89       65.82      4.23 o 
   6   4  10       29.75       25.03      3.80 o 
   7   4  10       54.05       61.73      5.53 o 
   8   4  10        1.46        0.76      5.32 o 
  -1   5  10        0.58        8.17      4.56 o 
   0   5  10        8.33        9.16      2.07 o 
   1   5  10        8.55       11.80      2.52 o 
   2   5  10        4.74        2.13      2.55 o 
   3   5  10       23.91       32.47      4.25 o 
   4   5  10      132.50      148.31      7.47 o 
   5   5  10       33.34       29.98      3.02 o 
   6   5  10       23.99       29.52      3.58 o 
   7   5  10       53.10       53.85      5.67 o 
  -1   6  10       17.00       12.33      4.58 o 
   0   6  10        0.30       15.15     22.57 o 
   1   6  10        0.14        1.98      3.46 o 
   2   6  10       18.74       22.53      3.54 o 
   3   6  10       11.20        6.67      2.97 o 
   4   6  10       29.36       28.33      3.75 o 
   5   6  10        0.50        6.12      2.37 o 
   6   6  10       30.53       22.07      4.04 o 
   7   6  10       15.98       21.23      4.61 o 
   0   7  10       11.07       19.16      4.69 o 
   1   7  10       30.19       28.25      4.96 o 
   2   7  10        1.38        7.31      4.21 o 
   3   7  10       11.59       15.43      2.99 o 
   4   7  10        1.44       -0.93      3.07 o 
   5   7  10        0.03        0.93      4.69 o 
   6   7  10       28.18       30.60      6.38 o 
   1   8  10        0.01        6.44      4.73 o 
   2   8  10        3.79        5.37      5.82 o 
   3   8  10        0.61        5.35      3.19 o 
   4   8  10        0.29       -2.78      2.78 o 
   5   8  10        5.41        4.64      3.10 o 
   1  -5  11        6.01        4.83      3.46 o 
   2  -5  11       33.23       35.23      4.65 o 
   3  -5  11       46.28       39.96      4.80 o 
   4  -5  11        1.71        5.74      2.48 o 
   0  -4  11       26.03       22.75      3.51 o 
   1  -4  11        7.52        4.28      5.38 o 
   2  -4  11       70.25       84.08      5.21 o 
   3  -4  11       20.81       17.13      3.05 o 
   4  -4  11        1.74        0.33      2.55 o 
   5  -4  11        0.83       -1.85      2.31 o 
   0  -3  11        0.58       -2.50      2.79 o 
   1  -3  11       25.26       20.91      3.31 o 
   2  -3  11       15.53       23.29      5.30 o 
   3  -3  11        1.09        7.41      2.12 o 
   4  -3  11       19.28       27.18      3.32 o 
   5  -3  11        4.10        2.38      2.11 o 
   6  -3  11       81.60       88.16      5.47 o 
  -1  -2  11        0.00        2.94      3.38 o 
   0  -2  11        5.28        2.97      2.52 o 
   1  -2  11        4.89       -1.12      2.04 o 
   2  -2  11        8.03        5.93      2.72 o 
   3  -2  11       48.14       39.10      4.42 o 
   4  -2  11        0.00       -2.59      3.35 o 
   5  -2  11       21.62       27.56      5.42 o 
   6  -2  11        4.49        7.04      2.50 o 
  -1  -1  11        0.00       -2.43      4.34 o 
   0  -1  11       22.60       18.96      2.84 o 
   1  -1  11       14.47       10.70      3.07 o 
   2  -1  11       22.72       23.63      4.03 o 
   3  -1  11        0.00        0.00      4.54 o 
   4  -1  11        5.60        7.15      2.36 o 
   5  -1  11       48.32       56.19      4.84 o 
   6  -1  11        0.65        0.94      1.89 o 
   7  -1  11        0.89        2.08      2.61 o 
  -1   0  11       18.99       11.85      3.54 o 
   0   0  11       13.98       15.62      2.65 o 
   1   0  11        2.46        7.09      2.30 o 
   2   0  11        3.50       -0.31      1.79 o 
   3   0  11       17.98       15.76      2.98 o 
   4   0  11       74.68       92.71      6.07 o 
   5   0  11        0.05        2.44      1.86 o 
   6   0  11        0.29        2.46      1.94 o 
   7   0  11        8.61        4.35      2.73 o 
  -1   1  11      104.19      131.73     12.87 o 
   0   1  11        0.12        3.33      2.69 o 
   1   1  11       76.67       81.32      5.06 o 
   2   1  11       20.29       25.25      3.73 o 
   3   1  11       88.40       94.11      4.96 o 
   4   1  11        1.61        4.32      1.93 o 
   5   1  11       31.99       31.82      2.67 o 
   6   1  11       67.38       78.83      5.60 o 
   7   1  11        4.97        1.25      2.81 o 
  -1   2  11        0.08       -6.27      6.27 o 
   0   2  11       34.36       34.55      3.59 o 
   1   2  11        4.71       -1.34      2.75 o 
   2   2  11        1.70        2.96      2.09 o 
   3   2  11      130.18      130.93      7.89 o 
   4   2  11       10.95        2.04      2.25 o 
   5   2  11        0.00        2.35      2.02 o 
   6   2  11        3.45        2.64      2.92 o 
   7   2  11       18.28       17.30      3.21 o 
  -1   3  11       16.25       17.48      4.96 o 
   0   3  11       21.47       23.56      2.97 o 
   1   3  11       36.01       30.98      3.58 o 
   2   3  11       33.55       23.96      2.86 o 
   3   3  11       17.05       20.55      3.20 o 
   4   3  11       61.33       53.07      4.94 o 
   5   3  11       15.38       11.03      2.47 o 
   6   3  11        6.68        6.43      2.35 o 
   7   3  11        2.63        0.57      3.16 o 
   0   4  11        6.23        1.77      2.55 o 
   1   4  11       18.79       11.69      2.79 o 
   2   4  11      102.86       95.48      7.70 o 
   3   4  11        5.39        8.08      2.18 o 
   4   4  11        2.07        3.31      1.91 o 
   5   4  11        6.99        5.14      4.50 o 
   6   4  11        0.60        6.84      3.13 o 
   7   4  11        0.24        3.22      2.98 o 
   0   5  11       22.29       22.51      5.48 o 
   1   5  11        1.78        4.75      6.70 o 
   2   5  11       43.10       43.33      4.80 o 
   3   5  11       10.95       11.57      3.18 o 
   4   5  11       29.08       26.74      4.33 o 
   5   5  11       14.23       -1.41      3.63 o 
   6   5  11        2.17        2.65      2.90 o 
   1   6  11        2.69        2.13      3.52 o 
   2   6  11       49.13       54.31      5.68 o 
   3   6  11        0.00       -2.44      2.54 o 
   4   6  11        0.91        0.81      2.77 o 
   5   6  11        4.45        6.16      3.74 o 
   6   6  11        0.91       -1.01      5.83 o 
   2   7  11        5.47        8.65      3.57 o 
   3   7  11       46.10       44.89      5.40 o 
   4   7  11       10.77       16.28      3.50 o 
   5   7  11        1.18        3.16      4.58 o 
   2  -3  12        7.26        4.71      6.08 o 
   3  -3  12        3.93        2.88      3.06 o 
   4  -3  12       44.42       39.60      6.58 o 
   1  -2  12      134.72      143.27     16.63 o 
   2  -2  12        4.28        3.99      3.10 o 
   3  -2  12        2.00        1.16      5.39 o 
   4  -2  12        3.52        1.26      3.11 o 
   5  -2  12        0.22       -0.18      4.99 o 
   1  -1  12       18.23       20.63      3.16 o 
   2  -1  12        0.40        2.56      3.57 o 
   3  -1  12        0.77        3.36      2.95 o 
   4  -1  12        2.40        8.62      3.26 o 
   5  -1  12       10.10        6.95      3.25 o 
   1   0  12        0.87        2.50      2.75 o 
   2   0  12       69.27       77.22      5.92 o 
   3   0  12       12.30       11.03      2.87 o 
   4   0  12       10.82       11.86      2.87 o 
   5   0  12       48.66       45.75      4.99 o 
   6   0  12        4.75        7.58      2.73 o 
   1   1  12        0.49       -3.17      3.17 o 
   2   1  12        0.42       -2.36      2.36 o 
   3   1  12       27.58       18.95      3.43 o 
   4   1  12        3.33       -0.07      4.19 o 
   5   1  12        3.17       -2.41      2.41 o 
   6   1  12       17.55       23.95      4.67 o 
   1   2  12        0.19        1.40      2.82 o 
   2   2  12        0.47        2.75      2.59 o 
   3   2  12        0.46        4.91      2.42 o 
   4   2  12        0.52       -1.25      2.33 o 
   5   2  12       14.87       17.76      3.42 o 
   6   2  12       82.88       87.49      6.20 o 
   1   3  12       11.24       19.47      3.85 o 
   2   3  12      175.24      169.18     11.37 o 
   3   3  12        7.31        6.55      2.69 o 
   4   3  12        0.00       -0.95      3.39 o 
   5   3  12       15.56       14.99      3.40 o 
   6   3  12       15.38       10.64      4.51 o 
   1   4  12       63.44       54.32      5.57 o 
   2   4  12       12.09        8.27      3.27 o 
   3   4  12       14.10       15.20      6.05 o 
   4   4  12       40.00       35.11      6.66 o 
   5   4  12      107.43       99.05      7.39 o 
   2   5  12        0.35        2.72      3.93 o 
   3   5  12       11.15       10.12      6.48 o 
   4   5  12        8.33       11.13      3.56 o 
   5   5  12        5.06        8.17      3.50 o 
;
loop_
_symmetry_equiv_pos_as_xyz
'x, y, z'
'-x, -y, -z'
loop_
_atom_site_label
_atom_site_type_symbol
_atom_site_fract_x
_atom_site_fract_y
_atom_site_fract_z
_atom_site_U_iso_or_equiv
_atom_site_adp_type
_atom_site_occupancy
_atom_site_symmetry_multiplicity
_atom_site_calc_flag
_atom_site_refinement_flags
_atom_site_disorder_assembly
_atom_site_disorder_group
O1 O 0.18299(18) 0.57534(12) -0.12227(12) 0.0228(3) Uani 1 1 d . . .
H1O H 0.085(4) 0.514(3) -0.118(3) 0.059(7) Uiso 1 1 d . . .
F1 F -0.22170(15) 0.80162(11) 0.27746(13) 0.0344(3) Uani 1 1 d . . .
N1 N 0.1329(2) 0.58565(14) 0.03370(14) 0.0192(3) Uani 1 1 d . . .
C1 C 0.2470(2) 0.65939(16) 0.06674(17) 0.0173(3) Uani 1 1 d . . .
O2 O 0.69815(17) 0.90478(12) -0.21784(13) 0.0241(3) Uani 1 1 d . . .
F2 F -0.13363(16) 0.97047(11) 0.36520(11) 0.0333(3) Uani 1 1 d . . .
N2 N 0.4039(2) 0.72830(14) -0.03362(14) 0.0189(3) Uani 1 1 d . . .
C2 C 0.2097(2) 0.65588(16) 0.23093(17) 0.0183(3) Uani 1 1 d . . .
F3 F 0.02367(15) 0.91543(10) 0.13799(11) 0.0279(2) Uani 1 1 d . . .
C3 C 0.0768(2) 0.75494(17) 0.32738(17) 0.0195(3) Uani 1 1 d . . .
C4 C 0.0574(3) 0.74894(19) 0.47705(19) 0.0244(4) Uani 1 1 d . . .
H4 H -0.033(3) 0.819(2) 0.543(2) 0.029(5) Uiso 1 1 d . . .
C5 C 0.1650(3) 0.6424(2) 0.53194(19) 0.0277(4) Uani 1 1 d . . .
H5 H 0.152(3) 0.640(2) 0.635(2) 0.035(5) Uiso 1 1 d . . .
C6 C 0.2898(3) 0.54052(19) 0.43908(19) 0.0257(4) Uani 1 1 d . . .
H6 H 0.361(3) 0.463(2) 0.476(2) 0.026(5) Uiso 1 1 d . . .
C7 C 0.3147(2) 0.54842(18) 0.28865(18) 0.0219(3) Uani 1 1 d . . .
H7 H 0.407(3) 0.480(2) 0.224(2) 0.027(5) Uiso 1 1 d . . .
C8 C 0.5497(2) 0.77651(18) 0.02112(19) 0.0220(3) Uani 1 1 d . . .
H8B H 0.495(3) 0.865(2) 0.073(2) 0.025(5) Uiso 1 1 d . . .
H8A H 0.586(3) 0.701(2) 0.087(2) 0.026(5) Uiso 1 1 d . . .
C9 C 0.7368(3) 0.80184(18) -0.11170(19) 0.0239(4) Uani 1 1 d . . .
H9B H 0.797(3) 0.7115(19) -0.161(2) 0.022(5) Uiso 1 1 d . . .
H9A H 0.833(3) 0.840(2) -0.078(2) 0.027(5) Uiso 1 1 d . . .
C10 C 0.5568(3) 0.85781(19) -0.27154(19) 0.0238(4) Uani 1 1 d . . .
H10B H 0.528(3) 0.9345(19) -0.336(2) 0.022(5) Uiso 1 1 d . . .
H10A H 0.617(3) 0.765(2) -0.325(2) 0.025(5) Uiso 1 1 d . . .
C11 C 0.3629(3) 0.83190(18) -0.14512(18) 0.0220(3) Uani 1 1 d . . .
H11B H 0.271(3) 0.793(2) -0.184(2) 0.028(5) Uiso 1 1 d . . .
H11A H 0.299(3) 0.923(2) -0.094(2) 0.029(5) Uiso 1 1 d . . .
C12 C -0.0606(2) 0.86050(17) 0.27692(18) 0.0232(3) Uani 1 1 d . . .
loop_
_atom_site_aniso_label
_atom_site_aniso_U_11
_atom_site_aniso_U_22
_atom_site_aniso_U_33
_atom_site_aniso_U_23
_atom_site_aniso_U_13
_atom_site_aniso_U_12
O1 0.0252(6) 0.0316(6) 0.0136(5) -0.0027(5) -0.0074(5) -0.0076(5)
F1 0.0232(5) 0.0395(6) 0.0450(7) 0.0022(5) -0.0176(5) -0.0055(5)
N1 0.0225(7) 0.0244(7) 0.0120(6) -0.0019(5) -0.0071(5) -0.0034(5)
C1 0.0177(7) 0.0192(7) 0.0158(7) -0.0012(6) -0.0073(6) 0.0000(6)
O2 0.0230(6) 0.0252(6) 0.0229(6) 0.0012(5) -0.0062(5) -0.0051(5)
F2 0.0350(6) 0.0319(6) 0.0294(6) -0.0117(4) -0.0085(5) 0.0082(5)
N2 0.0196(7) 0.0218(7) 0.0169(6) 0.0000(5) -0.0080(5) -0.0035(5)
C2 0.0186(8) 0.0206(8) 0.0177(8) -0.0013(6) -0.0078(6) -0.0048(6)
F3 0.0280(5) 0.0294(5) 0.0221(5) 0.0021(4) -0.0066(4) 0.0031(4)
C3 0.0182(8) 0.0232(8) 0.0175(8) -0.0007(6) -0.0059(6) -0.0057(6)
C4 0.0228(8) 0.0318(9) 0.0187(8) -0.0049(7) -0.0056(7) -0.0057(7)
C5 0.0298(9) 0.0401(10) 0.0167(8) -0.0009(7) -0.0106(7) -0.0089(8)
C6 0.0268(9) 0.0317(9) 0.0226(9) 0.0034(7) -0.0140(7) -0.0054(7)
C7 0.0213(8) 0.0245(8) 0.0210(8) -0.0003(6) -0.0086(7) -0.0035(7)
C8 0.0210(8) 0.0256(8) 0.0221(8) -0.0005(7) -0.0097(7) -0.0062(7)
C9 0.0222(8) 0.0251(8) 0.0254(9) 0.0000(7) -0.0091(7) -0.0042(7)
C10 0.0237(8) 0.0266(9) 0.0207(8) 0.0014(7) -0.0073(7) -0.0042(7)
C11 0.0228(8) 0.0242(8) 0.0196(8) 0.0020(6) -0.0085(7) -0.0035(7)
C12 0.0215(8) 0.0255(8) 0.0212(8) -0.0029(6) -0.0056(7) -0.0027(7)
loop_
_atom_type_symbol
_atom_type_description
_atom_type_scat_dispersion_real
_atom_type_scat_dispersion_imag
_atom_type_scat_source
C C 0.0033 0.0016 'International Tables Vol C Tables 4.2.6.8 and 6.1.1.4'
H H 0.0000 0.0000 'International Tables Vol C Tables 4.2.6.8 and 6.1.1.4'
N N 0.0061 0.0033 'International Tables Vol C Tables 4.2.6.8 and 6.1.1.4'
O O 0.0106 0.0060 'International Tables Vol C Tables 4.2.6.8 and 6.1.1.4'
F F 0.0171 0.0103 'International Tables Vol C Tables 4.2.6.8 and 6.1.1.4'
loop_
_geom_angle_atom_site_label_1
_geom_angle_atom_site_label_2
_geom_angle_atom_site_label_3
_geom_angle
_geom_angle_site_symmetry_1
_geom_angle_site_symmetry_3
_geom_angle_publ_flag
N1 O1 H1O 98.0(14) . . ?
C1 N1 O1 113.74(12) . . ?
N1 C1 N2 126.21(14) . . ?
N1 C1 C2 113.65(13) . . ?
N2 C1 C2 119.92(13) . . ?
C9 O2 C10 109.72(12) . . ?
C1 N2 C8 118.51(12) . . ?
C1 N2 C11 118.55(13) . . ?
C8 N2 C11 110.87(12) . . ?
C7 C2 C3 118.81(14) . . ?
C7 C2 C1 117.64(14) . . ?
C3 C2 C1 123.55(14) . . ?
C4 C3 C2 120.27(15) . . ?
C4 C3 C12 118.24(15) . . ?
C2 C3 C12 121.24(14) . . ?
C5 C4 C3 120.02(16) . . ?
C5 C4 H4 120.1(11) . . ?
C3 C4 H4 119.9(12) . . ?
C6 C5 C4 120.09(16) . . ?
C6 C5 H5 120.7(12) . . ?
C4 C5 H5 119.2(12) . . ?
C5 C6 C7 120.15(16) . . ?
C5 C6 H6 121.5(11) . . ?
C7 C6 H6 118.3(11) . . ?
C6 C7 C2 120.56(16) . . ?
C6 C7 H7 119.6(12) . . ?
C2 C7 H7 119.9(11) . . ?
N2 C8 C9 108.14(13) . . ?
N2 C8 H8B 110.6(11) . . ?
C9 C8 H8B 109.6(11) . . ?
N2 C8 H8A 109.3(11) . . ?
C9 C8 H8A 107.7(11) . . ?
H8B C8 H8A 111.4(15) . . ?
O2 C9 C8 112.25(14) . . ?
O2 C9 H9B 109.2(10) . . ?
C8 C9 H9B 109.9(10) . . ?
O2 C9 H9A 106.3(11) . . ?
C8 C9 H9A 109.3(11) . . ?
H9B C9 H9A 110.0(15) . . ?
O2 C10 C11 111.36(13) . . ?
O2 C10 H10B 106.2(10) . . ?
C11 C10 H10B 107.8(11) . . ?
O2 C10 H10A 109.1(10) . . ?
C11 C10 H10A 109.2(10) . . ?
H10B C10 H10A 113.3(15) . . ?
N2 C11 C10 109.72(14) . . ?
N2 C11 H11B 108.7(11) . . ?
C10 C11 H11B 109.8(11) . . ?
N2 C11 H11A 108.1(11) . . ?
C10 C11 H11A 110.0(11) . . ?
H11B C11 H11A 110.5(15) . . ?
F3 C12 F2 106.48(13) . . ?
F3 C12 F1 105.78(13) . . ?
F2 C12 F1 105.75(13) . . ?
F3 C12 C3 113.88(13) . . ?
F2 C12 C3 112.97(13) . . ?
F1 C12 C3 111.36(13) . . ?
loop_
_geom_bond_atom_site_label_1
_geom_bond_atom_site_label_2
_geom_bond_distance
_geom_bond_site_symmetry_2
_geom_bond_publ_flag
O1 N1 1.4225(16) . ?
O1 H1O 0.96(3) . ?
F1 C12 1.3510(19) . ?
N1 C1 1.285(2) . ?
C1 N2 1.387(2) . ?
C1 C2 1.504(2) . ?
O2 C9 1.428(2) . ?
O2 C10 1.432(2) . ?
F2 C12 1.3420(19) . ?
N2 C8 1.471(2) . ?
N2 C11 1.475(2) . ?
C2 C7 1.391(2) . ?
C2 C3 1.401(2) . ?
F3 C12 1.3403(19) . ?
C3 C4 1.394(2) . ?
C3 C12 1.496(2) . ?
C4 C5 1.383(3) . ?
C4 H4 0.97(2) . ?
C5 C6 1.382(3) . ?
C5 H5 0.97(2) . ?
C6 C7 1.391(2) . ?
C6 H6 0.96(2) . ?
C7 H7 0.96(2) . ?
C8 C9 1.514(2) . ?
C8 H8B 0.983(19) . ?
C8 H8A 0.991(19) . ?
C9 H9B 0.995(18) . ?
C9 H9A 0.989(19) . ?
C10 C11 1.516(2) . ?
C10 H10B 0.968(18) . ?
C10 H10A 1.028(18) . ?
C11 H11B 0.995(19) . ?
C11 H11A 1.013(19) . ?
loop_
_geom_hbond_atom_site_label_D
_geom_hbond_atom_site_label_H
_geom_hbond_atom_site_label_A
_geom_hbond_distance_DH
_geom_hbond_distance_HA
_geom_hbond_distance_DA
_geom_hbond_angle_DHA
_geom_hbond_site_symmetry_A
O1 H1O N1 0.96(3) 1.83(3) 2.7398(18) 158(2) 2_565
O1 H1O O1 0.96(3) 2.57(2) 3.226(2) 125.5(18) 2_565
loop_
_geom_torsion_atom_site_label_1
_geom_torsion_atom_site_label_2
_geom_torsion_atom_site_label_3
_geom_torsion_atom_site_label_4
_geom_torsion
_geom_torsion_site_symmetry_1
_geom_torsion_site_symmetry_2
_geom_torsion_site_symmetry_3
_geom_torsion_site_symmetry_4
_geom_torsion_publ_flag
O1 N1 C1 N2 1.5(2) . . . . ?
O1 N1 C1 C2 -173.11(12) . . . . ?
N1 C1 N2 C8 -164.52(15) . . . . ?
C2 C1 N2 C8 9.7(2) . . . . ?
N1 C1 N2 C11 56.3(2) . . . . ?
C2 C1 N2 C11 -129.47(15) . . . . ?
N1 C1 C2 C7 88.74(18) . . . . ?
N2 C1 C2 C7 -86.21(18) . . . . ?
N1 C1 C2 C3 -91.67(18) . . . . ?
N2 C1 C2 C3 93.39(19) . . . . ?
C7 C2 C3 C4 2.7(2) . . . . ?
C1 C2 C3 C4 -176.85(15) . . . . ?
C7 C2 C3 C12 -171.49(14) . . . . ?
C1 C2 C3 C12 8.9(2) . . . . ?
C2 C3 C4 C5 -1.9(2) . . . . ?
C12 C3 C4 C5 172.46(15) . . . . ?
C3 C4 C5 C6 -0.9(3) . . . . ?
C4 C5 C6 C7 2.9(3) . . . . ?
C5 C6 C7 C2 -2.1(3) . . . . ?
C3 C2 C7 C6 -0.7(2) . . . . ?
C1 C2 C7 C6 178.88(15) . . . . ?
C1 N2 C8 C9 161.30(14) . . . . ?
C11 N2 C8 C9 -56.59(17) . . . . ?
C10 O2 C9 C8 -59.96(17) . . . . ?
N2 C8 C9 O2 58.91(18) . . . . ?
C9 O2 C10 C11 58.20(17) . . . . ?
C1 N2 C11 C10 -161.55(13) . . . . ?
C8 N2 C11 C10 56.35(17) . . . . ?
O2 C10 C11 N2 -56.78(18) . . . . ?
C4 C3 C12 F3 145.39(14) . . . . ?
C2 C3 C12 F3 -40.3(2) . . . . ?
C4 C3 C12 F2 23.7(2) . . . . ?
C2 C3 C12 F2 -161.91(14) . . . . ?
C4 C3 C12 F1 -95.10(17) . . . . ?
C2 C3 C12 F1 79.25(18) . . . . ?
