#------------------------------------------------------------------------------
#$Date: 2020-11-06 14:51:20 +0200 (Fri, 06 Nov 2020) $
#$Revision: 258938 $
#$URL: file:///home/coder/svn-repositories/cod/cif/7/05/99/7059946.cif $
#------------------------------------------------------------------------------
#
# This file is available in the Crystallography Open Database (COD),
# http://www.crystallography.net/
#
# All data on this site have been placed in the public domain by the
# contributors.
#
data_7059946
loop_
_publ_author_name
'Peerzada, Mudasir Nabi'
'Khan, Parvez'
'Khan, Nashrah Sharif'
'Gaur, Aysha'
'Avecilla, Fernando'
'Hassan, Md. Imtaiyaz'
'Azam, Amir'
_publ_section_title
;
 Identification of morpholine based hydroxylamine analogues: selective
 inhibitors of MARK4/Par-1d causing cancer cell death through apoptosis
;
_journal_issue                   38
_journal_name_full               'New Journal of Chemistry'
_journal_page_first              16626
_journal_page_last               16637
_journal_paper_doi               10.1039/D0NJ03474F
_journal_volume                  44
_journal_year                    2020
_chemical_formula_moiety         'C13 H18 N2 O3'
_chemical_formula_sum            'C13 H18 N2 O3'
_chemical_formula_weight         250.29
_space_group_IT_number           2
_space_group_name_Hall           '-P 1'
_space_group_name_H-M_alt        'P -1'
_symmetry_cell_setting           triclinic
_symmetry_space_group_name_Hall  '-P 1'
_symmetry_space_group_name_H-M   'P -1'
_atom_sites_solution_hydrogens   geom
_atom_sites_solution_primary     direct
_atom_sites_solution_secondary   difmap
_audit_creation_method           SHELXL-97
_audit_update_record
;
2020-08-06 deposited with the CCDC.	2020-08-27 downloaded from the CCDC.
;
_cell_angle_alpha                101.2290(10)
_cell_angle_beta                 95.1410(10)
_cell_angle_gamma                109.126(2)
_cell_formula_units_Z            2
_cell_length_a                   6.8280(3)
_cell_length_b                   8.4251(4)
_cell_length_c                   12.0384(5)
_cell_measurement_reflns_used    26952
_cell_measurement_temperature    100(2)
_cell_measurement_theta_max      55.519
_cell_measurement_theta_min      10.238
_cell_volume                     632.92(5)
_computing_cell_refinement       'Bruker SAINT'
_computing_data_collection       'Bruker APEX2'
_computing_data_reduction        'Bruker SAINT'
_computing_molecular_graphics    'Bruker SHELXTL'
_computing_publication_material  'Bruker SHELXTL'
_computing_structure_refinement  'SHELXL-2014 (Sheldrick 2014)'
_computing_structure_solution    'SHELXS-97 (Sheldrick 2008)'
_diffrn_ambient_temperature      100(2)
_diffrn_measured_fraction_theta_full 0.999
_diffrn_measured_fraction_theta_max 0.999
_diffrn_measurement_device_type  'CCD area detector'
_diffrn_measurement_method       'phi and omega scans'
_diffrn_radiation_monochromator  graphite
_diffrn_radiation_source         'fine-focus sealed tube'
_diffrn_radiation_type           MoK\a
_diffrn_radiation_wavelength     0.71073
_diffrn_reflns_av_R_equivalents  0.0579
_diffrn_reflns_av_unetI/netI     0.0301
_diffrn_reflns_limit_h_max       9
_diffrn_reflns_limit_h_min       -9
_diffrn_reflns_limit_k_max       11
_diffrn_reflns_limit_k_min       -11
_diffrn_reflns_limit_l_max       16
_diffrn_reflns_limit_l_min       -16
_diffrn_reflns_number            26952
_diffrn_reflns_theta_full        28.32
_diffrn_reflns_theta_max         28.32
_diffrn_reflns_theta_min         2.63
_exptl_absorpt_coefficient_mu    0.094
_exptl_absorpt_correction_T_max  0.992
_exptl_absorpt_correction_T_min  0.987
_exptl_absorpt_correction_type   multi-scan
_exptl_absorpt_process_details   SADABS
_exptl_crystal_colour            colourless
_exptl_crystal_density_diffrn    1.313
_exptl_crystal_density_method    'not measured'
_exptl_crystal_description       prism
_exptl_crystal_F_000             268
_exptl_crystal_size_max          0.180
_exptl_crystal_size_mid          0.110
_exptl_crystal_size_min          0.110
_refine_diff_density_max         0.421
_refine_diff_density_min         -0.211
_refine_diff_density_rms         0.047
_refine_ls_extinction_method     none
_refine_ls_goodness_of_fit_ref   1.036
_refine_ls_hydrogen_treatment    mixed
_refine_ls_matrix_type           full
_refine_ls_number_parameters     224
_refine_ls_number_reflns         3140
_refine_ls_number_restraints     0
_refine_ls_restrained_S_all      1.036
_refine_ls_R_factor_all          0.0526
_refine_ls_R_factor_gt           0.0402
_refine_ls_shift/su_max          0.000
_refine_ls_shift/su_mean         0.000
_refine_ls_structure_factor_coef Fsqd
_refine_ls_weighting_details
'calc w=1/[\s^2^(Fo^2^)+(0.0421P)^2^+0.2933P] where P=(Fo^2^+2Fc^2^)/3'
_refine_ls_weighting_scheme      calc
_refine_ls_wR_factor_gt          0.0935
_refine_ls_wR_factor_ref         0.1027
_reflns_number_gt                2590
_reflns_number_total             3140
_reflns_threshold_expression     >2sigma(I)
_cod_data_source_file            d0nj03474f2.cif
_cod_data_source_block           compoundC28
_cod_depositor_comments
;
The following automatic conversions were performed:

data item '_symmetry_cell_setting' value 'Triclinic' was changed to
'triclinic' in accordance with the
/home/data/users/saulius/crontab/automatic-downloads/rss-feeds/RSC/lib/dictionaries/cif_core.dic
dictionary named 'cif_core.dic' version 2.4.2 last updated on
2011-04-26.

Automatic conversion script
Id: cif_fix_values 7556 2019-12-06 15:28:31Z antanas 

 Adding full bibliography for 7059945--7059947.cif.
;
_cod_original_sg_symbol_Hall     -P1
_cod_original_sg_symbol_H-M      P-1
_cod_database_code               7059946
_shelx_res_file
; 
TITL C28 in P-1
CELL 0.71073   6.8280   8.4251  12.0384 101.229  95.141 109.126
ZERR    2.00   0.0003   0.0004   0.0005   0.001   0.001   0.002
LATT  1
SFAC C H N O
UNIT 26 36 4 6
TEMP -173.150
 
L.S. 20
BOND
FMAP 2
PLAN -10
ACTA
CONF
WPDB -1
BOND $H
HTAB O1  N1_$1
EQIV $1 [ -x-2, -y, -z+1 ]
HTAB O1  O1_$2
EQIV $2 [ -x-2, -y, -z+1 ]
 
WGHT    0.042100    0.293300
FVAR       0.42475
O1    4   -0.769997    0.119946    0.486894    11.00000    0.01407    0.01967 =
         0.01059   -0.00001    0.00180    0.00042
N1    3   -0.903875   -0.010380    0.390779    11.00000    0.01325    0.01474 =
         0.01119    0.00126    0.00017    0.00300
C1    1   -0.823383   -0.009237    0.297832    11.00000    0.01182    0.01296 =
         0.01296    0.00373    0.00188    0.00420
O2    4   -1.224652   -0.371448    0.005528    11.00000    0.01670    0.02114 =
         0.01678   -0.00213    0.00181    0.00030
N2    3   -0.955232   -0.108724    0.195040    11.00000    0.01195    0.01639 =
         0.01171    0.00116    0.00218    0.00292
C2    1   -0.606632    0.100058    0.290349    11.00000    0.01266    0.01298 =
         0.01233    0.00145    0.00345    0.00342
O3    4   -0.012701    0.438801    0.277211    11.00000    0.01146    0.01888 =
         0.01816    0.00686    0.00156   -0.00027
C3    1   -0.433592    0.109997    0.365755    11.00000    0.01455    0.01495 =
         0.01309    0.00429    0.00340    0.00500
H3    2   -0.453466    0.036445    0.419248    11.00000    0.01953
C4    1   -0.232187    0.219250    0.362972    11.00000    0.01330    0.01718 =
         0.01253    0.00274    0.00157    0.00587
H4    2   -0.113679    0.222930    0.415828    11.00000    0.01953
C5    1   -0.202296    0.321905    0.283872    11.00000    0.01221    0.01317 =
         0.01427    0.00132    0.00373    0.00260
C6    1   -0.373007    0.309407    0.205003    11.00000    0.01674    0.01683 =
         0.01402    0.00615    0.00310    0.00420
H6    2   -0.346731    0.381854    0.147991    11.00000    0.01854
C7    1   -0.572836    0.199695    0.208674    11.00000    0.01367    0.01715 =
         0.01279    0.00337    0.00114    0.00450
H7    2   -0.692241    0.193654    0.154811    11.00000    0.02194
C8    1   -1.174434   -0.201906    0.202565    11.00000    0.01166    0.01839 =
         0.01474    0.00248    0.00298    0.00106
H8B   2   -1.188359   -0.300305    0.237713    11.00000    0.01745
H8A   2   -1.229738   -0.121918    0.250530    11.00000    0.02266
C9    1   -1.304219   -0.265926    0.082967    11.00000    0.01377    0.02272 =
         0.01599    0.00124    0.00147    0.00302
H9B   2   -1.303952   -0.164663    0.052150    11.00000    0.01658
H9A   2   -1.451578   -0.339031    0.084179    11.00000    0.01779
C10   1   -1.011733   -0.276445   -0.001511    11.00000    0.01683    0.02117 =
         0.01401    0.00033    0.00295    0.00246
H10B  2   -1.006980   -0.172991   -0.033019    11.00000    0.02305
H10A  2   -0.963002   -0.353425   -0.054041    11.00000    0.02132
C11   1   -0.872871   -0.216857    0.114775    11.00000    0.01453    0.01713 =
         0.01404    0.00052    0.00300    0.00511
H11B  2   -0.870878   -0.317260    0.143552    11.00000    0.01865
H11A  2   -0.729610   -0.146139    0.108578    11.00000    0.01821
C12   1    0.165891    0.457497    0.358720    11.00000    0.01278    0.01927 =
         0.01723    0.00304    0.00090    0.00368
H12B  2    0.186600    0.345501    0.349664    11.00000    0.01563
H12A  2    0.134537    0.492264    0.438287    11.00000    0.01665
C13   1    0.352966    0.593935    0.335298    11.00000    0.01498    0.02131 =
         0.02820    0.00662    0.00145    0.00021
AFIX 137
H13A  2    0.372493    0.559673    0.255668    11.00000   -1.50000
H13B  2    0.478823    0.606757    0.387451    11.00000   -1.50000
H13C  2    0.329505    0.704297    0.347509    11.00000   -1.50000
AFIX   0
H1O   2   -0.853553    0.102741    0.539620    11.00000    0.04242
 
HKLF 4
 
REM  C28 in P-1
REM R1 =  0.0402 for   2590 Fo > 4sig(Fo)  and  0.0526 for all   3140 data
REM    224 parameters refined using      0 restraints
 
END  
     
WGHT      0.0421      0.2937 
REM Highest difference peak  0.421,  deepest hole -0.211,  1-sigma level  0.047
Q1    1  -0.7073  0.0525  0.2983  11.00000  0.05    0.42
Q2    1  -0.9406 -0.2453  0.0590  11.00000  0.05    0.36
Q3    1  -0.5228  0.0906  0.3245  11.00000  0.05    0.31
Q4    1  -0.2901  0.3372  0.2549  11.00000  0.05    0.30
Q5    1  -0.5926  0.1599  0.2627  11.00000  0.05    0.29
Q6    1  -1.0558 -0.1485  0.1999  11.00000  0.05    0.27
Q7    1  -0.2204  0.2756  0.3217  11.00000  0.05    0.27
Q8    1  -1.2247 -0.2426  0.1391  11.00000  0.05    0.27
Q9    1  -0.8905 -0.0715  0.2470  11.00000  0.05    0.26
Q10   1  -0.3390  0.1711  0.3627  11.00000  0.05    0.25
;
_shelx_fcf_file
; 
# 
# h,k,l, Fc-squared, Fo-squared, sigma(Fo-squared) and status flag 
# 
data_c28 
_shelx_title ' C28 in P-1' 
_shelx_refln_list_code          4 
_shelx_F_calc_maximum       74.23 
_exptl_crystal_F_000       268.00 
_reflns_d_resolution_high  0.7490 
 
loop_ 
 _symmetry_equiv_pos_as_xyz 
 'x, y, z' 
 '-x, -y, -z' 
 
_cell_length_a     6.8280 
_cell_length_b     8.4251 
_cell_length_c    12.0384 
_cell_angle_alpha 101.229 
_cell_angle_beta   95.141 
_cell_angle_gamma 109.126 
 
_shelx_F_squared_multiplier     1.000 
 
loop_ 
 _refln_index_h 
 _refln_index_k 
 _refln_index_l 
 _refln_F_squared_calc 
 _refln_F_squared_meas 
 _refln_F_squared_sigma 
 _refln_observed_status 
   1   0   0     1197.10     1080.86      8.98 o 
   2   0   0      334.98      305.08      3.74 o 
   3   0   0       20.57       19.11      1.09 o 
   4   0   0       20.25       26.48      1.46 o 
   5   0   0      698.60      691.81     11.63 o 
   6   0   0        5.19        7.79      1.39 o 
   7   0   0        0.00        2.71      1.28 o 
   8   0   0        0.01       -2.00      2.54 o 
  -8   1   0        0.32       -1.47      1.47 o 
  -7   1   0        8.80        7.07      1.45 o 
  -6   1   0      289.17      284.97      5.50 o 
  -5   1   0        2.84        2.68      0.70 o 
  -4   1   0      255.45      285.70      5.14 o 
  -3   1   0     1049.55     1037.54     10.87 o 
  -2   1   0        0.17        0.12      0.23 o 
  -1   1   0       23.04       19.77      0.67 o 
   0   1   0      227.10      210.65      2.45 o 
   1   1   0       89.15       78.03      2.06 o 
   2   1   0       48.81       56.71      1.95 o 
   3   1   0        7.91       11.65      1.49 o 
   4   1   0        2.77        6.31      1.29 o 
   5   1   0       63.20       67.57      3.81 o 
   6   1   0      100.80      102.58      4.65 o 
   7   1   0        5.06        2.74      1.19 o 
   8   1   0       75.02      102.42     10.52 o 
  -8   2   0        6.76        7.03      1.38 o 
  -7   2   0       30.61       26.91      1.69 o 
  -6   2   0       97.39      102.75      3.39 o 
  -5   2   0      128.14      129.11      3.53 o 
  -4   2   0       59.49       62.03      2.21 o 
  -3   2   0        7.79        5.83      0.77 o 
  -2   2   0       46.85       51.35      1.41 o 
  -1   2   0      847.37      815.43      7.46 o 
   0   2   0      319.69      295.51      3.66 o 
   1   2   0        0.00       -0.17      0.17 o 
   2   2   0     1100.63     1185.30     13.07 o 
   3   2   0        3.78        4.67      0.78 o 
   4   2   0        2.82        3.96      0.81 o 
   5   2   0       41.54       32.06      3.45 o 
   6   2   0       27.90       32.26      2.63 o 
   7   2   0        1.90        8.63      1.76 o 
  -9   3   0        8.82        7.66      2.37 o 
  -8   3   0       37.34       35.88      2.83 o 
  -7   3   0      635.02      611.37     10.11 o 
  -6   3   0       37.60       41.87      2.50 o 
  -5   3   0       48.19       46.26      2.38 o 
  -4   3   0      485.74      475.39      6.72 o 
  -3   3   0      502.96      500.96      6.09 o 
  -2   3   0       68.14       52.03      1.67 o 
  -1   3   0      203.54      217.22      4.00 o 
   0   3   0        0.27        0.76      0.36 o 
   1   3   0       86.84       81.88      2.36 o 
   2   3   0      282.96      286.00      5.73 o 
   3   3   0      255.75      251.98      5.26 o 
   4   3   0       83.30       85.89      3.22 o 
   5   3   0        0.10       -0.88      0.88 o 
   6   3   0        0.79        0.41      1.08 o 
   7   3   0       20.73       28.61      3.38 o 
  -9   4   0       30.06       36.09      3.53 o 
  -8   4   0        8.34       10.07      1.73 o 
  -7   4   0        8.35        9.19      1.35 o 
  -6   4   0       75.75       70.74      2.90 o 
  -5   4   0       82.14       83.06      2.97 o 
  -4   4   0        2.67        7.90      1.09 o 
  -3   4   0      168.74      181.48      3.93 o 
  -2   4   0        0.37        2.23      0.55 o 
  -1   4   0       89.13       92.08      2.18 o 
   0   4   0       36.06       22.16      2.51 o 
   1   4   0      376.34      396.92      5.45 o 
   2   4   0       38.28       32.34      2.34 o 
   3   4   0        0.56        0.26      0.44 o 
   4   4   0      293.93      276.84      7.40 o 
   5   4   0      103.62      103.26      4.59 o 
   6   4   0       72.15       71.24      6.23 o 
  -9   5   0        0.02        2.45      3.15 o 
  -8   5   0       34.17       45.92      3.96 o 
  -7   5   0       61.30       63.21      3.66 o 
  -6   5   0        0.08        0.06      0.74 o 
  -5   5   0      173.84      179.68      4.76 o 
  -4   5   0       12.22       11.68      1.37 o 
  -3   5   0       63.86       66.94      2.23 o 
  -2   5   0      136.82      146.51      3.61 o 
  -1   5   0        1.37        1.95      0.72 o 
   0   5   0        6.23        3.78      0.76 o 
   1   5   0      112.15      114.47      3.55 o 
   2   5   0        1.01        1.25      0.53 o 
   3   5   0      165.95      161.65      3.85 o 
   4   5   0       32.16       35.69      2.50 o 
   5   5   0        0.05       -0.79      0.79 o 
   6   5   0       21.25       18.54      2.76 o 
  -8   6   0        3.30        2.90      2.37 o 
  -7   6   0        1.02        2.64      1.40 o 
  -6   6   0       13.50       15.96      2.06 o 
  -5   6   0       31.58       34.09      2.39 o 
  -4   6   0       74.03       81.92      2.84 o 
  -3   6   0       88.34       91.15      2.47 o 
  -2   6   0      251.34      275.28      4.86 o 
  -1   6   0        6.04        4.48      0.94 o 
   0   6   0       17.66       16.92      1.70 o 
   1   6   0       37.43       39.72      2.88 o 
   2   6   0        0.69        0.12      0.56 o 
   3   6   0      287.62      272.55      6.36 o 
   4   6   0        0.83        2.05      1.73 o 
   5   6   0       32.26       38.83      3.50 o 
  -8   7   0       18.78       14.77      2.77 o 
  -7   7   0       54.28       56.05      4.26 o 
  -6   7   0        2.99       -0.39      1.17 o 
  -5   7   0        0.11       -0.49      0.49 o 
  -4   7   0        3.89        3.05      0.73 o 
  -3   7   0      414.05      412.54      7.02 o 
  -2   7   0       46.39       51.65      2.66 o 
  -1   7   0        0.12       -0.36      0.65 o 
   0   7   0       28.15       28.66      2.39 o 
   1   7   0      138.64      148.43      5.16 o 
   2   7   0       26.67       22.57      2.27 o 
   3   7   0        5.17        5.42      1.28 o 
   4   7   0        1.77        2.17      1.85 o 
  -8   8   0        5.89        1.35      1.55 o 
  -7   8   0        4.59        5.73      1.49 o 
  -6   8   0       90.78       92.21      3.62 o 
  -5   8   0        7.73        8.30      1.48 o 
  -4   8   0       80.77       83.27      3.57 o 
  -3   8   0       27.21       27.58      1.97 o 
  -2   8   0        1.25       -0.70      0.85 o 
  -1   8   0        0.72        1.02      1.34 o 
   0   8   0       17.30       16.93      2.17 o 
   1   8   0       13.48       14.53      1.58 o 
   2   8   0       43.14       38.60      4.04 o 
   3   8   0        0.95        3.56      2.24 o 
  -7   9   0        0.00       -0.16      1.37 o 
  -6   9   0        0.04       -1.22      1.22 o 
  -5   9   0       50.38       50.26      3.06 o 
  -4   9   0        0.00        1.47      1.02 o 
  -3   9   0      203.04      203.63      6.42 o 
  -2   9   0        0.99        0.06      0.93 o 
  -1   9   0      112.09      111.46      4.72 o 
   0   9   0      314.26      339.14      9.18 o 
   1   9   0        0.14       -0.95      1.56 o 
   2   9   0        1.25        2.97      3.94 o 
  -6  10   0       49.32       47.11      3.28 o 
  -5  10   0       18.22       17.25      2.34 o 
  -4  10   0       34.07       30.62      2.66 o 
  -3  10   0       19.17       20.53      2.38 o 
  -2  10   0        7.65        3.98      1.75 o 
  -1  10   0      170.64      166.44      6.31 o 
   0  10   0      162.78      159.18      7.66 o 
  -3  11   0        9.28        6.51      2.52 o 
   2 -11   1       21.76       23.54      3.48 o 
   3 -11   1       23.25        7.88      5.07 o 
   4 -11   1       53.10       47.19      4.34 o 
   0 -10   1        0.37        0.64      1.78 o 
   1 -10   1       22.87       27.53      3.22 o 
   2 -10   1        0.56        2.39      1.43 o 
   3 -10   1        1.53       -0.36      1.53 o 
   4 -10   1        0.84        0.30      1.26 o 
   5 -10   1        3.68        3.94      1.54 o 
   6 -10   1        0.00       -1.17      1.17 o 
  -2  -9   1       15.87       14.72      3.20 o 
  -1  -9   1        3.12        1.06      2.69 o 
   0  -9   1      231.13      242.59      8.35 o 
   1  -9   1        0.68        0.51      1.54 o 
   2  -9   1        2.04        2.45      1.00 o 
   3  -9   1       37.72       37.26      3.08 o 
   4  -9   1       31.87       33.26      2.88 o 
   5  -9   1       21.46       24.54      2.93 o 
   6  -9   1       53.20       54.82      4.82 o 
   7  -9   1        2.19        3.75      1.58 o 
  -3  -8   1        0.10        0.11      1.27 o 
  -2  -8   1       26.84       25.96      2.57 o 
  -1  -8   1       92.60       93.97      3.68 o 
   0  -8   1      127.15      127.26      4.92 o 
   1  -8   1       27.62       29.25      2.59 o 
   2  -8   1        1.48        1.61      0.79 o 
   3  -8   1       43.64       41.94      2.37 o 
   4  -8   1       94.74       94.96      3.72 o 
   5  -8   1       44.88       44.16      2.65 o 
   6  -8   1       16.19       15.95      2.17 o 
   7  -8   1        0.01       -1.49      1.49 o 
   8  -8   1        7.88        6.90      2.20 o 
  -4  -7   1        4.55        3.83      1.53 o 
  -3  -7   1       34.94       37.77      2.66 o 
  -2  -7   1       38.13       36.61      3.31 o 
  -1  -7   1       47.53       52.79      2.71 o 
   0  -7   1        0.31       -0.07      1.11 o 
   1  -7   1       13.79       15.23      1.71 o 
   2  -7   1        0.03       -0.75      0.75 o 
   3  -7   1      380.97      378.05      7.66 o 
   4  -7   1       99.18       99.31      3.18 o 
   5  -7   1       56.16       60.49      3.27 o 
   6  -7   1       49.05       62.01      3.53 o 
   7  -7   1       27.87       24.70      2.84 o 
   8  -7   1        2.40        4.40      2.48 o 
  -5  -6   1        1.86       -0.98      1.54 o 
  -4  -6   1      122.35      118.96      4.65 o 
  -3  -6   1       83.09       75.48      3.93 o 
  -2  -6   1        0.51       -0.42      0.46 o 
  -1  -6   1      567.04      563.54      9.39 o 
   0  -6   1      164.09      158.47      4.69 o 
   1  -6   1       18.33       17.86      2.05 o 
   2  -6   1        6.68        6.70      1.15 o 
   3  -6   1        5.30        4.46      0.75 o 
   4  -6   1        6.37        7.31      1.18 o 
   5  -6   1        0.83        0.58      0.68 o 
   6  -6   1       40.56       38.80      3.21 o 
   7  -6   1       70.59       71.85      4.52 o 
   8  -6   1       37.50       34.75      3.56 o 
  -6  -5   1       31.63       32.19      3.53 o 
  -5  -5   1        0.42       -0.80      0.80 o 
  -4  -5   1        6.11        3.10      0.95 o 
  -3  -5   1        0.43       -0.16      0.68 o 
  -2  -5   1       16.01       16.41      1.65 o 
  -1  -5   1       68.08       68.83      2.10 o 
   0  -5   1       21.12       19.21      1.59 o 
   1  -5   1       15.49       16.04      1.54 o 
   2  -5   1        0.30        0.83      0.45 o 
   3  -5   1      232.73      241.77      4.96 o 
   4  -5   1      563.79      554.39      8.24 o 
   5  -5   1      322.77      323.46      6.55 o 
   6  -5   1       21.19       23.52      2.38 o 
   7  -5   1       31.61       33.98      3.12 o 
   8  -5   1       42.46       41.04      4.51 o 
  -6  -4   1        0.52       -0.29      1.31 o 
  -5  -4   1        2.03       -0.57      0.89 o 
  -4  -4   1      272.13      234.30      5.52 o 
  -3  -4   1        8.35        9.02      1.50 o 
  -2  -4   1       28.66       27.22      1.78 o 
  -1  -4   1      452.07      467.07      5.82 o 
   0  -4   1        0.71        0.93      0.36 o 
   1  -4   1      680.78      667.38     11.87 o 
   2  -4   1      250.71      240.56      4.96 o 
   3  -4   1        0.01        0.15      0.34 o 
   4  -4   1       15.87       18.48      1.63 o 
   5  -4   1       17.99       16.39      1.76 o 
   6  -4   1       39.96       41.57      3.22 o 
   7  -4   1        0.15        0.17      0.82 o 
   8  -4   1       21.42       22.39      2.17 o 
   9  -4   1        2.96        1.05      2.59 o 
  -7  -3   1      135.93      163.20      6.85 o 
  -6  -3   1        8.44        8.43      1.61 o 
  -5  -3   1      152.36      143.08      5.24 o 
  -4  -3   1      147.43      146.54      4.32 o 
  -3  -3   1      151.55      155.03      4.15 o 
  -2  -3   1       64.55       72.45      2.45 o 
  -1  -3   1       62.17       53.18      1.63 o 
   0  -3   1      352.44      334.42      4.78 o 
   1  -3   1       22.00       21.73      1.39 o 
   2  -3   1      665.05      641.59      7.00 o 
   3  -3   1      149.40      164.82      3.37 o 
   4  -3   1       56.76       53.96      1.84 o 
   5  -3   1      115.25      123.79      3.60 o 
   6  -3   1       18.14       16.59      1.64 o 
   7  -3   1       19.35       19.80      1.88 o 
   8  -3   1        2.40        3.87      1.13 o 
  -7  -2   1       14.42       13.27      1.76 o 
  -6  -2   1        0.85       -0.10      0.74 o 
  -5  -2   1       13.37        5.87      1.29 o 
  -4  -2   1       44.11       56.79      2.77 o 
  -3  -2   1      413.80      432.55      6.10 o 
  -2  -2   1       85.72       80.98      2.44 o 
  -1  -2   1        0.63        0.35      0.24 o 
   0  -2   1     3799.06     3401.96     61.47 o 
   2  -2   1      870.70      864.08      6.33 o 
   3  -2   1      503.96      509.09      6.03 o 
   4  -2   1       23.10       21.14      1.22 o 
   5  -2   1        0.48        0.27      0.43 o 
   6  -2   1      960.87      940.56     10.28 o 
   7  -2   1       21.82       24.36      1.86 o 
   8  -2   1       41.53       41.13      2.55 o 
  -8  -1   1       14.97       16.76      4.15 o 
  -7  -1   1        2.90        4.78      1.88 o 
  -6  -1   1       58.58       51.50      4.17 o 
  -5  -1   1      130.66      122.32      4.66 o 
  -4  -1   1        8.70       16.53      2.28 o 
  -3  -1   1      601.87      643.04      9.12 o 
  -2  -1   1     1234.05     1166.65      9.52 o 
  -1  -1   1      692.40      653.20      6.03 o 
   0  -1   1       80.21       76.13      1.36 o 
   1  -1   1      319.83      310.00      2.88 o 
   2  -1   1       70.79       65.90      1.44 o 
   3  -1   1       59.26       77.31      2.36 o 
   4  -1   1       81.63       84.17      3.02 o 
   5  -1   1      117.08      112.11      3.26 o 
   6  -1   1       14.91       13.72      1.37 o 
   7  -1   1       53.97       52.38      2.85 o 
   8  -1   1        7.52        8.19      1.93 o 
  -8   0   1       13.21       15.88      4.63 o 
  -7   0   1        8.45        3.71      1.29 o 
  -6   0   1        7.27        2.72      1.43 o 
  -5   0   1       52.93       48.26      3.00 o 
  -4   0   1      119.40      130.16      3.92 o 
  -3   0   1     1742.64     1818.10     14.84 o 
  -2   0   1      227.11      215.18      3.37 o 
  -1   0   1      256.28      231.39      2.45 o 
   1   0   1       17.49       17.20      0.74 o 
   2   0   1        0.46        0.24      0.25 o 
   3   0   1       39.74       45.58      2.02 o 
   4   0   1        0.72        0.13      0.33 o 
   5   0   1        8.50        9.31      1.28 o 
   6   0   1       69.33       67.93      3.78 o 
   7   0   1       52.69       54.78      4.50 o 
   8   0   1        8.22        7.47      2.45 o 
  -8   1   1        0.51        0.01      1.49 o 
  -7   1   1       70.52       66.04      4.70 o 
  -6   1   1      640.97      607.64      9.71 o 
  -5   1   1       26.95       27.49      1.99 o 
  -4   1   1       19.04       23.90      1.67 o 
  -3   1   1      117.42      112.53      2.87 o 
  -2   1   1       16.37       17.14      1.13 o 
   0   1   1     1728.49     1647.49     13.62 o 
   1   1   1        4.90        3.84      0.42 o 
   2   1   1       38.51       37.67      1.39 o 
   3   1   1        2.56        1.63      0.84 o 
   4   1   1      151.77      156.37      4.82 o 
   5   1   1      570.67      540.49     10.34 o 
   6   1   1       77.97       78.11      4.90 o 
   7   1   1        0.18        3.40      3.34 o 
   8   1   1       22.47       17.44      5.26 o 
  -8   2   1        4.54        4.33      1.68 o 
  -7   2   1        4.01        5.06      1.08 o 
  -6   2   1       16.39       15.93      1.62 o 
  -5   2   1      102.50      105.17      3.41 o 
  -4   2   1       85.20       76.66      2.38 o 
  -3   2   1       47.98       42.49      1.58 o 
  -2   2   1        0.11       -0.17      0.17 o 
  -1   2   1     2015.79     1948.19     15.17 o 
   0   2   1     1178.92     1072.14      8.89 o 
   1   2   1      208.83      205.07      3.38 o 
   2   2   1       82.84       97.21      3.04 o 
   3   2   1       91.86       80.98      2.76 o 
   4   2   1      263.49      255.25      6.15 o 
   5   2   1      257.09      249.84      6.19 o 
   6   2   1       13.02       13.20      1.80 o 
   7   2   1      128.44      144.58      7.41 o 
  -9   3   1       10.97       10.84      2.16 o 
  -8   3   1        7.73        8.91      1.50 o 
  -7   3   1      168.41      168.83      4.88 o 
  -6   3   1      179.28      179.83      4.65 o 
  -5   3   1        3.45        3.16      0.74 o 
  -4   3   1      137.79      140.13      3.38 o 
  -3   3   1       69.99       64.50      1.84 o 
  -2   3   1       29.28       25.18      1.13 o 
  -1   3   1      555.54      521.64      5.38 o 
   0   3   1       20.32       20.41      1.00 o 
   1   3   1       11.64       12.77      1.51 o 
   2   3   1      444.84      461.85      6.08 o 
   3   3   1        0.14       -0.44      0.48 o 
   4   3   1      116.77      112.46      3.78 o 
   5   3   1       63.22       57.87      3.90 o 
   6   3   1        0.11        0.98      1.98 o 
   7   3   1       73.26       94.54      7.39 o 
  -9   4   1        0.26       -2.09      2.50 o 
  -8   4   1        0.23        0.38      1.04 o 
  -7   4   1      259.12      250.91      6.40 o 
  -6   4   1      111.89      112.37      3.72 o 
  -5   4   1       18.87       17.80      1.53 o 
  -4   4   1       17.31       12.90      1.23 o 
  -3   4   1      330.46      347.56      4.53 o 
  -2   4   1     1083.81     1125.01     11.42 o 
  -1   4   1       27.42       30.86      1.35 o 
   0   4   1       14.40       12.53      1.22 o 
   1   4   1       14.96       14.83      1.37 o 
   2   4   1        4.27        3.19      0.60 o 
   3   4   1       40.31       41.25      2.60 o 
   4   4   1      312.00      298.12      7.34 o 
   5   4   1        9.07        6.21      1.69 o 
   6   4   1      116.26      124.22      5.75 o 
  -9   5   1        3.47        3.80      2.00 o 
  -8   5   1       77.70       84.29      5.21 o 
  -7   5   1        3.49        3.76      0.94 o 
  -6   5   1      132.01      138.04      4.54 o 
  -5   5   1        0.21       -0.65      0.65 o 
  -4   5   1       26.14       27.49      1.64 o 
  -3   5   1      100.91      108.90      2.47 o 
  -2   5   1      701.01      693.84      8.80 o 
  -1   5   1       17.23       18.36      1.73 o 
   0   5   1        2.62        2.96      1.04 o 
   1   5   1      407.11      425.94      7.48 o 
   2   5   1       31.44       29.56      1.92 o 
   3   5   1      239.37      236.47      4.96 o 
   4   5   1       31.97       31.32      2.57 o 
   5   5   1        5.57        4.16      1.35 o 
  -8   6   1        0.35        0.11      1.11 o 
  -7   6   1        1.18        1.47      1.05 o 
  -6   6   1       44.77       46.81      3.33 o 
  -5   6   1      390.33      400.18      6.38 o 
  -4   6   1      217.09      238.26      4.68 o 
  -3   6   1      247.37      260.61      4.35 o 
  -2   6   1       94.21       91.89      2.58 o 
  -1   6   1       56.01       56.81      2.52 o 
   0   6   1       96.56       89.80      3.75 o 
   1   6   1      173.14      175.24      4.77 o 
   2   6   1      107.70      113.09      3.53 o 
   3   6   1       16.24       11.63      1.41 o 
   4   6   1        0.35       -1.12      1.12 o 
   5   6   1        7.91        9.08      2.67 o 
  -8   7   1       11.21       11.85      2.31 o 
  -7   7   1       23.85       23.05      2.24 o 
  -6   7   1        6.29        5.83      1.20 o 
  -5   7   1        3.53        3.36      1.06 o 
  -4   7   1        0.31       -0.44      0.44 o 
  -3   7   1        8.60        9.59      1.23 o 
  -2   7   1      212.68      221.99      5.15 o 
  -1   7   1       12.59       11.37      1.40 o 
   0   7   1      194.53      198.63      4.87 o 
   1   7   1       73.99       77.38      3.40 o 
   2   7   1       45.72       47.24      3.08 o 
   3   7   1       41.85       38.15      2.49 o 
   4   7   1       10.48       11.14      2.37 o 
  -8   8   1        0.12       -1.49      1.49 o 
  -7   8   1       11.97       10.21      1.76 o 
  -6   8   1       88.95       88.95      3.72 o 
  -5   8   1        0.77       -0.67      0.67 o 
  -4   8   1       53.88       47.95      2.90 o 
  -3   8   1       44.51       43.50      3.35 o 
  -2   8   1       21.03       21.58      2.07 o 
  -1   8   1       27.48       28.24      2.82 o 
   0   8   1       48.00       45.66      3.35 o 
   1   8   1      164.08      156.17      5.48 o 
   2   8   1      125.88      127.53      5.48 o 
   3   8   1        0.96       -1.50      2.00 o 
  -7   9   1        2.02        2.54      1.44 o 
  -6   9   1       22.44       19.85      2.25 o 
  -5   9   1       13.89       13.99      1.86 o 
  -4   9   1        1.97        1.23      0.81 o 
  -3   9   1       71.89       80.01      6.08 o 
  -2   9   1       83.77       82.10      3.97 o 
  -1   9   1        5.80        3.23      1.18 o 
   0   9   1       24.19       27.29      2.95 o 
   1   9   1       39.67       40.51      3.36 o 
   2   9   1        0.87        0.01      1.60 o 
  -6  10   1       19.48       17.98      2.20 o 
  -5  10   1        4.34        6.23      1.74 o 
  -4  10   1        9.14        6.03      1.49 o 
  -3  10   1       30.96       32.44      3.26 o 
  -2  10   1        3.37        8.99      1.46 o 
  -1  10   1       10.60       10.64      2.72 o 
   0  10   1       16.25       13.49      4.10 o 
   2 -11   2       27.15       20.62      2.86 o 
   3 -11   2        0.04        0.51      2.31 o 
   4 -11   2        0.07       -1.85      1.85 o 
  -1 -10   2        0.19       -1.73      1.97 o 
   0 -10   2       95.71       93.11      5.24 o 
   1 -10   2       40.86       42.46      5.74 o 
   2 -10   2        1.20       -0.11      1.80 o 
   3 -10   2       10.35        9.74      2.24 o 
   4 -10   2        1.47       -0.19      1.50 o 
   5 -10   2      132.06      119.94      4.80 o 
   6 -10   2      110.53      124.89      5.28 o 
  -2  -9   2       36.09       41.24      4.50 o 
  -1  -9   2        1.32        3.84      1.63 o 
   0  -9   2      156.30      154.00      5.54 o 
   1  -9   2        0.38       -1.00      1.00 o 
   2  -9   2        2.79        4.41      1.47 o 
   3  -9   2       65.96       56.86      3.54 o 
   4  -9   2       72.20       73.77      4.05 o 
   5  -9   2      127.53      125.09      4.94 o 
   6  -9   2       37.48       37.04      3.55 o 
   7  -9   2       10.92        9.95      2.44 o 
  -3  -8   2       35.82       42.12      4.12 o 
  -2  -8   2       14.68       13.82      2.89 o 
  -1  -8   2        0.37        0.43      0.75 o 
   0  -8   2      816.90      804.83     13.53 o 
   1  -8   2      118.34      112.56      4.29 o 
   2  -8   2       56.29       59.25      3.37 o 
   3  -8   2        5.80        2.72      1.07 o 
   4  -8   2        0.27        0.13      0.75 o 
   5  -8   2       46.01       45.30      3.21 o 
   6  -8   2       10.25        8.08      1.60 o 
   7  -8   2       17.11       19.76      2.92 o 
   8  -8   2       29.64       27.43      4.64 o 
  -4  -7   2        0.62        0.19      1.19 o 
  -3  -7   2        2.68        5.41      1.17 o 
  -2  -7   2       22.03       16.92      2.21 o 
  -1  -7   2      130.41      145.57      4.14 o 
   0  -7   2       23.34       21.44      1.98 o 
   1  -7   2        0.11        0.98      0.86 o 
   2  -7   2       27.17       25.70      2.46 o 
   3  -7   2       84.63       83.42      3.50 o 
   4  -7   2        1.28        1.42      0.64 o 
   5  -7   2      120.99      118.55      4.21 o 
   6  -7   2      154.33      152.33      4.82 o 
   7  -7   2        2.55        1.36      1.25 o 
   8  -7   2       32.38       30.03      3.71 o 
  -5  -6   2        0.55       -0.41      1.39 o 
  -4  -6   2        2.92        0.74      0.97 o 
  -3  -6   2       79.30       78.17      3.59 o 
  -2  -6   2       24.05       25.13      1.85 o 
  -1  -6   2        9.01        7.74      1.12 o 
   0  -6   2       62.13       55.84      2.09 o 
   1  -6   2       17.32       27.17      2.39 o 
   2  -6   2      699.29      721.19     10.91 o 
   3  -6   2      168.70      164.16      4.43 o 
   4  -6   2        8.66        7.90      1.17 o 
   5  -6   2        0.29        0.09      0.66 o 
   6  -6   2       28.99       27.05      2.95 o 
   7  -6   2        1.40        1.87      1.65 o 
   8  -6   2       38.81       32.89      3.71 o 
  -6  -5   2       48.38       38.39      3.47 o 
  -5  -5   2        0.04        1.83      1.19 o 
  -4  -5   2      115.48      101.72      3.77 o 
  -3  -5   2       60.08       60.78      3.08 o 
  -2  -5   2        4.91        4.21      0.86 o 
  -1  -5   2        4.17        4.26      0.68 o 
   0  -5   2       92.04       91.07      2.72 o 
   1  -5   2      245.90      259.32      5.65 o 
   2  -5   2       57.97       57.30      2.75 o 
   3  -5   2      287.35      291.65      4.76 o 
   4  -5   2       16.47       11.59      1.24 o 
   5  -5   2        8.71       10.27      1.41 o 
   6  -5   2      143.84      145.07      5.04 o 
   7  -5   2        0.01       -1.05      1.21 o 
   8  -5   2       14.06       14.44      2.70 o 
  -6  -4   2       40.93       43.47      3.62 o 
  -5  -4   2       23.59       23.29      2.26 o 
  -4  -4   2        1.57        3.83      0.85 o 
  -3  -4   2       10.77       13.37      1.49 o 
  -2  -4   2       17.56       21.43      2.12 o 
  -1  -4   2        1.32        1.46      0.39 o 
   0  -4   2        1.02        2.14      0.42 o 
   1  -4   2     1292.55     1315.38     11.93 o 
   2  -4   2     1007.36     1010.73     11.63 o 
   3  -4   2      355.64      353.13      5.09 o 
   4  -4   2      297.36      308.11      8.76 o 
   5  -4   2       17.12       15.61      1.56 o 
   6  -4   2       21.80       24.55      2.26 o 
   7  -4   2      216.07      213.42      5.43 o 
   8  -4   2       78.35       85.10      4.63 o 
  -7  -3   2        6.51        8.05      2.45 o 
  -6  -3   2        0.71        1.74      1.28 o 
  -5  -3   2      281.74      238.50      6.27 o 
  -4  -3   2        0.00        0.01      0.41 o 
  -3  -3   2        3.42        5.54      0.88 o 
  -2  -3   2      123.16      131.56      3.09 o 
  -1  -3   2      402.98      387.83      4.58 o 
   0  -3   2       72.76       69.47      1.84 o 
   1  -3   2     1620.45     1579.69     13.18 o 
   2  -3   2      100.50       96.82      2.45 o 
   3  -3   2      197.15      210.07      4.09 o 
   4  -3   2       20.07       26.00      1.68 o 
   5  -3   2       11.29        7.69      1.37 o 
   6  -3   2       11.55        9.59      1.43 o 
   7  -3   2        1.52        1.07      0.86 o 
   8  -3   2        3.17        5.87      1.22 o 
  -7  -2   2        1.00        0.70      1.67 o 
  -6  -2   2        1.11        2.76      0.91 o 
  -5  -2   2       32.00       22.72      2.54 o 
  -4  -2   2       19.87       20.30      1.67 o 
  -3  -2   2      486.30      501.05      5.95 o 
  -2  -2   2     2473.69     2549.98     18.64 o 
  -1  -2   2       92.98       84.16      1.70 o 
   0  -2   2     1327.66     1283.57      9.60 o 
   1  -2   2       15.70       14.87      0.91 o 
   2  -2   2      576.47      562.63      4.96 o 
   3  -2   2      547.90      591.95      6.23 o 
   4  -2   2       15.05       12.28      1.05 o 
   5  -2   2        2.10        2.15      0.69 o 
   6  -2   2      103.00      102.97      2.99 o 
   7  -2   2       46.84       42.27      2.07 o 
   8  -2   2       56.20       62.86      3.26 o 
  -8  -1   2      166.13      174.17      8.40 o 
  -7  -1   2        0.47       -1.14      1.14 o 
  -6  -1   2       41.19       31.74      3.04 o 
  -5  -1   2       79.49       69.11      3.51 o 
  -4  -1   2       91.38       97.34      3.72 o 
  -3  -1   2     1403.59     1496.70     14.56 o 
  -2  -1   2        0.19        0.18      0.26 o 
  -1  -1   2      851.98      819.42      6.56 o 
   0  -1   2     1952.98     1826.71     24.91 o 
   1  -1   2        8.51       11.81      0.58 o 
   2  -1   2     1061.47     1069.09      8.69 o 
   3  -1   2       29.69       30.68      1.67 o 
   4  -1   2       81.09       79.54      2.50 o 
   5  -1   2       31.62       32.52      1.95 o 
   6  -1   2      190.56      189.52      4.06 o 
   7  -1   2       47.95       52.51      2.80 o 
   8  -1   2        0.22        0.02      1.99 o 
  -8   0   2       28.80       20.37      4.78 o 
  -7   0   2       18.73       14.33      1.91 o 
  -6   0   2       99.21       89.78      4.14 o 
  -5   0   2       11.80       14.87      1.68 o 
  -4   0   2      154.09      174.59      4.43 o 
  -3   0   2       13.15       12.28      1.03 o 
  -2   0   2      236.16      234.31      3.76 o 
  -1   0   2      155.83      145.51      1.91 o 
   0   0   2     1328.34     1262.88      6.03 o 
   1   0   2      808.94      770.91      5.76 o 
   2   0   2      498.30      514.19      5.85 o 
   3   0   2       32.50       37.14      1.92 o 
   4   0   2      406.09      374.30      6.38 o 
   5   0   2      847.06      829.58     13.86 o 
   6   0   2       32.63       30.07      2.57 o 
   7   0   2        0.10        0.31      1.78 o 
   8   0   2       19.10       14.92      2.44 o 
  -8   1   2        0.30        0.05      1.31 o 
  -7   1   2       68.84       65.24      3.86 o 
  -6   1   2      169.55      158.66      5.50 o 
  -5   1   2       57.22       53.93      2.54 o 
  -4   1   2      178.12      188.46      4.52 o 
  -3   1   2      246.12      248.61      4.11 o 
  -2   1   2      621.83      600.83      6.20 o 
  -1   1   2     3900.60     3721.88     48.91 o 
   0   1   2     1704.53     1521.84      8.82 o 
   1   1   2      123.17      123.27      2.19 o 
   2   1   2        0.34        0.61      0.31 o 
   3   1   2       58.24       60.75      2.17 o 
   4   1   2       31.53       34.96      2.72 o 
   5   1   2       35.51       31.53      2.57 o 
   6   1   2       48.33       51.68      3.71 o 
   7   1   2        5.04        8.99      2.41 o 
  -9   2   2        0.83       14.63      5.38 o 
  -8   2   2        4.71        2.12      1.31 o 
  -7   2   2        1.01        1.88      1.08 o 
  -6   2   2      262.42      260.67      6.14 o 
  -5   2   2       67.99       63.55      2.50 o 
  -4   2   2        5.61        7.42      0.87 o 
  -3   2   2      445.79      411.94      4.42 o 
  -2   2   2      443.56      441.72      3.67 o 
  -1   2   2     5510.61     5478.19     72.29 o 
   0   2   2      186.21      189.90      2.45 o 
   1   2   2       40.28       40.84      1.39 o 
   2   2   2        2.97        2.26      0.57 o 
   3   2   2        5.76        4.50      0.82 o 
   4   2   2      518.50      484.37      8.75 o 
   5   2   2       32.40       28.61      2.41 o 
   6   2   2       32.81       34.40      3.13 o 
   7   2   2      133.07      159.06      6.89 o 
  -9   3   2        0.12       -0.93      1.84 o 
  -8   3   2       10.21        7.64      1.71 o 
  -7   3   2      294.64      305.24      7.14 o 
  -6   3   2        4.41        5.64      1.10 o 
  -5   3   2      209.79      222.01      4.23 o 
  -4   3   2        0.31        0.19      0.30 o 
  -3   3   2       71.72       73.11      1.92 o 
  -2   3   2     2451.04     2526.77     19.90 o 
  -1   3   2        3.83        2.72      0.35 o 
   0   3   2       34.02       30.57      1.18 o 
   1   3   2        1.58        1.10      0.37 o 
   2   3   2      227.60      240.98      4.13 o 
   3   3   2      314.83      312.38      5.84 o 
   4   3   2      172.36      171.16      4.64 o 
   5   3   2       27.54       27.60      2.42 o 
   6   3   2       80.12       89.24      4.83 o 
  -9   4   2        2.50        5.63      1.86 o 
  -8   4   2       50.56       47.98      3.56 o 
  -7   4   2        0.04       -0.37      0.70 o 
  -6   4   2       20.72       19.45      1.97 o 
  -5   4   2       89.60       91.63      2.80 o 
  -4   4   2      330.41      326.67      5.24 o 
  -3   4   2      348.10      379.04      4.53 o 
  -2   4   2      592.63      607.45      7.20 o 
  -1   4   2       22.66       23.25      1.35 o 
   0   4   2      113.62      113.60      2.43 o 
   1   4   2      344.13      355.69      6.04 o 
   2   4   2      528.57      544.48      7.07 o 
   3   4   2      565.47      566.78      8.62 o 
   4   4   2       17.27       18.28      1.87 o 
   5   4   2        5.68        4.38      1.57 o 
   6   4   2       26.67       38.85      3.85 o 
  -9   5   2        0.15        0.91      1.61 o 
  -8   5   2      114.25      113.72      5.20 o 
  -7   5   2       38.28       35.78      2.81 o 
  -6   5   2       55.85       52.07      3.12 o 
  -5   5   2       29.25       28.97      1.91 o 
  -4   5   2        1.68        2.74      0.59 o 
  -3   5   2       15.61       18.96      1.36 o 
  -2   5   2      116.22      124.66      3.02 o 
  -1   5   2       81.32       82.14      2.36 o 
   0   5   2        8.84        6.91      0.97 o 
   1   5   2       61.60       62.41      2.65 o 
   2   5   2       32.28       36.20      2.19 o 
   3   5   2        4.14        4.06      1.09 o 
   4   5   2       66.62       59.01      3.53 o 
   5   5   2        0.02        0.89      1.84 o 
  -8   6   2       68.29       60.77      5.03 o 
  -7   6   2       36.65       34.24      2.58 o 
  -6   6   2       26.97       29.75      2.27 o 
  -5   6   2      136.69      136.67      3.73 o 
  -4   6   2        0.00       -0.34      0.34 o 
  -3   6   2       51.87       48.70      2.04 o 
  -2   6   2       72.25       76.21      2.84 o 
  -1   6   2       23.64       24.18      1.88 o 
   0   6   2       90.49       89.21      3.34 o 
   1   6   2       65.41       69.71      3.24 o 
   2   6   2      114.98      111.68      3.69 o 
   3   6   2      117.52      117.46      4.57 o 
   4   6   2        0.53       -1.47      2.26 o 
  -8   7   2       12.12        8.66      2.50 o 
  -7   7   2        3.72        3.23      1.10 o 
  -6   7   2       77.79       75.03      3.17 o 
  -5   7   2       27.84       33.18      2.09 o 
  -4   7   2        7.12        7.19      0.94 o 
  -3   7   2       11.03       14.12      1.83 o 
  -2   7   2      117.89      112.95      4.08 o 
  -1   7   2      167.22      154.47      5.31 o 
   0   7   2       38.33       39.13      2.40 o 
   1   7   2      148.94      158.14      5.37 o 
   2   7   2        7.16       10.11      1.50 o 
   3   7   2       14.09       11.54      2.54 o 
   4   7   2        3.72       -0.13      1.94 o 
  -8   8   2       41.26       35.23      3.57 o 
  -7   8   2        3.40        2.17      1.49 o 
  -6   8   2        0.30        0.38      0.89 o 
  -5   8   2        2.71        1.42      0.77 o 
  -4   8   2       33.55       32.27      2.73 o 
  -3   8   2       97.31       91.39      5.06 o 
  -2   8   2       99.31       95.74      5.18 o 
  -1   8   2        3.24        2.23      1.26 o 
   0   8   2        0.80       -0.19      0.96 o 
   1   8   2        5.29        5.19      1.41 o 
   2   8   2        6.49        8.36      1.70 o 
   3   8   2        0.33       -1.60      1.81 o 
  -7   9   2        1.44        0.50      2.03 o 
  -6   9   2       22.40       20.09      2.00 o 
  -5   9   2        1.56        1.66      1.26 o 
  -4   9   2       49.15       50.72      2.64 o 
  -3   9   2        0.78        1.82      1.25 o 
  -2   9   2       33.56       36.11      3.04 o 
  -1   9   2        4.99        5.89      1.49 o 
   0   9   2      115.53      111.39      6.09 o 
   1   9   2      186.04      182.17      8.15 o 
  -6  10   2        1.05        3.88      2.64 o 
  -5  10   2        5.04        6.80      1.28 o 
  -4  10   2        7.58        5.93      1.67 o 
  -3  10   2        3.85        3.81      1.64 o 
  -2  10   2        8.30        6.24      1.91 o 
  -1  10   2       48.35       55.05      5.24 o 
   2 -11   3        5.79        3.75      1.93 o 
   3 -11   3        0.35        5.00      3.08 o 
   4 -11   3       41.73       40.56      3.51 o 
  -1 -10   3        0.63        2.99      2.72 o 
   0 -10   3        9.93       15.56      3.13 o 
   1 -10   3      222.07      219.25      8.31 o 
   2 -10   3       63.22       56.29      4.41 o 
   3 -10   3       75.73       80.09      5.31 o 
   4 -10   3        7.69        7.28      1.57 o 
   5 -10   3        3.75        5.21      1.58 o 
   6 -10   3       21.78       20.28      2.23 o 
  -2  -9   3       14.75       12.61      4.51 o 
  -1  -9   3       23.43       21.57      2.27 o 
   0  -9   3       16.50       16.48      2.82 o 
   1  -9   3       21.94       25.24      2.74 o 
   2  -9   3       17.46       14.44      2.23 o 
   3  -9   3       38.65       35.07      2.30 o 
   4  -9   3      128.65      131.95      4.81 o 
   5  -9   3      136.17      131.17      4.96 o 
   6  -9   3        3.71        7.18      2.20 o 
   7  -9   3       27.97       24.30      2.91 o 
  -3  -8   3        1.49        0.41      1.75 o 
  -2  -8   3        4.79        0.66      2.47 o 
  -1  -8   3      118.42      117.50      4.01 o 
   0  -8   3        6.72        4.97      1.50 o 
   1  -8   3        7.43        5.99      1.62 o 
   2  -8   3        0.00       -0.75      0.75 o 
   3  -8   3      123.47      124.47      4.58 o 
   4  -8   3      255.40      263.67      5.29 o 
   5  -8   3       77.75       72.81      3.75 o 
   6  -8   3        5.05        5.34      1.25 o 
   7  -8   3       65.95       55.30      5.37 o 
   8  -8   3        9.28       10.84      6.12 o 
  -4  -7   3       25.00       27.20      2.33 o 
  -3  -7   3       15.13       13.84      1.84 o 
  -2  -7   3       39.45       36.59      2.95 o 
  -1  -7   3        8.23        7.83      1.28 o 
   0  -7   3        0.89        1.15      0.82 o 
   1  -7   3       16.91       20.15      2.33 o 
   2  -7   3        3.83        5.50      1.19 o 
   3  -7   3       37.76       33.17      2.20 o 
   4  -7   3      162.36      158.42      4.11 o 
   5  -7   3      191.86      193.50      4.70 o 
   6  -7   3       30.21       26.10      2.30 o 
   7  -7   3      149.36      148.97      6.52 o 
   8  -7   3        9.30        8.16      2.65 o 
  -5  -6   3       13.01       12.72      1.97 o 
  -4  -6   3       55.32       58.21      3.33 o 
  -3  -6   3       46.58       49.58      3.00 o 
  -2  -6   3       94.20      103.51      3.27 o 
  -1  -6   3      282.65      280.16      6.03 o 
   0  -6   3        3.62        6.06      1.23 o 
   1  -6   3        0.01        0.31      0.67 o 
   2  -6   3       42.98       51.72      2.16 o 
   3  -6   3      250.94      295.50      6.28 o 
   4  -6   3        2.05        4.28      1.13 o 
   5  -6   3       32.08       31.50      3.31 o 
   6  -6   3        0.45       -0.17      0.85 o 
   7  -6   3       40.05       39.52      3.43 o 
   8  -6   3       40.42       41.54      4.37 o 
  -6  -5   3       10.47        6.43      1.82 o 
  -5  -5   3       11.19       11.35      1.75 o 
  -4  -5   3      122.20      110.11      4.05 o 
  -3  -5   3       14.07       10.59      1.32 o 
  -2  -5   3      204.98      191.23      4.47 o 
  -1  -5   3        2.81        3.49      0.75 o 
   0  -5   3       24.40       19.73      1.33 o 
   1  -5   3        0.83        1.17      0.49 o 
   2  -5   3      475.70      485.51      7.25 o 
   3  -5   3      300.86      300.29      5.55 o 
   4  -5   3      100.87      109.66      3.13 o 
   5  -5   3        0.05       -0.08      0.64 o 
   6  -5   3        0.08        1.16      0.76 o 
   7  -5   3      207.71      215.25      6.89 o 
   8  -5   3        6.67        6.53      2.31 o 
  -6  -4   3       17.89       23.23      3.67 o 
  -5  -4   3        5.88        5.40      1.11 o 
  -4  -4   3      112.35       96.52      3.07 o 
  -3  -4   3      195.87      192.13      5.38 o 
  -2  -4   3      866.25      872.14     10.00 o 
  -1  -4   3      344.30      347.57      4.87 o 
   0  -4   3        7.14        5.04      0.73 o 
   1  -4   3     1245.81     1319.59     12.18 o 
   2  -4   3        2.38        1.47      0.70 o 
   3  -4   3       23.25       28.81      1.44 o 
   4  -4   3      295.97      303.63      5.57 o 
   5  -4   3        4.20        5.86      1.12 o 
   6  -4   3       91.16       75.02      2.96 o 
   7  -4   3       73.24       72.62      3.57 o 
   8  -4   3        4.27        7.32      2.03 o 
  -7  -3   3       41.14       36.76      3.56 o 
  -6  -3   3        3.10        8.13      1.37 o 
  -5  -3   3        0.01       -0.41      0.67 o 
  -4  -3   3       44.36       40.66      1.77 o 
  -3  -3   3        0.17        0.22      0.48 o 
  -2  -3   3      814.09      842.97      9.46 o 
  -1  -3   3       15.79       15.55      0.93 o 
   0  -3   3     1236.50     1200.18      9.35 o 
   1  -3   3       82.86       89.68      2.21 o 
   2  -3   3        9.37        6.26      0.74 o 
   3  -3   3      910.84      984.81      9.60 o 
   4  -3   3       28.00       27.83      1.77 o 
   5  -3   3       19.94       20.61      1.74 o 
   6  -3   3        2.30        1.86      0.83 o 
   7  -3   3       35.02       41.40      2.78 o 
   8  -3   3        1.35        2.49      1.55 o 
  -7  -2   3        8.22        8.94      1.88 o 
  -6  -2   3        1.69        3.62      1.04 o 
  -5  -2   3      386.60      323.74      7.08 o 
  -4  -2   3      151.04      152.93      3.84 o 
  -3  -2   3      397.57      430.63      6.45 o 
  -2  -2   3       29.67       28.21      1.33 o 
  -1  -2   3      881.30      852.99      7.61 o 
   0  -2   3     2138.57     2095.70     15.95 o 
   1  -2   3      372.34      354.04      4.83 o 
   2  -2   3        4.83        4.13      0.53 o 
   3  -2   3       51.31       49.19      1.67 o 
   4  -2   3        6.07        7.11      0.86 o 
   5  -2   3       52.20       59.03      3.05 o 
   6  -2   3      157.13      148.35      4.28 o 
   7  -2   3       29.61       27.33      2.40 o 
   8  -2   3        0.00       -0.02      1.38 o 
  -8  -1   3      154.19      166.04     10.27 o 
  -7  -1   3       13.93       11.15      1.81 o 
  -6  -1   3      145.16      107.54      4.63 o 
  -5  -1   3        7.68        7.90      1.34 o 
  -4  -1   3       93.27      103.72      3.20 o 
  -3  -1   3      572.67      595.49      8.22 o 
  -2  -1   3      117.64      117.63      2.51 o 
  -1  -1   3       29.75       26.84      0.90 o 
   0  -1   3     2685.11     2489.59     35.33 o 
   1  -1   3       77.35       70.11      1.34 o 
   2  -1   3       70.06       61.61      1.63 o 
   3  -1   3       15.33       19.87      1.56 o 
   4  -1   3       20.56       23.66      1.71 o 
   5  -1   3       59.90       56.68      2.66 o 
   6  -1   3        3.89        3.59      1.15 o 
   7  -1   3       18.75       19.31      2.19 o 
   8  -1   3       47.47       54.76      5.59 o 
  -8   0   3        7.28        7.75      2.16 o 
  -7   0   3        3.73       -0.65      1.08 o 
  -6   0   3       60.74       69.53      3.67 o 
  -5   0   3        8.20        5.53      1.39 o 
  -4   0   3       44.93       51.39      2.22 o 
  -3   0   3        0.19        2.57      0.57 o 
  -2   0   3      937.84      909.37      8.90 o 
  -1   0   3      179.33      181.30      1.88 o 
   0   0   3     1362.07     1305.83      7.46 o 
   1   0   3        1.07        0.33      0.18 o 
   2   0   3      993.95     1050.05      8.43 o 
   3   0   3        2.91        3.95      0.76 o 
   4   0   3       26.06       31.30      2.34 o 
   5   0   3      307.95      295.56      6.99 o 
   6   0   3        7.26        4.48      1.25 o 
   7   0   3        2.03        1.26      1.19 o 
   8   0   3       23.85       22.26      3.71 o 
  -8   1   3        6.60        5.86      1.64 o 
  -7   1   3        0.32       -0.52      0.92 o 
  -6   1   3       76.58       74.51      5.14 o 
  -5   1   3      186.32      192.50      4.49 o 
  -4   1   3        0.46       -0.28      0.30 o 
  -3   1   3       90.14       91.19      2.11 o 
  -2   1   3      495.48      506.31      4.02 o 
  -1   1   3     2464.98     2408.79     14.39 o 
   0   1   3       66.27       57.80      0.97 o 
   1   1   3       85.89       83.23      1.74 o 
   2   1   3        0.75        1.33      0.32 o 
   3   1   3        1.63        0.53      0.28 o 
   4   1   3     1010.10     1003.72     12.79 o 
   5   1   3       14.43       12.83      1.60 o 
   6   1   3        1.08        1.53      1.02 o 
   7   1   3      139.97      160.25      6.65 o 
  -8   2   3        2.07        1.93      1.19 o 
  -7   2   3       70.34       63.39      3.48 o 
  -6   2   3       11.49       10.62      1.28 o 
  -5   2   3       25.06       25.51      1.59 o 
  -4   2   3        0.08       -0.27      0.27 o 
  -3   2   3       33.07       32.87      1.23 o 
  -2   2   3      112.22      119.62      1.62 o 
  -1   2   3     1239.60     1253.33      6.96 o 
   0   2   3        4.58        6.49      0.49 o 
   1   2   3       78.32       78.25      1.94 o 
   2   2   3       31.73       30.68      2.06 o 
   3   2   3      518.16      517.47      7.62 o 
   4   2   3     1982.45     1962.06     19.45 o 
   5   2   3       23.16       22.22      2.33 o 
   6   2   3       16.31       14.75      2.48 o 
   7   2   3        7.24        7.13      2.52 o 
  -9   3   3        9.47        6.62      2.25 o 
  -8   3   3        0.41        1.80      1.23 o 
  -7   3   3      102.06      102.45      4.10 o 
  -6   3   3       60.38       58.22      2.57 o 
  -5   3   3      364.89      378.35      5.38 o 
  -4   3   3       75.29       72.50      2.02 o 
  -3   3   3        8.62       15.67      0.98 o 
  -2   3   3       33.21       38.37      1.17 o 
  -1   3   3      777.17      809.27      6.29 o 
   0   3   3      304.82      309.22      3.72 o 
   1   3   3      149.01      152.92      2.94 o 
   2   3   3       16.29       18.15      1.67 o 
   3   3   3       74.82       75.40      2.86 o 
   4   3   3      119.41      116.25      3.92 o 
   5   3   3        3.67        3.56      1.20 o 
   6   3   3       18.42       19.80      3.08 o 
  -9   4   3        0.83        2.07      2.25 o 
  -8   4   3        0.88        0.65      1.29 o 
  -7   4   3      183.14      186.97      5.28 o 
  -6   4   3       95.05      102.20      3.38 o 
  -5   4   3        9.91       11.94      1.21 o 
  -4   4   3       58.18       63.88      2.39 o 
  -3   4   3      367.49      402.48      4.47 o 
  -2   4   3      399.84      397.23      4.49 o 
  -1   4   3      310.68      329.16      4.09 o 
   0   4   3       48.43       56.91      1.73 o 
   1   4   3       47.67       51.30      1.84 o 
   2   4   3       46.95       48.64      2.26 o 
   3   4   3      375.20      373.16      7.03 o 
   4   4   3        0.31       -0.35      0.72 o 
   5   4   3        0.64        1.52      1.43 o 
   6   4   3        8.59        4.31      2.16 o 
  -8   5   3      108.82      107.88      5.34 o 
  -7   5   3       52.11       54.83      3.32 o 
  -6   5   3       89.25       94.12      3.40 o 
  -5   5   3       52.17       49.00      2.49 o 
  -4   5   3      195.62      211.37      3.77 o 
  -3   5   3      642.35      688.75      6.86 o 
  -2   5   3        5.56        6.34      0.79 o 
  -1   5   3      114.09      116.14      2.73 o 
   0   5   3      159.20      156.71      3.22 o 
   1   5   3      133.31      141.79      3.55 o 
   2   5   3       55.23       53.30      2.94 o 
   3   5   3        1.27        0.28      0.91 o 
   4   5   3        4.10        5.95      1.30 o 
   5   5   3        2.88        3.71      2.16 o 
  -8   6   3      206.93      217.10      6.64 o 
  -7   6   3       55.88       44.35      3.07 o 
  -6   6   3       53.99       51.37      3.07 o 
  -5   6   3        4.15        2.31      0.70 o 
  -4   6   3        1.73        1.46      0.50 o 
  -3   6   3      465.07      471.37      6.43 o 
  -2   6   3        1.76        3.60      0.71 o 
  -1   6   3      215.19      216.58      4.10 o 
   0   6   3       10.73       11.76      1.25 o 
   1   6   3        2.20        1.46      0.67 o 
   2   6   3        0.00       -0.64      0.64 o 
   3   6   3       31.95       25.98      2.76 o 
   4   6   3        1.43       -0.29      1.88 o 
  -8   7   3       71.41       68.90      5.48 o 
  -7   7   3        1.37       -0.02      1.02 o 
  -6   7   3       22.00       24.61      2.27 o 
  -5   7   3       31.79       31.97      2.48 o 
  -4   7   3       13.89       11.59      1.19 o 
  -3   7   3        7.61        7.60      0.98 o 
  -2   7   3       31.36       32.39      2.12 o 
  -1   7   3       62.80       60.70      3.17 o 
   0   7   3       85.56       87.30      4.08 o 
   1   7   3       35.92       32.39      3.24 o 
   2   7   3      270.30      283.88      8.08 o 
   3   7   3        0.07       -1.14      1.14 o 
  -7   8   3       31.90       30.38      2.80 o 
  -6   8   3       47.10       46.20      4.00 o 
  -5   8   3       58.79       64.41      3.18 o 
  -4   8   3       11.96       12.39      1.21 o 
  -3   8   3       18.92       20.32      1.80 o 
  -2   8   3       11.01        8.47      1.15 o 
  -1   8   3       98.21       97.45      3.59 o 
   0   8   3       33.12       28.65      1.98 o 
   1   8   3       13.30       13.23      1.64 o 
   2   8   3        0.34       -0.61      2.02 o 
  -7   9   3       18.54       13.44      3.05 o 
  -6   9   3       10.46        9.43      1.57 o 
  -5   9   3       39.24       46.02      3.01 o 
  -4   9   3        2.07        1.73      1.15 o 
  -3   9   3       62.16       50.61      3.25 o 
  -2   9   3       12.06        9.82      1.50 o 
  -1   9   3       20.58       21.42      2.46 o 
   0   9   3       10.54        9.81      2.03 o 
   1   9   3       33.01       39.61      3.55 o 
  -5  10   3       53.80       52.72      3.38 o 
  -4  10   3       18.50       13.27      2.45 o 
  -3  10   3        7.15        7.56      1.77 o 
  -2  10   3        2.93        1.07      2.05 o 
  -1  10   3       50.17       50.15      6.09 o 
   2 -11   4        2.74        1.39      2.12 o 
   3 -11   4       50.01       48.46      5.81 o 
   4 -11   4       25.25       22.66      3.04 o 
  -1 -10   4        1.95        3.44      2.46 o 
   0 -10   4        4.62        0.62      1.72 o 
   1 -10   4        0.08       -0.11      2.17 o 
   2 -10   4        1.19        0.77      1.38 o 
   3 -10   4        2.09        3.72      2.27 o 
   4 -10   4        9.79       12.94      2.10 o 
   5 -10   4      108.43      101.39      5.16 o 
   6 -10   4       34.15       35.97      3.35 o 
  -2  -9   4        0.83       -2.12      2.38 o 
  -1  -9   4       27.23       27.39      3.21 o 
   0  -9   4       16.04       17.05      2.22 o 
   1  -9   4       49.83       54.81      3.92 o 
   2  -9   4       18.07       15.61      2.18 o 
   3  -9   4       44.63       35.91      3.63 o 
   4  -9   4        9.46        7.64      1.35 o 
   5  -9   4      144.47      145.54      4.57 o 
   6  -9   4       44.05       47.98      3.50 o 
   7  -9   4       27.98       29.07      4.46 o 
  -3  -8   4       36.61       43.91      4.03 o 
  -2  -8   4       36.47       41.03      3.47 o 
  -1  -8   4        5.48        5.66      1.13 o 
   0  -8   4      169.76      171.32      5.84 o 
   1  -8   4        1.23        2.20      1.06 o 
   2  -8   4       11.85       10.55      1.55 o 
   3  -8   4       22.81       24.27      2.65 o 
   4  -8   4      231.28      235.53      4.81 o 
   5  -8   4       43.19       48.42      2.78 o 
   6  -8   4        1.47        4.84      1.29 o 
   7  -8   4        4.80        1.65      1.88 o 
  -4  -7   4        6.81        3.87      1.40 o 
  -3  -7   4        3.32        2.08      1.04 o 
  -2  -7   4       91.29       94.47      4.32 o 
  -1  -7   4      466.41      453.36      7.56 o 
   0  -7   4        9.95        9.22      1.69 o 
   1  -7   4        3.97        1.82      0.78 o 
   2  -7   4        1.73        0.01      0.69 o 
   3  -7   4        2.31        1.78      0.82 o 
   4  -7   4      563.34      563.66      8.09 o 
   5  -7   4        2.70        2.74      0.85 o 
   6  -7   4        0.41       -1.13      1.13 o 
   7  -7   4        1.46        2.97      1.55 o 
   8  -7   4       44.34       32.90      4.48 o 
  -5  -6   4        3.07       -0.33      1.09 o 
  -4  -6   4        0.10       -0.80      0.83 o 
  -3  -6   4       61.94       58.95      3.09 o 
  -2  -6   4      390.54      371.81      7.75 o 
  -1  -6   4      355.66      349.28      7.77 o 
   0  -6   4       37.13       37.89      2.15 o 
   1  -6   4        1.66        0.95      0.61 o 
   2  -6   4      192.86      206.28      4.73 o 
   3  -6   4       11.33       10.21      1.24 o 
   4  -6   4       22.36       19.46      1.47 o 
   5  -6   4       63.67       64.16      2.81 o 
   6  -6   4        4.89        4.57      1.26 o 
   7  -6   4      100.82       96.68      4.89 o 
   8  -6   4       41.85       32.58      3.61 o 
  -6  -5   4       22.60       23.94      2.77 o 
  -5  -5   4       12.36       12.03      1.49 o 
  -4  -5   4        0.76        2.31      0.94 o 
  -3  -5   4      144.57      130.67      4.45 o 
  -2  -5   4      285.73      288.29      6.48 o 
  -1  -5   4       71.25       71.66      2.24 o 
   0  -5   4      144.82      161.01      3.54 o 
   1  -5   4      455.45      447.95      7.25 o 
   2  -5   4       36.42       41.34      2.15 o 
   3  -5   4      136.72      131.31      3.63 o 
   4  -5   4       67.64       74.68      2.70 o 
   5  -5   4       33.32       36.87      2.75 o 
   6  -5   4        0.73        0.84      0.96 o 
   7  -5   4       33.21       36.70      3.25 o 
   8  -5   4       51.71       42.92      4.90 o 
  -6  -4   4       20.02       20.50      2.25 o 
  -5  -4   4        0.66        0.93      0.80 o 
  -4  -4   4      151.90      131.20      4.18 o 
  -3  -4   4        3.82        6.59      1.05 o 
  -2  -4   4      911.24      914.81     11.07 o 
  -1  -4   4       75.01       72.37      2.53 o 
   0  -4   4      477.54      465.91      5.95 o 
   1  -4   4      711.79      775.81      8.71 o 
   2  -4   4       96.43       98.11      2.73 o 
   3  -4   4      200.70      195.44      4.44 o 
   4  -4   4        3.15        4.37      0.74 o 
   5  -4   4        1.77        1.65      0.69 o 
   6  -4   4       13.91       11.25      1.41 o 
   7  -4   4        4.94        7.35      1.36 o 
   8  -4   4       23.86       25.48      2.81 o 
  -7  -3   4       89.42       79.37      4.41 o 
  -6  -3   4        5.18        4.64      1.20 o 
  -5  -3   4       40.43       22.62      1.86 o 
  -4  -3   4       21.16       26.94      1.74 o 
  -3  -3   4      158.43      176.23      4.25 o 
  -2  -3   4      113.06      114.73      3.20 o 
  -1  -3   4        9.47       11.82      0.87 o 
   0  -3   4      529.01      591.55      7.20 o 
   1  -3   4      120.40      116.66      2.99 o 
   2  -3   4        0.68        0.76      0.36 o 
   3  -3   4       42.24       39.41      1.50 o 
   4  -3   4        1.16       -0.24      0.51 o 
   5  -3   4       78.65       67.31      2.71 o 
   6  -3   4        0.03        0.15      0.71 o 
   7  -3   4        2.17        1.89      0.91 o 
   8  -3   4       62.41       64.16      3.69 o 
  -7  -2   4        1.27       -0.10      1.08 o 
  -6  -2   4        3.64        5.15      1.24 o 
  -5  -2   4       24.98       24.40      2.15 o 
  -4  -2   4        0.00       -0.06      0.35 o 
  -3  -2   4        1.00        0.52      0.39 o 
  -2  -2   4      153.61      148.63      3.37 o 
  -1  -2   4      252.28      262.35      3.82 o 
   0  -2   4       59.30       62.48      1.82 o 
   1  -2   4        0.48       -0.05      0.27 o 
   2  -2   4       24.68       20.85      1.33 o 
   3  -2   4      668.38      739.60      7.73 o 
   4  -2   4       63.71       63.18      2.67 o 
   5  -2   4        0.71       -0.63      0.63 o 
   6  -2   4        0.16        0.75      0.77 o 
   7  -2   4       53.92       61.86      3.26 o 
   8  -2   4       27.67       32.94      3.30 o 
  -8  -1   4        3.74        3.43      2.05 o 
  -7  -1   4       18.98       19.71      2.45 o 
  -6  -1   4       32.32       27.13      3.42 o 
  -5  -1   4        1.54        0.10      0.59 o 
  -4  -1   4        4.39        3.91      0.65 o 
  -3  -1   4      308.69      329.89      5.13 o 
  -2  -1   4       77.98       81.72      2.12 o 
  -1  -1   4      207.40      220.27      2.78 o 
   0  -1   4      101.58      105.16      1.97 o 
   1  -1   4     1764.38     1704.08     10.95 o 
   2  -1   4       50.60       61.51      1.71 o 
   3  -1   4      129.33      128.69      3.06 o 
   4  -1   4        0.15        0.28      0.45 o 
   5  -1   4      341.23      347.59      6.81 o 
   6  -1   4       61.27       62.34      3.58 o 
   7  -1   4       95.83      102.10      4.25 o 
   8  -1   4       77.41       72.27      5.31 o 
  -8   0   4       21.99       18.13      3.79 o 
  -7   0   4       32.03       26.82      2.60 o 
  -6   0   4       29.89       29.45      2.68 o 
  -5   0   4        4.62        5.53      1.12 o 
  -4   0   4      164.17      160.09      3.77 o 
  -3   0   4      181.94      183.04      3.54 o 
  -2   0   4       65.03       71.61      1.63 o 
  -1   0   4      270.07      252.94      2.37 o 
   0   0   4      194.15      194.36      1.85 o 
   1   0   4       94.44       84.99      1.67 o 
   2   0   4       12.90       18.15      1.24 o 
   3   0   4       31.37       29.50      1.40 o 
   4   0   4      815.72      804.82      8.66 o 
   5   0   4     1597.18     1569.83     16.02 o 
   6   0   4        0.01       -0.19      0.78 o 
   7   0   4        2.50        2.85      2.08 o 
  -8   1   4        0.25       -1.50      1.50 o 
  -7   1   4       20.56       18.17      1.88 o 
  -6   1   4       10.64        9.44      1.45 o 
  -5   1   4        3.48        3.25      0.83 o 
  -4   1   4     1074.01     1157.75     10.05 o 
  -3   1   4       17.02       17.46      1.04 o 
  -2   1   4       79.14       85.36      1.46 o 
  -1   1   4       62.53       65.62      1.06 o 
   0   1   4       50.22       55.45      0.85 o 
   1   1   4     2965.41     3064.65     15.93 o 
   2   1   4      650.27      664.64      6.83 o 
   3   1   4       81.89       77.14      2.14 o 
   4   1   4       40.06       43.92      2.31 o 
   5   1   4       78.73       70.65      3.24 o 
   6   1   4        0.27        1.36      0.86 o 
   7   1   4       17.62       10.22      2.15 o 
  -8   2   4       32.30       32.57      2.76 o 
  -7   2   4       48.09       50.19      2.77 o 
  -6   2   4        5.61        5.26      0.84 o 
  -5   2   4        1.23        1.78      0.55 o 
  -4   2   4        6.44        7.65      0.81 o 
  -3   2   4       80.85       88.12      1.92 o 
  -2   2   4      461.99      529.80      3.97 o 
  -1   2   4      909.22      882.54      5.73 o 
   0   2   4      207.70      222.67      2.46 o 
   1   2   4      284.31      323.56      3.93 o 
   2   2   4        9.93       10.49      1.08 o 
   3   2   4       15.62       14.95      1.35 o 
   4   2   4      538.92      548.40      7.94 o 
   5   2   4       24.01       19.85      1.81 o 
   6   2   4        1.78        3.72      1.45 o 
   7   2   4        7.08        9.81      2.19 o 
  -8   3   4        8.08        8.86      2.15 o 
  -7   3   4      106.79      100.38      3.24 o 
  -6   3   4      111.71      118.05      3.19 o 
  -5   3   4      184.63      188.66      3.93 o 
  -4   3   4        1.23        1.29      0.39 o 
  -3   3   4      435.35      474.98      5.37 o 
  -2   3   4     2687.84     2806.02     14.46 o 
  -1   3   4       39.22       40.10      1.18 o 
   0   3   4       94.25      100.03      2.02 o 
   1   3   4      123.51      126.36      2.67 o 
   2   3   4        0.39        0.61      0.47 o 
   3   3   4      180.12      189.66      4.39 o 
   4   3   4       10.42       11.19      1.70 o 
   5   3   4        0.14        1.61      0.92 o 
   6   3   4        1.11       -0.97      1.47 o 
  -8   4   4       15.35       13.93      1.56 o 
  -7   4   4      330.70      341.88      6.46 o 
  -6   4   4      426.34      431.09      8.45 o 
  -5   4   4       79.62       78.86      2.76 o 
  -4   4   4       11.91       16.01      1.19 o 
  -3   4   4      124.67      128.91      2.61 o 
  -2   4   4     1036.96     1074.15      7.56 o 
  -1   4   4       59.29       61.00      1.71 o 
   0   4   4      284.97      301.63      3.95 o 
   1   4   4        0.06        0.00      0.38 o 
   2   4   4        1.29        0.47      0.62 o 
   3   4   4       36.77       34.67      2.67 o 
   4   4   4        5.79        5.32      1.11 o 
   5   4   4        1.72        2.26      1.73 o 
  -8   5   4      211.69      209.56      6.57 o 
  -7   5   4      228.84      230.75      5.99 o 
  -6   5   4       15.18       10.66      1.58 o 
  -5   5   4       33.13       29.49      2.12 o 
  -4   5   4       16.17       15.07      1.19 o 
  -3   5   4       14.13       18.71      1.52 o 
  -2   5   4      185.83      201.24      3.42 o 
  -1   5   4       87.94       91.08      2.26 o 
   0   5   4      102.91       99.42      2.57 o 
   1   5   4       71.38       72.85      2.33 o 
   2   5   4       89.52       82.72      3.40 o 
   3   5   4        3.23        3.57      1.72 o 
   4   5   4        4.49        5.10      1.65 o 
   5   5   4        3.35        2.48      1.53 o 
  -8   6   4        8.67        7.66      1.88 o 
  -7   6   4       54.35       56.13      3.67 o 
  -6   6   4        1.37        0.65      1.39 o 
  -5   6   4       10.80        9.27      1.22 o 
  -4   6   4        0.11       -0.41      0.41 o 
  -3   6   4       42.45       44.54      1.83 o 
  -2   6   4      113.95      109.30      2.84 o 
  -1   6   4       23.83       25.07      1.63 o 
   0   6   4       49.70       50.02      2.28 o 
   1   6   4      173.75      168.29      4.18 o 
   2   6   4       71.09       75.34      3.72 o 
   3   6   4        0.02       -0.41      1.13 o 
   4   6   4        1.63        0.53      1.92 o 
  -8   7   4       46.70       45.72      4.23 o 
  -7   7   4       12.95       10.64      2.29 o 
  -6   7   4       30.09       26.55      2.22 o 
  -5   7   4       24.83       28.34      1.82 o 
  -4   7   4       49.80       53.50      2.79 o 
  -3   7   4       70.48       68.69      3.09 o 
  -2   7   4       52.78       44.87      2.88 o 
  -1   7   4       57.41       52.29      3.46 o 
   0   7   4        9.63        8.44      1.06 o 
   1   7   4      109.67      113.87      3.95 o 
   2   7   4      104.54      113.23      3.85 o 
   3   7   4        6.42        1.98      1.93 o 
  -7   8   4        0.03       -0.96      1.99 o 
  -6   8   4       28.73       30.44      2.60 o 
  -5   8   4       15.08       19.83      1.68 o 
  -4   8   4        3.49        3.33      0.80 o 
  -3   8   4        4.26        4.87      0.88 o 
  -2   8   4       64.53       58.04      2.85 o 
  -1   8   4       20.52       21.13      1.71 o 
   0   8   4       49.65       46.97      2.75 o 
   1   8   4       37.62       44.88      3.25 o 
   2   8   4       95.67       96.52      9.55 o 
  -6   9   4       24.64       26.04      2.65 o 
  -5   9   4        1.40        2.28      1.10 o 
  -4   9   4       12.77       10.68      1.65 o 
  -3   9   4        8.94        8.74      1.59 o 
  -2   9   4       20.51       18.00      2.54 o 
  -1   9   4        4.66        3.08      1.67 o 
   0   9   4        1.61        2.16      1.74 o 
  -4  10   4       28.53       35.11      3.19 o 
  -3  10   4        4.02        6.35      1.68 o 
  -2  10   4       15.17       20.15      3.82 o 
   2 -11   5       14.43       14.18      2.43 o 
   3 -11   5       50.81       48.44      5.78 o 
   4 -11   5       16.07       17.24      2.51 o 
  -1 -10   5       43.77       44.61      4.93 o 
   0 -10   5       62.60       58.47      4.21 o 
   1 -10   5        1.43        1.54      1.38 o 
   2 -10   5       33.93       28.67      3.21 o 
   3 -10   5        9.59       12.36      3.19 o 
   4 -10   5       10.71       13.22      2.02 o 
   5 -10   5       81.58       73.93      4.34 o 
   6 -10   5        1.91        3.27      1.82 o 
  -2  -9   5        0.11       -0.47      2.13 o 
  -1  -9   5        1.10       -1.05      1.67 o 
   0  -9   5       75.91       77.87      4.20 o 
   1  -9   5       37.65       39.76      3.37 o 
   2  -9   5       49.90       47.37      2.97 o 
   3  -9   5        7.50        9.96      1.80 o 
   4  -9   5        0.45        0.97      1.19 o 
   5  -9   5      229.10      231.90      5.86 o 
   6  -9   5        7.31        7.16      1.44 o 
   7  -9   5        1.17        1.07      1.60 o 
  -3  -8   5        0.35       -1.46      1.46 o 
  -2  -8   5       78.70       75.74      4.36 o 
  -1  -8   5      129.54      119.35      5.25 o 
   0  -8   5       12.53       12.33      1.85 o 
   1  -8   5        8.74        9.28      1.35 o 
   2  -8   5        0.06        1.04      0.83 o 
   3  -8   5        2.68        1.56      0.97 o 
   4  -8   5      135.46      134.70      3.81 o 
   5  -8   5       13.30       14.65      1.64 o 
   6  -8   5        8.09        7.55      1.56 o 
   7  -8   5       18.67       17.57      2.26 o 
  -4  -7   5        0.10        1.19      1.48 o 
  -3  -7   5       12.48        9.56      1.63 o 
  -2  -7   5      106.39      100.05      4.26 o 
  -1  -7   5      118.48      121.41      4.02 o 
   0  -7   5       36.48       38.84      2.32 o 
   1  -7   5      162.15      170.32      4.89 o 
   2  -7   5      167.60      173.88      5.03 o 
   3  -7   5       18.90       21.10      1.86 o 
   4  -7   5       89.92       92.86      3.11 o 
   5  -7   5        1.19        0.95      0.85 o 
   6  -7   5        0.57        1.07      0.86 o 
   7  -7   5       52.33       55.65      4.00 o 
   8  -7   5       61.33       51.44      5.24 o 
  -5  -6   5       94.14       95.76      3.78 o 
  -4  -6   5        5.82        6.58      1.53 o 
  -3  -6   5        2.35        1.53      1.12 o 
  -2  -6   5       23.84       23.88      2.33 o 
  -1  -6   5      602.24      589.92      8.97 o 
   0  -6   5       40.91       44.83      2.60 o 
   1  -6   5      116.68      125.01      3.81 o 
   2  -6   5       11.94       19.13      1.93 o 
   3  -6   5       20.58       22.62      1.90 o 
   4  -6   5      815.52      798.40      9.09 o 
   5  -6   5       11.78       11.26      1.58 o 
   6  -6   5        3.74        3.17      1.47 o 
   7  -6   5        4.46        7.99      1.82 o 
   8  -6   5        1.57        0.18      2.08 o 
  -6  -5   5       73.91       79.02      6.52 o 
  -5  -5   5        8.38       11.47      1.61 o 
  -4  -5   5        2.45        5.24      1.39 o 
  -3  -5   5      265.35      278.70      5.95 o 
  -2  -5   5        5.24        7.71      1.21 o 
  -1  -5   5       20.92       21.18      1.62 o 
   0  -5   5       26.45       26.29      1.49 o 
   1  -5   5       61.36       82.60      2.78 o 
   2  -5   5       49.67       49.52      2.46 o 
   3  -5   5       68.20       73.60      2.57 o 
   4  -5   5       13.90       16.76      1.59 o 
   5  -5   5        2.61        1.30      0.94 o 
   6  -5   5      111.34      102.00      4.26 o 
   7  -5   5        0.42       -0.03      1.15 o 
   8  -5   5        9.30       11.33      2.72 o 
  -6  -4   5        0.17       -1.20      1.20 o 
  -5  -4   5        1.09       -0.72      1.10 o 
  -4  -4   5        0.50       -0.22      0.61 o 
  -3  -4   5       13.18       16.69      1.77 o 
  -2  -4   5      167.51      159.28      3.51 o 
  -1  -4   5       57.56       48.31      1.83 o 
   0  -4   5        9.95       12.19      0.92 o 
   1  -4   5      165.22      186.37      4.35 o 
   2  -4   5        7.99        7.29      1.13 o 
   3  -4   5      282.72      277.56      5.18 o 
   4  -4   5       31.83       33.25      1.81 o 
   5  -4   5       35.63       32.79      2.84 o 
   6  -4   5      105.90       97.43      3.58 o 
   7  -4   5       26.67       30.26      2.67 o 
   8  -4   5        5.50        6.80      2.87 o 
  -7  -3   5       30.69       38.77      3.38 o 
  -6  -3   5       28.52       30.73      2.68 o 
  -5  -3   5        5.96        3.43      0.82 o 
  -4  -3   5       18.14       17.23      1.29 o 
  -3  -3   5     1033.03     1022.48     11.38 o 
  -2  -3   5       68.85       78.94      2.24 o 
  -1  -3   5       10.04        9.90      1.07 o 
   0  -3   5      164.37      152.84      3.57 o 
   1  -3   5      183.32      198.16      4.03 o 
   2  -3   5      100.84       97.63      2.42 o 
   3  -3   5       74.43       85.50      2.64 o 
   4  -3   5      110.12      107.59      3.32 o 
   5  -3   5        8.20        9.42      1.22 o 
   6  -3   5       16.65       19.77      1.97 o 
   7  -3   5       92.34       87.60      3.97 o 
   8  -3   5       62.69       71.21      4.58 o 
  -7  -2   5        9.86       13.78      1.94 o 
  -6  -2   5        0.96       -0.94      0.94 o 
  -5  -2   5       98.01      101.27      3.34 o 
  -4  -2   5       34.00       37.35      2.68 o 
  -3  -2   5      297.99      303.63      5.20 o 
  -2  -2   5       70.88       74.21      2.44 o 
  -1  -2   5      670.13      698.75      6.37 o 
   0  -2   5      381.82      397.69      5.40 o 
   1  -2   5      255.16      225.49      4.11 o 
   2  -2   5      194.95      192.60      3.07 o 
   3  -2   5       27.58       31.66      1.75 o 
   4  -2   5       46.81       57.08      2.31 o 
   5  -2   5      876.33      814.02      9.96 o 
   6  -2   5      248.23      237.96      5.80 o 
   7  -2   5        2.29        2.03      1.56 o 
   8  -2   5        0.67        5.19      1.86 o 
  -8  -1   5        0.24        3.19      1.87 o 
  -7  -1   5        0.11        4.03      1.36 o 
  -6  -1   5       58.83       47.19      3.60 o 
  -5  -1   5        2.08       -0.14      0.64 o 
  -4  -1   5        0.10       -0.21      0.49 o 
  -3  -1   5      308.65      323.95      4.75 o 
  -2  -1   5      225.38      224.90      3.31 o 
  -1  -1   5      929.13      992.31      7.88 o 
   0  -1   5       11.36       11.81      0.71 o 
   1  -1   5       73.62       77.37      1.57 o 
   2  -1   5     2700.08     2814.53     18.45 o 
   3  -1   5      178.52      185.13      3.56 o 
   4  -1   5       53.64       48.16      2.23 o 
   5  -1   5       50.44       53.60      2.77 o 
   6  -1   5        8.52        7.76      1.30 o 
   7  -1   5        4.75        6.46      1.46 o 
  -8   0   5       16.09       14.22      2.53 o 
  -7   0   5       58.00       65.43      4.36 o 
  -6   0   5       49.48       45.80      3.33 o 
  -5   0   5      140.99      131.00      3.84 o 
  -4   0   5       71.95       72.87      2.56 o 
  -3   0   5       13.90       10.43      0.97 o 
  -2   0   5       43.08       50.30      1.39 o 
  -1   0   5       72.61       62.22      1.18 o 
   0   0   5      113.96      115.23      1.51 o 
   1   0   5      285.80      296.59      3.58 o 
   2   0   5      641.43      705.41      7.50 o 
   3   0   5        2.18        1.13      0.40 o 
   4   0   5       39.03       35.43      2.27 o 
   5   0   5       66.85       65.15      3.32 o 
   6   0   5       30.34       32.55      2.58 o 
   7   0   5       18.50       21.17      3.13 o 
  -8   1   5       20.28       18.91      2.46 o 
  -7   1   5      123.14      114.97      4.05 o 
  -6   1   5        1.14        0.65      0.64 o 
  -5   1   5      141.17      136.68      3.79 o 
  -4   1   5      251.63      252.39      4.54 o 
  -3   1   5       40.43       36.76      1.30 o 
  -2   1   5      986.49     1076.29      6.60 o 
  -1   1   5      563.96      594.67      4.62 o 
   0   1   5        0.17        0.11      0.12 o 
   1   1   5       93.01       84.75      1.73 o 
   2   1   5        8.11        8.20      0.79 o 
   3   1   5       55.33       63.02      2.01 o 
   4   1   5      346.06      323.20      5.22 o 
   5   1   5       20.58       22.93      1.72 o 
   6   1   5       16.08       22.56      2.36 o 
   7   1   5        7.51        5.73      2.80 o 
  -8   2   5        1.20        3.07      1.33 o 
  -7   2   5        0.73        1.87      0.92 o 
  -6   2   5      474.45      461.43      6.00 o 
  -5   2   5     1196.74     1221.13     10.44 o 
  -4   2   5        0.72        0.36      0.30 o 
  -3   2   5       65.23       73.03      1.69 o 
  -2   2   5       98.40      108.38      1.61 o 
  -1   2   5      462.71      476.62      5.54 o 
   0   2   5       25.57       25.18      1.04 o 
   1   2   5      287.43      324.89      3.90 o 
   2   2   5       61.75       63.28      2.12 o 
   3   2   5       13.80       14.74      1.37 o 
   4   2   5       39.61       38.30      2.62 o 
   5   2   5        3.04        2.67      1.03 o 
   6   2   5       77.01       86.34      5.52 o 
  -8   3   5       88.61       87.00      4.22 o 
  -7   3   5       25.96       29.28      1.83 o 
  -6   3   5      136.09      135.06      3.67 o 
  -5   3   5      267.87      270.39      4.66 o 
  -4   3   5        9.85        9.99      0.91 o 
  -3   3   5      232.82      257.75      3.23 o 
  -2   3   5        1.76        0.86      0.22 o 
  -1   3   5       88.77      100.70      1.67 o 
   0   3   5        1.98        2.37      0.38 o 
   1   3   5      103.20      106.81      2.72 o 
   2   3   5       24.23       24.28      1.88 o 
   3   3   5       44.58       43.09      2.79 o 
   4   3   5      110.79      106.87      4.15 o 
   5   3   5       10.56       10.71      1.54 o 
   6   3   5        9.19        4.43      2.49 o 
  -8   4   5        0.19        0.78      1.13 o 
  -7   4   5        5.82        7.25      1.09 o 
  -6   4   5        6.43        4.50      1.09 o 
  -5   4   5       19.86       15.70      1.42 o 
  -4   4   5        0.13        0.17      0.34 o 
  -3   4   5      110.30      116.09      2.30 o 
  -2   4   5      304.09      320.72      3.66 o 
  -1   4   5      183.73      187.19      2.83 o 
   0   4   5        2.54        2.39      0.46 o 
   1   4   5       73.94       72.97      2.23 o 
   2   4   5       22.65       20.80      1.79 o 
   3   4   5      430.46      428.27      8.60 o 
   4   4   5       11.71       13.60      1.60 o 
   5   4   5        1.18        1.81      1.48 o 
  -8   5   5        0.02       -1.13      1.13 o 
  -7   5   5        5.94        6.34      1.49 o 
  -6   5   5       40.03       41.79      3.23 o 
  -5   5   5        3.73        3.21      0.93 o 
  -4   5   5        3.49        1.84      0.63 o 
  -3   5   5      209.21      202.55      3.26 o 
  -2   5   5      263.01      256.26      3.48 o 
  -1   5   5       90.78       88.65      2.20 o 
   0   5   5       58.50       59.44      1.99 o 
   1   5   5        6.70        5.41      0.78 o 
   2   5   5      393.91      388.96      7.33 o 
   3   5   5      116.37      116.14      4.42 o 
   4   5   5        4.10        2.27      1.31 o 
  -8   6   5      143.81      151.96      6.78 o 
  -7   6   5       13.61        9.89      1.76 o 
  -6   6   5       12.19       11.60      1.30 o 
  -5   6   5        5.79        8.22      1.40 o 
  -4   6   5        2.19        4.28      0.72 o 
  -3   6   5      137.06      140.41      3.19 o 
  -2   6   5       28.54       26.42      1.67 o 
  -1   6   5      142.26      141.49      3.24 o 
   0   6   5       23.28       22.84      1.77 o 
   1   6   5      151.71      154.58      3.84 o 
   2   6   5        3.05        4.00      0.89 o 
   3   6   5       25.17       27.15      3.62 o 
   4   6   5        4.66        6.09      2.32 o 
  -7   7   5       13.02       11.83      2.01 o 
  -6   7   5        7.38        6.10      1.17 o 
  -5   7   5       13.80       13.01      1.25 o 
  -4   7   5      286.46      286.92      5.21 o 
  -3   7   5       19.45       18.91      1.66 o 
  -2   7   5       90.95       93.36      3.37 o 
  -1   7   5       58.40       57.80      2.96 o 
   0   7   5       37.62       39.76      2.40 o 
   1   7   5        0.64        0.76      0.84 o 
   2   7   5        7.51        9.12      2.53 o 
   3   7   5        7.19       12.03      6.98 o 
  -7   8   5        0.86        0.29      1.37 o 
  -6   8   5       38.06       37.21      2.96 o 
  -5   8   5        0.01        1.01      0.97 o 
  -4   8   5        3.24        3.71      0.93 o 
  -3   8   5       17.44       15.77      1.67 o 
  -2   8   5       10.17        9.27      1.24 o 
  -1   8   5       89.87       90.55      3.20 o 
   0   8   5       10.72       14.49      1.88 o 
   1   8   5       42.32       43.88      3.92 o 
  -6   9   5        8.70        2.40      2.00 o 
  -5   9   5        9.85        8.82      1.71 o 
  -4   9   5       31.91       36.77      2.72 o 
  -3   9   5        0.64       -0.45      1.04 o 
  -2   9   5       36.34       28.95      2.68 o 
  -1   9   5        6.42        4.92      3.37 o 
   0   9   5        0.10        1.37      2.06 o 
   2 -11   6        4.55       10.26      2.64 o 
   3 -11   6       65.31       58.27      6.53 o 
  -1 -10   6      111.95      116.75      6.50 o 
   0 -10   6       12.20       11.09      2.34 o 
   1 -10   6        0.98        3.83      1.84 o 
   2 -10   6        1.17        2.25      2.24 o 
   3 -10   6        4.53        2.37      1.29 o 
   4 -10   6       34.78       38.82      3.28 o 
   5 -10   6       27.73       21.81      2.64 o 
  -2  -9   6        8.90       10.59      2.14 o 
  -1  -9   6       34.18       31.67      3.67 o 
   0  -9   6        0.05       -1.12      1.12 o 
   1  -9   6       67.78       61.51      3.22 o 
   2  -9   6      117.83      115.67      4.80 o 
   3  -9   6       49.79       56.11      4.58 o 
   4  -9   6       24.63       26.83      2.43 o 
   5  -9   6        1.25        2.24      1.14 o 
   6  -9   6       29.93       34.16      2.98 o 
  -3  -8   6        9.35       12.44      1.94 o 
  -2  -8   6        2.77        2.70      1.95 o 
  -1  -8   6       13.34       16.53      1.88 o 
   0  -8   6       16.30       15.53      1.70 o 
   1  -8   6        6.75        3.18      0.93 o 
   2  -8   6        0.10        2.05      0.99 o 
   3  -8   6        6.06        3.95      1.13 o 
   4  -8   6        2.68        1.96      0.80 o 
   5  -8   6      432.83      441.49      7.93 o 
   6  -8   6       14.07       19.44      3.74 o 
   7  -8   6        9.63        8.42      2.56 o 
  -4  -7   6       36.41       37.80      3.39 o 
  -3  -7   6        0.03        1.06      1.84 o 
  -2  -7   6      142.59      149.32      5.18 o 
  -1  -7   6        3.47        2.87      0.93 o 
   0  -7   6        8.94       10.38      1.36 o 
   1  -7   6       20.84       16.34      1.81 o 
   2  -7   6       46.82       39.45      2.81 o 
   3  -7   6       74.13       77.16      3.21 o 
   4  -7   6       53.71       55.67      2.72 o 
   5  -7   6        3.33        3.58      1.05 o 
   6  -7   6        3.31        3.39      1.23 o 
   7  -7   6       39.42       30.63      3.31 o 
  -5  -6   6       13.60       15.63      1.98 o 
  -4  -6   6        6.07        3.99      1.24 o 
  -3  -6   6        5.18        5.27      1.26 o 
  -2  -6   6        0.75       -0.60      0.70 o 
  -1  -6   6       37.27       40.89      2.31 o 
   0  -6   6       10.98       11.49      1.50 o 
   1  -6   6        9.90       14.22      1.44 o 
   2  -6   6        5.48        7.67      1.09 o 
   3  -6   6       16.52       17.24      1.87 o 
   4  -6   6      187.05      195.45      4.17 o 
   5  -6   6        0.53        0.16      0.65 o 
   6  -6   6        7.85        4.26      1.46 o 
   7  -6   6       96.90       93.28      5.05 o 
  -6  -5   6        0.73        1.10      1.39 o 
  -5  -5   6       38.78       37.90      2.83 o 
  -4  -5   6        5.07        4.25      1.10 o 
  -3  -5   6       41.76       47.06      2.60 o 
  -2  -5   6     1672.09     1656.34     16.54 o 
  -1  -5   6       11.46       13.54      1.29 o 
   0  -5   6        0.73        1.41      0.61 o 
   1  -5   6      155.18      149.34      4.00 o 
   2  -5   6        0.00       -0.11      0.53 o 
   3  -5   6      205.98      198.46      4.95 o 
   4  -5   6        5.84        5.71      1.13 o 
   5  -5   6       25.11       26.95      2.56 o 
   6  -5   6       18.52       20.69      2.22 o 
   7  -5   6       25.30       27.76      2.83 o 
   8  -5   6        1.93       -0.30      2.86 o 
  -6  -4   6       38.22       38.07      3.00 o 
  -5  -4   6       35.27       41.81      2.80 o 
  -4  -4   6        1.30       -0.18      0.88 o 
  -3  -4   6      230.04      225.70      5.01 o 
  -2  -4   6       62.19       65.67      2.63 o 
  -1  -4   6       10.99       11.42      1.22 o 
   0  -4   6      558.08      571.41      8.46 o 
   1  -4   6        0.64        0.49      0.45 o 
   2  -4   6      549.98      505.89      7.49 o 
   3  -4   6        0.32       -0.30      0.30 o 
   4  -4   6        8.24        7.35      0.94 o 
   5  -4   6        2.13        3.66      0.95 o 
   6  -4   6      339.79      302.14      7.31 o 
   7  -4   6       72.26       83.90      4.71 o 
   8  -4   6        0.00       -0.49      2.21 o 
  -7  -3   6        0.27        2.56      1.45 o 
  -6  -3   6       28.14       35.44      2.27 o 
  -5  -3   6       15.33       11.52      1.61 o 
  -4  -3   6        0.01        0.35      0.49 o 
  -3  -3   6        0.94        1.06      0.64 o 
  -2  -3   6        2.49        2.65      0.69 o 
  -1  -3   6       94.83       82.47      2.58 o 
   0  -3   6      556.16      624.35      7.49 o 
   1  -3   6        4.15        3.74      0.63 o 
   2  -3   6      112.80      105.26      2.62 o 
   3  -3   6      261.01      271.13      4.71 o 
   4  -3   6       32.58       45.04      2.45 o 
   5  -3   6        1.52        4.24      0.89 o 
   6  -3   6      101.12      103.63      3.98 o 
   7  -3   6       34.00       36.52      2.96 o 
   8  -3   6        0.01       -0.62      2.03 o 
  -7  -2   6       22.39       23.49      3.34 o 
  -6  -2   6       11.85        8.66      1.20 o 
  -5  -2   6        0.79        1.00      0.62 o 
  -4  -2   6       21.94       24.28      2.17 o 
  -3  -2   6       19.66       21.35      1.56 o 
  -2  -2   6      119.47      109.42      2.90 o 
  -1  -2   6        5.36        4.53      0.65 o 
   0  -2   6        6.27        7.04      0.70 o 
   1  -2   6      441.56      443.06      8.43 o 
   2  -2   6      738.63      713.04      7.16 o 
   3  -2   6      139.92      145.52      3.36 o 
   4  -2   6        7.83        9.31      1.11 o 
   5  -2   6       39.44       39.72      2.71 o 
   6  -2   6        1.41        2.61      1.19 o 
   7  -2   6       30.45       38.10      3.04 o 
  -8  -1   6        1.22        1.94      3.48 o 
  -7  -1   6       24.55       22.81      2.39 o 
  -6  -1   6      165.07      144.94      4.87 o 
  -5  -1   6        0.05       -0.58      0.58 o 
  -4  -1   6      537.75      528.33      8.24 o 
  -3  -1   6      169.61      172.86      3.20 o 
  -2  -1   6        7.56        7.84      0.77 o 
  -1  -1   6      731.85      794.72      6.13 o 
   0  -1   6        0.31        0.22      0.24 o 
   1  -1   6       86.42       86.13      1.73 o 
   2  -1   6      435.81      444.78      4.93 o 
   3  -1   6       89.73       95.82      2.76 o 
   4  -1   6      375.15      350.75      5.88 o 
   5  -1   6        0.25       -0.02      0.69 o 
   6  -1   6        0.35       -0.74      0.74 o 
   7  -1   6       79.97       81.89      4.58 o 
  -8   0   6        6.35        3.09      2.31 o 
  -7   0   6        0.17        0.95      0.99 o 
  -6   0   6        1.16        0.73      1.06 o 
  -5   0   6      453.44      431.92      6.88 o 
  -4   0   6      455.30      456.30      8.04 o 
  -3   0   6       20.30       18.98      1.40 o 
  -2   0   6       19.81       22.03      0.99 o 
  -1   0   6      235.80      243.58      2.63 o 
   0   0   6      383.41      388.75      3.41 o 
   1   0   6      296.14      304.29      3.74 o 
   2   0   6      346.90      383.36      4.96 o 
   3   0   6       85.81       91.56      2.73 o 
   4   0   6       13.55       11.96      1.28 o 
   5   0   6       36.83       36.36      2.42 o 
   6   0   6        0.44        0.91      1.00 o 
   7   0   6      122.97      149.08      5.79 o 
  -8   1   6      105.04      118.75      5.34 o 
  -7   1   6       76.51       79.12      3.35 o 
  -6   1   6       48.72       46.05      2.81 o 
  -5   1   6      226.81      217.26      4.67 o 
  -4   1   6      540.36      539.24      6.29 o 
  -3   1   6       23.53       27.10      1.11 o 
  -2   1   6      248.49      278.32      2.78 o 
  -1   1   6       30.88       32.91      1.45 o 
   0   1   6        6.67        4.87      0.47 o 
   1   1   6      381.92      419.13      4.29 o 
   2   1   6      111.13      122.30      2.60 o 
   3   1   6        4.79        4.46      0.76 o 
   4   1   6       44.68       43.42      2.01 o 
   5   1   6        0.00       -0.14      1.01 o 
   6   1   6       10.63       10.46      1.92 o 
  -8   2   6       44.29       49.42      4.17 o 
  -7   2   6      111.61      114.53      3.54 o 
  -6   2   6        1.23        0.38      0.56 o 
  -5   2   6      216.41      231.39      3.95 o 
  -4   2   6        2.97        2.18      0.47 o 
  -3   2   6       11.22       15.85      0.90 o 
  -2   2   6       65.95       55.16      1.30 o 
  -1   2   6       15.42       13.92      1.23 o 
   0   2   6        1.76        0.33      0.22 o 
   1   2   6      184.59      186.29      2.80 o 
   2   2   6      219.09      213.33      3.82 o 
   3   2   6        3.31        1.11      0.64 o 
   4   2   6      283.15      273.32      6.13 o 
   5   2   6       10.88        9.58      1.79 o 
   6   2   6       21.51       20.36      2.10 o 
  -8   3   6       10.86        9.26      2.35 o 
  -7   3   6       59.60       64.11      2.98 o 
  -6   3   6       28.25       28.91      2.32 o 
  -5   3   6      189.55      198.91      3.76 o 
  -4   3   6        0.08        0.17      0.37 o 
  -3   3   6        8.07       16.53      0.87 o 
  -2   3   6      297.59      280.12      3.73 o 
  -1   3   6      444.79      437.26      4.80 o 
   0   3   6      198.66      206.03      3.36 o 
   1   3   6       62.69       62.36      1.98 o 
   2   3   6        2.87        3.74      0.70 o 
   3   3   6      552.71      541.36      8.43 o 
   4   3   6       35.16       38.99      2.89 o 
   5   3   6        0.46       -0.13      1.10 o 
  -8   4   6       48.93       54.54      3.13 o 
  -7   4   6       28.43       27.85      2.16 o 
  -6   4   6        2.19        1.56      0.81 o 
  -5   4   6       66.68       71.90      2.54 o 
  -4   4   6       20.54       14.85      1.28 o 
  -3   4   6       27.98       25.26      1.18 o 
  -2   4   6       43.88       51.18      1.59 o 
  -1   4   6        0.66        0.50      0.32 o 
   0   4   6       90.93       84.09      1.98 o 
   1   4   6        0.20        0.46      0.48 o 
   2   4   6      147.96      135.43      4.90 o 
   3   4   6       71.63       79.63      3.14 o 
   4   4   6        0.28       -1.22      1.22 o 
   5   4   6        3.18        2.61      2.30 o 
  -8   5   6        8.05        7.67      2.19 o 
  -7   5   6       63.89       64.70      3.58 o 
  -6   5   6        4.81        3.37      0.84 o 
  -5   5   6        0.00       -0.52      0.72 o 
  -4   5   6        0.71        0.66      0.53 o 
  -3   5   6      924.98      937.85      7.69 o 
  -2   5   6      220.70      219.68      2.99 o 
  -1   5   6      308.91      311.25      4.23 o 
   0   5   6       40.36       39.59      2.80 o 
   1   5   6        1.92        1.69      0.94 o 
   2   5   6      152.34      157.89      4.96 o 
   3   5   6      106.73      100.37      4.01 o 
   4   5   6       10.33       11.74      2.39 o 
  -8   6   6       65.52       71.04      5.81 o 
  -7   6   6       13.16       11.34      1.92 o 
  -6   6   6        0.44       -0.66      0.87 o 
  -5   6   6        1.05        2.91      0.78 o 
  -4   6   6       46.76       56.60      2.40 o 
  -3   6   6        2.31       10.61      0.93 o 
  -2   6   6       26.82       29.09      1.40 o 
  -1   6   6        2.58        2.79      0.65 o 
   0   6   6       76.14       70.72      2.55 o 
   1   6   6       54.15       51.62      2.24 o 
   2   6   6        5.06        4.30      1.31 o 
   3   6   6       34.10       30.32      3.58 o 
  -7   7   6       16.24       19.21      2.69 o 
  -6   7   6        1.60        0.20      0.99 o 
  -5   7   6       15.43       16.32      1.51 o 
  -4   7   6       54.50       56.58      2.09 o 
  -3   7   6        4.21        5.70      0.86 o 
  -2   7   6       61.33       59.57      3.19 o 
  -1   7   6       48.14       51.65      2.52 o 
   0   7   6       22.54       22.21      1.58 o 
   1   7   6        7.96        7.49      1.42 o 
   2   7   6        7.24        4.96      1.61 o 
  -6   8   6       15.89       14.29      1.81 o 
  -5   8   6       17.22       18.96      2.29 o 
  -4   8   6      214.52      215.51      5.52 o 
  -3   8   6        0.26       -0.43      1.11 o 
  -2   8   6        0.00        0.87      1.01 o 
  -1   8   6       31.02       30.30      2.75 o 
   0   8   6       29.69       31.17      2.60 o 
   1   8   6       61.20       68.15      5.16 o 
  -5   9   6        0.93        0.75      1.91 o 
  -4   9   6       19.61       24.73      4.11 o 
  -3   9   6        0.39       -0.33      1.33 o 
  -2   9   6        3.70        2.69      2.15 o 
  -1   9   6       35.75       16.32      3.91 o 
   0 -10   7       18.35       21.15      3.90 o 
   1 -10   7        0.00        0.22      1.63 o 
   2 -10   7       53.39       45.07      4.15 o 
   3 -10   7        3.69        5.30      2.19 o 
   4 -10   7        0.39        1.29      1.57 o 
   5 -10   7       44.13       42.93      3.33 o 
  -2  -9   7       25.53       26.55      2.95 o 
  -1  -9   7        9.50       10.42      1.95 o 
   0  -9   7        1.57        2.25      2.17 o 
   1  -9   7        0.05        2.21      0.90 o 
   2  -9   7       21.39       22.70      2.50 o 
   3  -9   7       25.23       21.94      2.20 o 
   4  -9   7       12.35       11.33      2.10 o 
   5  -9   7       18.33       20.22      2.33 o 
   6  -9   7        0.69        0.51      1.76 o 
  -3  -8   7       27.95       30.13      3.24 o 
  -2  -8   7       41.40       44.90      3.50 o 
  -1  -8   7        1.91        1.70      1.09 o 
   0  -8   7        1.26       -0.93      0.93 o 
   1  -8   7       26.64       27.38      2.30 o 
   2  -8   7       12.55       10.13      1.50 o 
   3  -8   7        2.94        4.16      1.26 o 
   4  -8   7       12.05       10.34      1.40 o 
   5  -8   7        2.96        3.90      1.09 o 
   6  -8   7       12.11       14.10      1.93 o 
   7  -8   7        0.85        3.93      2.87 o 
  -4  -7   7       54.56       63.30      4.15 o 
  -3  -7   7       26.40       31.47      3.19 o 
  -2  -7   7      198.83      195.39      5.97 o 
  -1  -7   7      289.40      281.48      5.60 o 
   0  -7   7       36.69       36.31      2.98 o 
   1  -7   7       32.46       33.82      1.92 o 
   2  -7   7       35.91       37.88      2.55 o 
   3  -7   7        0.25       -0.01      0.73 o 
   4  -7   7      221.28      210.16      5.44 o 
   5  -7   7       38.69       40.93      2.34 o 
   6  -7   7       10.35       15.03      2.37 o 
   7  -7   7       31.89       30.55      3.00 o 
  -5  -6   7       60.94       59.55      3.93 o 
  -4  -6   7       30.84       29.60      2.94 o 
  -3  -6   7       33.66       30.83      2.76 o 
  -2  -6   7       33.93       31.97      2.78 o 
  -1  -6   7       29.55       29.98      1.96 o 
   0  -6   7        9.41       10.19      1.45 o 
   1  -6   7      239.40      230.08      6.23 o 
   2  -6   7       35.54       39.12      2.77 o 
   3  -6   7      395.57      391.23      7.26 o 
   4  -6   7       47.32       51.58      2.82 o 
   5  -6   7        2.50        1.67      0.95 o 
   6  -6   7       12.24       14.20      1.96 o 
   7  -6   7        4.35        3.16      1.81 o 
  -6  -5   7        0.65       -1.35      1.35 o 
  -5  -5   7      148.64      171.30      5.00 o 
  -4  -5   7        0.57       -0.97      0.97 o 
  -3  -5   7        0.11       -0.66      0.81 o 
  -2  -5   7       91.27       92.06      3.33 o 
  -1  -5   7        1.60        0.54      0.70 o 
   0  -5   7       15.40       18.43      1.83 o 
   1  -5   7       28.14       31.81      2.15 o 
   2  -5   7       61.51       67.27      2.75 o 
   3  -5   7        0.02        0.47      0.60 o 
   4  -5   7        0.02       -0.18      0.57 o 
   5  -5   7        0.11       -0.84      0.84 o 
   6  -5   7        0.65        0.68      1.55 o 
   7  -5   7       24.91       17.91      3.71 o 
  -6  -4   7        6.43       11.51      1.95 o 
  -5  -4   7        7.98       12.72      1.76 o 
  -4  -4   7        2.82        0.75      0.76 o 
  -3  -4   7      246.47      245.49      6.12 o 
  -2  -4   7       40.48       36.68      2.29 o 
  -1  -4   7        9.43        8.83      1.30 o 
   0  -4   7       35.53       37.28      2.09 o 
   1  -4   7      224.98      217.76      4.43 o 
   2  -4   7      114.31      108.34      2.98 o 
   3  -4   7      823.00      824.45      9.33 o 
   4  -4   7        6.00        4.09      1.08 o 
   5  -4   7       13.20       14.84      1.99 o 
   6  -4   7       44.53       38.86      4.33 o 
   7  -4   7        2.82        4.85      1.77 o 
  -7  -3   7        0.26       -1.18      1.62 o 
  -6  -3   7        7.66        5.76      1.43 o 
  -5  -3   7       24.73       24.90      2.51 o 
  -4  -3   7       63.81       64.05      2.42 o 
  -3  -3   7     1209.33     1166.41     11.78 o 
  -2  -3   7       99.33       96.05      3.06 o 
  -1  -3   7       21.25       20.46      1.29 o 
   0  -3   7      108.91      133.18      3.07 o 
   1  -3   7       92.25       87.81      2.73 o 
   2  -3   7      711.37      705.93      9.58 o 
   3  -3   7       80.65       87.67      2.43 o 
   4  -3   7      165.77      167.86      4.00 o 
   5  -3   7      301.75      276.78      5.70 o 
   6  -3   7       23.20       17.73      2.11 o 
   7  -3   7       43.02       39.98      3.27 o 
  -7  -2   7        2.65        0.58      1.40 o 
  -6  -2   7        3.96        6.21      1.15 o 
  -5  -2   7        3.30        0.86      0.92 o 
  -4  -2   7       28.92       26.01      1.71 o 
  -3  -2   7       57.46       55.72      2.13 o 
  -2  -2   7       98.67       89.21      2.42 o 
  -1  -2   7        0.09        0.79      0.34 o 
   0  -2   7      312.22      340.26      4.46 o 
   1  -2   7      227.38      230.41      4.78 o 
   2  -2   7      128.75      130.73      2.99 o 
   3  -2   7      152.91      157.35      3.45 o 
   4  -2   7       44.01       50.00      2.42 o 
   5  -2   7       99.87       83.03      3.03 o 
   6  -2   7       23.46       22.46      2.02 o 
   7  -2   7        0.60        0.20      1.26 o 
  -7  -1   7      111.24      124.60      5.64 o 
  -6  -1   7        0.53       -0.92      1.32 o 
  -5  -1   7       53.27       51.18      2.81 o 
  -4  -1   7      966.97      952.14     10.93 o 
  -3  -1   7      198.90      187.34      3.67 o 
  -2  -1   7        0.00       -0.20      0.20 o 
  -1  -1   7       55.44       62.60      1.57 o 
   0  -1   7       78.30       74.75      1.72 o 
   1  -1   7      302.61      304.90      3.54 o 
   2  -1   7      143.15      160.24      2.97 o 
   3  -1   7       14.68       10.54      1.05 o 
   4  -1   7       58.49       49.78      2.54 o 
   5  -1   7       56.83       56.93      2.85 o 
   6  -1   7       41.20       43.33      3.60 o 
   7  -1   7       27.07       31.27      3.85 o 
  -8   0   7       75.70       83.99      5.81 o 
  -7   0   7       40.87       46.37      3.46 o 
  -6   0   7      164.51      162.52      4.80 o 
  -5   0   7      167.49      176.05      4.59 o 
  -4   0   7       34.22       40.35      2.13 o 
  -3   0   7        2.53        4.11      0.53 o 
  -2   0   7        3.41        6.81      0.60 o 
  -1   0   7      462.68      478.48      4.17 o 
   0   0   7       84.15       94.83      1.57 o 
   1   0   7      142.05      141.29      2.86 o 
   2   0   7      268.93      264.69      4.50 o 
   3   0   7       49.39       47.67      2.15 o 
   4   0   7       34.85       26.56      1.83 o 
   5   0   7        0.37       -0.78      0.78 o 
   6   0   7        0.33       -0.32      1.10 o 
  -8   1   7        3.28        1.29      1.87 o 
  -7   1   7       37.31       27.29      2.20 o 
  -6   1   7      371.51      376.05      7.80 o 
  -5   1   7       69.84       69.97      2.54 o 
  -4   1   7      236.04      234.52      3.66 o 
  -3   1   7        9.42        8.38      0.69 o 
  -2   1   7      164.42      172.78      2.05 o 
  -1   1   7       88.89       88.49      2.42 o 
   0   1   7      208.54      219.59      3.11 o 
   1   1   7       23.22       25.53      1.25 o 
   2   1   7       63.91       61.08      1.95 o 
   3   1   7        1.56        0.67      0.48 o 
   4   1   7       91.70       84.79      3.16 o 
   5   1   7       55.07       60.04      3.13 o 
   6   1   7        7.37       10.96      1.86 o 
  -8   2   7        9.35        5.45      1.67 o 
  -7   2   7       81.79       84.62      3.65 o 
  -6   2   7        1.51        1.52      0.85 o 
  -5   2   7        1.02        0.30      0.41 o 
  -4   2   7       11.80       15.53      1.05 o 
  -3   2   7      194.61      201.45      2.98 o 
  -2   2   7       13.30       14.50      1.11 o 
  -1   2   7      118.14      114.94      3.29 o 
   0   2   7       45.57       42.74      2.16 o 
   1   2   7        4.35        5.76      0.59 o 
   2   2   7        1.88        4.10      0.66 o 
   3   2   7       33.19       26.66      1.88 o 
   4   2   7        5.16        4.45      1.11 o 
   5   2   7       16.92       16.54      2.71 o 
   6   2   7        3.70        2.48      2.01 o 
  -8   3   7        6.51        5.39      1.64 o 
  -7   3   7       39.82       43.11      2.66 o 
  -6   3   7        9.33        7.81      1.08 o 
  -5   3   7       11.22       10.71      1.02 o 
  -4   3   7        0.44        0.03      0.38 o 
  -3   3   7       27.63       27.43      1.41 o 
  -2   3   7      174.64      188.21      4.41 o 
  -1   3   7      104.08      111.02      3.09 o 
   0   3   7      658.39      676.33      6.31 o 
   1   3   7       16.79       17.50      1.07 o 
   2   3   7        2.25        2.11      0.65 o 
   3   3   7      117.91      119.71      3.71 o 
   4   3   7       58.07       64.31      4.25 o 
   5   3   7      165.92      179.71      7.04 o 
  -8   4   7       78.10       82.38      4.29 o 
  -7   4   7       90.95       97.35      3.27 o 
  -6   4   7        0.23        0.27      0.79 o 
  -5   4   7       23.30       19.05      1.78 o 
  -4   4   7       12.80        8.97      0.92 o 
  -3   4   7       10.53       12.01      1.04 o 
  -2   4   7       22.42       19.36      1.28 o 
  -1   4   7       16.02       18.10      1.59 o 
   0   4   7        7.41        7.85      0.75 o 
   1   4   7       46.18       43.01      1.90 o 
   2   4   7      206.22      198.85      5.00 o 
   3   4   7       27.01       25.47      1.98 o 
   4   4   7       33.73       39.43      3.04 o 
  -8   5   7       17.29       23.52      2.62 o 
  -7   5   7       12.24       12.40      1.79 o 
  -6   5   7       35.50       32.34      2.29 o 
  -5   5   7        0.75       -0.14      0.68 o 
  -4   5   7        7.74       11.47      1.30 o 
  -3   5   7       34.40       34.06      1.70 o 
  -2   5   7      122.94      121.97      2.47 o 
  -1   5   7       44.58       44.21      2.01 o 
   0   5   7        1.99        1.25      0.62 o 
   1   5   7       81.09       67.01      3.04 o 
   2   5   7       32.59       30.50      2.26 o 
   3   5   7       26.92       25.33      2.44 o 
   4   5   7       27.58       22.13      2.88 o 
  -7   6   7       57.85       61.84      4.82 o 
  -6   6   7        7.78        4.90      1.15 o 
  -5   6   7        6.91        7.54      0.91 o 
  -4   6   7        0.61        0.91      0.58 o 
  -3   6   7      675.49      670.77      6.80 o 
  -2   6   7       77.29       79.49      2.51 o 
  -1   6   7        5.35        4.03      0.90 o 
   0   6   7        6.73        7.61      1.01 o 
   1   6   7       17.86       20.50      1.75 o 
   2   6   7      379.89      379.42      8.39 o 
   3   6   7      101.51      108.29      5.60 o 
  -7   7   7       18.15       16.95      2.11 o 
  -6   7   7        0.91       -0.50      1.22 o 
  -5   7   7        1.55        1.78      0.89 o 
  -4   7   7      170.32      157.30      3.49 o 
  -3   7   7      102.63       97.50      2.56 o 
  -2   7   7        0.06        0.09      0.68 o 
  -1   7   7        0.76        0.46      0.66 o 
   0   7   7        0.01       -0.12      0.86 o 
   1   7   7       51.30       59.50      3.61 o 
  -6   8   7       15.31       11.91      2.49 o 
  -5   8   7        4.32        2.27      1.17 o 
  -4   8   7      150.90      158.76      3.92 o 
  -3   8   7       31.67       35.86      1.84 o 
  -2   8   7        0.08       -0.88      1.28 o 
  -1   8   7        5.04        2.38      1.62 o 
   0   8   7        0.06        1.08      1.45 o 
   0 -10   8       16.90       16.93      3.91 o 
   1 -10   8        5.71        3.27      1.58 o 
   2 -10   8        7.52        9.03      4.05 o 
   3 -10   8       13.05       10.78      2.20 o 
   4 -10   8       48.14       52.31      3.21 o 
  -2  -9   8       38.28       54.48      4.28 o 
  -1  -9   8       94.22      105.20      8.20 o 
   0  -9   8        7.52        6.24      1.38 o 
   1  -9   8       16.23       12.74      1.64 o 
   2  -9   8       35.82       32.61      2.86 o 
   3  -9   8       23.26       28.03      2.38 o 
   4  -9   8       33.73       32.39      2.81 o 
   5  -9   8       13.39       14.68      1.88 o 
   6  -9   8       44.99       42.64      6.48 o 
  -3  -8   8        0.80        2.61      2.86 o 
  -2  -8   8        0.18       -0.88      1.58 o 
  -1  -8   8       51.93       59.90      4.46 o 
   0  -8   8       34.47       40.71      2.84 o 
   1  -8   8       42.68       39.77      2.65 o 
   2  -8   8       73.89       73.68      3.37 o 
   3  -8   8        1.74        1.91      1.17 o 
   4  -8   8        0.15        1.75      0.99 o 
   5  -8   8        0.11        0.29      0.98 o 
   6  -8   8       11.78       12.64      2.24 o 
  -4  -7   8      155.24      172.84      8.93 o 
  -3  -7   8        1.76        4.36      1.55 o 
  -2  -7   8       94.35       96.38      4.31 o 
  -1  -7   8       55.77       58.81      3.16 o 
   0  -7   8       20.11       19.78      2.64 o 
   1  -7   8       21.74       15.52      1.64 o 
   2  -7   8        0.12        0.91      0.68 o 
   3  -7   8       20.80       18.23      1.69 o 
   4  -7   8       34.01       38.15      2.98 o 
   5  -7   8        0.16        0.90      1.48 o 
   6  -7   8        0.38        0.97      1.20 o 
   7  -7   8        7.98        6.29      2.50 o 
  -5  -6   8       97.25      107.30      5.68 o 
  -4  -6   8        9.95        9.13      1.79 o 
  -3  -6   8       15.01       17.45      2.34 o 
  -2  -6   8       54.92       60.73      3.44 o 
  -1  -6   8       26.65       31.88      2.40 o 
   0  -6   8       36.89       28.01      2.12 o 
   1  -6   8       68.73       71.91      2.86 o 
   2  -6   8      253.88      252.99      5.87 o 
   3  -6   8       47.33       48.25      3.19 o 
   4  -6   8      140.37      141.29      4.68 o 
   5  -6   8       18.56       16.23      1.83 o 
   6  -6   8       11.58        9.79      2.07 o 
   7  -6   8       19.72       16.34      4.68 o 
  -5  -5   8        0.05       -0.62      1.10 o 
  -4  -5   8        0.01        1.51      1.03 o 
  -3  -5   8        3.58        3.52      1.13 o 
  -2  -5   8      474.95      458.86      8.53 o 
  -1  -5   8      174.01      152.84      4.20 o 
   0  -5   8       41.99       41.03      2.02 o 
   1  -5   8       11.63       12.64      1.22 o 
   2  -5   8      233.13      229.24      4.70 o 
   3  -5   8      744.94      742.59     10.01 o 
   4  -5   8        1.20        1.15      1.06 o 
   5  -5   8      134.88      130.55      4.69 o 
   6  -5   8       61.21       57.57      5.14 o 
   7  -5   8        4.16        4.22      2.09 o 
  -6  -4   8       13.27       15.28      2.19 o 
  -5  -4   8       14.21       17.71      2.15 o 
  -4  -4   8        4.44        3.33      0.91 o 
  -3  -4   8       41.86       45.16      3.00 o 
  -2  -4   8       82.53       80.26      3.07 o 
  -1  -4   8       64.22       61.96      2.63 o 
   0  -4   8       18.42       22.44      1.75 o 
   1  -4   8        2.57        4.44      0.77 o 
   2  -4   8       18.29       15.48      2.00 o 
   3  -4   8       70.93       65.64      2.67 o 
   4  -4   8       77.87       79.22      2.77 o 
   5  -4   8        5.34        5.71      1.12 o 
   6  -4   8       13.37        6.01      1.44 o 
   7  -4   8        4.19        9.03      1.99 o 
  -7  -3   8       13.90       10.58      2.53 o 
  -6  -3   8       54.79       70.06      4.49 o 
  -5  -3   8        8.62        7.03      1.36 o 
  -4  -3   8       24.49       25.08      1.71 o 
  -3  -3   8      934.12      929.20     13.06 o 
  -2  -3   8       94.15       91.24      3.01 o 
  -1  -3   8       52.74       44.43      1.72 o 
   0  -3   8        2.43        3.04      0.52 o 
   1  -3   8      193.15      174.67      4.46 o 
   2  -3   8      651.49      639.17      8.72 o 
   3  -3   8        1.38        0.53      0.44 o 
   4  -3   8        7.10        4.46      0.87 o 
   5  -3   8       34.15       27.06      2.32 o 
   6  -3   8        3.75        3.00      1.11 o 
   7  -3   8        0.00        0.57      1.66 o 
  -7  -2   8       32.43       37.76      5.36 o 
  -6  -2   8       20.69       23.27      2.41 o 
  -5  -2   8       47.26       42.51      3.06 o 
  -4  -2   8      677.76      688.45      8.80 o 
  -3  -2   8       40.59       37.54      1.98 o 
  -2  -2   8        1.12        1.07      0.52 o 
  -1  -2   8        1.26        1.78      0.43 o 
   0  -2   8       41.85       45.53      1.71 o 
   1  -2   8      158.96      149.24      3.10 o 
   2  -2   8        0.06       -0.37      0.37 o 
   3  -2   8      117.67      114.80      3.16 o 
   4  -2   8        0.64        0.33      0.58 o 
   5  -2   8       11.87        6.53      1.10 o 
   6  -2   8        4.16        4.04      1.40 o 
   7  -2   8       31.97       31.77      3.12 o 
  -7  -1   8        2.21        4.19      1.65 o 
  -6  -1   8       19.89       19.57      1.99 o 
  -5  -1   8      255.28      240.59      5.25 o 
  -4  -1   8      134.72      135.06      3.63 o 
  -3  -1   8      223.52      212.02      3.38 o 
  -2  -1   8        6.88        6.30      0.62 o 
  -1  -1   8      165.68      193.41      2.85 o 
   0  -1   8        4.10        2.29      0.43 o 
   1  -1   8       76.45       75.37      1.82 o 
   2  -1   8        7.99        6.39      0.83 o 
   3  -1   8       11.84       10.08      1.03 o 
   4  -1   8        8.40        3.88      0.87 o 
   5  -1   8        1.13        0.87      0.85 o 
   6  -1   8       47.77       56.88      3.23 o 
  -8   0   8       82.20       88.70      5.81 o 
  -7   0   8        6.82        4.34      1.63 o 
  -6   0   8      115.35      114.92      3.86 o 
  -5   0   8       10.01        9.17      1.49 o 
  -4   0   8      163.97      171.58      3.54 o 
  -3   0   8       18.38       17.80      1.09 o 
  -2   0   8      151.53      170.52      2.62 o 
  -1   0   8       54.17       53.80      1.17 o 
   0   0   8      150.88      147.46      2.16 o 
   1   0   8       90.58       88.95      2.07 o 
   2   0   8        1.69        1.40      0.52 o 
   3   0   8      107.86      113.31      3.03 o 
   4   0   8       42.06       39.34      2.38 o 
   5   0   8       20.58       21.10      1.77 o 
   6   0   8        5.30        5.01      1.51 o 
  -8   1   8       13.38       16.45      2.47 o 
  -7   1   8        1.02        1.31      1.14 o 
  -6   1   8        2.69        2.72      0.92 o 
  -5   1   8       35.76       36.65      2.13 o 
  -4   1   8        0.40       -0.33      0.33 o 
  -3   1   8        7.00        8.72      0.75 o 
  -2   1   8       36.56       43.35      1.74 o 
  -1   1   8       12.40       11.01      0.97 o 
   0   1   8       91.74       86.45      2.09 o 
   1   1   8      428.35      449.16      4.83 o 
   2   1   8       26.85       28.48      1.55 o 
   3   1   8        6.17        4.13      0.82 o 
   4   1   8        1.85        1.70      0.84 o 
   5   1   8        5.55        7.01      1.50 o 
   6   1   8      453.68      523.59     12.94 o 
  -8   2   8       61.15       53.29      3.87 o 
  -7   2   8        3.67        3.60      1.19 o 
  -6   2   8        9.95       11.26      1.44 o 
  -5   2   8       15.62       15.58      1.27 o 
  -4   2   8       54.15       53.17      1.71 o 
  -3   2   8       25.03       21.86      1.30 o 
  -2   2   8       53.70       56.70      2.92 o 
  -1   2   8      234.61      240.64      5.00 o 
   0   2   8       28.88       29.91      1.51 o 
   1   2   8       20.46       22.86      1.21 o 
   2   2   8       66.04       53.36      2.12 o 
   3   2   8        2.76        0.06      0.79 o 
   4   2   8        2.94        1.77      0.98 o 
   5   2   8       24.31       31.40      3.13 o 
  -8   3   8       32.70       34.89      3.76 o 
  -7   3   8        0.92        1.19      0.91 o 
  -6   3   8        1.57        1.08      0.71 o 
  -5   3   8       47.68       51.57      2.30 o 
  -4   3   8       20.11       16.43      1.18 o 
  -3   3   8       92.06      102.78      2.16 o 
  -2   3   8       36.91       37.92      2.48 o 
  -1   3   8      510.76      521.17      7.73 o 
   0   3   8        3.89        3.87      0.58 o 
   1   3   8       65.87       59.26      1.94 o 
   2   3   8      154.14      139.55      3.93 o 
   3   3   8       31.88       27.72      1.93 o 
   4   3   8        0.43        0.78      1.16 o 
   5   3   8       36.06       49.04      6.38 o 
  -8   4   8       33.09       29.87      2.91 o 
  -7   4   8       11.67       10.33      1.51 o 
  -6   4   8      190.72      195.67      4.85 o 
  -5   4   8        4.40        4.62      0.96 o 
  -4   4   8       17.52       15.19      0.89 o 
  -3   4   8       32.27       34.62      1.86 o 
  -2   4   8      581.20      586.52      8.59 o 
  -1   4   8      774.01      770.77     10.69 o 
   0   4   8        0.02        0.79      0.51 o 
   1   4   8        1.38        0.79      0.56 o 
   2   4   8       32.83       33.46      2.05 o 
   3   4   8      221.19      219.10      5.62 o 
   4   4   8       34.93       29.16      3.00 o 
  -7   5   8        0.07        2.37      1.47 o 
  -6   5   8       26.28       24.21      1.93 o 
  -5   5   8       43.19       41.08      3.07 o 
  -4   5   8       66.39       62.95      2.55 o 
  -3   5   8       66.63       65.18      2.42 o 
  -2   5   8      114.89      116.18      3.76 o 
  -1   5   8        0.19        0.16      0.55 o 
   0   5   8        1.42        1.36      0.62 o 
   1   5   8       57.81       58.70      2.19 o 
   2   5   8      166.19      172.98      4.39 o 
   3   5   8        0.98        0.50      2.21 o 
  -7   6   8        2.15        2.12      2.10 o 
  -6   6   8       56.19       46.07      3.81 o 
  -5   6   8       34.39       29.14      2.02 o 
  -4   6   8       38.56       37.10      2.14 o 
  -3   6   8       86.84       92.60      3.01 o 
  -2   6   8        1.81        2.55      0.74 o 
  -1   6   8       20.04       21.46      1.38 o 
   0   6   8        0.03        0.31      1.13 o 
   1   6   8       33.52       34.40      2.35 o 
   2   6   8       34.95       36.98      3.05 o 
  -6   7   8       46.08       43.79      3.22 o 
  -5   7   8       44.78       46.79      3.35 o 
  -4   7   8      113.21      103.65      3.87 o 
  -3   7   8      165.96      158.73      3.81 o 
  -2   7   8       24.54       25.11      1.70 o 
  -1   7   8        0.87        1.59      1.31 o 
   0   7   8        7.25        4.22      1.27 o 
   1   7   8        3.01        6.74      2.26 o 
  -5   8   8        8.53        5.81      2.84 o 
  -4   8   8       68.97       60.41      4.06 o 
  -3   8   8        0.81       -0.02      1.11 o 
  -2   8   8        0.67        1.87      1.66 o 
  -1   8   8       30.38       26.04      2.55 o 
   1 -10   9        7.50        8.90      2.91 o 
   2 -10   9        6.81        7.12      1.80 o 
   3 -10   9       24.22       23.66      2.69 o 
   4 -10   9        0.44        1.52      1.62 o 
  -1  -9   9      108.70      120.55      7.12 o 
   0  -9   9       18.15       19.13      2.45 o 
   1  -9   9        2.27        5.29      2.82 o 
   2  -9   9       29.48       28.81      2.26 o 
   3  -9   9       11.80       14.78      2.08 o 
   4  -9   9       16.21       17.20      1.99 o 
   5  -9   9        5.17       13.63      3.08 o 
  -3  -8   9        0.90        2.90      1.74 o 
  -2  -8   9       22.03       26.28      2.77 o 
  -1  -8   9        6.12        3.71      1.43 o 
   0  -8   9       30.98       29.87      3.17 o 
   1  -8   9       38.30       30.89      2.68 o 
   2  -8   9       59.77       66.72      3.56 o 
   3  -8   9      147.78      156.66      4.77 o 
   4  -8   9        4.44        6.02      1.43 o 
   5  -8   9        7.35        5.50      1.53 o 
   6  -8   9       44.35       51.78      3.77 o 
  -4  -7   9        0.11        0.55      2.13 o 
  -3  -7   9        3.80        5.96      2.56 o 
  -2  -7   9       69.96       80.52      3.64 o 
  -1  -7   9       36.18       35.98      2.95 o 
   0  -7   9      224.03      207.41      5.44 o 
   1  -7   9        0.05       -0.70      0.89 o 
   2  -7   9       29.00       26.90      2.36 o 
   3  -7   9       16.72       18.88      2.02 o 
   4  -7   9       49.79       51.97      3.06 o 
   5  -7   9       18.39       23.23      2.75 o 
   6  -7   9       65.72       66.78      5.08 o 
  -5  -6   9       17.01       17.22      3.32 o 
  -4  -6   9        8.00       15.45      2.79 o 
  -3  -6   9       77.63       85.23      4.96 o 
  -2  -6   9        0.64       -1.39      1.39 o 
  -1  -6   9      101.58       97.24      3.64 o 
   0  -6   9       56.72       60.45      2.56 o 
   1  -6   9        0.48        1.24      0.61 o 
   2  -6   9        2.80        2.51      0.75 o 
   3  -6   9       12.78       12.17      1.56 o 
   4  -6   9        9.50        8.94      1.78 o 
   5  -6   9       27.15       30.46      2.86 o 
   6  -6   9        0.34       -0.46      0.96 o 
  -5  -5   9       18.66       29.19      2.95 o 
  -4  -5   9        9.75        7.49      1.79 o 
  -3  -5   9        1.57        1.15      0.89 o 
  -2  -5   9      165.11      158.80      5.00 o 
  -1  -5   9      128.02      118.77      3.73 o 
   0  -5   9      140.07      114.11      3.42 o 
   1  -5   9        2.52        1.88      0.66 o 
   2  -5   9      221.19      208.48      5.07 o 
   3  -5   9      169.04      166.27      4.15 o 
   4  -5   9        2.81        1.40      1.27 o 
   5  -5   9       35.68       48.94      3.74 o 
   6  -5   9        5.99        6.24      2.11 o 
   7  -5   9        3.33        8.23      2.15 o 
  -6  -4   9        9.78       16.53      2.30 o 
  -5  -4   9        4.82        7.47      1.56 o 
  -4  -4   9       41.62       43.64      3.05 o 
  -3  -4   9      230.10      227.53      6.10 o 
  -2  -4   9        0.09        0.22      0.63 o 
  -1  -4   9       18.81       17.19      1.31 o 
   0  -4   9       11.83       13.97      1.51 o 
   1  -4   9        6.11        5.19      0.94 o 
   2  -4   9      416.30      406.13      7.01 o 
   3  -4   9       42.76       43.40      3.08 o 
   4  -4   9        1.38        0.47      0.90 o 
   5  -4   9       11.48        7.86      1.50 o 
   6  -4   9        5.23        6.00      1.37 o 
   7  -4   9       22.49       23.70      2.91 o 
  -6  -3   9       12.74       20.06      2.47 o 
  -5  -3   9      150.03      151.34      4.51 o 
  -4  -3   9       74.82       69.95      2.60 o 
  -3  -3   9      167.35      170.80      4.45 o 
  -2  -3   9      130.36      128.42      3.58 o 
  -1  -3   9        0.70        1.25      0.54 o 
   0  -3   9       13.90       13.66      1.33 o 
   1  -3   9        0.83        0.30      0.46 o 
   2  -3   9      619.68      594.93      8.83 o 
   3  -3   9        1.45        1.88      0.58 o 
   4  -3   9       15.32       17.36      1.59 o 
   5  -3   9        3.25        3.46      1.24 o 
   6  -3   9       18.97       33.45      3.05 o 
  -7  -2   9      230.32      260.24     12.15 o 
  -6  -2   9        3.34        1.89      1.22 o 
  -5  -2   9      164.11      163.09      5.25 o 
  -4  -2   9        1.68        2.50      0.99 o 
  -3  -2   9      175.84      168.57      3.73 o 
  -2  -2   9       22.28       21.57      1.28 o 
  -1  -2   9        2.06        1.23      0.39 o 
   0  -2   9       27.48       26.27      1.44 o 
   1  -2   9       92.94       90.72      2.54 o 
   2  -2   9      330.89      325.43      5.14 o 
   3  -2   9       54.55       63.50      2.71 o 
   4  -2   9      173.56      166.55      4.51 o 
   5  -2   9       61.79       60.54      3.06 o 
   6  -2   9       45.99       53.73      3.52 o 
  -7  -1   9        7.72        9.71      1.63 o 
  -6  -1   9        3.58        3.53      0.98 o 
  -5  -1   9       32.41       31.07      2.15 o 
  -4  -1   9      556.27      562.32      7.49 o 
  -3  -1   9       14.57       14.02      1.06 o 
  -2  -1   9        1.96        0.92      0.36 o 
  -1  -1   9        1.67        1.17      0.37 o 
   0  -1   9        4.43        4.88      0.65 o 
   1  -1   9      296.88      295.13      4.35 o 
   2  -1   9       51.73       54.79      2.00 o 
   3  -1   9       49.36       51.56      2.36 o 
   4  -1   9       15.27       11.83      1.50 o 
   5  -1   9       20.76       17.99      1.70 o 
   6  -1   9       99.95      110.57      4.44 o 
  -7   0   9       17.12       11.65      2.45 o 
  -6   0   9        0.62       -0.50      0.88 o 
  -5   0   9      164.71      168.69      3.89 o 
  -4   0   9        6.50        5.01      0.72 o 
  -3   0   9       60.77       62.38      1.89 o 
  -2   0   9        0.00       -0.26      0.26 o 
  -1   0   9        2.99        4.50      0.40 o 
   0   0   9        1.66        2.07      0.50 o 
   1   0   9       66.37       67.42      1.82 o 
   2   0   9       13.17       12.13      1.09 o 
   3   0   9       53.09       43.98      3.07 o 
   4   0   9       37.18       40.48      2.29 o 
   5   0   9       81.50       86.82      4.62 o 
   6   0   9       26.86       25.37      2.91 o 
  -7   1   9       43.45       44.93      3.44 o 
  -6   1   9       25.15       25.14      1.89 o 
  -5   1   9       89.77       92.36      3.40 o 
  -4   1   9       27.57       31.07      1.52 o 
  -3   1   9       58.34       57.81      1.82 o 
  -2   1   9      310.60      333.29      4.10 o 
  -1   1   9       79.49       82.90      2.61 o 
   0   1   9      346.22      346.93      4.44 o 
   1   1   9        7.87        9.86      0.76 o 
   2   1   9       70.31       52.43      2.04 o 
   3   1   9      179.53      148.39      3.61 o 
   4   1   9        0.19       -0.04      0.80 o 
   5   1   9       21.67       23.50      2.60 o 
  -7   2   9        9.67        9.67      1.44 o 
  -6   2   9       16.47       17.94      1.49 o 
  -5   2   9       56.14       55.04      2.60 o 
  -4   2   9        4.73        5.89      0.64 o 
  -3   2   9       21.82       20.38      1.10 o 
  -2   2   9      181.70      181.31      5.01 o 
  -1   2   9      689.20      670.86      8.89 o 
   0   2   9      669.17      656.58      7.96 o 
   1   2   9        1.68        2.37      0.59 o 
   2   2   9        0.30       -0.65      0.65 o 
   3   2   9       25.90       24.78      1.81 o 
   4   2   9       11.55       13.74      1.72 o 
   5   2   9       16.43       15.49      2.35 o 
  -7   3   9       31.73       29.81      2.95 o 
  -6   3   9        3.40        3.05      0.98 o 
  -5   3   9       70.80       63.62      3.23 o 
  -4   3   9      208.79      187.90      3.92 o 
  -3   3   9      325.23      336.05      6.61 o 
  -2   3   9      131.54      135.83      3.93 o 
  -1   3   9       79.72       79.98      3.03 o 
   0   3   9       18.48       13.65      1.65 o 
   1   3   9        3.63        2.16      0.61 o 
   2   3   9        9.29        7.59      1.18 o 
   3   3   9       18.94       18.68      1.78 o 
   4   3   9        5.40        5.02      2.08 o 
  -7   4   9       27.51       27.75      2.68 o 
  -6   4   9        0.76        0.50      0.93 o 
  -5   4   9       65.60       57.21      2.45 o 
  -4   4   9       18.30       15.58      1.66 o 
  -3   4   9        4.98        1.19      0.84 o 
  -2   4   9        1.17        2.37      0.85 o 
  -1   4   9        9.25        8.36      1.34 o 
   0   4   9       28.73       29.17      2.21 o 
   1   4   9        5.97        4.57      0.86 o 
   2   4   9       15.36       15.04      1.87 o 
   3   4   9       33.94       39.97      3.03 o 
  -7   5   9        3.62        5.38      1.99 o 
  -6   5   9       50.95       45.88      2.58 o 
  -5   5   9       40.77       38.08      2.18 o 
  -4   5   9       22.46       24.65      2.57 o 
  -3   5   9       37.00       33.34      2.65 o 
  -2   5   9        3.94        3.26      1.14 o 
  -1   5   9      188.83      184.02      7.85 o 
   0   5   9        1.92        1.82      0.80 o 
   1   5   9        0.00       -1.01      1.24 o 
   2   5   9        2.27        2.57      1.28 o 
  -6   6   9       15.42       16.32      2.18 o 
  -5   6   9       57.80       58.35      2.95 o 
  -4   6   9        1.30       -0.77      1.47 o 
  -3   6   9       13.16       13.82      1.78 o 
  -2   6   9        0.73        3.89      1.25 o 
  -1   6   9        1.31        3.42      1.99 o 
   0   6   9        1.80        2.00      1.29 o 
   1   6   9       57.34       52.43      3.52 o 
  -5   7   9       13.97       11.02      1.70 o 
  -4   7   9        8.84        9.02      3.31 o 
  -3   7   9       88.22      101.24      6.12 o 
  -2   7   9        0.29       -1.65      1.65 o 
  -1   7   9        3.19        3.72      1.34 o 
   0   7   9        6.15        8.60      1.98 o 
   2 -10  10        1.25        0.06      3.38 o 
  -1  -9  10       17.52       26.09      3.98 o 
   0  -9  10       60.98       57.97      3.36 o 
   1  -9  10        5.72        7.35      1.76 o 
   2  -9  10        6.95        5.41      1.22 o 
   3  -9  10       10.55       15.66      2.09 o 
   4  -9  10        2.67        2.48      1.54 o 
  -2  -8  10      119.38      141.81      6.79 o 
  -1  -8  10       45.81       50.61      3.39 o 
   0  -8  10      113.05      126.70      4.04 o 
   1  -8  10       66.27       77.35      5.08 o 
   2  -8  10        0.74       -0.72      1.23 o 
   3  -8  10       34.46       34.40      2.54 o 
   4  -8  10       59.00       63.85      3.74 o 
   5  -8  10        0.01       -0.12      1.35 o 
  -3  -7  10        2.69        2.91      1.99 o 
  -2  -7  10       24.40       21.35      2.34 o 
  -1  -7  10       20.28       24.18      2.39 o 
   0  -7  10       28.46       29.08      2.42 o 
   1  -7  10       76.49       69.69      2.90 o 
   2  -7  10       63.64       70.50      3.05 o 
   3  -7  10       24.31       27.56      2.29 o 
   4  -7  10        1.24        2.39      1.15 o 
   5  -7  10       21.44       19.46      2.16 o 
   6  -7  10       79.22       86.88      6.15 o 
  -4  -6  10        3.93       -0.22      1.73 o 
  -3  -6  10       53.99       58.43      4.42 o 
  -2  -6  10        0.04       -1.19      1.19 o 
  -1  -6  10       96.20       85.26      3.62 o 
   0  -6  10       76.59       71.43      2.64 o 
   1  -6  10       32.92       35.43      2.85 o 
   2  -6  10        0.00        0.14      0.61 o 
   3  -6  10       39.62       40.97      2.88 o 
   4  -6  10        3.39        7.80      1.47 o 
   5  -6  10       34.26       38.60      3.70 o 
   6  -6  10        3.09        2.33      2.24 o 
  -5  -5  10       37.89       46.12      4.56 o 
  -4  -5  10       43.64       46.31      3.71 o 
  -3  -5  10      225.48      227.44      6.85 o 
  -2  -5  10       23.10       23.59      2.28 o 
  -1  -5  10       12.80       14.36      1.78 o 
   0  -5  10        0.39       -0.09      0.65 o 
   1  -5  10       72.34       70.83      2.75 o 
   2  -5  10       82.35       78.29      3.21 o 
   3  -5  10      277.57      273.55      6.12 o 
   4  -5  10        0.24       -0.88      0.98 o 
   5  -5  10       14.40       19.62      2.59 o 
   6  -5  10       26.73       25.45      2.52 o 
  -6  -4  10      252.28      285.84      9.31 o 
  -5  -4  10        5.30        2.42      1.61 o 
  -4  -4  10       56.71       58.92      3.39 o 
  -3  -4  10        0.01        0.27      0.71 o 
  -2  -4  10       39.71       38.99      2.61 o 
  -1  -4  10      312.64      276.58      6.10 o 
   0  -4  10       62.25       68.47      3.66 o 
   1  -4  10        3.94        4.31      0.85 o 
   2  -4  10       72.80       74.55      3.25 o 
   3  -4  10       90.86       82.24      3.42 o 
   4  -4  10       20.27       22.05      2.15 o 
   5  -4  10       67.68       70.39      3.92 o 
   6  -4  10       11.12       15.73      2.13 o 
  -6  -3  10        4.40        6.43      1.64 o 
  -5  -3  10        7.85       10.59      1.49 o 
  -4  -3  10        0.07        1.04      0.75 o 
  -3  -3  10      215.42      211.55      5.50 o 
  -2  -3  10        2.84        3.91      0.91 o 
  -1  -3  10       28.90       24.60      1.83 o 
   0  -3  10       14.50       14.15      1.23 o 
   1  -3  10       61.29       62.77      2.61 o 
   2  -3  10      188.41      193.03      4.90 o 
   3  -3  10       13.09       14.95      1.67 o 
   4  -3  10       15.81       15.37      1.50 o 
   5  -3  10       13.46       12.90      1.93 o 
   6  -3  10        4.48        0.06      1.59 o 
  -6  -2  10        9.13        8.67      2.06 o 
  -5  -2  10        0.56        0.47      1.00 o 
  -4  -2  10      260.16      259.66      5.54 o 
  -3  -2  10        1.17        1.81      0.56 o 
  -2  -2  10        7.22        7.00      0.91 o 
  -1  -2  10        7.19        7.96      0.95 o 
   0  -2  10       28.08       30.42      1.59 o 
   1  -2  10      501.43      507.05      6.57 o 
   2  -2  10        0.91        0.98      0.56 o 
   3  -2  10        3.60        1.82      0.77 o 
   4  -2  10       57.81       53.46      3.08 o 
   5  -2  10       11.28       14.95      1.96 o 
   6  -2  10        3.93        4.19      1.55 o 
  -7  -1  10        7.49       13.67      1.98 o 
  -6  -1  10        6.79        6.21      1.03 o 
  -5  -1  10      148.46      155.05      4.08 o 
  -4  -1  10       46.58       45.01      2.14 o 
  -3  -1  10       48.52       52.00      2.12 o 
  -2  -1  10       57.47       53.96      1.79 o 
  -1  -1  10       92.77       99.59      2.10 o 
   0  -1  10        4.77        5.51      0.69 o 
   1  -1  10      182.50      180.59      3.67 o 
   2  -1  10       10.48       12.74      1.11 o 
   3  -1  10        0.95       -0.08      0.88 o 
   4  -1  10       86.78       63.25      3.37 o 
   5  -1  10        0.07       -0.19      1.01 o 
   6  -1  10       47.60       50.32      3.33 o 
  -7   0  10        5.46        6.08      1.64 o 
  -6   0  10       25.13       25.62      2.53 o 
  -5   0  10      102.57      104.50      3.56 o 
  -4   0  10        1.06        0.57      0.88 o 
  -3   0  10        0.91        1.69      0.46 o 
  -2   0  10       18.11       15.35      1.16 o 
  -1   0  10      122.65      119.64      2.69 o 
   0   0  10      727.26      708.10      6.19 o 
   1   0  10       35.59       35.11      1.42 o 
   2   0  10       20.43       17.17      1.35 o 
   3   0  10        2.48        2.84      0.80 o 
   4   0  10        0.01       -0.81      0.81 o 
   5   0  10       34.31       41.67      2.93 o 
  -7   1  10        9.47       11.89      1.97 o 
  -6   1  10       15.21       18.89      1.82 o 
  -5   1  10      145.14      145.57      3.35 o 
  -4   1  10      247.81      233.16      3.72 o 
  -3   1  10      245.61      232.24      3.14 o 
  -2   1  10      111.32      115.77      3.81 o 
  -1   1  10      176.74      170.51      4.19 o 
   0   1  10      445.35      447.73      5.67 o 
   1   1  10       29.48       26.26      1.97 o 
   2   1  10        0.05       -0.11      0.59 o 
   3   1  10       17.29       20.43      1.60 o 
   4   1  10       24.31       26.38      2.25 o 
   5   1  10        2.74       -1.74      1.74 o 
  -7   2  10       23.71       27.35      2.52 o 
  -6   2  10       62.18       77.51      2.91 o 
  -5   2  10       57.37       58.30      2.17 o 
  -4   2  10       74.28       65.45      1.88 o 
  -3   2  10        5.74        4.81      0.91 o 
  -2   2  10      167.96      162.98      4.36 o 
  -1   2  10       86.45       84.15      3.08 o 
   0   2  10       32.93       31.49      2.27 o 
   1   2  10        1.84       -0.31      0.59 o 
   2   2  10       20.15       19.87      1.64 o 
   3   2  10       26.98       24.32      2.20 o 
   4   2  10       42.93       45.47      3.31 o 
  -7   3  10       28.50       28.50      2.72 o 
  -6   3  10       45.11       42.95      4.27 o 
  -5   3  10       11.09        9.91      1.31 o 
  -4   3  10        5.05        5.17      0.73 o 
  -3   3  10        4.49        3.64      0.98 o 
  -2   3  10       85.25       94.57      3.41 o 
  -1   3  10        0.22       -0.28      0.67 o 
   0   3  10      255.52      251.34      6.13 o 
   1   3  10        8.36        8.67      1.18 o 
   2   3  10        7.06        5.37      1.33 o 
   3   3  10       67.17       79.46      4.54 o 
  -7   4  10        2.05        1.37      1.56 o 
  -6   4  10        2.57        3.19      1.22 o 
  -5   4  10        0.23        1.39      0.97 o 
  -4   4  10        9.55       13.34      1.61 o 
  -3   4  10       97.03      103.32      3.94 o 
  -2   4  10       31.98       31.84      2.39 o 
  -1   4  10       13.37       15.55      1.88 o 
   0   4  10       17.54       19.59      1.98 o 
   1   4  10       21.80       27.97      2.20 o 
   2   4  10        6.18        3.20      1.21 o 
   3   4  10        3.92        3.22      1.61 o 
  -6   5  10       56.80       55.75      3.45 o 
  -5   5  10        3.08        2.11      1.11 o 
  -4   5  10        0.49        1.25      1.68 o 
  -3   5  10       94.05       94.77      3.95 o 
  -2   5  10        8.17       10.03      1.76 o 
  -1   5  10       18.05       16.72      2.07 o 
   0   5  10        0.48        3.51      1.56 o 
   1   5  10       20.64       23.28      2.69 o 
   2   5  10       59.80       55.38      5.89 o 
  -6   6  10       89.86       91.33      4.09 o 
  -5   6  10        5.60       10.99      3.62 o 
  -4   6  10      121.21      145.81      8.19 o 
  -3   6  10       58.36       73.98      5.87 o 
  -2   6  10       24.15       37.51      4.97 o 
  -1   6  10        7.54        4.31      1.92 o 
   0   6  10        1.05        1.05      3.02 o 
  -4   7  10      136.61      125.97     16.20 o 
  -3   7  10       15.39       13.04      3.02 o 
  -2   7  10        2.91        5.11      3.20 o 
   0  -9  11        2.16        6.53      4.81 o 
   1  -9  11        3.65        6.59      1.75 o 
   2  -9  11        0.05       -0.03      1.62 o 
   3  -9  11       50.60       65.66      4.83 o 
  -2  -8  11       22.29       23.69      4.76 o 
  -1  -8  11       11.26        7.08      2.43 o 
   0  -8  11        0.27        1.24      1.30 o 
   1  -8  11       41.39       34.94      3.24 o 
   2  -8  11       36.02       35.78      2.65 o 
   3  -8  11        3.08        3.19      1.17 o 
   4  -8  11        0.25       -1.38      1.38 o 
  -3  -7  11        0.00        2.97      1.80 o 
  -2  -7  11      237.58      256.89      7.21 o 
  -1  -7  11       34.19       34.59      3.66 o 
   0  -7  11        2.73        4.54      0.88 o 
   1  -7  11        0.56       -0.59      1.38 o 
   2  -7  11       48.23       44.37      2.90 o 
   3  -7  11      230.67      236.67      6.58 o 
   4  -7  11        0.54        0.82      1.46 o 
   5  -7  11        6.85       10.82      2.45 o 
  -4  -6  11        1.38        0.52      4.71 o 
  -3  -6  11        0.33        1.90      1.52 o 
  -2  -6  11       10.13       10.45      1.91 o 
  -1  -6  11       54.91       43.61      2.60 o 
   0  -6  11      290.81      265.76      6.44 o 
   1  -6  11        4.70        2.47      1.21 o 
   2  -6  11        0.61        1.48      0.89 o 
   3  -6  11        1.05        0.76      1.02 o 
   4  -6  11        0.78        0.23      1.19 o 
   5  -6  11        2.52        3.10      1.97 o 
  -5  -5  11        0.83        3.92      2.51 o 
  -4  -5  11       20.34       20.64      2.62 o 
  -3  -5  11       43.29       45.73      3.31 o 
  -2  -5  11        2.58        2.37      1.07 o 
  -1  -5  11        2.48        4.78      1.12 o 
   0  -5  11       82.35       69.52      3.03 o 
   1  -5  11        6.16        4.76      0.92 o 
   2  -5  11       51.31       48.23      3.15 o 
   3  -5  11        0.90        0.15      0.88 o 
   4  -5  11      100.61      111.91      4.10 o 
   5  -5  11        1.78        0.59      1.55 o 
   6  -5  11        4.79        0.39      2.51 o 
  -5  -4  11       33.12       41.62      4.06 o 
  -4  -4  11       20.91       17.99      2.08 o 
  -3  -4  11        0.80        0.89      1.21 o 
  -2  -4  11       23.15       19.35      2.15 o 
  -1  -4  11       35.00       29.34      2.62 o 
   0  -4  11       21.07       17.74      2.06 o 
   1  -4  11        3.14        2.14      1.09 o 
   2  -4  11      277.16      273.33      6.81 o 
   3  -4  11        8.99        9.98      1.27 o 
   4  -4  11        6.71       11.11      1.98 o 
   5  -4  11       70.47       65.45      4.15 o 
   6  -4  11      121.31      140.48      6.94 o 
  -6  -3  11       34.22       49.67      2.65 o 
  -5  -3  11       15.49       18.97      2.39 o 
  -4  -3  11       45.69       46.27      2.77 o 
  -3  -3  11        5.46        6.87      1.33 o 
  -2  -3  11        1.06       -0.38      0.77 o 
  -1  -3  11       48.73       41.82      2.53 o 
   0  -3  11        2.26        1.47      0.54 o 
   1  -3  11        5.90        4.43      0.85 o 
   2  -3  11      178.49      179.19      4.39 o 
   3  -3  11       25.80       28.38      2.26 o 
   4  -3  11       30.00       36.25      2.30 o 
   5  -3  11        4.66        2.57      1.93 o 
  -6  -2  11        1.51        0.71      1.18 o 
  -5  -2  11       42.52       46.44      3.32 o 
  -4  -2  11       32.92       31.20      1.91 o 
  -3  -2  11       36.64       35.60      2.15 o 
  -2  -2  11       56.18       48.44      2.70 o 
  -1  -2  11       49.60       45.64      2.05 o 
   0  -2  11       41.91       39.35      1.87 o 
   1  -2  11      340.32      330.31      5.14 o 
   2  -2  11        1.70        2.26      0.74 o 
   3  -2  11        8.12        7.64      1.07 o 
   4  -2  11       17.02       19.45      1.82 o 
   5  -2  11        0.01        0.79      1.33 o 
  -6  -1  11        1.81        1.55      1.33 o 
  -5  -1  11       55.64       61.25      3.75 o 
  -4  -1  11      116.81      112.62      3.13 o 
  -3  -1  11      190.59      184.86      3.97 o 
  -2  -1  11       58.20       53.89      2.08 o 
  -1  -1  11       13.17       13.44      1.04 o 
   0  -1  11        4.51        2.87      0.58 o 
   1  -1  11      997.92     1022.65     11.29 o 
   2  -1  11        0.91        0.30      0.68 o 
   3  -1  11       18.50       21.46      1.73 o 
   4  -1  11        2.15        3.78      1.54 o 
   5  -1  11       12.44        7.33      1.75 o 
  -7   0  11        0.28        0.16      1.26 o 
  -6   0  11        1.97        1.71      0.92 o 
  -5   0  11      273.87      290.47      4.85 o 
  -4   0  11      126.57      126.46      3.84 o 
  -3   0  11       87.90       82.66      2.20 o 
  -2   0  11       34.50       29.70      1.56 o 
  -1   0  11      120.10      117.08      2.88 o 
   0   0  11      350.01      358.42      4.90 o 
   1   0  11        3.24        3.00      0.88 o 
   2   0  11       11.55        7.55      1.24 o 
   3   0  11       13.78        8.95      1.62 o 
   4   0  11       33.16       29.77      2.31 o 
   5   0  11        4.66        5.65      1.97 o 
  -7   1  11        4.09        5.49      1.43 o 
  -6   1  11        9.23       10.48      1.49 o 
  -5   1  11      202.86      195.17      3.65 o 
  -4   1  11        3.62        4.02      0.60 o 
  -3   1  11        1.67        0.10      0.53 o 
  -2   1  11       59.75       60.84      3.14 o 
  -1   1  11      217.57      220.24      5.01 o 
   0   1  11      144.07      153.60      4.36 o 
   1   1  11       73.38       71.07      2.56 o 
   2   1  11        4.70        4.25      1.06 o 
   3   1  11       51.24       52.21      2.80 o 
   4   1  11       36.52       36.99      2.71 o 
  -7   2  11        3.75        1.42      1.33 o 
  -6   2  11      161.06      167.58      4.83 o 
  -5   2  11       92.79       86.90      2.62 o 
  -4   2  11       45.49       42.51      3.11 o 
  -3   2  11        8.98        8.08      1.18 o 
  -2   2  11      140.42      140.98      4.41 o 
  -1   2  11        0.92        0.33      0.73 o 
   0   2  11        2.39        1.97      0.84 o 
   1   2  11       70.24       71.70      3.45 o 
   2   2  11        4.63        4.34      0.89 o 
   3   2  11        0.21        0.51      1.95 o 
  -7   3  11        6.13        5.76      6.60 o 
  -6   3  11        9.06        7.69      1.14 o 
  -5   3  11       67.70       64.36      2.88 o 
  -4   3  11        9.46        7.54      1.35 o 
  -3   3  11        5.41        8.39      1.23 o 
  -2   3  11       42.40       47.86      3.45 o 
  -1   3  11        0.64        2.44      0.78 o 
   0   3  11        4.07        4.33      0.88 o 
   1   3  11        0.33       -0.55      0.55 o 
   2   3  11       74.36       73.32      3.36 o 
   3   3  11       20.87       25.18      2.83 o 
  -6   4  11       13.01       11.61      2.02 o 
  -5   4  11       16.99       16.80      1.64 o 
  -4   4  11      106.23      111.41      5.13 o 
  -3   4  11       69.60       72.06      4.33 o 
  -2   4  11        7.31        7.66      1.73 o 
  -1   4  11       11.06       13.78      2.35 o 
   0   4  11       20.42       29.90      7.66 o 
   1   4  11        0.61       -0.89      2.69 o 
   2   4  11        0.67        2.10      1.03 o 
  -6   5  11       88.60       94.11      6.17 o 
  -5   5  11       17.79       14.66      3.76 o 
  -4   5  11        2.19        4.36      1.87 o 
  -3   5  11        1.96        0.76      1.54 o 
  -2   5  11       26.15       20.09      2.74 o 
  -1   5  11       20.23       24.40      5.70 o 
   0   5  11        3.14        3.34      2.34 o 
   1   5  11        1.40        4.73      4.85 o 
  -4   6  11       18.23       27.38      8.65 o 
  -3   6  11       36.82       42.90     10.20 o 
  -2   6  11       37.98       56.50      7.76 o 
  -1   6  11        0.34       -2.21      2.21 o 
  -1  -8  12        0.03       -0.10      1.46 o 
   0  -8  12       44.87       45.42      4.55 o 
   1  -8  12       30.28       25.09      3.21 o 
   2  -8  12        0.31        0.14      1.42 o 
   3  -8  12       11.13       13.19      2.05 o 
   4  -8  12        9.97        9.70      2.80 o 
  -2  -7  12        2.23        1.20      1.60 o 
  -1  -7  12       15.29       14.96      1.90 o 
   0  -7  12      120.93      125.01      5.01 o 
   1  -7  12       24.95       24.43      2.67 o 
   2  -7  12        2.72        6.78      1.81 o 
   3  -7  12       39.61       35.34      3.96 o 
   4  -7  12       14.67       15.03      2.52 o 
  -3  -6  12        9.26       11.04      3.25 o 
  -2  -6  12       33.23       37.13      3.27 o 
  -1  -6  12        1.81        2.38      1.03 o 
   0  -6  12       73.24       66.35      4.20 o 
   1  -6  12        0.00       -0.53      1.22 o 
   2  -6  12      119.00      134.43      4.40 o 
   3  -6  12        0.11       -0.06      1.14 o 
   4  -6  12       39.89       35.39      3.68 o 
   5  -6  12       41.72       38.76      5.96 o 
  -4  -5  12       49.83       57.93      4.23 o 
  -3  -5  12       16.20       15.86      3.39 o 
  -2  -5  12       15.71       13.64      1.77 o 
  -1  -5  12        3.65        0.97      0.97 o 
   0  -5  12       30.89       27.04      2.56 o 
   1  -5  12        5.63        5.07      1.00 o 
   2  -5  12       42.67       45.35      2.68 o 
   3  -5  12       75.98       82.43      3.67 o 
   4  -5  12       48.91       56.91      4.33 o 
   5  -5  12       26.69       29.79      3.70 o 
  -5  -4  12        1.63       -0.55      1.68 o 
  -4  -4  12       32.29       31.79      2.62 o 
  -3  -4  12        0.25        1.79      0.91 o 
  -2  -4  12       43.73       44.08      2.96 o 
  -1  -4  12      167.92      140.53      4.82 o 
   0  -4  12       20.87       21.65      2.22 o 
   1  -4  12        0.00       -0.04      0.83 o 
   2  -4  12       46.87       52.93      2.93 o 
   3  -4  12      121.57      127.91      4.02 o 
   4  -4  12        8.73        9.84      2.19 o 
   5  -4  12       20.37       11.75      2.28 o 
  -5  -3  12        8.23        8.58      1.70 o 
  -4  -3  12        3.91        4.21      1.21 o 
  -3  -3  12       11.64       11.53      1.30 o 
  -2  -3  12        2.91        1.41      0.92 o 
  -1  -3  12        0.15       -0.48      0.71 o 
   0  -3  12       31.08       29.45      1.91 o 
   1  -3  12        1.76        0.81      0.75 o 
   2  -3  12      352.51      359.83      6.62 o 
   3  -3  12        9.78        7.68      1.26 o 
   4  -3  12       33.97       37.89      3.62 o 
   5  -3  12       15.08       11.01      3.61 o 
  -6  -2  12        0.13        5.22      1.65 o 
  -5  -2  12        7.79       10.30      1.55 o 
  -4  -2  12      225.39      233.47      4.53 o 
  -3  -2  12      114.56      120.49      3.30 o 
  -2  -2  12       56.14       48.79      2.65 o 
  -1  -2  12       69.79       65.60      3.13 o 
   0  -2  12       57.84       50.01      2.35 o 
   1  -2  12      291.21      289.51      5.71 o 
   2  -2  12        1.05        0.28      0.82 o 
   3  -2  12        0.05        0.40      0.89 o 
   4  -2  12        1.99        0.36      1.16 o 
   5  -2  12        0.06       -1.85      2.23 o 
  -6  -1  12        5.17        6.00      1.70 o 
  -5  -1  12        1.67        3.13      0.95 o 
  -4  -1  12       52.82       48.03      3.42 o 
  -3  -1  12       53.17       54.12      2.22 o 
  -2  -1  12       29.33       25.67      1.52 o 
  -1  -1  12      208.25      200.86      3.71 o 
   0  -1  12       90.47       83.83      3.08 o 
   1  -1  12      166.26      169.07      4.55 o 
   2  -1  12       39.07       40.85      2.21 o 
   3  -1  12        8.06        6.75      1.09 o 
   4  -1  12        9.49        6.77      1.53 o 
  -6   0  12        2.64        2.71      1.17 o 
  -5   0  12      193.23      196.75      4.20 o 
  -4   0  12      238.45      233.42      4.18 o 
  -3   0  12      173.04      172.38      2.98 o 
  -2   0  12       32.23       32.65      2.03 o 
  -1   0  12       54.56       52.25      3.44 o 
   0   0  12      150.71      154.40      3.61 o 
   1   0  12       58.41       60.20      2.44 o 
   2   0  12       12.68        9.92      1.13 o 
   3   0  12       11.43       14.48      1.67 o 
   4   0  12       13.59       20.52      2.21 o 
  -6   1  12       51.73       55.53      3.06 o 
  -5   1  12        2.82        4.02      0.81 o 
  -4   1  12      100.52       99.03      2.89 o 
  -3   1  12       24.81       23.73      1.21 o 
  -2   1  12        1.58       -0.94      0.94 o 
  -1   1  12       47.11       46.59      3.48 o 
   0   1  12       73.96       90.23      3.90 o 
   1   1  12        1.48        1.10      0.76 o 
   2   1  12        0.93       -0.41      0.85 o 
   3   1  12       21.17       18.89      1.98 o 
  -6   2  12        1.08        0.88      1.09 o 
  -5   2  12       33.84       34.50      2.87 o 
  -4   2  12        0.77        1.69      1.06 o 
  -3   2  12       90.23       89.79      5.00 o 
  -2   2  12       11.23       14.64      2.03 o 
  -1   2  12        0.00       -0.69      0.98 o 
   0   2  12       30.86       32.39      3.33 o 
   1   2  12       10.67       11.74      2.00 o 
   2   2  12        6.86        4.15      1.65 o 
   3   2  12        0.05        1.82      1.50 o 
  -6   3  12       21.98       18.15      1.94 o 
  -5   3  12      136.23      137.86      6.31 o 
  -4   3  12        2.90        1.07      1.68 o 
  -3   3  12        3.79        3.56      1.23 o 
  -2   3  12        5.79        7.54      1.94 o 
  -1   3  12       34.05       34.12      2.64 o 
   0   3  12       19.16       20.61      2.57 o 
   1   3  12       15.36       18.02      3.38 o 
   2   3  12        0.04       -0.67      4.59 o 
  -5   4  12        0.05       -1.74      1.82 o 
  -4   4  12       14.50        7.86      2.18 o 
  -3   4  12       84.13       96.83      7.32 o 
  -2   4  12       38.44       44.34      3.77 o 
  -1   4  12       50.58       35.47      4.33 o 
   0   4  12        5.58        9.79      3.95 o 
   1   4  12       46.12       48.47      8.90 o 
  -4   5  12       24.62       26.83      7.21 o 
  -3   5  12       20.22       22.85      4.06 o 
  -2   5  12        3.96        7.37      4.14 o 
  -1   5  12      144.18      182.62     25.05 o 
   0  -8  13      161.82      180.02      9.19 o 
   1  -8  13        3.50        1.36      2.16 o 
   2  -8  13       15.21       14.75      2.38 o 
  -2  -7  13        0.50        0.92      1.74 o 
  -1  -7  13        3.77        3.48      2.11 o 
   0  -7  13        5.02        5.23      1.45 o 
   1  -7  13       15.08       18.27      2.30 o 
   2  -7  13        7.95        9.92      1.90 o 
   3  -7  13       85.42       87.19      7.48 o 
  -3  -6  13       12.23       11.19      2.10 o 
  -2  -6  13        7.75        6.89      1.80 o 
  -1  -6  13       16.86       21.70      2.51 o 
   0  -6  13       33.72       30.94      2.95 o 
   1  -6  13       17.86       15.79      2.44 o 
   2  -6  13       33.03       37.12      3.17 o 
   3  -6  13       42.14       44.03      3.31 o 
   4  -6  13      126.22      137.08      7.61 o 
  -4  -5  13        3.56        3.15      2.78 o 
  -3  -5  13       11.48        9.50      1.71 o 
  -2  -5  13        9.53        6.39      1.79 o 
  -1  -5  13        3.73        3.80      1.30 o 
   0  -5  13        2.21        2.37      1.18 o 
   1  -5  13        0.14       -0.74      1.17 o 
   2  -5  13       23.98       23.86      2.20 o 
   3  -5  13        6.33        6.12      1.75 o 
   4  -5  13       18.77       17.66      2.61 o 
  -4  -4  13      116.30      134.97      6.78 o 
  -3  -4  13       54.45       57.84      3.52 o 
  -2  -4  13       53.93       55.85      3.49 o 
  -1  -4  13        3.99        3.89      1.19 o 
   0  -4  13       39.98       40.05      2.42 o 
   1  -4  13      131.31      137.77      3.75 o 
   2  -4  13        3.71        3.40      1.15 o 
   3  -4  13       14.74       16.91      2.06 o 
   4  -4  13        0.28        3.23      2.13 o 
  -5  -3  13       43.37       43.09      3.76 o 
  -4  -3  13       46.95       58.15      3.56 o 
  -3  -3  13        0.07        0.24      0.85 o 
  -2  -3  13       62.90       52.52      2.81 o 
  -1  -3  13       97.34       90.54      3.18 o 
   0  -3  13       95.80       85.85      2.91 o 
   1  -3  13       47.75       49.11      2.24 o 
   2  -3  13       13.20       12.57      1.42 o 
   3  -3  13       76.73       82.84      3.58 o 
   4  -3  13       16.72       14.99      2.84 o 
  -5  -2  13       21.76       25.47      2.99 o 
  -4  -2  13        2.62        0.00      0.90 o 
  -3  -2  13       98.25       91.07      3.20 o 
  -2  -2  13      286.00      279.31      5.60 o 
  -1  -2  13       40.39       40.28      2.01 o 
   0  -2  13       56.23       53.45      2.12 o 
   1  -2  13       51.55       48.95      2.38 o 
   2  -2  13       13.38       13.39      2.02 o 
   3  -2  13       81.00      101.36      4.64 o 
   4  -2  13       38.70       42.94      3.99 o 
  -5  -1  13        7.16        5.99      1.25 o 
  -4  -1  13       85.83       83.92      3.24 o 
  -3  -1  13       44.92       40.70      2.35 o 
  -2  -1  13       42.90       40.48      1.97 o 
  -1  -1  13       12.59       10.65      0.87 o 
   0  -1  13       73.72       65.23      2.60 o 
   1  -1  13      131.99      140.04      3.53 o 
   2  -1  13        5.24        6.16      1.15 o 
   3  -1  13        5.04        2.97      1.46 o 
   4  -1  13        8.12        6.59      1.84 o 
  -5   0  13        0.44        1.12      1.01 o 
  -4   0  13        2.78        2.64      0.78 o 
  -3   0  13        7.89        5.13      1.07 o 
  -2   0  13        0.31       -0.68      0.68 o 
  -1   0  13        9.65       10.73      1.32 o 
   0   0  13       17.23       18.69      1.30 o 
   1   0  13       41.61       40.65      2.70 o 
   2   0  13        8.30       11.09      1.18 o 
   3   0  13       12.76       11.37      3.68 o 
  -5   1  13       80.92       72.86      2.92 o 
  -4   1  13       12.59       12.66      1.68 o 
  -3   1  13        0.06        0.72      0.94 o 
  -2   1  13       34.04       36.06      2.90 o 
  -1   1  13        4.20        8.53      1.51 o 
   0   1  13      147.72      148.96      4.85 o 
   1   1  13      118.68      127.80      3.13 o 
   2   1  13        8.82        7.53      1.39 o 
   3   1  13        5.56        1.70      1.90 o 
  -5   2  13        0.07        0.68      1.18 o 
  -4   2  13        3.44        4.71      1.63 o 
  -3   2  13        1.38        2.84      2.04 o 
  -2   2  13        1.49        1.96      1.85 o 
  -1   2  13      262.40      260.88      7.87 o 
   0   2  13        7.75        5.50      2.15 o 
   1   2  13       15.33       17.93      2.76 o 
   2   2  13       32.38       25.19      2.87 o 
  -5   3  13       15.98       17.00      3.32 o 
  -4   3  13        3.30        3.26      2.28 o 
  -3   3  13       23.97       24.69      3.91 o 
  -2   3  13        0.39       -1.42      1.92 o 
  -1   3  13       14.58       17.80      4.68 o 
   0   3  13      150.59      179.83     11.36 o 
   1   3  13       76.70       76.55      8.62 o 
  -4   4  13        0.00        1.61      3.38 o 
  -3   4  13       25.82       26.72      7.15 o 
  -2   4  13        0.86        1.55      3.60 o 
  -1   4  13        2.58        7.15      4.27 o 
   0  -7  14       27.26       30.74      4.81 o 
   1  -7  14        0.01       -0.10      1.83 o 
   2  -7  14        8.11        2.81      3.08 o 
  -2  -6  14       59.24       48.94      4.97 o 
  -1  -6  14       18.19       22.37      3.77 o 
   0  -6  14        0.34        1.27      1.40 o 
   1  -6  14       23.26       24.83      2.57 o 
   2  -6  14      106.79      122.68      6.69 o 
   3  -6  14        0.62       -0.01      1.73 o 
  -3  -5  14      101.19      113.59      6.91 o 
  -2  -5  14        1.32        1.35      1.69 o 
  -1  -5  14        0.77       -1.50      1.50 o 
   0  -5  14       32.88       31.38      2.72 o 
   1  -5  14        0.81       -1.21      1.21 o 
   2  -5  14      109.71      114.92      4.66 o 
   3  -5  14        0.89        2.19      1.85 o 
  -3  -4  14       59.24       50.88      7.11 o 
  -2  -4  14      113.12      115.28      5.32 o 
  -1  -4  14      132.52      120.47      4.70 o 
   0  -4  14       30.82       23.92      2.86 o 
   1  -4  14       43.60       39.79      3.71 o 
   2  -4  14        6.35       10.38      1.62 o 
   3  -4  14        5.65        9.80      1.67 o 
  -4  -3  14        7.61       12.05      3.65 o 
  -3  -3  14      152.94      154.86      5.30 o 
  -2  -3  14        1.06        3.10      1.20 o 
  -1  -3  14       27.08       27.45      1.96 o 
   0  -3  14        0.48       -0.66      0.93 o 
   1  -3  14       23.10       27.20      2.32 o 
   2  -3  14        0.06       -1.26      1.26 o 
   3  -3  14        0.19       -0.23      1.20 o 
  -4  -2  14        4.97        3.26      1.70 o 
  -3  -2  14       23.96       26.95      2.83 o 
  -2  -2  14       65.83       57.17      2.54 o 
  -1  -2  14       20.19       18.63      1.92 o 
   0  -2  14        0.00        0.14      0.89 o 
   1  -2  14        1.96        1.94      0.98 o 
   2  -2  14        2.93        0.01      2.39 o 
   3  -2  14        7.24        9.51      1.96 o 
  -5  -1  14       12.37       10.05      1.77 o 
  -4  -1  14       30.52       30.50      2.31 o 
  -3  -1  14       38.74       39.45      3.60 o 
  -2  -1  14        2.20       -0.11      1.00 o 
  -1  -1  14       53.91       51.62      2.81 o 
   0  -1  14       11.86       10.52      1.36 o 
   1  -1  14        7.80        7.34      1.65 o 
   2  -1  14        9.60       12.79      1.60 o 
   3  -1  14        3.98        5.09      2.34 o 
  -5   0  14       64.46       69.53      3.23 o 
  -4   0  14       12.44       11.34      1.54 o 
  -3   0  14        0.49        0.40      1.02 o 
  -2   0  14        4.59        5.62      1.30 o 
  -1   0  14       42.43       43.68      5.09 o 
   0   0  14      324.08      318.17     11.27 o 
   1   0  14        3.55        5.16      2.10 o 
   2   0  14       34.18       42.24      3.61 o 
  -5   1  14       22.91       20.54      3.30 o 
  -4   1  14        0.05        0.39      2.38 o 
  -3   1  14       15.50       19.53      2.95 o 
  -2   1  14        4.75        9.62      2.94 o 
  -1   1  14       58.76       52.18      6.39 o 
   0   1  14       13.14       13.76      2.15 o 
   1   1  14      168.64      178.76      7.12 o 
  -4   2  14        7.08        6.49      2.58 o 
  -3   2  14        2.29        2.15      2.11 o 
  -2   2  14        6.99        8.72      2.89 o 
  -1   2  14        5.56       -0.03      1.73 o 
   0   2  14      111.36      114.95      7.30 o 
   1   2  14       34.51       42.32      5.47 o 
  -3   3  14       36.76       30.38      7.04 o 
  -2   3  14       37.02       43.12      8.26 o 
  -1   3  14      144.07      145.61     13.03 o 
  -1  -5  15       10.25        8.29      2.28 o 
   0  -5  15       11.13        9.69      1.96 o 
   1  -5  15        0.54        1.47      2.15 o 
   2  -5  15       54.25       62.42      4.07 o 
  -2  -4  15        4.09        2.21      1.84 o 
  -1  -4  15       37.19       32.60      3.68 o 
   0  -4  15        5.21        6.60      1.52 o 
   1  -4  15       10.50        8.56      1.91 o 
   2  -4  15       17.61       12.74      2.43 o 
  -3  -3  15       58.72       60.14      3.98 o 
  -2  -3  15        7.96        8.11      1.92 o 
  -1  -3  15        1.49        1.68      2.18 o 
   0  -3  15       64.62       63.15      4.05 o 
   1  -3  15        0.94        1.50      1.59 o 
   2  -3  15       15.41       16.66      2.47 o 
  -3  -2  15       16.65       11.82      2.28 o 
  -2  -2  15        5.71        5.35      1.35 o 
  -1  -2  15        9.87       10.94      1.16 o 
   0  -2  15        0.08        0.74      1.08 o 
   1  -2  15       18.83       20.12      2.60 o 
   2  -2  15       29.52       33.88      3.11 o 
  -4  -1  15        0.35        5.68      3.66 o 
  -3  -1  15       16.76       19.73      2.29 o 
  -2  -1  15       11.97        9.20      1.52 o 
  -1  -1  15       24.77       27.55      2.16 o 
   0  -1  15       13.18       12.25      1.60 o 
   1  -1  15       33.56       36.87      3.35 o 
  -3   0  15       50.40       47.39      9.92 o 
  -2   0  15        0.58        4.35      2.34 o 
  -1   0  15        2.26        4.95      2.72 o 
   0   0  15       22.53       56.09     11.25 o 
   1   0  15       58.15       68.96      9.14 o 
  -3   1  15       17.15       16.31      3.54 o 
  -2   1  15        0.09        0.71      3.00 o 
  -1   1  15       55.88       52.70      4.25 o 
   0   1  15      144.02      123.61     15.69 o 
  -1  -3  16        0.18       -2.80      2.80 o 
  -1  -2  16        3.21       -2.07      2.07 o 
;
loop_
_symmetry_equiv_pos_as_xyz
'x, y, z'
'-x, -y, -z'
loop_
_atom_site_label
_atom_site_type_symbol
_atom_site_fract_x
_atom_site_fract_y
_atom_site_fract_z
_atom_site_U_iso_or_equiv
_atom_site_adp_type
_atom_site_occupancy
_atom_site_symmetry_multiplicity
_atom_site_calc_flag
_atom_site_refinement_flags
_atom_site_disorder_assembly
_atom_site_disorder_group
O1 O -0.77000(14) 0.11995(12) 0.48689(7) 0.0167(2) Uani 1 1 d . . .
N1 N -0.90388(16) -0.01038(13) 0.39078(8) 0.0139(2) Uani 1 1 d . . .
C1 C -0.82338(18) -0.00924(15) 0.29783(10) 0.0125(2) Uani 1 1 d . . .
O2 O -1.22465(14) -0.37145(12) 0.00553(8) 0.0209(2) Uani 1 1 d . . .
N2 N -0.95523(16) -0.10872(14) 0.19504(8) 0.0142(2) Uani 1 1 d . . .
C2 C -0.60663(19) 0.10006(15) 0.29035(10) 0.0131(2) Uani 1 1 d . . .
O3 O -0.01270(14) 0.43880(12) 0.27721(7) 0.0173(2) Uani 1 1 d . . .
C3 C -0.43359(19) 0.11000(16) 0.36575(10) 0.0140(2) Uani 1 1 d . . .
H3 H -0.453(2) 0.036(2) 0.4192(13) 0.020(4) Uiso 1 1 d . . .
C4 C -0.23219(19) 0.21925(16) 0.36297(10) 0.0144(2) Uani 1 1 d . . .
H4 H -0.114(3) 0.223(2) 0.4158(13) 0.020(4) Uiso 1 1 d . . .
C5 C -0.20230(19) 0.32191(15) 0.28387(10) 0.0139(2) Uani 1 1 d . . .
C6 C -0.3730(2) 0.30941(16) 0.20500(10) 0.0159(3) Uani 1 1 d . . .
H6 H -0.347(2) 0.382(2) 0.1480(13) 0.019(4) Uiso 1 1 d . . .
C7 C -0.57284(19) 0.19970(16) 0.20867(10) 0.0149(2) Uani 1 1 d . . .
H7 H -0.692(3) 0.194(2) 0.1548(14) 0.022(4) Uiso 1 1 d . . .
C8 C -1.17443(19) -0.20191(17) 0.20257(10) 0.0162(3) Uani 1 1 d . . .
H8B H -1.188(2) -0.300(2) 0.2377(13) 0.017(4) Uiso 1 1 d . . .
H8A H -1.230(3) -0.122(2) 0.2505(14) 0.023(4) Uiso 1 1 d . . .
C9 C -1.3042(2) -0.26593(18) 0.08297(11) 0.0189(3) Uani 1 1 d . . .
H9B H -1.304(2) -0.165(2) 0.0522(13) 0.017(4) Uiso 1 1 d . . .
H9A H -1.452(2) -0.339(2) 0.0842(13) 0.018(4) Uiso 1 1 d . . .
C10 C -1.0117(2) -0.27644(18) -0.00151(11) 0.0190(3) Uani 1 1 d . . .
H10B H -1.007(3) -0.173(2) -0.0330(14) 0.023(4) Uiso 1 1 d . . .
H10A H -0.963(2) -0.353(2) -0.0540(14) 0.021(4) Uiso 1 1 d . . .
C11 C -0.8729(2) -0.21686(17) 0.11477(10) 0.0158(3) Uani 1 1 d . . .
H11B H -0.871(2) -0.317(2) 0.1436(13) 0.019(4) Uiso 1 1 d . . .
H11A H -0.730(2) -0.146(2) 0.1086(13) 0.018(4) Uiso 1 1 d . . .
C12 C 0.1659(2) 0.45750(17) 0.35872(11) 0.0172(3) Uani 1 1 d . . .
H12B H 0.187(2) 0.346(2) 0.3497(13) 0.016(4) Uiso 1 1 d . . .
H12A H 0.135(2) 0.4923(19) 0.4383(13) 0.017(4) Uiso 1 1 d . . .
C13 C 0.3530(2) 0.59394(18) 0.33530(12) 0.0231(3) Uani 1 1 d . . .
H13A H 0.3725 0.5597 0.2557 0.035 Uiso 1 1 calc R . .
H13B H 0.4788 0.6068 0.3875 0.035 Uiso 1 1 calc R . .
H13C H 0.3295 0.7043 0.3475 0.035 Uiso 1 1 calc R . .
H1O H -0.854(3) 0.103(3) 0.5396(17) 0.042(5) Uiso 1 1 d . . .
loop_
_atom_site_aniso_label
_atom_site_aniso_U_11
_atom_site_aniso_U_22
_atom_site_aniso_U_33
_atom_site_aniso_U_23
_atom_site_aniso_U_13
_atom_site_aniso_U_12
O1 0.0141(4) 0.0197(5) 0.0106(4) 0.0000(3) 0.0018(3) 0.0004(4)
N1 0.0133(5) 0.0147(5) 0.0112(5) 0.0013(4) 0.0002(4) 0.0030(4)
C1 0.0118(6) 0.0130(5) 0.0130(5) 0.0037(4) 0.0019(4) 0.0042(4)
O2 0.0167(5) 0.0211(5) 0.0168(4) -0.0021(4) 0.0018(3) 0.0003(4)
N2 0.0120(5) 0.0164(5) 0.0117(5) 0.0012(4) 0.0022(4) 0.0029(4)
C2 0.0127(6) 0.0130(5) 0.0123(5) 0.0015(4) 0.0034(4) 0.0034(4)
O3 0.0115(4) 0.0189(5) 0.0182(4) 0.0069(4) 0.0016(3) -0.0003(4)
C3 0.0145(6) 0.0149(6) 0.0131(5) 0.0043(4) 0.0034(4) 0.0050(5)
C4 0.0133(6) 0.0172(6) 0.0125(5) 0.0027(4) 0.0016(4) 0.0059(5)
C5 0.0122(6) 0.0132(6) 0.0143(6) 0.0013(4) 0.0037(4) 0.0026(5)
C6 0.0167(6) 0.0168(6) 0.0140(6) 0.0061(5) 0.0031(4) 0.0042(5)
C7 0.0137(6) 0.0171(6) 0.0128(5) 0.0034(5) 0.0011(4) 0.0045(5)
C8 0.0117(6) 0.0184(6) 0.0147(6) 0.0025(5) 0.0030(4) 0.0011(5)
C9 0.0138(6) 0.0227(7) 0.0160(6) 0.0012(5) 0.0015(5) 0.0030(5)
C10 0.0168(6) 0.0212(7) 0.0140(6) 0.0003(5) 0.0029(5) 0.0025(5)
C11 0.0145(6) 0.0171(6) 0.0140(6) 0.0005(5) 0.0030(4) 0.0051(5)
C12 0.0128(6) 0.0193(6) 0.0172(6) 0.0030(5) 0.0009(4) 0.0037(5)
C13 0.0150(6) 0.0213(7) 0.0282(7) 0.0066(5) 0.0014(5) 0.0002(5)
loop_
_atom_type_symbol
_atom_type_description
_atom_type_scat_dispersion_real
_atom_type_scat_dispersion_imag
_atom_type_scat_source
C C 0.0033 0.0016 'International Tables Vol C Tables 4.2.6.8 and 6.1.1.4'
H H 0.0000 0.0000 'International Tables Vol C Tables 4.2.6.8 and 6.1.1.4'
N N 0.0061 0.0033 'International Tables Vol C Tables 4.2.6.8 and 6.1.1.4'
O O 0.0106 0.0060 'International Tables Vol C Tables 4.2.6.8 and 6.1.1.4'
loop_
_geom_angle_atom_site_label_1
_geom_angle_atom_site_label_2
_geom_angle_atom_site_label_3
_geom_angle
_geom_angle_site_symmetry_1
_geom_angle_site_symmetry_3
_geom_angle_publ_flag
N1 O1 H1O 99.3(12) . . ?
C1 N1 O1 112.69(10) . . ?
N1 C1 N2 117.31(10) . . ?
N1 C1 C2 125.22(10) . . ?
N2 C1 C2 117.29(10) . . ?
C9 O2 C10 109.87(10) . . ?
C1 N2 C8 116.68(9) . . ?
C1 N2 C11 117.40(10) . . ?
C8 N2 C11 111.24(10) . . ?
C3 C2 C7 118.41(11) . . ?
C3 C2 C1 121.27(11) . . ?
C7 C2 C1 120.29(11) . . ?
C5 O3 C12 117.35(10) . . ?
C4 C3 C2 121.35(11) . . ?
C4 C3 H3 119.3(9) . . ?
C2 C3 H3 119.3(9) . . ?
C3 C4 C5 119.49(11) . . ?
C3 C4 H4 119.9(9) . . ?
C5 C4 H4 120.7(9) . . ?
O3 C5 C4 124.17(11) . . ?
O3 C5 C6 115.88(11) . . ?
C4 C5 C6 119.94(11) . . ?
C7 C6 C5 119.87(11) . . ?
C7 C6 H6 121.8(9) . . ?
C5 C6 H6 118.3(9) . . ?
C6 C7 C2 120.85(11) . . ?
C6 C7 H7 119.6(10) . . ?
C2 C7 H7 119.5(10) . . ?
N2 C8 C9 109.17(10) . . ?
N2 C8 H8B 111.9(9) . . ?
C9 C8 H8B 109.6(9) . . ?
N2 C8 H8A 109.2(9) . . ?
C9 C8 H8A 108.8(9) . . ?
H8B C8 H8A 108.1(13) . . ?
O2 C9 C8 112.43(11) . . ?
O2 C9 H9B 108.7(9) . . ?
C8 C9 H9B 109.0(9) . . ?
O2 C9 H9A 105.9(9) . . ?
C8 C9 H9A 111.2(9) . . ?
H9B C9 H9A 109.6(12) . . ?
O2 C10 C11 111.38(10) . . ?
O2 C10 H10B 109.3(9) . . ?
C11 C10 H10B 109.6(9) . . ?
O2 C10 H10A 107.2(9) . . ?
C11 C10 H10A 109.7(9) . . ?
H10B C10 H10A 109.6(13) . . ?
N2 C11 C10 109.18(10) . . ?
N2 C11 H11B 109.9(9) . . ?
C10 C11 H11B 109.7(9) . . ?
N2 C11 H11A 108.1(9) . . ?
C10 C11 H11A 109.8(9) . . ?
H11B C11 H11A 110.1(13) . . ?
O3 C12 C13 107.31(11) . . ?
O3 C12 H12B 109.3(9) . . ?
C13 C12 H12B 111.5(9) . . ?
O3 C12 H12A 108.0(9) . . ?
C13 C12 H12A 111.8(9) . . ?
H12B C12 H12A 108.9(12) . . ?
C12 C13 H13A 109.5 . . ?
C12 C13 H13B 109.5 . . ?
H13A C13 H13B 109.5 . . ?
C12 C13 H13C 109.5 . . ?
H13A C13 H13C 109.5 . . ?
H13B C13 H13C 109.5 . . ?
loop_
_geom_bond_atom_site_label_1
_geom_bond_atom_site_label_2
_geom_bond_distance
_geom_bond_site_symmetry_2
_geom_bond_publ_flag
O1 N1 1.4276(13) . ?
O1 H1O 0.89(2) . ?
N1 C1 1.2904(15) . ?
C1 N2 1.3951(15) . ?
C1 C2 1.4864(16) . ?
O2 C9 1.4280(16) . ?
O2 C10 1.4309(15) . ?
N2 C8 1.4652(15) . ?
N2 C11 1.4731(15) . ?
C2 C3 1.3930(17) . ?
C2 C7 1.3999(17) . ?
O3 C5 1.3661(14) . ?
O3 C12 1.4402(15) . ?
C3 C4 1.3894(17) . ?
C3 H3 0.966(16) . ?
C4 C5 1.3915(17) . ?
C4 H4 0.972(16) . ?
C5 C6 1.3977(17) . ?
C6 C7 1.3850(17) . ?
C6 H6 0.995(16) . ?
C7 H7 0.976(16) . ?
C8 C9 1.5182(17) . ?
C8 H8B 0.984(16) . ?
C8 H8A 0.992(17) . ?
C9 H9B 0.994(16) . ?
C9 H9A 0.996(16) . ?
C10 C11 1.5124(17) . ?
C10 H10B 1.008(17) . ?
C10 H10A 0.975(16) . ?
C11 H11B 0.978(16) . ?
C11 H11A 0.983(16) . ?
C12 C13 1.5037(18) . ?
C12 H12B 0.986(15) . ?
C12 H12A 1.009(15) . ?
C13 H13A 0.9800 . ?
C13 H13B 0.9800 . ?
C13 H13C 0.9800 . ?
loop_
_geom_hbond_atom_site_label_D
_geom_hbond_atom_site_label_H
_geom_hbond_atom_site_label_A
_geom_hbond_distance_DH
_geom_hbond_distance_HA
_geom_hbond_distance_DA
_geom_hbond_angle_DHA
_geom_hbond_site_symmetry_A
O1 H1O N1 0.89(2) 1.93(2) 2.7838(14) 160.8(18) 2_356
O1 H1O O1 0.89(2) 2.59(2) 3.2118(18) 127.9(15) 2_356
loop_
_geom_torsion_atom_site_label_1
_geom_torsion_atom_site_label_2
_geom_torsion_atom_site_label_3
_geom_torsion_atom_site_label_4
_geom_torsion
_geom_torsion_site_symmetry_1
_geom_torsion_site_symmetry_2
_geom_torsion_site_symmetry_3
_geom_torsion_site_symmetry_4
_geom_torsion_publ_flag
O1 N1 C1 N2 -168.45(10) . . . . ?
O1 N1 C1 C2 6.45(17) . . . . ?
N1 C1 N2 C8 1.40(16) . . . . ?
C2 C1 N2 C8 -173.92(10) . . . . ?
N1 C1 N2 C11 -134.43(12) . . . . ?
C2 C1 N2 C11 50.26(15) . . . . ?
N1 C1 C2 C3 48.47(18) . . . . ?
N2 C1 C2 C3 -136.62(12) . . . . ?
N1 C1 C2 C7 -129.70(13) . . . . ?
N2 C1 C2 C7 45.20(16) . . . . ?
C7 C2 C3 C4 1.76(18) . . . . ?
C1 C2 C3 C4 -176.45(11) . . . . ?
C2 C3 C4 C5 0.44(18) . . . . ?
C12 O3 C5 C4 -0.88(17) . . . . ?
C12 O3 C5 C6 178.80(10) . . . . ?
C3 C4 C5 O3 177.10(11) . . . . ?
C3 C4 C5 C6 -2.58(18) . . . . ?
O3 C5 C6 C7 -177.22(11) . . . . ?
C4 C5 C6 C7 2.48(18) . . . . ?
C5 C6 C7 C2 -0.24(19) . . . . ?
C3 C2 C7 C6 -1.86(18) . . . . ?
C1 C2 C7 C6 176.37(11) . . . . ?
C1 N2 C8 C9 166.40(11) . . . . ?
C11 N2 C8 C9 -55.19(14) . . . . ?
C10 O2 C9 C8 -58.24(14) . . . . ?
N2 C8 C9 O2 56.27(14) . . . . ?
C9 O2 C10 C11 59.06(14) . . . . ?
C1 N2 C11 C10 -165.36(11) . . . . ?
C8 N2 C11 C10 56.56(13) . . . . ?
O2 C10 C11 N2 -58.27(14) . . . . ?
C5 O3 C12 C13 -179.15(10) . . . . ?
