#------------------------------------------------------------------------------
#$Date: 2019-11-23 20:06:50 +0200 (Sat, 23 Nov 2019) $
#$Revision: 234775 $
#$URL: file:///home/coder/svn-repositories/cod/cif/7/05/90/7059091.cif $
#------------------------------------------------------------------------------
#
# This file is available in the Crystallography Open Database (COD),
# http://www.crystallography.net/
#
# All data on this site have been placed in the public domain by the
# contributors.
#
data_7059091
loop_
_publ_author_name
'Torubaev, Yury V.'
'Skabitskiy, Ivan V.'
'Pavlova, Alina V.'
'Pasynskii, Alexander A.'
_publ_section_title
;
 First structural evidence of a Se--Br--Br halogen-bonded molecular
 complex
;
_journal_issue                   9
_journal_name_full               'New Journal of Chemistry'
_journal_page_first              3606
_journal_paper_doi               10.1039/C6NJ04096A
_journal_volume                  41
_journal_year                    2017
_chemical_formula_moiety         'C8 H12 Br4 Se'
_chemical_formula_sum            'C8 H12 Br4 Se'
_chemical_formula_weight         506.76
_chemical_name_systematic
'2,6-dibromo-9-selenabicyclo[3.3.1]nonane dibromine'
_space_group_crystal_system      triclinic
_space_group_IT_number           2
_space_group_name_Hall           '-P 1'
_space_group_name_H-M_alt        'P -1'
_symmetry_Int_Tables_number      2
_atom_sites_solution_primary     iterative
_audit_creation_date             2016-12-27
_audit_creation_method
;
Olex2 1.2
(compiled 2016.11.07 svn.r3352 for OlexSys, GUI svn.r5261)
;
_audit_update_record
;
2016-12-27 deposited with the CCDC.
2017-03-29 downloaded from the CCDC.
;
_cell_angle_alpha                77.095(3)
_cell_angle_beta                 84.024(3)
_cell_angle_gamma                79.049(3)
_cell_formula_units_Z            2
_cell_length_a                   7.5472(14)
_cell_length_b                   7.8647(15)
_cell_length_c                   11.259(2)
_cell_measurement_reflns_used    2845
_cell_measurement_temperature    296(2)
_cell_measurement_theta_max      27.863
_cell_measurement_theta_min      2.697
_cell_volume                     638.2(2)
_computing_cell_refinement       'SAINT v7.60A (Bruker, 2009)'
_computing_data_reduction        'SAINT v7.60A (Bruker, 2009)'
_computing_molecular_graphics    'Olex2 (Dolomanov et al., 2009)'
_computing_publication_material  'Olex2 (Dolomanov et al., 2009)'
_computing_structure_refinement  'olex2.refine (Bourhis et al., 2015)'
_computing_structure_solution    'olex2.solve (Bourhis et al., 2015)'
_diffrn_ambient_temperature      296.15
_diffrn_measured_fraction_theta_full 0.9796
_diffrn_measured_fraction_theta_max 0.9796
_diffrn_measurement_device_type  'Bruker APEX-II CCD'
_diffrn_measurement_method       '\w scans'
_diffrn_radiation_monochromator  graphite
_diffrn_radiation_type           'Mo K\a'
_diffrn_radiation_wavelength     0.71073
_diffrn_reflns_av_R_equivalents  0.0468
_diffrn_reflns_av_unetI/netI     0.0670
_diffrn_reflns_limit_h_max       10
_diffrn_reflns_limit_h_min       -10
_diffrn_reflns_limit_k_max       10
_diffrn_reflns_limit_k_min       -10
_diffrn_reflns_limit_l_max       15
_diffrn_reflns_limit_l_min       -15
_diffrn_reflns_number            9185
_diffrn_reflns_theta_full        24.9996
_diffrn_reflns_theta_max         25.00
_diffrn_reflns_theta_min         2.70
_diffrn_standards_number         0
_exptl_absorpt_coefficient_mu    15.420
_exptl_absorpt_correction_T_max  0.8015
_exptl_absorpt_correction_T_min  0.1974
_exptl_absorpt_correction_type   multi-scan
_exptl_absorpt_process_details
;
SADABS-2008/1 (Bruker,2008) was used for absorption correction.
wR2(int) was 0.1393 before and 0.0529 after correction.
The Ratio of minimum to maximum transmission is 0.2463.
The \l/2 correction factor is Not present.
;
_exptl_crystal_colour            'light yellow'
_exptl_crystal_colour_modifier   light
_exptl_crystal_colour_primary    yellow
_exptl_crystal_density_diffrn    2.6369
_exptl_crystal_density_method    'not measured'
_exptl_crystal_description       prism
_exptl_crystal_F_000             466.2116
_exptl_crystal_size_max          0.3
_exptl_crystal_size_mid          0.2
_exptl_crystal_size_min          0.2
_refine_diff_density_max         2.5313
_refine_diff_density_min         -2.0681
_refine_diff_density_rms         0.4392
_refine_ls_d_res_high            0.8409
_refine_ls_d_res_low             7.5518
_refine_ls_goodness_of_fit_ref   1.2306
_refine_ls_hydrogen_treatment    constr
_refine_ls_matrix_type           full
_refine_ls_number_constraints    20
_refine_ls_number_parameters     117
_refine_ls_number_reflns         2206
_refine_ls_number_restraints     0
_refine_ls_restrained_S_all      1.2306
_refine_ls_R_factor_all          0.1059
_refine_ls_R_factor_gt           0.0843
_refine_ls_shift/su_max          0.0001
_refine_ls_shift/su_mean         0.0000
_refine_ls_structure_factor_coef Fsqd
_refine_ls_weighting_details
'w=1/[\s^2^(Fo^2^)+(0.2P)^2^] where P=(Fo^2^+2Fc^2^)/3'
_refine_ls_weighting_scheme      calc
_refine_ls_wR_factor_gt          0.2644
_refine_ls_wR_factor_ref         0.2999
_reflns_Friedel_coverage         0.0
_reflns_limit_h_max              8
_reflns_limit_h_min              -8
_reflns_limit_k_max              9
_reflns_limit_k_min              -8
_reflns_limit_l_max              13
_reflns_limit_l_min              0
_reflns_number_gt                1707
_reflns_number_total             2206
_reflns_threshold_expression     I>=2u(I)
_iucr_refine_instructions_details
;
TITL 1 in P-1
CELL 0.71073 7.5472 7.8647 11.2588 77.095 84.024 79.049
ZERR 2 0.0014 0.0015 0.0021 0.003 0.003 0.003
LATT 1
SFAC C H Br Se
UNIT 16 24 8 2

L.S. 8
PLAN  20
TEMP 23
ACTA 
FMAP 2
MORE -1
BOND $H
CONF 
OMIT -3 50
OMIT -1 2 15
OMIT -2 1 13
OMIT -3 -2 7
OMIT -3 0 13
OMIT -5 -2 10
OMIT -3 2 12
OMIT -4 -1 9
OMIT -5 0 12
OMIT -3 3 12
OMIT -5 -1 10
OMIT -4 -5 7
OMIT -2 -3 11
OMIT -3 -4 5
OMIT -2 -1 2
OMIT -3 1 11
OMIT -3 0 10
OMIT -5 -3 9
OMIT -4 -3 7
OMIT -2 -2 11
OMIT 1 -2 12
WGHT 0.2 0
FVAR 0.141836
REM <olex2.extras>
REM <HklSrc "%.\\1.hkl">
REM </olex2.extras>

Br1   3     0.09678  0.72868  0.45554  11.00000  0.02820  0.04542  0.04802 =
 -0.01122 -0.01165 -0.00222 
Br2   3     0.14643  0.78288  0.21661  11.00000  0.02955  0.05424  0.04320 =
 -0.01876 -0.00443 -0.00337 
Br3   3     0.52326  0.98159  0.68399  11.00000  0.09415  0.04625  0.06128 =
 -0.01597 -0.00124 -0.03750 
Br4   3     0.32436  0.22655  0.96665  11.00000  0.07066  0.04319  0.05279 =
 0.00025 -0.01355 -0.01623 
Se1   4     0.04508  0.68373  0.68344  11.00000  0.02112  0.06888  0.04283 =
 -0.01076 -0.00324  0.00173 
C1    1     0.20211  0.83477  0.72655  11.00000  0.04224  0.03600  0.03155 =
 -0.01610  0.00549  0.00498 
AFIX 13
H1    2     0.14336  0.95826  0.70112  11.00000 -1.20000 
AFIX 0
C2    1     0.19845  0.79372  0.86288  11.00000  0.04769  0.04066  0.07245 =
 -0.03270  0.00799 -0.00166 
AFIX 23
H2a   2     0.26762  0.87099  0.88715  11.00000 -1.20000 
H2b   2     0.07429  0.82435  0.89377  11.00000 -1.20000 
AFIX 0
C3    1     0.27125  0.60083  0.92754  11.00000  0.02776  0.05385  0.02040 =
 -0.01328  0.00533 -0.01399 
AFIX 23
H3a   2     0.40231  0.58094  0.91804  11.00000 -1.20000 
H3b   2     0.23693  0.58729  1.01415  11.00000 -1.20000 
AFIX 0
C4    1     0.20357  0.45967  0.88009  11.00000  0.03227  0.04898  0.02750 =
 -0.01260 -0.00095 -0.00696 
AFIX 13
H4    2     0.07457  0.46821  0.90559  11.00000 -1.20000 
AFIX 0
C5    1     0.21947  0.46779  0.74679  11.00000  0.02818  0.02869  0.05860 =
 -0.00632 -0.01579 -0.00998 
AFIX 13
H5    2     0.17386  0.36579  0.73267  11.00000 -1.20000 
AFIX 0
C6    1     0.40585  0.47213  0.67716  11.00000  0.04199  0.03176  0.01934 =
 -0.01196  0.00031 -0.00683 
AFIX 23
H6a   2     0.48544  0.36261  0.70886  11.00000 -1.20000 
H6b   2     0.39195  0.47465  0.59207  11.00000 -1.20000 
AFIX 0
C7    1     0.50039  0.62912  0.68299  11.00000  0.02089  0.03997  0.06698 =
 -0.01930 -0.00149 -0.00175 
AFIX 23
H7a   2     0.54122  0.61126  0.76445  11.00000 -1.20000 
H7b   2     0.60657  0.62730  0.62646  11.00000 -1.20000 
AFIX 0
C8    1     0.38146  0.81221  0.65274  11.00000  0.05260  0.02449  0.04026 =
 -0.01103 -0.00167 -0.01087 
AFIX 13
H8    2     0.35874  0.84014  0.56579  11.00000 -1.20000 
AFIX 0
HKLF 4

END
Q1 1 0.208333 0.791667 0.138889 11 0.05 2.53
Q2 1 0 0.666667 0.75 11 0.05 2.43
Q3 1 0.208333 0.208333 1.055556 11 0.05 2.31
Q4 1 0.166667 0.75 0.361111 11 0.05 2.14
Q5 1 0.375 0.25 0.888889 11 0.05 2.04
Q6 1 0.041667 0.708333 0.555556 11 0.05 2
Q7 1 0.416667 0.958333 0.777778 11 0.05 1.75
Q8 1 0.416667 1.041667 0.694444 11 0.05 1.75
Q9 1 0.416667 0.125 1.055556 11 0.05 1.57
Q10 1 0.166667 0.625 0.527778 11 0.05 1.53
Q11 1 0.083333 0.875 0.138889 11 0.05 1.46
Q12 1 0 0.833333 0.361111 11 0.05 1.3
Q13 1 0.625 0.875 0.777778 11 0.05 1.27
Q14 1 0.25 1.083333 0.527778 11 0.05 1.21
Q15 1 -0.125 0.75 0.527778 11 0.05 1.15
Q16 1 -0.083333 0.666667 0.916667 11 0.05 1.14
Q17 1 0.416667 0.208333 1.138889 11 0.05 1.14
Q18 1 0.541667 1 0.583333 11 0.05 1.12
Q19 1 0.125 0.875 0.972222 11 0.05 1.11
Q20 1 0.041667 0.791667 0.472222 11 0.05 1.1

  REM The information below was added by Olex2.
  REM
  REM R1 = 0.0843 for 1707 Fo > 4sig(Fo) and 0.1059 for all 2206 data
  REM 117 parameters refined using 0 restraints
  REM Highest difference peak 2.5313, deepest hole -2.0681
  REM Mean Shift 0.0000, Max Shift 0.0001.
  
  REM +++ Tabular Listing of Refinement Information +++
  REM R1_all = 0.1059
  REM R1_gt = 0.0843
  REM wR_ref = 0.2999
  REM GOOF = 1.2306
  REM Shift_max = 0.0001
  REM Shift_mean = 0.0000
  REM Reflections_all = 2206
  REM Reflections_gt = 1707
  REM Parameters = 117
  REM Hole = -2.0681
  REM Peak = 2.5313
  REM Flack = n/a
  
  
;
_cod_data_source_file            c6nj04096a2.cif
_cod_data_source_block           1
_cod_database_code               7059091
_olex2_refinement_description
;
1. Fixed Uiso
 At 1.2 times of:
  All C(H) groups, All C(H,H) groups
2.a Ternary CH refined with riding coordinates:
 C1(H1), C4(H4), C5(H5), C8(H8)
2.b Secondary CH2 refined with riding coordinates:
 C2(H2a,H2b), C3(H3a,H3b), C6(H6a,H6b), C7(H7a,H7b)
;
_iucr_refine_fcf_details
;
data_1
_computing_structure_refinement   'olex2.refine (Bourhis et al., 2015)'
_shelx_refln_list_code            4
loop_
  _space_group_symop_id
  _space_group_symop_operation_xyz
  1  x,y,z
  2  -x,-y,-z

_space_group_crystal_system       triclinic
_space_group_IT_number            2
_space_group_name_H-M_alt         'P -1'
_space_group_name_Hall            '-P 1'
_symmetry_space_group_name_H-M    'P -1'
_symmetry_space_group_name_Hall   '-P 1'
_symmetry_Int_Tables_number       2
_cell_length_a                    7.5472(14)
_cell_length_b                    7.8647(15)
_cell_length_c                    11.259(2)
_cell_angle_alpha                 77.095(3)
_cell_angle_beta                  84.024(3)
_cell_angle_gamma                 79.049(3)
_cell_volume                      638.2(2)
loop_
  _refln_index_h
  _refln_index_k
  _refln_index_l
  _refln_F_squared_calc
  _refln_F_squared_meas
  _refln_F_squared_sigma
  _refln_F_squared_weight
  _refln_observed_status
-8 -5 1 396.707 382.255 159.066 3.751 o
-8 -4 1 149.727 212.750 135.703 6.024 o
-8 -4 2 22.001 92.457 130.732 6.868 o
-8 -3 1 700.968 603.268 30.483 6.274 o
-8 -3 2 1116.500 1086.850 44.250 2.315 o
-8 -3 3 86.341 85.651 37.177 70.261 o
-8 -2 1 0.406 3.738 20.721 274.651 o
-8 -2 2 262.109 187.684 24.752 41.167 o
-8 -2 3 405.057 434.966 31.394 14.977 o
-8 -2 4 77.874 58.906 42.472 58.720 o
-8 -1 1 15.060 13.152 21.328 254.633 o
-8 -1 2 990.061 785.318 38.506 3.325 o
-8 -1 3 895.977 658.866 38.080 4.191 o
-8 -1 4 17.612 21.627 25.375 179.189 o
-8 0 1 69.801 84.838 22.972 156.927 o
-8 0 2 773.639 703.792 37.720 4.926 o
-8 0 3 971.894 910.973 41.846 3.106 o
-8 0 4 99.300 109.745 25.714 108.829 o
-8 1 1 21.907 46.734 22.625 215.106 o
-8 1 2 245.429 194.224 26.107 42.619 o
-8 1 3 563.373 455.934 31.330 9.736 o
-8 1 4 7.873 22.586 24.315 197.320 o
-8 2 1 11.771 -10.434 23.226 217.650 o
-8 2 2 193.552 142.265 25.809 61.702 o
-7 -6 1 409.548 345.545 34.488 16.341 o
-7 -6 2 153.523 275.880 153.598 4.699 o
-7 -5 1 475.604 480.179 144.153 3.947 o
-7 -5 2 1179.210 1320.740 212.750 1.119 o
-7 -5 3 144.085 287.312 156.580 4.538 o
-7 -5 4 50.926 194.855 158.072 4.648 o
-7 -4 1 597.396 543.510 31.596 8.175 o
-7 -4 2 292.346 297.898 27.919 27.808 o
-7 -4 3 60.123 90.178 24.564 147.403 o
-7 -4 4 26.736 12.591 32.961 106.659 o
-7 -4 5 17.746 23.056 32.148 112.472 o
-7 -3 1 54.458 34.617 19.055 259.413 o
-7 -3 2 4285.280 3971.640 94.207 0.167 o
-7 -3 3 454.094 469.499 28.328 12.768 o
-7 -3 4 3.115 28.629 52.090 43.383 o
-7 -3 5 94.243 155.448 40.272 54.923 o
-7 -3 6 106.072 87.655 52.566 37.294 o
-7 -2 1 86.038 72.118 18.616 192.861 o
-7 -2 2 22.577 12.691 18.923 316.268 o
-7 -2 3 0.332 -21.349 20.355 284.684 o
-7 -2 4 349.588 365.878 28.298 20.189 o
-7 -2 5 13.645 22.493 30.140 128.282 o
-7 -2 6 601.954 717.395 65.586 5.696 o
-7 -1 1 222.540 277.868 96.931 10.065 o
-7 -1 2 3661.570 3136.980 76.778 0.240 o
-7 -1 3 1188.070 1108.360 42.513 2.115 o
-7 -1 4 2.141 -5.444 22.032 242.942 o
-7 -1 5 103.635 173.402 27.003 85.893 o
-7 -1 6 119.670 181.299 29.896 70.200 o
-7 -1 7 32.351 39.766 31.282 114.836 o
-7 0 1 0.058 1.028 18.211 355.635 o
-7 0 2 9.754 13.865 19.333 311.450 o
-7 0 3 1055.290 901.266 38.561 2.822 o
-7 0 4 12.925 41.576 35.458 92.328 o
-7 0 5 222.741 224.628 26.393 43.809 o
-7 0 6 25.458 82.776 27.589 140.316 o
-7 1 1 1379.210 1158.700 40.792 1.688 o
-7 1 2 656.017 500.301 28.035 7.667 o
-7 1 3 2483.110 1809.970 53.856 0.570 o
-7 1 4 433.726 411.244 27.380 14.713 o
-7 1 5 16.122 45.827 37.632 81.725 o
-7 1 6 24.267 49.140 25.090 175.547 o
-7 1 7 64.382 127.253 28.471 107.043 o
-7 2 1 96.933 86.053 20.986 149.557 o
-7 2 2 0.610 48.199 21.319 253.451 o
-7 2 3 1514.990 1238.250 43.923 1.423 o
-7 2 4 157.909 159.136 23.629 75.563 o
-7 2 5 63.063 66.148 22.640 174.258 o
-7 2 6 74.219 79.531 44.522 53.293 o
-7 3 1 219.611 216.539 24.882 46.614 o
-7 3 2 19.559 41.734 21.718 235.546 o
-7 3 3 458.535 439.642 28.664 13.102 o
-7 3 4 272.993 196.707 75.421 14.490 o
-7 3 5 2.906 10.706 22.641 229.552 o
-7 4 1 9.560 32.843 23.897 202.286 o
-7 4 2 115.297 182.247 26.450 80.949 o
-7 4 3 732.350 551.263 32.031 6.179 o
-6 -7 1 115.604 92.625 32.647 76.994 o
-6 -7 2 43.455 82.895 33.459 94.539 o
-6 -6 1 1749.480 1527.900 57.933 1.020 o
-6 -6 2 164.846 107.337 30.256 66.852 o
-6 -6 3 1.551 51.744 67.354 25.923 o
-6 -6 4 218.928 262.955 139.182 5.472 o
-6 -5 1 0.364 0.170 39.272 76.476 o
-6 -5 2 304.764 353.961 23.055 25.325 o
-6 -5 3 689.763 874.884 37.813 4.911 o
-6 -5 4 94.858 130.702 24.440 111.949 o
-6 -5 5 10.477 84.057 25.090 173.837 o
-6 -4 1 316.167 283.929 18.337 28.998 o
-6 -4 2 1001.980 1063.400 36.253 2.735 o
-6 -4 3 1360.700 1438.440 48.027 1.489 o
-6 -4 4 18.535 69.172 22.750 207.752 o
-6 -4 5 49.385 89.794 24.510 155.449 o
-6 -4 6 384.445 431.066 49.654 13.305 o
-6 -4 7 42.537 15.207 77.141 19.673 o
-6 -3 1 309.182 337.140 18.770 26.746 o
-6 -3 2 606.479 602.606 31.605 7.537 o
-6 -3 3 537.593 605.848 34.368 8.584 o
-6 -3 4 114.651 131.807 22.065 110.603 o
-6 -3 5 19.067 62.684 23.220 201.853 o
-6 -3 6 1447.700 1642.850 60.456 1.239 o
-6 -3 7 376.954 470.735 36.555 14.740 o
-6 -2 1 517.863 500.289 24.230 10.652 o
-6 -2 2 557.289 588.625 31.450 8.497 o
-6 -2 3 505.250 537.112 26.697 10.385 o
-6 -2 4 315.596 444.372 27.266 20.042 o
-6 -2 5 408.904 467.506 29.637 14.348 o
-6 -2 6 99.737 137.758 26.376 98.198 o
-6 -2 7 318.472 324.627 152.421 4.314 o
-6 -2 8 74.049 161.054 33.040 77.781 o
-6 -1 1 283.366 267.278 19.176 34.098 o
-6 -1 2 1797.890 1569.030 46.037 0.977 o
-6 -1 3 5317.130 5297.270 117.840 0.103 o
-6 -1 4 505.517 491.026 27.238 10.952 o
-6 -1 5 1028.490 903.735 43.228 2.889 o
-6 -1 6 202.541 172.163 47.762 31.352 o
-6 -1 7 256.798 335.529 33.040 27.455 o
-6 -1 8 246.873 320.649 148.321 4.728 o
-6 0 1 756.144 688.730 29.840 5.261 o
-6 0 2 0.964 19.062 23.708 209.123 o
-6 0 3 1318.840 1070.500 38.688 1.884 o
-6 0 4 0.930 6.687 37.311 84.707 o
-6 0 5 470.046 404.511 27.794 13.391 o
-6 0 6 444.941 436.766 89.201 7.475 o
-6 0 8 476.626 548.623 106.655 5.512 o
-6 1 1 221.867 238.249 19.791 47.970 o
-6 1 2 667.076 708.338 30.560 6.056 o
-6 1 3 3346.500 2879.870 71.213 0.286 o
-6 1 4 1295.020 1132.240 40.449 1.866 o
-6 1 5 453.397 416.935 36.582 12.924 o
-6 1 6 43.093 -3.328 58.546 34.083 o
-6 1 7 329.160 331.055 31.282 22.133 o
-6 1 8 16.711 40.634 108.405 10.016 o
-6 2 1 49.293 60.628 20.617 219.349 o
-6 2 2 131.525 106.421 22.858 104.455 o
-6 2 3 8.972 23.030 29.447 134.865 o
-6 2 4 607.588 495.365 29.378 8.506 o
-6 2 5 127.036 87.407 20.203 127.315 o
-6 2 6 232.024 194.303 84.605 12.984 o
-6 2 8 1243.210 1313.830 92.429 1.622 o
-6 3 1 204.469 220.962 21.858 52.627 o
-6 3 2 75.622 183.920 108.861 9.551 o
-6 3 3 2109.490 1707.650 50.092 0.744 o
-6 3 4 3255.400 2581.020 120.401 0.309 o
-6 3 5 54.649 43.748 20.200 230.309 o
-6 3 6 21.071 11.769 72.913 22.132 o
-6 3 7 64.457 49.260 111.762 9.337 o
-6 4 1 4.090 38.884 28.028 148.282 o
-6 4 2 107.693 149.834 38.480 56.884 o
-6 4 3 58.769 141.478 27.957 109.234 o
-6 4 4 513.191 427.615 30.433 11.427 o
-6 4 5 4.688 -2.219 20.872 270.514 o
-6 4 6 197.335 145.931 81.829 14.753 o
-6 5 1 82.727 103.709 24.253 129.588 o
-6 5 2 135.428 76.323 24.101 105.635 o
-6 5 3 27.149 108.601 28.292 128.431 o
-6 5 4 1095.780 799.735 68.673 2.651 o
-6 5 5 18.789 12.233 22.551 227.004 o
-5 -8 1 71.457 71.783 29.948 107.053 o
-5 -7 1 384.039 356.213 33.761 17.454 o
-5 -7 2 0.073 -5.119 27.059 161.094 o
-5 -7 3 218.730 183.336 31.507 43.595 o
-5 -7 4 59.233 38.555 29.471 120.589 o
-5 -6 1 142.256 93.150 27.053 86.360 o
-5 -6 2 3615.070 3532.610 94.861 0.225 o
-5 -6 3 137.378 77.013 34.672 67.318 o
-5 -6 4 43.666 19.820 20.337 253.861 o
-5 -6 5 21.095 6.263 42.259 65.663 o
-5 -5 1 0.677 -12.974 13.544 642.964 o
-5 -5 2 506.544 659.635 29.513 8.864 o
-5 -5 3 19.409 51.283 17.653 339.225 o
-5 -5 4 323.090 310.687 23.761 25.453 o
-5 -5 5 342.715 324.934 25.149 22.816 o
-5 -5 6 344.943 169.130 27.401 29.265 o
-5 -5 7 732.072 236.859 45.986 7.877 o
-5 -4 1 4.051 0.648 12.520 750.869 o
-5 -4 2 4314.110 4715.000 96.568 0.147 o
-5 -4 3 213.931 281.243 19.302 45.236 o
-5 -4 4 1.268 -11.456 16.925 411.720 o
-5 -4 5 11.479 -0.109 20.572 277.168 o
-5 -4 6 384.398 318.615 29.312 19.290 o
-5 -4 7 2.927 -107.539 23.479 213.901 o
-5 -4 8 18.447 -115.323 26.713 163.899 o
-5 -3 1 8.194 -6.943 11.663 859.566 o
-5 -3 2 98.504 159.155 15.029 149.367 o
-5 -3 3 4488.830 4867.050 100.340 0.137 o
-5 -3 4 242.393 246.086 19.335 42.922 o
-5 -3 5 333.645 487.279 44.137 14.982 o
-5 -3 6 1.483 -17.881 22.857 225.745 o
-5 -3 7 2482.890 2231.890 72.758 0.501 o
-5 -3 8 51.275 -40.264 28.119 140.847 o
-5 -2 1 4205.950 4486.790 91.695 0.158 o
-5 -2 2 4271.860 4401.900 90.758 0.157 o
-5 -2 3 5842.090 5883.310 119.160 0.085 o
-5 -2 4 974.722 1185.300 41.429 2.599 o
-5 -2 5 124.995 144.195 21.357 102.859 o
-5 -2 6 180.984 285.010 30.419 42.341 o
-5 -2 7 128.166 148.948 111.229 9.002 o
-5 -2 8 2.268 -31.316 27.416 156.902 o
-5 -2 9 390.365 254.761 80.786 10.445 o
-5 -1 1 1644.420 1611.480 39.191 1.089 o
-5 -1 2 125.491 142.069 13.078 137.526 o
-5 -1 3 3243.290 3261.760 76.941 0.275 o
-5 -1 4 72.535 72.822 17.000 235.902 o
-5 -1 5 29.347 51.900 18.710 291.632 o
-5 -1 6 73.970 81.112 33.488 87.072 o
-5 -1 7 3052.420 3592.900 98.065 0.276 o
-5 -1 8 185.854 214.839 95.347 11.106 o
-5 -1 9 48.780 -93.230 47.282 51.781 o
-5 0 1 1070.350 1055.660 29.604 2.548 o
-5 0 2 1175.630 1110.890 34.679 2.165 o
-5 0 3 1652.750 1651.160 46.733 1.059 o
-5 0 4 318.020 358.294 21.472 24.293 o
-5 0 5 10.013 21.319 17.405 379.815 o
-5 0 6 66.597 106.918 61.734 28.999 o
-5 0 7 10.242 83.510 24.604 180.506 o
-5 0 8 1670.390 2030.900 67.524 0.888 o
-5 0 9 114.579 103.218 43.274 49.901 o
-5 0 10 33.156 -17.131 37.745 81.670 o
-5 1 1 13.204 29.467 12.843 659.619 o
-5 1 2 378.609 370.570 23.608 18.993 o
-5 1 3 7647.000 7105.950 158.009 0.052 o
-5 1 4 3303.700 3099.690 121.054 0.272 o
-5 1 5 47.718 50.814 17.403 296.416 o
-5 1 6 1048.730 1075.180 43.233 2.531 o
-5 1 7 1050.440 1176.590 51.669 2.340 o
-5 1 8 614.096 869.313 50.302 5.341 o
-5 1 9 303.132 488.639 41.077 16.813 o
-5 1 10 3.305 -33.626 37.792 82.573 o
-5 2 1 465.687 445.854 23.695 13.118 o
-5 2 2 135.277 196.899 17.621 92.028 o
-5 2 3 1549.130 1281.410 39.127 1.359 o
-5 2 4 227.318 271.695 20.787 42.477 o
-5 2 5 81.837 73.981 30.014 102.401 o
-5 2 6 3.794 46.725 19.332 304.909 o
-5 2 7 108.790 179.779 96.464 11.787 o
-5 2 8 1810.690 1891.890 81.078 0.833 o
-5 2 9 0.222 96.390 63.981 28.523 o
-5 2 10 174.274 275.279 44.968 31.438 o
-5 3 1 1016.200 908.768 64.816 2.766 o
-5 3 2 1000.380 846.118 32.547 3.181 o
-5 3 3 1391.690 1306.160 40.128 1.553 o
-5 3 4 1751.010 1434.570 44.991 1.069 o
-5 3 5 710.902 618.865 30.931 6.060 o
-5 3 6 182.061 194.358 22.144 62.853 o
-5 3 7 254.988 207.381 44.616 27.573 o
-5 3 8 283.849 361.154 29.099 25.196 o
-5 3 9 0.041 69.398 56.049 37.290 o
-5 4 1 332.238 345.685 31.450 21.351 o
-5 4 2 160.025 148.799 20.075 85.470 o
-5 4 3 59.779 81.082 18.650 223.920 o
-5 4 4 74.962 69.406 20.664 184.061 o
-5 4 5 32.766 29.128 33.321 102.551 o
-5 4 6 72.759 18.870 83.073 16.799 o
-5 4 7 85.420 69.810 23.498 145.697 o
-5 4 8 1360.740 1137.160 155.906 1.304 o
-5 5 1 191.815 251.556 33.399 40.551 o
-5 5 2 663.168 726.114 69.801 4.999 o
-5 5 3 488.564 405.153 26.164 12.853 o
-5 5 4 1981.890 1735.310 53.075 0.801 o
-5 5 5 894.708 738.164 35.500 3.977 o
-5 5 6 250.712 207.666 104.185 9.011 o
-5 5 7 15.769 38.060 41.058 69.086 o
-5 6 1 247.931 350.766 28.059 29.688 o
-5 6 2 218.825 301.660 26.837 37.451 o
-5 6 3 9.365 -6.715 22.083 241.105 o
-5 6 4 22.970 60.030 24.866 176.509 o
-5 6 5 97.653 29.816 73.463 20.980 o
-4 -8 1 39.082 13.419 25.257 174.690 o
-4 -8 2 224.807 209.288 30.053 41.638 o
-4 -7 1 596.402 635.806 37.772 7.241 o
-4 -7 2 694.681 646.826 36.438 5.971 o
-4 -7 3 937.243 764.621 46.306 3.563 o
-4 -7 4 88.686 82.562 26.050 120.491 o
-4 -7 5 7.845 11.433 59.650 33.119 o
-4 -6 1 129.054 137.422 23.516 94.486 o
-4 -6 2 194.290 124.259 24.638 66.416 o
-4 -6 3 21.704 12.766 19.352 303.575 o
-4 -6 4 4.133 -31.672 16.244 446.513 o
-4 -6 5 11.730 -33.713 33.178 106.913 o
-4 -5 1 1824.560 1977.960 67.064 0.812 o
-4 -5 2 29.495 96.719 26.259 147.931 o
-4 -5 3 104.666 177.437 30.206 74.782 o
-4 -5 4 239.292 202.547 38.170 33.519 o
-4 -5 5 1523.840 1067.730 136.200 1.257 o
-4 -5 6 97.484 -60.810 63.496 28.078 o
-4 -5 8 141.808 68.597 45.694 44.690 o
-4 -4 1 231.445 215.094 13.562 52.966 o
-4 -4 2 4303.580 4766.350 96.954 0.147 o
-4 -4 3 4566.150 4847.810 103.007 0.134 o
-4 -4 4 165.035 174.286 20.567 75.921 o
-4 -4 5 1231.770 760.483 71.106 2.301 o
-4 -4 6 404.676 76.693 67.637 14.627 o
-4 -4 7 155.798 85.809 113.334 8.707 o
-4 -4 8 501.507 141.668 43.936 15.211 o
-4 -4 9 0.880 -166.025 43.233 63.104 o
-4 -3 1 84.536 96.572 11.264 267.753 o
-4 -3 2 361.850 525.104 21.505 15.953 o
-4 -3 3 4880.150 5240.420 106.941 0.117 o
-4 -3 4 14.563 -49.864 44.770 58.735 o
-4 -3 5 62.214 100.822 23.103 155.353 o
-4 -3 6 1577.480 940.644 56.161 1.518 o
-4 -3 9 194.962 -49.708 42.530 47.473 o
-4 -2 1 143.259 179.717 11.254 107.936 o
-4 -2 2 2279.680 2239.600 49.405 0.567 o
-4 -2 3 3249.710 3496.000 73.505 0.262 o
-4 -2 4 1231.500 1479.920 40.484 1.667 o
-4 -2 5 814.851 859.647 33.944 4.111 o
-4 -2 6 1388.460 1263.130 94.890 1.446 o
-4 -2 7 185.242 54.182 26.362 78.819 o
-4 -2 8 92.025 -202.312 97.925 12.110 o
-4 -2 9 141.926 -70.209 55.272 34.557 o
-4 -2 10 226.871 102.473 35.800 44.398 o
-4 -1 1 1660.450 1823.020 41.483 0.989 o
-4 -1 2 350.668 426.814 22.816 19.095 o
-4 -1 3 174.687 200.345 13.369 77.505 o
-4 -1 4 1677.300 1821.690 44.918 0.974 o
-4 -1 5 967.050 1226.970 45.129 2.539 o
-4 -1 6 556.568 683.982 39.718 7.404 o
-4 -1 7 2029.870 2178.700 69.946 0.663 o
-4 -1 8 2168.420 2223.380 205.372 0.505 o
-4 -1 10 77.382 54.077 40.397 64.604 o
-4 0 1 2400.610 2257.070 48.923 0.527 o
-4 0 2 599.864 596.601 21.151 7.976 o
-4 0 3 7867.490 8009.210 167.534 0.047 o
-4 0 4 9210.360 8475.560 253.812 0.036 o
-4 0 5 1810.920 1850.630 52.372 0.868 o
-4 0 6 89.287 86.855 69.158 23.146 o
-4 0 7 134.802 201.813 90.802 12.775 o
-4 0 8 109.487 109.334 26.281 100.835 o
-4 0 9 18.000 -26.391 28.553 143.658 o
-4 0 10 252.943 104.135 131.397 6.234 o
-4 0 11 207.901 -13.918 45.694 41.294 o
-4 1 1 203.452 174.351 23.755 57.094 o
-4 1 2 161.453 207.016 14.502 80.876 o
-4 1 3 54.474 54.878 25.003 158.446 o
-4 1 4 1353.860 1232.450 75.526 1.579 o
-4 1 5 2.149 -1.553 28.251 147.770 o
-4 1 6 34.341 34.796 16.872 355.016 o
-4 1 7 1252.440 1398.250 47.865 1.685 o
-4 1 8 1939.140 2271.170 187.697 0.580 o
-4 1 9 91.388 102.627 30.430 91.575 o
-4 1 10 314.093 245.029 83.178 11.443 o
-4 1 11 197.613 -99.640 167.490 4.103 o
-4 2 1 103.812 112.988 23.418 117.333 o
-4 2 2 338.530 364.631 19.882 22.604 o
-4 2 3 97.975 102.600 19.028 155.564 o
-4 2 4 6619.350 6552.510 147.977 0.067 o
-4 2 5 19.086 23.785 42.782 63.847 o
-4 2 6 424.769 396.352 64.632 10.649 o
-4 2 7 51.648 74.053 20.694 207.646 o
-4 2 8 367.889 571.092 33.289 13.559 o
-4 2 9 426.846 773.163 66.596 7.282 o
-4 2 10 280.621 333.802 71.180 13.672 o
-4 2 11 31.386 -7.363 38.592 78.276 o
-4 3 1 2095.360 2030.290 50.264 0.676 o
-4 3 2 8.048 37.092 20.448 273.857 o
-4 3 3 997.167 941.641 55.143 2.852 o
-4 3 4 6398.010 5950.550 135.675 0.075 o
-4 3 5 1125.780 1125.390 38.312 2.262 o
-4 3 6 2420.810 2325.810 60.729 0.508 o
-4 3 7 8.431 42.242 24.958 184.749 o
-4 3 8 1946.200 2055.430 64.322 0.731 o
-4 3 9 1343.040 1635.890 61.511 1.359 o
-4 3 10 41.531 160.958 35.339 77.930 o
-4 4 1 28.637 18.016 28.986 136.297 o
-4 4 2 291.424 326.723 23.564 27.869 o
-4 4 3 0.455 -5.733 31.220 121.011 o
-4 4 4 3691.310 3328.450 81.194 0.228 o
-4 4 5 16.773 1.241 62.390 30.260 o
-4 4 6 22.339 14.415 35.383 93.057 o
-4 4 7 59.404 83.891 19.858 204.441 o
-4 4 8 225.120 326.749 60.144 18.721 o
-4 4 9 494.613 611.702 122.153 4.483 o
-4 4 10 22.451 72.346 28.014 139.437 o
-4 5 1 61.944 98.999 21.978 167.584 o
-4 5 2 58.628 70.818 17.650 251.642 o
-4 5 3 10.961 13.711 16.647 417.124 o
-4 5 4 769.727 578.104 30.228 5.659 o
-4 5 5 2041.320 1779.550 52.372 0.759 o
-4 5 6 46.744 40.964 18.814 271.590 o
-4 5 7 17.893 0.405 22.283 234.800 o
-4 5 8 151.770 120.132 49.990 35.776 o
-4 5 9 224.206 247.032 53.539 23.515 o
-4 6 1 743.007 700.242 31.993 5.297 o
-4 6 2 4.856 -10.295 18.380 348.705 o
-4 6 3 182.680 202.928 30.551 49.794 o
-4 6 4 235.934 174.487 64.085 19.778 o
-4 6 5 5.029 -37.039 59.110 33.753 o
-4 6 6 32.664 15.757 20.139 271.264 o
-4 6 7 9.752 18.222 20.922 265.611 o
-4 6 8 6.594 64.206 22.328 224.595 o
-4 7 1 84.940 160.060 25.659 103.265 o
-4 7 2 1.599 43.119 25.746 175.418 o
-4 7 3 1.688 12.042 22.115 240.647 o
-4 7 4 185.237 163.938 71.258 18.583 o
-4 7 5 1425.140 1551.880 52.372 1.327 o
-3 -8 1 28.046 24.405 23.802 198.121 o
-3 -8 2 526.429 388.593 77.298 7.755 o
-3 -8 3 9.453 14.912 61.141 31.509 o
-3 -7 1 4.629 23.873 20.472 278.183 o
-3 -7 2 966.351 766.248 42.471 3.451 o
-3 -7 3 22.483 11.199 19.096 311.475 o
-3 -7 4 41.701 36.784 56.667 36.011 o
-3 -7 5 147.112 104.387 34.446 62.318 o
-3 -6 1 168.153 158.600 12.821 94.135 o
-3 -6 2 45.449 4.217 23.488 199.276 o
-3 -6 3 2188.350 1661.510 55.393 0.714 o
-3 -6 4 831.523 458.202 34.295 5.570 o
-3 -6 5 57.398 30.707 24.343 171.762 o
-3 -6 6 32.015 15.099 29.099 134.867 o
-3 -6 7 1328.010 2799.450 98.792 0.830 o
-3 -5 1 1370.610 1215.660 40.035 1.657 o
-3 -5 2 7408.510 6940.240 239.365 0.055 o
-3 -5 3 3528.220 3237.750 169.246 0.236 o
-3 -5 4 85.395 50.631 18.783 206.679 o
-3 -5 5 212.659 96.223 47.712 33.841 o
-3 -5 6 339.097 347.700 58.990 14.459 o
-3 -5 7 42.164 44.163 31.234 112.446 o
-3 -5 8 18.776 -6.399 35.550 92.870 o
-3 -4 1 718.985 782.396 24.889 5.235 o
-3 -4 2 1236.320 1188.190 63.927 1.853 o
-3 -4 3 2257.080 1267.060 43.936 0.784 o
-3 -4 4 187.638 26.641 59.909 27.385 o
-3 -4 6 197.789 213.756 50.223 28.268 o
-3 -4 7 2068.960 2796.360 111.021 0.522 o
-3 -4 8 13.780 14.804 32.574 110.331 o
-3 -4 9 0.894 -19.610 36.073 90.640 o
-3 -3 1 342.690 394.826 35.768 18.243 o
-3 -3 2 695.940 713.629 43.192 5.469 o
-3 -3 3 851.579 789.368 28.717 4.148 o
-3 -3 4 2.083 29.940 14.880 520.534 o
-3 -3 5 957.634 1059.370 109.606 2.297 o
-3 -3 6 113.428 -78.094 73.215 21.103 o
-3 -3 7 4.509 -70.802 32.143 114.123 o
-3 -3 8 2089.880 2956.060 118.000 0.491 o
-3 -3 9 134.758 126.078 34.330 62.937 o
-3 -3 10 1.460 -22.866 44.991 58.270 o
-3 -2 1 0.007 6.322 6.400 2866.790 o
-3 -2 2 65.916 76.804 8.809 435.141 o
-3 -2 3 21039.300 22949.000 440.458 0.006 o
-3 -2 4 937.471 984.428 50.438 3.034 o
-3 -2 5 331.680 326.932 34.080 21.367 o
-3 -2 6 1096.650 688.456 114.328 2.360 o
-3 -2 8 691.203 340.907 31.074 8.327 o
-3 -2 9 176.579 112.234 35.463 53.123 o
-3 -2 10 4.229 -63.129 39.367 76.093 o
-3 -2 11 100.042 142.662 48.154 41.518 o
-3 -1 1 2750.650 3025.400 61.271 0.361 o
-3 -1 2 4.046 13.910 6.614 2570.200 o
-3 -1 3 9293.430 9595.670 187.055 0.033 o
-3 -1 4 214.084 209.318 20.878 52.607 o
-3 -1 5 106.954 132.056 30.157 81.830 o
-3 -1 6 422.935 300.548 47.282 14.604 o
-3 -1 7 241.907 23.703 49.891 32.458 o
-3 -1 8 2034.910 1637.880 137.691 0.720 o
-3 -1 9 263.096 -30.484 164.107 4.188 o
-3 -1 10 24.106 -12.427 104.387 10.814 o
-3 -1 11 99.450 7.456 41.476 61.770 o
-3 0 1 3631.650 3635.340 72.920 0.221 o
-3 0 2 9689.130 10630.200 216.963 0.029 o
-3 0 3 6968.620 6805.670 143.112 0.061 o
-3 0 4 4467.390 4685.030 160.501 0.139 o
-3 0 5 2737.810 3405.000 82.600 0.330 o
-3 0 6 94.370 56.904 16.075 223.992 o
-3 0 7 334.721 229.917 22.633 28.718 o
-3 0 8 263.200 60.305 64.828 20.575 o
-3 0 9 19.413 17.895 114.826 8.936 o
-3 0 11 14.944 64.087 39.158 75.003 o
-3 1 1 1769.900 1646.510 65.596 0.952 o
-3 1 2 960.190 1107.090 30.276 2.832 o
-3 1 3 2.914 2.114 9.058 1432.820 o
-3 1 4 1550.220 1413.700 38.664 1.281 o
-3 1 5 436.079 489.127 25.307 13.288 o
-3 1 6 1108.690 1216.060 37.309 2.193 o
-3 1 7 362.480 422.316 25.125 18.199 o
-3 1 8 8455.620 9312.800 213.705 0.038 o
-3 1 9 738.874 641.233 39.015 5.492 o
-3 1 10 13.334 61.638 105.381 10.588 o
-3 1 12 211.299 150.865 74.575 16.795 o
-3 2 1 358.400 387.624 28.153 18.982 o
-3 2 2 2925.900 2772.250 62.053 0.353 o
-3 2 4 11797.900 11406.500 249.206 0.021 o
-3 2 5 1135.010 988.251 64.192 2.299 o
-3 2 6 1913.900 1962.970 53.075 0.777 o
-3 2 7 1.082 31.685 16.965 402.681 o
-3 2 8 991.389 1157.200 44.991 2.573 o
-3 2 9 12.552 58.841 24.917 180.854 o
-3 2 10 103.022 88.461 38.894 62.137 o
-3 2 11 4.851 -136.815 57.499 35.671 o
-3 3 1 172.947 168.165 12.269 89.018 o
-3 3 2 2094.560 2150.440 49.916 0.651 o
-3 3 3 1781.740 1705.190 40.941 0.943 o
-3 3 4 300.714 325.201 18.287 28.417 o
-3 3 5 57.210 53.975 11.220 468.208 o
-3 3 6 260.133 287.767 44.863 24.000 o
-3 3 7 67.823 70.856 19.982 200.324 o
-3 3 8 3057.890 3086.370 81.545 0.308 o
-3 3 9 286.810 437.093 63.306 13.799 o
-3 3 10 0.092 40.226 28.639 142.542 o
-3 3 11 22.268 21.030 34.002 100.358 o
-3 4 1 5711.300 5378.940 163.071 0.092 o
-3 4 2 800.538 746.298 80.097 3.816 o
-3 4 3 4.193 7.289 17.722 374.266 o
-3 4 4 2070.250 2000.540 48.319 0.694 o
-3 4 5 2590.260 2494.330 57.606 0.445 o
-3 4 6 47.104 69.446 15.688 323.005 o
-3 4 7 2.123 37.066 16.731 410.259 o
-3 4 8 39.610 55.457 18.800 271.737 o
-3 4 9 478.672 724.823 117.299 4.479 o
-3 4 10 6.890 118.671 30.283 118.535 o
-3 4 11 204.444 354.038 39.138 28.637 o
-3 5 1 1866.390 1887.710 66.712 0.814 o
-3 5 2 473.622 397.877 44.565 11.762 o
-3 5 3 168.460 131.438 23.114 78.153 o
-3 5 4 1622.140 1596.120 41.580 1.114 o
-3 5 5 579.680 573.879 27.938 8.346 o
-3 5 6 118.705 140.835 23.588 98.930 o
-3 5 7 832.004 810.738 34.446 4.152 o
-3 5 8 573.178 598.982 33.391 8.049 o
-3 5 9 1473.940 1556.360 52.020 1.270 o
-3 5 10 134.663 276.559 36.832 43.994 o
-3 6 1 1386.660 1330.760 40.815 1.541 o
-3 6 2 0.552 12.711 17.793 371.549 o
-3 6 3 18.468 -3.980 15.241 494.862 o
-3 6 4 790.679 743.493 29.236 4.741 o
-3 6 5 724.090 668.586 39.487 5.493 o
-3 6 6 75.883 40.321 18.812 227.748 o
-3 6 7 54.715 69.328 19.621 223.803 o
-3 6 8 234.536 250.839 55.843 21.754 o
-3 6 9 272.556 300.931 91.551 10.201 o
-3 7 1 102.738 123.495 23.533 113.983 o
-3 7 2 388.748 457.424 72.966 9.746 o
-3 7 3 254.879 192.954 45.176 27.848 o
-3 7 4 39.063 -2.059 25.558 173.365 o
-3 7 5 454.291 451.111 26.981 13.186 o
-3 7 6 637.049 571.935 32.528 7.279 o
-3 7 7 15.393 65.118 144.650 5.626 o
-3 8 1 1303.380 1204.700 45.357 1.770 o
-3 8 2 250.825 335.196 59.694 17.668 o
-3 8 3 167.955 -85.001 122.282 7.632 o
-2 -8 1 613.997 537.282 127.501 3.918 o
-2 -8 2 122.065 130.235 63.626 25.250 o
-2 -8 3 77.989 121.785 70.585 22.149 o
-2 -8 4 4.764 43.246 68.597 25.000 o
-2 -7 1 0.054 -2.798 21.368 258.315 o
-2 -7 2 1987.790 1119.580 47.496 1.003 o
-2 -7 3 681.017 911.638 56.591 4.506 o
-2 -7 4 11.952 28.543 22.067 236.288 o
-2 -7 5 375.045 694.754 38.820 10.936 o
-2 -7 6 380.703 757.109 64.192 8.209 o
-2 -6 1 919.060 729.903 24.314 3.945 o
-2 -6 2 734.839 725.569 52.310 4.883 o
-2 -6 3 1101.770 1331.560 70.209 1.950 o
-2 -6 4 236.248 264.345 46.218 25.927 o
-2 -6 5 14.148 67.714 21.976 225.131 o
-2 -6 6 361.181 789.063 40.649 9.991 o
-2 -6 7 90.464 213.157 36.342 58.653 o
-2 -5 1 360.817 366.737 20.811 20.701 o
-2 -5 2 913.767 804.798 31.463 3.711 o
-2 -5 3 263.918 228.318 20.265 39.957 o
-2 -5 4 1398.260 932.944 36.144 1.869 o
-2 -5 5 148.174 217.268 21.774 71.633 o
-2 -5 6 1885.330 3135.780 156.248 0.499 o
-2 -5 7 12.714 67.878 24.844 179.818 o
-2 -5 8 15.057 28.417 27.960 147.995 o
-2 -5 9 106.362 301.212 44.058 37.865 o
-2 -4 2 1450.030 1427.530 44.034 1.385 o
-2 -4 3 294.790 234.645 28.914 30.594 o
-2 -4 4 244.347 252.257 17.249 43.085 o
-2 -4 5 1893.940 2456.530 61.944 0.666 o
-2 -4 6 65.513 131.835 24.753 128.233 o
-2 -4 7 2433.230 4248.630 194.352 0.290 o
-2 -4 8 917.697 2152.850 72.055 1.554 o
-2 -4 9 17.567 85.249 31.157 113.938 o
-2 -4 10 100.025 264.508 50.600 33.513 o
-2 -3 1 6754.130 3918.480 89.630 0.087 o
-2 -3 2 6935.050 7414.160 308.044 0.056 o
-2 -3 4 7051.510 3509.390 86.818 0.085 o
-2 -3 5 3637.950 3440.600 89.556 0.228 o
-2 -3 6 246.889 311.783 25.509 33.367 o
-2 -3 7 67.155 138.259 37.954 66.610 o
-2 -3 8 314.217 629.801 40.070 13.649 o
-2 -3 9 48.781 138.699 52.252 39.603 o
-2 -3 10 89.603 225.177 39.718 51.186 o
-2 -2 1 19.894 23.877 7.318 1648.000 o
-2 -2 2 104.214 115.504 9.617 211.056 o
-2 -2 3 508.540 557.710 38.528 9.431 o
-2 -2 6 11.980 -35.648 17.291 391.162 o
-2 -2 7 1950.930 2161.780 93.150 0.685 o
-2 -2 8 422.691 260.149 47.031 15.430 o
-2 -2 9 348.432 587.052 41.827 12.996 o
-2 -2 10 112.249 241.062 61.750 24.694 o
-2 -1 1 2812.190 3286.570 65.615 0.330 o
-2 -1 3 359.781 555.352 23.410 15.176 o
-2 -1 4 11566.500 8853.500 199.646 0.026 o
-2 -1 5 21.496 14.697 13.192 624.678 o
-2 -1 6 2058.320 1074.040 173.978 0.786 o
-2 -1 7 354.934 79.182 71.819 14.883 o
-2 -1 8 749.730 539.462 33.427 6.020 o
-2 -1 9 615.764 759.348 39.885 6.141 o
-2 -1 10 781.059 1238.180 72.067 2.945 o
-2 -1 11 1.542 36.784 37.961 81.451 o
-2 -1 12 526.414 1230.770 71.352 4.173 o
-2 0 1 6563.820 7428.720 143.899 0.062 o
-2 0 2 1292.470 1662.780 52.382 1.422 o
-2 0 3 10028.600 10453.400 218.443 0.028 o
-2 0 4 9301.550 10050.500 220.383 0.032 o
-2 0 5 172.776 140.578 16.001 90.289 o
-2 0 6 9517.940 5066.240 122.318 0.045 o
-2 0 7 1855.400 2113.090 163.042 0.665 o
-2 0 8 5373.760 7328.450 440.910 0.072 o
-2 0 9 2440.620 3352.810 240.587 0.328 o
-2 0 10 438.658 277.371 34.094 16.640 o
-2 0 11 2.011 -58.044 29.467 135.826 o
-2 0 12 161.076 311.669 43.585 32.007 o
-2 1 1 1733.750 1854.280 41.325 0.925 o
-2 1 2 126.398 121.964 11.993 153.574 o
-2 1 3 1743.790 1914.750 46.045 0.895 o
-2 1 4 18054.900 17828.800 358.821 0.009 o
-2 1 5 597.868 679.073 22.592 7.311 o
-2 1 6 57.014 50.559 11.635 461.150 o
-2 1 7 757.001 552.492 44.349 5.631 o
-2 1 8 359.005 82.515 24.253 34.324 o
-2 1 9 305.597 778.428 132.223 4.525 o
-2 1 10 273.358 607.432 116.317 6.064 o
-2 1 11 18.859 94.942 88.480 14.917 o
-2 1 12 1079.450 1525.040 72.407 1.799 o
-2 2 1 1271.950 1167.960 36.541 1.885 o
-2 2 2 1196.740 1354.680 32.120 1.858 o
-2 2 3 144.892 153.322 26.411 75.118 o
-2 2 4 3984.860 4509.900 212.085 0.160 o
-2 2 5 10543.500 10619.400 273.162 0.026 o
-2 2 6 306.823 296.827 15.346 30.091 o
-2 2 7 286.650 263.568 50.759 20.732 o
-2 2 8 217.014 192.767 42.446 33.246 o
-2 2 9 625.458 499.069 31.634 8.072 o
-2 2 10 30.429 -76.575 52.132 43.139 o
-2 2 12 10.453 -33.066 63.090 29.618 o
-2 3 1 3732.470 3730.470 145.607 0.204 o
-2 3 2 87.338 58.768 12.308 299.593 o
-2 3 3 3050.100 3352.140 76.196 0.293 o
-2 3 4 1489.650 1637.650 39.466 1.225 o
-2 3 5 10.488 -2.004 9.028 1413.170 o
-2 3 6 960.869 935.614 29.171 3.176 o
-2 3 7 199.966 212.395 40.219 35.916 o
-2 3 8 755.373 955.001 32.906 4.197 o
-2 3 9 3301.280 3595.380 91.739 0.251 o
-2 3 10 299.689 357.337 92.192 9.385 o
-2 3 11 696.311 558.221 40.070 6.369 o
-2 3 12 150.194 -84.239 134.331 6.394 o
-2 4 1 205.598 231.850 12.886 58.861 o
-2 4 2 125.949 107.635 20.371 119.200 o
-2 4 3 297.056 267.588 15.258 33.386 o
-2 4 4 3084.960 3106.410 65.771 0.305 o
-2 4 5 7894.580 8116.420 166.958 0.046 o
-2 4 6 815.393 852.695 77.989 3.521 o
-2 4 7 45.251 51.688 20.733 226.955 o
-2 4 8 368.590 389.220 76.509 10.263 o
-2 4 9 1098.500 1265.570 46.397 2.128 o
-2 4 10 113.509 253.062 35.043 52.367 o
-2 4 11 74.420 124.158 29.378 98.759 o
-2 4 12 67.751 -38.637 66.463 26.217 o
-2 5 1 211.223 197.786 14.503 61.430 o
-2 5 2 614.342 561.383 22.662 7.994 o
-2 5 3 38.971 31.590 11.027 674.272 o
-2 5 4 873.765 809.304 31.067 3.929 o
-2 5 5 574.842 618.648 23.902 8.152 o
-2 5 6 685.506 690.832 46.174 5.610 o
-2 5 7 175.992 221.437 24.609 57.063 o
-2 5 8 2.031 27.253 17.000 402.087 o
-2 5 9 910.361 1071.700 44.991 3.008 o
-2 5 10 598.518 660.620 37.961 7.030 o
-2 5 11 58.381 149.258 28.948 102.341 o
-2 6 1 3183.530 3190.800 73.181 0.287 o
-2 6 2 242.300 240.722 16.901 44.953 o
-2 6 3 521.708 457.515 50.367 9.399 o
-2 6 4 160.909 204.861 16.645 78.116 o
-2 6 5 4504.040 4144.010 86.854 0.152 o
-2 6 6 563.719 520.503 25.631 9.268 o
-2 6 7 300.233 293.112 23.745 28.680 o
-2 6 8 214.131 242.965 49.066 26.746 o
-2 6 9 6.784 66.609 126.258 7.386 o
-2 6 10 142.232 210.762 155.586 4.663 o
-2 7 1 864.496 879.809 33.944 3.756 o
-2 7 2 407.583 430.859 22.809 15.895 o
-2 7 3 202.272 168.460 25.327 56.147 o
-2 7 4 55.873 68.118 15.760 300.776 o
-2 7 5 225.865 196.458 18.256 53.598 o
-2 7 6 202.188 248.845 51.461 25.953 o
-2 7 7 115.722 176.961 128.247 6.862 o
-2 7 8 47.925 31.316 126.755 7.308 o
-2 7 9 628.382 836.089 197.838 2.013 o
-2 8 1 450.017 511.781 27.760 12.249 o
-2 8 2 65.847 35.114 47.577 49.407 o
-2 8 3 89.622 76.927 70.337 22.514 o
-2 8 4 0.399 26.962 50.012 47.093 o
-2 8 5 1003.340 755.887 83.766 2.881 o
-2 8 6 3.473 -3.480 136.200 6.358 o
-1 -8 1 2.219 35.328 63.875 28.859 o
-1 -8 2 1447.910 1635.390 139.182 1.066 o
-1 -8 3 281.299 335.529 76.053 12.589 o
-1 -8 4 26.300 51.696 74.562 21.033 o
-1 -7 1 22.217 38.121 18.089 329.922 o
-1 -7 2 537.904 369.421 57.998 9.326 o
-1 -7 3 940.235 606.935 35.852 4.098 o
-1 -7 4 45.669 97.260 23.627 164.656 o
-1 -7 5 277.849 356.417 29.112 25.951 o
-1 -7 6 13.460 71.828 25.038 175.976 o
-1 -6 1 369.963 304.577 17.515 22.878 o
-1 -6 2 11.408 27.282 13.233 633.193 o
-1 -6 3 641.570 373.437 32.788 8.887 o
-1 -6 4 119.966 53.649 17.709 169.304 o
-1 -6 5 848.430 881.205 55.039 3.622 o
-1 -6 6 14.016 52.561 21.091 248.996 o
-1 -6 7 62.603 140.088 25.222 124.296 o
-1 -6 8 644.959 1271.640 65.585 3.525 o
-1 -5 1 305.425 277.518 14.611 31.698 o
-1 -5 2 82.916 55.923 10.892 349.789 o
-1 -5 3 10739.000 6807.960 411.973 0.032 o
-1 -5 4 24.217 10.632 10.684 909.790 o
-1 -5 5 300.097 340.915 29.740 24.466 o
-1 -5 6 73.753 90.119 19.605 185.660 o
-1 -5 7 1536.020 2326.520 64.102 0.883 o
-1 -5 8 335.923 731.210 54.245 10.088 o
-1 -5 9 23.880 77.138 26.106 157.086 o
-1 -4 1 431.337 362.870 24.257 16.238 o
-1 -4 2 1471.340 1376.630 37.628 1.399 o
-1 -4 3 6748.980 6035.620 246.176 0.067 o
-1 -4 4 134.756 114.752 15.815 130.134 o
-1 -4 5 25.025 13.935 9.242 1138.450 o
-1 -4 6 517.084 695.159 31.572 8.255 o
-1 -4 7 6.446 22.347 17.948 359.978 o
-1 -4 8 877.732 1522.060 53.075 2.333 o
-1 -4 9 280.845 660.123 40.421 14.265 o
-1 -4 10 135.792 317.137 33.391 44.418 o
-1 -3 1 2429.430 2643.700 60.509 0.465 o
-1 -3 2 6801.840 6696.780 147.940 0.064 o
-1 -3 4 2622.610 2614.070 80.836 0.420 o
-1 -3 5 1218.810 1707.410 46.108 1.503 o
-1 -3 6 7.989 30.898 13.615 604.423 o
-1 -3 7 245.730 323.450 24.757 33.091 o
-1 -3 8 193.452 251.461 38.210 36.057 o
-1 -3 9 2.903 43.686 33.757 102.530 o
-1 -3 10 343.962 860.943 47.803 9.110 o
-1 -3 11 7.009 78.630 30.150 124.524 o
-1 -2 1 311.865 388.220 46.974 17.454 o
-1 -2 2 3332.750 2352.180 56.941 0.323 o
-1 -2 3 394.299 397.879 21.166 17.592 o
-1 -2 4 1130.870 1258.820 32.268 2.101 o
-1 -2 5 4126.780 4451.380 97.793 0.162 o
-1 -2 6 212.364 325.532 28.053 35.865 o
-1 -2 7 3.348 2.753 21.739 249.363 o
-1 -2 8 10876.800 17335.700 383.474 0.017 o
-1 -2 9 33.350 118.605 34.844 86.301 o
-1 -2 10 151.439 256.141 44.136 35.347 o
-1 -2 11 104.249 313.138 42.770 38.817 o
-1 -1 1 348.517 388.552 29.775 19.259 o
-1 -1 2 1435.120 1562.250 79.533 1.260 o
-1 -1 4 13166.800 13846.700 1253.390 0.013 o
-1 -1 5 78.687 49.109 10.502 393.447 o
-1 -1 6 1979.610 844.293 86.243 1.072 o
-1 -1 7 346.273 468.067 26.424 17.644 o
-1 -1 8 1557.370 2487.970 155.613 0.720 o
-1 -1 9 4.548 24.026 25.709 177.141 o
-1 -1 10 280.584 453.560 43.532 18.226 o
-1 -1 11 193.238 372.912 35.840 30.656 o
-1 -1 12 219.214 719.202 68.089 11.136 o
-1 0 1 4244.290 4928.160 100.447 0.146 o
-1 0 2 1138.850 1237.100 50.223 2.054 o
-1 0 3 18071.100 15911.900 323.341 0.010 o
-1 0 4 6383.360 3242.150 77.373 0.103 o
-1 0 5 435.970 604.161 104.884 5.702 o
-1 0 6 730.617 763.515 107.369 3.518 o
-1 0 7 279.927 445.142 106.872 7.413 o
-1 0 8 3628.400 3316.020 86.466 0.234 o
-1 0 9 210.749 298.254 50.295 24.410 o
-1 0 10 35.406 55.789 23.892 183.707 o
-1 0 11 80.347 124.189 30.751 90.290 o
-1 0 12 350.943 753.025 45.744 10.256 o
-1 1 1 22094.900 25302.600 501.374 0.005 o
-1 1 2 10407.800 11893.600 259.160 0.024 o
-1 1 3 21.735 26.034 8.466 1266.270 o
-1 1 4 7879.730 8168.990 217.696 0.046 o
-1 1 5 8263.020 7379.190 154.485 0.046 o
-1 1 6 617.685 340.198 19.110 10.348 o
-1 1 7 95.484 14.503 43.791 56.024 o
-1 1 8 86.058 49.223 85.746 15.581 o
-1 1 9 1883.300 1730.830 152.604 0.748 o
-1 1 10 282.459 227.081 31.145 31.387 o
-1 1 11 83.023 128.328 42.570 53.679 o
-1 1 12 6.009 8.450 30.931 123.044 o
-1 1 13 1145.670 2120.050 77.679 1.275 o
-1 2 1 12258.300 12755.000 257.290 0.019 o
-1 2 2 6673.470 8166.040 166.183 0.057 o
-1 2 3 30.136 31.883 5.634 1697.420 o
-1 2 4 9977.290 9666.020 187.422 0.030 o
-1 2 5 152.183 149.552 9.973 116.183 o
-1 2 6 121.058 98.181 21.094 122.912 o
-1 2 7 1887.660 1633.730 43.903 0.894 o
-1 2 8 5931.940 4873.870 283.833 0.089 o
-1 2 9 3990.160 2525.660 163.539 0.228 o
-1 2 10 50.920 215.733 91.463 13.383 o
-1 2 11 252.176 -9.813 45.958 36.374 o
-1 2 12 11.817 19.386 81.521 17.726 o
-1 3 1 4734.760 5092.650 104.405 0.124 o
-1 3 2 264.636 321.304 12.514 34.978 o
-1 3 3 302.671 328.399 22.578 26.900 o
-1 3 4 8557.020 9005.680 183.844 0.038 o
-1 3 5 1172.450 1180.930 30.234 2.100 o
-1 3 6 132.963 185.701 11.686 113.076 o
-1 3 7 197.034 210.231 14.094 64.748 o
-1 3 8 1327.500 1405.270 39.550 1.576 o
-1 3 9 1793.180 1575.610 45.742 0.979 o
-1 3 10 11.347 -37.135 18.870 329.144 o
-1 3 11 0.452 25.351 90.469 14.406 o
-1 3 12 1.080 -59.619 41.366 68.930 o
-1 4 1 600.160 712.039 21.026 7.065 o
-1 4 2 1234.040 1100.100 27.700 2.057 o
-1 4 3 5256.980 5285.670 110.095 0.105 o
-1 4 4 1314.680 1599.230 37.694 1.458 o
-1 4 5 4837.620 5284.970 108.907 0.117 o
-1 4 6 4528.970 4311.590 91.578 0.147 o
-1 4 7 729.113 819.586 27.402 4.954 o
-1 4 8 34.385 39.371 14.995 426.066 o
-1 4 9 394.861 605.976 50.664 10.508 o
-1 4 10 411.714 498.550 32.795 13.338 o
-1 4 11 113.705 104.668 35.684 66.885 o
-1 4 12 98.036 9.183 98.121 12.017 o
-1 5 1 10805.500 11781.500 238.349 0.024 o
-1 5 2 614.568 576.604 20.738 7.904 o
-1 5 3 3274.090 3541.530 75.171 0.257 o
-1 5 4 274.183 275.726 35.416 27.606 o
-1 5 5 805.177 885.386 26.642 4.154 o
-1 5 6 1461.060 1607.040 72.901 1.222 o
-1 5 7 5.337 12.740 12.312 765.731 o
-1 5 8 19.734 14.890 13.557 598.957 o
-1 5 9 2412.070 2633.700 120.513 0.451 o
-1 5 10 485.090 498.595 39.607 10.572 o
-1 5 11 90.870 245.061 125.761 7.094 o
-1 5 12 214.902 311.669 136.200 5.618 o
-1 6 1 1366.870 1391.220 38.117 1.530 o
-1 6 2 1183.280 1358.580 35.818 1.873 o
-1 6 3 58.286 63.562 12.484 393.079 o
-1 6 4 1842.450 1668.330 40.918 0.914 o
-1 6 5 1041.310 877.002 53.767 2.820 o
-1 6 6 906.060 892.305 61.846 3.246 o
-1 6 7 661.132 599.270 43.252 6.452 o
-1 6 8 0.799 -19.640 40.414 72.215 o
-1 6 9 1823.790 1833.230 224.680 0.641 o
-1 6 10 193.004 204.300 129.241 6.462 o
-1 6 11 40.015 77.047 126.755 7.291 o
-1 7 1 647.302 642.539 28.610 6.741 o
-1 7 2 824.849 979.597 32.692 3.710 o
-1 7 3 62.713 81.063 15.282 278.808 o
-1 7 4 413.964 304.827 144.402 4.442 o
-1 7 5 35.067 1.071 39.871 73.158 o
-1 7 6 49.414 42.379 60.892 31.068 o
-1 7 7 310.272 303.006 79.533 11.659 o
-1 7 8 262.120 54.182 127.253 6.671 o
-1 7 9 267.523 235.616 137.691 5.461 o
-1 8 1 42.858 89.030 76.053 19.924 o
-1 8 2 753.122 624.739 271.654 1.255 o
-1 8 3 184.261 142.268 51.791 30.701 o
-1 8 4 32.649 29.110 46.274 54.082 o
-1 8 5 282.962 194.086 73.071 14.918 o
-1 8 6 1356.570 1078.540 206.785 1.106 o
-1 8 7 79.991 54.979 51.833 40.785 o
-1 8 8 68.541 60.147 135.703 6.345 o
0 -8 1 393.829 431.963 80.527 9.007 o
0 -8 2 303.488 351.933 76.053 11.949 o
0 -8 3 76.894 134.042 26.474 110.330 o
0 -7 1 122.371 152.474 21.805 100.235 o
0 -7 2 249.781 287.275 26.032 34.395 o
0 -7 3 0.500 9.445 23.550 212.491 o
0 -7 4 6.384 64.661 22.825 215.375 o
0 -7 5 249.639 187.164 55.831 22.633 o
0 -7 6 9.555 19.655 20.959 264.470 o
0 -6 1 377.059 469.560 39.389 14.373 o
0 -6 2 4720.020 5232.120 190.658 0.119 o
0 -6 3 1580.620 1650.070 49.896 1.119 o
0 -6 4 524.245 457.604 57.010 8.847 o
0 -6 5 1198.530 813.720 40.773 2.484 o
0 -6 6 366.340 234.125 26.010 24.416 o
0 -6 7 2.817 31.351 20.207 284.632 o
0 -6 8 170.551 170.505 25.642 64.778 o
0 -5 1 104.991 96.445 13.243 199.002 o
0 -5 2 365.657 434.545 24.112 17.811 o
0 -5 3 3.808 -7.392 14.862 533.394 o
0 -5 4 391.214 335.963 23.069 19.364 o
0 -5 5 190.664 145.130 31.513 53.014 o
0 -5 6 12.216 -17.303 16.340 437.416 o
0 -5 7 1128.560 740.152 37.609 2.853 o
0 -5 8 25.300 22.872 19.897 280.912 o
0 -5 9 198.752 200.930 26.453 51.474 o
0 -4 1 3462.120 3490.670 70.691 0.242 o
0 -4 2 54.532 43.765 9.578 603.184 o
0 -4 3 454.606 369.627 33.374 14.071 o
0 -4 4 6526.230 5480.180 325.214 0.072 o
0 -4 5 0.011 -11.612 13.750 623.861 o
0 -4 6 1010.150 517.460 30.228 3.993 o
0 -4 7 557.885 313.161 24.604 12.184 o
0 -4 8 223.130 248.409 23.078 44.055 o
0 -4 9 43.787 25.415 22.246 213.820 o
0 -4 10 347.117 605.444 37.961 13.181 o
0 -3 1 628.652 706.414 15.984 6.781 o
0 -3 2 270.128 264.992 10.294 39.476 o
0 -3 3 6097.760 6209.080 98.708 0.078 o
0 -3 4 1507.780 1336.780 44.824 1.368 o
0 -3 5 21.408 31.168 7.199 1548.830 o
0 -3 6 3292.980 1924.200 55.535 0.363 o
0 -3 7 3468.110 2845.520 160.802 0.261 o
0 -3 8 2042.330 2621.100 72.758 0.575 o
0 -3 9 667.915 991.178 41.476 4.574 o
0 -3 10 300.548 501.554 31.634 18.417 o
0 -3 11 43.168 80.643 24.130 167.030 o
0 -2 1 1887.810 2290.430 52.082 0.709 o
0 -2 2 4118.070 4398.470 96.067 0.164 o
0 -2 3 2399.500 2239.900 74.295 0.523 o
0 -2 4 9079.530 5767.620 132.863 0.046 o
0 -2 5 2690.210 1329.690 40.773 0.585 o
0 -2 6 460.873 317.506 20.663 16.263 o
0 -2 7 28.095 50.617 23.570 194.558 o
0 -2 8 235.195 359.389 24.253 32.329 o
0 -2 9 51.903 139.869 42.486 57.010 o
0 -2 10 0.088 47.293 20.636 270.601 o
0 -2 11 9.808 55.741 23.705 200.882 o
0 -2 12 959.400 1995.280 69.243 1.618 o
0 -1 1 65.102 107.117 3.701 446.748 o
0 -1 2 7764.480 7036.820 606.193 0.045 o
0 -1 3 187.791 94.445 8.787 111.366 o
0 -1 4 11204.800 5091.100 116.694 0.035 o
0 -1 5 13240.400 9675.720 600.310 0.019 o
0 -1 6 1402.370 469.699 49.975 2.352 o
0 -1 7 558.302 674.673 27.390 7.857 o
0 -1 8 36.484 52.246 19.572 260.520 o
0 -1 9 1482.580 1961.180 154.021 0.896 o
0 -1 10 21.152 35.082 20.160 272.375 o
0 -1 11 622.579 1374.600 107.515 2.804 o
0 -1 12 196.168 652.367 67.674 12.507 o
0 0 2 3835.190 1556.170 34.464 0.311 o
0 0 3 10171.000 6176.880 128.056 0.038 o
0 0 4 4622.310 3373.380 74.321 0.165 o
0 0 5 2241.560 2259.310 131.711 0.538 o
0 0 6 2573.320 2442.570 63.952 0.454 o
0 0 7 3.180 -1.144 10.217 1128.040 o
0 0 8 4880.920 6060.200 147.812 0.104 o
0 0 9 3545.550 5439.090 122.060 0.165 o
0 0 10 0.141 38.573 19.908 292.645 o
0 0 11 1064.200 2060.520 62.748 1.440 o
0 0 12 425.819 903.885 51.740 7.203 o
0 0 13 229.716 651.763 51.062 14.570 o
0 1 0 141.519 182.490 4.291 120.160 o
0 1 1 22.457 27.162 2.001 4353.450 o
0 1 2 1344.110 1541.190 58.761 1.422 o
0 1 3 4255.450 3150.900 113.042 0.191 o
0 1 4 9971.200 8939.500 920.344 0.026 o
0 1 5 17185.300 13131.000 538.913 0.011 o
0 1 6 6155.920 4023.370 245.061 0.095 o
0 1 7 429.463 152.475 14.205 24.841 o
0 1 8 774.641 701.110 28.471 5.058 o
0 1 9 2058.910 2459.630 62.844 0.601 o
0 1 10 279.019 277.315 25.130 31.597 o
0 1 11 234.801 275.739 28.754 35.787 o
0 1 12 69.638 167.345 40.696 56.870 o
0 1 13 292.795 551.665 41.710 15.752 o
0 2 0 17506.200 20873.100 334.843 0.008 o
0 2 1 231.855 330.461 13.389 39.548 o
0 2 2 3231.850 4243.100 81.243 0.229 o
0 2 3 558.155 574.097 14.273 9.141 o
0 2 4 1958.450 1879.480 39.443 0.782 o
0 2 5 3840.130 3891.700 92.681 0.195 o
0 2 6 1562.000 918.368 34.156 1.598 o
0 2 7 1457.960 1352.500 77.708 1.356 o
0 2 8 67.055 49.521 29.580 115.090 o
0 2 9 2195.390 1197.470 108.861 0.783 o
0 2 10 1445.340 915.225 70.157 1.702 o
0 2 11 54.201 24.638 40.188 69.638 o
0 2 12 276.222 396.550 74.870 12.276 o
0 2 13 9.469 -32.023 29.495 135.335 o
0 3 0 959.960 1096.350 29.129 2.857 o
0 3 1 18241.000 25016.900 823.157 0.007 o
0 3 2 906.175 1199.780 49.219 2.759 o
0 3 3 1737.470 2042.120 57.900 0.851 o
0 3 4 39.895 60.170 7.605 813.998 o
0 3 5 28260.400 26984.600 515.624 0.004 o
0 3 6 495.392 573.533 21.839 10.389 o
0 3 7 393.803 347.475 25.690 18.469 o
0 3 8 977.544 875.841 45.627 3.129 o
0 3 9 0.265 -27.919 30.296 128.509 o
0 3 10 23.372 -25.006 53.685 40.788 o
0 3 11 599.977 228.657 63.129 9.034 o
0 3 12 145.184 345.968 107.369 8.850 o
0 3 13 921.072 1762.230 65.655 1.901 o
0 4 0 14495.500 16517.900 361.687 0.013 o
0 4 1 6213.160 8065.360 156.661 0.062 o
0 4 2 331.359 332.452 12.564 25.869 o
0 4 3 3070.100 3573.110 70.218 0.278 o
0 4 4 164.396 134.478 8.664 114.632 o
0 4 5 261.843 220.601 19.802 41.325 o
0 4 6 60.098 71.206 18.619 231.511 o
0 4 7 1093.470 993.468 36.576 2.548 o
0 4 8 477.207 576.524 43.192 9.603 o
0 4 9 3862.890 3526.450 79.796 0.207 o
0 4 10 2636.780 2173.750 55.090 0.473 o
0 4 11 980.305 606.093 30.372 3.905 o
0 4 12 0.486 -89.810 37.413 84.265 o
0 5 0 1571.980 1717.080 66.079 1.078 o
0 5 1 6633.360 8668.550 194.651 0.054 o
0 5 2 524.786 709.500 21.581 8.296 o
0 5 3 1338.420 1600.000 72.393 1.363 o
0 5 4 2.967 3.249 7.443 2114.830 o
0 5 5 5043.100 4874.850 134.383 0.116 o
0 5 6 50.966 68.879 10.631 486.015 o
0 5 7 0.426 -24.038 10.998 975.188 o
0 5 8 108.294 146.155 22.242 109.262 o
0 5 9 356.103 360.882 74.065 11.124 o
0 5 10 501.620 494.381 88.480 6.627 o
0 5 11 73.996 112.797 49.284 43.186 o
0 5 12 20.866 35.790 100.907 11.553 o
0 6 0 1.397 -18.204 13.037 693.775 o
0 6 1 245.149 319.540 21.524 34.915 o
0 6 2 441.965 693.362 32.860 9.718 o
0 6 3 364.553 426.709 19.026 18.724 o
0 6 4 576.833 490.957 18.883 9.529 o
0 6 5 563.148 549.070 72.077 6.675 o
0 6 6 6179.380 5610.530 536.350 0.068 o
0 6 7 5.153 3.548 43.743 61.614 o
0 6 8 48.650 70.893 42.638 60.681 o
0 6 9 6.559 33.801 79.036 18.852 o
0 6 10 930.123 885.041 192.121 1.675 o
0 6 11 0.857 -15.976 47.855 51.505 o
0 7 0 28.692 50.142 17.830 319.397 o
0 7 1 4256.710 4781.060 104.192 0.148 o
0 7 2 791.235 882.769 152.107 2.352 o
0 7 3 0.682 -5.488 37.784 82.618 o
0 7 4 872.863 803.782 101.901 3.003 o
0 7 5 1533.470 1363.800 151.112 1.071 o
0 7 6 400.337 372.982 54.052 13.042 o
0 7 7 148.155 81.325 74.314 19.159 o
0 7 8 108.882 88.361 85.249 15.350 o
0 7 9 6.102 -12.017 47.001 53.377 o
0 7 10 266.725 120.790 111.346 8.248 o
0 8 0 79.107 111.635 52.521 38.269 o
0 8 1 645.061 552.895 185.908 2.375 o
0 8 2 9.240 14.289 46.075 55.435 o
0 8 3 349.274 368.426 126.755 5.583 o
0 8 4 245.697 240.961 86.989 11.853 o
0 8 5 10.076 -12.473 47.745 51.701 o
0 8 6 555.826 505.116 109.109 5.014 o
0 8 7 0.315 -8.057 50.691 45.903 o
0 8 8 55.071 45.122 55.434 37.090 o
0 9 1 280.672 182.962 61.977 18.712 o
0 9 2 83.938 130.416 59.261 30.186 o
0 9 3 436.052 519.287 137.691 4.279 o
0 9 4 4.849 -13.676 55.117 38.820 o
0 9 5 115.305 70.904 58.362 30.956 o
1 -8 0 493.556 522.928 79.533 7.166 o
1 -8 1 213.435 296.671 26.377 39.024 o
1 -8 2 67.513 104.072 25.647 129.350 o
1 -8 3 859.400 1045.950 47.792 3.253 o
1 -7 0 19.967 26.859 21.816 237.914 o
1 -7 1 27.306 11.988 17.213 373.236 o
1 -7 2 299.946 414.994 26.787 22.274 o
1 -7 3 804.805 918.195 40.303 3.929 o
1 -7 4 136.969 224.505 27.599 63.212 o
1 -7 5 91.915 66.369 25.316 128.331 o
1 -6 0 89.336 80.030 14.252 235.630 o
1 -6 1 1.339 10.194 22.243 238.049 o
1 -6 2 971.605 928.416 33.330 3.124 o
1 -6 3 1950.710 2183.630 57.995 0.702 o
1 -6 4 636.017 637.792 34.582 6.776 o
1 -6 5 232.477 185.952 25.508 46.552 o
1 -6 6 27.961 34.590 22.417 218.856 o
1 -6 7 39.390 12.868 21.892 228.311 o
1 -5 0 1908.670 2005.420 47.601 0.771 o
1 -5 1 32.214 37.268 11.749 641.021 o
1 -5 2 656.562 682.954 26.266 6.411 o
1 -5 3 942.003 921.784 30.600 3.283 o
1 -5 4 310.832 381.715 22.839 23.608 o
1 -5 5 1178.340 1183.430 49.298 2.029 o
1 -5 6 28.868 -9.445 19.220 306.965 o
1 -5 7 30.982 12.738 19.774 283.665 o
1 -5 8 1989.000 1304.340 49.911 0.932 o
1 -5 9 15.427 4.873 29.431 135.284 o
1 -4 0 98.626 110.410 18.009 158.320 o
1 -4 1 223.668 207.575 12.936 56.881 o
1 -4 2 51.013 57.765 10.761 514.435 o
1 -4 3 7419.550 7348.910 152.335 0.053 o
1 -4 4 2355.560 2454.980 60.041 0.509 o
1 -4 5 24.692 -1.684 15.922 446.203 o
1 -4 6 24.535 -30.109 16.587 412.628 o
1 -4 7 339.426 202.744 21.976 29.958 o
1 -4 8 625.297 322.881 25.023 10.142 o
1 -4 9 61.748 -0.699 20.668 238.299 o
1 -4 10 181.388 149.085 34.690 49.813 o
1 -3 0 1252.710 1259.060 29.847 1.847 o
1 -3 1 5181.100 5901.320 121.166 0.099 o
1 -3 2 173.554 198.833 18.654 70.516 o
1 -3 3 3910.810 4031.700 86.055 0.187 o
1 -3 4 6075.950 6171.420 131.929 0.078 o
1 -3 5 9.653 9.576 13.952 594.589 o
1 -3 6 3.203 -35.972 13.988 602.297 o
1 -3 7 147.325 79.143 17.268 128.322 o
1 -3 8 2497.450 1313.320 105.790 0.627 o
1 -3 9 215.235 130.046 21.485 63.483 o
1 -3 10 94.020 162.125 22.558 111.927 o
1 -3 11 14.931 53.344 23.001 210.696 o
1 -2 0 18667.200 21317.300 432.899 0.008 o
1 -2 1 5811.510 6878.120 140.084 0.077 o
1 -2 2 15650.800 15765.400 313.279 0.012 o
1 -2 3 267.714 210.449 11.366 45.334 o
1 -2 4 13046.500 13124.100 267.936 0.017 o
1 -2 5 5030.190 4829.800 179.688 0.116 o
1 -2 6 825.685 595.999 29.525 5.058 o
1 -2 7 937.891 458.372 50.248 4.411 o
1 -2 8 17.895 -7.404 13.830 598.821 o
1 -2 9 994.375 877.110 55.474 2.980 o
1 -2 10 920.365 1138.300 65.849 2.694 o
1 -2 11 23.456 38.363 21.813 232.124 o
1 -1 0 19652.300 21441.700 548.221 0.007 o
1 -1 1 3658.690 4546.180 112.141 0.185 o
1 -1 2 8330.140 9235.170 187.088 0.039 o
1 -1 3 292.161 292.914 13.497 32.742 o
1 -1 4 8135.300 8682.000 192.264 0.042 o
1 -1 5 214.168 185.908 15.817 61.207 o
1 -1 6 95.363 41.128 12.349 301.334 o
1 -1 7 430.218 217.280 38.325 17.788 o
1 -1 8 7990.360 6409.830 173.747 0.052 o
1 -1 9 1957.240 2540.850 65.975 0.622 o
1 -1 10 6.784 24.276 17.964 358.428 o
1 -1 11 26.435 119.105 22.255 188.196 o
1 -1 12 21.690 27.307 24.039 196.549 o
1 0 0 1765.850 2210.860 43.232 0.795 o
1 0 1 1408.230 1467.630 31.113 1.429 o
1 0 2 461.122 491.231 9.693 13.144 o
1 0 3 2443.710 2634.120 99.260 0.451 o
1 0 4 19426.000 16701.500 445.434 0.008 o
1 0 5 4.243 2.782 7.983 1834.530 o
1 0 6 147.224 294.241 40.352 37.225 o
1 0 7 27.792 22.474 10.070 918.016 o
1 0 8 1837.980 2049.370 166.467 0.680 o
1 0 9 2070.050 2819.590 161.136 0.489 o
1 0 10 12.892 60.048 17.702 340.791 o
1 0 11 19.896 92.482 21.091 225.692 o
1 0 12 21.382 101.068 25.659 157.201 o
1 0 13 721.633 1605.920 66.818 2.576 o
1 1 0 18.610 33.831 2.822 3879.760 o
1 1 1 5153.830 6048.240 93.902 0.098 o
1 1 2 2448.580 2792.980 83.918 0.437 o
1 1 3 12678.100 13772.600 424.713 0.017 o
1 1 4 12331.400 13308.900 1794.710 0.012 o
1 1 5 8563.650 5982.100 204.622 0.049 o
1 1 6 2802.440 2528.100 57.371 0.397 o
1 1 7 2037.510 1797.940 46.748 0.759 o
1 1 8 447.973 427.983 21.524 14.291 o
1 1 9 2110.810 2678.520 82.368 0.540 o
1 1 10 462.278 565.878 48.487 9.649 o
1 1 11 344.216 567.450 34.041 14.439 o
1 1 12 12.161 18.262 30.024 129.681 o
1 1 13 48.751 225.889 33.007 75.888 o
1 2 1 28483.100 35714.200 773.080 0.003 o
1 2 2 100.095 109.473 8.027 240.409 o
1 2 3 12118.100 12707.500 371.456 0.019 o
1 2 4 5200.720 5610.190 271.406 0.097 o
1 2 5 3222.850 3826.110 247.794 0.222 o
1 2 7 221.292 140.224 37.739 40.203 o
1 2 8 33.544 15.393 10.892 792.279 o
1 2 9 6366.610 6506.780 148.328 0.071 o
1 2 10 72.695 39.243 31.863 101.089 o
1 2 11 300.906 465.207 45.577 16.526 o
1 2 12 279.358 316.157 55.297 18.259 o
1 2 13 1378.860 2691.690 83.303 0.849 o
1 3 0 1036.970 692.433 22.144 3.419 o
1 3 1 2269.090 3013.960 70.493 0.456 o
1 3 2 11518.600 13753.100 701.780 0.018 o
1 3 3 858.266 969.730 17.995 3.641 o
1 3 4 3998.380 4418.250 85.931 0.170 o
1 3 5 2352.200 2396.710 49.379 0.521 o
1 3 6 1814.620 1688.390 40.608 0.926 o
1 3 7 345.276 279.637 24.435 24.673 o
1 3 8 291.621 290.955 52.442 19.189 o
1 3 10 1.611 -48.177 35.397 94.135 o
1 3 11 23.524 -60.665 21.319 254.024 o
1 3 12 4.983 -62.220 26.715 165.170 o
1 3 13 3.245 -59.804 51.822 43.916 o
1 4 0 12.828 6.560 7.480 1947.750 o
1 4 1 4287.980 5909.470 208.016 0.121 o
1 4 2 6566.800 7926.990 255.544 0.058 o
1 4 3 0.641 -3.366 4.132 6906.570 o
1 4 4 2771.400 2624.230 53.115 0.394 o
1 4 5 621.797 718.092 18.506 6.761 o
1 4 6 402.027 438.855 16.760 16.504 o
1 4 7 501.026 457.402 18.278 12.035 o
1 4 8 3237.190 3085.340 65.855 0.287 o
1 4 9 1662.870 1447.070 39.116 1.148 o
1 4 10 924.609 632.247 54.456 3.888 o
1 4 11 400.862 282.653 54.261 14.436 o
1 4 12 19.713 -64.712 85.249 16.214 o
1 4 13 207.440 4.896 144.402 5.452 o
1 5 0 5552.870 5737.680 93.669 0.093 o
1 5 1 367.945 431.246 17.025 18.592 o
1 5 2 1183.880 1613.310 55.102 1.605 o
1 5 3 3719.620 4472.550 88.232 0.185 o
1 5 4 94.403 84.010 6.833 312.461 o
1 5 5 6878.920 6789.660 133.021 0.062 o
1 5 6 7880.790 7674.600 333.084 0.046 o
1 5 7 8.500 0.315 29.929 131.480 o
1 5 8 804.466 857.553 87.238 3.404 o
1 5 9 152.234 142.198 46.725 38.420 o
1 5 10 12.100 17.009 74.562 21.187 o
1 5 11 144.070 143.077 51.945 33.463 o
1 5 12 39.763 -33.045 48.600 49.350 o
1 6 0 639.282 592.426 27.902 7.220 o
1 6 1 5468.390 6244.010 125.147 0.089 o
1 6 2 4505.440 6286.560 131.082 0.112 o
1 6 3 3951.220 4779.760 218.341 0.155 o
1 6 4 0.536 -32.638 31.585 118.229 o
1 6 5 128.348 123.793 37.068 58.464 o
1 6 6 725.780 734.588 69.252 4.530 o
1 6 7 185.507 227.651 44.736 32.816 o
1 6 8 76.758 41.724 46.477 50.632 o
1 6 9 1201.170 1128.520 146.639 1.534 o
1 6 10 1081.740 975.562 151.361 1.768 o
1 6 11 76.529 57.413 52.428 40.043 o
1 7 0 0.829 2.982 39.828 74.353 o
1 7 1 151.770 152.256 43.571 41.800 o
1 7 2 2055.180 2926.620 189.388 0.461 o
1 7 3 416.046 477.710 61.454 10.345 o
1 7 4 32.787 -5.202 37.206 84.047 o
1 7 5 132.272 85.526 42.778 49.671 o
1 7 6 649.198 525.221 65.925 6.167 o
1 7 7 97.412 90.257 44.663 50.063 o
1 7 8 8.147 -32.127 59.650 33.139 o
1 7 9 726.106 615.500 146.142 2.922 o
1 7 10 89.457 123.693 57.657 31.610 o
1 8 0 3.582 3.967 48.781 49.556 o
1 8 1 76.926 111.561 50.859 40.676 o
1 8 2 912.114 1135.740 91.306 2.495 o
1 8 3 3.967 7.431 45.936 55.870 o
1 8 4 664.650 712.905 76.199 4.845 o
1 8 5 189.258 210.043 56.136 25.145 o
1 8 6 511.834 504.336 68.326 7.840 o
1 8 7 1080.970 890.320 86.195 2.415 o
1 8 8 265.378 244.751 61.971 18.109 o
1 8 9 110.646 122.783 59.553 28.961 o
1 9 0 340.415 351.436 80.527 10.512 o
1 9 1 77.250 74.873 57.414 33.411 o
1 9 2 369.497 406.311 68.546 11.203 o
1 9 3 13.959 40.592 56.432 36.796 o
1 9 4 139.660 123.078 59.754 27.492 o
1 9 5 94.528 90.116 56.258 33.591 o
1 9 6 676.235 548.355 76.677 5.377 o
2 -8 0 42.574 62.320 21.405 212.590 o
2 -8 1 59.410 88.810 23.106 162.575 o
2 -8 2 96.116 116.800 25.148 111.602 o
2 -7 0 889.438 774.993 32.942 3.922 o
2 -7 1 815.512 895.711 35.733 3.978 o
2 -7 2 278.991 373.372 25.690 26.123 o
2 -7 3 264.960 346.586 28.265 27.994 o
2 -7 4 812.436 879.539 42.514 3.974 o
2 -7 5 18.473 13.959 26.395 166.548 o
2 -6 0 166.532 149.538 16.659 89.855 o
2 -6 1 2.454 0.232 15.057 520.001 o
2 -6 2 19.497 15.532 16.427 416.672 o
2 -6 3 949.817 948.463 35.655 3.160 o
2 -6 4 99.628 104.692 21.667 134.024 o
2 -6 5 2.682 9.544 22.534 231.825 o
2 -6 6 268.233 247.310 29.337 32.847 o
2 -6 7 922.951 894.492 45.369 3.329 o
2 -5 0 4581.600 4848.560 103.149 0.134 o
2 -5 1 381.943 380.613 19.702 18.994 o
2 -5 2 1094.400 1109.540 34.159 2.382 o
2 -5 3 328.298 306.600 20.096 26.053 o
2 -5 4 1031.680 1003.510 36.277 2.735 o
2 -5 5 117.634 98.187 20.759 127.492 o
2 -5 6 341.945 340.399 27.524 21.760 o
2 -5 7 0.561 -42.392 22.274 237.740 o
2 -5 8 312.695 273.730 39.639 22.840 o
2 -4 0 20.144 24.851 9.786 1028.950 o
2 -4 1 36.470 30.094 10.846 715.604 o
2 -4 2 1972.590 2070.110 62.062 0.716 o
2 -4 3 1189.970 1236.650 33.622 1.990 o
2 -4 4 3304.330 3334.050 77.049 0.265 o
2 -4 5 2697.220 2634.480 65.220 0.406 o
2 -4 6 1043.620 1208.060 71.200 2.212 o
2 -4 7 479.756 392.148 52.852 10.808 o
2 -4 8 20.851 3.369 20.407 277.224 o
2 -4 9 746.486 458.401 60.317 5.736 o
2 -4 10 0.044 -32.325 18.672 338.310 o
2 -3 0 37952.600 40218.200 797.894 0.002 o
2 -3 1 871.823 876.402 24.849 3.789 o
2 -3 2 1514.450 1730.500 39.397 1.154 o
2 -3 3 25.088 36.906 9.775 912.566 o
2 -3 4 3708.810 3387.280 75.910 0.225 o
2 -3 5 795.256 798.994 30.328 4.485 o
2 -3 6 266.923 212.217 29.299 35.396 o
2 -3 7 193.486 174.972 23.198 60.747 o
2 -3 8 2130.020 1769.110 56.941 0.716 o
2 -3 9 394.826 252.180 24.058 21.831 o
2 -3 10 41.795 19.455 19.198 283.696 o
2 -3 11 173.441 150.243 23.330 71.803 o
2 -2 0 606.202 666.966 24.035 7.247 o
2 -2 1 583.171 634.820 18.544 7.990 o
2 -2 2 1042.110 1315.870 30.452 2.255 o
2 -2 3 6296.170 6497.860 297.114 0.069 o
2 -2 4 3829.520 3782.780 87.521 0.200 o
2 -2 5 6261.840 6354.180 143.759 0.074 o
2 -2 6 3897.740 3730.590 91.387 0.197 o
2 -2 7 1015.060 836.089 37.258 3.112 o
2 -2 8 848.122 629.640 31.518 4.711 o
2 -2 9 868.724 456.204 31.490 5.271 o
2 -2 10 55.892 18.991 17.904 297.439 o
2 -2 11 45.339 50.197 20.940 223.949 o
2 -1 0 23005.700 25118.000 507.837 0.005 o
2 -1 1 2809.170 3236.900 77.072 0.333 o
2 -1 2 3076.130 3369.190 74.862 0.289 o
2 -1 3 39.862 53.999 8.447 782.011 o
2 -1 4 95.213 102.506 12.189 222.564 o
2 -1 5 2299.330 2212.010 56.238 0.563 o
2 -1 6 4.844 -8.609 13.460 649.532 o
2 -1 7 1911.600 1642.460 53.101 0.870 o
2 -1 8 1258.600 788.576 116.743 1.896 o
2 -1 9 1794.970 1087.610 41.476 1.192 o
2 -1 10 1038.670 805.270 37.609 3.076 o
2 -1 11 232.716 297.005 33.099 32.059 o
2 -1 12 289.524 463.018 31.089 20.361 o
2 0 0 2350.920 2714.860 53.447 0.477 o
2 0 1 22699.000 26029.400 490.721 0.005 o
2 0 2 7409.140 8047.490 163.658 0.050 o
2 0 3 796.085 964.255 27.838 3.955 o
2 0 4 2383.660 2280.330 38.876 0.531 o
2 0 5 30230.300 30568.100 990.201 0.003 o
2 0 6 35.058 20.721 12.298 627.703 o
2 0 7 224.334 175.017 31.138 43.711 o
2 0 8 535.723 331.055 21.792 12.797 o
2 0 9 19.263 -3.382 16.426 426.727 o
2 0 10 2.538 38.544 20.332 279.587 o
2 0 11 612.182 937.854 47.888 5.112 o
2 0 12 3.908 43.707 22.118 235.423 o
2 1 0 43190.700 49190.700 921.134 0.001 o
2 1 1 4754.010 6597.360 127.365 0.101 o
2 1 2 58.726 65.756 4.951 679.093 o
2 1 3 1692.260 1916.350 31.378 0.937 o
2 1 4 83.174 71.293 6.690 398.821 o
2 1 5 60.331 45.265 7.314 670.694 o
2 1 6 911.156 616.755 23.675 4.368 o
2 1 7 1179.370 603.712 23.877 2.980 o
2 1 8 2211.730 1603.900 88.465 0.697 o
2 1 9 2531.030 3106.940 75.218 0.390 o
2 1 10 1878.060 2418.460 82.404 0.669 o
2 1 11 969.375 1331.110 44.934 2.381 o
2 1 12 259.900 409.492 28.337 25.414 o
2 1 13 47.751 83.425 27.202 133.696 o
2 2 0 2184.960 2525.830 50.741 0.551 o
2 2 1 29537.000 35002.600 664.911 0.003 o
2 2 2 1104.330 1226.560 21.011 2.230 o
2 2 3 829.168 988.449 18.418 3.747 o
2 2 4 15.089 10.023 4.547 4233.610 o
2 2 5 9755.260 9837.370 215.675 0.030 o
2 2 6 37.185 45.511 12.016 566.367 o
2 2 7 552.094 510.370 18.431 9.890 o
2 2 8 382.773 395.082 30.995 16.977 o
2 2 9 110.679 152.577 14.080 143.891 o
2 2 10 1283.480 1730.830 49.911 1.394 o
2 2 11 3.483 42.117 69.392 24.440 o
2 2 12 77.684 235.340 69.425 21.452 o
2 2 13 359.334 591.067 55.761 10.989 o
2 3 0 33.395 73.783 10.758 579.405 o
2 3 1 505.359 532.608 21.282 10.685 o
2 3 2 6080.070 7204.230 159.275 0.070 o
2 3 3 4337.960 4819.310 109.568 0.144 o
2 3 4 228.829 210.841 14.270 53.863 o
2 3 5 6312.680 6197.770 140.699 0.074 o
2 3 7 3215.840 3020.020 142.580 0.283 o
2 3 8 320.247 152.326 31.217 31.302 o
2 3 9 568.333 431.678 22.361 10.317 o
2 3 10 3983.620 4459.310 106.501 0.169 o
2 3 11 60.788 45.878 20.769 212.139 o
2 3 12 113.852 250.539 117.746 7.926 o
2 3 13 24.343 -2.034 78.979 18.877 o
2 4 0 213.612 237.338 16.014 53.147 o
2 4 1 23790.500 27484.300 592.215 0.005 o
2 4 2 817.963 1143.090 36.160 3.310 o
2 4 3 805.626 904.623 32.694 4.039 o
2 4 4 2719.880 3053.510 75.797 0.361 o
2 4 5 11265.600 11377.700 253.800 0.023 o
2 4 6 1833.150 1959.020 41.084 0.829 o
2 4 7 475.082 488.538 49.926 10.088 o
2 4 8 429.647 420.445 22.285 15.169 o
2 4 9 494.764 511.278 58.748 8.762 o
2 4 10 647.879 581.108 67.472 5.837 o
2 4 11 57.835 -50.972 47.047 51.893 o
2 4 12 659.573 344.273 199.329 2.267 o
2 4 13 284.814 -90.966 87.983 12.844 o
2 5 1 3557.090 3744.810 90.269 0.222 o
2 5 2 965.484 1167.080 38.526 2.672 o
2 5 3 1170.860 1122.930 40.823 2.144 o
2 5 4 315.248 344.761 23.016 24.795 o
2 5 5 127.637 140.016 34.141 63.412 o
2 5 6 3118.430 3076.140 147.665 0.290 o
2 5 7 0.608 -5.759 32.669 110.511 o
2 5 8 477.587 453.670 55.166 9.941 o
2 5 9 409.003 407.670 58.189 11.721 o
2 5 10 1247.680 1094.400 88.921 1.810 o
2 5 11 291.729 222.444 54.638 20.087 o
2 5 12 29.198 -34.182 57.910 35.013 o
2 6 0 3120.410 2928.450 76.661 0.311 o
2 6 1 2801.240 2815.160 74.507 0.368 o
2 6 2 1041.160 1148.180 43.581 2.443 o
2 6 3 2921.610 3203.300 84.402 0.318 o
2 6 4 68.681 61.612 35.289 82.988 o
2 6 5 480.237 432.276 51.404 10.472 o
2 6 6 89.834 130.762 39.867 58.458 o
2 6 7 254.999 275.949 46.936 23.836 o
2 6 8 311.369 300.622 51.039 18.446 o
2 6 9 255.714 261.789 52.340 21.856 o
2 6 10 521.687 502.965 70.226 7.581 o
2 6 11 1456.910 1227.360 112.092 1.328 o
2 7 0 579.930 503.821 31.144 8.887 o
2 7 1 30.910 47.609 22.853 204.953 o
2 7 2 85.712 90.332 25.358 124.478 o
2 7 3 230.065 250.450 47.444 26.240 o
2 7 4 8.169 2.849 39.614 75.084 o
2 7 5 60.262 101.332 45.480 51.568 o
2 7 6 5965.580 5590.520 259.402 0.082 o
2 7 7 95.922 63.946 46.624 47.857 o
2 7 8 73.372 78.378 48.335 46.047 o
2 7 9 204.382 234.953 56.819 23.264 o
2 7 10 627.082 576.164 112.092 4.296 o
2 8 0 6.722 -2.846 43.771 61.537 o
2 8 1 1365.110 1203.690 95.688 1.513 o
2 8 2 182.080 205.818 51.217 29.001 o
2 8 3 37.173 71.562 47.575 50.021 o
2 8 4 397.734 409.518 59.650 11.781 o
2 8 5 232.342 271.291 56.273 21.160 o
2 8 6 442.621 381.919 61.946 10.748 o
2 8 7 46.132 81.273 55.977 36.100 o
2 8 8 62.053 68.345 54.639 37.443 o
2 8 9 111.123 150.488 60.429 27.628 o
2 9 0 7.659 12.900 54.120 40.221 o
2 9 1 530.494 506.730 109.855 5.130 o
2 9 2 275.060 280.573 61.482 17.226 o
2 9 3 639.366 696.938 85.194 4.794 o
2 9 4 488.542 518.394 70.480 7.912 o
2 9 5 281.734 314.868 67.480 14.776 o
2 9 6 107.469 144.860 58.755 29.286 o
3 -7 0 0.456 -6.534 19.340 315.350 o
3 -7 1 29.055 43.487 21.180 238.541 o
3 -7 2 1.823 -33.633 21.227 261.722 o
3 -7 3 680.898 701.577 38.439 5.782 o
3 -7 4 235.626 193.140 28.385 42.618 o
3 -6 0 226.041 290.804 21.034 40.739 o
3 -6 1 386.003 419.096 24.523 17.077 o
3 -6 2 5.516 -5.438 18.432 346.606 o
3 -6 3 298.071 272.168 24.328 29.915 o
3 -6 4 676.726 766.667 37.166 5.522 o
3 -6 5 51.985 78.602 25.023 152.331 o
3 -6 6 0.812 31.894 25.986 173.387 o
3 -5 0 1714.540 1682.690 48.071 0.996 o
3 -5 1 5.118 0.713 14.893 530.518 o
3 -5 2 916.616 986.005 35.250 3.226 o
3 -5 3 696.881 812.801 33.117 5.188 o
3 -5 4 3582.210 3817.930 88.404 0.217 o
3 -5 5 243.525 211.463 23.697 43.204 o
3 -5 6 56.133 9.165 22.516 206.026 o
3 -5 7 188.667 165.999 32.226 50.179 o
3 -5 8 54.022 57.821 28.081 129.494 o
3 -4 0 1893.970 1942.800 46.423 0.796 o
3 -4 1 492.373 521.180 37.380 10.277 o
3 -4 2 857.002 878.113 29.378 3.839 o
3 -4 3 346.067 408.512 21.869 20.120 o
3 -4 4 1972.330 2006.260 98.056 0.706 o
3 -4 5 50.480 17.557 17.523 319.218 o
3 -4 6 3.942 -37.679 18.645 339.036 o
3 -4 7 0.304 -3.098 21.289 260.248 o
3 -4 8 1877.340 1809.870 62.565 0.833 o
3 -4 9 418.029 330.756 31.536 16.741 o
3 -3 0 4722.360 5114.760 123.979 0.123 o
3 -3 1 1974.240 2128.760 48.743 0.708 o
3 -3 2 124.876 147.234 13.290 134.484 o
3 -3 3 224.050 183.693 21.602 52.639 o
3 -3 4 3930.910 3919.480 93.144 0.189 o
3 -3 5 0.197 0.126 16.959 410.101 o
3 -3 6 185.565 167.121 46.021 34.634 o
3 -3 7 38.477 40.839 19.746 261.197 o
3 -3 8 281.246 254.803 36.836 27.267 o
3 -3 9 1070.310 948.859 43.288 2.663 o
3 -3 10 42.522 50.378 23.498 186.135 o
3 -2 0 46.843 71.852 11.415 467.881 o
3 -2 1 3453.370 3788.960 81.020 0.229 o
3 -2 2 87.996 119.514 21.596 138.034 o
3 -2 3 3070.260 3399.080 95.382 0.285 o
3 -2 4 7229.260 7654.890 282.329 0.052 o
3 -2 5 3532.700 3534.740 84.357 0.233 o
3 -2 6 105.808 74.484 16.091 189.410 o
3 -2 7 262.505 279.593 22.740 34.748 o
3 -2 8 566.508 475.493 28.980 9.559 o
3 -2 9 1183.200 1164.270 66.457 1.972 o
3 -2 10 49.053 46.940 53.946 39.269 o
3 -2 11 172.328 107.714 51.984 32.656 o
3 -1 0 18108.400 18654.000 381.584 0.009 o
3 -1 1 9696.080 11115.200 226.548 0.028 o
3 -1 2 743.963 781.553 23.016 5.036 o
3 -1 3 2944.380 3544.330 76.781 0.294 o
3 -1 4 8206.400 8523.470 228.592 0.042 o
3 -1 5 1387.320 1428.290 26.638 1.489 o
3 -1 6 1537.540 1463.520 42.539 1.263 o
3 -1 7 586.302 530.256 46.249 7.849 o
3 -1 8 0.531 -26.368 18.975 327.582 o
3 -1 9 2883.280 2275.140 67.134 0.404 o
3 -1 10 30.851 1.824 19.061 309.358 o
3 -1 11 45.433 27.141 31.704 110.537 o
3 -1 12 1.161 -36.781 20.132 291.011 o
3 0 0 1426.480 1664.700 35.662 1.282 o
3 0 1 437.831 567.083 41.255 10.768 o
3 0 2 4718.210 5054.150 98.505 0.125 o
3 0 3 1330.860 1403.690 40.322 1.571 o
3 0 4 2930.660 3207.980 53.982 0.320 o
3 0 5 4932.120 5119.610 83.993 0.117 o
3 0 6 1084.990 1128.940 23.836 2.410 o
3 0 7 103.255 109.041 16.773 162.937 o
3 0 8 312.531 246.814 58.292 17.406 o
3 0 9 2547.640 1792.970 56.238 0.551 o
3 0 10 2.292 -27.535 16.743 420.634 o
3 0 11 75.953 74.649 42.668 57.574 o
3 0 12 0.080 9.050 21.174 262.851 o
3 1 0 2880.430 3436.580 68.400 0.310 o
3 1 1 13467.900 14522.100 276.256 0.015 o
3 1 2 11267.100 12974.800 243.434 0.021 o
3 1 3 888.980 1060.780 24.627 3.238 o
3 1 4 2089.810 2184.140 36.935 0.650 o
3 1 5 2240.100 2149.430 38.629 0.599 o
3 1 6 133.282 120.722 10.182 153.119 o
3 1 7 97.282 65.901 29.908 98.621 o
3 1 8 2640.130 1794.250 51.313 0.524 o
3 1 9 4754.310 2733.440 72.758 0.176 o
3 1 10 1960.560 1616.500 51.317 0.849 o
3 1 11 66.549 98.212 34.144 84.033 o
3 1 12 59.410 131.334 22.606 149.464 o
3 2 0 5902.770 6797.330 130.260 0.076 o
3 2 1 268.218 321.160 12.236 34.503 o
3 2 2 274.855 272.466 11.043 37.728 o
3 2 3 6028.810 6889.090 106.246 0.073 o
3 2 4 580.950 579.993 14.392 8.614 o
3 2 5 18379.000 19325.700 367.815 0.008 o
3 2 6 7964.070 7780.820 225.623 0.046 o
3 2 7 259.108 244.886 36.719 29.964 o
3 2 8 960.120 559.161 50.836 3.944 o
3 2 9 791.296 690.783 31.597 4.921 o
3 2 10 12.955 23.172 65.656 27.294 o
3 2 11 604.236 918.408 103.736 3.821 o
3 2 12 0.467 26.628 45.627 56.565 o
3 2 13 2.820 52.991 37.187 84.361 o
3 3 0 6615.500 7905.150 153.286 0.059 o
3 3 1 9275.560 11770.300 222.103 0.029 o
3 3 2 4702.990 5723.000 88.853 0.115 o
3 3 3 12314.700 14691.300 222.977 0.017 o
3 3 4 1486.530 1287.350 48.722 1.420 o
3 3 5 10.415 14.426 4.601 4418.840 o
3 3 6 872.036 557.724 17.926 4.941 o
3 3 7 527.962 419.227 27.623 11.304 o
3 3 8 3.449 15.675 9.609 1246.750 o
3 3 9 2678.840 2905.210 132.661 0.367 o
3 3 10 1422.640 1899.510 108.688 1.054 o
3 3 11 0.265 10.575 17.460 386.228 o
3 3 12 119.245 -154.095 109.855 9.573 o
3 4 0 120.134 147.001 15.013 132.237 o
3 4 1 8.051 8.996 5.793 3244.100 o
3 4 2 9044.080 9849.580 218.561 0.034 o
3 4 3 264.359 264.148 19.791 37.025 o
3 4 4 22.466 7.789 15.387 473.458 o
3 4 5 1598.410 1677.450 48.839 1.092 o
3 4 6 2041.330 1767.380 111.220 0.717 o
3 4 7 554.185 510.339 52.264 8.204 o
3 4 8 136.972 223.256 54.679 28.849 o
3 4 9 1850.250 1676.690 102.424 0.849 o
3 4 10 479.508 492.550 62.298 8.905 o
3 4 11 44.218 -47.059 95.439 12.900 o
3 4 12 1.774 -21.374 83.012 17.116 o
3 5 0 385.634 513.744 47.398 12.305 o
3 5 1 21.129 21.566 16.799 392.750 o
3 5 2 7446.220 8236.880 186.419 0.049 o
3 5 3 29.921 37.428 19.249 285.896 o
3 5 4 1104.560 1169.010 40.839 2.252 o
3 5 5 2199.580 2284.210 63.549 0.582 o
3 5 6 2153.860 2149.830 62.985 0.623 o
3 5 7 1153.030 1062.750 76.720 2.094 o
3 5 8 2247.220 2106.140 114.848 0.570 o
3 5 9 3.939 18.448 43.282 62.858 o
3 5 10 2248.260 2035.620 122.612 0.576 o
3 5 11 1202.180 1004.550 91.214 1.967 o
3 5 12 0.452 -84.839 84.504 16.517 o
3 6 0 1497.750 1349.350 56.420 1.354 o
3 6 1 800.564 785.334 35.835 4.435 o
3 6 2 1536.600 1701.710 53.362 1.132 o
3 6 3 48.013 108.568 22.182 173.951 o
3 6 4 915.342 893.034 42.645 3.390 o
3 6 5 1958.270 1963.610 60.430 0.750 o
3 6 6 2338.280 2274.930 124.166 0.512 o
3 6 7 597.626 607.432 66.209 6.265 o
3 6 8 725.499 752.042 73.559 4.371 o
3 6 9 125.432 84.214 47.290 43.119 o
3 6 10 260.748 333.896 64.372 15.948 o
3 6 11 1.869 -23.868 58.407 34.575 o
3 7 0 576.850 499.321 34.505 8.845 o
3 7 1 80.345 90.156 23.438 142.274 o
3 7 2 650.673 632.300 35.509 6.597 o
3 7 3 2099.270 2210.570 66.636 0.631 o
3 7 4 56.949 62.303 26.677 138.817 o
3 7 5 26.944 38.302 40.477 70.368 o
3 7 6 44.784 67.954 46.262 52.412 o
3 7 7 1329.430 1216.520 94.979 1.557 o
3 7 8 236.910 240.325 55.185 22.204 o
3 7 9 86.633 86.740 52.428 38.683 o
3 7 10 263.011 310.988 65.032 16.063 o
3 8 0 203.399 147.539 26.946 56.386 o
3 8 1 151.313 165.198 29.260 64.493 o
3 8 2 1083.790 941.125 46.756 2.613 o
3 8 3 3068.140 2793.560 84.052 0.326 o
3 8 4 8.890 17.915 46.849 53.602 o
3 8 5 12.301 2.877 48.186 50.726 o
3 8 6 82.638 116.451 54.152 35.904 o
3 8 7 181.902 152.434 57.163 26.493 o
3 8 8 0.337 -12.627 54.180 40.181 o
3 8 9 417.352 372.378 73.633 9.914 o
3 9 1 513.726 449.258 101.901 5.875 o
3 9 2 182.532 165.113 58.669 25.142 o
3 9 3 6.179 14.235 53.287 41.492 o
3 9 4 323.117 272.861 66.090 14.522 o
3 9 5 102.159 86.912 58.763 30.796 o
4 -7 0 12.746 28.783 23.290 212.315 o
4 -7 1 1.931 28.108 23.751 207.422 o
4 -6 0 2893.800 2614.010 64.408 0.371 o
4 -6 1 71.774 91.110 22.072 161.150 o
4 -6 2 0.973 17.428 21.685 249.944 o
4 -6 3 90.397 155.175 25.391 102.889 o
4 -6 4 295.782 340.590 29.668 24.873 o
4 -6 5 27.526 25.461 25.746 170.525 o
4 -5 0 1.093 17.382 16.755 417.610 o
4 -5 1 310.636 374.717 23.183 23.846 o
4 -5 2 402.659 485.355 32.054 13.989 o
4 -5 3 781.266 709.623 34.804 4.883 o
4 -5 4 689.460 671.058 37.961 5.863 o
4 -5 5 812.498 821.176 42.179 4.157 o
4 -5 6 247.833 213.252 30.578 37.224 o
4 -5 7 304.014 299.332 65.590 14.816 o
4 -4 0 7185.810 7255.180 212.216 0.056 o
4 -4 1 550.795 713.532 41.893 7.193 o
4 -4 2 170.224 184.173 20.805 71.221 o
4 -4 3 1.201 -0.314 17.978 364.911 o
4 -4 4 0.205 9.275 19.340 314.997 o
4 -4 5 44.999 5.993 19.960 268.460 o
4 -4 6 41.967 58.215 27.286 141.373 o
4 -4 7 254.067 304.462 65.201 16.414 o
4 -4 8 941.686 1038.900 50.614 2.911 o
4 -3 0 523.685 528.021 35.764 9.582 o
4 -3 1 1642.280 1637.330 43.080 1.077 o
4 -3 2 2929.020 3118.920 71.413 0.325 o
4 -3 3 33.348 48.309 15.188 407.501 o
4 -3 4 3022.090 3402.020 84.357 0.292 o
4 -3 5 6547.160 7002.370 160.630 0.065 o
4 -3 6 54.676 31.244 23.450 184.948 o
4 -3 7 30.552 -8.933 23.905 200.585 o
4 -3 8 44.536 44.246 24.517 173.427 o
4 -3 9 61.854 57.779 27.485 130.789 o
4 -2 0 15135.600 14266.900 294.693 0.013 o
4 -2 1 2129.040 2401.870 57.293 0.589 o
4 -2 2 120.721 111.352 24.037 104.291 o
4 -2 3 2.615 4.598 13.026 693.348 o
4 -2 4 72.202 71.892 14.778 276.674 o
4 -2 5 67.949 53.823 16.631 270.169 o
4 -2 6 289.002 395.410 23.782 24.692 o
4 -2 7 775.598 682.907 33.893 5.055 o
4 -2 8 1029.580 941.925 42.026 2.822 o
4 -2 9 1027.500 1185.420 48.670 2.405 o
4 -2 10 719.320 625.252 129.096 3.313 o
4 -1 0 86.188 95.383 10.560 274.204 o
4 -1 1 16038.300 16251.200 531.592 0.011 o
4 -1 2 5.131 -0.951 11.021 967.346 o
4 -1 3 14.788 -9.044 19.041 321.870 o
4 -1 4 72.066 41.353 24.510 156.504 o
4 -1 5 7154.180 7461.170 163.986 0.055 o
4 -1 6 45.663 57.129 15.717 341.920 o
4 -1 7 545.153 529.876 72.170 6.990 o
4 -1 8 80.532 41.415 21.595 181.863 o
4 -1 9 107.459 125.366 52.513 36.045 o
4 -1 10 339.029 334.161 70.327 12.416 o
4 -1 11 25.175 15.502 22.283 228.674 o
4 0 0 720.057 752.970 21.933 5.396 o
4 0 1 3674.790 3862.350 78.344 0.209 o
4 0 2 1445.380 1515.120 35.692 1.347 o
4 0 3 1428.380 1490.920 35.929 1.383 o
4 0 4 1238.900 1371.890 40.035 1.748 o
4 0 5 4311.710 4374.690 73.420 0.156 o
4 0 6 4444.710 4583.310 77.074 0.145 o
4 0 7 3328.180 3442.210 88.675 0.256 o
4 0 8 45.113 28.678 19.530 265.504 o
4 0 9 1511.920 1521.560 53.075 1.246 o
4 0 10 2486.360 1929.170 62.214 0.547 o
4 0 11 5.213 -4.459 20.554 278.879 o
4 1 0 178.934 209.592 11.159 75.818 o
4 1 1 22068.200 23190.100 440.068 0.006 o
4 1 2 0.247 -16.404 8.787 1527.510 o
4 1 3 496.637 600.801 19.266 10.111 o
4 1 4 79.805 76.733 9.824 342.113 o
4 1 5 12217.100 12390.900 190.873 0.019 o
4 1 6 1026.600 1046.820 23.611 2.726 o
4 1 7 12.208 -9.451 17.947 363.225 o
4 1 8 105.526 119.238 93.979 12.660 o
4 1 9 677.681 491.460 34.716 7.208 o
4 1 10 138.981 115.684 21.258 103.410 o
4 1 11 0.117 -6.753 17.824 371.282 o
4 1 12 344.299 411.256 29.867 18.817 o
4 2 0 907.712 1002.150 26.003 3.280 o
4 2 1 1816.160 2168.770 46.121 0.778 o
4 2 2 1655.400 1785.620 39.103 1.008 o
4 2 3 0.083 2.597 7.811 1932.010 o
4 2 4 1.985 12.877 7.098 2284.090 o
4 2 5 179.139 160.502 9.719 91.390 o
4 2 6 7444.290 7651.920 124.581 0.052 o
4 2 7 60.625 70.569 11.439 400.679 o
4 2 8 376.855 380.479 27.261 18.257 o
4 2 9 292.967 163.699 42.664 27.317 o
4 2 10 1815.280 1058.190 77.467 1.137 o
4 2 11 107.123 90.791 67.410 23.791 o
4 2 12 147.205 205.789 30.814 57.214 o
4 3 0 6519.950 7528.260 144.234 0.062 o
4 3 1 13609.100 15220.400 285.103 0.015 o
4 3 2 7485.800 8856.220 168.561 0.046 o
4 3 3 2351.590 2651.800 44.858 0.487 o
4 3 4 536.291 503.220 14.301 10.493 o
4 3 5 183.404 248.107 12.455 64.254 o
4 3 6 4.835 19.865 11.136 922.220 o
4 3 7 3.162 17.383 12.621 728.991 o
4 3 8 1351.700 681.000 25.659 2.287 o
4 3 9 2.114 4.833 11.497 889.837 o
4 3 10 1851.560 1757.180 166.522 0.736 o
4 3 11 1446.120 226.171 129.241 1.968 o
4 3 12 185.035 -240.587 131.229 6.615 o
4 4 0 1454.200 1611.310 36.828 1.280 o
4 4 1 28.638 25.671 9.974 906.938 o
4 4 2 231.918 320.683 14.571 40.013 o
4 4 3 947.245 1093.160 39.040 2.863 o
4 4 4 47.460 58.553 16.879 302.760 o
4 4 5 432.156 430.995 26.918 14.416 o
4 4 6 13301.100 13036.500 286.455 0.017 o
4 4 7 13.271 21.816 19.765 294.116 o
4 4 8 37.432 36.153 25.393 168.602 o
4 4 9 0.828 32.406 42.135 66.244 o
4 4 10 1212.390 1162.440 140.674 1.532 o
4 4 11 13.751 -45.832 59.503 33.282 o
4 5 0 2.175 25.441 9.951 1145.600 o
4 5 1 3712.270 4122.770 99.678 0.196 o
4 5 2 911.039 1235.690 50.745 2.673 o
4 5 3 14.996 24.246 18.399 335.459 o
4 5 4 238.995 303.426 25.382 35.124 o
4 5 5 1425.380 1368.090 46.207 1.452 o
4 5 6 506.226 568.348 31.783 9.735 o
4 5 7 655.695 645.388 37.429 6.404 o
4 5 8 45.045 49.609 42.187 63.194 o
4 5 9 121.344 170.457 49.464 36.798 o
4 5 10 202.682 220.349 56.902 23.695 o
4 5 11 674.710 568.947 75.580 5.345 o
4 6 0 1.213 30.559 21.091 262.291 o
4 6 1 1180.340 1224.190 45.639 1.992 o
4 6 2 3327.060 3569.870 90.602 0.249 o
4 6 3 1184.560 1417.250 51.505 1.777 o
4 6 4 204.568 265.981 25.571 44.018 o
4 6 5 1338.540 1389.070 52.503 1.547 o
4 6 6 1903.390 1859.030 62.278 0.805 o
4 6 7 719.525 619.321 38.430 5.808 o
4 6 8 695.665 635.276 71.472 5.049 o
4 6 9 1.285 55.260 49.882 47.122 o
4 6 10 55.683 89.820 54.043 38.041 o
4 6 11 116.083 133.451 62.521 26.193 o
4 7 0 1569.630 1531.790 53.457 1.182 o
4 7 1 55.560 53.545 24.944 158.810 o
4 7 2 1401.480 1297.760 50.605 1.526 o
4 7 3 2040.970 1994.640 64.703 0.701 o
4 7 4 0.155 25.408 27.023 160.866 o
4 7 5 262.796 200.520 31.884 35.105 o
4 7 6 196.353 276.392 34.562 37.041 o
4 7 7 781.892 836.703 82.555 3.638 o
4 7 8 285.397 319.065 63.969 15.496 o
4 7 9 199.453 168.674 59.470 23.740 o
4 7 10 102.946 123.814 61.194 27.898 o
4 8 0 859.947 675.451 54.696 4.140 o
4 8 1 0.002 33.944 26.392 168.093 o
4 8 2 389.199 390.981 35.099 16.136 o
4 8 3 87.491 127.256 30.972 86.394 o
4 8 4 39.636 39.521 31.280 113.289 o
4 8 5 0.421 10.651 32.977 108.401 o
4 8 6 2004.870 1925.060 125.683 0.684 o
4 8 7 334.181 354.598 68.355 12.651 o
4 8 8 66.154 88.840 64.888 26.638 o
4 9 3 26.325 64.204 32.691 104.435 o
5 -6 0 1049.100 1138.810 46.045 2.422 o
5 -6 1 84.213 140.177 27.065 102.053 o
5 -6 2 11.177 37.938 25.202 181.096 o
5 -5 0 130.749 212.709 28.227 65.667 o
5 -5 1 540.963 595.644 63.469 7.133 o
5 -5 2 8.927 -16.989 21.837 246.604 o
5 -5 3 34.629 15.284 23.279 205.592 o
5 -5 4 1207.850 1364.490 52.372 1.780 o
5 -5 5 373.953 340.107 39.459 17.299 o
5 -4 0 3468.930 3026.480 73.664 0.264 o
5 -4 1 962.395 1135.600 39.398 2.732 o
5 -4 2 66.648 83.638 20.804 183.732 o
5 -4 3 78.509 41.967 21.217 188.375 o
5 -4 4 1955.980 2205.540 64.322 0.692 o
5 -4 5 71.784 62.496 24.396 150.468 o
5 -4 6 247.475 182.532 30.321 39.857 o
5 -4 7 43.715 14.605 29.687 127.156 o
5 -3 0 329.132 303.684 35.141 22.057 o
5 -3 1 11.625 25.512 19.971 288.094 o
5 -3 2 215.756 190.202 21.257 54.360 o
5 -3 3 266.282 340.647 31.248 27.020 o
5 -3 4 1099.740 1087.430 98.576 2.043 o
5 -3 5 1614.110 1880.350 125.156 0.896 o
5 -3 6 146.990 269.228 27.227 54.831 o
5 -3 7 6.709 -15.930 29.637 134.164 o
5 -3 8 156.939 134.036 29.987 65.860 o
5 -2 0 4925.020 4612.010 143.782 0.124 o
5 -2 1 3935.900 4404.580 96.245 0.174 o
5 -2 2 1295.870 1299.280 38.556 1.715 o
5 -2 3 689.401 902.170 34.090 4.857 o
5 -2 4 1076.410 975.768 39.015 2.620 o
5 -2 5 102.764 131.919 26.785 96.401 o
5 -2 6 211.004 301.886 25.700 39.454 o
5 -2 7 86.778 70.813 29.345 104.703 o
5 -2 8 54.487 86.723 26.005 139.344 o
5 -2 9 1903.670 2320.550 106.545 0.662 o
5 -1 0 984.085 890.800 27.167 3.182 o
5 -1 1 16.562 39.715 13.175 598.219 o
5 -1 2 58.637 90.450 14.282 298.040 o
5 -1 3 1442.710 1416.740 62.420 1.369 o
5 -1 4 1208.560 1301.370 39.376 1.872 o
5 -1 5 8218.100 8712.320 236.785 0.041 o
5 -1 6 1144.750 1187.700 108.686 1.799 o
5 -1 7 74.847 151.899 21.970 132.987 o
5 -1 8 101.364 93.025 30.362 89.996 o
5 -1 9 776.018 886.838 146.113 2.468 o
5 -1 10 3.581 -21.168 25.706 178.436 o
5 0 0 2756.810 2445.010 53.594 0.415 o
5 0 1 5256.230 4978.280 100.578 0.110 o
5 0 2 2299.750 2633.070 74.187 0.496 o
5 0 3 1709.610 1769.060 42.893 0.971 o
5 0 4 1321.990 1476.210 38.834 1.533 o
5 0 5 108.583 148.937 16.396 136.434 o
5 0 6 1.945 -17.888 16.551 430.483 o
5 0 7 60.476 61.141 18.277 244.996 o
5 0 8 55.207 33.952 61.827 30.126 o
5 0 9 1526.330 1516.930 94.396 1.160 o
5 0 10 861.997 867.548 128.913 2.538 o
5 0 11 14.790 27.507 25.067 183.479 o
5 1 0 5.007 27.447 10.312 1047.670 o
5 1 1 2474.400 2598.310 55.715 0.460 o
5 1 2 6721.810 6947.390 135.500 0.063 o
5 1 3 69.488 76.573 20.860 183.820 o
5 1 4 650.690 819.964 29.623 5.649 o
5 1 5 3961.790 4076.010 67.854 0.183 o
5 1 6 2347.800 2668.000 47.741 0.485 o
5 1 7 817.323 848.581 28.016 4.184 o
5 1 8 88.004 38.203 86.952 15.191 o
5 1 9 803.401 670.561 39.718 4.789 o
5 1 10 400.237 392.571 30.602 16.241 o
5 1 11 0.502 -9.204 48.683 49.766 o
5 2 0 16.906 28.794 10.584 911.214 o
5 2 1 2812.700 2848.850 60.098 0.365 o
5 2 2 8630.120 9240.200 178.225 0.037 o
5 2 4 275.805 304.117 13.060 34.437 o
5 2 5 2551.550 2695.670 47.150 0.433 o
5 2 6 1163.150 1218.830 31.118 2.076 o
5 2 7 174.335 164.061 13.694 86.988 o
5 2 8 1614.130 1684.690 37.145 1.086 o
5 2 9 614.010 566.582 83.324 5.549 o
5 2 10 2911.170 2197.090 65.728 0.407 o
5 2 11 295.003 274.668 82.534 11.638 o
5 3 0 1450.010 1610.920 38.792 1.283 o
5 3 1 2471.930 2770.690 58.270 0.440 o
5 3 2 1616.980 1865.860 41.473 1.005 o
5 3 3 15.947 23.587 18.419 334.182 o
5 3 4 1160.320 1347.500 36.576 1.929 o
5 3 5 5105.060 5162.210 82.906 0.112 o
5 3 6 3089.680 3349.430 57.137 0.290 o
5 3 7 385.139 454.456 26.880 15.963 o
5 3 8 485.229 539.848 38.903 10.123 o
5 3 9 209.403 186.029 28.616 48.245 o
5 3 10 405.634 263.453 115.323 6.399 o
5 4 0 278.150 295.448 15.308 34.102 o
5 4 1 32.418 51.477 10.320 707.807 o
5 4 2 1620.200 1827.200 34.478 1.023 o
5 4 3 1691.370 1858.680 55.710 0.942 o
5 4 4 1003.370 1035.410 41.018 2.755 o
5 4 5 9.400 -0.189 20.387 282.714 o
5 4 6 888.752 903.187 38.972 3.525 o
5 4 7 2360.910 2275.740 64.293 0.532 o
5 4 8 17.960 21.771 23.097 215.129 o
5 4 9 22.496 52.718 24.847 178.766 o
5 4 10 831.583 810.483 87.960 3.377 o
5 4 11 160.614 20.877 94.942 12.371 o
5 5 0 1044.110 1128.610 44.998 2.456 o
5 5 1 85.379 76.176 22.394 152.688 o
5 5 2 5794.120 6056.160 142.420 0.084 o
5 5 3 4869.010 5505.990 131.695 0.112 o
5 5 4 845.579 930.353 40.218 3.667 o
5 5 5 17.245 6.810 22.998 219.854 o
5 5 6 37.179 45.715 21.861 217.627 o
5 5 7 1193.860 1142.180 47.615 2.046 o
5 5 8 10.585 21.364 25.726 176.078 o
5 5 9 603.415 549.500 70.010 6.338 o
5 5 10 748.808 802.771 87.169 3.790 o
5 5 11 797.944 717.318 88.006 3.741 o
5 6 0 45.725 73.755 25.500 152.867 o
5 6 1 233.781 272.955 28.817 36.096 o
5 6 2 1193.570 1159.750 45.532 2.034 o
5 6 3 3.608 72.280 26.899 156.915 o
5 6 4 94.687 152.363 28.378 89.061 o
5 6 5 323.740 383.734 30.622 20.825 o
5 6 6 1722.110 1686.360 58.122 0.980 o
5 6 7 1389.730 1363.670 55.744 1.486 o
5 6 8 75.280 154.170 32.025 82.005 o
5 6 9 412.557 549.987 110.352 5.731 o
5 6 10 997.569 892.192 93.384 2.577 o
5 7 0 335.666 352.744 32.722 20.578 o
5 7 1 199.513 238.965 31.235 42.357 o
5 7 2 60.259 72.231 29.047 116.913 o
5 7 3 552.915 559.847 36.686 8.624 o
5 7 4 240.359 273.949 31.365 33.556 o
5 7 5 684.078 644.931 42.759 5.945 o
5 7 6 277.421 275.049 36.141 27.008 o
5 7 7 121.691 129.291 34.630 64.933 o
5 7 8 717.946 681.542 46.916 5.330 o
5 7 9 19.709 39.624 61.694 30.765 o
5 8 0 521.377 582.695 40.673 8.804 o
5 8 1 4.874 -5.461 29.557 134.947 o
5 8 2 3.116 3.407 30.420 127.402 o
5 8 3 948.256 1038.400 53.852 2.864 o
5 8 4 141.944 165.445 36.143 53.524 o
5 8 5 208.572 220.088 38.167 36.164 o
5 8 6 10.579 -4.818 36.290 89.427 o
5 8 7 564.887 495.488 45.991 8.513 o
6 -5 0 1886.490 1633.410 55.887 0.887 o
6 -5 2 33.120 20.877 26.362 161.869 o
6 -5 3 12.646 34.891 27.183 156.216 o
6 -4 0 411.614 518.763 31.761 13.087 o
6 -4 1 2129.810 2149.620 60.749 0.633 o
6 -4 2 202.827 321.114 28.471 37.348 o
6 -4 3 0.004 -2.571 42.433 65.506 o
6 -4 4 332.672 303.813 30.680 23.056 o
6 -4 5 1406.810 1589.520 127.623 1.151 o
6 -3 0 584.903 675.983 32.785 7.273 o
6 -3 1 959.629 1074.760 38.582 2.854 o
6 -3 2 230.987 256.339 23.140 41.697 o
6 -3 3 181.843 88.480 23.550 80.606 o
6 -3 4 302.187 312.049 117.542 6.721 o
6 -3 5 918.357 915.952 93.067 2.786 o
6 -3 6 408.508 368.430 32.916 16.093 o
6 -3 7 603.411 744.726 45.408 6.212 o
6 -2 0 118.755 63.613 28.936 95.097 o
6 -2 1 6076.560 5199.970 107.278 0.087 o
6 -2 3 89.538 39.757 22.388 165.183 o
6 -2 4 129.799 167.339 109.003 9.293 o
6 -2 5 1891.220 1872.500 59.050 0.810 o
6 -2 6 242.690 187.782 34.004 37.205 o
6 -2 7 43.445 56.825 27.129 142.490 o
6 -2 8 9.863 -18.902 27.478 155.854 o
6 -1 0 224.253 194.235 18.320 54.312 o
6 -1 1 487.775 454.197 28.230 11.935 o
6 -1 2 194.267 224.167 22.816 53.882 o
6 -1 3 513.039 611.624 29.837 9.207 o
6 -1 4 15.854 40.409 18.523 322.084 o
6 -1 5 843.542 1040.390 41.476 3.391 o
6 -1 6 3312.900 3937.870 98.768 0.233 o
6 -1 7 136.663 99.043 92.178 12.943 o
6 -1 8 65.181 -4.918 35.722 87.266 o
6 -1 9 219.716 156.315 30.945 46.528 o
6 0 1 11874.700 11372.800 220.543 0.021 o
6 0 2 3712.360 5766.630 372.313 0.129 o
6 0 3 2.756 33.304 16.872 404.844 o
6 0 4 326.861 495.802 26.403 17.953 o
6 0 5 488.453 562.180 28.966 10.376 o
6 0 6 335.460 486.943 27.357 17.586 o
6 0 7 90.725 105.878 22.847 132.691 o
6 0 8 366.990 303.914 133.285 5.230 o
6 0 9 283.972 334.116 96.524 9.120 o
6 0 10 1005.410 1097.420 52.441 2.582 o
6 1 0 796.647 777.349 27.045 4.588 o
6 1 1 227.407 432.750 25.901 28.271 o
6 1 2 232.961 236.447 16.569 47.809 o
6 1 3 1119.630 1037.880 31.995 2.419 o
6 1 4 54.654 100.042 16.515 252.284 o
6 1 5 1283.800 1422.880 60.395 1.585 o
6 1 6 7975.600 8044.420 128.273 0.046 o
6 1 7 32.514 50.515 19.243 274.541 o
6 1 8 52.626 24.868 72.989 21.831 o
6 1 9 117.175 184.417 27.416 77.038 o
6 1 10 523.738 660.317 111.845 4.631 o
6 2 0 202.539 219.396 15.684 59.594 o
6 2 1 3510.920 3227.800 69.424 0.250 o
6 2 2 2262.390 2848.490 80.644 0.475 o
6 2 4 27.114 4.279 13.909 565.205 o
6 2 5 667.280 657.570 22.325 6.503 o
6 2 6 18.383 22.481 12.780 659.232 o
6 2 7 407.597 497.447 21.329 14.539 o
6 2 8 255.887 335.449 24.943 30.939 o
6 2 9 112.000 70.350 47.741 44.271 o
6 2 10 418.131 -229.154 151.609 4.520 o
6 3 0 28.348 19.444 12.928 611.411 o
6 3 1 562.937 511.935 22.388 9.494 o
6 3 2 4392.540 4409.720 88.920 0.151 o
6 3 3 459.961 712.813 95.439 5.628 o
6 3 4 61.337 78.334 12.720 345.499 o
6 3 5 176.746 204.466 21.093 64.504 o
6 3 6 4185.280 4315.720 105.636 0.162 o
6 3 7 1078.120 1103.040 61.164 2.315 o
6 3 8 198.798 165.118 48.057 31.734 o
6 3 9 0.413 -16.792 26.729 165.089 o
6 3 10 84.668 -23.363 112.837 9.172 o
6 4 0 1654.920 1547.490 40.038 1.108 o
6 4 1 1233.550 1383.230 35.528 1.756 o
6 4 2 3704.930 3981.390 185.114 0.193 o
6 4 3 849.392 1310.330 116.068 2.196 o
6 4 4 65.353 80.448 24.633 146.527 o
6 4 5 215.872 214.040 27.984 44.735 o
6 4 6 1.828 7.741 24.439 197.284 o
6 4 7 823.904 730.363 42.511 4.378 o
6 4 8 454.199 397.289 40.216 12.829 o
6 4 9 0.657 35.869 27.551 154.143 o
6 4 10 660.634 773.844 94.181 4.156 o
6 5 0 691.368 666.264 63.147 5.208 o
6 5 1 87.800 58.997 24.098 142.910 o
6 5 2 919.918 956.380 45.429 3.204 o
6 5 3 47.355 122.282 56.170 35.058 o
6 5 4 144.276 139.055 28.348 72.977 o
6 5 5 1.705 12.429 27.290 158.144 o
6 5 6 3368.970 3218.730 88.937 0.263 o
6 5 7 346.025 302.000 31.812 21.827 o
6 5 8 49.337 36.040 28.208 134.591 o
6 5 9 16.914 39.253 34.325 98.132 o
6 5 10 183.871 330.711 69.931 16.710 o
6 6 0 120.941 120.902 27.569 87.693 o
6 6 1 2.131 0.179 25.838 176.649 o
6 6 2 98.019 151.706 30.735 79.584 o
6 6 3 3.027 9.466 26.783 164.181 o
6 6 4 39.253 30.043 29.072 131.408 o
6 6 5 97.936 65.420 27.767 109.774 o
6 6 6 160.691 187.595 32.918 52.775 o
6 6 7 1749.360 1556.090 60.880 1.006 o
6 6 8 147.470 135.214 33.609 60.428 o
6 6 9 31.412 78.002 33.445 97.746 o
6 7 0 3.578 -11.589 30.365 127.892 o
6 7 1 448.963 468.306 36.594 12.242 o
6 7 2 1276.650 1139.610 55.232 1.853 o
6 7 3 1278.930 1543.860 62.476 1.499 o
6 7 4 459.724 527.307 39.595 10.850 o
6 7 5 620.249 607.042 43.659 6.907 o
6 7 6 59.561 110.274 32.518 91.343 o
6 7 7 369.231 292.210 39.779 18.711 o
6 8 3 209.858 289.285 40.412 30.499 o
7 -4 0 23.652 16.959 28.601 141.020 o
7 -4 1 17.492 38.772 26.010 168.328 o
7 -4 2 1.032 26.345 27.416 156.176 o
7 -3 0 845.396 650.174 35.150 4.609 o
7 -3 1 1842.100 1664.920 51.401 0.909 o
7 -3 2 349.626 441.407 31.634 17.388 o
7 -3 3 127.132 103.890 27.065 90.549 o
7 -3 4 129.538 110.352 29.174 80.916 o
7 -3 5 71.361 57.247 84.806 16.004 o
7 -2 0 53.550 93.014 21.636 182.556 o
7 -2 1 1559.090 1454.200 46.300 1.241 o
7 -2 2 419.283 427.986 28.471 14.855 o
7 -2 3 306.004 447.869 30.931 19.826 o
7 -2 4 30.128 23.852 30.699 121.117 o
7 -2 5 2301.070 2379.520 72.055 0.532 o
7 -1 0 202.698 469.244 30.228 27.343 o
7 -1 1 1908.190 1820.250 50.862 0.820 o
7 -1 2 1955.570 1887.220 79.507 0.757 o
7 -1 3 51.742 104.884 23.198 161.325 o
7 -1 4 57.120 46.071 23.981 171.108 o
7 -1 5 678.573 644.239 37.914 6.130 o
7 -1 6 338.529 258.728 95.781 9.027 o
7 -1 7 7.630 38.772 28.119 146.764 o
7 0 0 106.232 56.057 18.423 178.750 o
7 0 1 1510.380 1131.510 38.524 1.510 o
7 0 2 1164.990 1317.470 48.555 1.918 o
7 0 3 0.081 16.901 20.386 282.920 o
7 0 4 195.470 205.497 29.475 48.146 o
7 0 5 2399.800 2310.760 60.187 0.517 o
7 0 6 1167.170 1169.600 45.506 2.083 o
7 0 7 114.515 98.336 26.041 102.170 o
7 0 8 25.047 56.170 27.768 143.625 o
7 1 0 2.959 -1.451 17.160 400.318 o
7 1 1 276.201 252.651 20.476 35.745 o
7 1 2 1235.000 1225.360 36.615 1.901 o
7 1 4 306.368 348.685 23.364 25.343 o
7 1 5 167.390 207.671 22.361 65.244 o
7 1 6 1481.620 1576.280 64.331 1.232 o
7 1 7 369.004 491.663 30.268 15.445 o
7 1 8 25.517 70.217 26.917 149.327 o
7 1 9 12.071 13.421 27.065 159.656 o
7 2 0 397.939 355.960 22.261 18.452 o
7 2 1 1121.500 1275.640 36.993 2.091 o
7 2 2 5678.580 5533.170 112.458 0.092 o
7 2 4 1249.560 1456.430 41.349 1.655 o
7 2 5 231.350 274.113 18.819 42.627 o
7 2 6 523.671 683.263 26.566 8.415 o
7 2 7 980.343 1129.180 32.914 2.710 o
7 2 8 8.089 134.212 100.410 11.583 o
7 2 9 113.899 64.123 126.258 7.227 o
7 3 0 63.335 48.591 16.925 278.846 o
7 3 1 0.437 -2.088 14.605 552.906 o
7 3 2 325.380 345.349 19.497 24.624 o
7 3 3 18.002 65.081 16.487 371.794 o
7 3 4 106.560 116.304 28.244 92.145 o
7 3 5 48.070 101.848 27.685 125.390 o
7 3 6 2039.950 1827.330 60.899 0.743 o
7 3 7 1484.290 1481.340 57.069 1.292 o
7 3 8 46.763 35.493 55.817 36.980 o
7 3 9 85.813 157.077 105.878 10.089 o
7 4 0 22.684 10.119 14.902 500.308 o
7 4 1 43.601 38.424 40.166 70.065 o
7 4 2 589.779 568.468 66.503 6.552 o
7 4 3 2462.760 2606.140 74.534 0.458 o
7 4 5 535.852 517.091 36.769 9.383 o
7 4 6 26.706 -6.763 28.236 145.626 o
7 4 7 1.985 33.863 29.549 134.104 o
7 4 8 123.722 109.887 31.971 74.199 o
7 4 9 238.706 266.013 37.744 30.392 o
7 5 0 163.711 148.130 46.683 37.039 o
7 5 1 119.014 132.191 47.881 40.647 o
7 5 2 53.835 74.154 30.197 111.400 o
7 5 3 866.712 890.368 46.328 3.602 o
7 5 4 7.261 104.793 32.148 107.541 o
7 5 5 366.977 343.037 33.669 18.756 o
7 5 6 340.260 417.479 38.072 17.326 o
7 5 7 1712.730 1555.880 60.832 1.035 o
7 5 8 584.437 603.610 41.304 7.527 o
7 6 0 358.378 342.702 34.159 19.162 o
7 6 1 6.842 2.475 31.161 121.328 o
7 6 2 779.175 699.693 42.741 4.817 o
7 6 3 2969.590 2947.310 88.032 0.329 o
7 6 5 49.283 -0.510 33.490 101.266 o
7 6 6 60.595 34.407 34.594 90.426 o
7 6 7 56.130 64.489 35.015 86.415 o
7 7 2 42.515 36.337 34.895 91.921 o
7 7 3 98.244 163.225 37.505 59.520 o
7 7 4 184.320 162.460 39.332 42.115 o
8 -2 0 37.990 16.273 24.029 191.726 o
8 -2 1 30.395 59.224 24.807 173.607 o
8 -2 2 37.947 73.071 27.065 141.916 o
8 -2 3 202.027 107.369 29.174 58.577 o
8 -1 0 94.374 93.599 23.751 128.427 o
8 -1 1 1855.360 1445.020 61.275 0.968 o
8 -1 2 1417.600 1381.150 48.141 1.450 o
8 -1 3 35.199 75.059 25.443 159.092 o
8 -1 4 2.587 3.480 26.713 165.211 o
8 -1 5 40.560 11.433 28.471 138.984 o
8 0 0 26.819 41.363 21.495 234.883 o
8 0 1 2.197 5.870 21.495 255.016 o
8 0 2 1333.060 1077.970 41.683 1.842 o
8 0 3 4.444 2.941 27.875 151.677 o
8 0 4 204.172 210.554 27.370 48.113 o
8 0 5 87.881 105.565 29.920 94.589 o
8 0 6 2306.800 2504.510 71.942 0.512 o
8 1 0 514.882 359.328 26.183 12.736 o
8 1 1 861.204 797.622 35.881 3.997 o
8 1 2 2256.140 1913.320 54.882 0.632 o
8 1 3 119.906 144.223 56.020 31.090 o
8 1 4 9.539 5.923 21.460 254.577 o
8 1 5 8.941 -0.388 22.579 230.712 o
8 1 6 10.988 14.579 25.400 181.155 o
8 2 0 30.533 -9.246 19.644 293.074 o
8 2 1 25.698 30.259 18.923 304.226 o
8 2 2 1463.250 1257.380 43.154 1.481 o
8 2 3 213.917 336.115 25.521 36.346 o
8 2 4 4.537 -6.066 20.679 275.595 o
8 2 5 0.817 9.084 19.470 310.739 o
8 2 6 1942.170 1816.420 67.429 0.792 o
8 2 7 351.436 504.536 106.375 6.628 o
8 3 0 21.369 1.728 19.679 297.811 o
8 3 1 18.940 20.225 18.987 314.114 o
8 3 2 722.037 803.779 143.656 2.737 o
8 3 3 180.451 351.326 55.251 22.224 o
8 3 4 65.734 84.268 49.072 45.106 o
8 3 5 14.542 -45.686 30.877 123.233 o
8 3 6 88.792 162.186 35.281 67.099 o
8 3 7 1271.450 1307.290 59.515 1.699 o
8 4 0 30.318 75.556 119.299 8.240 o
8 4 1 119.658 46.725 111.346 9.242 o
8 4 2 1996.870 1866.040 197.838 0.615 o
8 4 3 1276.120 1331.560 175.718 1.205 o
8 4 4 6.114 58.918 32.975 106.275 o
8 4 5 349.019 381.968 39.205 17.549 o
8 4 6 390.124 475.601 42.089 13.432 o
8 5 0 88.147 78.539 115.323 8.680 o
8 5 1 19.296 56.667 104.884 10.683 o
8 5 2 665.006 631.013 43.527 6.212 o
8 5 3 59.411 133.148 35.638 75.985 o
8 5 4 6.827 -23.649 34.990 96.277 o
8 5 5 76.417 88.147 37.765 70.027 o
;
_olex2_submission_special_instructions 'No special instructions were received'
loop_
_space_group_symop_id
_space_group_symop_operation_xyz
1 x,y,z
2 -x,-y,-z
loop_
_atom_site_label
_atom_site_type_symbol
_atom_site_fract_x
_atom_site_fract_y
_atom_site_fract_z
_atom_site_U_iso_or_equiv
_atom_site_adp_type
_atom_site_occupancy
_atom_site_refinement_flags_posn
Br1 Br 0.09678(13) 0.72868(13) 0.45554(11) 0.0402(6) Uani 1.000000 .
Br2 Br 0.14643(13) 0.78288(14) 0.21661(11) 0.0413(6) Uani 1.000000 .
Br3 Br 0.52326(16) 0.98159(14) 0.68399(13) 0.0633(7) Uani 1.000000 .
Br4 Br 0.32436(15) 0.22655(14) 0.96665(12) 0.0556(6) Uani 1.000000 .
Se1 Se 0.04508(13) 0.68373(15) 0.68344(11) 0.0456(6) Uani 1.000000 .
C1 C 0.20211(19) 0.83477(19) 0.72655(19) 0.037(3) Uani 1.000000 .
H1 H 0.14336(19) 0.95826(19) 0.70112(19) 0.045(4) Uiso 1.000000 R
C2 C 0.19845(19) 0.79372(19) 0.86288(19) 0.052(4) Uani 1.000000 .
H2a H 0.26762(19) 0.87099(19) 0.88715(19) 0.062(5) Uiso 1.000000 R
H2b H 0.07429(19) 0.82435(19) 0.89377(19) 0.062(5) Uiso 1.000000 R
C3 C 0.27125(19) 0.60083(19) 0.92754(19) 0.033(3) Uani 1.000000 .
H3a H 0.40231(19) 0.58094(19) 0.91804(19) 0.039(3) Uiso 1.000000 R
H3b H 0.23693(19) 0.58729(19) 1.01415(19) 0.039(3) Uiso 1.000000 R
C4 C 0.20357(19) 0.45967(19) 0.88009(19) 0.036(3) Uani 1.000000 .
H4 H 0.07457(19) 0.46821(19) 0.90559(19) 0.043(3) Uiso 1.000000 R
C5 C 0.21947(19) 0.46779(19) 0.74679(19) 0.037(3) Uani 1.000000 .
H5 H 0.17386(19) 0.36579(19) 0.73267(19) 0.045(4) Uiso 1.000000 R
C6 C 0.40585(19) 0.47213(19) 0.67716(19) 0.030(3) Uani 1.000000 .
H6a H 0.48544(19) 0.36261(19) 0.70886(19) 0.036(3) Uiso 1.000000 R
H6b H 0.39195(19) 0.47465(19) 0.59207(19) 0.036(3) Uiso 1.000000 R
C7 C 0.50039(19) 0.62912(19) 0.68299(19) 0.042(3) Uani 1.000000 .
H7a H 0.54122(19) 0.61126(19) 0.76445(19) 0.050(4) Uiso 1.000000 R
H7b H 0.60657(19) 0.62730(19) 0.62646(19) 0.050(4) Uiso 1.000000 R
C8 C 0.38146(19) 0.81221(19) 0.65274(19) 0.038(3) Uani 1.000000 .
H8 H 0.35874(19) 0.84014(19) 0.56579(19) 0.046(4) Uiso 1.000000 R
loop_
_atom_site_aniso_label
_atom_site_aniso_U_11
_atom_site_aniso_U_22
_atom_site_aniso_U_33
_atom_site_aniso_U_12
_atom_site_aniso_U_13
_atom_site_aniso_U_23
Br1 0.0282(9) 0.0454(9) 0.0480(11) -0.0022(6) -0.0117(7) -0.0112(7)
Br2 0.0296(8) 0.0542(10) 0.0432(10) -0.0034(6) -0.0044(6) -0.0188(7)
Br3 0.0942(15) 0.0462(10) 0.0613(12) -0.0375(9) -0.0012(10) -0.0160(8)
Br4 0.0707(12) 0.0432(10) 0.0528(11) -0.0162(8) -0.0136(9) 0.0002(7)
Se1 0.0211(8) 0.0689(12) 0.0428(10) 0.0017(7) -0.0032(6) -0.0108(8)
C1 0.042(6) 0.036(6) 0.032(7) 0.005(5) 0.005(6) -0.016(5)
C2 0.048(7) 0.041(7) 0.072(10) -0.002(6) 0.008(7) -0.033(7)
C3 0.028(6) 0.054(7) 0.020(6) -0.014(5) 0.005(5) -0.013(5)
C4 0.032(6) 0.049(7) 0.028(7) -0.007(5) -0.001(5) -0.013(6)
C5 0.028(6) 0.029(6) 0.059(9) -0.010(5) -0.016(6) -0.006(6)
C6 0.042(6) 0.032(6) 0.019(6) -0.007(5) 0.000(5) -0.012(5)
C7 0.021(6) 0.040(6) 0.067(10) -0.002(5) -0.001(6) -0.019(6)
C8 0.053(7) 0.024(6) 0.040(8) -0.011(5) -0.002(6) -0.011(5)
loop_
_atom_type_symbol
_atom_type_scat_dispersion_real
_atom_type_scat_dispersion_imag
_atom_type_scat_Cromer_Mann_a1
_atom_type_scat_Cromer_Mann_a2
_atom_type_scat_Cromer_Mann_a3
_atom_type_scat_Cromer_Mann_a4
_atom_type_scat_Cromer_Mann_b1
_atom_type_scat_Cromer_Mann_b2
_atom_type_scat_Cromer_Mann_b3
_atom_type_scat_Cromer_Mann_b4
_atom_type_scat_Cromer_Mann_c
_atom_type_scat_source
_atom_type_scat_dispersion_source
H 0.00000 0.00000 0.49300 0.32291 0.14019 0.04081 10.51090 26.12570 3.14236
57.79970 0.0030380000826
'International Tables Volume C Table 6.1.1.4 (pp. 500-502)'
'Henke, Gullikson and Davis, At. Data and Nucl. Data Tables, 1993, 54, 2'
C 0.00347 0.00161 2.31000 1.02000 1.58860 0.86500 20.84390 10.20750 0.56870
51.65120 0.215599998832
'International Tables Volume C Table 6.1.1.4 (pp. 500-502)'
'Henke, Gullikson and Davis, At. Data and Nucl. Data Tables, 1993, 54, 2'
Br -0.28346 2.55990 17.17890 5.23580 5.63770 3.98510 2.17230 16.57960 0.26090
41.43280 2.95569992065
'International Tables Volume C Table 6.1.1.4 (pp. 500-502)'
'Henke, Gullikson and Davis, At. Data and Nucl. Data Tables, 1993, 54, 2'
Se -0.08110 2.30834 17.00060 5.81960 3.97310 4.35430 2.40980 0.27260 15.23720
43.81630 2.84089994431
'International Tables Volume C Table 6.1.1.4 (pp. 500-502)'
'Henke, Gullikson and Davis, At. Data and Nucl. Data Tables, 1993, 54, 2'
loop_
_geom_angle_atom_site_label_1
_geom_angle_atom_site_label_2
_geom_angle_atom_site_label_3
_geom_angle
Se1 Br1 Br2 178.71(5)
C1 Se1 Br1 103.12(8)
C5 Se1 Br1 104.52(8)
C5 Se1 C1 90.54(8)
H1 C1 Se1 107.28(5)
C2 C1 Se1 105.79(11)
C2 C1 H1 107.28(8)
C8 C1 Se1 108.99(14)
C8 C1 H1 107.28(8)
C8 C1 C2 119.65(14)
H2a C2 C1 107.87(9)
H2b C2 C1 107.87(8)
H2b C2 H2a 107.2
C3 C2 C1 117.75(16)
C3 C2 H2a 107.87(10)
C3 C2 H2b 107.87(8)
H3a C3 C2 108.65(8)
H3b C3 C2 108.65(11)
H3b C3 H3a 107.6
C4 C3 C2 114.45(15)
C4 C3 H3a 108.65(8)
C4 C3 H3b 108.65(10)
C3 C4 Br4 107.63(12)
H4 C4 Br4 106.67(6)
H4 C4 C3 106.67(8)
C5 C4 Br4 110.07(12)
C5 C4 C3 118.51(14)
C5 C4 H4 106.67(8)
C4 C5 Se1 103.01(11)
H5 C5 Se1 107.73(6)
H5 C5 C4 107.73(9)
C6 C5 Se1 110.89(11)
C6 C5 C4 119.21(15)
C6 C5 H5 107.73(10)
H6a C6 C5 108.19(8)
H6b C6 C5 108.19(11)
H6b C6 H6a 107.3
C7 C6 C5 116.40(15)
C7 C6 H6a 108.19(7)
C7 C6 H6b 108.19(11)
H7a C7 C6 108.59(10)
H7b C7 C6 108.59(9)
H7b C7 H7a 107.6
C8 C7 C6 114.68(13)
C8 C7 H7a 108.59(12)
C8 C7 H7b 108.59(9)
C1 C8 Br3 108.01(14)
C7 C8 Br3 106.26(12)
C7 C8 C1 115.82(13)
H8 C8 Br3 108.85(7)
H8 C8 C1 108.85(11)
H8 C8 C7 108.85(12)
loop_
_geom_bond_atom_site_label_1
_geom_bond_atom_site_label_2
_geom_bond_distance
Br1 Br2 2.6263(17)
Br1 Se1 2.5099(17)
Br3 C8 1.968(2)
Br4 C4 1.9733(18)
Se1 C1 1.991(2)
Se1 C5 1.9825(17)
C1 H1 0.9800
C1 C2 1.495(3)
C1 C8 1.515(2)
C2 H2a 0.9700
C2 H2b 0.9700
C2 C3 1.551(2)
C3 H3a 0.9700
C3 H3b 0.9700
C3 C4 1.522(3)
C4 H4 0.9800
C4 C5 1.481(3)
C5 H5 0.9800
C5 C6 1.540(2)
C6 H6a 0.9700
C6 H6b 0.9700
C6 C7 1.555(2)
C7 H7a 0.9700
C7 H7b 0.9700
C7 C8 1.5325(19)
C8 H8 0.9800
