#------------------------------------------------------------------------------
#$Date: 2020-10-06 12:33:24 +0300 (Tue, 06 Oct 2020) $
#$Revision: 257636 $
#$URL: file:///home/coder/svn-repositories/cod/cif/7/05/97/7059773.cif $
#------------------------------------------------------------------------------
#
# This file is available in the Crystallography Open Database (COD),
# http://www.crystallography.net/
#
# All data on this site have been placed in the public domain by the
# contributors.
#
data_7059773
loop_
_publ_author_name
'J\"a\"askel\"ainen, Sirpa'
'Koshevoy, Igor O.'
'Suvanto, Sari'
'Ryh\"anen, Tiina'
'Hirva, Pipsa'
_publ_section_title
;
 Vinylimidazole coordination modes to Pt and Au metal centers
;
_journal_issue                   29
_journal_name_full               'New Journal of Chemistry'
_journal_page_first              12762
_journal_page_last               12770
_journal_paper_doi               10.1039/D0NJ00845A
_journal_volume                  44
_journal_year                    2020
_chemical_formula_moiety         'C10 H12 Au N4, Au Br2 [+ solvent]'
_chemical_formula_sum            'C10 H12 Au2 Br2 N4'
_chemical_formula_weight         741.99
_space_group_crystal_system      triclinic
_space_group_IT_number           2
_space_group_name_Hall           '-P 1'
_space_group_name_H-M_alt        'P -1'
_atom_sites_solution_hydrogens   geom
_audit_creation_method           SHELXL-2018/3
_audit_update_record
;
2020-06-24 deposited with the CCDC.	2020-06-29 downloaded from the CCDC.
;
_cell_angle_alpha                71.099(3)
_cell_angle_beta                 84.673(4)
_cell_angle_gamma                68.279(4)
_cell_formula_units_Z            2
_cell_length_a                   7.3655(13)
_cell_length_b                   9.5071(16)
_cell_length_c                   14.007(2)
_cell_measurement_reflns_used    9924
_cell_measurement_temperature    150(2)
_cell_measurement_theta_max      37.99
_cell_measurement_theta_min      3.84
_cell_volume                     861.7(2)
_computing_cell_refinement       'Bruker SAINT'
_computing_data_collection       'Bruker APEX2'
_computing_data_reduction        'Bruker SAINT'
_computing_molecular_graphics    'Diamond v.4.03 (Brandenburg, 2014)'
_computing_publication_material  'SHELXL-2018/3 (Sheldrick, 2018)'
_computing_structure_refinement  'SHELXL-2018/3 (Sheldrick, 2018)'
_computing_structure_solution    'SHELXS-2018/3 (Sheldrick, 2018)'
_diffrn_ambient_temperature      150(2)
_diffrn_detector_area_resol_mean 16
_diffrn_measured_fraction_theta_full 0.990
_diffrn_measured_fraction_theta_max 0.993
_diffrn_measurement_device       '62mm x 62mm CCD camera on \k-goniostat'
_diffrn_measurement_device_type  'Bruker KAPPA APEX II CCD'
_diffrn_measurement_method       '\f scans and \w scans with \k offset'
_diffrn_radiation_monochromator  'horizontally mounted graphite crystal'
_diffrn_radiation_type           MoK\a
_diffrn_radiation_wavelength     0.71073
_diffrn_reflns_av_R_equivalents  0.0348
_diffrn_reflns_av_unetI/netI     0.0318
_diffrn_reflns_Laue_measured_fraction_full 0.990
_diffrn_reflns_Laue_measured_fraction_max 0.993
_diffrn_reflns_limit_h_max       10
_diffrn_reflns_limit_h_min       -10
_diffrn_reflns_limit_k_max       12
_diffrn_reflns_limit_k_min       -12
_diffrn_reflns_limit_l_max       19
_diffrn_reflns_limit_l_min       -19
_diffrn_reflns_number            17834
_diffrn_reflns_point_group_measured_fraction_full 0.990
_diffrn_reflns_point_group_measured_fraction_max 0.993
_diffrn_reflns_theta_full        25.242
_diffrn_reflns_theta_max         28.998
_diffrn_reflns_theta_min         3.269
_exptl_absorpt_coefficient_mu    21.634
_exptl_absorpt_correction_T_max  0.142
_exptl_absorpt_correction_T_min  0.016
_exptl_absorpt_correction_type   numerical
_exptl_absorpt_process_details   'SADABS (Sheldrick, 2008)'
_exptl_crystal_colour            violet
_exptl_crystal_density_diffrn    2.860
_exptl_crystal_description       block
_exptl_crystal_F_000             656
_exptl_crystal_size_max          1.060
_exptl_crystal_size_mid          0.254
_exptl_crystal_size_min          0.148
_refine_diff_density_max         2.992
_refine_diff_density_min         -1.442
_refine_diff_density_rms         0.221
_refine_ls_extinction_method     none
_refine_ls_goodness_of_fit_ref   1.086
_refine_ls_hydrogen_treatment    constr
_refine_ls_matrix_type           full
_refine_ls_number_parameters     163
_refine_ls_number_reflns         4535
_refine_ls_number_restraints     0
_refine_ls_restrained_S_all      1.086
_refine_ls_R_factor_all          0.0373
_refine_ls_R_factor_gt           0.0323
_refine_ls_shift/su_max          0.001
_refine_ls_shift/su_mean         0.000
_refine_ls_structure_factor_coef Fsqd
_refine_ls_weighting_details
'w=1/[\s^2^(Fo^2^)+(0.0274P)^2^+7.8776P] where P=(Fo^2^+2Fc^2^)/3'
_refine_ls_weighting_scheme      calc
_refine_ls_wR_factor_gt          0.0757
_refine_ls_wR_factor_ref         0.0777
_reflns_Friedel_coverage         0.000
_reflns_number_gt                4072
_reflns_number_total             4535
_reflns_threshold_expression     'I > 2\s(I)'
_cod_data_source_file            d0nj00845a2.cif
_cod_data_source_block           2
_cod_depositor_comments
;Adding full bibliography for 7059770--7059773.cif.

 Adding full bibliography for 7059770--7059773.cif.
;
_cod_original_cell_volume        861.6(3)
_cod_database_code               7059773
_shelx_shelxl_version_number     2018/3
_shelx_space_group_comment
;
The symmetry employed for this shelxl refinement is uniquely defined
by the following loop, which should always be used as a source of
symmetry information in preference to the above space-group names.
They are only intended as comments.
;
_shelx_estimated_absorpt_t_min   0.016
_shelx_estimated_absorpt_t_max   0.142
_shelx_res_file
;
TITL xnaa in P-1
    shelx.res
    created by SHELXL-2018/3 at 12:29:59 on 12-Feb-2020
CELL  0.71073   7.3655   9.5071  14.0066   71.099   84.673   68.279
ZERR     2.00   0.0013   0.0016   0.0024    0.003    0.004    0.004
LATT   1
SFAC  C    H    N    BR   AU
UNIT  20 24 8 4 4
MERG   2
OMIT    -2.00  58.00
OMIT     1   5   2
OMIT     1   1   2
OMIT     1   4   9
OMIT     1   0   4
OMIT     0   3   1
OMIT     1  -3   1
OMIT     2   1   2
OMIT     2  -5   2
OMIT    -1   4  10
OMIT    -1  -2   8
ABIN
FMAP   2
PLAN   20
SIZE     0.148   0.254   1.060
ACTA
BOND   $H
L.S.   4
TEMP  -123.15
WGHT    0.027400    7.877600
FVAR       0.08743
C2    1    0.394272    0.343448    0.622765    11.00000    0.02562    0.01734 =
         0.02544   -0.00945   -0.00221   -0.00564
AFIX  43
H2    2    0.319827    0.415169    0.658124    11.00000   -1.20000
AFIX   0
C2A   1   -0.028868    0.787240    0.236240    11.00000    0.02572    0.01874 =
         0.02677   -0.00452   -0.00424   -0.00567
AFIX  43
H2A   2    0.037680    0.713489    0.200890    11.00000   -1.20000
AFIX   0
C4    1    0.510512    0.238501    0.504349    11.00000    0.02888    0.03065 =
         0.02487   -0.01119   -0.00088   -0.00198
AFIX  43
H4    2    0.530243    0.225614    0.439236    11.00000   -1.20000
AFIX   0
C4A   1   -0.129214    0.892217    0.356627    11.00000    0.03098    0.01470 =
         0.01946   -0.00963   -0.00634    0.00577
AFIX  43
H4A   2   -0.147035    0.904337    0.421952    11.00000   -1.20000
AFIX   0
C5    1    0.614216    0.133379    0.589729    11.00000    0.03256    0.02355 =
         0.02330   -0.01492   -0.00174    0.00624
AFIX  43
H5    2    0.716817    0.033803    0.596349    11.00000   -1.20000
AFIX   0
C5A   1   -0.218880    1.004677    0.268608    11.00000    0.03694    0.02194 =
         0.02870   -0.01010   -0.00761   -0.00306
AFIX  43
H5A   2   -0.307041    1.110221    0.261299    11.00000   -1.20000
AFIX   0
C6    1    0.596394    0.136304    0.767936    11.00000    0.03557    0.03218 =
         0.01890   -0.00261   -0.00590   -0.01080
AFIX  43
H6    2    0.534318    0.199924    0.810208    11.00000   -1.20000
AFIX   0
C6A   1   -0.206084    1.004318    0.088557    11.00000    0.03503    0.03326 =
         0.01542   -0.00493   -0.00432   -0.00640
AFIX  43
H6A   2   -0.145897    0.940069    0.046420    11.00000   -1.20000
AFIX   0
C7    1    0.727484   -0.004297    0.809950    11.00000    0.04706    0.02883 =
         0.02716   -0.00254   -0.00758   -0.00973
AFIX  93
H7A   2    0.792829   -0.071495    0.770218    11.00000   -1.20000
H7B   2    0.757486   -0.039366    0.880241    11.00000   -1.20000
AFIX   0
C7A   1   -0.327224    1.148411    0.046359    11.00000    0.05143    0.03168 =
         0.02658    0.00042   -0.01084   -0.00765
AFIX  93
H7AA  2   -0.389909    1.215781    0.086341    11.00000   -1.20000
H7BA  2   -0.353046    1.186317   -0.024453    11.00000   -1.20000
AFIX   0
N1    3    0.539665    0.201215    0.664368    11.00000    0.02517    0.01926 =
         0.02036   -0.00719   -0.00364   -0.00376
N1A   3   -0.158099    0.937026    0.193079    11.00000    0.02896    0.01795 =
         0.02041   -0.00305   -0.00277   -0.00569
N3    3    0.372652    0.366351    0.526912    11.00000    0.02214    0.02374 =
         0.02482   -0.00736   -0.00193   -0.00434
N3A   3   -0.008822    0.758696    0.333331    11.00000    0.02331    0.01936 =
         0.02723   -0.00506   -0.00652   -0.00512
BR1   4   -0.041731    0.264850    0.368822    11.00000    0.03449    0.02646 =
         0.03765   -0.01426   -0.00215   -0.00491
BR2   4    0.442982    0.463734    0.193436    11.00000    0.04420    0.02921 =
         0.03741   -0.01158    0.00496   -0.00792
AU1   5    0.175370    0.558615    0.430729    11.00000    0.02274    0.01751 =
         0.02175   -0.00353   -0.00307   -0.00423
AU2   5    0.200352    0.366671    0.283513    11.00000    0.03420    0.02008 =
         0.02490   -0.00909   -0.00639   -0.00127
HKLF    4  1.0  1.00  0.00  0.00  0.00  1.00  0.00  0.00  0.00  1.00




REM  xnaa in P-1
REM wR2 = 0.0777, GooF = S = 1.086, Restrained GooF = 1.086 for all data
REM R1 = 0.0323 for 4072 Fo > 4sig(Fo) and 0.0373 for all 4535 data
REM 163 parameters refined using 0 restraints

END

WGHT      0.0273      6.9031

REM Highest difference peak  2.992,  deepest hole -1.442,  1-sigma level  0.221
Q1    1   0.4451  0.1745  0.7935  11.00000  0.05    2.99
Q2    1  -0.4707  1.0280  0.3475  11.00000  0.05    2.63
Q3    1   0.8379  0.0826  0.5059  11.00000  0.05    2.17
Q4    1   0.1284  0.5049  0.4638  11.00000  0.05    1.40
Q5    1   0.1924  0.5601  0.4823  11.00000  0.05    1.37
Q6    1   0.2436  0.6016  0.3995  11.00000  0.05    1.28
Q7    1  -0.1918  0.8769  0.3720  11.00000  0.05    1.24
Q8    1   0.5222  0.4026  0.4225  11.00000  0.05    1.13
Q9    1   0.2796  0.3988  0.2497  11.00000  0.05    1.04
Q10   1   0.2003  0.3583  0.2211  11.00000  0.05    1.02
Q11   1   0.1607  0.5576  0.3641  11.00000  0.05    0.86
Q12   1   0.4024  0.2170  0.5359  11.00000  0.05    0.83
Q13   1   0.6862  0.2594  0.6977  11.00000  0.05    0.81
Q14   1   0.2504  0.6352  0.4423  11.00000  0.05    0.79
Q15   1  -0.0904  0.8499  0.3470  11.00000  0.05    0.78
Q16   1  -0.2178  0.9178  0.1074  11.00000  0.05    0.77
Q17   1   0.0372  0.8818  0.0728  11.00000  0.05    0.76
Q18   1   0.0609  0.7797  0.2883  11.00000  0.05    0.75
Q19   1   0.0607  0.5638  0.4433  11.00000  0.05    0.73
Q20   1   0.3766  0.3942  0.1930  11.00000  0.05    0.72
;
_shelx_res_checksum              38943
_shelx_fab_file
;
    2    0    0      4.05      0.00
    3    0    0     -0.37      0.00
    4    0    0     -2.21      0.00
    5    0    0     -2.34      0.00
    6    0    0     -2.11      0.00
    7    0    0      0.41      0.00
    8    0    0      1.12      0.00
    9    0    0     -0.61      0.00
   10    0    0     -0.21      0.00
   11    0    0     -0.09      0.00
  -11    1    0      0.87      0.00
  -10    1    0     -1.62      0.00
   -9    1    0     -0.40      0.00
   -8    1    0     -0.03      0.00
   -7    1    0      0.03      0.00
   -6    1    0      1.90      0.00
   -5    1    0      2.97      0.00
   -4    1    0      3.05      0.00
   -3    1    0     -0.01      0.00
   -2    1    0     -2.43      0.00
   -1    1    0    -18.89      0.00
    2    1    0     -0.90      0.00
    3    1    0      6.74      0.00
    4    1    0      3.90      0.00
    5    1    0      2.00      0.00
    6    1    0      1.31      0.00
    7    1    0     -1.01      0.00
    8    1    0     -2.26      0.00
    9    1    0     -0.48      0.00
   10    1    0      0.94      0.00
   11    1    0      0.10      0.00
   12    1    0      0.31      0.00
  -11    2    0     -1.50      0.00
   -9    2    0      1.85      0.00
   -8    2    0     -0.03      0.00
   -7    2    0     -1.01      0.00
   -6    2    0     -1.22      0.00
   -5    2    0     -2.65      0.00
   -4    2    0     -3.54      0.00
   -3    2    0     -2.97      0.00
   -2    2    0     -2.00      0.00
   -1    2    0     -4.27      0.00
    2    2    0     -1.47      0.00
    3    2    0     -8.80      0.00
    4    2    0     -6.60      0.00
    5    2    0     -2.35      0.00
    6    2    0     -0.64      0.00
    7    2    0      1.15      0.00
    8    2    0      2.28      0.00
    9    2    0      1.32      0.00
   10    2    0     -0.11      0.00
   11    2    0     -0.65      0.00
   12    2    0      0.12      0.00
   -8    3    0     -0.10      0.00
   -7    3    0      1.35      0.00
   -6    3    0      0.67      0.00
   -5    3    0      0.55      0.00
   -4    3    0      1.63      0.00
   -3    3    0      1.78      0.00
   -2    3    0      2.62      0.00
   -1    3    0      5.70      0.00
    0    3    0     10.78      0.00
    2    3    0      1.30      0.00
    3    3    0      3.50      0.00
    4    3    0      6.53      0.00
    5    3    0      3.27      0.00
    6    3    0      0.73      0.00
    7    3    0      0.10      0.00
    8    3    0     -0.74      0.00
    9    3    0     -0.64      0.00
   10    3    0     -0.89      0.00
   11    3    0      0.68      0.00
   12    3    0      0.13      0.00
   -8    4    0     -0.61      0.00
   -7    4    0     -0.60      0.00
   -6    4    0      0.09      0.00
   -5    4    0      1.83      0.00
   -4    4    0      1.26      0.00
   -3    4    0      1.28      0.00
   -2    4    0     -0.21      0.00
   -1    4    0     -1.81      0.00
    0    4    0     -5.24      0.00
    1    4    0     -7.36      0.00
    2    4    0     -1.56      0.00
    3    4    0      0.96      0.00
    4    4    0     -2.77      0.00
    5    4    0     -2.76      0.00
    6    4    0     -0.51      0.00
    7    4    0     -0.35      0.00
    8    4    0     -0.62      0.00
    9    4    0     -0.65      0.00
   10    4    0      1.08      0.00
   11    4    0      0.41      0.00
   12    4    0     -0.46      0.00
   -8    5    0      0.92      0.00
   -7    5    0      0.14      0.00
   -6    5    0     -0.53      0.00
   -5    5    0     -2.41      0.00
   -4    5    0     -2.94      0.00
   -3    5    0     -2.58      0.00
   -2    5    0     -0.88      0.00
   -1    5    0      1.05      0.00
    0    5    0      2.73      0.00
    1    5    0      5.17      0.00
    2    5    0      2.36      0.00
    3    5    0     -2.46      0.00
    4    5    0     -2.55      0.00
    5    5    0     -0.65      0.00
    6    5    0     -0.53      0.00
    7    5    0     -1.09      0.00
    8    5    0     -0.07      0.00
    9    5    0      1.03      0.00
   10    5    0     -0.12      0.00
   11    5    0     -1.26      0.00
   12    5    0      0.07      0.00
   -8    6    0     -0.23      0.00
   -7    6    0     -0.26      0.00
   -6    6    0      0.11      0.00
   -5    6    0      1.20      0.00
   -4    6    0      2.60      0.00
   -3    6    0      2.86      0.00
   -2    6    0      0.89      0.00
   -1    6    0     -0.69      0.00
    0    6    0     -1.55      0.00
    1    6    0     -3.85      0.00
    2    6    0     -2.34      0.00
    3    6    0      3.02      0.00
    4    6    0      5.69      0.00
    5    6    0      3.88      0.00
    6    6    0      1.44      0.00
    7    6    0      1.55      0.00
    8    6    0      0.88      0.00
    9    6    0     -0.09      0.00
   10    6    0     -0.42      0.00
   11    6    0      0.73      0.00
   12    6    0      0.94      0.00
   -8    7    0     -0.41      0.00
   -7    7    0      0.43      0.00
   -6    7    0      0.49      0.00
   -5    7    0      0.25      0.00
   -4    7    0     -1.06      0.00
   -3    7    0     -2.36      0.00
   -2    7    0     -1.07      0.00
   -1    7    0      0.59      0.00
    0    7    0      0.71      0.00
    1    7    0      2.36      0.00
    2    7    0      2.46      0.00
    3    7    0     -1.19      0.00
    4    7    0     -4.21      0.00
    5    7    0     -3.75      0.00
    6    7    0     -1.37      0.00
    7    7    0     -0.87      0.00
    8    7    0     -0.33      0.00
    9    7    0     -0.47      0.00
   10    7    0     -0.59      0.00
   11    7    0     -0.05      0.00
   12    7    0     -1.39      0.00
   -8    8    0      0.85      0.00
   -7    8    0     -0.42      0.00
   -6    8    0     -0.82      0.00
   -5    8    0     -0.77      0.00
   -4    8    0     -0.36      0.00
   -3    8    0      0.97      0.00
   -2    8    0      1.00      0.00
   -1    8    0     -0.51      0.00
    0    8    0     -1.43      0.00
    1    8    0     -2.45      0.00
    2    8    0     -2.82      0.00
    3    8    0     -1.45      0.00
    4    8    0      0.46      0.00
    5    8    0      1.90      0.00
    6    8    0      0.87      0.00
    7    8    0      0.23      0.00
    8    8    0      0.07      0.00
    9    8    0     -0.09      0.00
   10    8    0      1.16      0.00
   11    8    0      0.13      0.00
   12    8    0      0.58      0.00
   -7    9    0     -0.01      0.00
   -6    9    0      1.01      0.00
   -5    9    0      0.38      0.00
   -4    9    0      0.95      0.00
   -3    9    0      0.85      0.00
   -2    9    0     -0.33      0.00
   -1    9    0     -0.29      0.00
    0    9    0      0.80      0.00
    1    9    0      1.54      0.00
    2    9    0      1.83      0.00
    3    9    0      1.55      0.00
    4    9    0      1.63      0.00
    5    9    0      0.01      0.00
    6    9    0     -0.67      0.00
    7    9    0      0.51      0.00
    8    9    0      0.19      0.00
    9    9    0      0.73      0.00
   10    9    0     -0.42      0.00
   11    9    0     -0.70      0.00
   12    9    0      0.33      0.00
   -6   10    0     -1.03      0.00
   -5   10    0      0.16      0.00
   -4   10    0     -0.12      0.00
   -3   10    0     -2.14      0.00
   -2   10    0     -1.14      0.00
   -1   10    0      0.77      0.00
    0   10    0      0.41      0.00
    1   10    0      0.35      0.00
    2   10    0      0.06      0.00
    3   10    0     -0.55      0.00
    4   10    0     -1.27      0.00
    5   10    0     -1.63      0.00
    6   10    0      0.15      0.00
    7   10    0     -0.21      0.00
    8   10    0     -0.81      0.00
    9   10    0     -1.44      0.00
   10   10    0     -0.23      0.00
   11   10    0      1.94      0.00
   -5   11    0     -0.27      0.00
   -4   11    0     -1.79      0.00
   -3   11    0      0.82      0.00
   -2   11    0      1.98      0.00
   -1   11    0     -0.57      0.00
    0   11    0     -1.23      0.00
    1   11    0     -0.95      0.00
    2   11    0     -1.49      0.00
    3   11    0     -0.31      0.00
    4   11    0     -0.17      0.00
    5   11    0      0.93      0.00
    6   11    0      0.45      0.00
    7   11    0     -1.27      0.00
    8   11    0     -0.44      0.00
    9   11    0      1.58      0.00
   10   11    0      0.63      0.00
   11   11    0     -2.96      0.00
   12   11    0     -1.88      0.00
   -4   12    0      2.55      0.00
   -3   12    0      2.00      0.00
   -2   12    0     -0.57      0.00
   -1   12    0     -0.02      0.00
    0   12    0      1.54      0.00
    1   12    0      1.17      0.00
    2   12    0      2.18      0.00
    3   12    0      1.89      0.00
    4   12    0      1.26      0.00
    5   12    0      1.19      0.00
    6   12    0      0.09      0.00
    7   12    0      1.36      0.00
    8   12    0      2.15      0.00
    9   12    0      0.18      0.00
   10   12    0     -0.55      0.00
   -2   13    0     -1.05      0.00
   -1   13    0      0.55      0.00
    0   13    0      0.34      0.00
    1   13    0     -0.25      0.00
    2   13    0     -1.35      0.00
    3   13    0     -2.50      0.00
    4   13    0     -1.04      0.00
    5   13    0     -0.79      0.00
    6   13    0     -0.56      0.00
    7   13    0     -0.07      0.00
    8   13    0     -1.05      0.00
    9   13    0     -1.74      0.00
   10   13    0     -0.69      0.00
   -1   14    0     -0.23      0.00
    0   14    0     -1.76      0.00
    1   14    0     -1.52      0.00
    2   14    0     -0.35      0.00
    5   14    0     -0.96      0.00
    6   14    0     -0.15      0.00
    7   14    0     -0.36      0.00
    8   14    0     -0.79      0.00
    9   14    0      0.94      0.00
    1   15    0      1.02      0.00
    2   15    0      0.40      0.00
    6   15    0      0.26      0.00
    7   15    0     -0.06      0.00
   -7  -15    1      0.20      0.00
   -6  -15    1      0.32      0.00
   -5  -15    1     -0.03      0.00
   -2  -15    1      0.50      0.00
   -9  -14    1      0.27      0.00
   -8  -14    1     -0.14      0.00
   -7  -14    1     -0.07      0.00
   -6  -14    1     -0.54      0.00
   -5  -14    1     -1.13      0.00
   -1  -14    1     -1.82      0.00
    0  -14    1     -1.81      0.00
    1  -14    1     -0.82      0.00
  -10  -13    1     -0.95      0.00
   -9  -13    1     -1.18      0.00
   -8  -13    1     -1.04      0.00
   -7  -13    1     -0.19      0.00
   -6  -13    1      0.42      0.00
   -5  -13    1      0.30      0.00
   -4  -13    1     -0.33      0.00
   -2  -13    1     -0.69      0.00
   -1  -13    1      0.25      0.00
    0  -13    1      0.04      0.00
    1  -13    1      0.53      0.00
    2  -13    1      0.11      0.00
  -10  -12    1      0.37      0.00
   -9  -12    1      0.21      0.00
   -8  -12    1      1.89      0.00
   -7  -12    1      1.50      0.00
   -6  -12    1     -0.36      0.00
   -5  -12    1      0.30      0.00
   -4  -12    1      1.34      0.00
   -3  -12    1      2.47      0.00
   -2  -12    1      2.58      0.00
   -1  -12    1      1.09      0.00
    0  -12    1      1.76      0.00
    1  -12    1      0.87      0.00
    2  -12    1     -0.40      0.00
    3  -12    1      0.71      0.00
  -12  -11    1     -1.79      0.00
  -11  -11    1     -3.41      0.00
  -10  -11    1      0.12      0.00
   -9  -11    1      1.71      0.00
   -8  -11    1     -0.24      0.00
   -7  -11    1     -1.66      0.00
   -6  -11    1     -0.24      0.00
   -5  -11    1      0.86      0.00
   -4  -11    1     -0.47      0.00
   -3  -11    1     -1.05      0.00
   -2  -11    1     -1.82      0.00
   -1  -11    1     -0.75      0.00
    0  -11    1     -0.57      0.00
    1  -11    1     -0.68      0.00
    2  -11    1      1.04      0.00
    3  -11    1      1.28      0.00
    4  -11    1     -0.66      0.00
    5  -11    1     -0.25      0.00
  -12  -10    1     -0.18      0.00
  -11  -10    1      1.81      0.00
  -10  -10    1     -0.27      0.00
   -9  -10    1     -2.18      0.00
   -8  -10    1     -1.28      0.00
   -7  -10    1     -0.04      0.00
   -6  -10    1      0.84      0.00
   -5  -10    1     -1.01      0.00
   -4  -10    1     -1.34      0.00
   -3  -10    1     -0.60      0.00
   -2  -10    1     -0.15      0.00
   -1  -10    1     -0.17      0.00
    0  -10    1     -0.49      0.00
    1  -10    1     -0.13      0.00
    2  -10    1     -0.81      0.00
    3  -10    1     -2.12      0.00
    4  -10    1     -1.42      0.00
    5  -10    1     -0.05      0.00
    6  -10    1     -0.78      0.00
  -12   -9    1      1.32      0.00
  -11   -9    1      0.09      0.00
  -10   -9    1     -0.30      0.00
   -9   -9    1      1.22      0.00
   -8   -9    1      0.72      0.00
   -7   -9    1      0.50      0.00
   -6   -9    1     -0.72      0.00
   -5   -9    1     -0.50      0.00
   -4   -9    1      1.21      0.00
   -3   -9    1      1.55      0.00
   -2   -9    1      1.71      0.00
   -1   -9    1      1.58      0.00
    0   -9    1      0.91      0.00
    1   -9    1      0.18      0.00
    2   -9    1     -0.07      0.00
    3   -9    1      0.64      0.00
    4   -9    1      1.68      0.00
    5   -9    1      0.75      0.00
    6   -9    1      0.26      0.00
    7   -9    1      0.07      0.00
  -12   -8    1     -0.42      0.00
  -11   -8    1     -0.58      0.00
  -10   -8    1      1.33      0.00
   -9   -8    1      0.21      0.00
   -8   -8    1     -0.03      0.00
   -7   -8    1      0.53      0.00
   -6   -8    1      0.84      0.00
   -5   -8    1      1.80      0.00
   -4   -8    1      1.32      0.00
   -3   -8    1     -0.68      0.00
   -2   -8    1     -2.48      0.00
   -1   -8    1     -2.27      0.00
    0   -8    1     -1.23      0.00
    1   -8    1     -0.39      0.00
    2   -8    1      0.56      0.00
    3   -8    1      1.06      0.00
    4   -8    1     -0.04      0.00
    5   -8    1     -1.00      0.00
    6   -8    1     -0.61      0.00
    7   -8    1     -0.33      0.00
  -12   -7    1     -0.82      0.00
  -11   -7    1     -0.11      0.00
  -10   -7    1     -1.14      0.00
   -9   -7    1     -0.84      0.00
   -8   -7    1     -0.17      0.00
   -7   -7    1     -1.15      0.00
   -6   -7    1     -1.36      0.00
   -5   -7    1     -2.65      0.00
   -4   -7    1     -4.27      0.00
   -3   -7    1     -2.52      0.00
   -2   -7    1      1.86      0.00
   -1   -7    1      2.44      0.00
    0   -7    1      0.60      0.00
    1   -7    1      0.17      0.00
    2   -7    1     -0.89      0.00
    3   -7    1     -2.18      0.00
    4   -7    1     -1.85      0.00
    5   -7    1     -0.02      0.00
    6   -7    1      1.13      0.00
    7   -7    1      0.73      0.00
  -12   -6    1      0.64      0.00
  -11   -6    1      0.97      0.00
  -10   -6    1      0.14      0.00
   -9   -6    1     -0.28      0.00
   -8   -6    1      0.15      0.00
   -7   -6    1      1.47      0.00
   -6   -6    1      1.37      0.00
   -5   -6    1      2.18      0.00
   -4   -6    1      4.57      0.00
   -3   -6    1      4.26      0.00
   -2   -6    1     -1.07      0.00
   -1   -6    1     -4.15      0.00
    0   -6    1     -2.04      0.00
    1   -6    1     -0.29      0.00
    2   -6    1      1.35      0.00
    3   -6    1      2.60      0.00
    4   -6    1      2.83      0.00
    5   -6    1      1.75      0.00
    6   -6    1     -0.35      0.00
    7   -6    1     -0.77      0.00
    8   -6    1      0.12      0.00
  -12   -5    1      0.36      0.00
  -11   -5    1     -0.79      0.00
  -10   -5    1     -0.22      0.00
   -9   -5    1      1.43      0.00
   -8   -5    1      0.72      0.00
   -7   -5    1     -0.91      0.00
   -6   -5    1     -0.87      0.00
   -5   -5    1      0.33      0.00
   -4   -5    1     -0.85      0.00
   -3   -5    1     -2.25      0.00
   -2   -5    1      1.39      0.00
   -1   -5    1      5.62      0.00
    0   -5    1      4.49      0.00
    1   -5    1      1.82      0.00
    2   -5    1     -1.47      0.00
    3   -5    1     -2.48      0.00
    4   -5    1     -2.12      0.00
    5   -5    1     -2.55      0.00
    6   -5    1     -0.78      0.00
    7   -5    1      0.38      0.00
    8   -5    1      0.42      0.00
  -12   -4    1     -0.70      0.00
  -11   -4    1     -0.54      0.00
  -10   -4    1      0.67      0.00
   -9   -4    1     -0.91      0.00
   -8   -4    1     -1.16      0.00
   -7   -4    1     -0.53      0.00
   -6   -4    1      0.28      0.00
   -5   -4    1     -2.09      0.00
   -4   -4    1     -3.81      0.00
   -3   -4    1     -0.67      0.00
   -2   -4    1     -1.15      0.00
   -1   -4    1     -5.66      0.00
    0   -4    1     -5.40      0.00
    1   -4    1     -2.77      0.00
    2   -4    1      0.35      0.00
    3   -4    1      2.07      0.00
    4   -4    1      0.32      0.00
    5   -4    1      1.36      0.00
    6   -4    1      0.58      0.00
    7   -4    1     -0.75      0.00
  -12   -3    1      0.37      0.00
  -11   -3    1      1.42      0.00
  -10   -3    1     -0.15      0.00
   -9   -3    1     -0.24      0.00
   -8   -3    1     -0.17      0.00
   -7   -3    1      0.34      0.00
   -6   -3    1      0.00      0.00
   -5   -3    1      1.34      0.00
   -4   -3    1      5.36      0.00
   -3   -3    1      3.90      0.00
   -2   -3    1      1.30      0.00
   -1   -3    1      3.67      0.00
    0   -3    1      7.34      0.00
    1   -3    1      5.17      0.00
    2   -3    1      2.17      0.00
    3   -3    1     -0.03      0.00
    4   -3    1      1.27      0.00
    5   -3    1      1.16      0.00
    6   -3    1      0.41      0.00
    7   -3    1      1.64      0.00
    8   -3    1      0.69      0.00
  -12   -2    1     -0.24      0.00
  -11   -2    1     -1.01      0.00
  -10   -2    1     -0.82      0.00
   -9   -2    1      0.64      0.00
   -8   -2    1      1.88      0.00
   -7   -2    1      1.44      0.00
   -6   -2    1      0.02      0.00
   -5   -2    1     -0.67      0.00
   -4   -2    1     -4.01      0.00
   -3   -2    1     -7.15      0.00
   -2   -2    1     -4.88      0.00
   -1   -2    1      7.47      0.00
    1   -2    1     -4.15      0.00
    2   -2    1     -2.81      0.00
    3   -2    1     -1.76      0.00
    4   -2    1     -1.92      0.00
    5   -2    1     -2.77      0.00
    6   -2    1     -1.29      0.00
    7   -2    1     -1.23      0.00
    8   -2    1     -0.50      0.00
    9   -2    1      1.84      0.00
   10   -2    1      2.56      0.00
   11   -2    1     -0.62      0.00
  -12   -1    1      0.40      0.00
  -11   -1    1      0.12      0.00
  -10   -1    1      1.25      0.00
   -9   -1    1      0.14      0.00
   -8   -1    1     -2.36      0.00
   -7   -1    1     -2.19      0.00
   -6   -1    1      0.43      0.00
   -5   -1    1      1.74      0.00
   -4   -1    1      2.87      0.00
   -3   -1    1      5.83      0.00
   -2   -1    1      6.92      0.00
    1   -1    1    -18.88      0.00
    2   -1    1     -2.96      0.00
    3   -1    1     -0.40      0.00
    4   -1    1      1.28      0.00
    5   -1    1      2.09      0.00
    6   -1    1      1.98      0.00
    7   -1    1      0.21      0.00
    8   -1    1      0.00      0.00
    9   -1    1     -0.96      0.00
   10   -1    1     -2.28      0.00
   11   -1    1      0.18      0.00
  -11    0    1      0.16      0.00
  -10    0    1     -0.28      0.00
   -9    0    1     -1.03      0.00
   -8    0    1      1.31      0.00
   -7    0    1      1.57      0.00
   -6    0    1     -1.15      0.00
   -5    0    1     -2.96      0.00
   -4    0    1     -3.56      0.00
   -3    0    1     -1.56      0.00
   -2    0    1     -2.40      0.00
    2    0    1     11.43      0.00
    3    0    1      1.69      0.00
    4    0    1     -1.11      0.00
    5    0    1     -0.89      0.00
    6    0    1     -1.82      0.00
    7    0    1     -0.01      0.00
    8    0    1      0.87      0.00
    9    0    1      0.10      0.00
   10    0    1      0.33      0.00
   11    0    1     -0.11      0.00
  -11    1    1      0.52      0.00
  -10    1    1     -1.20      0.00
   -9    1    1      0.12      0.00
   -8    1    1      0.06      0.00
   -7    1    1     -0.31      0.00
   -6    1    1      1.29      0.00
   -5    1    1      3.06      0.00
   -4    1    1      4.76      0.00
   -3    1    1      1.78      0.00
   -2    1    1     -1.19      0.00
   -1    1    1    -13.53      0.00
    2    1    1    -11.93      0.00
    3    1    1      2.88      0.00
    4    1    1      4.11      0.00
    5    1    1      1.55      0.00
    6    1    1      0.91      0.00
    7    1    1     -0.51      0.00
    8    1    1     -1.88      0.00
    9    1    1     -0.88      0.00
   10    1    1      0.24      0.00
   11    1    1      0.30      0.00
   12    1    1      0.51      0.00
  -11    2    1     -1.08      0.00
   -9    2    1      1.19      0.00
   -8    2    1     -0.06      0.00
   -7    2    1     -0.95      0.00
   -6    2    1     -1.14      0.00
   -5    2    1     -2.00      0.00
   -4    2    1     -4.18      0.00
   -3    2    1     -4.49      0.00
   -2    2    1     -1.54      0.00
   -1    2    1     -2.27      0.00
    0    2    1      5.04      0.00
    2    2    1      3.43      0.00
    3    2    1     -6.07      0.00
    4    2    1     -7.66      0.00
    5    2    1     -3.68      0.00
    6    2    1     -0.79      0.00
    7    2    1      1.01      0.00
    8    2    1      2.48      0.00
    9    2    1      1.63      0.00
   10    2    1      0.54      0.00
   11    2    1     -0.51      0.00
   12    2    1     -0.15      0.00
   -8    3    1     -0.28      0.00
   -7    3    1      1.07      0.00
   -6    3    1      1.02      0.00
   -5    3    1     -0.03      0.00
   -4    3    1      1.15      0.00
   -3    3    1      2.91      0.00
   -2    3    1      3.42      0.00
   -1    3    1      5.09      0.00
    0    3    1     11.70      0.00
    1    3    1     11.06      0.00
    2    3    1      3.39      0.00
    3    3    1      2.59      0.00
    4    3    1      6.57      0.00
    5    3    1      4.87      0.00
    6    3    1      1.57      0.00
    7    3    1     -0.01      0.00
    8    3    1     -1.47      0.00
    9    3    1     -1.18      0.00
   10    3    1     -1.20      0.00
   11    3    1      0.24      0.00
   12    3    1      0.29      0.00
   -8    4    1     -0.77      0.00
   -7    4    1     -0.56      0.00
   -6    4    1     -0.76      0.00
   -5    4    1      1.70      0.00
   -4    4    1      2.42      0.00
   -3    4    1      1.25      0.00
   -2    4    1     -1.07      0.00
   -1    4    1     -2.21      0.00
    0    4    1     -5.64      0.00
    1    4    1     -9.64      0.00
    2    4    1     -4.14      0.00
    3    4    1      1.15      0.00
    4    4    1     -1.41      0.00
    5    4    1     -2.81      0.00
    6    4    1     -1.40      0.00
    7    4    1     -0.49      0.00
    8    4    1      0.07      0.00
    9    4    1      0.10      0.00
   10    4    1      1.26      0.00
   11    4    1      0.98      0.00
   12    4    1     -0.20      0.00
   -8    5    1      1.64      0.00
   -7    5    1      0.56      0.00
   -6    5    1      0.51      0.00
   -5    5    1     -1.49      0.00
   -4    5    1     -3.79      0.00
   -3    5    1     -3.53      0.00
   -2    5    1     -0.80      0.00
   -1    5    1      0.93      0.00
    0    5    1      1.88      0.00
    1    5    1      4.60      0.00
    2    5    1      3.43      0.00
    3    5    1     -1.49      0.00
    4    5    1     -3.62      0.00
    5    5    1     -2.23      0.00
    6    5    1     -0.54      0.00
    7    5    1     -0.77      0.00
    8    5    1     -0.58      0.00
    9    5    1      0.20      0.00
   10    5    1     -0.34      0.00
   11    5    1     -1.61      0.00
   12    5    1     -0.48      0.00
   -8    6    1     -0.88      0.00
   -7    6    1     -0.59      0.00
   -6    6    1     -0.12      0.00
   -5    6    1      0.25      0.00
   -4    6    1      2.32      0.00
   -3    6    1      3.64      0.00
   -2    6    1      1.21      0.00
   -1    6    1     -0.77      0.00
    0    6    1     -1.20      0.00
    1    6    1     -3.19      0.00
    2    6    1     -3.02      0.00
    3    6    1      1.02      0.00
    4    6    1      5.56      0.00
    5    6    1      5.82      0.00
    6    6    1      2.40      0.00
    7    6    1      1.36      0.00
    8    6    1      1.10      0.00
    9    6    1      0.42      0.00
   10    6    1     -0.40      0.00
   11    6    1      0.46      0.00
   12    6    1      1.12      0.00
   -8    7    1     -0.26      0.00
   -7    7    1      0.40      0.00
   -6    7    1     -0.16      0.00
   -5    7    1      0.22      0.00
   -4    7    1     -0.32      0.00
   -3    7    1     -2.42      0.00
   -2    7    1     -1.62      0.00
   -1    7    1      0.63      0.00
    0    7    1      0.97      0.00
    1    7    1      2.35      0.00
    2    7    1      2.61      0.00
    3    7    1      0.19      0.00
    4    7    1     -3.34      0.00
    5    7    1     -4.76      0.00
    6    7    1     -2.17      0.00
    7    7    1     -0.63      0.00
    8    7    1      0.03      0.00
    9    7    1     -0.13      0.00
   10    7    1     -0.25      0.00
   11    7    1      0.46      0.00
   12    7    1     -1.17      0.00
   -8    8    1      0.85      0.00
   -7    8    1     -0.20      0.00
   -6    8    1     -0.47      0.00
   -5    8    1     -0.13      0.00
   -4    8    1     -0.36      0.00
   -3    8    1      0.76      0.00
   -2    8    1      1.40      0.00
   -1    8    1     -0.33      0.00
    0    8    1     -1.74      0.00
    1    8    1     -2.93      0.00
    2    8    1     -2.99      0.00
    3    8    1     -1.80      0.00
    4    8    1     -0.41      0.00
    5    8    1      1.74      0.00
    6    8    1      1.01      0.00
    7    8    1     -0.13      0.00
    8    8    1     -0.43      0.00
    9    8    1     -0.82      0.00
   10    8    1      0.66      0.00
   11    8    1      0.14      0.00
   12    8    1      0.72      0.00
   -7    9    1     -0.31      0.00
   -6    9    1      1.23      0.00
   -5    9    1      0.18      0.00
   -4    9    1      0.08      0.00
   -3    9    1      0.62      0.00
   -2    9    1     -0.44      0.00
   -1    9    1     -0.58      0.00
    0    9    1      0.82      0.00
    1    9    1      1.94      0.00
    2    9    1      2.26      0.00
    3    9    1      1.47      0.00
    4    9    1      1.61      0.00
    5    9    1      0.24      0.00
    6    9    1     -0.57      0.00
    7    9    1      0.78      0.00
    8    9    1      0.14      0.00
    9    9    1      0.67      0.00
   10    9    1     -0.10      0.00
   11    9    1     -1.03      0.00
   12    9    1     -0.40      0.00
   -6   10    1     -0.89      0.00
   -5   10    1     -0.04      0.00
   -4   10    1      0.81      0.00
   -3   10    1     -1.35      0.00
   -2   10    1     -0.99      0.00
   -1   10    1      1.38      0.00
    0   10    1      1.23      0.00
    1   10    1      0.85      0.00
    2   10    1      0.19      0.00
    3   10    1     -0.48      0.00
    4   10    1     -0.83      0.00
    5   10    1     -1.38      0.00
    6   10    1     -0.11      0.00
    7   10    1     -0.73      0.00
    8   10    1     -0.63      0.00
    9   10    1     -0.50      0.00
   10   10    1     -0.16      0.00
   11   10    1      1.86      0.00
   12   10    1      1.04      0.00
   -5   11    1     -0.21      0.00
   -4   11    1     -2.12      0.00
   -3   11    1      0.12      0.00
   -2   11    1      1.91      0.00
   -1   11    1     -0.79      0.00
    0   11    1     -2.03      0.00
    1   11    1     -1.59      0.00
    2   11    1     -1.54      0.00
    3   11    1      0.34      0.00
    4   11    1      0.45      0.00
    5   11    1      0.99      0.00
    6   11    1      0.76      0.00
    7   11    1     -0.48      0.00
    8   11    1     -0.11      0.00
    9   11    1      0.82      0.00
   10   11    1      0.44      0.00
   11   11    1     -2.44      0.00
   -4   12    1      2.45      0.00
   -3   12    1      2.41      0.00
   -2   12    1     -0.51      0.00
   -1   12    1     -0.50      0.00
    0   12    1      1.19      0.00
    1   12    1      1.08      0.00
    2   12    1      1.64      0.00
    3   12    1      0.89      0.00
    4   12    1      0.21      0.00
    5   12    1      0.97      0.00
    6   12    1      0.41      0.00
    7   12    1      1.27      0.00
    8   12    1      1.74      0.00
    9   12    1      0.21      0.00
   10   12    1     -0.66      0.00
   -3   13    1     -2.84      0.00
   -2   13    1     -1.52      0.00
   -1   13    1      0.66      0.00
    0   13    1      0.85      0.00
    1   13    1     -0.10      0.00
    2   13    1     -1.40      0.00
    3   13    1     -2.62      0.00
    4   13    1     -1.50      0.00
    5   13    1     -1.48      0.00
    6   13    1     -1.51      0.00
    7   13    1     -0.59      0.00
    8   13    1     -0.83      0.00
    9   13    1     -1.44      0.00
   10   13    1     -0.52      0.00
   -1   14    1      0.19      0.00
    0   14    1     -1.50      0.00
    1   14    1     -1.18      0.00
    2   14    1      0.27      0.00
    3   14    1      1.93      0.00
    5   14    1      0.06      0.00
    6   14    1      0.48      0.00
    7   14    1     -0.31      0.00
    8   14    1     -1.40      0.00
    9   14    1      0.58      0.00
    1   15    1      0.47      0.00
    2   15    1      0.17      0.00
    3   15    1     -0.10      0.00
    6   15    1      0.31      0.00
    7   15    1      0.07      0.00
    8   15    1      1.55      0.00
   -6  -15    2      0.70      0.00
   -5  -15    2     -0.17      0.00
   -4  -15    2     -0.64      0.00
   -8  -14    2      0.18      0.00
   -7  -14    2      0.36      0.00
   -6  -14    2     -0.65      0.00
   -5  -14    2     -0.90      0.00
   -1  -14    2     -1.77      0.00
    0  -14    2     -1.50      0.00
  -10  -13    2     -1.34      0.00
   -9  -13    2     -0.40      0.00
   -8  -13    2     -0.71      0.00
   -7  -13    2     -0.78      0.00
   -6  -13    2      0.65      0.00
   -5  -13    2      0.93      0.00
   -4  -13    2      0.23      0.00
   -1  -13    2      0.84      0.00
    0  -13    2      0.16      0.00
    1  -13    2      0.67      0.00
    2  -13    2      1.21      0.00
  -10  -12    2      1.55      0.00
   -9  -12    2      0.63      0.00
   -8  -12    2      1.34      0.00
   -7  -12    2      1.60      0.00
   -6  -12    2     -0.55      0.00
   -5  -12    2     -0.95      0.00
   -4  -12    2      0.53      0.00
   -3  -12    2      2.25      0.00
   -2  -12    2      2.81      0.00
   -1  -12    2      1.09      0.00
    0  -12    2      1.53      0.00
    1  -12    2      1.40      0.00
    2  -12    2      0.03      0.00
    3  -12    2     -0.45      0.00
  -11  -11    2     -3.39      0.00
  -10  -11    2     -0.72      0.00
   -9  -11    2      0.88      0.00
   -8  -11    2     -0.02      0.00
   -7  -11    2     -1.33      0.00
   -6  -11    2     -0.54      0.00
   -5  -11    2      1.19      0.00
   -4  -11    2     -0.10      0.00
   -3  -11    2     -1.36      0.00
   -2  -11    2     -2.28      0.00
   -1  -11    2     -1.34      0.00
    0  -11    2     -0.48      0.00
    1  -11    2     -0.89      0.00
    2  -11    2     -0.63      0.00
    3  -11    2      0.62      0.00
    4  -11    2      0.37      0.00
  -12  -10    2     -0.59      0.00
  -11  -10    2      1.42      0.00
  -10  -10    2     -0.26      0.00
   -9  -10    2     -2.15      0.00
   -8  -10    2     -1.49      0.00
   -7  -10    2     -0.45      0.00
   -6  -10    2      1.07      0.00
   -5  -10    2     -0.23      0.00
   -4  -10    2     -1.08      0.00
   -3  -10    2     -0.33      0.00
   -2  -10    2     -0.04      0.00
   -1  -10    2     -0.05      0.00
    0  -10    2     -0.58      0.00
    1  -10    2     -0.83      0.00
    2  -10    2     -0.07      0.00
    3  -10    2     -0.70      0.00
    4  -10    2     -1.97      0.00
    5  -10    2     -0.62      0.00
    6  -10    2     -0.41      0.00
  -12   -9    2      2.22      0.00
  -11   -9    2      1.09      0.00
  -10   -9    2      0.19      0.00
   -9   -9    2      1.69      0.00
   -8   -9    2      1.20      0.00
   -7   -9    2      0.76      0.00
   -6   -9    2     -0.45      0.00
   -5   -9    2     -0.99      0.00
   -4   -9    2      0.48      0.00
   -3   -9    2      1.12      0.00
   -2   -9    2      1.35      0.00
   -1   -9    2      1.56      0.00
    0   -9    2      0.83      0.00
    1   -9    2      0.58      0.00
    2   -9    2      0.32      0.00
    3   -9    2     -0.13      0.00
    4   -9    2      1.59      0.00
    5   -9    2      1.23      0.00
    6   -9    2     -0.33      0.00
  -12   -8    2     -1.92      0.00
  -11   -8    2     -1.95      0.00
  -10   -8    2      0.89      0.00
   -9   -8    2      0.19      0.00
   -8   -8    2     -0.43      0.00
   -7   -8    2      0.52      0.00
   -6   -8    2      0.67      0.00
   -5   -8    2      1.39      0.00
   -4   -8    2      1.88      0.00
   -3   -8    2      0.38      0.00
   -2   -8    2     -1.51      0.00
   -1   -8    2     -1.96      0.00
    0   -8    2     -1.24      0.00
    1   -8    2     -0.24      0.00
    2   -8    2      0.14      0.00
    3   -8    2      1.04      0.00
    4   -8    2      0.61      0.00
    5   -8    2     -0.67      0.00
    6   -8    2     -0.02      0.00
    7   -8    2      0.14      0.00
  -12   -7    2      0.82      0.00
  -11   -7    2      0.84      0.00
  -10   -7    2     -1.26      0.00
   -9   -7    2     -1.28      0.00
   -8   -7    2      0.25      0.00
   -7   -7    2     -0.97      0.00
   -6   -7    2     -1.61      0.00
   -5   -7    2     -1.81      0.00
   -4   -7    2     -3.84      0.00
   -3   -7    2     -3.68      0.00
   -2   -7    2      0.52      0.00
   -1   -7    2      2.02      0.00
    0   -7    2      0.82      0.00
    1   -7    2      0.09      0.00
    2   -7    2     -0.79      0.00
    3   -7    2     -1.90      0.00
    4   -7    2     -2.49      0.00
    5   -7    2     -0.90      0.00
    6   -7    2      0.93      0.00
    7   -7    2      0.86      0.00
  -12   -6    2     -0.33      0.00
  -11   -6    2      0.58      0.00
  -10   -6    2      0.75      0.00
   -9   -6    2      0.06      0.00
   -8   -6    2     -0.63      0.00
   -7   -6    2      0.71      0.00
   -6   -6    2      1.72      0.00
   -5   -6    2      1.59      0.00
   -4   -6    2      3.32      0.00
   -3   -6    2      4.80      0.00
   -2   -6    2      0.61      0.00
   -1   -6    2     -3.52      0.00
    0   -6    2     -2.31      0.00
    1   -6    2     -0.30      0.00
    2   -6    2      1.66      0.00
    3   -6    2      2.70      0.00
    4   -6    2      3.11      0.00
    5   -6    2      2.29      0.00
    6   -6    2     -0.51      0.00
    7   -6    2     -1.57      0.00
  -12   -5    2      0.32      0.00
  -11   -5    2     -0.33      0.00
  -10   -5    2     -0.44      0.00
   -9   -5    2      1.30      0.00
   -8   -5    2      1.32      0.00
   -7   -5    2     -0.10      0.00
   -6   -5    2     -1.18      0.00
   -5   -5    2      0.05      0.00
   -4   -5    2      0.25      0.00
   -3   -5    2     -1.56      0.00
   -2   -5    2      0.42      0.00
   -1   -5    2      5.24      0.00
    0   -5    2      5.91      0.00
    1   -5    2      3.15      0.00
    2   -5    2     -1.39      0.00
    3   -5    2     -2.82      0.00
    4   -5    2     -1.94      0.00
    5   -5    2     -2.36      0.00
    6   -5    2     -0.62      0.00
    7   -5    2      1.02      0.00
  -12   -4    2     -0.12      0.00
  -11   -4    2     -1.15      0.00
  -10   -4    2     -0.01      0.00
   -9   -4    2     -0.88      0.00
   -8   -4    2     -1.11      0.00
   -7   -4    2     -0.83      0.00
   -6   -4    2      0.53      0.00
   -5   -4    2     -0.85      0.00
   -4   -4    2     -3.83      0.00
   -3   -4    2     -2.40      0.00
   -2   -4    2     -1.96      0.00
   -1   -4    2     -4.95      0.00
    0   -4    2     -6.42      0.00
    1   -4    2     -5.34      0.00
    2   -4    2     -0.86      0.00
    3   -4    2      2.34      0.00
    4   -4    2     -0.05      0.00
    5   -4    2      0.75      0.00
    6   -4    2      0.72      0.00
    7   -4    2     -0.79      0.00
  -12   -3    2      0.19      0.00
  -11   -3    2      1.78      0.00
  -10   -3    2      0.87      0.00
   -9   -3    2      0.11      0.00
   -8   -3    2     -0.22      0.00
   -7   -3    2      0.35      0.00
   -6   -3    2     -0.21      0.00
   -5   -3    2     -0.32      0.00
   -4   -3    2      3.74      0.00
   -3   -3    2      3.81      0.00
   -2   -3    2      2.23      0.00
   -1   -3    2      2.31      0.00
    0   -3    2      4.47      0.00
    1   -3    2      5.21      0.00
    2   -3    2      3.39      0.00
    3   -3    2     -0.55      0.00
    4   -3    2      0.80      0.00
    5   -3    2      1.54      0.00
    6   -3    2      0.04      0.00
    7   -3    2      1.39      0.00
    8   -3    2      1.56      0.00
   10   -3    2     -1.01      0.00
  -12   -2    2     -0.80      0.00
  -11   -2    2     -1.33      0.00
  -10   -2    2     -1.38      0.00
   -9   -2    2     -0.24      0.00
   -8   -2    2      1.38      0.00
   -7   -2    2      1.73      0.00
   -6   -2    2      0.73      0.00
   -5   -2    2      0.90      0.00
   -4   -2    2     -1.55      0.00
   -3   -2    2     -3.31      0.00
   -2   -2    2     -4.15      0.00
   -1   -2    2      2.99      0.00
    0   -2    2      4.00      0.00
    1   -2    2     -2.69      0.00
    2   -2    2     -3.64      0.00
    3   -2    2     -1.75      0.00
    4   -2    2     -0.60      0.00
    5   -2    2     -2.46      0.00
    6   -2    2     -1.02      0.00
    7   -2    2     -1.06      0.00
    8   -2    2     -1.14      0.00
    9   -2    2      0.46      0.00
   10   -2    2      2.24      0.00
   11   -2    2      0.72      0.00
  -12   -1    2      0.92      0.00
  -11   -1    2      0.64      0.00
  -10   -1    2      1.24      0.00
   -9   -1    2      0.88      0.00
   -8   -1    2     -1.76      0.00
   -7   -1    2     -3.21      0.00
   -6   -1    2     -1.25      0.00
   -5   -1    2      0.50      0.00
   -4   -1    2      1.74      0.00
   -3   -1    2      2.04      0.00
   -2   -1    2      6.18      0.00
   -1   -1    2     -9.34      0.00
    0   -1    2    -27.69      0.00
    1   -1    2    -13.89      0.00
    2   -1    2     -2.53      0.00
    3   -1    2      0.41      0.00
    4   -1    2      0.49      0.00
    5   -1    2      1.22      0.00
    6   -1    2      1.69      0.00
    7   -1    2      0.11      0.00
    8   -1    2      0.22      0.00
    9   -1    2     -0.78      0.00
   10   -1    2     -2.05      0.00
   11   -1    2     -0.83      0.00
  -11    0    2     -0.03      0.00
  -10    0    2     -0.24      0.00
   -9    0    2     -1.13      0.00
   -8    0    2      1.10      0.00
   -7    0    2      2.74      0.00
   -6    0    2      0.74      0.00
   -5    0    2     -2.12      0.00
   -4    0    2     -4.34      0.00
   -3    0    2     -1.99      0.00
   -2    0    2     -3.37      0.00
   -1    0    2     11.67      0.00
    1    0    2     39.82      0.00
    2    0    2     13.97      0.00
    3    0    2      3.35      0.00
    4    0    2     -0.97      0.00
    5    0    2     -0.05      0.00
    6    0    2     -1.17      0.00
    7    0    2      0.17      0.00
    8    0    2      0.69      0.00
    9    0    2      0.63      0.00
   10    0    2      0.85      0.00
   11    0    2      0.05      0.00
  -11    1    2     -0.07      0.00
  -10    1    2     -0.95      0.00
   -9    1    2      0.13      0.00
   -8    1    2     -0.02      0.00
   -7    1    2     -0.69      0.00
   -6    1    2      0.48      0.00
   -5    1    2      2.43      0.00
   -4    1    2      5.57      0.00
   -3    1    2      4.46      0.00
   -2    1    2      0.34      0.00
   -1    1    2     -7.63      0.00
    0    1    2    -34.27      0.00
    1    1    2    -39.79      0.00
    2    1    2    -17.05      0.00
    3    1    2     -2.86      0.00
    4    1    2      3.52      0.00
    5    1    2      1.54      0.00
    6    1    2      0.28      0.00
    7    1    2     -0.62      0.00
    8    1    2     -1.58      0.00
    9    1    2     -1.07      0.00
   10    1    2     -0.78      0.00
   11    1    2      0.30      0.00
   12    1    2      0.71      0.00
  -10    2    2      0.98      0.00
   -9    2    2      0.85      0.00
   -8    2    2      0.08      0.00
   -7    2    2     -1.02      0.00
   -6    2    2     -1.53      0.00
   -5    2    2     -1.62      0.00
   -4    2    2     -3.81      0.00
   -3    2    2     -5.69      0.00
   -2    2    2     -2.27      0.00
   -1    2    2      1.10      0.00
    0    2    2      5.23      0.00
    2    2    2      5.04      0.00
    3    2    2     -1.07      0.00
    4    2    2     -6.61      0.00
    5    2    2     -4.74      0.00
    6    2    2     -0.90      0.00
    7    2    2      0.88      0.00
    8    2    2      2.37      0.00
    9    2    2      1.60      0.00
   10    2    2      1.20      0.00
   11    2    2     -0.19      0.00
   12    2    2     -0.75      0.00
   -9    3    2     -0.03      0.00
   -8    3    2     -0.48      0.00
   -7    3    2      0.80      0.00
   -6    3    2      1.74      0.00
   -5    3    2      0.19      0.00
   -4    3    2      0.36      0.00
   -3    3    2      2.50      0.00
   -2    3    2      3.44      0.00
   -1    3    2      2.49      0.00
    1    3    2     12.16      0.00
    2    3    2      6.88      0.00
    3    3    2      2.14      0.00
    4    3    2      5.54      0.00
    5    3    2      5.83      0.00
    6    3    2      2.37      0.00
    7    3    2      0.24      0.00
    8    3    2     -1.67      0.00
    9    3    2     -1.54      0.00
   10    3    2     -1.27      0.00
   11    3    2     -0.01      0.00
   12    3    2      0.89      0.00
   -9    4    2     -0.65      0.00
   -8    4    2     -0.60      0.00
   -7    4    2     -0.20      0.00
   -6    4    2     -1.59      0.00
   -5    4    2      0.68      0.00
   -4    4    2      2.88      0.00
   -3    4    2      2.19      0.00
   -2    4    2     -0.44      0.00
   -1    4    2     -1.92      0.00
    0    4    2     -4.32      0.00
    1    4    2     -9.57      0.00
    2    4    2     -7.31      0.00
    3    4    2     -0.70      0.00
    4    4    2     -0.65      0.00
    5    4    2     -2.49      0.00
    6    4    2     -2.08      0.00
    7    4    2     -0.86      0.00
    8    4    2      0.34      0.00
    9    4    2      0.89      0.00
   10    4    2      1.37      0.00
   11    4    2      1.06      0.00
   12    4    2     -0.36      0.00
   -9    5    2     -0.64      0.00
   -8    5    2      1.69      0.00
   -7    5    2      0.71      0.00
   -6    5    2      1.64      0.00
   -5    5    2      0.15      0.00
   -4    5    2     -3.67      0.00
   -3    5    2     -4.62      0.00
   -2    5    2     -1.92      0.00
   -1    5    2      0.36      0.00
    0    5    2      1.62      0.00
    1    5    2      3.71      0.00
    2    5    2      3.95      0.00
    3    5    2      0.44      0.00
    4    5    2     -3.23      0.00
    5    5    2     -3.31      0.00
    6    5    2     -0.78      0.00
    7    5    2     -0.37      0.00
    8    5    2     -0.70      0.00
    9    5    2     -0.64      0.00
   10    5    2     -0.87      0.00
   11    5    2     -1.79      0.00
   12    5    2     -0.93      0.00
   -9    6    2      1.49      0.00
   -8    6    2     -1.08      0.00
   -7    6    2     -1.05      0.00
   -6    6    2     -0.93      0.00
   -5    6    2     -1.15      0.00
   -4    6    2      1.48      0.00
   -3    6    2      4.07      0.00
   -2    6    2      2.14      0.00
   -1    6    2     -0.01      0.00
    0    6    2     -0.87      0.00
    1    6    2     -2.54      0.00
    2    6    2     -2.83      0.00
    3    6    2     -0.98      0.00
    4    6    2      3.77      0.00
    5    6    2      6.56      0.00
    6    6    2      3.61      0.00
    7    6    2      1.44      0.00
    8    6    2      1.02      0.00
    9    6    2      0.87      0.00
   10    6    2      0.15      0.00
   11    6    2      0.52      0.00
   12    6    2      1.52      0.00
   -8    7    2      0.03      0.00
   -7    7    2      0.48      0.00
   -6    7    2     -0.34      0.00
   -5    7    2      0.36      0.00
   -4    7    2      0.58      0.00
   -3    7    2     -1.71      0.00
   -2    7    2     -1.89      0.00
   -1    7    2      0.05      0.00
    0    7    2      0.84      0.00
    1    7    2      2.45      0.00
    2    7    2      2.56      0.00
    3    7    2      1.39      0.00
    4    7    2     -1.46      0.00
    5    7    2     -4.72      0.00
    6    7    2     -3.39      0.00
    7    7    2     -1.06      0.00
    8    7    2      0.44      0.00
    9    7    2      0.22      0.00
   10    7    2     -0.30      0.00
   11    7    2      0.70      0.00
   12    7    2     -0.91      0.00
   -8    8    2      0.32      0.00
   -7    8    2      0.13      0.00
   -6    8    2      0.31      0.00
   -5    8    2      0.65      0.00
   -4    8    2     -0.35      0.00
   -3    8    2     -0.11      0.00
   -2    8    2      1.04      0.00
   -1    8    2      0.10      0.00
    0    8    2     -1.56      0.00
    1    8    2     -3.45      0.00
    2    8    2     -3.34      0.00
    3    8    2     -1.94      0.00
    4    8    2     -1.27      0.00
    5    8    2      1.14      0.00
    6    8    2      1.38      0.00
    7    8    2      0.06      0.00
    8    8    2     -1.11      0.00
    9    8    2     -1.84      0.00
   10    8    2      0.11      0.00
   11    8    2     -0.11      0.00
   12    8    2      0.34      0.00
   -7    9    2     -0.53      0.00
   -6    9    2      0.53      0.00
   -5    9    2     -0.31      0.00
   -4    9    2     -0.56      0.00
   -3    9    2      0.56      0.00
   -2    9    2      0.04      0.00
   -1    9    2     -0.52      0.00
    0    9    2      0.75      0.00
    1    9    2      2.46      0.00
    2    9    2      3.05      0.00
    3    9    2      1.64      0.00
    4    9    2      1.46      0.00
    5    9    2      0.40      0.00
    6    9    2     -0.56      0.00
    7    9    2      0.79      0.00
    8    9    2      0.51      0.00
    9    9    2      1.33      0.00
   10    9    2      0.65      0.00
   11    9    2     -0.77      0.00
   12    9    2     -0.55      0.00
   -6   10    2     -0.35      0.00
   -5   10    2     -0.01      0.00
   -4   10    2      1.12      0.00
   -3   10    2     -0.66      0.00
   -2   10    2     -0.93      0.00
   -1   10    2      1.25      0.00
    0   10    2      1.44      0.00
    1   10    2      0.99      0.00
    2   10    2      0.10      0.00
    3   10    2     -0.67      0.00
    4   10    2     -0.44      0.00
    5   10    2     -0.62      0.00
    6   10    2      0.30      0.00
    7   10    2     -0.87      0.00
    8   10    2     -0.69      0.00
    9   10    2     -0.10      0.00
   10   10    2     -0.47      0.00
   11   10    2      1.28      0.00
   12   10    2      1.38      0.00
   -6   11    2     -0.34      0.00
   -5   11    2     -0.25      0.00
   -4   11    2     -1.79      0.00
   -3   11    2     -0.10      0.00
   -2   11    2      1.54      0.00
   -1   11    2     -0.98      0.00
    0   11    2     -2.42      0.00
    1   11    2     -2.15      0.00
    2   11    2     -1.93      0.00
    3   11    2      0.51      0.00
    4   11    2      1.00      0.00
    5   11    2      0.81      0.00
    6   11    2      0.29      0.00
    7   11    2     -0.18      0.00
    8   11    2      0.40      0.00
    9   11    2      0.14      0.00
   10   11    2      0.08      0.00
   11   11    2     -1.73      0.00
   -4   12    2      1.79      0.00
   -3   12    2      1.76      0.00
   -2   12    2     -0.67      0.00
   -1   12    2     -0.45      0.00
    0   12    2      1.13      0.00
    1   12    2      1.04      0.00
    2   12    2      1.26      0.00
    3   12    2      0.10      0.00
    4   12    2     -1.07      0.00
    5   12    2     -0.06      0.00
    6   12    2      0.43      0.00
    7   12    2      1.43      0.00
    8   12    2      1.06      0.00
    9   12    2      0.05      0.00
   10   12    2     -0.27      0.00
   11   12    2      1.25      0.00
   -3   13    2     -2.06      0.00
   -2   13    2     -0.92      0.00
   -1   13    2      0.88      0.00
    0   13    2      1.03      0.00
    1   13    2      0.19      0.00
    2   13    2     -0.76      0.00
    3   13    2     -1.88      0.00
    4   13    2     -1.28      0.00
    5   13    2     -1.30      0.00
    6   13    2     -1.64      0.00
    7   13    2     -1.32      0.00
    8   13    2     -0.76      0.00
    9   13    2     -0.47      0.00
   10   13    2     -0.24      0.00
   11   13    2     -0.29      0.00
   -1   14    2     -0.02      0.00
    0   14    2     -1.19      0.00
    1   14    2     -0.71      0.00
    2   14    2      0.36      0.00
    3   14    2      1.91      0.00
    5   14    2      1.51      0.00
    6   14    2      1.15      0.00
    7   14    2     -0.02      0.00
    8   14    2     -1.49      0.00
    9   14    2     -0.47      0.00
   10   14    2      1.06      0.00
    0   15    2     -0.39      0.00
    1   15    2     -0.55      0.00
    2   15    2     -0.39      0.00
    3   15    2      0.02      0.00
    6   15    2     -0.21      0.00
    7   15    2      0.41      0.00
    8   15    2      2.22      0.00
    3   16    2     -0.71      0.00
    4   16    2     -1.23      0.00
    6   16    2      0.14      0.00
   -8  -14    3      0.28      0.00
   -7  -14    3      0.64      0.00
   -6  -14    3     -0.53      0.00
   -5  -14    3     -0.79      0.00
   -4  -14    3     -0.43      0.00
    0  -14    3     -0.72      0.00
   -9  -13    3     -0.01      0.00
   -8  -13    3     -0.40      0.00
   -7  -13    3     -1.25      0.00
   -6  -13    3      0.16      0.00
   -5  -13    3      0.69      0.00
   -4  -13    3      0.64      0.00
    0  -13    3      0.12      0.00
    1  -13    3      0.74      0.00
    2  -13    3      1.73      0.00
   -9  -12    3      1.08      0.00
   -8  -12    3      1.01      0.00
   -7  -12    3      1.65      0.00
   -6  -12    3     -0.24      0.00
   -5  -12    3     -1.45      0.00
   -4  -12    3     -0.39      0.00
   -3  -12    3      1.16      0.00
    0  -12    3      1.26      0.00
    1  -12    3      1.23      0.00
    2  -12    3      0.30      0.00
    3  -12    3     -0.85      0.00
  -11  -11    3     -2.59      0.00
  -10  -11    3     -0.93      0.00
   -9  -11    3     -0.10      0.00
   -8  -11    3     -0.16      0.00
   -7  -11    3     -0.80      0.00
   -6  -11    3     -0.31      0.00
   -5  -11    3      1.83      0.00
   -4  -11    3      0.79      0.00
   -3  -11    3     -0.81      0.00
   -1  -11    3     -2.30      0.00
    0  -11    3     -1.13      0.00
    1  -11    3     -0.97      0.00
    2  -11    3     -1.99      0.00
    3  -11    3     -0.92      0.00
    4  -11    3      0.46      0.00
  -12  -10    3     -1.03      0.00
  -11  -10    3      0.66      0.00
  -10  -10    3     -0.58      0.00
   -9  -10    3     -1.76      0.00
   -8  -10    3     -1.27      0.00
   -7  -10    3     -1.00      0.00
   -6  -10    3      0.50      0.00
   -5  -10    3     -0.24      0.00
   -4  -10    3     -1.05      0.00
   -3  -10    3     -0.02      0.00
   -2  -10    3      0.23      0.00
   -1  -10    3      0.69      0.00
    0  -10    3      0.55      0.00
    1  -10    3     -0.78      0.00
    2  -10    3      0.64      0.00
    3  -10    3      1.44      0.00
    4  -10    3     -1.11      0.00
    5  -10    3     -0.97      0.00
  -12   -9    3      2.77      0.00
  -11   -9    3      2.06      0.00
  -10   -9    3      1.01      0.00
   -9   -9    3      2.06      0.00
   -8   -9    3      1.41      0.00
   -7   -9    3      0.99      0.00
   -6   -9    3      0.05      0.00
   -5   -9    3     -1.01      0.00
   -4   -9    3     -0.04      0.00
   -3   -9    3      0.44      0.00
   -2   -9    3      0.58      0.00
   -1   -9    3      1.08      0.00
    0   -9    3      0.02      0.00
    1   -9    3      0.34      0.00
    2   -9    3      0.71      0.00
    3   -9    3     -0.87      0.00
    4   -9    3      0.75      0.00
    5   -9    3      1.51      0.00
    6   -9    3     -0.31      0.00
  -12   -8    3     -3.09      0.00
  -11   -8    3     -3.32      0.00
  -10   -8    3     -0.15      0.00
   -9   -8    3     -0.13      0.00
   -8   -8    3     -0.74      0.00
   -7   -8    3      0.42      0.00
   -6   -8    3      0.49      0.00
   -5   -8    3      0.81      0.00
   -4   -8    3      1.78      0.00
   -3   -8    3      1.12      0.00
   -2   -8    3     -0.16      0.00
   -1   -8    3     -1.15      0.00
    0   -8    3     -0.93      0.00
    1   -8    3      0.16      0.00
    2   -8    3     -0.21      0.00
    3   -8    3      0.56      0.00
    4   -8    3      0.92      0.00
    5   -8    3     -0.18      0.00
    6   -8    3      0.47      0.00
  -12   -7    3      2.94      0.00
  -11   -7    3      2.39      0.00
  -10   -7    3     -0.60      0.00
   -9   -7    3     -1.48      0.00
   -8   -7    3      0.38      0.00
   -7   -7    3     -0.57      0.00
   -6   -7    3     -1.65      0.00
   -5   -7    3     -1.16      0.00
   -4   -7    3     -2.96      0.00
   -3   -7    3     -4.13      0.00
   -2   -7    3     -1.16      0.00
   -1   -7    3      0.87      0.00
    0   -7    3      0.87      0.00
    1   -7    3      0.29      0.00
    2   -7    3     -0.51      0.00
    3   -7    3     -1.22      0.00
    4   -7    3     -2.25      0.00
    5   -7    3     -1.71      0.00
    6   -7    3     -0.13      0.00
  -12   -6    3     -2.30      0.00
  -11   -6    3     -0.60      0.00
  -10   -6    3      0.86      0.00
   -9   -6    3      0.56      0.00
   -8   -6    3     -0.78      0.00
   -7   -6    3     -0.25      0.00
   -6   -6    3      1.70      0.00
   -5   -6    3      1.68      0.00
   -4   -6    3      2.49      0.00
   -3   -6    3      4.74      0.00
   -2   -6    3      2.23      0.00
   -1   -6    3     -1.97      0.00
    0   -6    3     -1.99      0.00
    1   -6    3     -0.73      0.00
    2   -6    3      1.13      0.00
    3   -6    3      2.38      0.00
    4   -6    3      2.86      0.00
    5   -6    3      2.46      0.00
    6   -6    3      0.14      0.00
  -12   -5    3      0.60      0.00
  -11   -5    3      0.21      0.00
  -10   -5    3     -0.65      0.00
   -9   -5    3      0.95      0.00
   -8   -5    3      1.32      0.00
   -7   -5    3      0.74      0.00
   -6   -5    3     -0.97      0.00
   -5   -5    3     -0.99      0.00
   -4   -5    3      0.14      0.00
   -3   -5    3     -0.96      0.00
   -2   -5    3     -0.41      0.00
   -1   -5    3      3.81      0.00
    0   -5    3      5.68      0.00
    1   -5    3      3.85      0.00
    2   -5    3     -0.44      0.00
    3   -5    3     -2.69      0.00
    4   -5    3     -2.11      0.00
    5   -5    3     -1.99      0.00
    6   -5    3     -0.44      0.00
    7   -5    3      1.15      0.00
  -12   -4    3      1.06      0.00
  -11   -4    3     -0.98      0.00
  -10   -4    3     -0.55      0.00
   -9   -4    3     -0.96      0.00
   -8   -4    3     -0.65      0.00
   -7   -4    3     -0.68      0.00
   -6   -4    3      0.21      0.00
   -5   -4    3      0.49      0.00
   -4   -4    3     -2.65      0.00
   -3   -4    3     -3.43      0.00
   -2   -4    3     -2.98      0.00
   -1   -4    3     -4.39      0.00
    0   -4    3     -6.64      0.00
    1   -4    3     -7.12      0.00
    2   -4    3     -2.82      0.00
    3   -4    3      1.61      0.00
    4   -4    3      0.07      0.00
    5   -4    3      0.37      0.00
    6   -4    3      0.45      0.00
    7   -4    3     -0.53      0.00
   10   -4    3      0.10      0.00
  -12   -3    3     -0.74      0.00
  -11   -3    3      1.19      0.00
  -10   -3    3      1.59      0.00
   -9   -3    3      0.58      0.00
   -8   -3    3     -0.64      0.00
   -7   -3    3     -0.32      0.00
   -6   -3    3      0.03      0.00
   -5   -3    3     -1.20      0.00
   -4   -3    3      2.15      0.00
   -3   -3    3      3.92      0.00
   -2   -3    3      3.68      0.00
   -1   -3    3      2.30      0.00
    0   -3    3      2.72      0.00
    1   -3    3      5.31      0.00
    2   -3    3      5.25      0.00
    3   -3    3      0.61      0.00
    4   -3    3      0.86      0.00
    5   -3    3      1.71      0.00
    6   -3    3     -0.11      0.00
    7   -3    3      0.69      0.00
    8   -3    3      1.46      0.00
   10   -3    3      0.03      0.00
  -12   -2    3     -1.04      0.00
  -11   -2    3     -1.23      0.00
  -10   -2    3     -1.39      0.00
   -9   -2    3     -0.83      0.00
   -8   -2    3      0.96      0.00
   -7   -2    3      2.05      0.00
   -6   -2    3      1.02      0.00
   -5   -2    3      1.66      0.00
   -4   -2    3     -0.29      0.00
   -3   -2    3     -1.09      0.00
   -2   -2    3     -2.23      0.00
   -1   -2    3      1.24      0.00
    0   -2    3      4.23      0.00
    2   -2    3     -3.64      0.00
    3   -2    3     -2.61      0.00
    4   -2    3     -0.50      0.00
    5   -2    3     -2.29      0.00
    6   -2    3     -0.75      0.00
    7   -2    3     -0.50      0.00
    8   -2    3     -1.05      0.00
    9   -2    3     -1.06      0.00
   10   -2    3      0.40      0.00
   11   -2    3      0.99      0.00
  -12   -1    3      1.57      0.00
  -11   -1    3      1.50      0.00
  -10   -1    3      0.98      0.00
   -9   -1    3      1.21      0.00
   -8   -1    3     -0.66      0.00
   -7   -1    3     -3.36      0.00
   -6   -1    3     -2.51      0.00
   -5   -1    3     -0.86      0.00
   -4   -1    3      1.15      0.00
   -3   -1    3     -0.31      0.00
   -2   -1    3      1.26      0.00
   -1   -1    3     -3.21      0.00
    0   -1    3    -14.41      0.00
    1   -1    3     -9.55      0.00
    2   -1    3     -2.68      0.00
    3   -1    3      1.06      0.00
    4   -1    3      0.67      0.00
    5   -1    3      1.01      0.00
    6   -1    3      1.51      0.00
    7   -1    3     -0.08      0.00
    8   -1    3      0.34      0.00
    9   -1    3     -0.15      0.00
   10   -1    3     -0.62      0.00
   11   -1    3     -0.78      0.00
  -11    0    3     -0.90      0.00
  -10    0    3     -0.65      0.00
   -9    0    3     -1.19      0.00
   -8    0    3      0.32      0.00
   -7    0    3      3.05      0.00
   -6    0    3      2.42      0.00
   -5    0    3     -0.51      0.00
   -4    0    3     -4.29      0.00
   -3    0    3     -2.85      0.00
   -2    0    3     -1.11      0.00
   -1    0    3      3.70      0.00
    0    0    3     21.63      0.00
    1    0    3     22.37      0.00
    2    0    3     12.11      0.00
    3    0    3      4.28      0.00
    4    0    3     -1.22      0.00
    5    0    3     -0.34      0.00
    6    0    3     -1.11      0.00
    7    0    3      0.28      0.00
    8    0    3      0.42      0.00
    9    0    3      0.63      0.00
   10    0    3      0.79      0.00
   11    0    3     -0.24      0.00
  -11    1    3     -0.09      0.00
  -10    1    3     -0.02      0.00
   -9    1    3      0.35      0.00
   -8    1    3     -0.04      0.00
   -7    1    3     -0.94      0.00
   -6    1    3     -0.23      0.00
   -5    1    3      1.59      0.00
   -4    1    3      5.41      0.00
   -3    1    3      7.11      0.00
   -2    1    3      2.74      0.00
   -1    1    3     -4.11      0.00
    0    1    3    -17.15      0.00
    1    1    3    -21.33      0.00
    2    1    3    -14.40      0.00
    3    1    3     -6.89      0.00
    4    1    3      2.34      0.00
    5    1    3      2.28      0.00
    6    1    3      0.60      0.00
    7    1    3     -0.49      0.00
    8    1    3     -1.23      0.00
    9    1    3     -0.88      0.00
   10    1    3     -1.58      0.00
   11    1    3      0.08      0.00
   12    1    3      0.83      0.00
  -10    2    3      0.55      0.00
   -9    2    3      0.39      0.00
   -8    2    3      0.51      0.00
   -7    2    3     -0.77      0.00
   -6    2    3     -2.07      0.00
   -5    2    3     -1.99      0.00
   -4    2    3     -3.36      0.00
   -3    2    3     -6.51      0.00
   -2    2    3     -4.96      0.00
   -1    2    3      2.64      0.00
    0    2    3      6.64      0.00
    2    2    3      2.98      0.00
    3    2    3      2.85      0.00
    4    2    3     -4.21      0.00
    5    2    3     -5.41      0.00
    6    2    3     -1.67      0.00
    7    2    3      0.24      0.00
    8    2    3      1.80      0.00
    9    2    3      1.16      0.00
   10    2    3      1.66      0.00
   11    2    3      0.58      0.00
   12    2    3     -0.98      0.00
  -10    3    3     -1.31      0.00
   -9    3    3     -0.02      0.00
   -8    3    3     -0.92      0.00
   -7    3    3      0.12      0.00
   -6    3    3      2.40      0.00
   -5    3    3      1.42      0.00
   -4    3    3      0.39      0.00
   -3    3    3      1.53      0.00
   -2    3    3      3.23      0.00
    0    3    3     -0.69      0.00
    1    3    3      7.67      0.00
    2    3    3      8.41      0.00
    3    3    3      2.20      0.00
    4    3    3      4.02      0.00
    5    3    3      5.93      0.00
    6    3    3      3.15      0.00
    7    3    3      0.95      0.00
    8    3    3     -1.01      0.00
    9    3    3     -1.31      0.00
   10    3    3     -1.05      0.00
   11    3    3     -0.39      0.00
   12    3    3      1.11      0.00
  -10    4    3      2.05      0.00
   -9    4    3     -0.05      0.00
   -8    4    3     -0.14      0.00
   -7    4    3      0.86      0.00
   -6    4    3     -1.65      0.00
   -5    4    3     -0.77      0.00
   -4    4    3      1.99      0.00
   -3    4    3      2.99      0.00
   -2    4    3      1.44      0.00
   -1    4    3     -0.34      0.00
    0    4    3     -0.79      0.00
    1    4    3     -5.24      0.00
    2    4    3     -7.64      0.00
    3    4    3     -2.93      0.00
    4    4    3     -0.75      0.00
    5    4    3     -1.97      0.00
    6    4    3     -2.35      0.00
    7    4    3     -1.31      0.00
    8    4    3     -0.09      0.00
    9    4    3      1.06      0.00
   10    4    3      1.21      0.00
   11    4    3      0.81      0.00
   12    4    3     -0.56      0.00
   -9    5    3     -0.83      0.00
   -8    5    3      1.29      0.00
   -7    5    3     -0.03      0.00
   -6    5    3      1.56      0.00
   -5    5    3      1.43      0.00
   -4    5    3     -2.44      0.00
   -3    5    3     -4.79      0.00
   -2    5    3     -3.63      0.00
   -1    5    3     -1.23      0.00
    0    5    3      1.03      0.00
    1    5    3      2.10      0.00
    2    5    3      2.87      0.00
    3    5    3      1.83      0.00
    4    5    3     -1.88      0.00
    5    5    3     -3.50      0.00
    6    5    3     -1.03      0.00
    7    5    3     -0.16      0.00
    8    5    3     -0.52      0.00
    9    5    3     -1.04      0.00
   10    5    3     -1.35      0.00
   11    5    3     -1.67      0.00
   12    5    3     -1.09      0.00
   -9    6    3      0.66      0.00
   -8    6    3     -0.97      0.00
   -7    6    3     -0.94      0.00
   -6    6    3     -1.21      0.00
   -5    6    3     -2.02      0.00
   -4    6    3      0.35      0.00
   -3    6    3      3.49      0.00
   -2    6    3      2.77      0.00
   -1    6    3      1.14      0.00
    0    6    3     -0.51      0.00
    1    6    3     -2.12      0.00
    2    6    3     -1.73      0.00
    3    6    3     -1.73      0.00
    4    6    3      1.46      0.00
    5    6    3      5.65      0.00
    6    6    3      4.14      0.00
    7    6    3      1.78      0.00
    8    6    3      1.03      0.00
    9    6    3      1.11      0.00
   10    6    3      0.87      0.00
   11    6    3      0.80      0.00
   12    6    3      1.92      0.00
   -8    7    3      0.41      0.00
   -7    7    3      0.48      0.00
   -6    7    3     -0.17      0.00
   -5    7    3      0.50      0.00
   -4    7    3      1.25      0.00
   -3    7    3     -0.16      0.00
   -2    7    3     -1.05      0.00
   -1    7    3     -0.35      0.00
    0    7    3      0.47      0.00
    1    7    3      2.55      0.00
    2    7    3      2.28      0.00
    3    7    3      1.80      0.00
    4    7    3      0.62      0.00
    5    7    3     -3.27      0.00
    6    7    3     -3.94      0.00
    7    7    3     -2.01      0.00
    8    7    3      0.31      0.00
    9    7    3      0.48      0.00
   10    7    3     -0.55      0.00
   11    7    3      0.47      0.00
   12    7    3     -0.94      0.00
   -8    8    3     -0.48      0.00
   -7    8    3      0.32      0.00
   -6    8    3      0.97      0.00
   -5    8    3      1.27      0.00
   -4    8    3     -0.17      0.00
   -3    8    3     -1.50      0.00
   -2    8    3     -0.66      0.00
   -1    8    3      0.03      0.00
    0    8    3     -0.97      0.00
    1    8    3     -3.61      0.00
    2    8    3     -3.76      0.00
    3    8    3     -1.94      0.00
    4    8    3     -1.94      0.00
    5    8    3     -0.02      0.00
    6    8    3      1.53      0.00
    7    8    3      0.95      0.00
    8    8    3     -1.21      0.00
    9    8    3     -2.64      0.00
   10    8    3     -0.28      0.00
   11    8    3     -0.21      0.00
   12    8    3      0.00      0.00
   -7    9    3     -0.44      0.00
   -6    9    3     -0.63      0.00
   -5    9    3     -1.22      0.00
   -4    9    3     -1.21      0.00
   -3    9    3      0.67      0.00
   -2    9    3      1.32      0.00
   -1    9    3      0.18      0.00
    0    9    3      0.51      0.00
    1    9    3      2.57      0.00
    2    9    3      3.72      0.00
    3    9    3      1.94      0.00
    4    9    3      1.26      0.00
    5    9    3      0.80      0.00
    6    9    3     -0.38      0.00
    7    9    3      0.27      0.00
    8    9    3      0.66      0.00
    9    9    3      2.18      0.00
   10    9    3      1.41      0.00
   11    9    3     -0.24      0.00
   12    9    3     -0.21      0.00
   -7   10    3      0.22      0.00
   -6   10    3      0.19      0.00
   -5   10    3      0.61      0.00
   -4   10    3      1.49      0.00
   -3   10    3     -0.04      0.00
   -2   10    3     -1.14      0.00
   -1   10    3      0.23      0.00
    0   10    3      0.87      0.00
    1   10    3      0.83      0.00
    2   10    3      0.08      0.00
    3   10    3     -0.82      0.00
    4   10    3     -0.24      0.00
    5   10    3     -0.11      0.00
    6   10    3      0.63      0.00
    7   10    3     -0.39      0.00
    8   10    3     -0.45      0.00
    9   10    3     -0.19      0.00
   10   10    3     -1.08      0.00
   11   10    3      0.31      0.00
   12   10    3      0.97      0.00
   -6   11    3     -0.13      0.00
   -5   11    3     -0.25      0.00
   -4   11    3     -1.60      0.00
   -3   11    3     -0.25      0.00
   -2   11    3      1.24      0.00
   -1   11    3     -0.56      0.00
    0   11    3     -1.85      0.00
    1   11    3     -2.15      0.00
    2   11    3     -2.57      0.00
    3   11    3     -0.10      0.00
    4   11    3      1.01      0.00
    5   11    3      0.43      0.00
    6   11    3     -0.47      0.00
    7   11    3     -0.65      0.00
    8   11    3      0.25      0.00
    9   11    3     -0.42      0.00
   10   11    3     -0.01      0.00
   11   11    3     -0.69      0.00
   -4   12    3      1.15      0.00
   -3   12    3      1.04      0.00
   -2   12    3     -0.94      0.00
   -1   12    3     -0.40      0.00
    0   12    3      1.05      0.00
    1   12    3      1.09      0.00
    2   12    3      1.39      0.00
    3   12    3      0.19      0.00
    4   12    3     -1.56      0.00
    5   12    3     -0.82      0.00
    6   12    3      0.40      0.00
    7   12    3      1.81      0.00
    8   12    3      0.85      0.00
    9   12    3      0.10      0.00
   10   12    3      0.26      0.00
   11   12    3      0.72      0.00
   -3   13    3     -1.02      0.00
   -2   13    3      0.14      0.00
   -1   13    3      1.28      0.00
    0   13    3      0.90      0.00
    1   13    3      0.05      0.00
    2   13    3     -0.29      0.00
    3   13    3     -0.87      0.00
    4   13    3     -0.59      0.00
    5   13    3     -0.68      0.00
    6   13    3     -1.13      0.00
    7   13    3     -1.73      0.00
    8   13    3     -0.99      0.00
    9   13    3      0.30      0.00
   10   13    3     -0.13      0.00
   11   13    3     -0.25      0.00
   -1   14    3     -0.89      0.00
    0   14    3     -1.21      0.00
    1   14    3     -0.09      0.00
    2   14    3      0.41      0.00
    3   14    3      1.04      0.00
    4   14    3      2.36      0.00
    6   14    3      1.69      0.00
    7   14    3      0.30      0.00
    8   14    3     -1.01      0.00
    9   14    3     -1.31      0.00
   10   14    3      0.03      0.00
    0   15    3     -0.22      0.00
    1   15    3     -1.42      0.00
    2   15    3     -1.27      0.00
    3   15    3      0.14      0.00
    4   15    3     -0.54      0.00
    7   15    3      0.38      0.00
    8   15    3      2.47      0.00
    9   15    3      2.09      0.00
    3   16    3     -0.43      0.00
    4   16    3     -1.79      0.00
   -7  -14    4      0.65      0.00
   -6  -14    4     -0.25      0.00
   -5  -14    4     -0.74      0.00
   -4  -14    4     -1.32      0.00
   -3  -14    4     -0.02      0.00
   -9  -13    4     -0.07      0.00
   -8  -13    4     -0.39      0.00
   -7  -13    4     -1.20      0.00
   -6  -13    4     -0.40      0.00
   -5  -13    4     -0.13      0.00
   -4  -13    4      0.94      0.00
   -3  -13    4      0.00      0.00
    1  -13    4      0.46      0.00
   -9  -12    4      1.00      0.00
   -8  -12    4      0.89      0.00
   -7  -12    4      1.48      0.00
   -6  -12    4      0.24      0.00
   -5  -12    4     -0.79      0.00
   -4  -12    4     -0.59      0.00
   -3  -12    4     -0.29      0.00
  -11  -11    4     -1.46      0.00
  -10  -11    4     -0.35      0.00
   -9  -11    4     -0.28      0.00
   -8  -11    4     -0.28      0.00
   -7  -11    4     -0.43      0.00
   -6  -11    4      0.09      0.00
   -5  -11    4      2.16      0.00
   -4  -11    4      1.41      0.00
   -3  -11    4      0.26      0.00
   -2  -11    4     -0.90      0.00
    1  -11    4     -0.96      0.00
    2  -11    4     -2.33      0.00
  -11  -10    4     -0.20      0.00
  -10  -10    4     -1.17      0.00
   -9  -10    4     -1.62      0.00
   -8  -10    4     -1.08      0.00
   -7  -10    4     -1.30      0.00
   -6  -10    4     -0.47      0.00
   -5  -10    4     -1.07      0.00
   -4  -10    4     -1.46      0.00
   -3  -10    4      0.01      0.00
   -2  -10    4      0.07      0.00
   -1  -10    4      1.01      0.00
    0  -10    4      1.94      0.00
    1  -10    4     -0.04      0.00
    2  -10    4      1.09      0.00
    3  -10    4      3.06      0.00
    4  -10    4      0.49      0.00
  -12   -9    4      2.76      0.00
  -11   -9    4      2.65      0.00
  -10   -9    4      1.85      0.00
   -9   -9    4      2.37      0.00
   -8   -9    4      1.58      0.00
   -7   -9    4      1.15      0.00
   -6   -9    4      0.54      0.00
   -5   -9    4     -0.45      0.00
   -4   -9    4      0.00      0.00
   -3   -9    4     -0.09      0.00
   -2   -9    4     -0.16      0.00
   -1   -9    4      0.55      0.00
    0   -9    4     -1.04      0.00
    1   -9    4     -0.57      0.00
    2   -9    4      0.70      0.00
    3   -9    4     -1.18      0.00
    4   -9    4     -0.10      0.00
  -12   -8    4     -3.39      0.00
  -11   -8    4     -3.85      0.00
  -10   -8    4     -1.21      0.00
   -9   -8    4     -0.70      0.00
   -8   -8    4     -1.00      0.00
   -7   -8    4      0.29      0.00
   -6   -8    4      0.52      0.00
   -5   -8    4      0.47      0.00
   -4   -8    4      1.22      0.00
   -3   -8    4      1.17      0.00
   -2   -8    4      0.81      0.00
   -1   -8    4     -0.31      0.00
    0   -8    4     -0.31      0.00
    1   -8    4      0.95      0.00
    2   -8    4     -0.10      0.00
    3   -8    4     -0.13      0.00
    4   -8    4      0.36      0.00
    5   -8    4     -0.28      0.00
  -12   -7    4      4.61      0.00
  -11   -7    4      3.42      0.00
  -10   -7    4      0.34      0.00
   -9   -7    4     -1.13      0.00
   -8   -7    4      0.24      0.00
   -7   -7    4     -0.40      0.00
   -6   -7    4     -1.55      0.00
   -5   -7    4     -0.76      0.00
   -4   -7    4     -1.82      0.00
   -3   -7    4     -3.53      0.00
   -2   -7    4     -2.28      0.00
   -1   -7    4     -0.40      0.00
    0   -7    4      0.61      0.00
    1   -7    4      0.25      0.00
    2   -7    4     -0.42      0.00
    3   -7    4     -0.48      0.00
    4   -7    4     -1.02      0.00
    5   -7    4     -1.47      0.00
  -12   -6    4     -4.81      0.00
  -11   -6    4     -2.14      0.00
  -10   -6    4      0.58      0.00
   -9   -6    4      0.70      0.00
   -8   -6    4     -0.33      0.00
   -7   -6    4     -0.61      0.00
   -6   -6    4      1.18      0.00
   -5   -6    4      1.60      0.00
   -4   -6    4      1.91      0.00
   -3   -6    4      4.05      0.00
   -2   -6    4      3.21      0.00
   -1   -6    4     -0.27      0.00
    0   -6    4     -1.39      0.00
    1   -6    4     -1.20      0.00
    2   -6    4      0.09      0.00
    3   -6    4      1.57      0.00
    4   -6    4      1.92      0.00
    5   -6    4      1.79      0.00
    6   -6    4      0.98      0.00
  -12   -5    4      1.74      0.00
  -11   -5    4      1.27      0.00
  -10   -5    4     -0.82      0.00
   -9   -5    4      0.68      0.00
   -8   -5    4      0.92      0.00
   -7   -5    4      0.86      0.00
   -6   -5    4     -0.29      0.00
   -5   -5    4     -1.67      0.00
   -4   -5    4     -0.77      0.00
   -3   -5    4     -0.71      0.00
   -2   -5    4     -0.69      0.00
   -1   -5    4      2.23      0.00
    0   -5    4      4.29      0.00
    1   -5    4      3.53      0.00
    2   -5    4      0.80      0.00
    3   -5    4     -1.76      0.00
    4   -5    4     -2.11      0.00
    5   -5    4     -1.46      0.00
    6   -5    4     -0.25      0.00
  -12   -4    4      1.91      0.00
  -11   -4    4     -0.81      0.00
  -10   -4    4     -0.71      0.00
   -9   -4    4     -1.16      0.00
   -8   -4    4     -0.42      0.00
   -7   -4    4      0.13      0.00
   -6   -4    4     -0.14      0.00
   -5   -4    4      1.34      0.00
   -4   -4    4     -0.61      0.00
   -3   -4    4     -3.30      0.00
   -2   -4    4     -3.95      0.00
   -1   -4    4     -4.09      0.00
    0   -4    4     -5.59      0.00
    1   -4    4     -6.43      0.00
    2   -4    4     -3.59      0.00
    3   -4    4      0.52      0.00
    4   -4    4      0.51      0.00
    5   -4    4      0.52      0.00
    6   -4    4     -0.04      0.00
    7   -4    4     -0.36      0.00
  -12   -3    4     -1.91      0.00
  -11   -3    4      0.34      0.00
  -10   -3    4      1.91      0.00
   -9   -3    4      1.09      0.00
   -8   -3    4     -0.68      0.00
   -7   -3    4     -1.55      0.00
   -6   -3    4     -0.06      0.00
   -5   -3    4     -1.38      0.00
   -4   -3    4      0.45      0.00
   -3   -3    4      3.76      0.00
   -2   -3    4      5.49      0.00
   -1   -3    4      3.57      0.00
    0   -3    4      1.97      0.00
    1   -3    4      4.22      0.00
    2   -3    4      5.29      0.00
    3   -3    4      1.69      0.00
    4   -3    4      0.99      0.00
    5   -3    4      1.37      0.00
    6   -3    4     -0.04      0.00
    7   -3    4      0.31      0.00
    8   -3    4      0.63      0.00
    9   -3    4      2.27      0.00
   10   -3    4      1.03      0.00
  -12   -2    4     -0.75      0.00
  -11   -2    4     -0.97      0.00
  -10   -2    4     -1.16      0.00
   -9   -2    4     -0.85      0.00
   -8   -2    4      0.66      0.00
   -7   -2    4      2.46      0.00
   -6   -2    4      1.22      0.00
   -5   -2    4      1.59      0.00
   -4   -2    4      0.24      0.00
   -3   -2    4     -1.07      0.00
   -2   -2    4     -2.44      0.00
   -1   -2    4     -0.34      0.00
    0   -2    4      4.37      0.00
    1   -2    4      2.52      0.00
    2   -2    4     -1.92      0.00
    3   -2    4     -2.68      0.00
    4   -2    4     -0.94      0.00
    5   -2    4     -2.15      0.00
    6   -2    4     -0.59      0.00
    7   -2    4     -0.08      0.00
    8   -2    4     -0.32      0.00
    9   -2    4     -1.21      0.00
   10   -2    4     -1.11      0.00
  -12   -1    4      1.86      0.00
  -11   -1    4      2.24      0.00
  -10   -1    4      0.73      0.00
   -9   -1    4      0.77      0.00
   -8   -1    4      0.11      0.00
   -7   -1    4     -2.72      0.00
   -6   -1    4     -2.81      0.00
   -5   -1    4     -1.54      0.00
   -4   -1    4      0.96      0.00
   -3   -1    4      0.18      0.00
   -2   -1    4     -0.93      0.00
   -1   -1    4     -2.22      0.00
    0   -1    4     -9.06      0.00
    1   -1    4     -8.86      0.00
    2   -1    4     -4.69      0.00
    3   -1    4      0.02      0.00
    4   -1    4      0.67      0.00
    5   -1    4      1.08      0.00
    6   -1    4      1.44      0.00
    7   -1    4     -0.14      0.00
    8   -1    4      0.25      0.00
    9   -1    4      0.02      0.00
   10   -1    4      0.62      0.00
   11   -1    4      0.19      0.00
  -12    0    4     -0.34      0.00
  -11    0    4     -1.76      0.00
  -10    0    4     -1.33      0.00
   -9    0    4     -1.24      0.00
   -8    0    4     -0.64      0.00
   -7    0    4      2.25      0.00
   -6    0    4      2.94      0.00
   -5    0    4      0.79      0.00
   -4    0    4     -3.56      0.00
   -3    0    4     -4.21      0.00
   -2    0    4     -0.35      0.00
   -1    0    4      2.38      0.00
    0    0    4      9.38      0.00
    1    0    4     11.76      0.00
    2    0    4     10.37      0.00
    3    0    4      5.58      0.00
    4    0    4     -0.51      0.00
    5    0    4     -0.72      0.00
    6    0    4     -1.43      0.00
    7    0    4      0.05      0.00
    8    0    4      0.03      0.00
    9    0    4      0.20      0.00
   10    0    4      0.32      0.00
   11    0    4     -0.94      0.00
  -11    1    4      0.13      0.00
  -10    1    4      1.33      0.00
   -9    1    4      1.39      0.00
   -8    1    4      0.63      0.00
   -7    1    4     -0.71      0.00
   -6    1    4     -0.61      0.00
   -5    1    4      0.88      0.00
   -4    1    4      4.55      0.00
   -3    1    4      8.47      0.00
   -2    1    4      5.81      0.00
   -1    1    4     -1.56      0.00
    0    1    4     -7.40      0.00
    1    1    4     -8.07      0.00
    2    1    4     -9.66      0.00
    3    1    4     -8.56      0.00
    4    1    4      0.40      0.00
    5    1    4      2.64      0.00
    6    1    4      1.55      0.00
    7    1    4      0.17      0.00
    8    1    4     -0.64      0.00
    9    1    4     -0.18      0.00
   10    1    4     -1.54      0.00
   11    1    4     -0.05      0.00
   12    1    4      1.00      0.00
  -11    2    4      0.36      0.00
  -10    2    4     -0.38      0.00
   -9    2    4     -0.90      0.00
   -8    2    4      0.25      0.00
   -7    2    4     -0.35      0.00
   -6    2    4     -2.11      0.00
   -5    2    4     -2.55      0.00
   -4    2    4     -3.21      0.00
   -3    2    4     -6.69      0.00
   -2    2    4     -8.27      0.00
   -1    2    4      0.17      0.00
    0    2    4      6.74      0.00
    2    2    4      0.93      0.00
    3    2    4      4.62      0.00
    4    2    4     -1.46      0.00
    5    2    4     -5.08      0.00
    6    2    4     -2.83      0.00
    7    2    4     -0.93      0.00
    8    2    4      0.82      0.00
    9    2    4      0.40      0.00
   10    2    4      1.47      0.00
   11    2    4      1.33      0.00
   12    2    4     -0.66      0.00
  -11    3    4      0.11      0.00
  -10    3    4     -1.42      0.00
   -9    3    4      0.45      0.00
   -8    3    4     -0.88      0.00
   -7    3    4     -0.76      0.00
   -6    3    4      2.33      0.00
   -5    3    4      2.73      0.00
   -4    3    4      1.37      0.00
   -3    3    4      1.10      0.00
   -2    3    4      3.42      0.00
   -1    3    4      0.56      0.00
    0    3    4     -5.71      0.00
    1    3    4      0.64      0.00
    2    3    4      5.93      0.00
    3    3    4      1.66      0.00
    4    3    4      2.44      0.00
    5    3    4      4.95      0.00
    6    3    4      3.61      0.00
    7    3    4      1.90      0.00
    8    3    4      0.21      0.00
    9    3    4     -0.54      0.00
   10    3    4     -0.43      0.00
   11    3    4     -0.66      0.00
   12    3    4      0.60      0.00
  -10    4    4      2.65      0.00
   -9    4    4      0.44      0.00
   -8    4    4     -0.13      0.00
   -7    4    4      1.94      0.00
   -6    4    4     -0.75      0.00
   -5    4    4     -1.72      0.00
   -4    4    4      0.22      0.00
   -3    4    4      2.71      0.00
   -2    4    4      3.05      0.00
   -1    4    4      1.37      0.00
    0    4    4      2.45      0.00
    1    4    4      0.79      0.00
    2    4    4     -4.07      0.00
    3    4    4     -3.24      0.00
    4    4    4     -1.09      0.00
    5    4    4     -1.15      0.00
    6    4    4     -1.91      0.00
    7    4    4     -1.54      0.00
    8    4    4     -0.91      0.00
    9    4    4      0.50      0.00
   10    4    4      0.61      0.00
   11    4    4      0.18      0.00
   12    4    4     -0.50      0.00
  -10    5    4     -0.94      0.00
   -9    5    4     -1.02      0.00
   -8    5    4      1.24      0.00
   -7    5    4     -0.90      0.00
   -6    5    4      0.13      0.00
   -5    5    4      1.35      0.00
   -4    5    4     -0.96      0.00
   -3    5    4     -3.89      0.00
   -2    5    4     -4.86      0.00
   -1    5    4     -3.28      0.00
    0    5    4     -0.09      0.00
    1    5    4      0.42      0.00
    2    5    4      0.61      0.00
    3    5    4      1.58      0.00
    4    5    4     -0.74      0.00
    5    5    4     -3.22      0.00
    6    5    4     -1.48      0.00
    7    5    4     -0.30      0.00
    8    5    4     -0.19      0.00
    9    5    4     -0.87      0.00
   10    5    4     -1.47      0.00
   11    5    4     -1.10      0.00
   12    5    4     -0.85      0.00
   -9    6    4     -0.35      0.00
   -8    6    4     -1.01      0.00
   -7    6    4     -0.59      0.00
   -6    6    4     -0.50      0.00
   -5    6    4     -1.38      0.00
   -4    6    4     -0.09      0.00
   -3    6    4      2.38      0.00
   -2    6    4      2.84      0.00
   -1    6    4      2.10      0.00
    0    6    4     -0.22      0.00
    1    6    4     -2.19      0.00
    2    6    4     -0.67      0.00
    3    6    4     -1.02      0.00
    4    6    4      0.19      0.00
    5    6    4      4.03      0.00
    6    6    4      3.80      0.00
    7    6    4      2.12      0.00
    8    6    4      1.16      0.00
    9    6    4      1.08      0.00
   10    6    4      1.43      0.00
   11    6    4      1.00      0.00
   12    6    4      1.87      0.00
   -9    7    4      1.69      0.00
   -8    7    4      0.81      0.00
   -7    7    4      0.45      0.00
   -6    7    4      0.22      0.00
   -5    7    4      0.29      0.00
   -4    7    4      0.93      0.00
   -3    7    4      1.17      0.00
   -2    7    4      0.43      0.00
   -1    7    4     -0.10      0.00
    0    7    4      0.48      0.00
    1    7    4      2.88      0.00
    2    7    4      2.09      0.00
    3    7    4      1.28      0.00
    4    7    4      1.60      0.00
    5    7    4     -1.31      0.00
    6    7    4     -3.22      0.00
    7    7    4     -2.72      0.00
    8    7    4     -0.36      0.00
    9    7    4      0.56      0.00
   10    7    4     -0.70      0.00
   11    7    4      0.01      0.00
   12    7    4     -1.05      0.00
   -8    8    4     -1.16      0.00
   -7    8    4      0.25      0.00
   -6    8    4      0.80      0.00
   -5    8    4      1.15      0.00
   -4    8    4      0.37      0.00
   -3    8    4     -2.38      0.00
   -2    8    4     -2.91      0.00
   -1    8    4     -0.77      0.00
    0    8    4     -0.55      0.00
    1    8    4     -3.55      0.00
    2    8    4     -4.14      0.00
    3    8    4     -1.81      0.00
    4    8    4     -2.02      0.00
    5    8    4     -1.24      0.00
    6    8    4      0.99      0.00
    7    8    4      1.80      0.00
    8    8    4     -0.51      0.00
    9    8    4     -2.80      0.00
   10    8    4     -0.53      0.00
   11    8    4     -0.09      0.00
   12    8    4     -0.01      0.00
   -7    9    4     -0.08      0.00
   -6    9    4     -1.27      0.00
   -5    9    4     -1.71      0.00
   -4    9    4     -1.83      0.00
   -3    9    4      0.31      0.00
   -2    9    4      2.56      0.00
   -1    9    4      1.22      0.00
    0    9    4      0.22      0.00
    1    9    4      2.29      0.00
    2    9    4      4.08      0.00
    3    9    4      2.25      0.00
    4    9    4      0.93      0.00
    5    9    4      1.22      0.00
    6    9    4      0.17      0.00
    7    9    4     -0.39      0.00
    8    9    4      0.26      0.00
    9    9    4      2.52      0.00
   10    9    4      1.67      0.00
   11    9    4      0.01      0.00
   12    9    4      0.13      0.00
   -7   10    4     -0.33      0.00
   -6   10    4      0.34      0.00
   -5   10    4      1.31      0.00
   -4   10    4      2.13      0.00
   -3   10    4      1.01      0.00
   -2   10    4     -0.93      0.00
   -1   10    4     -0.93      0.00
    0   10    4     -0.11      0.00
    1   10    4      0.39      0.00
    2   10    4      0.14      0.00
    3   10    4     -0.72      0.00
    4   10    4      0.01      0.00
    5   10    4      0.00      0.00
    6   10    4      0.28      0.00
    7   10    4      0.14      0.00
    8   10    4      0.22      0.00
    9   10    4     -0.24      0.00
   10   10    4     -1.34      0.00
   11   10    4     -0.31      0.00
   12   10    4      0.16      0.00
   -6   11    4      0.81      0.00
   -5   11    4      0.23      0.00
   -4   11    4     -1.78      0.00
   -3   11    4     -1.02      0.00
   -2   11    4      0.55      0.00
   -1   11    4      0.16      0.00
    0   11    4     -0.35      0.00
    1   11    4     -1.27      0.00
    2   11    4     -3.00      0.00
    3   11    4     -1.29      0.00
    4   11    4      0.32      0.00
    5   11    4     -0.06      0.00
    6   11    4     -0.75      0.00
    7   11    4     -1.19      0.00
    8   11    4     -0.64      0.00
    9   11    4     -1.11      0.00
   10   11    4     -0.09      0.00
   11   11    4      0.14      0.00
   -5   12    4     -1.53      0.00
   -4   12    4      0.46      0.00
   -3   12    4      1.16      0.00
   -2   12    4     -0.59      0.00
   -1   12    4     -0.46      0.00
    0   12    4      0.41      0.00
    1   12    4      0.74      0.00
    2   12    4      1.77      0.00
    3   12    4      1.15      0.00
    4   12    4     -0.84      0.00
    5   12    4     -0.50      0.00
    6   12    4      0.65      0.00
    7   12    4      2.15      0.00
    8   12    4      1.28      0.00
    9   12    4      0.72      0.00
   10   12    4      0.92      0.00
   11   12    4      0.29      0.00
   -3   13    4     -0.55      0.00
   -2   13    4      0.42      0.00
   -1   13    4      1.49      0.00
    0   13    4      0.94      0.00
    1   13    4     -0.20      0.00
    2   13    4     -0.45      0.00
    3   13    4     -0.47      0.00
    4   13    4     -0.16      0.00
    5   13    4     -0.53      0.00
    6   13    4     -0.98      0.00
    7   13    4     -1.82      0.00
    8   13    4     -1.31      0.00
    9   13    4      0.38      0.00
   10   13    4     -0.53      0.00
   11   13    4     -0.48      0.00
   -2   14    4     -0.55      0.00
   -1   14    4     -1.72      0.00
    0   14    4     -1.70      0.00
    1   14    4      0.21      0.00
    2   14    4      0.72      0.00
    3   14    4      0.25      0.00
    4   14    4      1.17      0.00
    6   14    4      2.10      0.00
    7   14    4      0.66      0.00
    8   14    4     -0.29      0.00
    9   14    4     -1.44      0.00
   10   14    4     -0.49      0.00
    0   15    4      0.68      0.00
    1   15    4     -1.35      0.00
    2   15    4     -1.88      0.00
    3   15    4      0.09      0.00
    4   15    4      0.09      0.00
    7   15    4     -0.33      0.00
    8   15    4      1.99      0.00
    9   15    4      2.02      0.00
    2   16    4      2.68      0.00
    3   16    4      0.38      0.00
    4   16    4     -1.64      0.00
    7   16    4      0.83      0.00
   -6  -14    5     -0.03      0.00
   -5  -14    5     -0.43      0.00
   -4  -14    5     -1.86      0.00
   -3  -14    5     -0.60      0.00
   -8  -13    5     -0.70      0.00
   -7  -13    5     -0.71      0.00
   -6  -13    5     -0.48      0.00
   -5  -13    5     -0.92      0.00
   -4  -13    5      0.93      0.00
   -3  -13    5      1.03      0.00
   -2  -13    5     -1.10      0.00
   -9  -12    5      0.61      0.00
   -8  -12    5      0.83      0.00
   -7  -12    5      0.92      0.00
   -6  -12    5      0.32      0.00
   -5  -12    5      0.40      0.00
   -4  -12    5      0.10      0.00
   -3  -12    5     -1.21      0.00
   -2  -12    5      0.74      0.00
  -11  -11    5     -0.68      0.00
  -10  -11    5      0.19      0.00
   -9  -11    5      0.08      0.00
   -8  -11    5     -0.09      0.00
   -7  -11    5     -0.06      0.00
   -6  -11    5      0.52      0.00
   -5  -11    5      1.79      0.00
   -4  -11    5      1.07      0.00
   -3  -11    5      0.84      0.00
   -2  -11    5      0.61      0.00
  -11  -10    5     -0.64      0.00
  -10  -10    5     -1.44      0.00
   -9  -10    5     -1.51      0.00
   -8  -10    5     -1.10      0.00
   -7  -10    5     -1.35      0.00
   -6  -10    5     -1.30      0.00
   -5  -10    5     -2.02      0.00
   -4  -10    5     -1.79      0.00
   -3  -10    5     -0.02      0.00
   -2  -10    5     -0.39      0.00
   -1  -10    5      0.37      0.00
  -12   -9    5      2.16      0.00
  -11   -9    5      2.59      0.00
  -10   -9    5      2.19      0.00
   -9   -9    5      2.32      0.00
   -8   -9    5      1.70      0.00
   -7   -9    5      1.29      0.00
   -6   -9    5      0.93      0.00
   -5   -9    5      0.46      0.00
   -4   -9    5      0.46      0.00
   -3   -9    5     -0.39      0.00
   -2   -9    5     -0.61      0.00
   -1   -9    5      0.52      0.00
    0   -9    5     -1.22      0.00
    1   -9    5     -1.07      0.00
    2   -9    5      0.35      0.00
    3   -9    5     -1.26      0.00
  -12   -8    5     -2.95      0.00
  -11   -8    5     -3.35      0.00
  -10   -8    5     -1.56      0.00
   -9   -8    5     -1.10      0.00
   -8   -8    5     -1.28      0.00
   -7   -8    5     -0.01      0.00
   -6   -8    5      0.63      0.00
   -5   -8    5      0.49      0.00
   -4   -8    5      0.69      0.00
   -3   -8    5      0.84      0.00
   -2   -8    5      1.15      0.00
   -1   -8    5      0.00      0.00
    0   -8    5     -0.09      0.00
    1   -8    5      1.37      0.00
    2   -8    5      0.26      0.00
    3   -8    5     -0.38      0.00
    4   -8    5     -0.61      0.00
  -12   -7    5      5.25      0.00
  -11   -7    5      3.41      0.00
  -10   -7    5      0.62      0.00
   -9   -7    5     -0.60      0.00
   -8   -7    5      0.25      0.00
   -7   -7    5     -0.37      0.00
   -6   -7    5     -1.50      0.00
   -5   -7    5     -0.84      0.00
   -4   -7    5     -1.01      0.00
   -3   -7    5     -2.27      0.00
   -2   -7    5     -2.46      0.00
   -1   -7    5     -1.08      0.00
    0   -7    5      0.45      0.00
    1   -7    5      0.05      0.00
    2   -7    5     -0.61      0.00
    3   -7    5     -0.29      0.00
    4   -7    5      0.25      0.00
  -12   -6    5     -6.46      0.00
  -11   -6    5     -3.39      0.00
  -10   -6    5      0.40      0.00
   -9   -6    5      0.55      0.00
   -8   -6    5      0.05      0.00
   -7   -6    5     -0.27      0.00
   -6   -6    5      0.67      0.00
   -5   -6    5      1.14      0.00
   -4   -6    5      1.36      0.00
   -3   -6    5      2.87      0.00
   -2   -6    5      3.34      0.00
   -1   -6    5      1.03      0.00
    0   -6    5     -0.99      0.00
    1   -6    5     -1.56      0.00
    2   -6    5     -0.78      0.00
    3   -6    5      0.81      0.00
    4   -6    5      1.00      0.00
    5   -6    5      0.66      0.00
  -12   -5    5      2.61      0.00
  -11   -5    5      2.83      0.00
  -10   -5    5     -0.72      0.00
   -9   -5    5      0.47      0.00
   -8   -5    5      0.68      0.00
   -7   -5    5      0.32      0.00
   -6   -5    5      0.30      0.00
   -5   -5    5     -1.27      0.00
   -4   -5    5     -1.43      0.00
   -3   -5    5     -0.74      0.00
   -2   -5    5     -0.54      0.00
   -1   -5    5      1.14      0.00
    0   -5    5      3.08      0.00
    1   -5    5      3.14      0.00
    2   -5    5      2.00      0.00
    3   -5    5     -0.32      0.00
    4   -5    5     -1.75      0.00
    5   -5    5     -1.02      0.00
    6   -5    5     -0.19      0.00
    9   -5    5      0.43      0.00
  -12   -4    5      2.70      0.00
  -11   -4    5     -1.36      0.00
  -10   -4    5     -1.06      0.00
   -9   -4    5     -1.24      0.00
   -8   -4    5     -0.84      0.00
   -7   -4    5      0.94      0.00
   -6   -4    5     -0.08      0.00
   -5   -4    5      1.30      0.00
   -4   -4    5      1.24      0.00
   -3   -4    5     -1.91      0.00
   -2   -4    5     -4.34      0.00
   -1   -4    5     -4.33      0.00
    0   -4    5     -4.50      0.00
    1   -4    5     -4.57      0.00
    2   -4    5     -3.11      0.00
    3   -4    5     -0.43      0.00
    4   -4    5      0.83      0.00
    5   -4    5      1.12      0.00
    6   -4    5     -0.14      0.00
    7   -4    5     -0.38      0.00
    8   -4    5     -0.79      0.00
    9   -4    5     -1.45      0.00
  -12   -3    5     -3.32      0.00
  -11   -3    5      0.14      0.00
  -10   -3    5      2.59      0.00
   -9   -3    5      1.56      0.00
   -8   -3    5      0.08      0.00
   -7   -3    5     -2.36      0.00
   -6   -3    5     -0.89      0.00
   -5   -3    5     -1.33      0.00
   -4   -3    5     -1.21      0.00
   -3   -3    5      2.24      0.00
   -2   -3    5      6.16      0.00
   -1   -3    5      5.53      0.00
    0   -3    5      2.53      0.00
    1   -3    5      2.47      0.00
    2   -3    5      3.09      0.00
    3   -3    5      1.36      0.00
    4   -3    5      0.59      0.00
    5   -3    5      0.34      0.00
    6   -3    5     -0.34      0.00
    7   -3    5      0.41      0.00
    8   -3    5      0.30      0.00
    9   -3    5      1.71      0.00
   10   -3    5      1.05      0.00
  -12   -2    5      0.40      0.00
  -11   -2    5     -0.90      0.00
  -10   -2    5     -1.71      0.00
   -9   -2    5     -0.80      0.00
   -8   -2    5      0.31      0.00
   -7   -2    5      2.55      0.00
   -6   -2    5      1.84      0.00
   -5   -2    5      1.43      0.00
   -4   -2    5      0.79      0.00
   -3   -2    5     -0.99      0.00
   -2   -2    5     -3.51      0.00
   -1   -2    5     -3.03      0.00
    0   -2    5      2.30      0.00
    1   -2    5      3.57      0.00
    2   -2    5      0.83      0.00
    3   -2    5     -1.03      0.00
    4   -2    5     -0.73      0.00
    5   -2    5     -1.52      0.00
    6   -2    5     -0.15      0.00
    7   -2    5      0.09      0.00
    8   -2    5      0.04      0.00
    9   -2    5     -0.46      0.00
   10   -2    5     -0.99      0.00
  -12   -1    5      1.25      0.00
  -11   -1    5      2.36      0.00
  -10   -1    5      1.01      0.00
   -9   -1    5      0.02      0.00
   -8   -1    5      0.03      0.00
   -7   -1    5     -1.82      0.00
   -6   -1    5     -2.47      0.00
   -5   -1    5     -1.67      0.00
   -4   -1    5      0.60      0.00
   -3   -1    5      1.31      0.00
   -2   -1    5      0.28      0.00
   -1   -1    5     -0.59      0.00
    0   -1    5     -6.08      0.00
    1   -1    5     -8.75      0.00
    2   -1    5     -6.91      0.00
    3   -1    5     -2.41      0.00
    4   -1    5     -0.21      0.00
    5   -1    5      0.73      0.00
    6   -1    5      1.05      0.00
    7   -1    5     -0.23      0.00
    8   -1    5      0.15      0.00
    9   -1    5     -0.28      0.00
   10   -1    5      0.45      0.00
   11   -1    5      0.53      0.00
  -12    0    5     -0.45      0.00
  -11    0    5     -1.76      0.00
  -10    0    5     -1.61      0.00
   -9    0    5     -1.06      0.00
   -8    0    5     -0.98      0.00
   -7    0    5      0.96      0.00
   -6    0    5      2.17      0.00
   -5    0    5      1.29      0.00
   -4    0    5     -2.41      0.00
   -3    0    5     -4.76      0.00
   -2    0    5     -1.82      0.00
   -1    0    5      1.35      0.00
    0    0    5      5.40      0.00
    1    0    5      8.39      0.00
    2    0    5     10.02      0.00
    3    0    5      7.19      0.00
    4    0    5      1.37      0.00
    5    0    5     -0.24      0.00
    6    0    5     -1.24      0.00
    7    0    5     -0.08      0.00
    8    0    5     -0.20      0.00
    9    0    5     -0.28      0.00
   10    0    5      0.02      0.00
   11    0    5     -1.15      0.00
  -11    1    5      0.05      0.00
  -10    1    5      1.67      0.00
   -9    1    5      2.38      0.00
   -8    1    5      1.78      0.00
   -7    1    5      0.13      0.00
   -6    1    5     -0.32      0.00
   -5    1    5      0.46      0.00
   -4    1    5      3.31      0.00
   -3    1    5      7.80      0.00
   -2    1    5      7.68      0.00
   -1    1    5      1.37      0.00
    0    1    5     -3.18      0.00
    1    1    5     -3.39      0.00
    2    1    5     -7.08      0.00
    3    1    5     -8.65      0.00
    4    1    5     -1.91      0.00
    5    1    5      1.76      0.00
    6    1    5      1.90      0.00
    7    1    5      0.72      0.00
    8    1    5     -0.16      0.00
    9    1    5      0.62      0.00
   10    1    5     -0.65      0.00
   11    1    5      0.09      0.00
  -11    2    5      0.32      0.00
  -10    2    5     -0.68      0.00
   -9    2    5     -2.13      0.00
   -8    2    5     -1.01      0.00
   -7    2    5     -0.44      0.00
   -6    2    5     -1.68      0.00
   -5    2    5     -2.60      0.00
   -4    2    5     -2.99      0.00
   -3    2    5     -5.90      0.00
   -2    2    5     -9.55      0.00
   -1    2    5     -4.06      0.00
    0    2    5      3.86      0.00
    1    2    5      0.85      0.00
    2    2    5      0.86      0.00
    3    2    5      4.67      0.00
    4    2    5      0.66      0.00
    5    2    5     -3.57      0.00
    6    2    5     -3.38      0.00
    7    2    5     -1.89      0.00
    8    2    5     -0.11      0.00
    9    2    5     -0.30      0.00
   10    2    5      0.57      0.00
   11    2    5      1.35      0.00
   12    2    5     -0.18      0.00
  -11    3    5      0.17      0.00
  -10    3    5     -1.52      0.00
   -9    3    5      0.76      0.00
   -8    3    5     -0.15      0.00
   -7    3    5     -1.06      0.00
   -6    3    5      1.49      0.00
   -5    3    5      3.07      0.00
   -4    3    5      2.38      0.00
   -3    3    5      1.25      0.00
   -2    3    5      3.43      0.00
   -1    3    5      2.54      0.00
    0    3    5     -5.00      0.00
    1    3    5     -3.44      0.00
    2    3    5      1.60      0.00
    3    3    5      0.41      0.00
    4    3    5      1.30      0.00
    5    3    5      3.21      0.00
    6    3    5      3.42      0.00
    7    3    5      2.53      0.00
    8    3    5      1.27      0.00
    9    3    5      0.26      0.00
   10    3    5      0.35      0.00
   11    3    5     -0.41      0.00
   12    3    5     -0.07      0.00
  -10    4    5      3.52      0.00
   -9    4    5      1.28      0.00
   -8    4    5     -0.44      0.00
   -7    4    5      2.19      0.00
   -6    4    5      0.41      0.00
   -5    4    5     -1.67      0.00
   -4    4    5     -1.40      0.00
   -3    4    5      1.53      0.00
   -2    4    5      3.50      0.00
   -1    4    5      2.40      0.00
    0    4    5      3.51      0.00
    1    4    5      4.23      0.00
    2    4    5      0.48      0.00
    3    4    5     -1.51      0.00
    4    4    5     -1.22      0.00
    5    4    5     -0.25      0.00
    6    4    5     -0.85      0.00
    7    4    5     -1.32      0.00
    8    4    5     -1.51      0.00
    9    4    5     -0.31      0.00
   10    4    5     -0.14      0.00
   11    4    5     -0.76      0.00
   12    4    5     -0.50      0.00
  -10    5    5     -2.03      0.00
   -9    5    5     -2.07      0.00
   -8    5    5      1.30      0.00
   -7    5    5     -0.93      0.00
   -6    5    5     -1.32      0.00
   -5    5    5      0.21      0.00
   -4    5    5      0.04      0.00
   -3    5    5     -2.42      0.00
   -2    5    5     -5.14      0.00
   -1    5    5     -4.96      0.00
    0    5    5     -1.57      0.00
    1    5    5     -0.52      0.00
    2    5    5     -1.05      0.00
    3    5    5      0.33      0.00
    4    5    5     -0.25      0.00
    5    5    5     -2.76      0.00
    6    5    5     -2.21      0.00
    7    5    5     -0.87      0.00
    8    5    5      0.04      0.00
    9    5    5     -0.37      0.00
   10    5    5     -1.28      0.00
   11    5    5     -0.23      0.00
   12    5    5     -0.17      0.00
   -9    6    5     -0.34      0.00
   -8    6    5     -0.87      0.00
   -7    6    5     -0.55      0.00
   -6    6    5      0.37      0.00
   -5    6    5      0.31      0.00
   -4    6    5      0.49      0.00
   -3    6    5      1.49      0.00
   -2    6    5      2.82      0.00
   -1    6    5      2.91      0.00
    0    6    5      0.31      0.00
    1    6    5     -2.47      0.00
    2    6    5     -0.70      0.00
    3    6    5     -0.23      0.00
    4    6    5      0.09      0.00
    5    6    5      2.74      0.00
    6    6    5      3.12      0.00
    7    6    5      2.36      0.00
    8    6    5      1.22      0.00
    9    6    5      0.75      0.00
   10    6    5      1.70      0.00
   11    6    5      1.05      0.00
   12    6    5      1.28      0.00
   -9    7    5      2.42      0.00
   -8    7    5      0.83      0.00
   -7    7    5      0.24      0.00
   -6    7    5      0.68      0.00
   -5    7    5     -0.11      0.00
   -4    7    5     -0.41      0.00
   -3    7    5      1.33      0.00
   -2    7    5      1.29      0.00
   -1    7    5      0.05      0.00
    0    7    5      0.69      0.00
    1    7    5      3.35      0.00
    2    7    5      2.42      0.00
    3    7    5      0.76      0.00
    4    7    5      1.30      0.00
    5    7    5     -0.14      0.00
    6    7    5     -1.77      0.00
    7    7    5     -2.63      0.00
    8    7    5     -1.04      0.00
    9    7    5      0.65      0.00
   10    7    5     -0.54      0.00
   11    7    5     -0.38      0.00
   12    7    5     -0.96      0.00
   -8    8    5     -1.40      0.00
   -7    8    5      0.30      0.00
   -6    8    5     -0.10      0.00
   -5    8    5     -0.01      0.00
   -4    8    5      0.88      0.00
   -3    8    5     -2.04      0.00
   -2    8    5     -4.20      0.00
   -1    8    5     -1.42      0.00
    0    8    5     -0.30      0.00
    1    8    5     -3.40      0.00
    2    8    5     -4.47      0.00
    3    8    5     -1.83      0.00
    4    8    5     -1.53      0.00
    5    8    5     -1.71      0.00
    6    8    5      0.01      0.00
    7    8    5      1.81      0.00
    8    8    5      0.39      0.00
    9    8    5     -2.44      0.00
   10    8    5     -0.88      0.00
   11    8    5     -0.04      0.00
   12    8    5      0.15      0.00
   -7    9    5      0.23      0.00
   -6    9    5     -1.00      0.00
   -5    9    5     -0.92      0.00
   -4    9    5     -1.64      0.00
   -3    9    5     -0.46      0.00
   -2    9    5      2.75      0.00
   -1    9    5      1.64      0.00
    0    9    5     -0.35      0.00
    1    9    5      1.74      0.00
    2    9    5      4.22      0.00
    3    9    5      2.76      0.00
    4    9    5      0.67      0.00
    5    9    5      1.26      0.00
    6    9    5      0.78      0.00
    7    9    5     -0.57      0.00
    8    9    5     -0.25      0.00
    9    9    5      2.21      0.00
   10    9    5      1.46      0.00
   11    9    5     -0.11      0.00
   12    9    5      0.14      0.00
   -7   10    5     -0.62      0.00
   -6   10    5      0.10      0.00
   -5   10    5      1.37      0.00
   -4   10    5      2.28      0.00
   -3   10    5      2.05      0.00
   -2   10    5      0.16      0.00
   -1   10    5     -1.00      0.00
    0   10    5     -0.48      0.00
    1   10    5     -0.03      0.00
    2   10    5     -0.02      0.00
    3   10    5     -0.76      0.00
    4   10    5      0.14      0.00
    5   10    5     -0.01      0.00
    6   10    5     -0.47      0.00
    7   10    5      0.20      0.00
    8   10    5      0.76      0.00
    9   10    5     -0.10      0.00
   10   10    5     -0.95      0.00
   11   10    5      0.03      0.00
   12   10    5     -0.21      0.00
   -6   11    5      1.71      0.00
   -5   11    5      1.07      0.00
   -4   11    5     -1.85      0.00
   -3   11    5     -2.01      0.00
   -2   11    5     -0.69      0.00
   -1   11    5      0.18      0.00
    0   11    5      0.92      0.00
    1   11    5      0.09      0.00
    2   11    5     -2.70      0.00
    3   11    5     -2.24      0.00
    4   11    5     -0.55      0.00
    5   11    5     -0.48      0.00
    6   11    5     -0.36      0.00
    7   11    5     -1.15      0.00
    8   11    5     -1.51      0.00
    9   11    5     -1.69      0.00
   10   11    5     -0.36      0.00
   11   11    5      0.09      0.00
   -5   12    5     -3.54      0.00
   -4   12    5     -0.59      0.00
   -3   12    5      1.74      0.00
   -2   12    5      0.45      0.00
   -1   12    5     -0.21      0.00
    0   12    5     -0.43      0.00
    1   12    5     -0.16      0.00
    2   12    5      1.73      0.00
    3   12    5      2.20      0.00
    4   12    5      0.45      0.00
    5   12    5      0.56      0.00
    6   12    5      1.07      0.00
    7   12    5      2.16      0.00
    8   12    5      1.91      0.00
    9   12    5      1.53      0.00
   10   12    5      1.50      0.00
   11   12    5      0.27      0.00
   -3   13    5     -0.43      0.00
   -2   13    5     -0.40      0.00
   -1   13    5      1.00      0.00
    0   13    5      1.06      0.00
    1   13    5     -0.10      0.00
    2   13    5     -0.77      0.00
    3   13    5     -0.73      0.00
    4   13    5     -0.27      0.00
    5   13    5     -1.11      0.00
    6   13    5     -1.67      0.00
    7   13    5     -1.92      0.00
    8   13    5     -1.59      0.00
    9   13    5     -0.03      0.00
   10   13    5     -1.15      0.00
   11   13    5     -0.98      0.00
   -2   14    5     -0.36      0.00
   -1   14    5     -1.62      0.00
    0   14    5     -2.14      0.00
    1   14    5     -0.07      0.00
    2   14    5      0.94      0.00
    3   14    5      0.09      0.00
    4   14    5      0.06      0.00
    5   14    5      1.59      0.00
    6   14    5      2.49      0.00
    7   14    5      1.11      0.00
    8   14    5      0.34      0.00
    9   14    5     -1.00      0.00
   10   14    5     -0.42      0.00
    0   15    5      1.63      0.00
    1   15    5     -0.36      0.00
    2   15    5     -1.65      0.00
    3   15    5     -0.01      0.00
    4   15    5      0.80      0.00
    7   15    5     -1.19      0.00
    8   15    5      0.97      0.00
    9   15    5      1.24      0.00
    2   16    5      2.22      0.00
    3   16    5      0.80      0.00
    4   16    5     -1.18      0.00
    5   16    5     -0.57      0.00
    7   16    5      1.47      0.00
   -8  -13    6     -1.19      0.00
   -7  -13    6     -0.27      0.00
   -6  -13    6     -0.19      0.00
   -5  -13    6     -1.21      0.00
   -4  -13    6      0.46      0.00
   -3  -13    6      1.32      0.00
   -2  -13    6     -0.77      0.00
   -1  -13    6     -0.83      0.00
   -8  -12    6      1.10      0.00
   -7  -12    6      0.30      0.00
   -6  -12    6     -0.05      0.00
   -5  -12    6      1.18      0.00
   -4  -12    6      1.00      0.00
   -3  -12    6     -1.10      0.00
   -2  -12    6      0.04      0.00
   -1  -12    6      2.08      0.00
   -9  -11    6      0.08      0.00
   -8  -11    6     -0.05      0.00
   -7  -11    6      0.32      0.00
   -6  -11    6      1.05      0.00
   -5  -11    6      1.07      0.00
   -4  -11    6      0.08      0.00
   -3  -11    6      0.45      0.00
   -2  -11    6      1.22      0.00
   -1  -11    6     -1.02      0.00
  -11  -10    6     -0.58      0.00
  -10  -10    6     -1.16      0.00
   -9  -10    6     -0.96      0.00
   -8  -10    6     -0.87      0.00
   -7  -10    6     -1.09      0.00
   -6  -10    6     -1.75      0.00
   -5  -10    6     -2.50      0.00
   -4  -10    6     -1.61      0.00
   -3  -10    6      0.24      0.00
   -2  -10    6     -0.43      0.00
   -1  -10    6     -0.46      0.00
    0  -10    6      1.43      0.00
  -11   -9    6      1.97      0.00
  -10   -9    6      1.80      0.00
   -9   -9    6      1.61      0.00
   -8   -9    6      1.35      0.00
   -7   -9    6      1.05      0.00
   -6   -9    6      1.05      0.00
   -5   -9    6      1.40      0.00
   -4   -9    6      1.00      0.00
   -3   -9    6     -0.55      0.00
   -2   -9    6     -0.96      0.00
   -1   -9    6      0.64      0.00
    0   -9    6     -0.40      0.00
    1   -9    6     -0.38      0.00
    2   -9    6      0.32      0.00
  -12   -8    6     -2.29      0.00
  -11   -8    6     -2.48      0.00
  -10   -8    6     -1.05      0.00
   -9   -8    6     -0.79      0.00
   -8   -8    6     -1.34      0.00
   -7   -8    6     -0.36      0.00
   -6   -8    6      0.59      0.00
   -5   -8    6      0.51      0.00
   -4   -8    6      0.32      0.00
   -3   -8    6      0.51      0.00
   -2   -8    6      1.15      0.00
   -1   -8    6     -0.03      0.00
    0   -8    6     -0.46      0.00
    1   -8    6      0.68      0.00
    2   -8    6      0.06      0.00
    3   -8    6     -0.18      0.00
  -12   -7    6      4.74      0.00
  -11   -7    6      2.89      0.00
  -10   -7    6      0.14      0.00
   -9   -7    6     -0.64      0.00
   -8   -7    6      0.49      0.00
   -7   -7    6     -0.07      0.00
   -6   -7    6     -1.35      0.00
   -5   -7    6     -1.26      0.00
   -4   -7    6     -0.90      0.00
   -3   -7    6     -1.08      0.00
   -2   -7    6     -1.96      0.00
   -1   -7    6     -1.20      0.00
    0   -7    6      0.48      0.00
    1   -7    6      0.12      0.00
    2   -7    6     -0.47      0.00
    3   -7    6     -0.46      0.00
    4   -7    6      0.69      0.00
  -12   -6    6     -5.76      0.00
  -11   -6    6     -3.76      0.00
  -10   -6    6      0.41      0.00
   -9   -6    6      0.69      0.00
   -8   -6    6      0.07      0.00
   -7   -6    6      0.02      0.00
   -6   -6    6      0.47      0.00
   -5   -6    6      0.71      0.00
   -4   -6    6      1.03      0.00
   -3   -6    6      1.61      0.00
   -2   -6    6      2.82      0.00
   -1   -6    6      1.98      0.00
    0   -6    6     -0.58      0.00
    1   -6    6     -1.60      0.00
    2   -6    6     -1.20      0.00
    3   -6    6      0.39      0.00
    4   -6    6      0.69      0.00
    5   -6    6     -0.04      0.00
  -12   -5    6      1.09      0.00
  -11   -5    6      3.53      0.00
  -10   -5    6     -0.18      0.00
   -9   -5    6      0.15      0.00
   -8   -5    6      0.71      0.00
   -7   -5    6     -0.12      0.00
   -6   -5    6      0.48      0.00
   -5   -5    6     -0.16      0.00
   -4   -5    6     -1.16      0.00
   -3   -5    6     -0.70      0.00
   -2   -5    6     -0.35      0.00
   -1   -5    6      0.16      0.00
    0   -5    6      2.12      0.00
    1   -5    6      3.05      0.00
    2   -5    6      2.97      0.00
    3   -5    6      1.12      0.00
    4   -5    6     -1.12      0.00
    5   -5    6     -0.84      0.00
    6   -5    6     -0.49      0.00
    7   -5    6     -1.14      0.00
    8   -5    6     -0.19      0.00
  -12   -4    6      5.03      0.00
  -11   -4    6     -1.43      0.00
  -10   -4    6     -1.95      0.00
   -9   -4    6     -1.19      0.00
   -8   -4    6     -1.53      0.00
   -7   -4    6      0.96      0.00
   -6   -4    6      0.21      0.00
   -5   -4    6      0.55      0.00
   -4   -4    6      1.69      0.00
   -3   -4    6     -0.25      0.00
   -2   -4    6     -3.67      0.00
   -1   -4    6     -4.37      0.00
    0   -4    6     -3.92      0.00
    1   -4    6     -3.48      0.00
    2   -4    6     -2.85      0.00
    3   -4    6     -1.50      0.00
    4   -4    6      0.44      0.00
    5   -4    6      1.44      0.00
    6   -4    6      0.40      0.00
    7   -4    6     -0.01      0.00
    8   -4    6     -0.64      0.00
    9   -4    6     -1.46      0.00
  -12   -3    6     -5.72      0.00
  -11   -3    6     -0.16      0.00
  -10   -3    6      3.89      0.00
   -9   -3    6      2.17      0.00
   -8   -3    6      1.25      0.00
   -7   -3    6     -1.93      0.00
   -6   -3    6     -1.86      0.00
   -5   -3    6     -1.40      0.00
   -4   -3    6     -2.09      0.00
   -3   -3    6     -0.10      0.00
   -2   -3    6      4.56      0.00
   -1   -3    6      6.41      0.00
    0   -3    6      3.77      0.00
    1   -3    6      1.59      0.00
    2   -3    6      0.87      0.00
    3   -3    6      0.43      0.00
    4   -3    6      0.14      0.00
    5   -3    6     -0.52      0.00
    6   -3    6     -1.03      0.00
    7   -3    6      0.19      0.00
    8   -3    6      0.71      0.00
    9   -3    6      1.78      0.00
   10   -3    6      0.81      0.00
  -12   -2    6      2.62      0.00
  -11   -2    6     -0.53      0.00
  -10   -2    6     -3.22      0.00
   -9   -2    6     -1.45      0.00
   -8   -2    6     -0.29      0.00
   -7   -2    6      1.87      0.00
   -6   -2    6      2.54      0.00
   -5   -2    6      1.87      0.00
   -4   -2    6      1.45      0.00
   -3   -2    6      0.17      0.00
   -2   -2    6     -2.57      0.00
   -1   -2    6     -4.40      0.00
    0   -2    6     -0.99      0.00
    1   -2    6      2.30      0.00
    2   -2    6      2.74      0.00
    3   -2    6      1.31      0.00
    4   -2    6      0.19      0.00
    5   -2    6     -0.61      0.00
    6   -2    6      0.53      0.00
    7   -2    6      0.49      0.00
    8   -2    6     -0.17      0.00
    9   -2    6     -0.35      0.00
   10   -2    6     -0.32      0.00
  -12   -1    6     -0.35      0.00
  -11   -1    6      1.45      0.00
  -10   -1    6      1.83      0.00
   -9   -1    6     -0.05      0.00
   -8   -1    6     -0.47      0.00
   -7   -1    6     -1.07      0.00
   -6   -1    6     -1.86      0.00
   -5   -1    6     -1.81      0.00
   -4   -1    6     -0.12      0.00
   -3   -1    6      1.35      0.00
   -2   -1    6      1.20      0.00
   -1   -1    6      1.00      0.00
    0   -1    6     -2.60      0.00
    1   -1    6     -6.08      0.00
    2   -1    6     -6.78      0.00
    3   -1    6     -4.29      0.00
    4   -1    6     -1.40      0.00
    5   -1    6      0.05      0.00
    6   -1    6      0.36      0.00
    7   -1    6     -0.56      0.00
    8   -1    6      0.02      0.00
    9   -1    6     -0.39      0.00
   10   -1    6     -0.41      0.00
   11   -1    6     -0.29      0.00
  -12    0    6     -0.41      0.00
  -11    0    6     -0.77      0.00
  -10    0    6     -1.13      0.00
   -9    0    6     -0.62      0.00
   -8    0    6     -0.38      0.00
   -7    0    6      0.21      0.00
   -6    0    6      0.68      0.00
   -5    0    6      1.04      0.00
   -4    0    6     -1.15      0.00
   -3    0    6     -3.94      0.00
   -2    0    6     -3.01      0.00
   -1    0    6     -0.29      0.00
    0    0    6      3.36      0.00
    1    0    6      6.45      0.00
    2    0    6      8.38      0.00
    3    0    6      7.27      0.00
    4    0    6      2.90      0.00
    5    0    6      0.62      0.00
    6    0    6     -0.50      0.00
    7    0    6      0.11      0.00
    8    0    6     -0.01      0.00
    9    0    6     -0.43      0.00
   10    0    6      0.07      0.00
   11    0    6     -0.47      0.00
  -11    1    6     -0.05      0.00
  -10    1    6      0.49      0.00
   -9    1    6      2.07      0.00
   -8    1    6      2.25      0.00
   -7    1    6      0.84      0.00
   -6    1    6      0.62      0.00
   -5    1    6      0.66      0.00
   -4    1    6      2.06      0.00
   -3    1    6      5.73      0.00
   -2    1    6      7.14      0.00
   -1    1    6      3.43      0.00
    0    1    6     -1.18      0.00
    1    1    6     -2.82      0.00
    2    1    6     -5.54      0.00
    3    1    6     -6.94      0.00
    4    1    6     -3.19      0.00
    5    1    6      0.40      0.00
    6    1    6      1.36      0.00
    7    1    6      0.66      0.00
    8    1    6     -0.14      0.00
    9    1    6      0.84      0.00
   10    1    6      0.40      0.00
   11    1    6      0.36      0.00
  -11    2    6     -0.22      0.00
  -10    2    6      0.03      0.00
   -9    2    6     -1.80      0.00
   -8    2    6     -2.04      0.00
   -7    2    6     -1.00      0.00
   -6    2    6     -1.31      0.00
   -5    2    6     -2.33      0.00
   -4    2    6     -2.55      0.00
   -3    2    6     -4.51      0.00
   -2    2    6     -8.02      0.00
   -1    2    6     -6.14      0.00
    0    2    6      0.18      0.00
    1    2    6      0.83      0.00
    2    2    6      1.45      0.00
    3    2    6      3.13      0.00
    4    2    6      1.21      0.00
    5    2    6     -1.86      0.00
    6    2    6     -3.08      0.00
    7    2    6     -2.04      0.00
    8    2    6     -0.53      0.00
    9    2    6     -0.50      0.00
   10    2    6     -0.47      0.00
   11    2    6      0.53      0.00
   12    2    6      0.00      0.00
  -11    3    6      0.64      0.00
  -10    3    6     -1.50      0.00
   -9    3    6      0.12      0.00
   -8    3    6      0.25      0.00
   -7    3    6     -0.74      0.00
   -6    3    6      0.45      0.00
   -5    3    6      2.31      0.00
   -4    3    6      2.74      0.00
   -3    3    6      1.57      0.00
   -2    3    6      2.82      0.00
   -1    3    6      3.27      0.00
    0    3    6     -1.75      0.00
    1    3    6     -3.27      0.00
    2    3    6     -1.30      0.00
    3    3    6     -0.26      0.00
    4    3    6      1.24      0.00
    5    3    6      1.75      0.00
    6    3    6      2.87      0.00
    7    3    6      2.55      0.00
    8    3    6      1.69      0.00
    9    3    6      0.66      0.00
   10    3    6      0.81      0.00
   11    3    6      0.25      0.00
  -10    4    6      3.76      0.00
   -9    4    6      2.51      0.00
   -8    4    6     -0.12      0.00
   -7    4    6      1.86      0.00
   -6    4    6      1.14      0.00
   -5    4    6     -0.75      0.00
   -4    4    6     -2.19      0.00
   -3    4    6      0.11      0.00
   -2    4    6      2.91      0.00
   -1    4    6      2.99      0.00
    0    4    6      3.42      0.00
    1    4    6      4.31      0.00
    2    4    6      3.02      0.00
    3    4    6      0.48      0.00
    4    4    6     -1.41      0.00
    5    4    6      0.08      0.00
    6    4    6      0.06      0.00
    7    4    6     -0.84      0.00
    8    4    6     -1.51      0.00
    9    4    6     -0.83      0.00
   10    4    6     -0.53      0.00
   11    4    6     -1.49      0.00
   12    4    6     -0.76      0.00
  -10    5    6     -3.11      0.00
   -9    5    6     -3.75      0.00
   -8    5    6      0.66      0.00
   -7    5    6     -0.43      0.00
   -6    5    6     -1.64      0.00
   -5    5    6     -0.91      0.00
   -4    5    6      0.48      0.00
   -3    5    6     -0.77      0.00
   -2    5    6     -4.43      0.00
   -1    5    6     -5.74      0.00
    0    5    6     -3.37      0.00
    1    5    6     -1.21      0.00
    2    5    6     -1.51      0.00
    3    5    6     -0.69      0.00
    4    5    6      0.04      0.00
    5    5    6     -1.89      0.00
    6    5    6     -2.64      0.00
    7    5    6     -1.53      0.00
    8    5    6      0.00      0.00
    9    5    6      0.10      0.00
   10    5    6     -1.01      0.00
   11    5    6      0.45      0.00
   12    5    6      0.68      0.00
   -9    6    6      0.77      0.00
   -8    6    6     -0.11      0.00
   -7    6    6     -0.65      0.00
   -6    6    6      0.54      0.00
   -5    6    6      1.58      0.00
   -4    6    6      1.35      0.00
   -3    6    6      0.74      0.00
   -2    6    6      2.63      0.00
   -1    6    6      3.62      0.00
    0    6    6      1.42      0.00
    1    6    6     -1.94      0.00
    2    6    6     -1.39      0.00
    3    6    6     -0.41      0.00
    4    6    6      0.12      0.00
    5    6    6      1.78      0.00
    6    6    6      2.39      0.00
    7    6    6      2.44      0.00
    8    6    6      1.13      0.00
    9    6    6      0.23      0.00
   10    6    6      1.66      0.00
   11    6    6      1.05      0.00
   12    6    6      0.49      0.00
   -9    7    6      2.49      0.00
   -8    7    6      0.30      0.00
   -7    7    6     -0.40      0.00
   -6    7    6      0.82      0.00
   -5    7    6     -0.37      0.00
   -4    7    6     -1.87      0.00
   -3    7    6      0.59      0.00
   -2    7    6      1.23      0.00
   -1    7    6     -0.47      0.00
    0    7    6      0.39      0.00
    1    7    6      3.27      0.00
    2    7    6      2.99      0.00
    3    7    6      1.07      0.00
    4    7    6      0.79      0.00
    5    7    6      0.01      0.00
    6    7    6     -0.52      0.00
    7    7    6     -1.90      0.00
    8    7    6     -1.29      0.00
    9    7    6      0.87      0.00
   10    7    6     -0.11      0.00
   11    7    6     -0.55      0.00
   12    7    6     -0.68      0.00
   -8    8    6     -1.31      0.00
   -7    8    6      0.86      0.00
   -6    8    6     -0.64      0.00
   -5    8    6     -1.42      0.00
   -4    8    6      0.94      0.00
   -3    8    6     -0.88      0.00
   -2    8    6     -4.01      0.00
   -1    8    6     -1.30      0.00
    0    8    6      0.24      0.00
    1    8    6     -2.82      0.00
    2    8    6     -4.42      0.00
    3    8    6     -2.19      0.00
    4    8    6     -1.11      0.00
    5    8    6     -1.29      0.00
    6    8    6     -0.67      0.00
    7    8    6      0.96      0.00
    8    8    6      0.84      0.00
    9    8    6     -1.93      0.00
   10    8    6     -1.48      0.00
   11    8    6     -0.36      0.00
   12    8    6      0.14      0.00
   -7    9    6      0.30      0.00
   -6    9    6     -0.38      0.00
   -5    9    6      0.63      0.00
   -4    9    6     -0.35      0.00
   -3    9    6     -0.86      0.00
   -2    9    6      1.98      0.00
   -1    9    6      1.15      0.00
    0    9    6     -1.35      0.00
    1    9    6      0.72      0.00
    2    9    6      3.83      0.00
    3    9    6      3.38      0.00
    4    9    6      0.91      0.00
    5    9    6      0.95      0.00
    6    9    6      0.92      0.00
    7    9    6     -0.21      0.00
    8    9    6     -0.35      0.00
    9    9    6      1.63      0.00
   10    9    6      1.29      0.00
   11    9    6     -0.12      0.00
   12    9    6      0.01      0.00
   -7   10    6     -0.70      0.00
   -6   10    6     -0.33      0.00
   -5   10    6      0.84      0.00
   -4   10    6      1.52      0.00
   -3   10    6      2.01      0.00
   -2   10    6      1.30      0.00
   -1   10    6      0.16      0.00
    0   10    6      0.35      0.00
    1   10    6      0.15      0.00
    2   10    6     -0.24      0.00
    3   10    6     -1.20      0.00
    4   10    6     -0.29      0.00
    5   10    6     -0.09      0.00
    6   10    6     -0.91      0.00
    7   10    6     -0.05      0.00
    8   10    6      0.69      0.00
    9   10    6     -0.09      0.00
   10   10    6     -0.40      0.00
   11   10    6      0.88      0.00
   -6   11    6      1.95      0.00
   -5   11    6      1.57      0.00
   -4   11    6     -1.69      0.00
   -3   11    6     -2.20      0.00
   -2   11    6     -1.48      0.00
   -1   11    6     -0.66      0.00
    0   11    6      0.85      0.00
    1   11    6      0.93      0.00
    2   11    6     -1.78      0.00
    3   11    6     -2.28      0.00
    4   11    6     -0.85      0.00
    5   11    6     -0.52      0.00
    6   11    6      0.34      0.00
    7   11    6     -0.59      0.00
    8   11    6     -1.73      0.00
    9   11    6     -1.67      0.00
   10   11    6     -0.45      0.00
   11   11    6     -0.62      0.00
   -5   12    6     -4.72      0.00
   -4   12    6     -1.54      0.00
   -3   12    6      1.92      0.00
   -2   12    6      1.07      0.00
   -1   12    6      0.19      0.00
    0   12    6     -0.66      0.00
    1   12    6     -0.91      0.00
    2   12    6      1.10      0.00
    3   12    6      2.47      0.00
    4   12    6      1.25      0.00
    5   12    6      1.28      0.00
    6   12    6      1.11      0.00
    7   12    6      1.70      0.00
    8   12    6      2.27      0.00
    9   12    6      1.93      0.00
   10   12    6      1.45      0.00
   11   12    6      0.40      0.00
   -3   13    6     -0.09      0.00
   -2   13    6     -1.25      0.00
   -1   13    6      0.19      0.00
    0   13    6      0.87      0.00
    1   13    6      0.08      0.00
    2   13    6     -0.79      0.00
    3   13    6     -0.99      0.00
    4   13    6     -0.55      0.00
    5   13    6     -1.84      0.00
    6   13    6     -2.59      0.00
    7   13    6     -1.96      0.00
    8   13    6     -1.79      0.00
    9   13    6     -0.54      0.00
   10   13    6     -1.33      0.00
   11   13    6     -1.21      0.00
   -2   14    6      0.15      0.00
   -1   14    6     -0.66      0.00
    0   14    6     -1.89      0.00
    1   14    6     -0.38      0.00
    2   14    6      0.86      0.00
    3   14    6      0.29      0.00
    4   14    6     -0.33      0.00
    5   14    6      1.15      0.00
    6   14    6      2.99      0.00
    7   14    6      1.47      0.00
    8   14    6      0.63      0.00
    9   14    6     -0.34      0.00
   10   14    6     -0.21      0.00
    0   15    6      1.82      0.00
    1   15    6      0.57      0.00
    2   15    6     -0.87      0.00
    3   15    6      0.04      0.00
    4   15    6      1.08      0.00
    5   15    6      0.36      0.00
    7   15    6     -1.46      0.00
    8   15    6      0.27      0.00
    9   15    6      0.19      0.00
    2   16    6      1.15      0.00
    3   16    6      0.45      0.00
    4   16    6     -0.93      0.00
    5   16    6     -1.02      0.00
   -7  -13    7     -0.25      0.00
   -6  -13    7     -0.08      0.00
   -5  -13    7     -1.03      0.00
   -4  -13    7     -0.23      0.00
   -3  -13    7      0.57      0.00
   -2  -13    7     -0.71      0.00
   -8  -12    7      1.73      0.00
   -7  -12    7      0.26      0.00
   -6  -12    7     -0.14      0.00
   -5  -12    7      1.43      0.00
   -4  -12    7      1.40      0.00
   -3  -12    7     -0.24      0.00
   -2  -12    7      0.09      0.00
   -1  -12    7      1.75      0.00
    0  -12    7      1.72      0.00
   -9  -11    7     -0.34      0.00
   -8  -11    7     -0.57      0.00
   -7  -11    7      0.29      0.00
   -6  -11    7      1.33      0.00
   -5  -11    7      0.36      0.00
   -4  -11    7     -0.70      0.00
   -3  -11    7     -0.30      0.00
   -2  -11    7      0.71      0.00
   -1  -11    7     -0.69      0.00
    0  -11    7     -2.04      0.00
  -10  -10    7     -0.84      0.00
   -9  -10    7     -0.27      0.00
   -8  -10    7     -0.21      0.00
   -7  -10    7     -0.42      0.00
   -6  -10    7     -1.71      0.00
   -5  -10    7     -2.38      0.00
   -4  -10    7     -1.04      0.00
   -3  -10    7      0.56      0.00
   -2  -10    7      0.08      0.00
   -1  -10    7     -0.54      0.00
    0  -10    7      0.84      0.00
  -11   -9    7      1.30      0.00
  -10   -9    7      1.08      0.00
   -9   -9    7      0.61      0.00
   -8   -9    7      0.53      0.00
   -7   -9    7      0.18      0.00
   -6   -9    7      0.65      0.00
   -5   -9    7      1.95      0.00
   -4   -9    7      1.33      0.00
   -3   -9    7     -0.52      0.00
   -2   -9    7     -1.20      0.00
   -1   -9    7      0.35      0.00
    0   -9    7      0.26      0.00
    1   -9    7      0.64      0.00
    2   -9    7      0.73      0.00
  -11   -8    7     -2.01      0.00
  -10   -8    7     -0.34      0.00
   -9   -8    7      0.20      0.00
   -8   -8    7     -0.94      0.00
   -7   -8    7     -0.34      0.00
   -6   -8    7      0.55      0.00
   -5   -8    7      0.27      0.00
   -4   -8    7     -0.03      0.00
   -3   -8    7      0.20      0.00
   -2   -8    7      0.94      0.00
   -1   -8    7      0.04      0.00
    0   -8    7     -0.73      0.00
    1   -8    7     -0.46      0.00
    2   -8    7     -0.77      0.00
    3   -8    7     -0.02      0.00
  -12   -7    7      3.24      0.00
  -11   -7    7      2.57      0.00
  -10   -7    7     -0.12      0.00
   -9   -7    7     -1.42      0.00
   -8   -7    7      0.51      0.00
   -7   -7    7      0.53      0.00
   -6   -7    7     -0.87      0.00
   -5   -7    7     -1.47      0.00
   -4   -7    7     -1.30      0.00
   -3   -7    7     -0.40      0.00
   -2   -7    7     -1.09      0.00
   -1   -7    7     -1.01      0.00
    0   -7    7      0.38      0.00
    1   -7    7      0.35      0.00
    2   -7    7      0.23      0.00
    3   -7    7     -0.34      0.00
    4   -7    7      0.46      0.00
    7   -7    7      1.05      0.00
  -12   -6    7     -2.75      0.00
  -11   -6    7     -2.93      0.00
  -10   -6    7      0.09      0.00
   -9   -6    7      1.19      0.00
   -8   -6    7      0.16      0.00
   -7   -6    7     -0.24      0.00
   -6   -6    7      0.28      0.00
   -5   -6    7      0.55      0.00
   -4   -6    7      1.23      0.00
   -3   -6    7      0.87      0.00
   -2   -6    7      1.81      0.00
   -1   -6    7      2.41      0.00
    0   -6    7      0.27      0.00
    1   -6    7     -0.90      0.00
    2   -6    7     -1.11      0.00
    3   -6    7      0.13      0.00
    4   -6    7      0.79      0.00
    5   -6    7     -0.04      0.00
    6   -6    7      0.57      0.00
    7   -6    7      0.78      0.00
    8   -6    7      0.78      0.00
  -12   -5    7     -2.93      0.00
  -11   -5    7      1.75      0.00
  -10   -5    7      0.42      0.00
   -9   -5    7     -0.11      0.00
   -8   -5    7      0.57      0.00
   -7   -5    7     -0.07      0.00
   -6   -5    7      0.39      0.00
   -5   -5    7      0.68      0.00
   -4   -5    7     -0.42      0.00
   -3   -5    7     -0.47      0.00
   -2   -5    7     -0.15      0.00
   -1   -5    7     -0.86      0.00
    0   -5    7      0.66      0.00
    1   -5    7      2.28      0.00
    2   -5    7      3.00      0.00
    3   -5    7      1.88      0.00
    4   -5    7     -0.55      0.00
    5   -5    7     -0.76      0.00
    6   -5    7     -0.90      0.00
    7   -5    7     -1.73      0.00
    8   -5    7     -0.90      0.00
  -12   -4    7      8.85      0.00
  -11   -4    7      0.98      0.00
  -10   -4    7     -2.39      0.00
   -9   -4    7     -1.23      0.00
   -8   -4    7     -1.77      0.00
   -7   -4    7      0.30      0.00
   -6   -4    7      0.31      0.00
   -5   -4    7     -0.21      0.00
   -4   -4    7      0.77      0.00
   -3   -4    7      0.40      0.00
   -2   -4    7     -2.47      0.00
   -1   -4    7     -3.52      0.00
    0   -4    7     -3.04      0.00
    1   -4    7     -3.03      0.00
    2   -4    7     -3.14      0.00
    3   -4    7     -2.62      0.00
    4   -4    7     -0.54      0.00
    5   -4    7      0.91      0.00
    6   -4    7      0.87      0.00
    7   -4    7      0.89      0.00
    8   -4    7     -0.14      0.00
    9   -4    7     -1.46      0.00
  -12   -3    7     -8.67      0.00
  -11   -3    7     -2.12      0.00
  -10   -3    7      4.38      0.00
   -9   -3    7      2.81      0.00
   -8   -3    7      2.02      0.00
   -7   -3    7     -0.62      0.00
   -6   -3    7     -2.07      0.00
   -5   -3    7     -1.66      0.00
   -4   -3    7     -1.97      0.00
   -3   -3    7     -1.38      0.00
   -2   -3    7      2.03      0.00
   -1   -3    7      5.40      0.00
    0   -3    7      4.25      0.00
    1   -3    7      1.80      0.00
    2   -3    7      0.44      0.00
    3   -3    7      0.36      0.00
    4   -3    7      0.32      0.00
    5   -3    7     -0.28      0.00
    6   -3    7     -1.15      0.00
    7   -3    7     -0.55      0.00
    8   -3    7      0.78      0.00
    9   -3    7      2.39      0.00
  -12   -2    7      5.01      0.00
  -11   -2    7      0.85      0.00
  -10   -2    7     -4.13      0.00
   -9   -2    7     -2.57      0.00
   -8   -2    7     -1.10      0.00
   -7   -2    7      0.63      0.00
   -6   -2    7      2.58      0.00
   -5   -2    7      2.80      0.00
   -4   -2    7      2.16      0.00
   -3   -2    7      1.17      0.00
   -2   -2    7     -0.22      0.00
   -1   -2    7     -2.99      0.00
    0   -2    7     -2.65      0.00
    1   -2    7      0.39      0.00
    2   -2    7      2.88      0.00
    3   -2    7      2.66      0.00
    4   -2    7      0.98      0.00
    5   -2    7     -0.16      0.00
    6   -2    7      0.67      0.00
    7   -2    7      1.06      0.00
    8   -2    7     -0.19      0.00
    9   -2    7     -1.04      0.00
   10   -2    7     -0.67      0.00
  -12   -1    7     -2.14      0.00
  -11   -1    7     -0.21      0.00
  -10   -1    7      2.34      0.00
   -9   -1    7      0.65      0.00
   -8   -1    7     -0.52      0.00
   -7   -1    7     -0.50      0.00
   -6   -1    7     -1.15      0.00
   -5   -1    7     -2.14      0.00
   -4   -1    7     -1.22      0.00
   -3   -1    7      0.69      0.00
   -2   -1    7      0.65      0.00
   -1   -1    7      0.28      0.00
    0   -1    7     -0.70      0.00
    1   -1    7     -2.59      0.00
    2   -1    7     -4.66      0.00
    3   -1    7     -4.64      0.00
    4   -1    7     -2.13      0.00
    5   -1    7     -0.41      0.00
    6   -1    7     -0.04      0.00
    7   -1    7     -0.85      0.00
    8   -1    7     -0.26      0.00
    9   -1    7     -0.13      0.00
   10   -1    7     -0.61      0.00
  -11    0    7      0.55      0.00
  -10    0    7     -0.28      0.00
   -9    0    7     -0.17      0.00
   -8    0    7      0.57      0.00
   -7    0    7      0.39      0.00
   -6    0    7     -0.57      0.00
   -5    0    7      0.36      0.00
   -4    0    7     -0.01      0.00
   -3    0    7     -2.44      0.00
   -2    0    7     -2.90      0.00
   -1    0    7     -0.66      0.00
    0    0    7      2.39      0.00
    1    0    7      3.90      0.00
    2    0    7      4.77      0.00
    3    0    7      5.21      0.00
    4    0    7      2.93      0.00
    5    0    7      0.86      0.00
    6    0    7      0.03      0.00
    7    0    7      0.19      0.00
    8    0    7      0.29      0.00
    9    0    7     -0.23      0.00
   10    0    7      0.28      0.00
   11    0    7      0.39      0.00
  -11    1    7      0.29      0.00
  -10    1    7     -0.99      0.00
   -9    1    7      0.66      0.00
   -8    1    7      1.41      0.00
   -7    1    7      0.52      0.00
   -6    1    7      1.39      0.00
   -5    1    7      1.53      0.00
   -4    1    7      1.24      0.00
   -3    1    7      3.45      0.00
   -2    1    7      5.23      0.00
   -1    1    7      3.68      0.00
    0    1    7     -0.54      0.00
    1    1    7     -2.70      0.00
    2    1    7     -3.17      0.00
    3    1    7     -3.49      0.00
    4    1    7     -2.54      0.00
    5    1    7     -0.10      0.00
    6    1    7      0.83      0.00
    7    1    7      0.48      0.00
    8    1    7     -0.25      0.00
    9    1    7      0.40      0.00
   10    1    7      0.79      0.00
   11    1    7      0.47      0.00
  -11    2    7     -1.46      0.00
  -10    2    7      0.61      0.00
   -9    2    7     -0.22      0.00
   -8    2    7     -1.69      0.00
   -7    2    7     -1.12      0.00
   -6    2    7     -1.01      0.00
   -5    2    7     -2.25      0.00
   -4    2    7     -2.27      0.00
   -3    2    7     -3.27      0.00
   -2    2    7     -5.52      0.00
   -1    2    7     -5.46      0.00
    0    2    7     -1.60      0.00
    1    2    7      0.93      0.00
    2    2    7      1.37      0.00
    3    2    7      0.46      0.00
    4    2    7      0.14      0.00
    5    2    7     -1.06      0.00
    6    2    7     -2.64      0.00
    7    2    7     -1.70      0.00
    8    2    7     -0.59      0.00
    9    2    7     -0.22      0.00
   10    2    7     -0.94      0.00
   11    2    7     -0.45      0.00
  -10    3    7     -0.76      0.00
   -9    3    7     -0.86      0.00
   -8    3    7     -0.32      0.00
   -7    3    7     -0.48      0.00
   -6    3    7     -0.37      0.00
   -5    3    7      1.04      0.00
   -4    3    7      2.66      0.00
   -3    3    7      2.03      0.00
   -2    3    7      2.30      0.00
   -1    3    7      2.38      0.00
    0    3    7      0.01      0.00
    1    3    7     -1.99      0.00
    2    3    7     -2.27      0.00
    3    3    7      0.14      0.00
    4    3    7      2.13      0.00
    5    3    7      1.24      0.00
    6    3    7      2.58      0.00
    7    3    7      2.28      0.00
    8    3    7      1.61      0.00
    9    3    7      0.78      0.00
   10    3    7      0.79      0.00
   11    3    7      0.81      0.00
  -10    4    7      2.73      0.00
   -9    4    7      3.04      0.00
   -8    4    7      0.97      0.00
   -7    4    7      1.83      0.00
   -6    4    7      1.40      0.00
   -5    4    7      0.65      0.00
   -4    4    7     -2.06      0.00
   -3    4    7     -1.23      0.00
   -2    4    7      1.58      0.00
   -1    4    7      3.09      0.00
    0    4    7      3.75      0.00
    1    4    7      3.72      0.00
    2    4    7      3.82      0.00
    3    4    7      1.70      0.00
    4    4    7     -1.70      0.00
    5    4    7     -0.38      0.00
    6    4    7      0.08      0.00
    7    4    7     -0.67      0.00
    8    4    7     -1.12      0.00
    9    4    7     -1.03      0.00
   10    4    7     -0.48      0.00
   11    4    7     -1.50      0.00
  -10    5    7     -2.97      0.00
   -9    5    7     -4.61      0.00
   -8    5    7     -0.52      0.00
   -7    5    7     -0.41      0.00
   -6    5    7     -1.06      0.00
   -5    5    7     -1.39      0.00
   -4    5    7      0.40      0.00
   -3    5    7      0.83      0.00
   -2    5    7     -2.86      0.00
   -1    5    7     -5.30      0.00
    0    5    7     -4.98      0.00
    1    5    7     -2.65      0.00
    2    5    7     -1.99      0.00
    3    5    7     -1.51      0.00
    4    5    7      0.14      0.00
    5    5    7     -0.62      0.00
    6    5    7     -2.13      0.00
    7    5    7     -1.63      0.00
    8    5    7     -0.19      0.00
    9    5    7      0.27      0.00
   10    5    7     -0.82      0.00
   11    5    7      0.56      0.00
   12    5    7      1.17      0.00
   -9    6    7      1.83      0.00
   -8    6    7      0.81      0.00
   -7    6    7     -0.53      0.00
   -6    6    7      0.03      0.00
   -5    6    7      1.51      0.00
   -4    6    7      1.76      0.00
   -3    6    7     -0.11      0.00
   -2    6    7      1.73      0.00
   -1    6    7      3.63      0.00
    0    6    7      2.63      0.00
    1    6    7     -0.24      0.00
    2    6    7     -1.25      0.00
    3    6    7     -0.79      0.00
    4    6    7     -0.08      0.00
    5    6    7      0.89      0.00
    6    6    7      1.48      0.00
    7    6    7      2.13      0.00
    8    6    7      0.86      0.00
    9    6    7     -0.20      0.00
   10    6    7      1.43      0.00
   11    6    7      1.02      0.00
   12    6    7     -0.04      0.00
   -9    7    7      2.17      0.00
   -8    7    7     -0.19      0.00
   -7    7    7     -1.06      0.00
   -6    7    7      0.47      0.00
   -5    7    7     -0.38      0.00
   -4    7    7     -2.66      0.00
   -3    7    7     -0.28      0.00
   -2    7    7      1.03      0.00
   -1    7    7     -0.95      0.00
    0    7    7     -0.30      0.00
    1    7    7      2.33      0.00
    2    7    7      2.96      0.00
    3    7    7      1.82      0.00
    4    7    7      0.87      0.00
    5    7    7     -0.21      0.00
    6    7    7      0.09      0.00
    7    7    7     -0.96      0.00
    8    7    7     -1.02      0.00
    9    7    7      1.12      0.00
   10    7    7      0.34      0.00
   11    7    7     -0.48      0.00
   12    7    7     -0.36      0.00
   -8    8    7     -1.26      0.00
   -7    8    7      1.53      0.00
   -6    8    7     -0.09      0.00
   -5    8    7     -1.66      0.00
   -4    8    7      0.90      0.00
   -3    8    7      0.39      0.00
   -2    8    7     -2.96      0.00
   -1    8    7     -0.94      0.00
    0    8    7      0.67      0.00
    1    8    7     -1.87      0.00
    2    8    7     -3.68      0.00
    3    8    7     -2.55      0.00
    4    8    7     -1.26      0.00
    5    8    7     -0.66      0.00
    6    8    7     -0.62      0.00
    7    8    7     -0.06      0.00
    8    8    7      0.71      0.00
    9    8    7     -1.44      0.00
   10    8    7     -2.02      0.00
   11    8    7     -0.97      0.00
   12    8    7     -0.18      0.00
   -7    9    7      0.30      0.00
   -6    9    7     -0.07      0.00
   -5    9    7      1.36      0.00
   -4    9    7      0.83      0.00
   -3    9    7     -0.63      0.00
   -2    9    7      1.09      0.00
   -1    9    7      0.55      0.00
    0    9    7     -1.92      0.00
    1    9    7     -0.35      0.00
    2    9    7      2.62      0.00
    3    9    7      3.44      0.00
    4    9    7      1.60      0.00
    5    9    7      0.79      0.00
    6    9    7      0.54      0.00
    7    9    7      0.23      0.00
    8    9    7     -0.03      0.00
    9    9    7      1.04      0.00
   10    9    7      1.36      0.00
   11    9    7      0.34      0.00
   12    9    7      0.17      0.00
   -7   10    7     -0.93      0.00
   -6   10    7     -0.96      0.00
   -5   10    7      0.27      0.00
   -4   10    7      0.69      0.00
   -3   10    7      0.86      0.00
   -2   10    7      1.38      0.00
   -1   10    7      1.31      0.00
    0   10    7      1.55      0.00
    1   10    7      0.80      0.00
    2   10    7      0.01      0.00
    3   10    7     -1.43      0.00
    4   10    7     -1.14      0.00
    5   10    7     -0.39      0.00
    6   10    7     -0.77      0.00
    7   10    7     -0.16      0.00
    8   10    7      0.19      0.00
    9   10    7     -0.25      0.00
   10   10    7     -0.24      0.00
   11   10    7      1.28      0.00
   -6   11    7      1.82      0.00
   -5   11    7      1.45      0.00
   -4   11    7     -1.81      0.00
   -3   11    7     -1.63      0.00
   -2   11    7     -0.91      0.00
   -1   11    7     -1.32      0.00
    0   11    7     -0.30      0.00
    1   11    7      0.74      0.00
    2   11    7     -0.89      0.00
    3   11    7     -1.67      0.00
    4   11    7     -0.47      0.00
    5   11    7     -0.14      0.00
    6   11    7      0.81      0.00
    7   11    7     -0.10      0.00
    8   11    7     -1.36      0.00
    9   11    7     -1.10      0.00
   10   11    7     -0.10      0.00
   11   11    7     -1.03      0.00
   -5   12    7     -4.24      0.00
   -4   12    7     -1.38      0.00
   -3   12    7      1.77      0.00
   -2   12    7      0.46      0.00
   -1   12    7     -0.05      0.00
    0   12    7     -0.27      0.00
    1   12    7     -0.86      0.00
    2   12    7      0.32      0.00
    3   12    7      1.85      0.00
    4   12    7      1.17      0.00
    5   12    7      1.13      0.00
    6   12    7      0.55      0.00
    7   12    7      0.91      0.00
    8   12    7      2.21      0.00
    9   12    7      1.79      0.00
   10   12    7      0.74      0.00
   11   12    7      0.09      0.00
   -4   13    7      3.99      0.00
   -3   13    7      0.27      0.00
   -2   13    7     -1.13      0.00
   -1   13    7      0.11      0.00
    0   13    7      0.55      0.00
    1   13    7     -0.14      0.00
    2   13    7     -0.66      0.00
    3   13    7     -0.79      0.00
    4   13    7     -0.47      0.00
    5   13    7     -2.00      0.00
    6   13    7     -2.86      0.00
    7   13    7     -1.61      0.00
    8   13    7     -1.81      0.00
    9   13    7     -1.00      0.00
   10   13    7     -0.93      0.00
   11   13    7     -0.68      0.00
   -2   14    7      0.27      0.00
   -1   14    7      0.14      0.00
    0   14    7     -1.13      0.00
    1   14    7     -0.08      0.00
    2   14    7      0.86      0.00
    3   14    7      0.42      0.00
    4   14    7     -0.25      0.00
    5   14    7      1.30      0.00
    7   14    7      1.61      0.00
    8   14    7      0.44      0.00
    9   14    7      0.30      0.00
   10   14    7     -0.06      0.00
    0   15    7      1.24      0.00
    1   15    7      0.56      0.00
    2   15    7     -0.46      0.00
    3   15    7      0.11      0.00
    4   15    7      0.86      0.00
    5   15    7      0.58      0.00
    8   15    7      0.55      0.00
    9   15    7     -0.40      0.00
    2   16    7      0.55      0.00
    3   16    7     -0.10      0.00
    4   16    7     -0.90      0.00
    5   16    7     -1.31      0.00
   -6  -13    8     -0.44      0.00
   -5  -13    8     -0.75      0.00
   -4  -13    8     -0.73      0.00
   -3  -13    8     -0.60      0.00
   -8  -12    8      2.00      0.00
   -7  -12    8      0.67      0.00
   -6  -12    8      0.57      0.00
   -5  -12    8      1.79      0.00
   -4  -12    8      1.39      0.00
   -3  -12    8      0.82      0.00
   -2  -12    8      0.61      0.00
   -1  -12    8      1.24      0.00
    0  -12    8      1.38      0.00
   -8  -11    8     -1.05      0.00
   -7  -11    8     -0.18      0.00
   -6  -11    8      0.91      0.00
   -5  -11    8     -0.51      0.00
   -4  -11    8     -0.99      0.00
   -3  -11    8     -0.68      0.00
   -2  -11    8     -0.10      0.00
   -1  -11    8     -0.54      0.00
    0  -11    8     -2.01      0.00
    1  -11    8     -0.65      0.00
    2  -11    8      0.67      0.00
  -10  -10    8     -0.91      0.00
   -9  -10    8     -0.15      0.00
   -8  -10    8      0.23      0.00
   -7  -10    8      0.26      0.00
   -6  -10    8     -1.29      0.00
   -5  -10    8     -1.76      0.00
   -4  -10    8     -0.38      0.00
   -3  -10    8      0.49      0.00
   -2  -10    8      0.48      0.00
   -1  -10    8     -0.19      0.00
    0  -10    8      0.94      0.00
    1  -10    8      0.23      0.00
    2  -10    8     -0.44      0.00
    3  -10    8     -0.19      0.00
  -11   -9    8      0.94      0.00
  -10   -9    8      0.52      0.00
   -9   -9    8     -0.04      0.00
   -8   -9    8     -0.04      0.00
   -7   -9    8     -0.74      0.00
   -6   -9    8     -0.06      0.00
   -5   -9    8      1.92      0.00
   -4   -9    8      1.26      0.00
   -3   -9    8     -0.31      0.00
   -2   -9    8     -1.04      0.00
   -1   -9    8     -0.15      0.00
    0   -9    8      0.08      0.00
    1   -9    8      0.57      0.00
    2   -9    8      0.71      0.00
    3   -9    8     -0.36      0.00
    4   -9    8      0.83      0.00
    5   -9    8      1.08      0.00
  -11   -8    8     -1.95      0.00
  -10   -8    8     -0.11      0.00
   -9   -8    8      1.20      0.00
   -8   -8    8     -0.35      0.00
   -7   -8    8      0.07      0.00
   -6   -8    8      0.71      0.00
   -5   -8    8     -0.11      0.00
   -4   -8    8     -0.33      0.00
   -3   -8    8     -0.08      0.00
   -2   -8    8      0.47      0.00
   -1   -8    8      0.23      0.00
    0   -8    8     -0.43      0.00
    1   -8    8     -0.80      0.00
    2   -8    8     -1.06      0.00
    3   -8    8      0.12      0.00
    4   -8    8     -0.82      0.00
    5   -8    8     -1.71      0.00
    6   -8    8     -1.87      0.00
  -11   -7    8      2.33      0.00
  -10   -7    8      0.63      0.00
   -9   -7    8     -2.10      0.00
   -8   -7    8      0.04      0.00
   -7   -7    8      0.95      0.00
   -6   -7    8     -0.21      0.00
   -5   -7    8     -0.99      0.00
   -4   -7    8     -1.58      0.00
   -3   -7    8     -0.32      0.00
   -2   -7    8     -0.12      0.00
   -1   -7    8     -0.55      0.00
    0   -7    8      0.04      0.00
    1   -7    8      0.33      0.00
    2   -7    8      0.81      0.00
    3   -7    8     -0.03      0.00
    4   -7    8      0.14      0.00
    5   -7    8      0.94      0.00
    6   -7    8      1.38      0.00
  -11   -6    8     -1.15      0.00
  -10   -6    8     -0.85      0.00
   -9   -6    8      1.29      0.00
   -8   -6    8      0.60      0.00
   -7   -6    8     -0.71      0.00
   -6   -6    8     -0.18      0.00
   -5   -6    8      0.32      0.00
   -4   -6    8      1.75      0.00
   -3   -6    8      1.13      0.00
   -2   -6    8      0.78      0.00
   -1   -6    8      1.87      0.00
    0   -6    8      1.09      0.00
    1   -6    8      0.33      0.00
    2   -6    8     -0.61      0.00
    3   -6    8     -0.06      0.00
    4   -6    8      0.83      0.00
    5   -6    8      0.27      0.00
    6   -6    8      0.23      0.00
    7   -6    8     -0.08      0.00
  -12   -5    8     -6.31      0.00
  -11   -5    8     -1.93      0.00
  -10   -5    8      0.46      0.00
   -9   -5    8      0.08      0.00
   -8   -5    8      0.14      0.00
   -7   -5    8      0.16      0.00
   -6   -5    8      0.29      0.00
   -5   -5    8      0.77      0.00
   -4   -5    8     -0.11      0.00
   -3   -5    8     -0.61      0.00
   -2   -5    8     -0.07      0.00
   -1   -5    8     -1.20      0.00
    0   -5    8     -0.85      0.00
    1   -5    8      0.35      0.00
    2   -5    8      1.63      0.00
    3   -5    8      1.58      0.00
    4   -5    8     -0.40      0.00
    5   -5    8     -0.66      0.00
    6   -5    8     -0.89      0.00
    7   -5    8     -1.52      0.00
    8   -5    8     -1.22      0.00
  -12   -4    8     11.03      0.00
  -11   -4    8      5.20      0.00
  -10   -4    8     -1.14      0.00
   -9   -4    8     -1.30      0.00
   -8   -4    8     -1.44      0.00
   -7   -4    8     -0.28      0.00
   -6   -4    8      0.21      0.00
   -5   -4    8     -0.32      0.00
   -4   -4    8     -0.18      0.00
   -3   -4    8      0.11      0.00
   -2   -4    8     -1.50      0.00
   -1   -4    8     -2.30      0.00
    0   -4    8     -1.74      0.00
    1   -4    8     -2.05      0.00
    2   -4    8     -2.75      0.00
    3   -4    8     -2.92      0.00
    4   -4    8     -1.09      0.00
    5   -4    8      0.06      0.00
    6   -4    8      0.60      0.00
    7   -4    8      1.41      0.00
    8   -4    8      0.70      0.00
    9   -4    8     -0.89      0.00
  -12   -3    8     -9.73      0.00
  -11   -3    8     -5.10      0.00
  -10   -3    8      2.60      0.00
   -9   -3    8      2.79      0.00
   -8   -3    8      1.98      0.00
   -7   -3    8      0.39      0.00
   -6   -3    8     -1.49      0.00
   -5   -3    8     -1.92      0.00
   -4   -3    8     -1.69      0.00
   -3   -3    8     -1.15      0.00
   -2   -3    8      0.65      0.00
   -1   -3    8      3.72      0.00
    0   -3    8      3.69      0.00
    1   -3    8      2.25      0.00
    2   -3    8      1.32      0.00
    3   -3    8      1.14      0.00
    4   -3    8      0.83      0.00
    5   -3    8      0.59      0.00
    6   -3    8     -0.24      0.00
    7   -3    8     -0.98      0.00
    8   -3    8      0.06      0.00
    9   -3    8      2.27      0.00
  -12   -2    8      5.73      0.00
  -11   -2    8      2.35      0.00
  -10   -2    8     -3.05      0.00
   -9   -2    8     -2.80      0.00
   -8   -2    8     -1.64      0.00
   -7   -2    8     -0.34      0.00
   -6   -2    8      1.85      0.00
   -5   -2    8      3.45      0.00
   -4   -2    8      3.12      0.00
   -3   -2    8      1.45      0.00
   -2   -2    8      0.85      0.00
   -1   -2    8     -1.14      0.00
    0   -2    8     -2.36      0.00
    1   -2    8     -0.71      0.00
    2   -2    8      1.74      0.00
    3   -2    8      2.52      0.00
    4   -2    8      1.25      0.00
    5   -2    8     -0.22      0.00
    6   -2    8     -0.06      0.00
    7   -2    8      1.10      0.00
    8   -2    8      0.28      0.00
    9   -2    8     -1.30      0.00
   10   -2    8     -1.68      0.00
  -11   -1    8     -1.35      0.00
  -10   -1    8      1.93      0.00
   -9   -1    8      0.96      0.00
   -8   -1    8      0.07      0.00
   -7   -1    8      0.00      0.00
   -6   -1    8     -0.48      0.00
   -5   -1    8     -2.27      0.00
   -4   -1    8     -2.54      0.00
   -3   -1    8     -0.14      0.00
   -2   -1    8      0.36      0.00
   -1   -1    8     -0.98      0.00
    0   -1    8     -0.97      0.00
    1   -1    8     -1.09      0.00
    2   -1    8     -2.94      0.00
    3   -1    8     -4.31      0.00
    4   -1    8     -2.57      0.00
    5   -1    8     -0.66      0.00
    6   -1    8      0.03      0.00
    7   -1    8     -0.73      0.00
    8   -1    8     -0.55      0.00
    9   -1    8      0.00      0.00
   10   -1    8     -0.11      0.00
  -11    0    8      1.32      0.00
  -10    0    8      0.25      0.00
   -9    0    8      0.15      0.00
   -8    0    8      1.02      0.00
   -7    0    8      0.84      0.00
   -6    0    8     -0.97      0.00
   -5    0    8     -0.42      0.00
   -4    0    8      0.78      0.00
   -3    0    8     -0.95      0.00
   -2    0    8     -2.45      0.00
   -1    0    8     -0.34      0.00
    0    0    8      2.63      0.00
    1    0    8      2.55      0.00
    2    0    8      2.06      0.00
    3    0    8      3.14      0.00
    4    0    8      2.40      0.00
    5    0    8      0.71      0.00
    6    0    8      0.13      0.00
    7    0    8     -0.07      0.00
    8    0    8      0.19      0.00
    9    0    8     -0.06      0.00
   10    0    8      0.51      0.00
   11    0    8      0.69      0.00
  -11    1    8      0.79      0.00
  -10    1    8     -1.40      0.00
   -9    1    8     -0.42      0.00
   -8    1    8      0.02      0.00
   -7    1    8     -0.65      0.00
   -6    1    8      1.19      0.00
   -5    1    8      2.43      0.00
   -4    1    8      1.09      0.00
   -3    1    8      1.73      0.00
   -2    1    8      3.46      0.00
   -1    1    8      3.16      0.00
    0    1    8     -0.63      0.00
    1    1    8     -2.49      0.00
    2    1    8     -0.99      0.00
    3    1    8     -0.40      0.00
    4    1    8     -1.16      0.00
    5    1    8      0.15      0.00
    6    1    8      0.75      0.00
    7    1    8      0.66      0.00
    8    1    8      0.15      0.00
    9    1    8      0.05      0.00
   10    1    8      0.46      0.00
   11    1    8      0.17      0.00
  -11    2    8     -2.55      0.00
  -10    2    8      0.16      0.00
   -9    2    8      0.72      0.00
   -8    2    8     -0.47      0.00
   -7    2    8     -0.38      0.00
   -6    2    8     -0.41      0.00
   -5    2    8     -2.26      0.00
   -4    2    8     -2.43      0.00
   -3    2    8     -2.53      0.00
   -2    2    8     -3.77      0.00
   -1    2    8     -4.23      0.00
    0    2    8     -1.91      0.00
    1    2    8      1.12      0.00
    2    2    8      0.86      0.00
    3    2    8     -1.67      0.00
    4    2    8     -1.12      0.00
    5    2    8     -0.96      0.00
    6    2    8     -2.40      0.00
    7    2    8     -1.47      0.00
    8    2    8     -0.83      0.00
    9    2    8     -0.04      0.00
   10    2    8     -0.74      0.00
   11    2    8     -0.81      0.00
  -10    3    8      0.50      0.00
   -9    3    8     -0.79      0.00
   -8    3    8     -1.00      0.00
   -7    3    8     -0.54      0.00
   -6    3    8     -0.77      0.00
   -5    3    8     -0.17      0.00
   -4    3    8      2.46      0.00
   -3    3    8      2.62      0.00
   -2    3    8      2.56      0.00
   -1    3    8      1.81      0.00
    0    3    8      0.28      0.00
    1    3    8     -1.57      0.00
    2    3    8     -2.52      0.00
    3    3    8      0.51      0.00
    4    3    8      2.59      0.00
    5    3    8      1.14      0.00
    6    3    8      2.50      0.00
    7    3    8      1.99      0.00
    8    3    8      1.43      0.00
    9    3    8      0.97      0.00
   10    3    8      0.57      0.00
   11    3    8      0.91      0.00
  -10    4    8      1.25      0.00
   -9    4    8      2.16      0.00
   -8    4    8      1.59      0.00
   -7    4    8      2.12      0.00
   -6    4    8      1.28      0.00
   -5    4    8      2.02      0.00
   -4    4    8     -1.17      0.00
   -3    4    8     -2.30      0.00
   -2    4    8     -0.18      0.00
   -1    4    8      2.14      0.00
    0    4    8      4.10      0.00
    1    4    8      4.03      0.00
    2    4    8      4.36      0.00
    3    4    8      2.60      0.00
    4    4    8     -1.30      0.00
    5    4    8     -0.81      0.00
    6    4    8     -0.51      0.00
    7    4    8     -0.85      0.00
    8    4    8     -0.71      0.00
    9    4    8     -1.16      0.00
   10    4    8     -0.35      0.00
   11    4    8     -0.90      0.00
  -10    5    8     -2.10      0.00
   -9    5    8     -4.03      0.00
   -8    5    8     -1.17      0.00
   -7    5    8     -0.98      0.00
   -6    5    8     -0.39      0.00
   -5    5    8     -1.33      0.00
   -4    5    8     -0.31      0.00
   -3    5    8      1.86      0.00
   -2    5    8     -0.90      0.00
   -1    5    8     -3.76      0.00
    0    5    8     -5.54      0.00
    1    5    8     -4.48      0.00
    2    5    8     -3.29      0.00
    3    5    8     -2.71      0.00
    4    5    8     -0.55      0.00
    5    5    8      0.20      0.00
    6    5    8     -0.95      0.00
    7    5    8     -1.04      0.00
    8    5    8     -0.35      0.00
    9    5    8      0.15      0.00
   10    5    8     -0.67      0.00
   11    5    8      0.14      0.00
   -9    6    8      2.22      0.00
   -8    6    8      1.11      0.00
   -7    6    8     -0.37      0.00
   -6    6    8     -0.63      0.00
   -5    6    8      0.29      0.00
   -4    6    8      1.66      0.00
   -3    6    8     -0.63      0.00
   -2    6    8      0.26      0.00
   -1    6    8      2.59      0.00
    0    6    8      2.98      0.00
    1    6    8      1.62      0.00
    2    6    8      0.07      0.00
    3    6    8     -0.25      0.00
    4    6    8      0.14      0.00
    5    6    8      0.40      0.00
    6    6    8      0.54      0.00
    7    6    8      1.37      0.00
    8    6    8      0.51      0.00
    9    6    8     -0.24      0.00
   10    6    8      1.18      0.00
   11    6    8      0.89      0.00
   12    6    8     -0.21      0.00
   -8    7    8     -0.13      0.00
   -7    7    8     -0.88      0.00
   -6    7    8      0.15      0.00
   -5    7    8     -0.10      0.00
   -4    7    8     -2.52      0.00
   -3    7    8     -1.04      0.00
   -2    7    8      0.98      0.00
   -1    7    8     -0.60      0.00
    0    7    8     -0.43      0.00
    1    7    8      1.35      0.00
    2    7    8      2.29      0.00
    3    7    8      2.07      0.00
    4    7    8      1.20      0.00
    5    7    8     -0.34      0.00
    6    7    8      0.08      0.00
    7    7    8     -0.17      0.00
    8    7    8     -0.42      0.00
    9    7    8      1.15      0.00
   10    7    8      0.45      0.00
   11    7    8     -0.24      0.00
   12    7    8     -0.02      0.00
   -8    8    8     -1.32      0.00
   -7    8    8      1.46      0.00
   -6    8    8      0.82      0.00
   -5    8    8     -0.42      0.00
   -4    8    8      1.29      0.00
   -3    8    8      1.56      0.00
   -2    8    8     -1.50      0.00
   -1    8    8     -0.91      0.00
    0    8    8      0.18      0.00
    1    8    8     -1.48      0.00
    2    8    8     -2.76      0.00
    3    8    8     -2.55      0.00
    4    8    8     -1.80      0.00
    5    8    8     -0.52      0.00
    6    8    8     -0.04      0.00
    7    8    8     -0.58      0.00
    8    8    8      0.22      0.00
    9    8    8     -0.98      0.00
   10    8    8     -1.98      0.00
   11    8    8     -1.38      0.00
   12    8    8     -0.67      0.00
   -7    9    8      0.34      0.00
   -6    9    8     -0.04      0.00
   -5    9    8      0.52      0.00
   -4    9    8      0.47      0.00
   -3    9    8     -0.47      0.00
   -2    9    8      0.35      0.00
   -1    9    8      0.38      0.00
    0    9    8     -1.12      0.00
    1    9    8     -0.27      0.00
    2    9    8      1.34      0.00
    3    9    8      2.62      0.00
    4    9    8      2.13      0.00
    5    9    8      1.10      0.00
    6    9    8      0.06      0.00
    7    9    8      0.30      0.00
    8    9    8      0.33      0.00
    9    9    8      0.47      0.00
   10    9    8      1.30      0.00
   11    9    8      0.91      0.00
   12    9    8      0.63      0.00
   -6   10    8     -1.81      0.00
   -5   10    8     -0.14      0.00
   -4   10    8      0.77      0.00
   -3   10    8     -0.15      0.00
   -2   10    8      0.48      0.00
   -1   10    8      1.48      0.00
    0   10    8      1.78      0.00
    1   10    8      0.84      0.00
    2   10    8      0.41      0.00
    3   10    8     -0.86      0.00
    4   10    8     -1.57      0.00
    5   10    8     -0.80      0.00
    6   10    8     -0.37      0.00
    7   10    8      0.01      0.00
    8   10    8     -0.26      0.00
    9   10    8     -0.29      0.00
   10   10    8     -0.35      0.00
   11   10    8      0.91      0.00
   -6   11    8      2.00      0.00
   -5   11    8      1.42      0.00
   -4   11    8     -2.26      0.00
   -3   11    8     -1.30      0.00
   -2   11    8      0.41      0.00
   -1   11    8     -1.05      0.00
    0   11    8     -1.33      0.00
    1   11    8      0.09      0.00
    2   11    8     -0.32      0.00
    3   11    8     -1.13      0.00
    4   11    8     -0.08      0.00
    5   11    8      0.23      0.00
    6   11    8      0.70      0.00
    7   11    8     -0.02      0.00
    8   11    8     -0.81      0.00
    9   11    8     -0.51      0.00
   10   11    8      0.35      0.00
   11   11    8     -0.71      0.00
   -5   12    8     -2.90      0.00
   -4   12    8     -0.18      0.00
   -3   12    8      2.03      0.00
   -2   12    8     -0.53      0.00
   -1   12    8     -1.00      0.00
    0   12    8      0.10      0.00
    1   12    8     -0.23      0.00
    2   12    8     -0.23      0.00
    3   12    8      0.84      0.00
    4   12    8      0.61      0.00
    5   12    8      0.45      0.00
    6   12    8     -0.10      0.00
    7   12    8      0.28      0.00
    8   12    8      1.81      0.00
    9   12    8      1.42      0.00
   10   12    8      0.05      0.00
   11   12    8     -0.60      0.00
   -4   13    8      2.63      0.00
   -3   13    8     -0.01      0.00
   -2   13    8     -0.38      0.00
   -1   13    8      0.98      0.00
    0   13    8      0.63      0.00
    1   13    8     -0.54      0.00
    2   13    8     -0.56      0.00
    3   13    8     -0.20      0.00
    4   13    8      0.06      0.00
    5   13    8     -1.37      0.00
    6   13    8     -2.23      0.00
    7   13    8     -0.98      0.00
    8   13    8     -1.60      0.00
    9   13    8     -1.33      0.00
   10   13    8     -0.52      0.00
   11   13    8      0.19      0.00
   -2   14    8     -0.03      0.00
   -1   14    8      0.09      0.00
    0   14    8     -0.59      0.00
    1   14    8      0.66      0.00
    2   14    8      1.17      0.00
    3   14    8      0.38      0.00
    4   14    8     -0.27      0.00
    5   14    8      1.45      0.00
    7   14    8      1.70      0.00
    8   14    8      0.03      0.00
    9   14    8      0.72      0.00
   10   14    8      0.18      0.00
    0   15    8      0.47      0.00
    1   15    8     -0.31      0.00
    2   15    8     -0.92      0.00
    3   15    8     -0.04      0.00
    4   15    8      0.51      0.00
    5   15    8     -0.04      0.00
    8   15    8      1.32      0.00
    9   15    8     -0.17      0.00
    2   16    8      0.84      0.00
    3   16    8     -0.16      0.00
    4   16    8     -0.80      0.00
    5   16    8     -1.10      0.00
   -7  -12    9      0.74      0.00
   -6  -12    9      1.48      0.00
   -5  -12    9      2.44      0.00
   -4  -12    9      1.40      0.00
   -3  -12    9      1.75      0.00
   -2  -12    9      1.28      0.00
   -1  -12    9      0.53      0.00
   -7  -11    9     -0.42      0.00
   -6  -11    9      0.06      0.00
   -5  -11    9     -1.61      0.00
   -4  -11    9     -1.27      0.00
   -3  -11    9     -0.82      0.00
   -2  -11    9     -0.78      0.00
   -1  -11    9     -0.03      0.00
    0  -11    9     -1.36      0.00
    1  -11    9     -0.83      0.00
  -10  -10    9     -1.05      0.00
   -9  -10    9     -0.53      0.00
   -8  -10    9     -0.05      0.00
   -7  -10    9      0.28      0.00
   -6  -10    9     -0.90      0.00
   -5  -10    9     -1.01      0.00
   -4  -10    9      0.23      0.00
   -3  -10    9      0.16      0.00
   -2  -10    9      0.38      0.00
   -1  -10    9     -0.25      0.00
    0  -10    9      0.84      0.00
    1  -10    9      1.01      0.00
    2  -10    9     -0.17      0.00
    3  -10    9     -0.94      0.00
  -10   -9    9      0.21      0.00
   -9   -9    9     -0.29      0.00
   -8   -9    9      0.04      0.00
   -7   -9    9     -0.85      0.00
   -6   -9    9     -0.35      0.00
   -5   -9    9      1.69      0.00
   -4   -9    9      0.93      0.00
   -3   -9    9     -0.11      0.00
   -2   -9    9     -0.49      0.00
   -1   -9    9     -0.31      0.00
    0   -9    9     -0.33      0.00
    1   -9    9     -0.46      0.00
    2   -9    9     -0.25      0.00
    3   -9    9     -0.19      0.00
    4   -9    9      1.35      0.00
  -11   -8    9     -1.74      0.00
  -10   -8    9     -0.31      0.00
   -9   -8    9      1.74      0.00
   -8   -8    9      0.05      0.00
   -7   -8    9      0.43      0.00
   -6   -8    9      0.85      0.00
   -5   -8    9     -0.54      0.00
   -4   -8    9     -0.58      0.00
   -3   -8    9     -0.16      0.00
   -2   -8    9     -0.01      0.00
   -1   -8    9      0.35      0.00
    0   -8    9      0.17      0.00
    1   -8    9     -0.14      0.00
    2   -8    9     -0.07      0.00
    3   -8    9      0.76      0.00
    4   -8    9     -0.49      0.00
    5   -8    9     -1.13      0.00
  -11   -7    9      1.57      0.00
  -10   -7    9      1.87      0.00
   -9   -7    9     -1.91      0.00
   -8   -7    9     -0.50      0.00
   -7   -7    9      0.81      0.00
   -6   -7    9      0.15      0.00
   -5   -7    9      0.07      0.00
   -4   -7    9     -1.17      0.00
   -3   -7    9     -0.57      0.00
   -2   -7    9      0.47      0.00
   -1   -7    9     -0.04      0.00
    0   -7    9     -0.30      0.00
    1   -7    9      0.05      0.00
    2   -7    9      0.63      0.00
    3   -7    9     -0.23      0.00
    4   -7    9     -0.18      0.00
    5   -7    9      0.22      0.00
    6   -7    9      0.84      0.00
  -11   -6    9      0.66      0.00
  -10   -6    9     -1.95      0.00
   -9   -6    9      0.35      0.00
   -8   -6    9      0.93      0.00
   -7   -6    9     -0.81      0.00
   -6   -6    9     -0.57      0.00
   -5   -6    9     -0.36      0.00
   -4   -6    9      1.67      0.00
   -3   -6    9      1.99      0.00
   -2   -6    9      0.43      0.00
   -1   -6    9      0.69      0.00
    0   -6    9      1.14      0.00
    1   -6    9      1.17      0.00
    2   -6    9     -0.17      0.00
    3   -6    9     -0.15      0.00
    4   -6    9      0.72      0.00
    5   -6    9      0.59      0.00
    6   -6    9      0.17      0.00
    7   -6    9     -0.92      0.00
  -10   -5    9     -0.02      0.00
   -9   -5    9      0.81      0.00
   -8   -5    9     -0.05      0.00
   -7   -5    9      0.23      0.00
   -6   -5    9      0.21      0.00
   -5   -5    9      0.47      0.00
   -4   -5    9     -0.25      0.00
   -3   -5    9     -1.43      0.00
   -2   -5    9     -0.73      0.00
   -1   -5    9     -0.76      0.00
    0   -5    9     -1.15      0.00
    1   -5    9     -1.46      0.00
    2   -5    9     -0.21      0.00
    3   -5    9      0.77      0.00
    4   -5    9     -0.60      0.00
    5   -5    9     -0.64      0.00
    6   -5    9     -0.53      0.00
    7   -5    9     -0.41      0.00
    8   -5    9     -0.77      0.00
  -11   -4    9      7.39      0.00
  -10   -4    9      1.09      0.00
   -9   -4    9     -1.11      0.00
   -8   -4    9     -1.06      0.00
   -7   -4    9     -0.44      0.00
   -6   -4    9      0.17      0.00
   -5   -4    9      0.19      0.00
   -4   -4    9     -0.14      0.00
   -3   -4    9      0.07      0.00
   -2   -4    9     -0.42      0.00
   -1   -4    9     -1.21      0.00
    0   -4    9     -0.99      0.00
    1   -4    9     -0.79      0.00
    2   -4    9     -1.23      0.00
    3   -4    9     -2.09      0.00
    4   -4    9     -0.69      0.00
    5   -4    9     -0.13      0.00
    6   -4    9      0.01      0.00
    7   -4    9      0.91      0.00
    8   -4    9      0.96      0.00
  -11   -3    9     -6.03      0.00
  -10   -3    9     -0.33      0.00
   -9   -3    9      1.69      0.00
   -8   -3    9      1.38      0.00
   -7   -3    9      0.56      0.00
   -6   -3    9     -0.80      0.00
   -5   -3    9     -1.97      0.00
   -4   -3    9     -1.97      0.00
   -3   -3    9     -0.81      0.00
   -2   -3    9      0.36      0.00
   -1   -3    9      2.43      0.00
    0   -3    9      2.95      0.00
    1   -3    9      2.64      0.00
    2   -3    9      2.19      0.00
    3   -3    9      1.76      0.00
    4   -3    9      0.93      0.00
    5   -3    9      0.78      0.00
    6   -3    9      0.67      0.00
    7   -3    9     -0.62      0.00
    8   -3    9     -0.55      0.00
    9   -3    9      1.13      0.00
  -11   -2    9      2.13      0.00
  -10   -2    9     -0.89      0.00
   -9   -2    9     -1.42      0.00
   -8   -2    9     -1.45      0.00
   -7   -2    9     -0.51      0.00
   -6   -2    9      1.03      0.00
   -5   -2    9      3.19      0.00
   -4   -2    9      4.05      0.00
   -3   -2    9      2.00      0.00
   -2   -2    9      0.44      0.00
   -1   -2    9     -1.01      0.00
    0   -2    9     -2.12      0.00
    1   -2    9     -1.57      0.00
    2   -2    9     -0.20      0.00
    3   -2    9      1.36      0.00
    4   -2    9      1.21      0.00
    5   -2    9     -0.08      0.00
    6   -2    9     -0.72      0.00
    7   -2    9      0.55      0.00
    8   -2    9      0.60      0.00
    9   -2    9     -0.66      0.00
  -11   -1    9     -0.83      0.00
  -10   -1    9      1.20      0.00
   -9   -1    9      0.07      0.00
   -8   -1    9      0.54      0.00
   -7   -1    9      0.45      0.00
   -6   -1    9     -0.07      0.00
   -5   -1    9     -1.81      0.00
   -4   -1    9     -3.45      0.00
   -3   -1    9     -1.48      0.00
   -2   -1    9      0.63      0.00
   -1   -1    9     -0.14      0.00
    0   -1    9     -0.62      0.00
    1   -1    9     -0.77      0.00
    2   -1    9     -2.07      0.00
    3   -1    9     -3.88      0.00
    4   -1    9     -3.15      0.00
    5   -1    9     -1.12      0.00
    6   -1    9      0.02      0.00
    7   -1    9     -0.49      0.00
    8   -1    9     -0.58      0.00
    9   -1    9     -0.13      0.00
   10   -1    9      0.10      0.00
  -11    0    9      1.12      0.00
  -10    0    9      0.02      0.00
   -9    0    9      0.43      0.00
   -8    0    9      0.87      0.00
   -7    0    9      0.66      0.00
   -6    0    9     -0.73      0.00
   -5    0    9     -0.97      0.00
   -4    0    9      0.86      0.00
   -3    0    9      0.30      0.00
   -2    0    9     -1.95      0.00
   -1    0    9     -1.04      0.00
    0    0    9      1.98      0.00
    1    0    9      2.28      0.00
    2    0    9      1.79      0.00
    3    0    9      2.86      0.00
    4    0    9      2.75      0.00
    5    0    9      1.09      0.00
    6    0    9      0.37      0.00
    7    0    9     -0.05      0.00
    8    0    9     -0.07      0.00
    9    0    9     -0.26      0.00
   10    0    9      0.64      0.00
  -11    1    9      0.76      0.00
  -10    1    9     -0.74      0.00
   -9    1    9     -0.27      0.00
   -8    1    9     -0.79      0.00
   -7    1    9     -1.51      0.00
   -6    1    9      0.25      0.00
   -5    1    9      2.61      0.00
   -4    1    9      1.54      0.00
   -3    1    9      0.90      0.00
   -2    1    9      2.11      0.00
   -1    1    9      2.80      0.00
    0    1    9     -0.09      0.00
    1    1    9     -1.96      0.00
    2    1    9     -0.41      0.00
    3    1    9      0.25      0.00
    4    1    9     -0.84      0.00
    5    1    9     -0.06      0.00
    6    1    9      0.49      0.00
    7    1    9      0.75      0.00
    8    1    9      0.77      0.00
    9    1    9      0.39      0.00
   10    1    9      0.12      0.00
   11    1    9     -0.44      0.00
  -11    2    9     -2.43      0.00
  -10    2    9     -0.65      0.00
   -9    2    9      0.07      0.00
   -8    2    9      0.26      0.00
   -7    2    9      0.63      0.00
   -6    2    9      0.43      0.00
   -5    2    9     -1.82      0.00
   -4    2    9     -2.73      0.00
   -3    2    9     -2.27      0.00
   -2    2    9     -2.75      0.00
   -1    2    9     -3.39      0.00
    0    2    9     -2.28      0.00
    1    2    9      0.45      0.00
    2    2    9      0.26      0.00
    3    2    9     -1.95      0.00
    4    2    9     -1.11      0.00
    5    2    9     -0.57      0.00
    6    2    9     -1.85      0.00
    7    2    9     -1.31      0.00
    8    2    9     -1.32      0.00
    9    2    9     -0.38      0.00
   10    2    9     -0.46      0.00
   11    2    9     -0.44      0.00
  -10    3    9      1.23      0.00
   -9    3    9      0.46      0.00
   -8    3    9     -0.70      0.00
   -7    3    9     -0.60      0.00
   -6    3    9     -0.60      0.00
   -5    3    9     -0.98      0.00
   -4    3    9      2.07      0.00
   -3    3    9      3.01      0.00
   -2    3    9      3.11      0.00
   -1    3    9      2.20      0.00
    0    3    9      0.74      0.00
    1    3    9     -0.99      0.00
    2    3    9     -2.05      0.00
    3    3    9      0.19      0.00
    4    3    9      1.61      0.00
    5    3    9      0.54      0.00
    6    3    9      1.99      0.00
    7    3    9      1.54      0.00
    8    3    9      1.32      0.00
    9    3    9      1.29      0.00
   10    3    9      0.42      0.00
   11    3    9      0.66      0.00
  -10    4    9      0.60      0.00
   -9    4    9      0.62      0.00
   -8    4    9      0.91      0.00
   -7    4    9      2.02      0.00
   -6    4    9      0.60      0.00
   -5    4    9      2.59      0.00
   -4    4    9      0.10      0.00
   -3    4    9     -2.74      0.00
   -2    4    9     -1.78      0.00
   -1    4    9      0.29      0.00
    0    4    9      3.42      0.00
    1    4    9      4.23      0.00
    2    4    9      4.40      0.00
    3    4    9      3.14      0.00
    4    4    9      0.15      0.00
    5    4    9     -0.32      0.00
    6    4    9     -0.77      0.00
    7    4    9     -0.85      0.00
    8    4    9     -0.28      0.00
    9    4    9     -1.23      0.00
   10    4    9     -0.32      0.00
   11    4    9     -0.14      0.00
   -9    5    9     -3.02      0.00
   -8    5    9     -0.94      0.00
   -7    5    9     -1.52      0.00
   -6    5    9      0.01      0.00
   -5    5    9     -0.81      0.00
   -4    5    9     -1.37      0.00
   -3    5    9      1.87      0.00
   -2    5    9      0.69      0.00
   -1    5    9     -1.76      0.00
    0    5    9     -4.79      0.00
    1    5    9     -5.54      0.00
    2    5    9     -4.37      0.00
    3    5    9     -3.62      0.00
    4    5    9     -1.85      0.00
    5    5    9     -0.10      0.00
    6    5    9     -0.05      0.00
    7    5    9     -0.37      0.00
    8    5    9     -0.61      0.00
    9    5    9     -0.23      0.00
   10    5    9     -0.58      0.00
   11    5    9     -0.49      0.00
   -9    6    9      2.46      0.00
   -8    6    9      1.02      0.00
   -7    6    9     -0.26      0.00
   -6    6    9     -0.96      0.00
   -5    6    9     -1.29      0.00
   -4    6    9      1.18      0.00
   -3    6    9     -0.36      0.00
   -2    6    9     -0.79      0.00
   -1    6    9      1.13      0.00
    0    6    9      2.40      0.00
    1    6    9      2.55      0.00
    2    6    9      1.36      0.00
    3    6    9      0.74      0.00
    4    6    9      0.88      0.00
    5    6    9      0.65      0.00
    6    6    9      0.03      0.00
    7    6    9      0.54      0.00
    8    6    9      0.30      0.00
    9    6    9      0.24      0.00
   10    6    9      1.13      0.00
   11    6    9      0.72      0.00
   -8    7    9      0.01      0.00
   -7    7    9      0.17      0.00
   -6    7    9      0.46      0.00
   -5    7    9      0.60      0.00
   -4    7    9     -1.51      0.00
   -3    7    9     -1.62      0.00
   -2    7    9      0.58      0.00
   -1    7    9      0.11      0.00
    0    7    9      0.09      0.00
    1    7    9      1.07      0.00
    2    7    9      1.78      0.00
    3    7    9      1.77      0.00
    4    7    9      1.25      0.00
    5    7    9     -0.37      0.00
    6    7    9     -0.32      0.00
    7    7    9      0.25      0.00
    8    7    9      0.24      0.00
    9    7    9      0.85      0.00
   10    7    9      0.10      0.00
   11    7    9      0.09      0.00
   12    7    9      0.41      0.00
   -8    8    9     -1.09      0.00
   -7    8    9      0.48      0.00
   -6    8    9      0.79      0.00
   -5    8    9      0.98      0.00
   -4    8    9      1.85      0.00
   -3    8    9      2.38      0.00
   -2    8    9      0.21      0.00
   -1    8    9     -0.68      0.00
    0    8    9     -0.85      0.00
    1    8    9     -2.09      0.00
    2    8    9     -2.55      0.00
    3    8    9     -2.34      0.00
    4    8    9     -2.22      0.00
    5    8    9     -1.00      0.00
    6    8    9      0.50      0.00
    7    8    9     -0.44      0.00
    8    8    9     -0.36      0.00
    9    8    9     -0.65      0.00
   10    8    9     -1.29      0.00
   11    8    9     -1.28      0.00
   12    8    9     -1.09      0.00
   -7    9    9      0.27      0.00
   -6    9    9      0.12      0.00
   -5    9    9     -0.96      0.00
   -4    9    9     -1.25      0.00
   -3    9    9     -0.86      0.00
   -2    9    9     -0.41      0.00
   -1    9    9      0.11      0.00
    0    9    9      0.34      0.00
    1    9    9      1.26      0.00
    2    9    9      1.21      0.00
    3    9    9      1.62      0.00
    4    9    9      2.13      0.00
    5    9    9      1.75      0.00
    6    9    9      0.02      0.00
    7    9    9      0.01      0.00
    8    9    9      0.46      0.00
    9    9    9      0.03      0.00
   10    9    9      0.88      0.00
   11    9    9      0.96      0.00
   -6   10    9     -2.36      0.00
   -5   10    9     -0.53      0.00
   -4   10    9      1.55      0.00
   -3   10    9     -0.17      0.00
   -2   10    9     -0.47      0.00
   -1   10    9      0.93      0.00
    0   10    9      1.03      0.00
    1   10    9     -0.24      0.00
    2   10    9      0.04      0.00
    3   10    9      0.02      0.00
    4   10    9     -1.13      0.00
    5   10    9     -0.98      0.00
    6   10    9     -0.14      0.00
    7   10    9      0.22      0.00
    8   10    9     -0.37      0.00
    9   10    9     -0.07      0.00
   10   10    9     -0.38      0.00
   11   10    9      0.33      0.00
   -6   11    9      2.38      0.00
   -5   11    9      2.08      0.00
   -4   11    9     -2.13      0.00
   -3   11    9     -1.48      0.00
   -2   11    9      1.18      0.00
   -1   11    9     -0.29      0.00
    0   11    9     -1.61      0.00
    1   11    9     -0.30      0.00
    2   11    9      0.17      0.00
    3   11    9     -0.82      0.00
    4   11    9     -0.21      0.00
    5   11    9      0.16      0.00
    6   11    9      0.06      0.00
    7   11    9     -0.27      0.00
    8   11    9     -0.32      0.00
    9   11    9     -0.26      0.00
   10   11    9      0.45      0.00
   11   11    9     -0.08      0.00
   -5   12    9     -2.07      0.00
   -4   12    9      0.63      0.00
   -3   12    9      2.50      0.00
   -2   12    9     -0.59      0.00
   -1   12    9     -1.51      0.00
    0   12    9      0.26      0.00
    1   12    9      0.41      0.00
    2   12    9     -0.54      0.00
    3   12    9     -0.10      0.00
    4   12    9      0.14      0.00
    5   12    9     -0.14      0.00
    6   12    9     -0.30      0.00
    7   12    9      0.22      0.00
    8   12    9      1.26      0.00
    9   12    9      1.04      0.00
   10   12    9     -0.05      0.00
   11   12    9     -0.98      0.00
   -4   13    9      0.86      0.00
   -3   13    9     -0.68      0.00
   -2   13    9      0.01      0.00
    0   13    9      0.95      0.00
    1   13    9     -0.61      0.00
    2   13    9     -0.29      0.00
    3   13    9      0.52      0.00
    4   13    9      0.69      0.00
    5   13    9     -0.24      0.00
    6   13    9     -1.02      0.00
    7   13    9     -0.53      0.00
    8   13    9     -1.36      0.00
    9   13    9     -1.38      0.00
   10   13    9     -0.51      0.00
   11   13    9      0.51      0.00
   -1   14    9     -0.46      0.00
    0   14    9     -0.51      0.00
    1   14    9      1.16      0.00
    2   14    9      1.44      0.00
    3   14    9      0.18      0.00
    4   14    9     -0.56      0.00
    5   14    9      0.96      0.00
    7   14    9      1.82      0.00
    8   14    9     -0.01      0.00
    9   14    9      0.88      0.00
   10   14    9      0.51      0.00
    0   15    9     -0.06      0.00
    1   15    9     -1.41      0.00
    2   15    9     -1.90      0.00
    3   15    9     -0.38      0.00
    4   15    9      0.38      0.00
    5   15    9     -0.46      0.00
    8   15    9      1.40      0.00
    9   15    9      0.38      0.00
    2   16    9      1.64      0.00
    3   16    9      0.24      0.00
    4   16    9     -0.63      0.00
    5   16    9     -0.70      0.00
   -5  -12   10      2.69      0.00
   -4  -12   10      1.40      0.00
   -3  -12   10      2.23      0.00
   -6  -11   10     -0.39      0.00
   -5  -11   10     -2.26      0.00
   -4  -11   10     -1.69      0.00
   -3  -11   10     -1.12      0.00
   -2  -11   10     -1.54      0.00
   -1  -11   10      0.43      0.00
    0  -11   10     -0.08      0.00
   -8  -10   10     -0.48      0.00
   -7  -10   10     -0.24      0.00
   -6  -10   10     -0.82      0.00
   -5  -10   10     -0.61      0.00
   -4  -10   10      0.64      0.00
   -3  -10   10      0.06      0.00
   -2  -10   10      0.24      0.00
   -1  -10   10     -0.58      0.00
    0  -10   10     -0.06      0.00
    1  -10   10      1.00      0.00
    2  -10   10      0.22      0.00
  -10   -9   10     -0.07      0.00
   -9   -9   10     -0.63      0.00
   -8   -9   10      0.17      0.00
   -7   -9   10     -0.25      0.00
   -6   -9   10      0.08      0.00
   -5   -9   10      1.78      0.00
   -4   -9   10      0.83      0.00
   -3   -9   10     -0.04      0.00
   -2   -9   10      0.04      0.00
   -1   -9   10     -0.16      0.00
    0   -9   10     -0.36      0.00
    1   -9   10     -1.10      0.00
    2   -9   10     -1.24      0.00
    3   -9   10     -0.48      0.00
  -10   -8   10     -0.40      0.00
   -9   -8   10      1.93      0.00
   -8   -8   10      0.29      0.00
   -7   -8   10      0.50      0.00
   -6   -8   10      0.72      0.00
   -5   -8   10     -1.07      0.00
   -4   -8   10     -0.99      0.00
   -3   -8   10     -0.11      0.00
   -2   -8   10     -0.16      0.00
   -1   -8   10      0.51      0.00
    0   -8   10      0.76      0.00
    1   -8   10      0.66      0.00
    2   -8   10      1.27      0.00
    3   -8   10      1.78      0.00
    4   -8   10     -0.07      0.00
    5   -8   10     -0.67      0.00
  -11   -7   10      0.23      0.00
  -10   -7   10      2.40      0.00
   -9   -7   10     -1.08      0.00
   -8   -7   10     -0.63      0.00
   -7   -7   10      0.29      0.00
   -6   -7   10     -0.11      0.00
   -5   -7   10      1.03      0.00
   -4   -7   10     -0.03      0.00
   -3   -7   10     -0.58      0.00
   -2   -7   10      0.40      0.00
   -1   -7   10      0.01      0.00
    0   -7   10     -0.65      0.00
    1   -7   10     -0.24      0.00
    2   -7   10      0.02      0.00
    3   -7   10     -0.99      0.00
    4   -7   10     -0.60      0.00
    5   -7   10     -0.39      0.00
    6   -7   10      0.02      0.00
  -11   -6   10      1.57      0.00
  -10   -6   10     -2.36      0.00
   -9   -6   10     -1.10      0.00
   -8   -6   10      0.58      0.00
   -7   -6   10     -0.53      0.00
   -6   -6   10     -0.39      0.00
   -5   -6   10     -1.10      0.00
   -4   -6   10      0.43      0.00
   -3   -6   10      2.19      0.00
   -2   -6   10      0.83      0.00
   -1   -6   10     -0.01      0.00
    0   -6   10      0.68      0.00
    1   -6   10      1.13      0.00
    2   -6   10     -0.20      0.00
    3   -6   10     -0.25      0.00
    4   -6   10      0.52      0.00
    5   -6   10      0.84      0.00
    6   -6   10      0.58      0.00
  -11   -5   10     -3.73      0.00
  -10   -5   10     -0.20      0.00
   -9   -5   10      1.59      0.00
   -8   -5   10      0.42      0.00
   -7   -5   10      0.30      0.00
   -6   -5   10      0.09      0.00
   -5   -5   10      0.27      0.00
   -4   -5   10     -0.03      0.00
   -3   -5   10     -1.95      0.00
   -2   -5   10     -2.05      0.00
   -1   -5   10     -0.53      0.00
    0   -5   10     -0.32      0.00
    1   -5   10     -1.84      0.00
    2   -5   10     -1.09      0.00
    3   -5   10      0.50      0.00
    4   -5   10     -0.52      0.00
    5   -5   10     -0.63      0.00
    6   -5   10     -0.43      0.00
    7   -5   10      0.71      0.00
  -11   -4   10      5.02      0.00
  -10   -4   10      1.84      0.00
   -9   -4   10     -0.73      0.00
   -8   -4   10     -1.05      0.00
   -7   -4   10     -0.60      0.00
   -6   -4   10      0.18      0.00
   -5   -4   10      0.71      0.00
   -4   -4   10      0.43      0.00
   -3   -4   10      0.51      0.00
   -2   -4   10      1.13      0.00
   -1   -4   10      0.10      0.00
    0   -4   10     -1.02      0.00
    1   -4   10     -0.27      0.00
    2   -4   10      0.31      0.00
    3   -4   10     -1.07      0.00
    4   -4   10     -0.16      0.00
    5   -4   10      0.23      0.00
    6   -4   10     -0.14      0.00
    7   -4   10      0.02      0.00
    8   -4   10      0.20      0.00
  -11   -3   10     -3.38      0.00
  -10   -3   10     -1.48      0.00
   -9   -3   10      0.37      0.00
   -8   -3   10      0.72      0.00
   -7   -3   10      0.42      0.00
   -6   -3   10     -0.49      0.00
   -5   -3   10     -1.71      0.00
   -4   -3   10     -2.35      0.00
   -3   -3   10     -1.20      0.00
   -2   -3   10     -0.23      0.00
   -1   -3   10      0.99      0.00
    0   -3   10      2.21      0.00
    1   -3   10      2.99      0.00
    2   -3   10      2.49      0.00
    3   -3   10      1.78      0.00
    4   -3   10      0.72      0.00
    5   -3   10      0.10      0.00
    6   -3   10      0.55      0.00
    7   -3   10     -0.24      0.00
    8   -3   10     -0.40      0.00
    9   -3   10      0.15      0.00
  -11   -2   10      0.14      0.00
  -10   -2   10      0.13      0.00
   -9   -2   10      0.38      0.00
   -8   -2   10     -0.63      0.00
   -7   -2   10     -0.10      0.00
   -6   -2   10      0.72      0.00
   -5   -2   10      2.23      0.00
   -4   -2   10      4.02      0.00
   -3   -2   10      3.09      0.00
   -2   -2   10      0.53      0.00
   -1   -2   10     -1.40      0.00
    0   -2   10     -2.27      0.00
    1   -2   10     -2.71      0.00
    2   -2   10     -2.52      0.00
    3   -2   10     -0.26      0.00
    4   -2   10      0.91      0.00
    5   -2   10      0.42      0.00
    6   -2   10     -0.42      0.00
    7   -2   10      0.29      0.00
    8   -2   10      0.46      0.00
    9   -2   10     -0.07      0.00
  -11   -1   10      0.65      0.00
  -10   -1   10      1.05      0.00
   -9   -1   10     -1.28      0.00
   -8   -1   10      0.30      0.00
   -7   -1   10      0.63      0.00
   -6   -1   10     -0.05      0.00
   -5   -1   10     -0.98      0.00
   -4   -1   10     -3.11      0.00
   -3   -1   10     -2.99      0.00
   -2   -1   10     -0.07      0.00
   -1   -1   10      1.63      0.00
    0   -1   10      1.34      0.00
    1   -1   10      0.45      0.00
    2   -1   10     -0.46      0.00
    3   -1   10     -2.63      0.00
    4   -1   10     -3.38      0.00
    5   -1   10     -1.63      0.00
    6   -1   10     -0.33      0.00
    7   -1   10     -0.67      0.00
    8   -1   10     -0.57      0.00
    9   -1   10     -0.13      0.00
   10   -1   10     -0.18      0.00
  -11    0   10      0.38      0.00
  -10    0   10     -0.74      0.00
   -9    0   10      0.58      0.00
   -8    0   10      0.61      0.00
   -7    0   10     -0.13      0.00
   -6    0   10     -0.48      0.00
   -5    0   10     -1.13      0.00
   -4    0   10      0.16      0.00
   -3    0   10      0.91      0.00
   -2    0   10     -0.80      0.00
   -1    0   10     -2.12      0.00
    0    0   10     -0.51      0.00
    1    0   10      1.06      0.00
    2    0   10      1.93      0.00
    3    0   10      3.15      0.00
    4    0   10      3.54      0.00
    5    0   10      1.94      0.00
    6    0   10      0.85      0.00
    7    0   10      0.63      0.00
    8    0   10      0.29      0.00
    9    0   10     -0.54      0.00
   10    0   10      0.50      0.00
  -11    1   10      0.16      0.00
  -10    1   10      0.00      0.00
   -9    1   10      0.59      0.00
   -8    1   10     -0.74      0.00
   -7    1   10     -1.41      0.00
   -6    1   10     -0.43      0.00
   -5    1   10      1.97      0.00
   -4    1   10      2.13      0.00
   -3    1   10      1.26      0.00
   -2    1   10      1.15      0.00
   -1    1   10      2.10      0.00
    0    1   10      1.13      0.00
    1    1   10     -0.62      0.00
    2    1   10     -0.71      0.00
    3    1   10     -0.84      0.00
    4    1   10     -1.52      0.00
    5    1   10     -0.96      0.00
    6    1   10     -0.31      0.00
    7    1   10      0.17      0.00
    8    1   10      0.64      0.00
    9    1   10      0.86      0.00
   10    1   10      0.36      0.00
  -10    2   10     -0.65      0.00
   -9    2   10     -1.15      0.00
   -8    2   10      0.16      0.00
   -7    2   10      1.31      0.00
   -6    2   10      1.05      0.00
   -5    2   10     -0.88      0.00
   -4    2   10     -2.63      0.00
   -3    2   10     -2.50      0.00
   -2    2   10     -2.18      0.00
   -1    2   10     -2.08      0.00
    0    2   10     -2.22      0.00
    1    2   10     -0.90      0.00
    2    2   10     -0.48      0.00
    3    2   10     -0.94      0.00
    4    2   10     -0.17      0.00
    5    2   10      0.13      0.00
    6    2   10     -0.77      0.00
    7    2   10     -0.82      0.00
    8    2   10     -1.53      0.00
    9    2   10     -0.88      0.00
   10    2   10     -0.54      0.00
  -10    3   10      0.87      0.00
   -9    3   10      1.63      0.00
   -8    3   10      0.28      0.00
   -7    3   10     -0.64      0.00
   -6    3   10     -0.13      0.00
   -5    3   10     -1.24      0.00
   -4    3   10      1.30      0.00
   -3    3   10      2.79      0.00
   -2    3   10      3.19      0.00
   -1    3   10      2.30      0.00
    0    3   10      0.97      0.00
    1    3   10      0.16      0.00
    2    3   10     -0.50      0.00
    3    3   10     -0.11      0.00
    4    3   10     -0.02      0.00
    5    3   10     -0.28      0.00
    6    3   10      1.09      0.00
    7    3   10      0.90      0.00
    8    3   10      1.23      0.00
    9    3   10      1.54      0.00
   10    3   10      0.30      0.00
   11    3   10      0.30      0.00
  -10    4   10      0.68      0.00
   -9    4   10     -0.43      0.00
   -8    4   10     -0.43      0.00
   -7    4   10      1.45      0.00
   -6    4   10     -0.37      0.00
   -5    4   10      2.02      0.00
   -4    4   10      1.16      0.00
   -3    4   10     -2.26      0.00
   -2    4   10     -2.49      0.00
   -1    4   10     -1.41      0.00
    0    4   10      2.13      0.00
    1    4   10      3.63      0.00
    2    4   10      3.14      0.00
    3    4   10      2.51      0.00
    4    4   10      1.59      0.00
    5    4   10      0.70      0.00
    6    4   10     -0.48      0.00
    7    4   10     -0.48      0.00
    8    4   10      0.17      0.00
    9    4   10     -1.06      0.00
   10    4   10     -0.18      0.00
   11    4   10      0.50      0.00
   -9    5   10     -2.41      0.00
   -8    5   10     -0.41      0.00
   -7    5   10     -1.67      0.00
   -6    5   10      0.07      0.00
   -5    5   10      0.01      0.00
   -4    5   10     -1.97      0.00
   -3    5   10      1.11      0.00
   -2    5   10      1.42      0.00
   -1    5   10      0.04      0.00
    0    5   10     -3.30      0.00
    1    5   10     -5.52      0.00
    2    5   10     -4.26      0.00
    3    5   10     -3.05      0.00
    4    5   10     -2.47      0.00
    5    5   10     -0.94      0.00
    6    5   10      0.14      0.00
    7    5   10     -0.12      0.00
    8    5   10     -1.04      0.00
    9    5   10     -0.89      0.00
   10    5   10     -0.71      0.00
   11    5   10     -1.13      0.00
   -9    6   10      2.90      0.00
   -8    6   10      1.30      0.00
   -7    6   10      0.15      0.00
   -6    6   10     -0.56      0.00
   -5    6   10     -2.24      0.00
   -4    6   10      0.39      0.00
   -3    6   10      0.25      0.00
   -2    6   10     -0.97      0.00
   -1    6   10      0.01      0.00
    0    6   10      1.56      0.00
    1    6   10      2.75      0.00
    2    6   10      1.84      0.00
    3    6   10      0.96      0.00
    4    6   10      1.13      0.00
    5    6   10      1.05      0.00
    6    6   10      0.04      0.00
    7    6   10      0.08      0.00
    8    6   10      0.40      0.00
    9    6   10      1.14      0.00
   10    6   10      1.42      0.00
   11    6   10      0.66      0.00
   -8    7   10     -0.47      0.00
   -7    7   10      0.94      0.00
   -6    7   10      1.01      0.00
   -5    7   10      1.36      0.00
   -4    7   10     -0.01      0.00
   -3    7   10     -1.63      0.00
   -2    7   10     -0.18      0.00
   -1    7   10      0.31      0.00
    0    7   10      0.40      0.00
    1    7   10      1.00      0.00
    2    7   10      1.65      0.00
    3    7   10      1.44      0.00
    4    7   10      1.10      0.00
    5    7   10     -0.21      0.00
    6    7   10     -0.74      0.00
    7    7   10      0.29      0.00
    8    7   10      0.69      0.00
    9    7   10      0.31      0.00
   10    7   10     -0.54      0.00
   11    7   10      0.34      0.00
   -8    8   10     -0.45      0.00
   -7    8   10     -0.63      0.00
   -6    8   10     -0.36      0.00
   -5    8   10      1.27      0.00
   -4    8   10      1.83      0.00
   -3    8   10      2.32      0.00
   -2    8   10      1.54      0.00
   -1    8   10      0.22      0.00
    0    8   10     -1.02      0.00
    1    8   10     -2.62      0.00
    2    8   10     -2.93      0.00
    3    8   10     -2.17      0.00
    4    8   10     -2.12      0.00
    5    8   10     -1.64      0.00
    6    8   10      0.61      0.00
    7    8   10      0.00      0.00
    8    8   10     -0.89      0.00
    9    8   10     -0.62      0.00
   10    8   10     -0.47      0.00
   11    8   10     -0.86      0.00
   -7    9   10      0.00      0.00
   -6    9   10      0.53      0.00
   -5    9   10     -1.70      0.00
   -4    9   10     -2.80      0.00
   -3    9   10     -1.29      0.00
   -2    9   10     -0.85      0.00
   -1    9   10     -0.63      0.00
    0    9   10      0.70      0.00
    1    9   10      2.56      0.00
    2    9   10      2.13      0.00
    3    9   10      1.20      0.00
    4    9   10      1.63      0.00
    5    9   10      2.30      0.00
    6    9   10      0.56      0.00
    7    9   10     -0.28      0.00
    8    9   10      0.40      0.00
    9    9   10     -0.02      0.00
   10    9   10      0.49      0.00
   11    9   10      0.52      0.00
   -6   10   10     -1.95      0.00
   -5   10   10     -0.73      0.00
   -4   10   10      2.05      0.00
   -3   10   10      0.26      0.00
   -2   10   10     -1.11      0.00
   -1   10   10      0.26      0.00
    0   10   10      0.43      0.00
    1   10   10     -1.26      0.00
    2   10   10     -1.03      0.00
    3   10   10      0.28      0.00
    4   10   10     -0.29      0.00
    5   10   10     -0.82      0.00
    6   10   10     -0.31      0.00
    7   10   10      0.15      0.00
    8   10   10     -0.18      0.00
    9   10   10      0.23      0.00
   10   10   10     -0.46      0.00
   11   10   10     -0.07      0.00
   -5   11   10      2.72      0.00
   -4   11   10     -0.93      0.00
   -3   11   10     -1.29      0.00
   -2   11   10      1.21      0.00
   -1   11   10      0.39      0.00
    0   11   10     -1.33      0.00
    1   11   10     -0.53      0.00
    2   11   10      0.51      0.00
    3   11   10     -0.48      0.00
    4   11   10     -0.61      0.00
    5   11   10     -0.30      0.00
    6   11   10     -0.66      0.00
    7   11   10     -0.42      0.00
    8   11   10      0.05      0.00
    9   11   10     -0.34      0.00
   10   11   10      0.35      0.00
   11   11   10      0.43      0.00
   -4   12   10      0.06      0.00
   -3   12   10      1.99      0.00
   -2   12   10      0.19      0.00
   -1   12   10     -0.83      0.00
    0   12   10      0.50      0.00
    1   12   10      0.93      0.00
    2   12   10     -0.49      0.00
    3   12   10     -0.68      0.00
    4   12   10     -0.04      0.00
    5   12   10     -0.39      0.00
    6   12   10     -0.13      0.00
    7   12   10      0.53      0.00
    8   12   10      0.67      0.00
    9   12   10      0.69      0.00
   10   12   10      0.28      0.00
   11   12   10     -0.80      0.00
   -3   13   10     -0.65      0.00
   -2   13   10     -0.03      0.00
   -1   13   10      0.94      0.00
    0   13   10      0.72      0.00
    1   13   10     -0.41      0.00
    2   13   10      0.18      0.00
    3   13   10      1.10      0.00
    4   13   10      0.96      0.00
    5   13   10      0.81      0.00
    6   13   10      0.43      0.00
    7   13   10     -0.30      0.00
    8   13   10     -1.19      0.00
    9   13   10     -1.08      0.00
   10   13   10     -0.68      0.00
    0   14   10     -0.45      0.00
    1   14   10      1.12      0.00
    2   14   10      1.18      0.00
    3   14   10     -0.16      0.00
    4   14   10     -0.71      0.00
    5   14   10      0.02      0.00
    7   14   10      1.49      0.00
    8   14   10      0.48      0.00
    9   14   10      0.89      0.00
   10   14   10      0.64      0.00
    0   15   10     -0.26      0.00
    1   15   10     -2.17      0.00
    2   15   10     -2.71      0.00
    3   15   10     -0.67      0.00
    4   15   10      0.40      0.00
    5   15   10     -0.19      0.00
    8   15   10      0.46      0.00
    9   15   10      0.46      0.00
    2   16   10      2.51      0.00
    3   16   10      0.73      0.00
    4   16   10     -0.56      0.00
    5   16   10     -0.58      0.00
    6   16   10      1.56      0.00
   -6  -11   11     -0.23      0.00
   -5  -11   11     -1.80      0.00
   -4  -11   11     -1.70      0.00
   -3  -11   11     -1.36      0.00
   -2  -11   11     -2.29      0.00
   -1  -11   11      0.17      0.00
   -7  -10   11     -0.47      0.00
   -6  -10   11     -0.68      0.00
   -5  -10   11     -0.71      0.00
   -4  -10   11      0.60      0.00
   -3  -10   11      0.30      0.00
   -2  -10   11      0.47      0.00
   -1  -10   11     -0.43      0.00
    0  -10   11     -0.98      0.00
    1  -10   11      0.04      0.00
   -9   -9   11     -1.20      0.00
   -8   -9   11     -0.35      0.00
   -7   -9   11      0.01      0.00
   -6   -9   11      0.45      0.00
   -5   -9   11      1.99      0.00
   -4   -9   11      1.21      0.00
   -3   -9   11      0.00      0.00
   -2   -9   11      0.27      0.00
   -1   -9   11     -0.14      0.00
    0   -9   11     -0.35      0.00
    1   -9   11     -0.78      0.00
    2   -9   11     -1.10      0.00
    3   -9   11     -0.69      0.00
  -10   -8   11     -0.17      0.00
   -9   -8   11      2.10      0.00
   -8   -8   11      0.70      0.00
   -7   -8   11      0.60      0.00
   -6   -8   11      0.56      0.00
   -5   -8   11     -1.39      0.00
   -4   -8   11     -1.63      0.00
   -3   -8   11     -0.30      0.00
   -2   -8   11     -0.08      0.00
   -1   -8   11      0.74      0.00
    0   -8   11      1.43      0.00
    1   -8   11      1.16      0.00
    2   -8   11      1.58      0.00
    3   -8   11      2.16      0.00
    4   -8   11      0.32      0.00
  -10   -7   11      1.76      0.00
   -9   -7   11     -0.55      0.00
   -8   -7   11     -0.44      0.00
   -7   -7   11     -0.13      0.00
   -6   -7   11     -0.79      0.00
   -5   -7   11      1.15      0.00
   -4   -7   11      1.19      0.00
   -3   -7   11      0.08      0.00
   -2   -7   11      0.14      0.00
   -1   -7   11     -0.45      0.00
    0   -7   11     -1.17      0.00
    1   -7   11     -0.62      0.00
    2   -7   11     -0.40      0.00
    3   -7   11     -1.45      0.00
    4   -7   11     -0.86      0.00
    5   -7   11     -0.60      0.00
  -10   -6   11     -1.85      0.00
   -9   -6   11     -1.87      0.00
   -8   -6   11     -0.20      0.00
   -7   -6   11     -0.33      0.00
   -6   -6   11      0.31      0.00
   -5   -6   11     -1.04      0.00
   -4   -6   11     -1.12      0.00
   -3   -6   11      0.94      0.00
   -2   -6   11      0.96      0.00
   -1   -6   11      0.20      0.00
    0   -6   11      0.49      0.00
    1   -6   11      0.73      0.00
    2   -6   11     -0.41      0.00
    3   -6   11     -0.38      0.00
    4   -6   11      0.18      0.00
    5   -6   11      0.80      0.00
    6   -6   11      1.19      0.00
  -11   -5   11     -0.88      0.00
  -10   -5   11      0.42      0.00
   -9   -5   11      1.91      0.00
   -8   -5   11      1.09      0.00
   -7   -5   11      0.50      0.00
   -6   -5   11     -0.05      0.00
   -5   -5   11      0.15      0.00
   -4   -5   11      0.69      0.00
   -3   -5   11     -1.03      0.00
   -2   -5   11     -2.55      0.00
   -1   -5   11     -0.94      0.00
    0   -5   11      0.31      0.00
    1   -5   11     -1.12      0.00
    2   -5   11     -0.85      0.00
    3   -5   11      0.84      0.00
    4   -5   11      0.14      0.00
    5   -5   11     -0.30      0.00
    6   -5   11     -0.74      0.00
    7   -5   11      0.87      0.00
  -11   -4   11      0.34      0.00
  -10   -4   11      0.12      0.00
   -9   -4   11     -0.66      0.00
   -8   -4   11     -1.19      0.00
   -7   -4   11     -1.01      0.00
   -6   -4   11      0.02      0.00
   -5   -4   11      0.73      0.00
   -4   -4   11      0.64      0.00
   -3   -4   11      0.51      0.00
   -2   -4   11      2.15      0.00
   -1   -4   11      1.54      0.00
    0   -4   11     -0.95      0.00
    1   -4   11     -0.50      0.00
    2   -4   11      0.91      0.00
    3   -4   11     -0.65      0.00
    4   -4   11     -0.35      0.00
    5   -4   11      0.16      0.00
    6   -4   11      0.03      0.00
    7   -4   11     -0.24      0.00
    8   -4   11     -0.72      0.00
  -11   -3   11      0.38      0.00
  -10   -3   11      0.11      0.00
   -9   -3   11      0.14      0.00
   -8   -3   11      0.40      0.00
   -7   -3   11      0.62      0.00
   -6   -3   11     -0.29      0.00
   -5   -3   11     -1.25      0.00
   -4   -3   11     -2.12      0.00
   -3   -3   11     -1.57      0.00
   -2   -3   11     -1.14      0.00
   -1   -3   11     -0.87      0.00
    0   -3   11      0.94      0.00
    1   -3   11      2.74      0.00
    2   -3   11      2.14      0.00
    3   -3   11      1.42      0.00
    4   -3   11      0.76      0.00
    5   -3   11     -0.28      0.00
    6   -3   11     -0.03      0.00
    7   -3   11     -0.52      0.00
    8   -3   11     -0.07      0.00
  -11   -2   11     -1.30      0.00
  -10   -2   11     -0.30      0.00
   -9   -2   11      0.89      0.00
   -8   -2   11      0.06      0.00
   -7   -2   11      0.21      0.00
   -6   -2   11      0.76      0.00
   -5   -2   11      1.36      0.00
   -4   -2   11      2.79      0.00
   -3   -2   11      3.47      0.00
   -2   -2   11      1.53      0.00
   -1   -2   11     -0.48      0.00
    0   -2   11     -1.36      0.00
    1   -2   11     -2.91      0.00
    2   -2   11     -3.95      0.00
    3   -2   11     -1.57      0.00
    4   -2   11      0.29      0.00
    5   -2   11      0.62      0.00
    6   -2   11      0.31      0.00
    7   -2   11      0.78      0.00
    8   -2   11      0.46      0.00
    9   -2   11     -0.17      0.00
  -11   -1   11      1.04      0.00
  -10   -1   11      0.86      0.00
   -9   -1   11     -1.82      0.00
   -8   -1   11     -0.23      0.00
   -7   -1   11      0.41      0.00
   -6   -1   11     -0.30      0.00
   -5   -1   11     -0.44      0.00
   -4   -1   11     -1.70      0.00
   -3   -1   11     -3.33      0.00
   -2   -1   11     -1.76      0.00
   -1   -1   11      1.63      0.00
    0   -1   11      2.46      0.00
    1   -1   11      1.84      0.00
    2   -1   11      1.84      0.00
    3   -1   11     -0.36      0.00
    4   -1   11     -2.58      0.00
    5   -1   11     -1.54      0.00
    6   -1   11     -0.51      0.00
    7   -1   11     -1.09      0.00
    8   -1   11     -0.83      0.00
    9   -1   11      0.10      0.00
  -11    0   11      0.03      0.00
  -10    0   11     -0.92      0.00
   -9    0   11      0.52      0.00
   -8    0   11      0.40      0.00
   -7    0   11     -0.75      0.00
   -6    0   11     -0.42      0.00
   -5    0   11     -0.88      0.00
   -4    0   11     -0.66      0.00
   -3    0   11      0.51      0.00
   -2    0   11      0.61      0.00
   -1    0   11     -1.89      0.00
    0    0   11     -2.65      0.00
    1    0   11     -0.99      0.00
    2    0   11      0.66      0.00
    3    0   11      2.05      0.00
    4    0   11      3.23      0.00
    5    0   11      2.19      0.00
    6    0   11      0.85      0.00
    7    0   11      1.23      0.00
    8    0   11      1.25      0.00
    9    0   11     -0.32      0.00
   10    0   11      0.08      0.00
  -10    1   11      0.08      0.00
   -9    1   11      1.13      0.00
   -8    1   11     -0.18      0.00
   -7    1   11     -0.75      0.00
   -6    1   11     -0.45      0.00
   -5    1   11      1.04      0.00
   -4    1   11      2.16      0.00
   -3    1   11      2.39      0.00
   -2    1   11      1.11      0.00
   -1    1   11      1.00      0.00
    0    1   11      1.75      0.00
    1    1   11      0.77      0.00
    2    1   11     -0.65      0.00
    3    1   11     -1.47      0.00
    4    1   11     -1.58      0.00
    5    1   11     -1.40      0.00
    6    1   11     -0.92      0.00
    7    1   11     -0.62      0.00
    8    1   11     -0.41      0.00
    9    1   11      0.46      0.00
   10    1   11      0.78      0.00
  -10    2   11      0.18      0.00
   -9    2   11     -1.46      0.00
   -8    2   11     -0.12      0.00
   -7    2   11      1.63      0.00
   -6    2   11      1.31      0.00
   -5    2   11      0.11      0.00
   -4    2   11     -1.88      0.00
   -3    2   11     -2.99      0.00
   -2    2   11     -2.57      0.00
   -1    2   11     -0.57      0.00
    0    2   11     -0.80      0.00
    1    2   11     -1.21      0.00
    2    2   11     -0.68      0.00
    3    2   11      0.17      0.00
    4    2   11      0.29      0.00
    5    2   11      0.17      0.00
    6    2   11      0.09      0.00
    7    2   11     -0.16      0.00
    8    2   11     -1.17      0.00
    9    2   11     -0.85      0.00
   10    2   11     -0.66      0.00
  -10    3   11      0.01      0.00
   -9    3   11      1.68      0.00
   -8    3   11      0.72      0.00
   -7    3   11     -1.09      0.00
   -6    3   11     -0.14      0.00
   -5    3   11     -1.26      0.00
   -4    3   11      0.28      0.00
   -3    3   11      1.98      0.00
   -2    3   11      2.86      0.00
   -1    3   11      1.58      0.00
    0    3   11     -0.24      0.00
    1    3   11      0.22      0.00
    2    3   11      0.70      0.00
    3    3   11     -0.14      0.00
    4    3   11     -0.87      0.00
    5    3   11     -0.26      0.00
    6    3   11      0.67      0.00
    7    3   11      0.52      0.00
    8    3   11      1.25      0.00
    9    3   11      1.61      0.00
   10    3   11      0.05      0.00
   -9    4   11     -0.91      0.00
   -8    4   11     -1.35      0.00
   -7    4   11      1.06      0.00
   -6    4   11     -0.70      0.00
   -5    4   11      1.08      0.00
   -4    4   11      1.68      0.00
   -3    4   11     -1.01      0.00
   -2    4   11     -1.97      0.00
   -1    4   11     -2.10      0.00
    0    4   11      1.36      0.00
    1    4   11      3.12      0.00
    2    4   11      1.58      0.00
    3    4   11      1.08      0.00
    4    4   11      1.94      0.00
    5    4   11      1.09      0.00
    6    4   11     -0.37      0.00
    7    4   11     -0.37      0.00
    8    4   11      0.21      0.00
    9    4   11     -0.79      0.00
   10    4   11      0.24      0.00
   11    4   11      1.09      0.00
   -9    5   11     -1.62      0.00
   -8    5   11      0.20      0.00
   -7    5   11     -1.46      0.00
   -6    5   11     -0.31      0.00
   -5    5   11      0.48      0.00
   -4    5   11     -1.80      0.00
   -3    5   11      0.22      0.00
   -2    5   11      1.25      0.00
   -1    5   11      1.34      0.00
    0    5   11     -1.57      0.00
    1    5   11     -4.91      0.00
    2    5   11     -3.51      0.00
    3    5   11     -1.51      0.00
    4    5   11     -1.81      0.00
    5    5   11     -1.21      0.00
    6    5   11      0.01      0.00
    7    5   11     -0.09      0.00
    8    5   11     -1.18      0.00
    9    5   11     -1.50      0.00
   10    5   11     -1.16      0.00
   11    5   11     -1.75      0.00
   -9    6   11      2.81      0.00
   -8    6   11      1.63      0.00
   -7    6   11      0.79      0.00
   -6    6   11      0.51      0.00
   -5    6   11     -1.87      0.00
   -4    6   11     -0.32      0.00
   -3    6   11      0.42      0.00
   -2    6   11     -0.77      0.00
   -1    6   11     -0.83      0.00
    0    6   11      0.56      0.00
    1    6   11      2.68      0.00
    2    6   11      1.96      0.00
    3    6   11      0.53      0.00
    4    6   11      0.49      0.00
    5    6   11      0.72      0.00
    6    6   11      0.15      0.00
    7    6   11      0.07      0.00
    8    6   11      0.55      0.00
    9    6   11      1.95      0.00
   10    6   11      1.97      0.00
   11    6   11      0.87      0.00
   -8    7   11     -1.30      0.00
   -7    7   11      0.71      0.00
   -6    7   11      0.96      0.00
   -5    7   11      1.39      0.00
   -4    7   11      1.09      0.00
   -3    7   11     -0.90      0.00
   -2    7   11     -0.54      0.00
   -1    7   11      0.26      0.00
    0    7   11      0.31      0.00
    1    7   11      0.50      0.00
    2    7   11      1.33      0.00
    3    7   11      1.13      0.00
    4    7   11      0.88      0.00
    5    7   11      0.27      0.00
    6    7   11     -0.71      0.00
    7    7   11      0.11      0.00
    8    7   11      0.83      0.00
    9    7   11     -0.16      0.00
   10    7   11     -1.17      0.00
   11    7   11      0.36      0.00
   -7    8   11     -1.16      0.00
   -6    8   11     -1.65      0.00
   -5    8   11      0.50      0.00
   -4    8   11      1.19      0.00
   -3    8   11      1.37      0.00
   -2    8   11      1.66      0.00
   -1    8   11      1.05      0.00
    0    8   11     -0.08      0.00
    1    8   11     -1.91      0.00
    2    8   11     -2.87      0.00
    3    8   11     -1.84      0.00
    4    8   11     -1.35      0.00
    5    8   11     -1.83      0.00
    6    8   11      0.26      0.00
    7    8   11      0.29      0.00
    8    8   11     -1.22      0.00
    9    8   11     -0.87      0.00
   10    8   11     -0.06      0.00
   11    8   11     -0.52      0.00
   -7    9   11     -0.08      0.00
   -6    9   11      1.09      0.00
   -5    9   11     -1.20      0.00
   -4    9   11     -3.02      0.00
   -3    9   11     -1.15      0.00
   -2    9   11     -0.47      0.00
   -1    9   11     -1.16      0.00
    0    9   11     -0.39      0.00
    1    9   11      1.95      0.00
    2    9   11      2.55      0.00
    3    9   11      1.11      0.00
    4    9   11      0.75      0.00
    5    9   11      2.14      0.00
    6    9   11      1.22      0.00
    7    9   11     -0.24      0.00
    8    9   11      0.36      0.00
    9    9   11      0.31      0.00
   10    9   11      0.59      0.00
   11    9   11      0.23      0.00
   -6   10   11     -0.86      0.00
   -5   10   11     -0.47      0.00
   -4   10   11      1.85      0.00
   -3   10   11      0.38      0.00
   -2   10   11     -1.64      0.00
   -1   10   11     -0.48      0.00
    0   10   11      0.46      0.00
    1   10   11     -0.86      0.00
    2   10   11     -1.51      0.00
    3   10   11     -0.07      0.00
    4   10   11      0.32      0.00
    5   10   11     -0.41      0.00
    6   10   11     -0.63      0.00
    7   10   11     -0.30      0.00
    8   10   11      0.05      0.00
    9   10   11      0.46      0.00
   10   10   11     -0.82      0.00
   11   10   11     -0.56      0.00
   -5   11   11      2.16      0.00
   -4   11   11      0.38      0.00
   -3   11   11     -0.27      0.00
   -2   11   11      1.21      0.00
   -1   11   11      1.02      0.00
    0   11   11     -0.60      0.00
    1   11   11     -0.86      0.00
    2   11   11      0.28      0.00
    3   11   11     -0.04      0.00
    4   11   11     -0.64      0.00
    5   11   11     -0.62      0.00
    6   11   11     -1.06      0.00
    7   11   11     -0.21      0.00
    8   11   11      0.33      0.00
    9   11   11     -0.63      0.00
   10   11   11      0.37      0.00
   11   11   11      1.01      0.00
   -4   12   11     -0.99      0.00
   -3   12   11      0.22      0.00
   -2   12   11      0.56      0.00
   -1   12   11      0.29      0.00
    0   12   11      0.62      0.00
    1   12   11      1.16      0.00
    2   12   11      0.01      0.00
    3   12   11     -0.79      0.00
    4   12   11     -0.15      0.00
    5   12   11     -0.49      0.00
    6   12   11      0.00      0.00
    7   12   11      0.63      0.00
    8   12   11      0.01      0.00
    9   12   11      0.42      0.00
   10   12   11      0.55      0.00
   11   12   11     -0.55      0.00
   -3   13   11      0.38      0.00
   -2   13   11      0.23      0.00
   -1   13   11     -0.52      0.00
    0   13   11     -0.16      0.00
    1   13   11     -0.25      0.00
    2   13   11      0.54      0.00
    3   13   11      1.31      0.00
    4   13   11      0.74      0.00
    5   13   11      1.24      0.00
    6   13   11      1.70      0.00
    7   13   11      0.13      0.00
    8   13   11     -0.84      0.00
    9   13   11     -0.55      0.00
   10   13   11     -0.68      0.00
    0   14   11     -0.13      0.00
    1   14   11      0.77      0.00
    2   14   11      0.46      0.00
    3   14   11     -0.59      0.00
    4   14   11     -0.39      0.00
    5   14   11     -0.42      0.00
    7   14   11      0.35      0.00
    8   14   11      0.84      0.00
    9   14   11      0.76      0.00
    0   15   11     -0.03      0.00
    1   15   11     -2.22      0.00
    2   15   11     -2.90      0.00
    3   15   11     -0.75      0.00
    4   15   11      0.21      0.00
    5   15   11      0.09      0.00
    8   15   11     -0.48      0.00
    4   16   11     -0.53      0.00
    5   16   11     -0.66      0.00
    6   16   11      1.04      0.00
   -5  -11   12     -0.55      0.00
   -4  -11   12     -1.01      0.00
   -2  -11   12     -2.37      0.00
   -5  -10   12     -0.92      0.00
   -4  -10   12      0.09      0.00
   -3  -10   12      0.57      0.00
   -2  -10   12      0.82      0.00
   -1  -10   12      0.23      0.00
    0  -10   12     -0.97      0.00
   -9   -9   12     -1.49      0.00
   -8   -9   12     -1.17      0.00
   -7   -9   12     -0.48      0.00
   -6   -9   12     -0.07      0.00
   -5   -9   12      1.58      0.00
   -4   -9   12      1.62      0.00
   -3   -9   12      0.02      0.00
   -2   -9   12      0.21      0.00
   -1   -9   12     -0.33      0.00
    0   -9   12     -0.84      0.00
    1   -9   12     -0.35      0.00
    2   -9   12      0.00      0.00
   -9   -8   12      2.14      0.00
   -8   -8   12      1.26      0.00
   -7   -8   12      0.97      0.00
   -6   -8   12      0.82      0.00
   -5   -8   12     -0.95      0.00
   -4   -8   12     -2.00      0.00
   -3   -8   12     -0.73      0.00
   -2   -8   12     -0.07      0.00
   -1   -8   12      0.78      0.00
    0   -8   12      2.13      0.00
    1   -8   12      1.69      0.00
    2   -8   12      0.80      0.00
    3   -8   12      1.33      0.00
  -10   -7   12      0.69      0.00
   -9   -7   12     -0.68      0.00
   -8   -7   12     -0.38      0.00
   -7   -7   12     -0.25      0.00
   -6   -7   12     -1.28      0.00
   -5   -7   12      0.36      0.00
   -4   -7   12      1.60      0.00
   -3   -7   12      1.08      0.00
   -2   -7   12      0.24      0.00
   -1   -7   12     -0.77      0.00
    0   -7   12     -1.49      0.00
    1   -7   12     -1.15      0.00
    2   -7   12     -0.54      0.00
    3   -7   12     -1.04      0.00
    4   -7   12     -0.63      0.00
    5   -7   12     -0.35      0.00
  -10   -6   12     -1.02      0.00
   -9   -6   12     -1.57      0.00
   -8   -6   12     -0.61      0.00
   -7   -6   12     -0.36      0.00
   -6   -6   12      0.77      0.00
   -5   -6   12     -0.11      0.00
   -4   -6   12     -1.54      0.00
   -3   -6   12     -0.90      0.00
   -2   -6   12      0.08      0.00
   -1   -6   12      0.55      0.00
    0   -6   12      0.55      0.00
    1   -6   12      0.36      0.00
    2   -6   12     -0.21      0.00
    3   -6   12     -0.28      0.00
    4   -6   12     -0.24      0.00
    5   -6   12      0.33      0.00
    6   -6   12      1.34      0.00
  -10   -5   12      1.23      0.00
   -9   -5   12      1.75      0.00
   -8   -5   12      1.26      0.00
   -7   -5   12      0.52      0.00
   -6   -5   12     -0.08      0.00
   -5   -5   12     -0.06      0.00
   -4   -5   12      0.94      0.00
   -3   -5   12      0.73      0.00
   -2   -5   12     -1.20      0.00
   -1   -5   12     -1.03      0.00
    0   -5   12      0.20      0.00
    1   -5   12     -0.29      0.00
    2   -5   12     -0.43      0.00
    3   -5   12      0.78      0.00
    4   -5   12      0.64      0.00
    5   -5   12      0.28      0.00
    6   -5   12     -0.98      0.00
  -10   -4   12     -2.09      0.00
   -9   -4   12     -1.04      0.00
   -8   -4   12     -1.15      0.00
   -7   -4   12     -1.24      0.00
   -6   -4   12     -0.28      0.00
   -5   -4   12      0.22      0.00
   -4   -4   12      0.42      0.00
   -3   -4   12     -0.13      0.00
   -2   -4   12      1.52      0.00
   -1   -4   12      1.89      0.00
    0   -4   12     -0.46      0.00
    1   -4   12     -0.64      0.00
    2   -4   12      0.83      0.00
    3   -4   12     -0.39      0.00
    4   -4   12     -0.63      0.00
    5   -4   12     -0.38      0.00
    6   -4   12     -0.01      0.00
    7   -4   12      0.18      0.00
  -10   -3   12      1.98      0.00
   -9   -3   12      0.99      0.00
   -8   -3   12      0.53      0.00
   -7   -3   12      1.19      0.00
   -6   -3   12      0.14      0.00
   -5   -3   12     -0.65      0.00
   -4   -3   12     -1.36      0.00
   -3   -3   12     -1.34      0.00
   -2   -3   12     -1.39      0.00
   -1   -3   12     -1.92      0.00
    0   -3   12     -0.36      0.00
    1   -3   12      1.62      0.00
    2   -3   12      1.20      0.00
    3   -3   12      0.77      0.00
    4   -3   12      0.85      0.00
    5   -3   12      0.07      0.00
    6   -3   12      0.05      0.00
    7   -3   12     -0.96      0.00
    8   -3   12     -0.28      0.00
  -10   -2   12     -0.26      0.00
   -9   -2   12      0.21      0.00
   -8   -2   12      0.00      0.00
   -7   -2   12     -0.01      0.00
   -6   -2   12      0.56      0.00
   -5   -2   12      1.00      0.00
   -4   -2   12      1.35      0.00
   -3   -2   12      2.60      0.00
   -2   -2   12      2.12      0.00
   -1   -2   12      1.05      0.00
    0   -2   12      0.49      0.00
    1   -2   12     -1.40      0.00
    2   -2   12     -3.21      0.00
    3   -2   12     -1.69      0.00
    4   -2   12     -0.27      0.00
    5   -2   12      0.22      0.00
    6   -2   12      0.39      0.00
    7   -2   12      1.22      0.00
    8   -2   12      0.97      0.00
    9   -2   12     -0.40      0.00
  -10   -1   12     -0.75      0.00
   -9   -1   12     -1.68      0.00
   -8   -1   12     -0.31      0.00
   -7   -1   12      0.03      0.00
   -6   -1   12     -0.54      0.00
   -5   -1   12     -0.49      0.00
   -4   -1   12     -0.48      0.00
   -3   -1   12     -2.19      0.00
   -2   -1   12     -2.65      0.00
   -1   -1   12      0.00      0.00
    0   -1   12      1.23      0.00
    1   -1   12      1.49      0.00
    2   -1   12      2.69      0.00
    3   -1   12      1.31      0.00
    4   -1   12     -1.25      0.00
    5   -1   12     -0.84      0.00
    6   -1   12     -0.13      0.00
    7   -1   12     -1.02      0.00
    8   -1   12     -1.18      0.00
    9   -1   12      0.21      0.00
  -10    0   12      0.41      0.00
   -9    0   12      0.67      0.00
   -8    0   12     -0.06      0.00
   -7    0   12     -0.76      0.00
   -6    0   12     -0.26      0.00
   -5    0   12     -0.39      0.00
   -4    0   12     -0.74      0.00
   -3    0   12     -0.25      0.00
   -2    0   12      1.20      0.00
   -1    0   12     -0.59      0.00
    0    0   12     -2.51      0.00
    1    0   12     -1.87      0.00
    2    0   12     -0.95      0.00
    3    0   12      0.08      0.00
    4    0   12      1.70      0.00
    5    0   12      1.44      0.00
    6    0   12      0.11      0.00
    7    0   12      0.83      0.00
    8    0   12      1.74      0.00
    9    0   12      0.38      0.00
  -10    1   12     -0.45      0.00
   -9    1   12      0.80      0.00
   -8    1   12      0.60      0.00
   -7    1   12     -0.06      0.00
   -6    1   12     -0.22      0.00
   -5    1   12      0.31      0.00
   -4    1   12      1.28      0.00
   -3    1   12      2.87      0.00
   -2    1   12      1.84      0.00
   -1    1   12      0.46      0.00
    0    1   12      1.51      0.00
    1    1   12      1.20      0.00
    2    1   12     -0.21      0.00
    3    1   12     -0.94      0.00
    4    1   12     -0.54      0.00
    5    1   12     -0.73      0.00
    6    1   12     -0.67      0.00
    7    1   12     -0.69      0.00
    8    1   12     -1.24      0.00
    9    1   12     -0.76      0.00
   10    1   12      0.56      0.00
  -10    2   12      0.87      0.00
   -9    2   12     -0.60      0.00
   -8    2   12     -0.11      0.00
   -7    2   12      1.62      0.00
   -6    2   12      1.41      0.00
   -5    2   12      0.79      0.00
   -4    2   12     -0.70      0.00
   -3    2   12     -2.97      0.00
   -2    2   12     -3.70      0.00
   -1    2   12     -0.34      0.00
    0    2   12      0.69      0.00
    1    2   12     -0.09      0.00
    2    2   12      0.26      0.00
    3    2   12      1.02      0.00
    4    2   12     -0.03      0.00
    5    2   12     -0.74      0.00
    6    2   12      0.10      0.00
    7    2   12      0.23      0.00
    8    2   12     -0.60      0.00
    9    2   12     -0.23      0.00
   10    2   12     -0.21      0.00
  -10    3   12     -0.57      0.00
   -9    3   12      0.72      0.00
   -8    3   12      0.04      0.00
   -7    3   12     -1.96      0.00
   -6    3   12     -0.95      0.00
   -5    3   12     -1.48      0.00
   -4    3   12     -0.63      0.00
   -3    3   12      1.01      0.00
   -2    3   12      2.57      0.00
   -1    3   12      1.01      0.00
    0    3   12     -1.94      0.00
    1    3   12     -1.30      0.00
    2    3   12     -0.04      0.00
    3    3   12     -0.74      0.00
    4    3   12     -0.92      0.00
    5    3   12      0.69      0.00
    6    3   12      1.14      0.00
    7    3   12      0.74      0.00
    8    3   12      1.40      0.00
    9    3   12      1.62      0.00
   10    3   12     -0.33      0.00
   -9    4   12     -1.15      0.00
   -8    4   12     -1.34      0.00
   -7    4   12      1.22      0.00
   -6    4   12      0.07      0.00
   -5    4   12      0.90      0.00
   -4    4   12      1.82      0.00
   -3    4   12      0.33      0.00
   -2    4   12     -0.63      0.00
   -1    4   12     -1.70      0.00
    0    4   12      1.33      0.00
    1    4   12      3.24      0.00
    2    4   12      1.29      0.00
    3    4   12      0.53      0.00
    4    4   12      1.60      0.00
    5    4   12      0.57      0.00
    6    4   12     -0.81      0.00
    7    4   12     -1.02      0.00
    8    4   12     -0.51      0.00
    9    4   12     -0.84      0.00
   10    4   12      0.63      0.00
   -9    5   12     -0.14      0.00
   -8    5   12      1.14      0.00
   -7    5   12     -0.76      0.00
   -6    5   12     -0.78      0.00
   -5    5   12      0.06      0.00
   -4    5   12     -1.42      0.00
   -3    5   12     -0.39      0.00
   -2    5   12      0.36      0.00
   -1    5   12      1.79      0.00
    0    5   12      0.11      0.00
    1    5   12     -3.78      0.00
    2    5   12     -2.92      0.00
    3    5   12     -0.73      0.00
    4    5   12     -0.98      0.00
    5    5   12     -0.74      0.00
    6    5   12     -0.08      0.00
    7    5   12      0.06      0.00
    8    5   12     -0.48      0.00
    9    5   12     -1.45      0.00
   10    5   12     -1.59      0.00
   11    5   12     -2.27      0.00
   -8    6   12      0.97      0.00
   -7    6   12      0.73      0.00
   -6    6   12      1.26      0.00
   -5    6   12     -0.49      0.00
   -4    6   12     -0.39      0.00
   -3    6   12      0.12      0.00
   -2    6   12     -0.60      0.00
   -1    6   12     -1.56      0.00
    0    6   12     -0.92      0.00
    1    6   12      1.95      0.00
    2    6   12      1.98      0.00
    3    6   12      0.51      0.00
    4    6   12      0.06      0.00
    5    6   12     -0.13      0.00
    6    6   12      0.06      0.00
    7    6   12      0.45      0.00
    8    6   12      0.41      0.00
    9    6   12      1.91      0.00
   10    6   12      2.37      0.00
   11    6   12      1.30      0.00
   -8    7   12     -1.55      0.00
   -7    7   12      0.10      0.00
   -6    7   12      0.37      0.00
   -5    7   12      0.55      0.00
   -4    7   12      1.03      0.00
   -3    7   12     -0.06      0.00
   -2    7   12     -0.24      0.00
   -1    7   12      0.62      0.00
    0    7   12      0.59      0.00
    1    7   12      0.06      0.00
    2    7   12      0.70      0.00
    3    7   12      0.60      0.00
    4    7   12      0.31      0.00
    5    7   12      0.77      0.00
    6    7   12     -0.11      0.00
    7    7   12     -0.16      0.00
    8    7   12      0.65      0.00
    9    7   12     -0.16      0.00
   10    7   12     -1.36      0.00
   11    7   12      0.06      0.00
   -7    8   12     -1.05      0.00
   -6    8   12     -2.16      0.00
   -5    8   12     -0.42      0.00
   -4    8   12      0.57      0.00
   -3    8   12      0.41      0.00
   -2    8   12      0.86      0.00
   -1    8   12      0.90      0.00
    0    8   12      0.68      0.00
    1    8   12     -0.51      0.00
    2    8   12     -2.02      0.00
    3    8   12     -1.24      0.00
    4    8   12     -0.17      0.00
    5    8   12     -1.24      0.00
    6    8   12     -0.19      0.00
    7    8   12      0.23      0.00
    8    8   12     -1.26      0.00
    9    8   12     -1.14      0.00
   10    8   12     -0.27      0.00
   11    8   12     -0.41      0.00
   -7    9   12      0.29      0.00
   -6    9   12      1.74      0.00
   -5    9   12      0.11      0.00
   -4    9   12     -2.01      0.00
   -3    9   12     -0.68      0.00
   -2    9   12      0.32      0.00
   -1    9   12     -0.86      0.00
    0    9   12     -1.48      0.00
    1    9   12      0.00      0.00
    2    9   12      1.65      0.00
    3    9   12      0.75      0.00
    4    9   12     -0.32      0.00
    5    9   12      1.05      0.00
    6    9   12      1.23      0.00
    7    9   12      0.09      0.00
    8    9   12      0.50      0.00
    9    9   12      0.64      0.00
   10    9   12      1.08      0.00
   11    9   12      0.53      0.00
   -6   10   12     -0.22      0.00
   -5   10   12     -0.11      0.00
   -4   10   12      1.20      0.00
   -3   10   12      0.18      0.00
   -2   10   12     -1.87      0.00
   -1   10   12     -1.12      0.00
    0   10   12      0.60      0.00
    1   10   12      0.58      0.00
    2   10   12     -0.64      0.00
    3   10   12     -0.22      0.00
    4   10   12      0.55      0.00
    5   10   12      0.11      0.00
    6   10   12     -0.53      0.00
    7   10   12     -0.74      0.00
    8   10   12      0.02      0.00
    9   10   12      0.61      0.00
   10   10   12     -1.20      0.00
   11   10   12     -1.37      0.00
   -5   11   12      0.51      0.00
   -4   11   12      0.57      0.00
   -3   11   12      0.73      0.00
   -2   11   12      1.28      0.00
   -1   11   12      1.52      0.00
    0   11   12      0.43      0.00
    1   11   12     -0.92      0.00
    2   11   12     -0.49      0.00
    3   11   12      0.22      0.00
    4   11   12     -0.02      0.00
    5   11   12     -0.33      0.00
    6   11   12     -1.09      0.00
    7   11   12      0.06      0.00
    8   11   12      0.50      0.00
    9   11   12     -1.01      0.00
   10   11   12      0.40      0.00
   11   11   12      1.74      0.00
   -4   12   12     -0.99      0.00
   -3   12   12     -1.41      0.00
   -2   12   12      0.10      0.00
   -1   12   12      0.75      0.00
    0   12   12      0.12      0.00
    1   12   12      0.68      0.00
    2   12   12      0.54      0.00
    3   12   12     -0.61      0.00
    4   12   12     -0.64      0.00
    5   12   12     -0.95      0.00
    6   12   12     -0.16      0.00
    7   12   12      0.43      0.00
    8   12   12     -0.53      0.00
    9   12   12      0.35      0.00
   10   12   12      0.65      0.00
   11   12   12     -0.63      0.00
   -3   13   12      1.42      0.00
   -2   13   12      0.92      0.00
   -1   13   12     -1.46      0.00
    0   13   12     -0.83      0.00
    1   13   12     -0.05      0.00
    2   13   12      0.60      0.00
    3   13   12      1.13      0.00
    4   13   12      0.47      0.00
    5   13   12      1.24      0.00
    6   13   12      2.39      0.00
    7   13   12      0.83      0.00
    8   13   12     -0.15      0.00
    9   13   12      0.01      0.00
   10   13   12     -0.48      0.00
    0   14   12      0.18      0.00
    1   14   12      0.33      0.00
    2   14   12     -0.21      0.00
    3   14   12     -0.87      0.00
    4   14   12      0.20      0.00
    5   14   12     -0.05      0.00
    7   14   12     -1.09      0.00
    8   14   12      0.46      0.00
    9   14   12      0.37      0.00
    0   15   12      0.55      0.00
    1   15   12     -1.39      0.00
    2   15   12     -2.33      0.00
    3   15   12     -0.61      0.00
    4   15   12     -0.25      0.00
    5   15   12     -0.26      0.00
    8   15   12     -0.52      0.00
    4   16   12     -0.28      0.00
    5   16   12     -0.49      0.00
    6   16   12      0.29      0.00
   -4  -10   13     -0.54      0.00
   -1  -10   13      0.66      0.00
   -8   -9   13     -1.34      0.00
   -6   -9   13     -1.05      0.00
   -5   -9   13      0.46      0.00
   -4   -9   13      1.55      0.00
   -3   -9   13     -0.12      0.00
   -2   -9   13     -0.09      0.00
   -1   -9   13     -0.48      0.00
    0   -9   13     -1.48      0.00
    1   -9   13     -0.53      0.00
   -9   -8   13      1.78      0.00
   -8   -8   13      1.48      0.00
   -7   -8   13      1.30      0.00
   -6   -8   13      1.34      0.00
   -5   -8   13      0.18      0.00
   -4   -8   13     -1.59      0.00
   -3   -8   13     -0.97      0.00
   -2   -8   13     -0.11      0.00
   -1   -8   13      0.53      0.00
    0   -8   13      2.44      0.00
    1   -8   13      2.36      0.00
    2   -8   13      0.02      0.00
    3   -8   13     -0.04      0.00
   -9   -7   13     -0.97      0.00
   -8   -7   13     -0.59      0.00
   -7   -7   13     -0.22      0.00
   -6   -7   13     -1.19      0.00
   -5   -7   13     -0.56      0.00
   -4   -7   13      1.08      0.00
   -3   -7   13      1.72      0.00
   -2   -7   13      0.65      0.00
   -1   -7   13     -0.63      0.00
    0   -7   13     -1.19      0.00
    1   -7   13     -1.43      0.00
    2   -7   13     -0.63      0.00
    3   -7   13     -0.17      0.00
    4   -7   13     -0.08      0.00
  -10   -6   13     -0.58      0.00
   -9   -6   13     -0.96      0.00
   -8   -6   13     -0.44      0.00
   -7   -6   13     -0.37      0.00
   -6   -6   13      0.45      0.00
   -5   -6   13      0.65      0.00
   -4   -6   13     -0.69      0.00
   -3   -6   13     -1.88      0.00
   -2   -6   13     -1.21      0.00
   -1   -6   13      0.40      0.00
    0   -6   13      0.24      0.00
    1   -6   13     -0.36      0.00
    2   -6   13      0.14      0.00
    3   -6   13      0.19      0.00
    4   -6   13     -0.39      0.00
    5   -6   13     -0.26      0.00
  -10   -5   13      1.39      0.00
   -9   -5   13      1.58      0.00
   -8   -5   13      1.03      0.00
   -7   -5   13      0.06      0.00
   -6   -5   13      0.00      0.00
   -5   -5   13     -0.09      0.00
   -4   -5   13      0.22      0.00
   -3   -5   13      1.58      0.00
   -2   -5   13      0.96      0.00
   -1   -5   13     -0.19      0.00
    0   -5   13      0.03      0.00
    1   -5   13      0.55      0.00
    2   -5   13     -0.13      0.00
    3   -5   13     -0.15      0.00
    4   -5   13      0.16      0.00
    5   -5   13      0.46      0.00
    6   -5   13     -0.88      0.00
  -10   -4   13     -2.28      0.00
   -9   -4   13     -1.35      0.00
   -8   -4   13     -1.05      0.00
   -7   -4   13     -0.85      0.00
   -6   -4   13     -0.30      0.00
   -5   -4   13     -0.53      0.00
   -4   -4   13      0.25      0.00
   -3   -4   13     -0.42      0.00
   -2   -4   13     -0.05      0.00
   -1   -4   13      0.61      0.00
    0   -4   13     -0.25      0.00
    1   -4   13     -0.56      0.00
    2   -4   13      0.46      0.00
    3   -4   13      0.28      0.00
    4   -4   13      0.13      0.00
    5   -4   13     -0.22      0.00
    6   -4   13     -0.07      0.00
    7   -4   13      0.62      0.00
  -10   -3   13      1.55      0.00
   -9   -3   13      1.41      0.00
   -8   -3   13      0.86      0.00
   -7   -3   13      1.63      0.00
   -6   -3   13      0.65      0.00
   -5   -3   13      0.09      0.00
   -4   -3   13     -0.55      0.00
   -3   -3   13     -1.04      0.00
   -2   -3   13     -1.10      0.00
   -1   -3   13     -1.42      0.00
    0   -3   13     -0.51      0.00
    1   -3   13      0.45      0.00
    2   -3   13      0.17      0.00
    3   -3   13     -0.03      0.00
    4   -3   13      0.26      0.00
    5   -3   13      0.11      0.00
    6   -3   13      0.54      0.00
    7   -3   13     -0.82      0.00
    8   -3   13     -0.73      0.00
  -10   -2   13      1.30      0.00
   -9   -2   13     -0.04      0.00
   -8   -2   13     -0.47      0.00
   -7   -2   13     -0.67      0.00
   -6   -2   13     -0.15      0.00
   -5   -2   13      0.75      0.00
   -4   -2   13      0.63      0.00
   -3   -2   13      1.54      0.00
   -2   -2   13      1.99      0.00
   -1   -2   13      1.75      0.00
    0   -2   13      1.38      0.00
    1   -2   13      0.30      0.00
    2   -2   13     -1.04      0.00
    3   -2   13     -0.70      0.00
    4   -2   13     -0.28      0.00
    5   -2   13     -0.17      0.00
    6   -2   13     -0.20      0.00
    7   -2   13      0.85      0.00
    8   -2   13      1.44      0.00
  -10   -1   13     -3.38      0.00
   -9   -1   13     -1.94      0.00
   -8   -1   13      0.02      0.00
   -7   -1   13     -0.13      0.00
   -6   -1   13     -0.48      0.00
   -5   -1   13     -0.67      0.00
   -4   -1   13     -0.31      0.00
   -3   -1   13     -0.98      0.00
   -2   -1   13     -2.17      0.00
   -1   -1   13     -1.27      0.00
    0   -1   13     -0.55      0.00
    1   -1   13      0.13      0.00
    2   -1   13      1.48      0.00
    3   -1   13      1.10      0.00
    4   -1   13     -0.42      0.00
    5   -1   13     -0.18      0.00
    6   -1   13      0.36      0.00
    7   -1   13     -0.39      0.00
    8   -1   13     -1.14      0.00
  -10    0   13      2.66      0.00
   -9    0   13      1.53      0.00
   -8    0   13     -0.65      0.00
   -7    0   13     -0.50      0.00
   -6    0   13      0.13      0.00
   -5    0   13      0.02      0.00
   -4    0   13     -0.09      0.00
   -3    0   13     -0.28      0.00
   -2    0   13      0.98      0.00
   -1    0   13      0.33      0.00
    0    0   13     -1.08      0.00
    1    0   13     -1.35      0.00
    2    0   13     -1.52      0.00
    3    0   13     -0.84      0.00
    4    0   13      0.44      0.00
    5    0   13      0.56      0.00
    6    0   13     -0.55      0.00
    7    0   13     -0.18      0.00
    8    0   13      1.08      0.00
    9    0   13      0.84      0.00
  -10    1   13     -1.09      0.00
   -9    1   13     -0.27      0.00
   -8    1   13      1.37      0.00
   -7    1   13      0.61      0.00
   -6    1   13     -0.16      0.00
   -5    1   13     -0.07      0.00
   -4    1   13      0.06      0.00
   -3    1   13      1.77      0.00
   -2    1   13      1.96      0.00
   -1    1   13      0.69      0.00
    0    1   13      1.31      0.00
    1    1   13      1.04      0.00
    2    1   13      0.36      0.00
    3    1   13     -0.14      0.00
    4    1   13      0.34      0.00
    5    1   13      0.14      0.00
    6    1   13     -0.07      0.00
    7    1   13     -0.10      0.00
    8    1   13     -0.87      0.00
    9    1   13     -1.53      0.00
  -10    2   13      0.72      0.00
   -9    2   13      0.59      0.00
   -8    2   13      0.06      0.00
   -7    2   13      1.06      0.00
   -6    2   13      1.29      0.00
   -5    2   13      1.04      0.00
   -4    2   13      0.37      0.00
   -3    2   13     -1.95      0.00
   -2    2   13     -4.08      0.00
   -1    2   13     -1.36      0.00
    0    2   13      0.45      0.00
    1    2   13      0.63      0.00
    2    2   13      1.25      0.00
    3    2   13      1.53      0.00
    4    2   13     -0.18      0.00
    5    2   13     -1.41      0.00
    6    2   13     -0.31      0.00
    7    2   13      0.29      0.00
    8    2   13     -0.25      0.00
    9    2   13      0.30      0.00
   10    2   13      0.76      0.00
   -9    3   13     -0.49      0.00
   -8    3   13     -1.36      0.00
   -7    3   13     -2.63      0.00
   -6    3   13     -1.82      0.00
   -5    3   13     -1.83      0.00
   -4    3   13     -1.16      0.00
   -3    3   13      0.35      0.00
   -2    3   13      2.41      0.00
   -1    3   13      1.19      0.00
    0    3   13     -2.25      0.00
    1    3   13     -2.39      0.00
    2    3   13     -1.73      0.00
    3    3   13     -1.97      0.00
    4    3   13     -1.05      0.00
    5    3   13      1.29      0.00
    6    3   13      1.68      0.00
    7    3   13      1.09      0.00
    8    3   13      1.31      0.00
    9    3   13      1.56      0.00
   10    3   13     -0.60      0.00
   -9    4   13     -0.92      0.00
   -8    4   13     -0.33      0.00
   -7    4   13      1.74      0.00
   -6    4   13      1.18      0.00
   -5    4   13      1.55      0.00
   -4    4   13      1.85      0.00
   -3    4   13      0.95      0.00
   -2    4   13      0.49      0.00
   -1    4   13     -0.73      0.00
    0    4   13      1.51      0.00
    1    4   13      3.22      0.00
    2    4   13      1.88      0.00
    3    4   13      1.38      0.00
    4    4   13      1.57      0.00
    5    4   13      0.02      0.00
    6    4   13     -1.19      0.00
    7    4   13     -1.85      0.00
    8    4   13     -1.45      0.00
    9    4   13     -1.16      0.00
   10    4   13      0.53      0.00
   -9    5   13      1.07      0.00
   -8    5   13      1.86      0.00
   -7    5   13      0.20      0.00
   -6    5   13     -0.68      0.00
   -5    5   13     -0.83      0.00
   -4    5   13     -1.34      0.00
   -3    5   13     -0.60      0.00
   -2    5   13     -0.68      0.00
   -1    5   13      1.13      0.00
    0    5   13      1.05      0.00
    1    5   13     -2.17      0.00
    2    5   13     -2.20      0.00
    3    5   13     -1.18      0.00
    4    5   13     -1.13      0.00
    5    5   13     -0.25      0.00
    6    5   13     -0.25      0.00
    7    5   13      0.11      0.00
    8    5   13      0.70      0.00
    9    5   13     -0.62      0.00
   10    5   13     -1.49      0.00
   -8    6   13     -0.49      0.00
   -7    6   13     -0.44      0.00
   -6    6   13      0.66      0.00
   -5    6   13      0.56      0.00
   -4    6   13      0.06      0.00
   -3    6   13     -0.23      0.00
   -2    6   13     -0.35      0.00
   -1    6   13     -1.78      0.00
    0    6   13     -2.38      0.00
    1    6   13      0.30      0.00
    2    6   13      1.28      0.00
    3    6   13      0.97      0.00
    4    6   13      0.80      0.00
    5    6   13     -0.55      0.00
    6    6   13     -0.05      0.00
    7    6   13      1.17      0.00
    8    6   13      0.14      0.00
    9    6   13      0.86      0.00
   10    6   13      2.08      0.00
   11    6   13      1.59      0.00
   -8    7   13     -0.99      0.00
   -7    7   13      0.01      0.00
   -6    7   13      0.10      0.00
   -5    7   13     -0.20      0.00
   -4    7   13      0.28      0.00
   -3    7   13      0.31      0.00
   -2    7   13      0.07      0.00
   -1    7   13      1.11      0.00
    0    7   13      1.46      0.00
    1    7   13      0.43      0.00
    2    7   13      0.50      0.00
    3    7   13      0.17      0.00
    4    7   13     -0.64      0.00
    5    7   13      0.74      0.00
    6    7   13      0.69      0.00
    7    7   13     -0.47      0.00
    8    7   13      0.14      0.00
    9    7   13      0.41      0.00
   10    7   13     -0.75      0.00
   11    7   13     -0.33      0.00
   -7    8   13     -0.55      0.00
   -6    8   13     -1.74      0.00
   -5    8   13     -0.86      0.00
   -4    8   13      0.32      0.00
   -3    8   13      0.14      0.00
   -2    8   13      0.32      0.00
   -1    8   13      0.30      0.00
    0    8   13      0.43      0.00
    1    8   13      0.20      0.00
    2    8   13     -1.20      0.00
    3    8   13     -0.85      0.00
    4    8   13      0.64      0.00
    5    8   13     -0.28      0.00
    6    8   13     -0.51      0.00
    7    8   13     -0.11      0.00
    8    8   13     -0.96      0.00
    9    8   13     -1.20      0.00
   10    8   13     -0.95      0.00
   11    8   13     -0.48      0.00
   -6    9   13      2.11      0.00
   -5    9   13      1.45      0.00
   -4    9   13     -0.55      0.00
   -3    9   13     -0.37      0.00
   -2    9   13      0.53      0.00
   -1    9   13     -0.42      0.00
    0    9   13     -1.57      0.00
    1    9   13     -1.32      0.00
    2    9   13      0.48      0.00
    3    9   13      0.29      0.00
    4    9   13     -0.97      0.00
    5    9   13     -0.28      0.00
    6    9   13      0.46      0.00
    7    9   13      0.38      0.00
    8    9   13      0.79      0.00
    9    9   13      0.65      0.00
   10    9   13      1.43      0.00
   -6   10   13     -0.60      0.00
   -5   10   13     -0.44      0.00
   -4   10   13      0.23      0.00
   -3   10   13      0.02      0.00
   -2   10   13     -1.34      0.00
   -1   10   13     -0.90      0.00
    0   10   13      0.69      0.00
    1   10   13      1.57      0.00
    2   10   13      0.62      0.00
    3   10   13      0.09      0.00
    4   10   13      0.55      0.00
    5   10   13      0.44      0.00
    6   10   13      0.15      0.00
    7   10   13     -0.66      0.00
    8   10   13     -0.29      0.00
    9   10   13      0.64      0.00
   10   10   13     -1.07      0.00
   -5   11   13     -0.72      0.00
   -4   11   13     -0.09      0.00
   -3   11   13      0.81      0.00
   -2   11   13      0.85      0.00
   -1   11   13      1.19      0.00
    0   11   13      0.92      0.00
    1   11   13     -0.52      0.00
    2   11   13     -1.07      0.00
    3   11   13      0.21      0.00
    4   11   13      0.98      0.00
    5   11   13      0.74      0.00
    6   11   13     -0.79      0.00
    7   11   13     -0.11      0.00
    8   11   13      0.38      0.00
    9   11   13     -1.24      0.00
   10   11   13      0.15      0.00
   11   11   13      2.08      0.00
   -4   12   13      0.19      0.00
   -3   12   13     -1.53      0.00
   -2   12   13     -0.29      0.00
   -1   12   13      0.63      0.00
    0   12   13     -0.66      0.00
    1   12   13     -0.40      0.00
    2   12   13      0.47      0.00
    3   12   13     -0.52      0.00
    4   12   13     -1.75      0.00
    5   12   13     -2.28      0.00
    6   12   13     -0.85      0.00
    7   12   13      0.28      0.00
    8   12   13     -0.46      0.00
    9   12   13      0.54      0.00
   10   12   13      0.68      0.00
   -3   13   13      1.44      0.00
   -2   13   13      1.33      0.00
   -1   13   13     -1.38      0.00
    0   13   13     -0.60      0.00
    1   13   13      0.35      0.00
    2   13   13      0.50      0.00
    3   13   13      0.79      0.00
    4   13   13      0.75      0.00
    5   13   13      1.73      0.00
    7   13   13      1.44      0.00
    8   13   13      0.44      0.00
    9   13   13      0.25      0.00
   10   13   13     -0.26      0.00
   -2   14   13     -2.37      0.00
    0   14   13      0.18      0.00
    1   14   13     -0.09      0.00
    2   14   13     -0.34      0.00
    3   14   13     -0.72      0.00
    4   14   13      0.53      0.00
    5   14   13      0.28      0.00
    8   14   13     -0.43      0.00
    9   14   13     -0.14      0.00
    2   15   13     -1.28      0.00
    3   15   13     -0.41      0.00
    4   15   13     -0.73      0.00
    5   15   13     -0.89      0.00
    8   15   13      0.07      0.00
    4   16   13      0.18      0.00
    5   16   13      0.01      0.00
    6   16   13      0.06      0.00
   -7   -9   14     -0.69      0.00
   -4   -9   14      1.14      0.00
   -3   -9   14     -0.28      0.00
   -2   -9   14     -0.44      0.00
   -1   -9   14     -0.51      0.00
    0   -9   14     -1.60      0.00
   -8   -8   14      1.06      0.00
   -7   -8   14      1.12      0.00
   -6   -8   14      1.52      0.00
   -5   -8   14      1.15      0.00
   -4   -8   14     -0.73      0.00
   -3   -8   14     -0.81      0.00
   -2   -8   14     -0.07      0.00
   -1   -8   14      0.31      0.00
    0   -8   14      2.20      0.00
    1   -8   14      2.71      0.00
    2   -8   14     -0.08      0.00
   -9   -7   14     -0.90      0.00
   -8   -7   14     -0.73      0.00
   -7   -7   14     -0.21      0.00
   -6   -7   14     -0.74      0.00
   -5   -7   14     -0.94      0.00
   -4   -7   14      0.42      0.00
   -3   -7   14      1.82      0.00
   -2   -7   14      1.08      0.00
   -1   -7   14     -0.30      0.00
    0   -7   14     -0.59      0.00
    1   -7   14     -1.14      0.00
    2   -7   14     -0.61      0.00
    3   -7   14      0.39      0.00
   -9   -6   14     -0.83      0.00
   -8   -6   14     -0.26      0.00
   -7   -6   14     -0.19      0.00
   -6   -6   14     -0.31      0.00
   -5   -6   14      0.46      0.00
   -4   -6   14      0.10      0.00
   -3   -6   14     -1.87      0.00
   -2   -6   14     -2.00      0.00
   -1   -6   14      0.06      0.00
    0   -6   14     -0.27      0.00
    1   -6   14     -1.54      0.00
    2   -6   14     -0.11      0.00
    3   -6   14      0.58      0.00
    4   -6   14     -0.09      0.00
    5   -6   14     -0.44      0.00
   -9   -5   14      1.75      0.00
   -8   -5   14      1.17      0.00
   -7   -5   14     -0.47      0.00
   -6   -5   14      0.07      0.00
   -5   -5   14      0.33      0.00
   -4   -5   14     -0.61      0.00
   -3   -5   14      1.07      0.00
   -2   -5   14      2.10      0.00
   -1   -5   14      0.81      0.00
    0   -5   14      0.16      0.00
    1   -5   14      1.61      0.00
    2   -5   14      0.66      0.00
    3   -5   14     -0.97      0.00
    4   -5   14     -0.92      0.00
    5   -5   14     -0.05      0.00
    6   -5   14     -0.65      0.00
  -10   -4   14     -0.58      0.00
   -9   -4   14     -1.14      0.00
   -8   -4   14     -1.27      0.00
   -7   -4   14     -0.24      0.00
   -6   -4   14      0.21      0.00
   -5   -4   14     -1.05      0.00
   -4   -4   14      0.22      0.00
   -3   -4   14      0.12      0.00
   -2   -4   14     -0.86      0.00
   -1   -4   14     -1.01      0.00
    0   -4   14     -0.56      0.00
    1   -4   14     -0.65      0.00
    2   -4   14     -0.28      0.00
    3   -4   14      0.79      0.00
    4   -4   14      1.55      0.00
    5   -4   14      1.08      0.00
    6   -4   14      0.50      0.00
  -10   -3   14     -0.62      0.00
   -9   -3   14      0.44      0.00
   -8   -3   14      0.98      0.00
   -7   -3   14      1.69      0.00
   -6   -3   14      0.78      0.00
   -5   -3   14      0.75      0.00
   -4   -3   14      0.12      0.00
   -3   -3   14     -1.05      0.00
   -2   -3   14     -1.17      0.00
   -1   -3   14     -0.49      0.00
    0   -3   14      0.33      0.00
    1   -3   14      0.02      0.00
    2   -3   14     -0.17      0.00
    3   -3   14     -0.42      0.00
    4   -3   14     -0.86      0.00
    5   -3   14     -0.95      0.00
    6   -3   14      0.23      0.00
    7   -3   14     -0.44      0.00
  -10   -2   14      2.83      0.00
   -9   -2   14      0.84      0.00
   -8   -2   14     -0.56      0.00
   -7   -2   14     -1.24      0.00
   -6   -2   14     -1.00      0.00
   -5   -2   14      0.13      0.00
   -4   -2   14      0.39      0.00
   -3   -2   14      1.13      0.00
   -2   -2   14      2.07      0.00
   -1   -2   14      2.01      0.00
    0   -2   14      0.88      0.00
    1   -2   14      0.57      0.00
    2   -2   14      0.47      0.00
    3   -2   14      0.16      0.00
    4   -2   14      0.06      0.00
    5   -2   14      0.02      0.00
    6   -2   14     -0.53      0.00
    7   -2   14      0.03      0.00
  -10   -1   14     -4.68      0.00
   -9   -1   14     -2.60      0.00
   -8   -1   14      0.13      0.00
   -7   -1   14     -0.01      0.00
   -6   -1   14     -0.13      0.00
   -5   -1   14     -0.40      0.00
   -4   -1   14     -0.62      0.00
   -3   -1   14     -0.71      0.00
   -2   -1   14     -1.54      0.00
   -1   -1   14     -1.79      0.00
    0   -1   14     -1.17      0.00
    1   -1   14     -0.08      0.00
    2   -1   14      0.25      0.00
    3   -1   14      0.04      0.00
    4   -1   14     -0.14      0.00
    5   -1   14      0.11      0.00
    6   -1   14      0.49      0.00
    7   -1   14      0.16      0.00
    8   -1   14     -0.71      0.00
  -10    0   14      3.96      0.00
   -9    0   14      2.57      0.00
   -8    0   14     -0.88      0.00
   -7    0   14     -0.37      0.00
   -6    0   14      0.48      0.00
   -5    0   14      0.11      0.00
   -4    0   14      0.41      0.00
   -3    0   14      0.41      0.00
   -2    0   14      0.80      0.00
   -1    0   14      0.58      0.00
    0    0   14     -0.07      0.00
    1    0   14     -1.10      0.00
    2    0   14     -1.75      0.00
    3    0   14     -0.56      0.00
    4    0   14      0.19      0.00
    5    0   14      0.24      0.00
    6    0   14     -0.40      0.00
    7    0   14     -0.55      0.00
    8    0   14      0.03      0.00
  -10    1   14     -1.40      0.00
   -9    1   14     -1.36      0.00
   -8    1   14      1.73      0.00
   -7    1   14      1.23      0.00
   -6    1   14     -0.12      0.00
   -5    1   14     -0.17      0.00
   -4    1   14     -0.59      0.00
   -3    1   14      0.02      0.00
   -2    1   14      0.79      0.00
   -1    1   14      0.71      0.00
    0    1   14      1.35      0.00
    1    1   14      1.25      0.00
    2    1   14      1.42      0.00
    3    1   14      0.45      0.00
    4    1   14      0.15      0.00
    5    1   14      0.14      0.00
    6    1   14     -0.05      0.00
    7    1   14      0.19      0.00
    8    1   14      0.16      0.00
    9    1   14     -1.03      0.00
   -9    2   14      1.20      0.00
   -8    2   14      0.12      0.00
   -7    2   14      0.15      0.00
   -6    2   14      0.75      0.00
   -5    2   14      0.86      0.00
   -4    2   14      0.89      0.00
   -3    2   14     -0.51      0.00
   -2    2   14     -2.82      0.00
   -1    2   14     -1.81      0.00
    0    2   14     -0.83      0.00
    1    2   14     -0.14      0.00
    2    2   14      0.77      0.00
    3    2   14      1.10      0.00
    4    2   14      0.31      0.00
    5    2   14     -0.81      0.00
    6    2   14     -0.25      0.00
    7    2   14      0.37      0.00
    8    2   14     -0.11      0.00
    9    2   14      0.20      0.00
   -9    3   14     -1.14      0.00
   -8    3   14     -2.55      0.00
   -7    3   14     -2.75      0.00
   -6    3   14     -1.95      0.00
   -5    3   14     -1.75      0.00
   -4    3   14     -1.20      0.00
   -3    3   14      0.18      0.00
   -2    3   14      2.20      0.00
   -1    3   14      1.49      0.00
    0    3   14     -1.20      0.00
    1    3   14     -1.72      0.00
    2    3   14     -2.10      0.00
    3    3   14     -2.36      0.00
    4    3   14     -1.36      0.00
    5    3   14      0.59      0.00
    6    3   14      1.31      0.00
    7    3   14      0.99      0.00
    8    3   14      0.59      0.00
    9    3   14      1.16      0.00
   10    3   14     -0.62      0.00
   -9    4   14     -0.07      0.00
   -8    4   14      1.42      0.00
   -7    4   14      2.49      0.00
   -6    4   14      1.79      0.00
   -5    4   14      2.02      0.00
   -4    4   14      1.63      0.00
   -3    4   14      0.57      0.00
   -2    4   14      0.41      0.00
   -1    4   14     -0.05      0.00
    0    4   14      1.63      0.00
    1    4   14      2.63      0.00
    2    4   14      1.98      0.00
    3    4   14      2.14      0.00
    4    4   14      1.71      0.00
    5    4   14      0.09      0.00
    6    4   14     -0.79      0.00
    7    4   14     -1.96      0.00
    8    4   14     -1.55      0.00
    9    4   14     -1.00      0.00
   10    4   14      0.07      0.00
   -8    5   14      1.21      0.00
   -7    5   14      0.43      0.00
   -6    5   14     -0.06      0.00
   -5    5   14     -1.27      0.00
   -4    5   14     -1.26      0.00
   -3    5   14     -0.29      0.00
   -2    5   14     -0.98      0.00
   -1    5   14      0.04      0.00
    0    5   14      0.72      0.00
    1    5   14     -0.94      0.00
    2    5   14     -1.13      0.00
    3    5   14     -1.63      0.00
    4    5   14     -1.78      0.00
    5    5   14     -0.10      0.00
    6    5   14     -0.54      0.00
    7    5   14     -0.24      0.00
    8    5   14      1.26      0.00
    9    5   14      0.14      0.00
   10    5   14     -0.87      0.00
   -8    6   14     -1.30      0.00
   -7    6   14     -1.54      0.00
   -6    6   14     -0.93      0.00
   -5    6   14      0.36      0.00
   -4    6   14      0.21      0.00
   -3    6   14     -0.63      0.00
   -2    6   14     -0.11      0.00
   -1    6   14     -1.21      0.00
    0    6   14     -2.69      0.00
    1    6   14     -1.21      0.00
    2    6   14     -0.12      0.00
    3    6   14      0.96      0.00
    4    6   14      1.99      0.00
    5    6   14     -0.26      0.00
    6    6   14     -0.10      0.00
    7    6   14      1.96      0.00
    8    6   14      0.28      0.00
    9    6   14     -0.39      0.00
   10    6   14      1.09      0.00
   -7    7   14      0.35      0.00
   -6    7   14      0.41      0.00
   -5    7   14     -0.09      0.00
   -4    7   14     -0.02      0.00
   -3    7   14      0.54      0.00
   -2    7   14      0.03      0.00
   -1    7   14      0.98      0.00
    0    7   14      1.96      0.00
    1    7   14      1.20      0.00
    2    7   14      0.97      0.00
    3    7   14      0.36      0.00
    4    7   14     -1.32      0.00
    5    7   14      0.22      0.00
    6    7   14      1.29      0.00
    7    7   14     -0.63      0.00
    8    7   14     -0.61      0.00
    9    7   14      1.04      0.00
   10    7   14      0.51      0.00
   -7    8   14      0.15      0.00
   -6    8   14     -0.60      0.00
   -5    8   14     -0.66      0.00
   -4    8   14      0.22      0.00
   -3    8   14      0.23      0.00
   -2    8   14      0.50      0.00
   -1    8   14      0.32      0.00
    0    8   14      0.02      0.00
    1    8   14      0.12      0.00
    2    8   14     -0.98      0.00
    3    8   14     -1.00      0.00
    4    8   14      0.46      0.00
    5    8   14      0.18      0.00
    6    8   14     -0.78      0.00
    7    8   14     -0.62      0.00
    8    8   14     -0.52      0.00
    9    8   14     -0.98      0.00
   10    8   14     -1.81      0.00
   -6    9   14      1.56      0.00
   -5    9   14      1.91      0.00
   -4    9   14      0.55      0.00
   -3    9   14     -0.34      0.00
   -2    9   14     -0.05      0.00
   -1    9   14     -0.76      0.00
    0    9   14     -1.33      0.00
    1    9   14     -1.37      0.00
    2    9   14      0.18      0.00
    3    9   14      0.32      0.00
    4    9   14     -0.71      0.00
    5    9   14     -0.68      0.00
    6    9   14     -0.28      0.00
    7    9   14      0.52      0.00
    8    9   14      1.07      0.00
    9    9   14      0.39      0.00
   10    9   14      1.37      0.00
   -5   10   14     -1.37      0.00
   -4   10   14     -0.99      0.00
   -3   10   14     -0.10      0.00
   -2   10   14     -0.30      0.00
   -1   10   14      0.35      0.00
    0   10   14      1.22      0.00
    1   10   14      1.63      0.00
    2   10   14      0.99      0.00
    3   10   14      0.27      0.00
    4   10   14      0.35      0.00
    5   10   14      0.23      0.00
    6   10   14      0.76      0.00
    7   10   14     -0.11      0.00
    8   10   14     -0.63      0.00
    9   10   14      0.45      0.00
   10   10   14     -0.42      0.00
   11   10   14     -1.89      0.00
   -5   11   14     -0.52      0.00
   -4   11   14     -0.23      0.00
   -3   11   14      0.36      0.00
   -2   11   14     -0.10      0.00
   -1   11   14     -0.16      0.00
    0   11   14      0.01      0.00
    1   11   14     -0.26      0.00
    2   11   14     -1.04      0.00
    3   11   14      0.05      0.00
    4   11   14      1.75      0.00
    5   11   14      2.15      0.00
    6   11   14     -0.06      0.00
    7   11   14     -0.62      0.00
    8   11   14     -0.12      0.00
    9   11   14     -1.17      0.00
   10   11   14     -0.26      0.00
   -4   12   14      1.19      0.00
   -3   12   14     -0.53      0.00
   -2   12   14      0.00      0.00
   -1   12   14      0.59      0.00
    0   12   14     -0.71      0.00
    1   12   14     -1.00      0.00
    2   12   14      0.01      0.00
    3   12   14     -0.50      0.00
    4   12   14     -2.92      0.00
    5   12   14     -4.25      0.00
    6   12   14     -2.20      0.00
    7   12   14      0.18      0.00
    8   12   14      0.43      0.00
    9   12   14      1.05      0.00
   10   12   14      0.60      0.00
   -3   13   14      0.64      0.00
   -2   13   14      1.07      0.00
   -1   13   14     -0.70      0.00
    0   13   14      0.19      0.00
    1   13   14      0.60      0.00
    2   13   14      0.23      0.00
    3   13   14      0.39      0.00
    4   13   14      1.44      0.00
    5   13   14      3.15      0.00
    7   13   14      1.93      0.00
    8   13   14      0.44      0.00
    9   13   14     -0.21      0.00
   -2   14   14     -1.67      0.00
    0   14   14     -0.13      0.00
    1   14   14     -0.25      0.00
    2   14   14      0.29      0.00
    3   14   14      0.02      0.00
    4   14   14      0.56      0.00
    5   14   14     -0.29      0.00
    8   14   14     -1.24      0.00
    9   14   14     -0.33      0.00
    1   15   14      0.85      0.00
    2   15   14     -0.51      0.00
    3   15   14     -0.47      0.00
    4   15   14     -1.06      0.00
    5   15   14     -1.00      0.00
    5   16   14      0.48      0.00
   -7   -8   15      0.51      0.00
   -5   -8   15      1.26      0.00
   -4   -8   15     -0.15      0.00
   -3   -8   15     -0.58      0.00
   -2   -8   15     -0.20      0.00
   -1   -8   15      0.24      0.00
   -8   -7   15     -0.53      0.00
   -7   -7   15     -0.19      0.00
   -6   -7   15     -0.42      0.00
   -5   -7   15     -0.88      0.00
   -4   -7   15      0.16      0.00
   -3   -7   15      1.70      0.00
   -2   -7   15      1.56      0.00
   -1   -7   15      0.07      0.00
    0   -7   15     -0.36      0.00
    1   -7   15     -0.63      0.00
    2   -7   15     -0.39      0.00
    3   -7   15      0.42      0.00
   -9   -6   15     -1.04      0.00
   -8   -6   15     -0.52      0.00
   -7   -6   15     -0.06      0.00
   -6   -6   15     -0.75      0.00
   -5   -6   15     -0.11      0.00
   -4   -6   15      0.03      0.00
   -3   -6   15     -1.81      0.00
   -2   -6   15     -2.32      0.00
   -1   -6   15     -0.27      0.00
    0   -6   15     -0.31      0.00
    1   -6   15     -2.27      0.00
    2   -6   15     -0.95      0.00
    3   -6   15      0.46      0.00
    4   -6   15      0.39      0.00
   -9   -5   15      2.05      0.00
   -8   -5   15      1.98      0.00
   -7   -5   15     -0.35      0.00
   -6   -5   15      0.12      0.00
   -5   -5   15      0.86      0.00
   -4   -5   15     -0.68      0.00
   -3   -5   15      0.48      0.00
   -2   -5   15      1.96      0.00
   -1   -5   15      1.05      0.00
    0   -5   15      0.16      0.00
    1   -5   15      2.33      0.00
    2   -5   15      1.86      0.00
    3   -5   15     -0.65      0.00
    4   -5   15     -1.41      0.00
    5   -5   15     -0.68      0.00
   -9   -4   15     -0.64      0.00
   -8   -4   15     -1.85      0.00
   -7   -4   15     -0.20      0.00
   -6   -4   15      0.78      0.00
   -5   -4   15     -1.05      0.00
   -4   -4   15      0.23      0.00
   -3   -4   15      0.75      0.00
   -2   -4   15     -0.54      0.00
   -1   -4   15     -1.46      0.00
    0   -4   15     -0.77      0.00
    1   -4   15     -0.91      0.00
    2   -4   15     -1.28      0.00
    3   -4   15      0.37      0.00
    4   -4   15      2.05      0.00
    5   -4   15      2.29      0.00
   -9   -3   15     -1.04      0.00
   -8   -3   15      0.73      0.00
   -7   -3   15      1.43      0.00
   -6   -3   15      0.40      0.00
   -5   -3   15      0.89      0.00
   -4   -3   15      0.51      0.00
   -3   -3   15     -0.96      0.00
   -2   -3   15     -1.45      0.00
   -1   -3   15     -0.32      0.00
    0   -3   15      0.80      0.00
    1   -3   15      0.04      0.00
    2   -3   15      0.18      0.00
    3   -3   15     -0.07      0.00
    4   -3   15     -1.47      0.00
    5   -3   15     -2.23      0.00
    6   -3   15     -1.04      0.00
   -9   -2   15      1.73      0.00
   -8   -2   15     -0.10      0.00
   -7   -2   15     -1.24      0.00
   -6   -2   15     -1.30      0.00
   -5   -2   15     -0.59      0.00
   -4   -2   15      0.02      0.00
   -3   -2   15      0.84      0.00
   -2   -2   15      2.23      0.00
   -1   -2   15      2.56      0.00
    0   -2   15      0.55      0.00
    1   -2   15      0.12      0.00
    2   -2   15      0.61      0.00
    3   -2   15      0.05      0.00
    4   -2   15      0.21      0.00
    5   -2   15      0.52      0.00
    6   -2   15     -0.22      0.00
    7   -2   15     -0.37      0.00
   -9   -1   15     -2.36      0.00
   -8   -1   15      0.02      0.00
   -7   -1   15      0.17      0.00
   -6   -1   15      0.18      0.00
   -5   -1   15      0.24      0.00
   -4   -1   15     -0.49      0.00
   -3   -1   15     -0.82      0.00
   -2   -1   15     -1.38      0.00
   -1   -1   15     -2.34      0.00
    0   -1   15     -1.28      0.00
    1   -1   15      0.76      0.00
    2   -1   15      0.35      0.00
    3   -1   15     -0.15      0.00
    4   -1   15      0.30      0.00
    5   -1   15      0.32      0.00
    6   -1   15      0.51      0.00
    7   -1   15      0.32      0.00
   -9    0   15      2.51      0.00
   -8    0   15     -0.75      0.00
   -7    0   15     -0.43      0.00
   -6    0   15      0.50      0.00
   -5    0   15     -0.04      0.00
   -4    0   15      0.18      0.00
   -3    0   15      0.80      0.00
   -2    0   15      0.83      0.00
   -1    0   15      0.80      0.00
    0    0   15      0.36      0.00
    1    0   15     -1.74      0.00
    2    0   15     -2.60      0.00
    3    0   15     -0.49      0.00
    4    0   15      0.03      0.00
    5    0   15      0.08      0.00
    6    0   15      0.10      0.00
    7    0   15     -0.04      0.00
    8    0   15     -0.28      0.00
   -9    1   15     -1.69      0.00
   -8    1   15      1.58      0.00
   -7    1   15      1.48      0.00
   -6    1   15      0.13      0.00
   -5    1   15     -0.07      0.00
   -4    1   15     -0.35      0.00
   -3    1   15     -0.75      0.00
   -2    1   15     -0.49      0.00
   -1    1   15      0.09      0.00
    0    1   15      1.04      0.00
    1    1   15      1.74      0.00
    2    1   15      2.84      0.00
    3    1   15      1.10      0.00
    4    1   15     -0.40      0.00
    5    1   15     -0.39      0.00
    6    1   15     -0.55      0.00
    7    1   15     -0.23      0.00
    8    1   15      0.65      0.00
   -9    2   15      0.95      0.00
   -8    2   15     -0.15      0.00
   -7    2   15     -0.44      0.00
   -6    2   15      0.08      0.00
   -5    2   15      0.35      0.00
   -4    2   15      0.84      0.00
   -3    2   15      0.33      0.00
   -2    2   15     -1.01      0.00
   -1    2   15     -0.97      0.00
    0    2   15     -1.27      0.00
    1    2   15     -1.11      0.00
    2    2   15     -0.75      0.00
    3    2   15     -0.20      0.00
    4    2   15      0.85      0.00
    5    2   15      0.57      0.00
    6    2   15      0.33      0.00
    7    2   15      0.51      0.00
    8    2   15     -0.02      0.00
    9    2   15     -0.36      0.00
   -9    3   15     -0.78      0.00
   -8    3   15     -2.54      0.00
   -7    3   15     -2.48      0.00
   -6    3   15     -1.65      0.00
   -5    3   15     -1.07      0.00
   -4    3   15     -0.89      0.00
   -3    3   15      0.20      0.00
   -2    3   15      1.87      0.00
   -1    3   15      1.38      0.00
    0    3   15     -0.23      0.00
    1    3   15     -0.51      0.00
    2    3   15     -1.06      0.00
    3    3   15     -1.26      0.00
    4    3   15     -1.25      0.00
    5    3   15     -0.84      0.00
    6    3   15      0.15      0.00
    7    3   15      0.57      0.00
    8    3   15     -0.34      0.00
    9    3   15      0.43      0.00
   -8    4   15      2.77      0.00
   -7    4   15      3.16      0.00
   -6    4   15      2.03      0.00
   -5    4   15      1.79      0.00
   -4    4   15      1.01      0.00
   -3    4   15     -0.20      0.00
   -2    4   15     -0.64      0.00
   -1    4   15     -0.30      0.00
    0    4   15      1.40      0.00
    1    4   15      2.03      0.00
    2    4   15      1.57      0.00
    3    4   15      1.77      0.00
    4    4   15      1.31      0.00
    5    4   15      0.53      0.00
    6    4   15      0.17      0.00
    7    4   15     -1.35      0.00
    8    4   15     -0.66      0.00
    9    4   15      0.03      0.00
   10    4   15     -0.15      0.00
   -8    5   15     -0.69      0.00
   -7    5   15     -0.57      0.00
   -6    5   15      0.19      0.00
   -5    5   15     -1.14      0.00
   -4    5   15     -0.83      0.00
   -3    5   15      0.41      0.00
   -2    5   15     -0.23      0.00
   -1    5   15     -0.27      0.00
    0    5   15     -0.08      0.00
    1    5   15     -0.80      0.00
    2    5   15     -0.61      0.00
    3    5   15     -1.42      0.00
    4    5   15     -1.80      0.00
    5    5   15      0.03      0.00
    6    5   15     -0.63      0.00
    7    5   15     -0.67      0.00
    8    5   15      0.72      0.00
    9    5   15     -0.09      0.00
   10    5   15     -0.36      0.00
   -8    6   15     -0.65      0.00
   -7    6   15     -1.27      0.00
   -6    6   15     -1.95      0.00
   -5    6   15     -0.44      0.00
   -4    6   15     -0.17      0.00
   -3    6   15     -1.22      0.00
   -2    6   15     -0.29      0.00
   -1    6   15     -0.54      0.00
    0    6   15     -1.84      0.00
    1    6   15     -1.49      0.00
    2    6   15     -0.98      0.00
    3    6   15      0.36      0.00
    4    6   15      2.30      0.00
    5    6   15      0.12      0.00
    6    6   15     -0.33      0.00
    7    6   15      2.13      0.00
    8    6   15      0.89      0.00
    9    6   15     -0.68      0.00
   10    6   15      0.13      0.00
   -7    7   15      0.50      0.00
   -6    7   15      0.66      0.00
   -5    7   15      0.48      0.00
   -4    7   15      0.43      0.00
   -3    7   15      1.13      0.00
   -2    7   15      0.12      0.00
   -1    7   15      0.42      0.00
    0    7   15      1.46      0.00
    1    7   15      1.36      0.00
    2    7   15      1.35      0.00
    3    7   15      0.85      0.00
    4    7   15     -1.18      0.00
    5    7   15     -0.26      0.00
    6    7   15      1.56      0.00
    7    7   15     -0.35      0.00
    8    7   15     -1.19      0.00
    9    7   15      1.10      0.00
   10    7   15      1.65      0.00
   -7    8   15      0.56      0.00
   -6    8   15      0.80      0.00
   -5    8   15      0.18      0.00
   -4    8   15      0.19      0.00
   -3    8   15      0.11      0.00
   -2    8   15      0.75      0.00
   -1    8   15      0.87      0.00
    0    8   15      0.32      0.00
    1    8   15      0.25      0.00
    2    8   15     -0.88      0.00
    3    8   15     -1.15      0.00
    4    8   15     -0.28      0.00
    5    8   15     -0.13      0.00
    6    8   15     -1.16      0.00
    7    8   15     -1.24      0.00
    8    8   15     -0.30      0.00
    9    8   15     -0.61      0.00
   10    8   15     -2.41      0.00
   -6    9   15      0.02      0.00
   -5    9   15      0.94      0.00
   -4    9   15      0.64      0.00
   -3    9   15     -0.53      0.00
   -2    9   15     -0.77      0.00
   -1    9   15     -1.56      0.00
    0    9   15     -1.54      0.00
    1    9   15     -1.24      0.00
    2    9   15      0.42      0.00
    3    9   15      0.69      0.00
    4    9   15      0.03      0.00
    5    9   15      0.02      0.00
    6    9   15     -0.14      0.00
    7    9   15      0.77      0.00
    8    9   15      1.20      0.00
    9    9   15      0.09      0.00
   10    9   15      1.10      0.00
   -5   10   15     -1.81      0.00
   -4   10   15     -1.92      0.00
   -3   10   15     -0.18      0.00
   -2   10   15      0.53      0.00
   -1   10   15      1.63      0.00
    0   10   15      2.11      0.00
    1   10   15      1.42      0.00
    2   10   15      0.50      0.00
    3   10   15     -0.08      0.00
    4   10   15      0.06      0.00
    5   10   15     -0.33      0.00
    6   10   15      0.63      0.00
    7   10   15      0.18      0.00
    8   10   15     -0.75      0.00
    9   10   15      0.19      0.00
   10   10   15      0.19      0.00
   -4   11   15      0.74      0.00
   -3   11   15      0.36      0.00
   -2   11   15     -0.75      0.00
   -1   11   15     -1.41      0.00
    0   11   15     -1.67      0.00
    1   11   15     -0.63      0.00
    2   11   15     -0.71      0.00
    3   11   15     -0.19      0.00
    4   11   15      1.74      0.00
    5   11   15      2.94      0.00
    6   11   15      0.84      0.00
    7   11   15     -0.77      0.00
    8   11   15     -0.64      0.00
    9   11   15     -0.94      0.00
   10   11   15     -0.41      0.00
   -4   12   15      0.98      0.00
   -3   12   15      0.08      0.00
   -2   12   15      0.42      0.00
   -1   12   15      0.64      0.00
    0   12   15      0.08      0.00
    1   12   15     -0.38      0.00
    2   12   15     -0.10      0.00
    3   12   15     -0.05      0.00
    4   12   15     -2.99      0.00
    5   12   15     -5.54      0.00
    6   12   15     -3.58      0.00
    7   12   15     -0.21      0.00
    8   12   15      1.42      0.00
    9   12   15      1.72      0.00
   10   12   15      0.33      0.00
   -3   13   15      0.02      0.00
   -2   13   15      0.60      0.00
   -1   13   15      0.12      0.00
    0   13   15      0.95      0.00
    1   13   15      0.28      0.00
    2   13   15     -0.42      0.00
    3   13   15     -0.27      0.00
    4   13   15      1.59      0.00
    5   13   15      4.53      0.00
    7   13   15      2.52      0.00
    8   13   15      0.16      0.00
    9   13   15     -1.20      0.00
    0   14   15     -0.71      0.00
    1   14   15     -0.09      0.00
    2   14   15      1.52      0.00
    3   14   15      1.17      0.00
    4   14   15      0.71      0.00
    5   14   15     -1.31      0.00
    8   14   15     -1.91      0.00
    2   15   15     -0.66      0.00
    3   15   15     -1.02      0.00
    4   15   15     -1.37      0.00
    5   15   15     -0.58      0.00
   -6   -7   16     -0.37      0.00
   -5   -7   16     -0.89      0.00
   -4   -7   16      0.02      0.00
   -3   -7   16      1.32      0.00
   -2   -7   16      2.02      0.00
   -1   -7   16      0.70      0.00
    0   -7   16     -0.46      0.00
   -8   -6   16     -0.89      0.00
   -7   -6   16     -0.17      0.00
   -6   -6   16     -0.63      0.00
   -5   -6   16     -0.01      0.00
   -4   -6   16     -0.14      0.00
   -3   -6   16     -1.85      0.00
   -2   -6   16     -2.48      0.00
   -1   -6   16     -0.85      0.00
    0   -6   16      0.00      0.00
    1   -6   16     -1.82      0.00
    2   -6   16     -1.44      0.00
   -8   -5   16      2.70      0.00
   -7   -5   16      0.54      0.00
   -6   -5   16      0.38      0.00
   -5   -5   16      0.90      0.00
   -4   -5   16     -0.41      0.00
   -3   -5   16      0.62      0.00
   -2   -5   16      1.48      0.00
   -1   -5   16      0.76      0.00
    0   -5   16     -0.01      0.00
    1   -5   16      2.12      0.00
    2   -5   16      2.44      0.00
    3   -5   16      0.34      0.00
   -9   -4   16     -0.33      0.00
   -8   -4   16     -2.27      0.00
   -7   -4   16     -0.90      0.00
   -6   -4   16      0.66      0.00
   -5   -4   16     -0.70      0.00
   -4   -4   16      0.41      0.00
   -3   -4   16      0.79      0.00
   -2   -4   16     -0.02      0.00
   -1   -4   16     -0.70      0.00
    0   -4   16     -0.54      0.00
    1   -4   16     -1.11      0.00
    2   -4   16     -1.89      0.00
    3   -4   16     -0.60      0.00
    4   -4   16      1.09      0.00
   -9   -3   16     -1.60      0.00
   -8   -3   16      0.30      0.00
   -7   -3   16      1.00      0.00
   -6   -3   16     -0.10      0.00
   -5   -3   16      0.48      0.00
   -4   -3   16      0.28      0.00
   -3   -3   16     -0.64      0.00
   -2   -3   16     -1.13      0.00
   -1   -3   16     -0.60      0.00
    0   -3   16      0.41      0.00
    1   -3   16      0.06      0.00
    2   -3   16      0.62      0.00
    3   -3   16      0.54      0.00
    4   -3   16     -1.05      0.00
    5   -3   16     -2.37      0.00
   -9   -2   16      1.47      0.00
   -8   -2   16      0.30      0.00
   -7   -2   16     -0.62      0.00
   -6   -2   16     -0.70      0.00
   -5   -2   16     -0.73      0.00
   -4   -2   16     -0.29      0.00
   -3   -2   16      0.21      0.00
   -2   -2   16      1.47      0.00
   -1   -2   16      2.58      0.00
    0   -2   16      1.05      0.00
    1   -2   16      0.36      0.00
    2   -2   16      0.44      0.00
    3   -2   16     -0.41      0.00
    4   -2   16      0.14      0.00
    5   -2   16      0.87      0.00
    6   -2   16      0.23      0.00
   -9   -1   16     -0.81      0.00
   -8   -1   16      0.30      0.00
   -7   -1   16      0.33      0.00
   -6   -1   16      0.08      0.00
   -5   -1   16      0.58      0.00
   -4   -1   16      0.08      0.00
   -3   -1   16     -0.39      0.00
   -2   -1   16     -0.92      0.00
   -1   -1   16     -2.58      0.00
    0   -1   16     -1.72      0.00
    1   -1   16      0.81      0.00
    2   -1   16      0.62      0.00
    3   -1   16      0.36      0.00
    4   -1   16      0.89      0.00
    5   -1   16      0.47      0.00
    6   -1   16      0.69      0.00
    7   -1   16      0.45      0.00
   -9    0   16      1.05      0.00
   -8    0   16     -0.89      0.00
   -7    0   16     -0.73      0.00
   -6    0   16      0.17      0.00
   -5    0   16     -0.18      0.00
   -4    0   16     -0.42      0.00
   -3    0   16      0.40      0.00
   -2    0   16      0.54      0.00
   -1    0   16      1.07      0.00
    0    0   16      0.73      0.00
    1    0   16     -2.15      0.00
    2    0   16     -3.26      0.00
    3    0   16     -0.95      0.00
    4    0   16     -0.67      0.00
    5    0   16     -0.41      0.00
    6    0   16      0.14      0.00
    7    0   16      0.40      0.00
   -9    1   16     -1.07      0.00
   -8    1   16      1.36      0.00
   -7    1   16      1.30      0.00
   -6    1   16      0.55      0.00
   -5    1   16      0.15      0.00
   -4    1   16      0.24      0.00
   -3    1   16     -0.28      0.00
   -2    1   16     -0.63      0.00
   -1    1   16     -0.38      0.00
    0    1   16      0.42      0.00
    1    1   16      1.94      0.00
    2    1   16      3.66      0.00
    3    1   16      1.57      0.00
    4    1   16     -0.43      0.00
    5    1   16     -0.44      0.00
    6    1   16     -0.79      0.00
    7    1   16     -0.72      0.00
    8    1   16      0.28      0.00
   -9    2   16      0.28      0.00
   -8    2   16     -0.85      0.00
   -7    2   16     -0.48      0.00
   -6    2   16     -0.17      0.00
   -5    2   16     -0.15      0.00
   -4    2   16      0.53      0.00
   -3    2   16      0.33      0.00
   -2    2   16     -0.07      0.00
   -1    2   16     -0.09      0.00
    0    2   16     -0.72      0.00
    1    2   16     -1.09      0.00
    2    2   16     -1.53      0.00
    3    2   16     -1.03      0.00
    4    2   16      1.11      0.00
    5    2   16      1.48      0.00
    6    2   16      0.72      0.00
    7    2   16      0.38      0.00
    8    2   16     -0.02      0.00
   -8    3   16     -0.93      0.00
   -7    3   16     -1.71      0.00
   -6    3   16     -1.63      0.00
   -5    3   16     -0.44      0.00
   -4    3   16     -0.55      0.00
   -3    3   16     -0.02      0.00
   -2    3   16      1.28      0.00
   -1    3   16      1.04      0.00
    0    3   16      0.19      0.00
    1    3   16     -0.16      0.00
    2    3   16     -0.44      0.00
    3    3   16     -0.15      0.00
    4    3   16     -0.90      0.00
    5    3   16     -1.90      0.00
    6    3   16     -0.85      0.00
    7    3   16      0.45      0.00
    8    3   16     -0.62      0.00
    9    3   16     -0.12      0.00
   -8    4   16      2.30      0.00
   -7    4   16      2.79      0.00
   -6    4   16      2.23      0.00
   -5    4   16      1.40      0.00
   -4    4   16      0.28      0.00
   -3    4   16     -0.46      0.00
   -2    4   16     -1.27      0.00
   -1    4   16     -0.99      0.00
    0    4   16      0.48      0.00
    1    4   16      1.60      0.00
    2    4   16      1.57      0.00
    3    4   16      1.10      0.00
    4    4   16      0.61      0.00
    5    4   16      0.90      0.00
    6    4   16      1.02      0.00
    7    4   16     -0.72      0.00
    8    4   16      0.19      0.00
    9    4   16      1.19      0.00
   -8    5   16     -2.05      0.00
   -7    5   16     -1.56      0.00
   -6    5   16     -0.16      0.00
   -5    5   16     -1.10      0.00
   -4    5   16     -0.30      0.00
   -3    5   16      0.91      0.00
   -2    5   16      0.67      0.00
   -1    5   16      0.34      0.00
    0    5   16     -0.05      0.00
    1    5   16     -0.97      0.00
    2    5   16     -1.16      0.00
    3    5   16     -1.23      0.00
    4    5   16     -1.23      0.00
    5    5   16      0.15      0.00
    6    5   16     -0.44      0.00
    7    5   16     -0.67      0.00
    8    5   16     -0.21      0.00
    9    5   16     -1.10      0.00
   -7    6   16     -0.05      0.00
   -6    6   16     -1.72      0.00
   -5    6   16     -0.63      0.00
   -4    6   16     -0.40      0.00
   -3    6   16     -1.65      0.00
   -2    6   16     -0.80      0.00
   -1    6   16     -0.49      0.00
    0    6   16     -0.98      0.00
    1    6   16     -1.01      0.00
    2    6   16     -0.61      0.00
    3    6   16      0.08      0.00
    4    6   16      1.65      0.00
    5    6   16      0.22      0.00
    6    6   16     -0.66      0.00
    7    6   16      1.35      0.00
    8    6   16      1.37      0.00
    9    6   16      0.15      0.00
   10    6   16     -0.10      0.00
   -7    7   16      0.38      0.00
   -6    7   16      0.48      0.00
   -5    7   16      0.63      0.00
   -4    7   16      0.81      0.00
   -3    7   16      1.71      0.00
   -2    7   16      0.60      0.00
   -1    7   16      0.30      0.00
    0    7   16      0.61      0.00
    1    7   16      0.85      0.00
    2    7   16      1.15      0.00
    3    7   16      0.89      0.00
    4    7   16     -0.46      0.00
    5    7   16     -0.34      0.00
    6    7   16      1.38      0.00
    7    7   16      0.31      0.00
    8    7   16     -1.09      0.00
    9    7   16      0.51      0.00
   -6    8   16      1.65      0.00
   -5    8   16      1.21      0.00
   -4    8   16      0.29      0.00
   -3    8   16     -0.16      0.00
   -2    8   16      0.60      0.00
   -1    8   16      0.97      0.00
    0    8   16      0.82      0.00
    1    8   16      0.97      0.00
    2    8   16     -0.43      0.00
    3    8   16     -0.71      0.00
    4    8   16     -0.61      0.00
    5    8   16     -0.65      0.00
    6    8   16     -1.32      0.00
    7    8   16     -1.63      0.00
    8    8   16     -0.48      0.00
    9    8   16     -0.35      0.00
   -6    9   16     -1.43      0.00
   -5    9   16     -0.88      0.00
   -4    9   16     -0.20      0.00
   -3    9   16     -0.97      0.00
   -2    9   16     -1.31      0.00
   -1    9   16     -1.93      0.00
    0    9   16     -1.72      0.00
    1    9   16     -1.65      0.00
    2    9   16      0.20      0.00
    3    9   16      0.70      0.00
    4    9   16      0.19      0.00
    5    9   16      0.75      0.00
    6    9   16      0.58      0.00
    7    9   16      1.15      0.00
    8    9   16      1.11      0.00
    9    9   16     -0.08      0.00
   10    9   16      0.89      0.00
   -5   10   16     -1.04      0.00
   -4   10   16     -1.84      0.00
   -3   10   16      0.04      0.00
   -2   10   16      1.04      0.00
   -1   10   16      2.08      0.00
    0   10   16      2.38      0.00
    1   10   16      1.30      0.00
    2   10   16      0.13      0.00
    3   10   16     -0.56      0.00
    4   10   16     -0.05      0.00
    5   10   16     -0.49      0.00
    6   10   16      0.06      0.00
    7   10   16     -0.22      0.00
    8   10   16     -0.69      0.00
    9   10   16      0.21      0.00
   10   10   16      0.36      0.00
   -4   11   16      1.87      0.00
   -3   11   16      0.92      0.00
   -2   11   16     -0.66      0.00
   -1   11   16     -1.60      0.00
    0   11   16     -2.50      0.00
    1   11   16     -1.00      0.00
    2   11   16     -0.40      0.00
    3   11   16     -0.45      0.00
    4   11   16      1.05      0.00
    5   11   16      2.46      0.00
    6   11   16      1.06      0.00
    7   11   16     -0.29      0.00
    8   11   16     -0.60      0.00
    9   11   16     -0.83      0.00
   10   11   16     -0.25      0.00
   -3   12   16     -0.36      0.00
   -2   12   16      0.17      0.00
   -1   12   16      0.30      0.00
    0   12   16      0.69      0.00
    1   12   16      0.63      0.00
    2   12   16      0.13      0.00
    3   12   16      0.86      0.00
    4   12   16     -1.55      0.00
    6   12   16     -3.65      0.00
    7   12   16     -0.68      0.00
    8   12   16      1.53      0.00
    9   12   16      2.11      0.00
   -2   13   16      0.50      0.00
   -1   13   16      0.90      0.00
    0   13   16      1.47      0.00
    1   13   16     -0.31      0.00
    2   13   16     -1.15      0.00
    3   13   16     -1.03      0.00
    4   13   16      0.56      0.00
    5   13   16      4.38      0.00
    7   13   16      2.73      0.00
    8   13   16      0.20      0.00
    0   14   16     -1.47      0.00
    1   14   16      0.08      0.00
    2   14   16      2.62      0.00
    3   14   16      2.05      0.00
    4   14   16      1.10      0.00
    5   14   16     -1.66      0.00
    8   14   16     -2.43      0.00
    3   15   16     -1.78      0.00
    4   15   16     -1.58      0.00
    5   15   16     -0.24      0.00
   -5   -6   17      0.77      0.00
   -4   -6   17      0.46      0.00
   -3   -6   17     -1.20      0.00
   -2   -6   17     -2.01      0.00
   -1   -6   17     -1.47      0.00
    0   -6   17      0.00      0.00
    1   -6   17     -0.79      0.00
   -8   -5   17      2.42      0.00
   -7   -5   17      1.40      0.00
   -6   -5   17      0.93      0.00
   -5   -5   17      0.49      0.00
   -4   -5   17     -0.61      0.00
   -3   -5   17      0.82      0.00
   -2   -5   17      0.95      0.00
   -1   -5   17      0.30      0.00
    0   -5   17      0.01      0.00
    1   -5   17      1.40      0.00
    2   -5   17      1.91      0.00
   -8   -4   17     -1.94      0.00
   -7   -4   17     -1.64      0.00
   -6   -4   17     -0.35      0.00
   -5   -4   17     -0.68      0.00
   -4   -4   17      0.70      0.00
   -3   -4   17      0.46      0.00
   -2   -4   17      0.23      0.00
   -1   -4   17      0.60      0.00
    0   -4   17     -0.08      0.00
    1   -4   17     -1.41      0.00
    2   -4   17     -1.91      0.00
    3   -4   17     -1.15      0.00
    4   -4   17     -0.20      0.00
   -8   -3   17     -0.07      0.00
   -7   -3   17      0.46      0.00
   -6   -3   17     -0.26      0.00
   -5   -3   17      0.17      0.00
   -4   -3   17     -0.35      0.00
   -3   -3   17     -0.52      0.00
   -2   -3   17     -0.39      0.00
   -1   -3   17     -0.81      0.00
    0   -3   17     -0.29      0.00
    1   -3   17      0.36      0.00
    2   -3   17      1.07      0.00
    3   -3   17      0.89      0.00
    4   -3   17     -0.17      0.00
    5   -3   17     -1.38      0.00
   -8   -2   17      0.21      0.00
   -7   -2   17      0.23      0.00
   -6   -2   17      0.45      0.00
   -5   -2   17     -0.23      0.00
   -4   -2   17     -0.13      0.00
   -3   -2   17     -0.27      0.00
   -2   -2   17     -0.07      0.00
   -1   -2   17      1.28      0.00
    0   -2   17      1.29      0.00
    1   -2   17      1.00      0.00
    2   -2   17      0.54      0.00
    3   -2   17     -0.41      0.00
    4   -2   17      0.21      0.00
    5   -2   17      0.99      0.00
   -9   -1   17      0.66      0.00
   -8   -1   17      1.05      0.00
   -7   -1   17      0.54      0.00
   -6   -1   17     -0.40      0.00
   -5   -1   17      0.25      0.00
   -4   -1   17      0.41      0.00
   -3   -1   17      0.38      0.00
   -2   -1   17      0.29      0.00
   -1   -1   17     -1.56      0.00
    0   -1   17     -1.69      0.00
    1   -1   17     -0.26      0.00
    2   -1   17     -0.21      0.00
    3   -1   17      0.17      0.00
    4   -1   17      0.83      0.00
    5   -1   17      0.16      0.00
    6   -1   17      0.72      0.00
   -8    0   17     -1.41      0.00
   -7    0   17     -1.31      0.00
   -6    0   17     -0.38      0.00
   -5    0   17     -0.21      0.00
   -4    0   17     -0.74      0.00
   -3    0   17     -0.28      0.00
   -2    0   17     -0.20      0.00
   -1    0   17      0.99      0.00
    0    0   17      0.93      0.00
    1    0   17     -1.66      0.00
    2    0   17     -2.54      0.00
    3    0   17     -0.83      0.00
    4    0   17     -1.14      0.00
    5    0   17     -0.84      0.00
    6    0   17     -0.17      0.00
    7    0   17      0.19      0.00
   -8    1   17      1.34      0.00
   -7    1   17      1.13      0.00
   -6    1   17      1.07      0.00
   -5    1   17      0.46      0.00
   -4    1   17      0.60      0.00
   -3    1   17      0.40      0.00
   -2    1   17      0.01      0.00
   -1    1   17     -0.37      0.00
    0    1   17     -0.06      0.00
    1    1   17      1.87      0.00
    2    1   17      3.35      0.00
    3    1   17      1.32      0.00
    4    1   17     -0.15      0.00
    5    1   17      0.15      0.00
    6    1   17     -0.36      0.00
    7    1   17     -0.67      0.00
   -8    2   17     -1.67      0.00
   -7    2   17     -0.46      0.00
   -6    2   17     -0.08      0.00
   -5    2   17     -0.37      0.00
   -4    2   17      0.27      0.00
   -3    2   17     -0.01      0.00
   -2    2   17     -0.06      0.00
   -1    2   17     -0.01      0.00
    0    2   17     -0.33      0.00
    1    2   17     -0.76      0.00
    2    2   17     -1.24      0.00
    3    2   17     -0.54      0.00
    4    2   17      1.39      0.00
    5    2   17      1.50      0.00
    6    2   17      0.44      0.00
    7    2   17     -0.11      0.00
    8    2   17     -0.10      0.00
   -8    3   17      1.37      0.00
   -7    3   17     -0.23      0.00
   -6    3   17     -1.78      0.00
   -5    3   17     -0.41      0.00
   -4    3   17     -0.45      0.00
   -3    3   17     -0.41      0.00
   -2    3   17      0.43      0.00
   -1    3   17      0.61      0.00
    0    3   17      0.55      0.00
    1    3   17     -0.18      0.00
    2    3   17     -0.74      0.00
    3    3   17     -0.41      0.00
    4    3   17     -1.14      0.00
    5    3   17     -2.31      0.00
    6    3   17     -1.14      0.00
    7    3   17      0.77      0.00
    8    3   17     -0.08      0.00
   -8    4   17      0.17      0.00
   -7    4   17      0.72      0.00
   -6    4   17      1.97      0.00
   -5    4   17      1.36      0.00
   -4    4   17     -0.10      0.00
   -3    4   17     -0.04      0.00
   -2    4   17     -0.60      0.00
   -1    4   17     -0.85      0.00
    0    4   17     -0.62      0.00
    1    4   17      0.77      0.00
    2    4   17      1.83      0.00
    3    4   17      1.12      0.00
    4    4   17      0.51      0.00
    5    4   17      1.23      0.00
    6    4   17      1.50      0.00
    7    4   17     -0.40      0.00
    8    4   17      0.23      0.00
    9    4   17      1.43      0.00
   -7    5   17     -0.94      0.00
   -6    5   17     -0.12      0.00
   -5    5   17     -1.27      0.00
   -4    5   17     -0.09      0.00
   -3    5   17      0.77      0.00
   -2    5   17      0.61      0.00
   -1    5   17      0.59      0.00
    0    5   17      0.61      0.00
    1    5   17     -0.28      0.00
    2    5   17     -1.74      0.00
    3    5   17     -1.46      0.00
    4    5   17     -0.87      0.00
    5    5   17     -0.08      0.00
    6    5   17     -0.44      0.00
    7    5   17     -0.44      0.00
    8    5   17     -0.71      0.00
    9    5   17     -1.73      0.00
   -7    6   17      0.63      0.00
   -6    6   17     -1.25      0.00
   -5    6   17     -0.13      0.00
   -4    6   17      0.07      0.00
   -3    6   17     -1.33      0.00
   -2    6   17     -0.98      0.00
   -1    6   17     -0.76      0.00
    0    6   17     -0.67      0.00
    1    6   17     -0.87      0.00
    2    6   17      0.06      0.00
    3    6   17      0.43      0.00
    4    6   17      0.83      0.00
    5    6   17      0.27      0.00
    6    6   17     -0.56      0.00
    7    6   17      0.35      0.00
    8    6   17      1.31      0.00
    9    6   17      1.18      0.00
   -6    7   17      0.34      0.00
   -5    7   17      0.31      0.00
   -4    7   17      0.54      0.00
   -3    7   17      1.54      0.00
   -2    7   17      0.95      0.00
   -1    7   17      0.84      0.00
    0    7   17      0.26      0.00
    1    7   17      0.34      0.00
    2    7   17      0.82      0.00
    3    7   17      0.50      0.00
    4    7   17      0.30      0.00
    5    7   17     -0.09      0.00
    6    7   17      0.66      0.00
    7    7   17      0.70      0.00
    8    7   17     -0.44      0.00
    9    7   17     -0.22      0.00
   -6    8   17      1.37      0.00
   -5    8   17      1.64      0.00
   -4    8   17      0.27      0.00
   -3    8   17     -0.37      0.00
   -2    8   17      0.38      0.00
   -1    8   17      0.32      0.00
    0    8   17      0.59      0.00
    1    8   17      1.59      0.00
    2    8   17      0.03      0.00
    3    8   17     -0.04      0.00
    4    8   17     -0.33      0.00
    5    8   17     -0.84      0.00
    6    8   17     -0.88      0.00
    7    8   17     -1.26      0.00
    8    8   17     -0.73      0.00
    9    8   17     -0.32      0.00
   -5    9   17     -2.15      0.00
   -4    9   17     -0.94      0.00
   -3    9   17     -1.20      0.00
   -2    9   17     -1.77      0.00
   -1    9   17     -1.80      0.00
    0    9   17     -1.16      0.00
    1    9   17     -2.03      0.00
    2    9   17     -0.56      0.00
    3    9   17      0.23      0.00
    4    9   17     -0.52      0.00
    5    9   17      0.52      0.00
    6    9   17      0.89      0.00
    7    9   17      1.16      0.00
    8    9   17      0.67      0.00
    9    9   17     -0.18      0.00
   10    9   17      0.77      0.00
   -5   10   17      0.30      0.00
   -4   10   17     -0.92      0.00
   -3   10   17      0.47      0.00
   -2   10   17      1.57      0.00
   -1   10   17      2.12      0.00
    0   10   17      1.75      0.00
    1   10   17      0.94      0.00
    2   10   17      0.30      0.00
    3   10   17     -0.67      0.00
    4   10   17      0.08      0.00
    5   10   17      0.09      0.00
    6   10   17     -0.07      0.00
    7   10   17     -0.83      0.00
    8   10   17     -0.48      0.00
    9   10   17      0.66      0.00
   -4   11   17      2.07      0.00
   -3   11   17      1.34      0.00
   -2   11   17     -0.29      0.00
   -1   11   17     -1.18      0.00
    0   11   17     -2.08      0.00
    1   11   17     -0.57      0.00
    2   11   17      0.07      0.00
    3   11   17     -0.55      0.00
    4   11   17      0.41      0.00
    5   11   17      1.28      0.00
    6   11   17      0.21      0.00
    7   11   17      0.20      0.00
    8   11   17      0.06      0.00
    9   11   17     -0.91      0.00
   -3   12   17     -1.15      0.00
   -2   12   17     -0.61      0.00
   -1   12   17     -0.35      0.00
    0   12   17      0.59      0.00
    1   12   17      0.86      0.00
    2   12   17     -0.11      0.00
    3   12   17      1.38      0.00
    4   12   17      0.37      0.00
    6   12   17     -2.02      0.00
    7   12   17     -0.40      0.00
    8   12   17      0.69      0.00
    9   12   17      1.81      0.00
   -1   13   17      1.38      0.00
    0   13   17      1.67      0.00
    1   13   17     -0.56      0.00
    2   13   17     -1.24      0.00
    3   13   17     -1.16      0.00
    4   13   17     -0.96      0.00
    7   13   17      1.71      0.00
    8   13   17      0.43      0.00
    1   14   17      0.00      0.00
    2   14   17      2.84      0.00
    3   14   17      1.90      0.00
    4   14   17      1.16      0.00
    5   14   17     -1.10      0.00
    4   15   17     -1.23      0.00
    5   15   17     -0.08      0.00
   -4   -6   18      1.36      0.00
   -3   -6   18      0.16      0.00
   -2   -6   18     -0.60      0.00
   -5   -5   18      0.18      0.00
   -4   -5   18     -1.16      0.00
   -3   -5   18      0.44      0.00
   -2   -5   18      0.04      0.00
   -1   -5   18     -0.55      0.00
    0   -5   18      0.05      0.00
    1   -5   18      0.91      0.00
   -7   -4   18     -1.64      0.00
   -6   -4   18     -1.53      0.00
   -5   -4   18     -1.30      0.00
   -4   -4   18      0.56      0.00
   -3   -4   18      0.00      0.00
   -2   -4   18      0.37      0.00
   -1   -4   18      2.10      0.00
    0   -4   18      0.69      0.00
    1   -4   18     -1.79      0.00
    2   -4   18     -1.78      0.00
    3   -4   18     -1.04      0.00
   -8   -3   18     -0.31      0.00
   -7   -3   18     -0.12      0.00
   -6   -3   18     -0.02      0.00
   -5   -3   18      0.63      0.00
   -4   -3   18     -0.37      0.00
   -3   -3   18     -0.46      0.00
   -2   -3   18      0.00      0.00
   -1   -3   18     -1.34      0.00
    0   -3   18     -1.23      0.00
    1   -3   18      0.95      0.00
    2   -3   18      1.80      0.00
    3   -3   18      1.05      0.00
    4   -3   18      0.46      0.00
   -8   -2   18     -0.12      0.00
   -7   -2   18      0.90      0.00
   -6   -2   18      1.45      0.00
   -5   -2   18      0.29      0.00
   -4   -2   18      0.10      0.00
   -3   -2   18     -0.23      0.00
   -2   -2   18     -1.00      0.00
   -1   -2   18     -0.27      0.00
    0   -2   18      0.92      0.00
    1   -2   18      1.06      0.00
    2   -2   18      0.26      0.00
    3   -2   18     -0.20      0.00
    4   -2   18      0.28      0.00
    5   -2   18      0.92      0.00
   -8   -1   18      1.51      0.00
   -7   -1   18      0.69      0.00
   -6   -1   18     -0.95      0.00
   -5   -1   18     -0.40      0.00
   -4   -1   18      0.28      0.00
   -3   -1   18      0.83      0.00
   -2   -1   18      1.43      0.00
   -1   -1   18      0.31      0.00
    0   -1   18     -0.51      0.00
    1   -1   18     -1.09      0.00
    2   -1   18     -1.41      0.00
    3   -1   18     -0.85      0.00
    4   -1   18     -0.05      0.00
    5   -1   18     -0.55      0.00
    6   -1   18      0.24      0.00
   -8    0   18     -1.57      0.00
   -7    0   18     -1.84      0.00
   -6    0   18     -0.86      0.00
   -5    0   18     -0.21      0.00
   -4    0   18     -0.63      0.00
   -3    0   18     -0.62      0.00
   -2    0   18     -0.95      0.00
   -1    0   18      0.52      0.00
    0    0   18      0.63      0.00
    1    0   18     -0.78      0.00
    2    0   18     -0.75      0.00
    3    0   18      0.29      0.00
    4    0   18     -0.53      0.00
    5    0   18     -0.64      0.00
    6    0   18     -0.23      0.00
   -8    1   18      1.18      0.00
   -7    1   18      1.19      0.00
   -6    1   18      1.60      0.00
   -5    1   18      0.81      0.00
   -4    1   18      0.69      0.00
   -3    1   18      0.53      0.00
   -2    1   18      0.44      0.00
   -1    1   18     -0.43      0.00
    0    1   18     -0.57      0.00
    1    1   18      1.56      0.00
    2    1   18      2.37      0.00
    3    1   18      0.60      0.00
    4    1   18     -0.11      0.00
    5    1   18      0.67      0.00
    6    1   18      0.35      0.00
    7    1   18     -0.20      0.00
   -8    2   18     -1.89      0.00
   -7    2   18     -0.70      0.00
   -6    2   18     -0.22      0.00
   -5    2   18     -0.38      0.00
   -4    2   18      0.14      0.00
   -3    2   18     -0.25      0.00
   -2    2   18     -0.20      0.00
   -1    2   18     -0.14      0.00
    0    2   18     -0.15      0.00
    1    2   18     -0.82      0.00
    2    2   18     -0.99      0.00
    3    2   18      0.25      0.00
    4    2   18      1.58      0.00
    5    2   18      1.09      0.00
    6    2   18     -0.24      0.00
    7    2   18     -0.69      0.00
   -8    3   18      2.60      0.00
   -7    3   18      1.40      0.00
   -6    3   18     -1.33      0.00
   -5    3   18     -0.69      0.00
   -4    3   18     -0.63      0.00
   -3    3   18     -0.56      0.00
   -2    3   18     -0.20      0.00
   -1    3   18      0.06      0.00
    0    3   18      0.81      0.00
    1    3   18      0.26      0.00
    2    3   18     -0.73      0.00
    3    3   18     -1.23      0.00
    4    3   18     -1.83      0.00
    5    3   18     -2.32      0.00
    6    3   18     -0.96      0.00
    7    3   18      1.09      0.00
    8    3   18      0.49      0.00
   -7    4   18     -1.90      0.00
   -6    4   18      0.81      0.00
   -5    4   18      1.29      0.00
   -3    4   18      0.47      0.00
   -2    4   18      0.52      0.00
   -1    4   18      0.35      0.00
    0    4   18     -0.84      0.00
    1    4   18     -0.37      0.00
    2    4   18      1.38      0.00
    3    4   18      1.31      0.00
    4    4   18      0.96      0.00
    5    4   18      1.49      0.00
    6    4   18      1.68      0.00
    7    4   18     -0.12      0.00
    8    4   18     -0.12      0.00
   -7    5   18      0.95      0.00
   -6    5   18      0.95      0.00
   -5    5   18     -1.04      0.00
   -4    5   18     -0.08      0.00
   -3    5   18      0.28      0.00
   -2    5   18     -0.16      0.00
   -1    5   18     -0.16      0.00
    0    5   18      0.54      0.00
    1    5   18      0.81      0.00
    2    5   18     -1.23      0.00
    3    5   18     -1.36      0.00
    4    5   18     -0.73      0.00
    5    5   18     -0.48      0.00
    6    5   18     -0.76      0.00
    7    5   18     -0.57      0.00
    8    5   18     -0.83      0.00
   -7    6   18      0.27      0.00
   -6    6   18     -1.49      0.00
   -5    6   18      0.15      0.00
   -4    6   18      0.76      0.00
   -3    6   18     -0.42      0.00
   -2    6   18     -0.57      0.00
   -1    6   18     -0.86      0.00
    0    6   18     -0.40      0.00
    1    6   18     -0.97      0.00
    2    6   18      0.09      0.00
    3    6   18      0.67      0.00
    4    6   18      0.22      0.00
    5    6   18      0.35      0.00
    6    6   18      0.04      0.00
    7    6   18      0.06      0.00
    8    6   18      1.11      0.00
   -6    7   18      0.54      0.00
   -5    7   18      0.06      0.00
   -4    7   18     -0.10      0.00
   -3    7   18      0.64      0.00
   -2    7   18      0.69      0.00
   -1    7   18      1.56      0.00
    0    7   18      0.47      0.00
    1    7   18     -0.05      0.00
    2    7   18      0.68      0.00
    3    7   18      0.19      0.00
    4    7   18      0.89      0.00
    5    7   18      0.37      0.00
    6    7   18     -0.22      0.00
    7    7   18      0.34      0.00
    8    7   18      0.02      0.00
   -6    8   18      0.48      0.00
   -5    8   18      1.23      0.00
   -4    8   18     -0.20      0.00
   -3    8   18     -0.71      0.00
   -2    8   18      0.36      0.00
   -1    8   18     -0.48      0.00
    0    8   18     -0.42      0.00
    1    8   18      1.64      0.00
    2    8   18      0.18      0.00
    3    8   18      0.14      0.00
    4    8   18     -0.12      0.00
    5    8   18     -0.96      0.00
    6    8   18     -0.17      0.00
    7    8   18     -0.17      0.00
    8    8   18     -0.55      0.00
    9    8   18     -0.38      0.00
   -5    9   18     -2.07      0.00
   -4    9   18     -0.60      0.00
   -3    9   18     -0.32      0.00
   -2    9   18     -1.75      0.00
   -1    9   18     -1.66      0.00
    0    9   18     -0.07      0.00
    1    9   18     -1.71      0.00
    2    9   18     -1.17      0.00
    3    9   18     -0.11      0.00
    4    9   18     -1.23      0.00
    5    9   18     -0.24      0.00
    6    9   18      0.49      0.00
    7    9   18      0.52      0.00
    8    9   18     -0.19      0.00
    9    9   18     -0.36      0.00
   -4   10   18     -0.12      0.00
   -3   10   18      0.37      0.00
   -2   10   18      1.72      0.00
   -1   10   18      2.43      0.00
    0   10   18      1.09      0.00
    1   10   18      0.32      0.00
    2   10   18      0.69      0.00
    3   10   18     -0.37      0.00
    4   10   18      0.20      0.00
    5   10   18      0.85      0.00
    6   10   18      0.42      0.00
    7   10   18     -0.93      0.00
    8   10   18     -0.03      0.00
    9   10   18      1.37      0.00
   -3   11   18      1.21      0.00
   -2   11   18     -0.02      0.00
   -1   11   18     -1.08      0.00
    0   11   18     -1.63      0.00
    1   11   18      0.12      0.00
    2   11   18      0.64      0.00
    3   11   18     -0.41      0.00
    4   11   18      0.34      0.00
    5   11   18      0.65      0.00
    6   11   18     -0.88      0.00
    7   11   18      0.13      0.00
    8   11   18      0.70      0.00
    9   11   18     -1.06      0.00
   -1   12   18     -0.70      0.00
    0   12   18      0.47      0.00
    1   12   18      0.57      0.00
    2   12   18     -0.96      0.00
    3   12   18      0.86      0.00
    4   12   18      1.35      0.00
    6   12   18     -0.16      0.00
    7   12   18      0.69      0.00
    8   12   18     -0.18      0.00
    0   13   18      1.29      0.00
    1   13   18     -0.51      0.00
    2   13   18     -0.54      0.00
    3   13   18     -0.21      0.00
    4   13   18     -1.66      0.00
    7   13   18     -0.23      0.00
    2   14   18      2.12      0.00
    3   14   18      0.72      0.00
    4   14   18      0.43      0.00
    5   14   18     -0.48      0.00
   -3   -5   19     -0.05      0.00
   -2   -5   19     -0.86      0.00
   -1   -5   19     -1.61      0.00
   -6   -4   19     -2.01      0.00
   -4   -4   19     -0.20      0.00
   -3   -4   19     -0.75      0.00
   -2   -4   19      0.24      0.00
   -1   -4   19      3.27      0.00
    0   -4   19      1.86      0.00
    1   -4   19     -1.67      0.00
   -6   -3   19      0.29      0.00
   -5   -3   19      1.54      0.00
   -4   -3   19      0.72      0.00
   -3   -3   19      0.33      0.00
   -2   -3   19      0.23      0.00
   -1   -3   19     -2.23      0.00
    0   -3   19     -2.72      0.00
    1   -3   19      0.95      0.00
    2   -3   19      2.43      0.00
    3   -3   19      1.23      0.00
   -6   -2   19      1.82      0.00
   -5   -2   19      0.28      0.00
   -4   -2   19     -0.30      0.00
   -3   -2   19     -0.32      0.00
   -2   -2   19     -0.87      0.00
   -1   -2   19     -0.60      0.00
    0   -2   19      0.98      0.00
    1   -2   19      0.94      0.00
    2   -2   19     -0.49      0.00
    3   -2   19     -0.34      0.00
    4   -2   19     -0.04      0.00
   -7   -1   19      0.55      0.00
   -6   -1   19     -1.29      0.00
   -5   -1   19     -0.80      0.00
   -4   -1   19      0.09      0.00
   -3   -1   19      0.84      0.00
   -2   -1   19      1.62      0.00
   -1   -1   19      1.52      0.00
    0   -1   19      0.96      0.00
    1   -1   19     -1.14      0.00
    2   -1   19     -1.82      0.00
    3   -1   19     -1.59      0.00
    4   -1   19     -0.87      0.00
    5   -1   19     -0.87      0.00
   -7    0   19     -1.75      0.00
   -6    0   19     -0.93      0.00
   -5    0   19     -0.24      0.00
   -4    0   19     -0.37      0.00
   -3    0   19     -0.45      0.00
   -2    0   19     -1.28      0.00
   -1    0   19     -0.07      0.00
    0    0   19     -0.13      0.00
    1    0   19     -0.15      0.00
    2    0   19      0.92      0.00
    3    0   19      1.45      0.00
    4    0   19      0.71      0.00
    5    0   19      0.02      0.00
    6    0   19      0.01      0.00
   -7    1   19      1.11      0.00
   -6    1   19      1.78      0.00
   -5    1   19      0.98      0.00
   -4    1   19      0.62      0.00
   -3    1   19      0.12      0.00
   -2    1   19      0.37      0.00
   -1    1   19     -0.62      0.00
    0    1   19     -1.21      0.00
    1    1   19      0.77      0.00
    2    1   19      1.08      0.00
    3    1   19      0.16      0.00
    4    1   19     -0.17      0.00
    5    1   19      0.59      0.00
    6    1   19      0.81      0.00
   -7    2   19     -0.86      0.00
   -6    2   19     -0.72      0.00
   -5    2   19     -0.37      0.00
   -4    2   19      0.15      0.00
   -3    2   19     -0.23      0.00
   -2    2   19     -0.12      0.00
   -1    2   19      0.00      0.00
    0    2   19      0.42      0.00
    1    2   19     -0.63      0.00
    2    2   19     -1.01      0.00
    3    2   19      0.10      0.00
    4    2   19      0.93      0.00
    5    2   19      0.65      0.00
    6    2   19     -0.77      0.00
    7    2   19     -1.16      0.00
   -7    3   19      2.02      0.00
   -5    3   19     -0.59      0.00
   -4    3   19     -0.91      0.00
   -3    3   19     -0.40      0.00
   -2    3   19     -0.15      0.00
   -1    3   19     -0.27      0.00
    0    3   19      0.62      0.00
    1    3   19      0.70      0.00
    2    3   19      0.03      0.00
    3    3   19     -1.09      0.00
    4    3   19     -1.72      0.00
    5    3   19     -1.95      0.00
    6    3   19     -0.75      0.00
    7    3   19      1.14      0.00
   -7    4   19     -2.97      0.00
   -3    4   19      0.63      0.00
   -2    4   19      0.74      0.00
   -1    4   19      1.24      0.00
    0    4   19     -0.15      0.00
    1    4   19     -0.99      0.00
    2    4   19      0.23      0.00
    3    4   19      0.81      0.00
    4    4   19      1.02      0.00
    5    4   19      1.27      0.00
    6    4   19      1.57      0.00
    7    4   19      0.29      0.00
   -7    5   19      2.12      0.00
   -6    5   19      2.08      0.00
   -4    5   19      0.16      0.00
   -3    5   19     -0.02      0.00
   -2    5   19     -0.54      0.00
   -1    5   19     -0.77      0.00
    0    5   19     -0.43      0.00
    1    5   19      1.03      0.00
    2    5   19     -0.09      0.00
    3    5   19     -0.47      0.00
    4    5   19     -0.28      0.00
    5    5   19     -0.30      0.00
    6    5   19     -0.77      0.00
    7    5   19     -1.04      0.00
    8    5   19     -1.05      0.00
   -6    6   19     -1.97      0.00
   -5    6   19     -0.13      0.00
   -4    6   19      0.94      0.00
   -3    6   19      0.36      0.00
   -2    6   19     -0.08      0.00
   -1    6   19     -1.07      0.00
    0    6   19     -0.08      0.00
    1    6   19     -0.49      0.00
    2    6   19     -0.16      0.00
    3    6   19      0.41      0.00
    4    6   19     -0.29      0.00
    5    6   19      0.08      0.00
    6    6   19      0.33      0.00
    7    6   19      0.43      0.00
    8    6   19      1.26      0.00
   -6    7   19      0.69      0.00
   -5    7   19     -0.05      0.00
   -4    7   19     -0.63      0.00
   -3    7   19     -0.37      0.00
   -2    7   19      0.02      0.00
   -1    7   19      2.12      0.00
    0    7   19      1.10      0.00
    1    7   19     -0.57      0.00
    2    7   19      0.25      0.00
    3    7   19     -0.04      0.00
    4    7   19      1.13      0.00
    5    7   19      0.91      0.00
    6    7   19     -0.51      0.00
    7    7   19     -0.30      0.00
    8    7   19     -0.14      0.00
   -4    8   19     -0.73      0.00
   -3    8   19     -1.21      0.00
   -2    8   19      0.34      0.00
   -1    8   19     -0.97      0.00
    0    8   19     -1.65      0.00
    1    8   19      1.32      0.00
    2    8   19      0.38      0.00
    3    8   19     -0.04      0.00
    4    8   19     -0.25      0.00
    5    8   19     -1.30      0.00
    6    8   19      0.02      0.00
    7    8   19      0.76      0.00
    8    8   19      0.07      0.00
    9    8   19     -0.27      0.00
   -4    9   19      0.51      0.00
   -3    9   19      1.64      0.00
   -2    9   19     -0.65      0.00
   -1    9   19     -1.43      0.00
    0    9   19      0.87      0.00
    1    9   19     -0.82      0.00
    2    9   19     -1.26      0.00
    3    9   19      0.02      0.00
    4    9   19     -1.20      0.00
    5    9   19     -0.58      0.00
    6    9   19      0.12      0.00
    7    9   19     -0.24      0.00
    8    9   19     -1.12      0.00
    9    9   19     -0.66      0.00
   -3   10   19     -0.68      0.00
   -2   10   19      0.64      0.00
   -1   10   19      2.48      0.00
    0   10   19      0.97      0.00
    1   10   19     -0.16      0.00
    2   10   19      0.89      0.00
    3   10   19      0.00      0.00
    4   10   19      0.17      0.00
    5   10   19      1.12      0.00
    6   10   19      0.82      0.00
    7   10   19     -0.56      0.00
    8   10   19      0.58      0.00
   -2   11   19      0.35      0.00
   -1   11   19     -1.15      0.00
    0   11   19     -1.93      0.00
    1   11   19     -0.02      0.00
    2   11   19      0.71      0.00
    3   11   19     -0.33      0.00
    5   11   19      0.91      0.00
    6   11   19     -1.02      0.00
    7   11   19     -0.10      0.00
    8   11   19      0.82      0.00
   -1   12   19     -0.62      0.00
    0   12   19      0.93      0.00
    1   12   19      0.88      0.00
    2   12   19     -1.33      0.00
    3   12   19     -0.16      0.00
    6   12   19      0.20      0.00
    7   12   19      1.34      0.00
    1   13   19     -0.72      0.00
    2   13   19      0.06      0.00
    3   13   19      1.14      0.00
    4   13   19     -1.21      0.00
    3   14   19     -0.62      0.00
    4   14   19     -0.69      0.00
    5   14   19     -0.34      0.00
   -1   -4   20      3.18      0.00
   -5   -3   20      1.98      0.00
   -4   -3   20      1.96      0.00
   -3   -3   20      1.74      0.00
   -2   -3   20      0.93      0.00
   -1   -3   20     -2.44      0.00
    0   -3   20     -3.90      0.00
    1   -3   20      0.01      0.00
    2   -3   20      2.16      0.00
   -5   -2   20     -0.06      0.00
   -4   -2   20     -1.18      0.00
   -3   -2   20     -1.02      0.00
   -2   -2   20     -0.53      0.00
   -1   -2   20      0.02      0.00
    0   -2   20      1.75      0.00
    1   -2   20      1.49      0.00
    2   -2   20     -0.74      0.00
    3   -2   20     -0.51      0.00
   -6   -1   20     -1.29      0.00
   -5   -1   20     -0.69      0.00
   -4   -1   20      0.24      0.00
   -3   -1   20      0.68      0.00
   -2   -1   20      0.85      0.00
   -1   -1   20      1.31      0.00
    0   -1   20      1.56      0.00
    1   -1   20     -1.12      0.00
    2   -1   20     -1.69      0.00
    3   -1   20     -1.57      0.00
    4   -1   20     -1.01      0.00
   -6    0   20     -0.48      0.00
   -5    0   20     -0.25      0.00
   -4    0   20     -0.23      0.00
   -3    0   20      0.12      0.00
   -2    0   20     -0.86      0.00
   -1    0   20     -0.37      0.00
    0    0   20     -1.13      0.00
    1    0   20      0.00      0.00
    2    0   20      1.97      0.00
    3    0   20      1.88      0.00
    4    0   20      1.52      0.00
    5    0   20      0.45      0.00
   -6    1   20      1.32      0.00
   -5    1   20      0.76      0.00
   -4    1   20      0.44      0.00
   -3    1   20     -0.62      0.00
   -2    1   20     -0.08      0.00
   -1    1   20     -0.51      0.00
    0    1   20     -1.22      0.00
    1    1   20     -0.04      0.00
    2    1   20     -0.46      0.00
    3    1   20      0.01      0.00
    4    1   20      0.09      0.00
    5    1   20      0.21      0.00
   -6    2   20     -1.05      0.00
   -5    2   20     -0.30      0.00
   -4    2   20      0.28      0.00
   -3    2   20      0.09      0.00
   -2    2   20      0.18      0.00
   -1    2   20      0.03      0.00
    0    2   20      0.90      0.00
    1    2   20      0.12      0.00
    2    2   20     -0.49      0.00
    3    2   20     -0.59      0.00
    4    2   20     -0.70      0.00
    5    2   20      0.12      0.00
    6    2   20     -0.82      0.00
   -5    3   20      0.00      0.00
   -4    3   20     -0.98      0.00
   -3    3   20     -0.26      0.00
   -2    3   20      0.24      0.00
   -1    3   20     -0.03      0.00
    0    3   20      0.39      0.00
    1    3   20      0.58      0.00
    2    3   20      0.57      0.00
    3    3   20     -0.15      0.00
    4    3   20     -0.38      0.00
    5    3   20     -1.08      0.00
    6    3   20     -0.72      0.00
   -3    4   20      0.53      0.00
   -2    4   20      0.14      0.00
   -1    4   20      0.84      0.00
    0    4   20      0.29      0.00
    1    4   20     -0.91      0.00
    2    4   20     -0.63      0.00
    3    4   20     -0.10      0.00
    4    4   20      0.37      0.00
    5    4   20      0.48      0.00
    6    4   20      1.21      0.00
    7    4   20      0.57      0.00
   -2    5   20     -0.23      0.00
   -1    5   20     -0.23      0.00
    0    5   20     -0.91      0.00
    1    5   20      0.44      0.00
    2    5   20      0.58      0.00
    3    5   20      0.47      0.00
    4    5   20      0.38      0.00
    5    5   20      0.54      0.00
    6    5   20     -0.07      0.00
    7    5   20     -1.20      0.00
   -5    6   20     -0.38      0.00
   -4    6   20      0.62      0.00
   -3    6   20      0.57      0.00
   -2    6   20      0.11      0.00
    0    6   20     -0.45      0.00
    1    6   20      0.30      0.00
    2    6   20     -0.01      0.00
    3    6   20      0.13      0.00
    4    6   20     -0.51      0.00
    5    6   20     -0.52      0.00
    6    6   20     -0.31      0.00
    7    6   20      0.58      0.00
   -5    7   20     -0.31      0.00
   -4    7   20     -1.04      0.00
   -3    7   20     -1.10      0.00
   -2    7   20     -0.67      0.00
   -1    7   20      2.44      0.00
    1    7   20     -0.88      0.00
    2    7   20     -0.66      0.00
    3    7   20     -0.57      0.00
    4    7   20      0.64      0.00
    5    7   20      1.09      0.00
    6    7   20      0.02      0.00
    7    7   20     -0.40      0.00
    8    7   20     -0.57      0.00
   -4    8   20     -0.54      0.00
   -3    8   20     -1.28      0.00
   -2    8   20      0.35      0.00
   -1    8   20     -1.02      0.00
    0    8   20     -2.68      0.00
    1    8   20      0.73      0.00
    2    8   20      0.94      0.00
    3    8   20      0.12      0.00
    4    8   20     -0.18      0.00
    5    8   20     -1.44      0.00
    6    8   20     -0.45      0.00
    7    8   20      0.72      0.00
    8    8   20      0.50      0.00
   -3    9   20      3.23      0.00
   -2    9   20      1.03      0.00
   -1    9   20     -0.86      0.00
    0    9   20      1.47      0.00
    1    9   20      0.20      0.00
    3    9   20      0.31      0.00
    4    9   20     -0.62      0.00
    5    9   20     -0.37      0.00
    6    9   20      0.26      0.00
    7    9   20     -0.34      0.00
    8    9   20     -1.45      0.00
   -2   10   20     -1.36      0.00
   -1   10   20      1.49      0.00
    0   10   20      0.81      0.00
    1   10   20     -0.46      0.00
    2   10   20      0.75      0.00
    4   10   20      0.01      0.00
    5   10   20      0.95      0.00
    6   10   20      0.74      0.00
    7   10   20     -0.30      0.00
    8   10   20      0.96      0.00
   -1   11   20     -0.60      0.00
    0   11   20     -2.10      0.00
    1   11   20     -0.79      0.00
    2   11   20      0.12      0.00
    3   11   20     -0.50      0.00
    6   11   20     -0.32      0.00
    7   11   20      0.05      0.00
    0   12   20      1.38      0.00
    1   12   20      1.83      0.00
    2   12   20     -0.44      0.00
    3   12   20     -0.57      0.00
    6   12   20     -0.75      0.00
    2   13   20     -0.21      0.00
    3   13   20      1.74      0.00
    4   13   20     -0.39      0.00
   -4   -3   21      2.07      0.00
   -4   -2   21     -1.65      0.00
   -3   -2   21     -1.74      0.00
   -2   -2   21     -0.49      0.00
   -1   -2   21      0.43      0.00
    0   -2   21      2.04      0.00
    1   -2   21      2.14      0.00
   -5   -1   21     -0.27      0.00
   -4   -1   21      0.65      0.00
   -3   -1   21      0.60      0.00
   -2   -1   21     -0.29      0.00
   -1   -1   21      0.10      0.00
    0   -1   21      1.34      0.00
    1   -1   21     -1.24      0.00
    2   -1   21     -1.73      0.00
    3   -1   21     -1.32      0.00
   -5    0   21     -0.28      0.00
   -4    0   21     -0.40      0.00
   -3    0   21      0.74      0.00
   -2    0   21      0.42      0.00
   -1    0   21      0.20      0.00
    0    0   21     -1.89      0.00
    1    0   21     -0.47      0.00
    2    0   21      2.40      0.00
    3    0   21      1.78      0.00
    4    0   21      1.55      0.00
   -5    1   21      0.25      0.00
   -4    1   21      0.29      0.00
   -3    1   21     -1.36      0.00
   -2    1   21     -1.06      0.00
   -1    1   21     -0.41      0.00
    0    1   21     -0.20      0.00
    1    1   21      0.27      0.00
    2    1   21     -1.57      0.00
    3    1   21     -0.31      0.00
    4    1   21      0.54      0.00
    5    1   21     -0.02      0.00
   -5    2   21     -0.02      0.00
   -4    2   21      0.41      0.00
   -3    2   21      0.56      0.00
   -2    2   21      0.77      0.00
   -1    2   21     -0.12      0.00
    0    2   21      0.42      0.00
    1    2   21      0.32      0.00
    2    2   21      0.40      0.00
    3    2   21     -0.67      0.00
    4    2   21     -2.23      0.00
    5    2   21     -0.51      0.00
   -5    3   21      0.53      0.00
   -4    3   21     -0.66      0.00
   -3    3   21     -0.17      0.00
   -2    3   21      0.30      0.00
   -1    3   21      0.39      0.00
    0    3   21      0.68      0.00
    1    3   21      0.41      0.00
    2    3   21      0.40      0.00
    3    3   21      0.45      0.00
    4    3   21      1.17      0.00
    5    3   21      0.00      0.00
   -3    4   21      0.21      0.00
   -2    4   21     -0.30      0.00
   -1    4   21     -0.01      0.00
    0    4   21     -0.11      0.00
    1    4   21     -0.87      0.00
    2    4   21     -0.84      0.00
    3    4   21     -0.61      0.00
    4    4   21     -0.33      0.00
    5    4   21     -0.25      0.00
    6    4   21      0.90      0.00
   -2    5   21      0.09      0.00
   -1    5   21      0.67      0.00
    0    5   21     -0.33      0.00
    1    5   21      0.20      0.00
    2    5   21      0.75      0.00
    3    5   21      0.80      0.00
    4    5   21      0.60      0.00
    5    5   21      1.15      0.00
    6    5   21      0.78      0.00
   -4    6   21      0.25      0.00
    0    6   21     -1.48      0.00
    1    6   21      0.42      0.00
    2    6   21      0.18      0.00
    3    6   21      0.15      0.00
    4    6   21     -0.16      0.00
    5    6   21     -0.82      0.00
    6    6   21     -1.32      0.00
    7    6   21      0.11      0.00
   -4    7   21     -1.33      0.00
   -3    7   21     -1.47      0.00
   -2    7   21     -1.22      0.00
    1    7   21     -0.43      0.00
    2    7   21     -1.29      0.00
    3    7   21     -1.15      0.00
    4    7   21     -0.46      0.00
    5    7   21      0.55      0.00
    6    7   21      0.72      0.00
    7    7   21      0.14      0.00
   -3    8   21     -0.51      0.00
   -2    8   21      0.76      0.00
   -1    8   21     -0.48      0.00
    0    8   21     -3.16      0.00
    2    8   21      1.37      0.00
    3    8   21      0.60      0.00
    4    8   21      0.40      0.00
    5    8   21     -0.85      0.00
    6    8   21     -0.84      0.00
    7    8   21     -0.05      0.00
   -2    9   21      1.85      0.00
   -1    9   21     -0.40      0.00
    0    9   21      1.68      0.00
    1    9   21      1.11      0.00
    3    9   21      0.48      0.00
    4    9   21     -0.06      0.00
    5    9   21     -0.16      0.00
    6    9   21      0.48      0.00
    7    9   21      0.16      0.00
   -2   10   21     -2.72      0.00
   -1   10   21      0.02      0.00
    0   10   21      0.15      0.00
    1   10   21     -0.92      0.00
    5   10   21      0.71      0.00
    6   10   21      0.56      0.00
    7   10   21     -0.27      0.00
    0   11   21     -1.26      0.00
    1   11   21     -0.94      0.00
    2   11   21     -0.40      0.00
    5   11   21      0.77      0.00
    6   11   21      0.11      0.00
    1   12   21      2.19      0.00
    2   12   21      0.89      0.00
    3   12   21     -0.20      0.00
   -3   -1   22      0.63      0.00
   -2   -1   22     -1.12      0.00
   -1   -1   22     -1.21      0.00
   -4    0   22     -0.88      0.00
   -3    0   22      0.81      0.00
   -2    0   22      1.80      0.00
   -1    0   22      1.67      0.00
    0    0   22     -1.72      0.00
    1    0   22     -1.28      0.00
    2    0   22      2.11      0.00
   -4    1   22      0.37      0.00
   -3    1   22     -1.52      0.00
   -2    1   22     -2.19      0.00
   -1    1   22     -1.10      0.00
    0    1   22      0.68      0.00
    1    1   22      1.70      0.00
    2    1   22     -1.36      0.00
    3    1   22     -0.71      0.00
   -4    2   22      0.41      0.00
   -3    2   22      0.72      0.00
   -2    2   22      1.39      0.00
   -1    2   22      0.05      0.00
    0    2   22     -0.55      0.00
    1    2   22     -0.70      0.00
    2    2   22      0.43      0.00
    3    2   22     -0.18      0.00
    4    2   22     -2.61      0.00
   -4    3   22     -0.15      0.00
   -3    3   22      0.19      0.00
   -2    3   22      0.13      0.00
   -1    3   22      0.42      0.00
    0    3   22      1.19      0.00
    1    3   22      0.75      0.00
    2    3   22      0.20      0.00
    3    3   22      0.42      0.00
    4    3   22      1.80      0.00
   -4    4   22     -0.96      0.00
   -3    4   22     -0.52      0.00
   -2    4   22     -0.39      0.00
   -1    4   22     -0.15      0.00
    0    4   22     -0.52      0.00
    1    4   22     -1.12      0.00
    2    4   22     -0.77      0.00
    3    4   22     -0.64      0.00
    4    4   22     -0.56      0.00
    5    4   22     -0.39      0.00
   -1    5   22      0.61      0.00
    0    5   22      0.15      0.00
    1    5   22      0.55      0.00
    2    5   22      0.99      0.00
    3    5   22      0.77      0.00
    4    5   22      0.36      0.00
    5    5   22      0.91      0.00
    6    5   22      0.90      0.00
    0    6   22     -1.90      0.00
    1    6   22     -0.06      0.00
    2    6   22     -0.21      0.00
    3    6   22      0.04      0.00
    4    6   22      0.39      0.00
    5    6   22     -0.50      0.00
    6    6   22     -1.67      0.00
   -3    7   22     -1.38      0.00
    1    7   22      0.33      0.00
    2    7   22     -1.04      0.00
    3    7   22     -1.12      0.00
    4    7   22     -1.35      0.00
    5    7   22     -0.34      0.00
    6    7   22      0.90      0.00
   -2    8   22      1.34      0.00
   -1    8   22      0.55      0.00
    2    8   22      1.22      0.00
    3    8   22      0.77      0.00
    4    8   22      0.94      0.00
    5    8   22      0.12      0.00
    6    8   22     -0.67      0.00
   -2    9   22      1.30      0.00
   -1    9   22     -0.67      0.00
    0    9   22      1.21      0.00
    4    9   22      0.33      0.00
    5    9   22     -0.14      0.00
    6    9   22      0.35      0.00
   -1   10   22     -0.60      0.00
    0   10   22     -0.40      0.00
    1   10   22     -1.43      0.00
    4   10   22     -0.80      0.00
    5   10   22      0.40      0.00
    1   11   22     -0.11      0.00
    2   11   22     -0.21      0.00
    5   11   22      0.18      0.00
   -2    0   23      2.07      0.00
   -1    0   23      2.77      0.00
    0    0   23     -0.68      0.00
   -3    1   23     -0.87      0.00
   -2    1   23     -2.43      0.00
   -1    1   23     -2.08      0.00
    0    1   23      0.32      0.00
    1    1   23      2.64      0.00
   -3    2   23      0.40      0.00
   -2    2   23      1.39      0.00
   -1    2   23      0.51      0.00
    0    2   23     -0.81      0.00
    1    2   23     -1.77      0.00
    2    2   23     -0.55      0.00
    3    2   23      0.01      0.00
   -3    3   23      0.69      0.00
   -2    3   23      0.30      0.00
   -1    3   23      0.27      0.00
    0    3   23      1.29      0.00
    1    3   23      1.15      0.00
    2    3   23      0.34      0.00
    3    3   23      0.32      0.00
    4    3   23      1.53      0.00
   -3    4   23     -1.40      0.00
   -2    4   23     -0.69      0.00
   -1    4   23      0.15      0.00
    0    4   23     -0.33      0.00
    1    4   23     -1.12      0.00
    2    4   23     -0.55      0.00
    3    4   23     -0.51      0.00
    4    4   23     -0.53      0.00
    5    4   23     -0.15      0.00
   -3    5   23      1.40      0.00
   -2    5   23      0.38      0.00
   -1    5   23     -0.20      0.00
    0    5   23     -0.34      0.00
    1    5   23      0.62      0.00
    2    5   23      1.18      0.00
    3    5   23      0.76      0.00
    4    5   23      0.23      0.00
    5    5   23      0.27      0.00
    0    6   23     -1.00      0.00
    1    6   23     -0.15      0.00
    2    6   23     -0.81      0.00
    3    6   23     -0.42      0.00
    4    6   23      0.49      0.00
    5    6   23     -0.02      0.00
    1    7   23      0.44      0.00
    2    7   23     -0.40      0.00
    3    7   23     -0.43      0.00
    4    7   23     -1.42      0.00
    5    7   23     -0.82      0.00
    2    8   23      0.76      0.00
    3    8   23      0.46      0.00
    4    8   23      0.96      0.00
    5    8   23      0.65      0.00
    0    9   23      0.22      0.00
    3    9   23      0.47      0.00
    4    9   23      0.52      0.00
    1   10   23     -1.44      0.00
    4   10   23     -1.10      0.00
   -1    2   24      0.60      0.00
    0    2   24     -0.33      0.00
    1    2   24     -1.67      0.00
   -1    3   24      0.40      0.00
    0    3   24      1.02      0.00
    1    3   24      1.05      0.00
    2    3   24      0.33      0.00
   -1    4   24      0.06      0.00
    0    4   24     -0.04      0.00
    1    4   24     -0.75      0.00
    2    4   24     -0.02      0.00
    3    4   24     -0.17      0.00
   -1    5   24     -0.64      0.00
    0    5   24     -1.02      0.00
    1    5   24      0.17      0.00
    2    5   24      0.89      0.00
    3    5   24      0.57      0.00
    0    6   24      0.28      0.00
    1    6   24      0.35      0.00
    2    6   24     -0.96      0.00
    3    6   24     -0.81      0.00
    4    6   24      0.14      0.00
    0    7   24      0.77      0.00
    1    7   24     -0.15      0.00
    2    7   24     -0.10      0.00
    3    7   24      0.26      0.00
    1    8   24     -0.40      0.00
    2    8   24      0.50      0.00
    3    8   24      0.12      0.00
    1    0    0     47.73      0.00
   12    0    0     -1.25      0.00
  -12    1    0      1.73      0.00
    0    1    0    -57.52      0.00
    1    1    0    -43.93      0.00
  -10    2    0      1.64      0.00
    0    2    0      5.51      0.00
    1    2    0     12.70      0.00
  -11    3    0      0.92      0.00
  -10    3    0     -0.22      0.00
   -9    3    0     -0.69      0.00
    1    3    0      6.93      0.00
  -10    4    0      0.50      0.00
   -9    4    0     -0.78      0.00
  -10    5    0     -1.70      0.00
   -9    5    0     -0.20      0.00
   -9    6    0      1.35      0.00
   -9    7    0     -0.91      0.00
   12   10    0      0.36      0.00
   11   12    0      2.31      0.00
   -3   13    0     -2.43      0.00
   11   13    0     -0.90      0.00
   -2   14    0      0.84      0.00
    3   14    0      1.06      0.00
    4   14    0      0.34      0.00
   10   14    0      1.50      0.00
    0   15    0      0.47      0.00
    3   15    0     -0.05      0.00
    4   15    0     -0.28      0.00
    5   15    0      0.51      0.00
    8   15    0      0.81      0.00
    9   15    0      0.25      0.00
    3   16    0      0.30      0.00
    4   16    0      0.39      0.00
    5   16    0      0.59      0.00
    6   16    0      0.44      0.00
    7   16    0      0.30      0.00
   -6  -16    1      0.32      0.00
   -5  -16    1      0.86      0.00
   -4  -16    1      0.51      0.00
   -8  -15    1      0.14      0.00
   -4  -15    1     -0.51      0.00
   -3  -15    1      0.06      0.00
   -1  -15    1      1.02      0.00
    0  -15    1      0.63      0.00
  -10  -14    1      0.67      0.00
   -4  -14    1     -0.15      0.00
   -3  -14    1      0.27      0.00
   -2  -14    1     -1.19      0.00
    2  -14    1     -0.12      0.00
  -11  -13    1     -1.60      0.00
   -3  -13    1     -1.91      0.00
    3  -13    1     -0.96      0.00
  -11  -12    1      3.06      0.00
    4  -12    1      1.72      0.00
    8   -8    1      0.31      0.00
    8   -7    1     -0.15      0.00
    9   -7    1     -0.63      0.00
    9   -6    1      1.15      0.00
    9   -5    1     -0.61      0.00
   10   -5    1     -1.00      0.00
    8   -4    1     -0.81      0.00
    9   -4    1     -0.33      0.00
   10   -4    1      0.47      0.00
    9   -3    1     -0.63      0.00
   10   -3    1     -0.95      0.00
   11   -3    1      0.66      0.00
    0   -2    1      4.92      0.00
   -1   -1    1    -25.31      0.00
    0   -1    1    -46.29      0.00
   12   -1    1      1.80      0.00
  -12    0    1     -0.70      0.00
   -1    0    1     29.41      0.00
    0    0    1     76.78      0.00
    1    0    1     52.19      0.00
   12    0    1     -1.35      0.00
  -12    1    1      0.86      0.00
    0    1    1    -51.92      0.00
    1    1    1    -50.58      0.00
  -10    2    1      1.02      0.00
    1    2    1     13.59      0.00
  -11    3    1      0.56      0.00
  -10    3    1     -0.11      0.00
   -9    3    1     -0.16      0.00
  -10    4    1      0.99      0.00
   -9    4    1     -1.05      0.00
  -10    5    1     -2.25      0.00
   -9    5    1     -0.23      0.00
   -9    6    1      1.57      0.00
   -9    7    1     -0.88      0.00
   -7   10    1      0.71      0.00
   -6   11    1      0.16      0.00
   12   11    1     -2.10      0.00
   -5   12    1      0.14      0.00
   11   12    1      1.69      0.00
   12   12    1      1.87      0.00
   11   13    1     -0.45      0.00
   -2   14    1      1.40      0.00
    4   14    1      1.58      0.00
   10   14    1      1.77      0.00
    0   15    1      0.03      0.00
    4   15    1     -0.40      0.00
    5   15    1      0.51      0.00
    9   15    1      0.74      0.00
    2   16    1      0.47      0.00
    3   16    1     -0.24      0.00
    4   16    1     -0.28      0.00
    5   16    1      0.03      0.00
    6   16    1      0.23      0.00
    7   16    1      0.67      0.00
   -8  -15    2     -0.40      0.00
   -7  -15    2      0.45      0.00
   -3  -15    2      0.07      0.00
   -2  -15    2      0.52      0.00
   -1  -15    2      0.68      0.00
   -9  -14    2     -0.72      0.00
   -4  -14    2     -0.09      0.00
   -3  -14    2      0.20      0.00
   -2  -14    2     -1.42      0.00
    1  -14    2     -1.17      0.00
   -3  -13    2     -1.44      0.00
   -2  -13    2     -0.35      0.00
    3  -13    2      0.59      0.00
  -11  -12    2      3.24      0.00
    4  -12    2      0.47      0.00
  -12  -11    2     -1.60      0.00
    5  -11    2     -0.08      0.00
    7   -9    2     -0.21      0.00
    8   -8    2     -0.28      0.00
    8   -7    2      0.44      0.00
    8   -6    2     -0.32      0.00
    9   -6    2      0.64      0.00
    8   -5    2      0.76      0.00
    9   -5    2     -0.68      0.00
   10   -5    2     -0.53      0.00
    8   -4    2     -1.40      0.00
    9   -4    2     -0.54      0.00
   10   -4    2      0.49      0.00
    9   -3    2      0.67      0.00
   11   -3    2      0.06      0.00
   12   -1    2      0.88      0.00
  -12    0    2     -0.28      0.00
    0    0    2     47.11      0.00
   12    0    2     -0.83      0.00
  -12    1    2     -0.06      0.00
  -11    2    2     -0.17      0.00
    1    2    2      9.11      0.00
  -11    3    2      0.17      0.00
  -10    3    2     -0.78      0.00
    0    3    2      7.16      0.00
  -10    4    2      1.61      0.00
  -10    5    2     -1.95      0.00
   -9    7    2     -0.45      0.00
   -7   10    2      0.68      0.00
   12   11    2     -2.17      0.00
   -5   12    2      0.25      0.00
   12   12    2      1.81      0.00
   -4   13    2     -0.75      0.00
   -2   14    2      1.06      0.00
    4   14    2      2.58      0.00
   -1   15    2     -0.45      0.00
    4   15    2     -0.66      0.00
    5   15    2     -0.47      0.00
    9   15    2      1.53      0.00
    1   16    2      1.35      0.00
    2   16    2      1.04      0.00
    5   16    2     -0.44      0.00
    7   16    2      0.50      0.00
    8   16    2     -0.63      0.00
   -7  -15    3      0.34      0.00
   -6  -15    3      0.96      0.00
   -5  -15    3      0.31      0.00
   -4  -15    3     -0.21      0.00
   -3  -15    3      0.06      0.00
   -2  -15    3      0.50      0.00
   -9  -14    3     -1.09      0.00
   -3  -14    3      0.34      0.00
   -2  -14    3     -0.89      0.00
   -1  -14    3     -1.20      0.00
    1  -14    3     -0.98      0.00
  -10  -13    3     -1.40      0.00
   -3  -13    3     -0.94      0.00
   -2  -13    3     -0.73      0.00
   -1  -13    3      0.64      0.00
  -11  -12    3      2.37      0.00
  -10  -12    3      1.89      0.00
   -2  -12    3      2.65      0.00
   -1  -12    3      1.49      0.00
    4  -12    3     -0.38      0.00
   -2  -11    3     -2.12      0.00
    5  -11    3      0.02      0.00
    6  -10    3     -0.19      0.00
    7   -9    3     -0.61      0.00
    7   -8    3      0.79      0.00
    8   -8    3     -0.31      0.00
    7   -7    3      0.34      0.00
    8   -7    3      0.70      0.00
    7   -6    3     -1.51      0.00
    8   -6    3     -0.90      0.00
    9   -6    3     -0.14      0.00
    8   -5    3      1.31      0.00
    9   -5    3     -0.14      0.00
   10   -5    3     -0.13      0.00
    8   -4    3     -1.58      0.00
    9   -4    3     -1.22      0.00
    9   -3    3      2.09      0.00
   11   -3    3     -0.07      0.00
    1   -2    3     -0.19      0.00
  -12    0    3     -0.22      0.00
   12    0    3     -0.35      0.00
  -12    1    3     -0.71      0.00
  -11    2    3      0.28      0.00
    1    2    3      3.72      0.00
  -11    3    3      0.10      0.00
   -1    3    3      0.18      0.00
  -10    5    3     -1.08      0.00
   -9    7    3      0.52      0.00
   -8    9    3      0.45      0.00
   12   11    3     -1.59      0.00
   -5   12    3     -0.12      0.00
   12   12    3      1.34      0.00
   -4   13    3     -0.21      0.00
   -2   14    3      0.10      0.00
    5   14    3      2.42      0.00
   11   14    3      0.11      0.00
   -1   15    3      0.05      0.00
    5   15    3     -1.65      0.00
    6   15    3     -1.44      0.00
   10   15    3      0.12      0.00
    1   16    3      1.97      0.00
    2   16    3      2.07      0.00
    5   16    3     -0.52      0.00
    6   16    3      0.65      0.00
    7   16    3      0.37      0.00
    8   16    3     -1.23      0.00
   -6  -15    4      0.70      0.00
   -5  -15    4      0.74      0.00
   -4  -15    4      0.47      0.00
   -3  -15    4      0.09      0.00
   -8  -14    4      0.40      0.00
   -2  -14    4     -0.32      0.00
   -1  -14    4     -0.61      0.00
    0  -14    4      0.11      0.00
  -10  -13    4     -0.87      0.00
   -2  -13    4     -1.19      0.00
   -1  -13    4     -0.19      0.00
    0  -13    4     -0.36      0.00
    2  -13    4      1.50      0.00
  -11  -12    4      1.01      0.00
  -10  -12    4      1.12      0.00
   -2  -12    4      1.85      0.00
   -1  -12    4      2.04      0.00
    0  -12    4      1.39      0.00
    1  -12    4      0.80      0.00
    2  -12    4      0.22      0.00
    3  -12    4     -0.60      0.00
   -1  -11    4     -2.60      0.00
    0  -11    4     -1.99      0.00
    3  -11    4     -2.22      0.00
    4  -11    4     -0.29      0.00
    5  -11    4     -0.09      0.00
  -12  -10    4     -1.28      0.00
    5  -10    4     -0.74      0.00
    6  -10    4     -0.24      0.00
    5   -9    4      1.51      0.00
    6   -9    4      0.32      0.00
    7   -9    4     -0.66      0.00
    6   -8    4      0.24      0.00
    7   -8    4      0.99      0.00
    6   -7    4     -1.01      0.00
    7   -7    4     -0.46      0.00
    8   -7    4      0.23      0.00
    7   -6    4     -0.43      0.00
    8   -6    4     -0.77      0.00
    9   -6    4     -0.56      0.00
    7   -5    4      0.58      0.00
    8   -5    4      1.26      0.00
    9   -5    4      0.40      0.00
    8   -4    4     -1.17      0.00
    9   -4    4     -1.55      0.00
   10   -4    4     -0.37      0.00
   11   -2    4      0.20      0.00
   12    0    4     -0.50      0.00
  -12    1    4     -1.04      0.00
    1    2    4      1.18      0.00
   -8    9    4      0.83      0.00
   12   11    4     -0.52      0.00
   12   12    4      0.49      0.00
   -4   13    4      0.68      0.00
   -3   14    4     -0.20      0.00
    5   14    4      2.29      0.00
   11   14    4      0.39      0.00
   -1   15    4      0.79      0.00
    5   15    4     -1.84      0.00
    6   15    4     -2.60      0.00
   10   15    4      0.87      0.00
    1   16    4      1.76      0.00
    5   16    4     -0.43      0.00
    6   16    4      1.44      0.00
    8   16    4     -1.43      0.00
   -8  -14    5      0.49      0.00
   -7  -14    5      0.39      0.00
   -2  -14    5     -0.12      0.00
   -1  -14    5     -0.52      0.00
   -9  -13    5     -0.38      0.00
   -1  -13    5     -0.80      0.00
    0  -13    5     -0.77      0.00
    1  -13    5      0.05      0.00
  -10  -12    5      0.22      0.00
   -1  -12    5      2.25      0.00
    0  -12    5      1.71      0.00
    1  -12    5      0.51      0.00
    2  -12    5     -0.06      0.00
    3  -12    5     -0.18      0.00
   -1  -11    5     -1.90      0.00
    0  -11    5     -2.33      0.00
    1  -11    5     -0.84      0.00
    2  -11    5     -1.76      0.00
    3  -11    5     -2.45      0.00
    4  -11    5     -1.02      0.00
    0  -10    5      2.23      0.00
    1  -10    5      0.48      0.00
    2  -10    5      1.19      0.00
    3  -10    5      3.47      0.00
    4  -10    5      1.66      0.00
    5  -10    5     -0.16      0.00
    4   -9    5     -0.43      0.00
    5   -9    5      1.36      0.00
    6   -9    5      1.15      0.00
    5   -8    5     -1.08      0.00
    6   -8    5     -0.78      0.00
    7   -8    5      0.34      0.00
    5   -7    5     -0.22      0.00
    6   -7    5     -0.78      0.00
    7   -7    5     -0.62      0.00
    8   -7    5     -0.42      0.00
    6   -6    5      1.25      0.00
    7   -6    5      0.73      0.00
    8   -6    5     -0.01      0.00
    9   -6    5     -0.27      0.00
    7   -5    5     -0.29      0.00
    8   -5    5      0.62      0.00
   10   -4    5     -0.44      0.00
   11   -2    5     -0.24      0.00
   12    0    5     -0.85      0.00
   12    1    5      1.12      0.00
   -8    9    5      0.83      0.00
   12   11    5      0.10      0.00
   12   12    5     -0.05      0.00
   -4   13    5      2.21      0.00
   -3   14    5     -0.63      0.00
   11   14    5      1.03      0.00
   -1   15    5      1.12      0.00
    5   15    5     -0.82      0.00
    6   15    5     -2.74      0.00
   10   15    5      1.09      0.00
    1   16    5      0.80      0.00
    6   16    5      1.57      0.00
    8   16    5     -0.85      0.00
    9   16    5     -1.15      0.00
   -7  -14    6      0.01      0.00
   -6  -14    6     -0.12      0.00
   -5  -14    6     -0.04      0.00
   -4  -14    6     -1.40      0.00
   -3  -14    6     -0.61      0.00
   -2  -14    6      0.05      0.00
   -1  -14    6     -0.66      0.00
   -9  -13    6     -0.84      0.00
    0  -13    6     -0.61      0.00
    1  -13    6      0.00      0.00
  -10  -12    6      0.02      0.00
   -9  -12    6      0.63      0.00
    0  -12    6      1.84      0.00
    1  -12    6      0.31      0.00
    2  -12    6     -0.38      0.00
  -10  -11    6      0.17      0.00
    0  -11    6     -2.15      0.00
    1  -11    6     -0.57      0.00
    2  -11    6     -0.74      0.00
    3  -11    6     -1.63      0.00
    4  -11    6     -1.08      0.00
    1  -10    6      0.21      0.00
    2  -10    6      0.76      0.00
    3  -10    6      2.72      0.00
    4  -10    6      1.68      0.00
    5  -10    6      0.27      0.00
    3   -9    6     -1.21      0.00
    4   -9    6     -0.28      0.00
    5   -9    6      1.19      0.00
    6   -9    6      1.55      0.00
    4   -8    6     -1.16      0.00
    5   -8    6     -1.90      0.00
    6   -8    6     -1.90      0.00
    7   -8    6     -0.72      0.00
    5   -7    6      0.98      0.00
    6   -7    6      0.27      0.00
    7   -7    6      0.10      0.00
    8   -7    6     -0.59      0.00
    6   -6    6      0.98      0.00
    7   -6    6      1.16      0.00
    8   -6    6      0.64      0.00
    9   -5    6      0.10      0.00
   10   -4    6     -0.32      0.00
   11   -2    6      0.22      0.00
   12    1    6      0.89      0.00
   12    3    6     -0.26      0.00
   -8    9    6      0.80      0.00
   12   10    6      0.14      0.00
   12   11    6     -0.32      0.00
   12   12    6      0.20      0.00
   -4   13    6      3.74      0.00
   -3   14    6     -1.28      0.00
   11   14    6      1.41      0.00
   -1   15    6      0.83      0.00
    6   15    6     -2.09      0.00
   10   15    6      0.83      0.00
    0   16    6     -0.57      0.00
    1   16    6     -0.06      0.00
    6   16    6      0.75      0.00
    7   16    6      1.43      0.00
    8   16    6     -0.18      0.00
    9   16    6     -0.24      0.00
   -6  -14    7     -0.45      0.00
   -5  -14    7     -0.01      0.00
   -4  -14    7     -0.43      0.00
   -3  -14    7     -0.02      0.00
   -8  -13    7     -1.54      0.00
   -1  -13    7     -0.67      0.00
    0  -13    7     -0.20      0.00
   -9  -12    7      1.06      0.00
    1  -12    7      0.11      0.00
    2  -12    7     -0.64      0.00
  -10  -11    7      0.09      0.00
    1  -11    7     -0.44      0.00
    2  -11    7      0.22      0.00
    3  -11    7     -0.39      0.00
  -11  -10    7     -0.40      0.00
    1  -10    7     -0.17      0.00
    2  -10    7     -0.01      0.00
    3  -10    7      1.26      0.00
    4  -10    7      0.70      0.00
    5  -10    7      0.23      0.00
    3   -9    7     -0.87      0.00
    4   -9    7      0.19      0.00
    5   -9    7      1.08      0.00
    6   -9    7      1.30      0.00
    4   -8    7     -1.10      0.00
    5   -8    7     -2.11      0.00
    6   -8    7     -2.30      0.00
    7   -8    7     -1.29      0.00
    5   -7    7      1.35      0.00
    6   -7    7      1.20      0.00
    9   -5    7     -0.32      0.00
   10   -3    7      1.27      0.00
   11   -1    7     -1.00      0.00
  -12    0    7     -0.16      0.00
   12    1    7      0.39      0.00
   12    2    7     -0.14      0.00
  -11    3    7      1.42      0.00
   12    3    7      0.00      0.00
   12    4    7     -0.98      0.00
   12   10    7      0.64      0.00
   12   11    7     -1.22      0.00
   12   12    7      0.75      0.00
   -3   14    7     -1.74      0.00
    6   14    7      3.65      0.00
   11   14    7      1.09      0.00
   -1   15    7      0.33      0.00
    6   15    7     -1.91      0.00
    7   15    7     -1.33      0.00
   10   15    7      0.30      0.00
    0   16    7     -0.48      0.00
    1   16    7     -0.18      0.00
    6   16    7     -0.07      0.00
    7   16    7      0.82      0.00
    8   16    7     -0.34      0.00
    9   16    7      0.30      0.00
   -7  -13    8     -0.44      0.00
   -2  -13    8     -0.87      0.00
   -1  -13    8     -0.54      0.00
   -9  -12    8      1.11      0.00
    1  -12    8      0.02      0.00
  -10  -11    8      0.42      0.00
   -9  -11    8     -0.38      0.00
    3  -11    8      0.54      0.00
    4  -10    8     -0.56      0.00
    7   -7    8      1.54      0.00
  -12   -6    8      0.59      0.00
    8   -6    8      0.50      0.00
    9   -5    8     -0.73      0.00
   10   -3    8      1.92      0.00
  -12   -1    8     -2.84      0.00
   11   -1    8     -0.51      0.00
   12    2    8     -0.31      0.00
  -11    3    8      1.77      0.00
   12    3    8      0.28      0.00
   12    4    8     -0.80      0.00
   12    5    8      0.98      0.00
   -9    7    8      1.54      0.00
   -7   10    8     -1.18      0.00
   12   10    8      0.72      0.00
   12   11    8     -1.65      0.00
   12   12    8      0.82      0.00
   -3   14    8     -1.44      0.00
    6   14    8      4.13      0.00
   11   14    8      0.46      0.00
   -1   15    8      0.05      0.00
    6   15    8     -2.81      0.00
    7   15    8     -1.71      0.00
   10   15    8     -0.23      0.00
    0   16    8     -0.25      0.00
    1   16    8      0.28      0.00
    6   16    8      0.13      0.00
    7   16    8      0.78      0.00
    8   16    8     -1.07      0.00
    9   16    8     -0.18      0.00
   -6  -13    9     -0.87      0.00
   -5  -13    9     -0.64      0.00
   -4  -13    9     -0.79      0.00
   -3  -13    9     -1.33      0.00
   -2  -13    9     -0.87      0.00
   -8  -12    9      1.35      0.00
    0  -12    9      0.75      0.00
    1  -12    9     -0.01      0.00
   -9  -11    9      0.14      0.00
   -8  -11    9     -0.78      0.00
    2  -11    9      0.56      0.00
    4  -10    9     -1.32      0.00
    5   -9    9      1.10      0.00
    6   -8    9     -1.09      0.00
    7   -7    9      1.39      0.00
    8   -6    9      0.01      0.00
  -11   -5    9     -4.49      0.00
  -12   -4    9      8.71      0.00
    9   -4    9      0.08      0.00
  -12   -3    9     -7.15      0.00
   10   -2    9     -1.84      0.00
   11    0    9      0.57      0.00
   12    2    9     -0.20      0.00
   12    3    9      0.29      0.00
   12    4    9     -0.31      0.00
  -10    5    9     -1.66      0.00
   12    5    9      0.27      0.00
   12    6    9     -0.11      0.00
   -9    7    9      0.48      0.00
   12    9    9      0.94      0.00
   -7   10    9     -0.88      0.00
   12   10    9      0.48      0.00
   12   11    9     -1.39      0.00
   12   12    9      0.42      0.00
   -1   13    9      1.61      0.00
   -3   14    9     -0.60      0.00
   -2   14    9     -0.45      0.00
    6   14    9      3.67      0.00
   11   14    9      0.24      0.00
   -1   15    9      0.08      0.00
    6   15    9     -3.75      0.00
    7   15    9     -2.76      0.00
   10   15    9     -0.52      0.00
    0   16    9      0.01      0.00
    1   16    9      0.92      0.00
    6   16    9      1.08      0.00
    7   16    9      1.82      0.00
    8   16    9     -1.20      0.00
    9   16    9     -1.16      0.00
   -7  -12   10      0.16      0.00
   -6  -12   10      1.55      0.00
   -2  -12   10      1.92      0.00
   -1  -12   10      0.03      0.00
    0  -12   10      0.02      0.00
   -8  -11   10     -0.05      0.00
   -7  -11   10     -0.11      0.00
    1  -11   10     -0.47      0.00
    2  -11   10      0.25      0.00
   -9  -10   10     -0.59      0.00
    3  -10   10     -0.90      0.00
    4   -9   10      1.39      0.00
    7   -6   10     -1.17      0.00
    8   -5   10      0.23      0.00
    9   -4   10      0.58      0.00
   10   -2   10     -0.97      0.00
   11    0   10      0.49      0.00
   11    1   10     -0.86      0.00
  -11    2   10     -1.19      0.00
   11    2   10      0.03      0.00
   12    3   10      0.12      0.00
   12    4   10      0.09      0.00
   12    5   10     -0.50      0.00
   12    6   10      0.15      0.00
   12    7   10      0.86      0.00
   12    8   10     -1.38      0.00
   12    9   10      0.82      0.00
   -7   10   10      0.08      0.00
   12   10   10      0.39      0.00
   -6   11   10      2.12      0.00
   12   11   10     -0.96      0.00
   -5   12   10     -1.98      0.00
   12   12   10      0.12      0.00
   -4   13   10      0.02      0.00
   11   13   10      0.10      0.00
   -3   14   10     -0.06      0.00
   -2   14   10     -1.02      0.00
   -1   14   10     -0.85      0.00
    6   14   10      1.92      0.00
   11   14   10      0.50      0.00
   -1   15   10      0.45      0.00
    6   15   10     -3.31      0.00
    7   15   10     -3.28      0.00
   10   15   10     -0.51      0.00
    0   16   10      0.22      0.00
    1   16   10      1.51      0.00
    7   16   10      2.84      0.00
    8   16   10     -0.34      0.00
    9   16   10     -1.48      0.00
   -6  -12   11      0.72      0.00
   -5  -12   11      1.99      0.00
   -4  -12   11      1.00      0.00
   -3  -12   11      1.88      0.00
   -2  -12   11      2.17      0.00
   -8  -11   11      0.28      0.00
   -7  -11   11      0.21      0.00
    0  -11   11      0.86      0.00
    1  -11   11      0.18      0.00
   -9  -10   11     -0.03      0.00
   -8  -10   11     -0.29      0.00
    2  -10   11      0.12      0.00
    4   -9   11      0.99      0.00
    5   -8   11     -0.40      0.00
    6   -7   11     -0.52      0.00
  -11   -6   11      1.47      0.00
    7   -6   11     -0.66      0.00
    8   -5   11      0.89      0.00
    9   -3   11      0.06      0.00
   10   -1   11     -0.22      0.00
  -11    1   11     -0.38      0.00
   11    1   11     -0.59      0.00
   11    2   11      0.01      0.00
   11    3   11     -0.01      0.00
  -10    4   11      0.50      0.00
   12    4   11      0.22      0.00
   12    5   11     -1.01      0.00
   12    6   11      0.52      0.00
   12    7   11      1.08      0.00
   -8    8   11      0.21      0.00
   12    8   11     -1.53      0.00
   12    9   11      0.51      0.00
   12   10   11      0.43      0.00
   -6   11   11      0.99      0.00
   12   11   11     -0.57      0.00
   -5   12   11     -1.68      0.00
   -4   13   11      0.11      0.00
   11   13   11     -0.42      0.00
   -3   14   11     -0.20      0.00
   -2   14   11     -1.84      0.00
   -1   14   11     -0.93      0.00
    6   14   11     -0.27      0.00
   10   14   11      0.39      0.00
   -1   15   11      1.17      0.00
    6   15   11     -1.66      0.00
    7   15   11     -2.31      0.00
    9   15   11     -0.01      0.00
   10   15   11     -0.33      0.00
    1   16   11      1.77      0.00
    2   16   11      3.18      0.00
    3   16   11      1.20      0.00
    7   16   11      2.56      0.00
    8   16   11      0.52      0.00
   -7  -11   12      0.03      0.00
   -6  -11   12     -0.04      0.00
   -3  -11   12     -1.05      0.00
   -1  -11   12     -0.48      0.00
    0  -11   12      0.80      0.00
   -8  -10   12      0.29      0.00
   -7  -10   12     -0.07      0.00
   -6  -10   12     -0.06      0.00
    1  -10   12     -0.77      0.00
    2  -10   12     -0.32      0.00
    3   -9   12     -0.42      0.00
    4   -8   12      0.43      0.00
    7   -5   12      0.19      0.00
  -11   -4   12     -2.19      0.00
    8   -4   12     -0.88      0.00
  -11   -3   12      1.72      0.00
    9   -3   12      0.27      0.00
  -11   -2   12     -0.51      0.00
  -11   -1   12     -0.39      0.00
   10   -1   12      0.25      0.00
   10    0   12     -0.26      0.00
   11    1   12      0.13      0.00
   11    2   12     -0.33      0.00
   11    3   12     -0.29      0.00
   11    4   12      1.65      0.00
   12    5   12     -1.18      0.00
   -9    6   12      1.69      0.00
   12    6   12      0.86      0.00
   12    7   12      0.91      0.00
   -8    8   12      0.54      0.00
   12    8   12     -1.40      0.00
   12    9   12      0.34      0.00
   12   10   12      0.16      0.00
   -5   12   12     -0.67      0.00
   -4   13   12      0.20      0.00
   11   13   12     -0.51      0.00
   -2   14   12     -2.47      0.00
   -1   14   12     -0.83      0.00
    6   14   12     -1.54      0.00
   10   14   12     -0.10      0.00
   -1   15   12      1.79      0.00
    6   15   12     -0.32      0.00
    7   15   12     -0.59      0.00
    9   15   12     -0.38      0.00
    1   16   12      1.27      0.00
    2   16   12      3.17      0.00
    3   16   12      1.56      0.00
    7   16   12      1.27      0.00
    8   16   12      0.53      0.00
   -5  -11   13      0.44      0.00
   -4  -11   13     -0.17      0.00
   -3  -11   13     -0.37      0.00
   -2  -11   13     -1.59      0.00
   -7  -10   13      0.30      0.00
   -6  -10   13      0.71      0.00
   -5  -10   13     -0.88      0.00
   -3  -10   13      0.61      0.00
   -2  -10   13      0.89      0.00
    0  -10   13     -0.39      0.00
    1  -10   13     -0.72      0.00
   -7   -9   13     -0.96      0.00
    2   -9   13      0.86      0.00
    4   -8   13      0.28      0.00
    5   -7   13      0.01      0.00
    6   -6   13      0.84      0.00
    7   -5   13     -0.44      0.00
    9   -2   13     -0.12      0.00
    9   -1   13     -0.03      0.00
   10    0   13     -0.20      0.00
   10    1   13     -0.38      0.00
   11    2   13     -0.37      0.00
  -10    3   13     -0.63      0.00
   11    3   13     -0.57      0.00
   11    4   13      1.87      0.00
   11    5   13     -2.38      0.00
   12    7   13      0.45      0.00
   12    8   13     -0.93      0.00
   -7    9   13      0.60      0.00
   11    9   13      1.13      0.00
   12    9   13      0.31      0.00
   11   10   13     -2.02      0.00
   11   12   13     -0.72      0.00
    6   13   13      2.75      0.00
   11   13   13     -0.35      0.00
   -1   14   13     -0.58      0.00
    6   14   13     -1.71      0.00
    7   14   13     -1.98      0.00
   10   14   13     -0.49      0.00
   -1   15   13      1.68      0.00
    0   15   13      0.95      0.00
    1   15   13     -0.06      0.00
    6   15   13     -0.04      0.00
    7   15   13      0.43      0.00
    9   15   13     -0.23      0.00
    1   16   13      0.12      0.00
    2   16   13      2.12      0.00
    3   16   13      1.54      0.00
    7   16   13      0.33      0.00
    8   16   13      0.08      0.00
   -6  -10   14      0.91      0.00
   -5  -10   14     -0.70      0.00
   -4  -10   14     -0.91      0.00
   -3  -10   14      0.44      0.00
   -2  -10   14      0.68      0.00
   -1  -10   14      0.51      0.00
   -6   -9   14     -1.39      0.00
   -5   -9   14     -0.44      0.00
    1   -9   14     -0.94      0.00
    2   -9   14      0.83      0.00
    3   -8   14     -0.84      0.00
    4   -7   14      0.22      0.00
  -10   -5   14      0.95      0.00
    7   -4   14      0.83      0.00
    8   -3   14     -0.78      0.00
    8   -2   14      1.25      0.00
    9   -1   14     -0.33      0.00
    9    0   14      0.60      0.00
   10    1   14     -1.10      0.00
  -10    2   14      0.01      0.00
   10    2   14      1.46      0.00
   11    3   14     -0.75      0.00
   11    4   14      1.53      0.00
   -9    5   14      0.86      0.00
   11    5   14     -1.84      0.00
   11    6   14      1.40      0.00
   -8    7   14     -0.18      0.00
   11    7   14     -0.40      0.00
   11    8   14     -0.71      0.00
   11    9   14      1.52      0.00
   -6   10   14     -1.20      0.00
   11   11   14      1.52      0.00
   11   12   14     -0.42      0.00
    6   13   14      3.47      0.00
   10   13   14     -0.14      0.00
   -1   14   14     -0.29      0.00
    6   14   14     -1.82      0.00
    7   14   14     -2.34      0.00
   10   14   14     -0.52      0.00
    0   15   14      0.74      0.00
    6   15   14     -0.04      0.00
    7   15   14      0.53      0.00
    8   15   14      0.64      0.00
    9   15   14      0.15      0.00
    2   16   14      0.48      0.00
    3   16   14      0.95      0.00
    4   16   14      0.55      0.00
    6   16   14      0.10      0.00
    7   16   14      0.26      0.00
   -6   -9   15     -0.86      0.00
   -5   -9   15     -0.45      0.00
   -4   -9   15      0.87      0.00
   -3   -9   15     -0.15      0.00
   -2   -9   15     -0.49      0.00
   -1   -9   15     -0.47      0.00
    0   -9   15     -1.10      0.00
   -6   -8   15      1.13      0.00
    0   -8   15      1.72      0.00
    1   -8   15      2.36      0.00
    2   -8   15      0.18      0.00
    4   -7   15      0.11      0.00
    5   -6   15     -0.14      0.00
    6   -5   15     -0.47      0.00
    6   -4   15      1.43      0.00
    7   -3   15     -0.55      0.00
  -10   -2   15      2.55      0.00
    8   -2   15      0.59      0.00
  -10   -1   15     -3.29      0.00
    8   -1   15     -0.30      0.00
    9    0   15      0.09      0.00
    9    1   15      0.10      0.00
   10    2   15      1.31      0.00
   10    3   15     -0.50      0.00
   -9    4   15      0.61      0.00
   11    5   15     -0.89      0.00
   11    6   15      0.76      0.00
   11    7   15     -0.07      0.00
   11    8   15     -1.02      0.00
   11    9   15      1.56      0.00
   11   10   15     -1.15      0.00
   -5   11   15      0.47      0.00
   11   11   15      0.43      0.00
    6   13   15      4.48      0.00
   10   13   15     -0.14      0.00
   -2   14   15     -1.04      0.00
   -1   14   15     -0.33      0.00
    6   14   15     -2.46      0.00
    7   14   15     -2.68      0.00
    9   14   15     -0.10      0.00
    0   15   15      0.28      0.00
    1   15   15      0.86      0.00
    6   15   15      0.47      0.00
    7   15   15      0.55      0.00
    8   15   15      1.11      0.00
    2   16   15     -0.61      0.00
    3   16   15      0.25      0.00
    4   16   15      0.64      0.00
    5   16   15      0.61      0.00
    6   16   15     -0.13      0.00
    7   16   15      0.39      0.00
   -4   -9   16      0.75      0.00
   -3   -9   16      0.17      0.00
   -2   -9   16     -0.09      0.00
   -6   -8   16      0.54      0.00
   -5   -8   16      0.68      0.00
   -4   -8   16     -0.07      0.00
   -3   -8   16     -0.43      0.00
   -2   -8   16     -0.65      0.00
   -1   -8   16      0.01      0.00
    0   -8   16      1.18      0.00
    1   -8   16      1.53      0.00
   -7   -7   16     -0.09      0.00
    1   -7   16     -0.40      0.00
    2   -7   16     -0.12      0.00
    3   -7   16      0.19      0.00
    3   -6   16      0.04      0.00
    4   -6   16      0.69      0.00
    4   -5   16     -0.98      0.00
    5   -5   16     -0.80      0.00
    5   -4   16      2.10      0.00
    6   -4   16      1.68      0.00
    6   -3   16     -1.97      0.00
    7   -3   16     -0.98      0.00
    7   -2   16     -0.22      0.00
    8   -1   16     -0.05      0.00
    8    0   16      0.12      0.00
    9    0   16     -0.07      0.00
    9    1   16      0.73      0.00
    9    2   16     -0.85      0.00
   -9    3   16      0.20      0.00
   10    3   16     -0.33      0.00
   10    4   16      0.12      0.00
   10    5   16     -0.42      0.00
   11    6   16      0.12      0.00
   10    7   16      1.84      0.00
   11    7   16      0.28      0.00
   10    8   16     -2.39      0.00
   11    8   16     -1.15      0.00
   11    9   16      1.36      0.00
   11   10   16     -0.49      0.00
    5   12   16     -4.93      0.00
   10   12   16      0.05      0.00
    6   13   16      4.55      0.00
    9   13   16     -1.96      0.00
   10   13   16     -0.28      0.00
   -1   14   16     -0.78      0.00
    6   14   16     -2.82      0.00
    7   14   16     -2.79      0.00
    9   14   16      0.10      0.00
    0   15   16      0.25      0.00
    1   15   16      0.42      0.00
    2   15   16     -1.48      0.00
    6   15   16      1.10      0.00
    7   15   16      0.80      0.00
    8   15   16      1.61      0.00
    3   16   16      0.05      0.00
    4   16   16      0.54      0.00
    5   16   16      0.51      0.00
    6   16   16     -0.53      0.00
   -5   -8   17      0.03      0.00
   -4   -8   17     -0.16      0.00
   -3   -8   17     -0.14      0.00
   -2   -8   17     -0.96      0.00
   -1   -8   17     -0.41      0.00
   -6   -7   17     -0.35      0.00
   -5   -7   17     -0.97      0.00
   -4   -7   17     -0.29      0.00
   -3   -7   17      0.42      0.00
   -2   -7   17      1.87      0.00
   -1   -7   17      1.38      0.00
    0   -7   17     -0.33      0.00
    1   -7   17     -0.33      0.00
    2   -7   17      0.02      0.00
   -7   -6   17     -0.33      0.00
   -6   -6   17     -0.37      0.00
    2   -6   17     -1.11      0.00
    3   -6   17     -0.13      0.00
    3   -5   17      0.85      0.00
    4   -5   17     -0.38      0.00
    5   -4   17      0.91      0.00
    6   -3   17     -1.64      0.00
   -9   -2   17      0.47      0.00
    6   -2   17      0.39      0.00
    7   -2   17     -0.04      0.00
    7   -1   17      0.73      0.00
   -9    0   17     -0.49      0.00
    8    0   17      0.37      0.00
   -9    1   17     -0.18      0.00
    8    1   17     -0.28      0.00
    9    1   17      0.60      0.00
    9    2   17     -0.95      0.00
    9    3   17     -0.08      0.00
   10    4   17      0.38      0.00
   -8    5   17     -1.69      0.00
   10    5   17     -0.69      0.00
   10    6   17      0.24      0.00
   -7    7   17      0.26      0.00
   10    7   17      1.12      0.00
   10    8   17     -1.78      0.00
   10   10   17      0.29      0.00
   10   11   17     -0.18      0.00
    5   12   17     -2.97      0.00
   10   12   17      0.05      0.00
   -2   13   17      0.71      0.00
    5   13   17      2.65      0.00
    6   13   17      3.02      0.00
    9   13   17     -1.78      0.00
   -1   14   17     -1.11      0.00
    0   14   17     -1.92      0.00
    6   14   17     -2.16      0.00
    7   14   17     -1.91      0.00
    8   14   17     -2.32      0.00
    1   15   17      0.21      0.00
    2   15   17     -2.05      0.00
    3   15   17     -2.04      0.00
    6   15   17      1.14      0.00
    7   15   17      0.70      0.00
   -5   -7   18     -0.77      0.00
   -4   -7   18     -0.46      0.00
   -3   -7   18     -0.58      0.00
   -2   -7   18      0.89      0.00
   -1   -7   18      1.36      0.00
    0   -7   18      0.00      0.00
   -6   -6   18     -0.25      0.00
   -5   -6   18      1.32      0.00
   -1   -6   18     -1.27      0.00
    0   -6   18     -0.20      0.00
    1   -6   18     -0.13      0.00
    2   -6   18     -0.46      0.00
   -7   -5   18      1.46      0.00
   -6   -5   18      1.42      0.00
    2   -5   18      0.99      0.00
    3   -5   18      0.60      0.00
    4   -4   18     -0.67      0.00
    5   -3   18     -0.32      0.00
    6   -2   18      0.33      0.00
    7   -1   18      0.79      0.00
    7    0   18     -0.20      0.00
    8    1   18     -0.46      0.00
    8    2   18     -0.10      0.00
    9    3   18      0.16      0.00
   -4    4   18     -0.04      0.00
    9    4   18      0.76      0.00
    9    5   18     -1.40      0.00
    9    6   18      1.56      0.00
   10    6   18      0.42      0.00
    9    7   18     -0.64      0.00
   10    7   18      0.29      0.00
   10    8   18     -1.02      0.00
   10    9   18      0.65      0.00
   10   10   18      0.27      0.00
   -4   11   18      1.33      0.00
   -3   12   18     -1.35      0.00
   -2   12   18     -1.21      0.00
    5   12   18     -1.47      0.00
    9   12   18      0.93      0.00
   -1   13   18      1.35      0.00
    5   13   18      0.81      0.00
    6   13   18      1.05      0.00
    8   13   18      0.23      0.00
    9   13   18     -0.91      0.00
    0   14   18     -1.57      0.00
    1   14   18     -0.12      0.00
    6   14   18     -1.03      0.00
    7   14   18     -0.28      0.00
    8   14   18     -1.22      0.00
    2   15   18     -1.82      0.00
    3   15   18     -1.46      0.00
    4   15   18     -0.16      0.00
    5   15   18      0.30      0.00
    6   15   18      0.80      0.00
   -5   -6   19      1.17      0.00
   -4   -6   19      1.55      0.00
   -3   -6   19      1.02      0.00
   -2   -6   19      0.77      0.00
   -1   -6   19     -0.26      0.00
    0   -6   19      0.00      0.00
   -6   -5   19      1.40      0.00
   -5   -5   19      0.15      0.00
   -4   -5   19     -1.35      0.00
    0   -5   19     -0.39      0.00
    1   -5   19      0.60      0.00
    2   -5   19      0.38      0.00
   -5   -4   19     -2.02      0.00
    2   -4   19     -1.64      0.00
    3   -4   19     -0.76      0.00
    4   -4   19     -0.43      0.00
   -7   -3   19     -0.53      0.00
    4   -3   19      0.74      0.00
    5   -3   19      0.07      0.00
   -7   -2   19      1.13      0.00
    5   -2   19      0.52      0.00
    6   -1   19     -0.31      0.00
    7    0   19     -0.21      0.00
    7    1   19      0.28      0.00
    8    2   19     -0.02      0.00
   -6    3   19     -0.22      0.00
    8    3   19      0.51      0.00
   -6    4   19     -0.61      0.00
   -5    4   19      0.67      0.00
   -4    4   19      0.13      0.00
    8    4   19     -0.11      0.00
    9    4   19      0.20      0.00
   -5    5   19     -0.17      0.00
    9    5   19     -0.69      0.00
    9    6   19      1.36      0.00
    9    7   19     -0.78      0.00
   -5    8   19      0.69      0.00
   -5    9   19     -1.27      0.00
   -4   10   19     -0.01      0.00
    9   10   19      1.97      0.00
   -3   11   19      0.78      0.00
    4   11   19      0.51      0.00
    9   11   19     -1.15      0.00
   -2   12   19     -1.22      0.00
    4   12   19      1.18      0.00
    5   12   19     -1.27      0.00
    8   12   19     -0.51      0.00
    9   12   19      0.07      0.00
   -1   13   19      0.93      0.00
    0   13   19      0.42      0.00
    5   13   19      0.02      0.00
    6   13   19      0.25      0.00
    7   13   19     -1.46      0.00
    8   13   19     -0.29      0.00
    1   14   19      0.05      0.00
    2   14   19      1.18      0.00
    6   14   19     -0.49      0.00
    7   14   19      0.78      0.00
    4   15   19      0.96      0.00
    5   15   19      0.91      0.00
   -4   -5   20     -1.10      0.00
   -3   -5   20     -0.13      0.00
   -2   -5   20     -0.94      0.00
   -1   -5   20     -1.88      0.00
    0   -5   20     -0.95      0.00
    1   -5   20      0.15      0.00
   -5   -4   20     -2.00      0.00
   -4   -4   20     -0.84      0.00
   -3   -4   20     -1.54      0.00
   -2   -4   20     -0.39      0.00
    0   -4   20      2.62      0.00
    1   -4   20     -0.88      0.00
    2   -4   20     -1.20      0.00
   -6   -3   20      0.40      0.00
    3   -3   20      1.13      0.00
    4   -3   20      0.73      0.00
   -6   -2   20      1.52      0.00
    4   -2   20     -0.52      0.00
    5   -2   20     -0.06      0.00
   -7   -1   20      0.23      0.00
    5   -1   20     -0.42      0.00
   -7    0   20     -1.01      0.00
    6    0   20      0.12      0.00
   -7    1   20      0.63      0.00
    6    1   20      0.86      0.00
    7    1   20      0.51      0.00
   -7    2   20     -0.57      0.00
    7    2   20     -1.39      0.00
   -7    3   20      1.33      0.00
   -6    3   20      0.75      0.00
    7    3   20      1.00      0.00
    8    3   20      0.26      0.00
   -6    4   20     -1.14      0.00
   -5    4   20     -0.29      0.00
   -4    4   20      0.02      0.00
    8    4   20      0.21      0.00
   -6    5   20      1.94      0.00
   -5    5   20      0.63      0.00
   -4    5   20      0.66      0.00
   -3    5   20      0.04      0.00
    8    5   20     -1.30      0.00
   -6    6   20     -1.73      0.00
   -1    6   20     -1.74      0.00
    8    6   20      1.53      0.00
    9    6   20      1.03      0.00
    0    7   20      2.20      0.00
    9    7   20     -0.80      0.00
   -5    8   20      0.73      0.00
    9    8   20     -0.03      0.00
   -4    9   20      1.13      0.00
    2    9   20     -1.04      0.00
    9    9   20     -0.87      0.00
   -3   10   20     -1.90      0.00
    3   10   20      0.12      0.00
    9   10   20      2.13      0.00
   -2   11   20      0.93      0.00
    4   11   20      0.34      0.00
    5   11   20      1.17      0.00
    8   11   20      0.54      0.00
   -1   12   20     -0.49      0.00
    4   12   20      0.77      0.00
    5   12   20     -1.48      0.00
    7   12   20      0.72      0.00
    8   12   20     -0.55      0.00
    0   13   20     -0.33      0.00
    1   13   20     -1.22      0.00
    5   13   20     -0.04      0.00
    6   13   20      0.62      0.00
    7   13   20     -1.03      0.00
    2   14   20      0.60      0.00
    3   14   20     -1.20      0.00
    4   14   20     -1.31      0.00
    5   14   20     -0.34      0.00
    6   14   20     -0.49      0.00
   -4   -4   21     -0.66      0.00
   -3   -4   21     -1.58      0.00
   -2   -4   21     -0.90      0.00
   -1   -4   21      1.87      0.00
    0   -4   21      2.05      0.00
    1   -4   21     -0.23      0.00
   -5   -3   21      1.47      0.00
   -3   -3   21      2.50      0.00
   -2   -3   21      1.66      0.00
   -1   -3   21     -1.48      0.00
    0   -3   21     -3.45      0.00
    1   -3   21     -0.76      0.00
    2   -3   21      1.16      0.00
   -5   -2   21     -0.26      0.00
    2   -2   21     -0.16      0.00
    3   -2   21     -0.21      0.00
    4   -2   21     -0.58      0.00
   -6   -1   21     -0.95      0.00
    4   -1   21     -0.78      0.00
   -6    0   21      0.10      0.00
    5    0   21      0.44      0.00
   -6    1   21      0.47      0.00
    6    1   21      0.60      0.00
   -6    2   21     -0.84      0.00
    6    2   21     -0.47      0.00
    7    2   21     -1.20      0.00
   -6    3   21      0.98      0.00
    6    3   21     -0.86      0.00
    7    3   21      0.70      0.00
   -6    4   21     -0.68      0.00
   -5    4   21     -0.95      0.00
   -4    4   21     -0.44      0.00
    7    4   21      0.60      0.00
   -5    5   21      0.75      0.00
   -4    5   21      1.08      0.00
   -3    5   21      0.35      0.00
    7    5   21     -0.81      0.00
    8    5   21     -1.12      0.00
   -5    6   21     -0.20      0.00
   -3    6   21      0.33      0.00
   -2    6   21      0.14      0.00
   -1    6   21     -2.27      0.00
    8    6   21      1.35      0.00
   -5    7   21     -0.59      0.00
   -1    7   21      2.20      0.00
    0    7   21      3.30      0.00
    8    7   21     -0.64      0.00
   -4    8   21      0.32      0.00
    1    8   21     -0.16      0.00
    8    8   21      0.34      0.00
   -3    9   21      3.15      0.00
    2    9   21     -0.66      0.00
    8    9   21     -0.91      0.00
   -3   10   21     -2.21      0.00
    2   10   21      0.23      0.00
    3   10   21     -0.16      0.00
    4   10   21     -0.31      0.00
    8   10   21      0.78      0.00
   -2   11   21      1.20      0.00
   -1   11   21      0.41      0.00
    3   11   21     -0.58      0.00
    4   11   21     -0.03      0.00
    7   11   21      0.37      0.00
    8   11   21      0.25      0.00
   -1   12   21     -0.43      0.00
    0   12   21      1.07      0.00
    4   12   21      0.70      0.00
    5   12   21     -1.05      0.00
    6   12   21     -1.36      0.00
    7   12   21     -0.40      0.00
    1   13   21     -1.36      0.00
    2   13   21     -0.95      0.00
    3   13   21      1.26      0.00
    4   13   21      0.05      0.00
    5   13   21     -0.16      0.00
    6   13   21      0.88      0.00
   -3   -3   22      1.91      0.00
   -2   -3   22      1.43      0.00
   -1   -3   22     -0.49      0.00
    0   -3   22     -1.73      0.00
   -4   -2   22     -1.26      0.00
   -3   -2   22     -1.71      0.00
   -2   -2   22     -0.38      0.00
   -1   -2   22      0.44      0.00
    0   -2   22      1.25      0.00
    1   -2   22      1.73      0.00
    2   -2   22      0.29      0.00
   -5   -1   22      0.10      0.00
   -4   -1   22      0.97      0.00
    0   -1   22      0.90      0.00
    1   -1   22     -0.97      0.00
    2   -1   22     -1.68      0.00
    3   -1   22     -1.09      0.00
   -5    0   22     -0.33      0.00
    3    0   22      1.52      0.00
    4    0   22      1.18      0.00
   -5    1   22     -0.18      0.00
    4    1   22      0.70      0.00
    5    1   22      0.01      0.00
   -5    2   22      0.37      0.00
    5    2   22     -1.00      0.00
    6    2   22     -0.12      0.00
   -5    3   22      0.56      0.00
    5    3   22      0.74      0.00
    6    3   22     -0.92      0.00
   -5    4   22     -1.00      0.00
    6    4   22      0.89      0.00
    7    4   22      0.54      0.00
   -5    5   22      0.43      0.00
   -4    5   22      1.16      0.00
   -3    5   22      0.86      0.00
   -2    5   22      0.15      0.00
    7    5   22     -0.34      0.00
   -4    6   22      0.07      0.00
   -3    6   22     -0.07      0.00
   -2    6   22      0.13      0.00
   -1    6   22     -1.80      0.00
    7    6   22     -0.41      0.00
   -4    7   22     -1.18      0.00
   -2    7   22     -1.40      0.00
   -1    7   22      1.29      0.00
    0    7   22      3.40      0.00
    7    7   22      0.61      0.00
   -3    8   22      0.42      0.00
    0    8   22     -2.65      0.00
    1    8   22     -0.94      0.00
    7    8   22     -0.60      0.00
   -3    9   22      1.79      0.00
    1    9   22      1.60      0.00
    2    9   22     -0.20      0.00
    3    9   22      0.53      0.00
    7    9   22      0.50      0.00
   -2   10   22     -2.47      0.00
    2   10   22     -0.47      0.00
    3   10   22     -0.63      0.00
    6   10   22      0.59      0.00
    7   10   22     -0.12      0.00
   -1   11   22      0.84      0.00
    0   11   22     -0.03      0.00
    3   11   22     -0.22      0.00
    4   11   22     -0.03      0.00
    6   11   22     -0.19      0.00
    7   11   22      0.24      0.00
    1   12   22      1.33      0.00
    2   12   22      1.34      0.00
    3   12   22      0.17      0.00
    4   12   22      0.63      0.00
    5   12   22     -0.24      0.00
    6   12   22     -0.89      0.00
    3   13   22      0.44      0.00
    4   13   22      0.13      0.00
   -3   -1   23      0.64      0.00
   -2   -1   23     -1.13      0.00
   -1   -1   23     -1.77      0.00
    0   -1   23      0.54      0.00
    1   -1   23     -0.26      0.00
    2   -1   23     -1.07      0.00
   -4    0   23     -1.19      0.00
   -3    0   23      0.22      0.00
    1    0   23     -1.69      0.00
    2    0   23      1.23      0.00
    3    0   23      1.04      0.00
   -4    1   23      0.55      0.00
    2    1   23     -0.13      0.00
    3    1   23     -0.71      0.00
    4    1   23      0.47      0.00
   -4    2   23      0.34      0.00
    4    2   23     -1.95      0.00
    5    2   23     -1.11      0.00
   -4    3   23      0.11      0.00
    5    3   23      0.94      0.00
   -4    4   23     -1.06      0.00
    6    4   23      0.90      0.00
   -4    5   23      0.88      0.00
    6    5   23      0.38      0.00
   -3    6   23     -0.41      0.00
   -2    6   23     -0.11      0.00
   -1    6   23     -0.68      0.00
    6    6   23     -1.20      0.00
   -3    7   23     -0.85      0.00
   -2    7   23     -0.98      0.00
   -1    7   23      0.29      0.00
    0    7   23      2.22      0.00
    6    7   23      0.60      0.00
   -2    8   23      1.31      0.00
   -1    8   23      1.30      0.00
    0    8   23     -1.38      0.00
    1    8   23     -0.98      0.00
    6    8   23     -0.29      0.00
   -2    9   23      0.41      0.00
   -1    9   23     -1.21      0.00
    1    9   23      1.40      0.00
    2    9   23      0.12      0.00
    5    9   23     -0.03      0.00
    6    9   23      0.16      0.00
   -1   10   23     -0.20      0.00
    0   10   23     -0.25      0.00
    2   10   23     -0.86      0.00
    3   10   23     -0.85      0.00
    5   10   23     -0.07      0.00
    6   10   23      0.55      0.00
    0   11   23      0.45      0.00
    1   11   23      0.73      0.00
    2   11   23      0.31      0.00
    3   11   23      0.30      0.00
    4   11   23      0.29      0.00
    5   11   23      0.06      0.00
    3   12   23      0.07      0.00
    4   12   23      0.28      0.00
   -1    0   24      2.23      0.00
    0    0   24      0.11      0.00
   -2    1   24     -1.51      0.00
   -1    1   24     -2.01      0.00
    0    1   24     -0.52      0.00
    1    1   24      2.13      0.00
    2    1   24      0.75      0.00
   -3    2   24      0.09      0.00
   -2    2   24      0.73      0.00
    2    2   24     -1.26      0.00
    3    2   24     -0.23      0.00
   -3    3   24      0.72      0.00
   -2    3   24      0.67      0.00
    3    3   24      0.30      0.00
    4    3   24      0.94      0.00
   -3    4   24     -1.63      0.00
   -2    4   24     -1.09      0.00
    4    4   24     -0.45      0.00
   -3    5   24      1.47      0.00
   -2    5   24      0.80      0.00
    4    5   24      0.33      0.00
    5    5   24     -0.07      0.00
   -2    6   24     -0.47      0.00
   -1    6   24      0.12      0.00
    5    6   24      0.12      0.00
   -2    7   24     -0.26      0.00
   -1    7   24     -0.09      0.00
    4    7   24     -0.91      0.00
    5    7   24     -0.67      0.00
   -1    8   24      1.07      0.00
    0    8   24     -0.29      0.00
    4    8   24      0.71      0.00
    5    8   24      0.56      0.00
    0    9   24     -0.45      0.00
    1    9   24      0.75      0.00
    2    9   24      0.19      0.00
    3    9   24      0.29      0.00
    4    9   24      0.35      0.00
    5    9   24      0.12      0.00
    1   10   24     -0.90      0.00
    2   10   24     -0.73      0.00
    3   10   24     -0.63      0.00
    4   10   24     -0.82      0.00
    0    0    0      0.00      0.00
# SQUEEZE RESULTS (Version =  50315)
# Note: Data are Listed for all Voids in the P1 Unit Cell
# i.e. Centre of Gravity, Solvent Accessible Volume,
# Recovered number of Electrons in the Void and
# Details about the Squeezed Material
loop_
  _platon_squeeze_void_nr
  _platon_squeeze_void_average_x
  _platon_squeeze_void_average_y
  _platon_squeeze_void_average_z
  _platon_squeeze_void_volume
  _platon_squeeze_void_count_electrons
  _platon_squeeze_void_content
   1  0.000  0.500  0.000       132        80 ' '
# Missing Reflections Below sin(th)/lambda = 0.25
loop_
  _platon_missing_refln_index_h
  _platon_missing_refln_index_k
  _platon_missing_refln_index_l
  _platon_missing_refln_theta
    1    0    0     2.978
    0    1    0     2.428
    1    1    0     3.090
    0    2    0     4.861
    1    2    0     4.695
    1    3    0     6.816
    0   -2    1     5.541
   -1   -1    1     3.738
    0   -1    1     3.256
   -1    0    1     3.310
    0    0    1     1.537
    1    0    1     3.394
    0    1    1     2.434
    1    1    1     3.139
    1    2    1     4.473
    0    0    2     3.076
    1    2    2     4.767
    0    3    2     6.979
    1   -2    3     8.924
    1    2    3     5.494
   -1    3    3     8.806
    1    2    4     6.513
_platon_squeeze_void_probe_radius                  1.20
_platon_squeeze_details
)
TITL shelx     P -1         R = 0.05
CELL    7.3655    9.5071   14.0070     71.10     84.67     68.28
SPGR P-1
# Solvent Accessible Volume =     135.3
# Electrons Found in S.A.V. =      77.8
# Note: Atoms in Void as Cxxx and Qxxx all others
C101 0.893 0.434 0.044 !       8.53 eA-3
C102 0.986 0.676 0.019 !       7.83 eA-3
C103 0.852 0.608 0.059 !       6.60 eA-3
C104 0.107 0.408-0.001 !       6.03 eA-3
Q105 0.216 0.597 0.391 !       4.94 eA-3
Q106 0.187 0.581 0.469 !       4.83 eA-3
Q107 0.245 0.530 0.469 !       4.56 eA-3
C108 0.742 0.678 0.108 !       4.52 eA-3
Q109 0.563 0.831 0.203 !       4.32 eA-3
Q110 0.149 0.516 0.468 !       4.20 eA-3
C111 0.876 0.532 0.050 !       3.78 eA-3
C112 0.965 0.360 0.031 !       3.71 eA-3
Q113 0.186 0.511 0.407 !       3.68 eA-3
Q114 0.525 0.030 0.343 !       3.65 eA-3
Q115 0.104 0.577 0.406 !       3.37 eA-3
C116 0.880 0.291 0.128 !       3.28 eA-3
Q117 0.129 0.467 0.441 !       3.22 eA-3
Q118 0.245 0.624 0.436 !       3.20 eA-3
Q119 0.188 0.374 0.231 !       3.14 eA-3
C120 0.156 0.346 0.034 !       3.06 eA-3
C121 0.186 0.470 0.004 !       2.84 eA-3
Q122 0.900 0.391 0.501 !       2.82 eA-3
Q123 0.026 0.471 0.499 !       2.81 eA-3
Q124 0.168 0.930 0.488 !       2.78 eA-3
C125 0.901 0.325-0.002 !       2.74 eA-3
Q126 1.000 0.624 0.406 !       2.72 eA-3
Q127 0.314 0.577 0.390 !       2.72 eA-3
Q128 0.067 0.591 0.139 !       2.66 eA-3
C129 0.924 0.349 0.122 !       2.62 eA-3
Q130 0.283 0.517 0.405 !       2.54 eA-3
C131 0.780 0.565 0.065 !       2.48 eA-3
Q132 0.033 0.549 0.454 !       2.46 eA-3
Q133 0.064 0.621 0.452 !       2.44 eA-3
Q134 0.211 0.376 0.327 !       2.43 eA-3
Q135 0.255 0.402 0.252 !       2.42 eA-3
Q136 0.166 0.405 0.190 !       2.41 eA-3
C137 0.794 0.457 0.027 !       2.34 eA-3
Q138 0.805 0.483 0.480 !       2.30 eA-3
Q139 0.869 0.515 0.249 !       2.29 eA-3
C140 0.206 0.390 0.012 !       2.28 eA-3
Q141 0.906 0.701 0.094 !       2.27 eA-3
Q142 0.090 0.423 0.452 !       2.25 eA-3
C143 0.973 0.488 0.063 !       2.25 eA-3
Q144 0.936 0.452 0.503 !       2.23 eA-3
Q145 0.278 0.347 0.315 !       2.22 eA-3
Q146 0.562 0.485 0.112 !       2.22 eA-3
Q147 0.902 0.486 0.465 !       2.19 eA-3
Q148 0.351 0.468 0.471 !       2.18 eA-3
Q149 0.465 0.675 0.031 !       2.14 eA-3
Q150 0.214 0.516 0.062 !       2.14 eA-3
C151 0.054 0.548 0.095 !       2.08 eA-3
Q152 0.124 0.624 0.408 !       2.08 eA-3
C153 0.975 0.535 0.096 !       2.07 eA-3
C154 0.967 0.297 0.112 !       2.04 eA-3
C155 0.940 0.262 0.174 !       2.01 eA-3
Q156 0.378 0.590 0.361 !       2.00 eA-3
C157 0.812 0.685 0.049 !       2.00 eA-3
C158 0.055 0.529 0.043 !       1.99 eA-3
Q159 0.762 0.489 0.111 !       1.96 eA-3
Q160 0.656 0.498 0.125 !       1.96 eA-3
Q161 0.242 0.595 0.013 !       1.94 eA-3
Q162 0.180 0.589 0.061 !       1.94 eA-3
Q163 0.347 0.608 0.452 !       1.93 eA-3
Q164 0.843 0.252 0.450 !       1.93 eA-3
C165 0.119 0.390 0.075 !       1.93 eA-3
Q166 0.119 0.391 0.251 !       1.92 eA-3
C167 0.216 0.378 0.063 !       1.91 eA-3
C168 0.760 0.646 0.068 !       1.91 eA-3
Q169 0.272 0.438 0.297 !       1.91 eA-3
Q170 0.191 0.375 0.440 !       1.89 eA-3
C171 0.853 0.388 0.111 !       1.88 eA-3
C172 0.048 0.424 0.042 !       1.87 eA-3
C173 0.937 0.294 0.050 !       1.86 eA-3
C174 0.846 0.546 0.172 !       1.85 eA-3
Q175 0.085 0.406 0.564 !       1.83 eA-3
C176 0.821 0.555 0.115 !       1.83 eA-3
C177 0.884 0.598 0.122 !       1.80 eA-3
Q178 0.039 0.269 0.078 !       1.80 eA-3
Q179 0.406 0.639 0.030 !       1.80 eA-3
C180 0.280 0.490 0.016 !       1.79 eA-3
Q181 0.688 0.452 0.454 !       1.79 eA-3
Q182 0.593 0.267 0.030 !       1.79 eA-3
Q183 0.560 0.474 0.168 !       1.79 eA-3
Q184 0.244 0.218 0.389 !       1.79 eA-3
Q185 1.003 0.529 0.422 !       1.78 eA-3
Q186 0.273 0.688 0.421 !       1.78 eA-3
Q187 0.381 0.669 0.423 !       1.78 eA-3
Q188 0.467 0.579 0.343 !       1.78 eA-3
C189 0.146 0.594 0.016 !       1.77 eA-3
C190 0.183 0.280 0.016 !       1.77 eA-3
Q191 0.620 0.721 0.034 !       1.77 eA-3
Q192 0.368 0.456 0.171 !       1.76 eA-3
Q193 0.592 0.527 0.156 !       1.76 eA-3
C194 0.715 0.722 0.034 !       1.75 eA-3
Q195 0.282 0.313 0.122 !       1.75 eA-3
Q196 0.904 0.279 0.456 !       1.75 eA-3
Q197 0.092 0.297 0.105 !       1.73 eA-3
C198 0.734 0.608 0.172 !       1.73 eA-3
Q199 0.239 0.314 0.372 !       1.73 eA-3
)
;
_shelx_fab_checksum              62359
loop_
_space_group_symop_operation_xyz
'x, y, z'
'-x, -y, -z'
loop_
_atom_site_label
_atom_site_type_symbol
_atom_site_fract_x
_atom_site_fract_y
_atom_site_fract_z
_atom_site_U_iso_or_equiv
_atom_site_adp_type
_atom_site_occupancy
_atom_site_site_symmetry_order
_atom_site_calc_flag
_atom_site_refinement_flags_posn
_atom_site_refinement_flags_adp
_atom_site_refinement_flags_occupancy
_atom_site_disorder_assembly
_atom_site_disorder_group
C2 C 0.3943(9) 0.3434(7) 0.6228(5) 0.0225(12) Uani 1 1 d . . . . .
H2 H 0.319827 0.415169 0.658124 0.027 Uiso 1 1 calc R U . . .
C2A C -0.0289(10) 0.7872(7) 0.2362(5) 0.0248(12) Uani 1 1 d . . . . .
H2A H 0.037680 0.713489 0.200890 0.030 Uiso 1 1 calc R U . . .
C4 C 0.5105(10) 0.2385(9) 0.5043(5) 0.0300(14) Uani 1 1 d . . . . .
H4 H 0.530243 0.225614 0.439236 0.036 Uiso 1 1 calc R U . . .
C4A C -0.1292(10) 0.8922(7) 0.3566(5) 0.0243(13) Uani 1 1 d . . . . .
H4A H -0.147035 0.904337 0.421952 0.029 Uiso 1 1 calc R U . . .
C5 C 0.6142(10) 0.1334(8) 0.5897(5) 0.0292(14) Uani 1 1 d . . . . .
H5 H 0.716817 0.033803 0.596349 0.035 Uiso 1 1 calc R U . . .
C5A C -0.2189(11) 1.0047(8) 0.2686(5) 0.0303(14) Uani 1 1 d . . . . .
H5A H -0.307041 1.110221 0.261299 0.036 Uiso 1 1 calc R U . . .
C6 C 0.5964(11) 0.1363(9) 0.7679(5) 0.0302(14) Uani 1 1 d . . . . .
H6 H 0.534318 0.199924 0.810208 0.036 Uiso 1 1 calc R U . . .
C6A C -0.2061(11) 1.0043(9) 0.0886(5) 0.0300(14) Uani 1 1 d . . . . .
H6A H -0.145897 0.940069 0.046420 0.036 Uiso 1 1 calc R U . . .
C7 C 0.7275(12) -0.0043(9) 0.8100(6) 0.0365(16) Uani 1 1 d . . . . .
H7A H 0.792829 -0.071495 0.770218 0.044 Uiso 1 1 calc R U . . .
H7B H 0.757486 -0.039366 0.880241 0.044 Uiso 1 1 calc R U . . .
C7A C -0.3272(13) 1.1484(9) 0.0464(6) 0.0404(18) Uani 1 1 d . . . . .
H7AA H -0.389909 1.215781 0.086341 0.048 Uiso 1 1 calc R U . . .
H7BA H -0.353046 1.186317 -0.024453 0.048 Uiso 1 1 calc R U . . .
N1 N 0.5397(8) 0.2012(6) 0.6644(4) 0.0223(10) Uani 1 1 d . . . . .
N1A N -0.1581(8) 0.9370(6) 0.1931(4) 0.0238(11) Uani 1 1 d . . . . .
N3 N 0.3727(8) 0.3664(7) 0.5269(4) 0.0246(11) Uani 1 1 d . . . . .
N3A N -0.0088(8) 0.7587(6) 0.3333(4) 0.0241(11) Uani 1 1 d . . . . .
Br1 Br -0.04173(11) 0.26485(8) 0.36882(6) 0.03338(16) Uani 1 1 d . . . . .
Br2 Br 0.44298(12) 0.46373(9) 0.19344(6) 0.03851(17) Uani 1 1 d . . . . .
Au1 Au 0.17537(3) 0.55862(3) 0.43073(2) 0.02199(7) Uani 1 1 d . . . . .
Au2 Au 0.20035(4) 0.36667(3) 0.28351(2) 0.02792(8) Uani 1 1 d . . . . .
loop_
_atom_site_aniso_label
_atom_site_aniso_U_11
_atom_site_aniso_U_22
_atom_site_aniso_U_33
_atom_site_aniso_U_23
_atom_site_aniso_U_13
_atom_site_aniso_U_12
C2 0.026(3) 0.017(3) 0.025(3) -0.009(2) -0.002(2) -0.006(2)
C2A 0.026(3) 0.019(3) 0.027(3) -0.005(2) -0.004(2) -0.006(2)
C4 0.029(3) 0.031(3) 0.025(3) -0.011(3) -0.001(3) -0.002(3)
C4A 0.031(3) 0.015(3) 0.019(3) -0.010(2) -0.006(2) 0.006(2)
C5 0.033(4) 0.024(3) 0.023(3) -0.015(2) -0.002(3) 0.006(3)
C5A 0.037(4) 0.022(3) 0.029(3) -0.010(3) -0.008(3) -0.003(3)
C6 0.036(4) 0.032(3) 0.019(3) -0.003(3) -0.006(3) -0.011(3)
C6A 0.035(4) 0.033(3) 0.015(3) -0.005(2) -0.004(2) -0.006(3)
C7 0.047(4) 0.029(4) 0.027(3) -0.003(3) -0.008(3) -0.010(3)
C7A 0.051(5) 0.032(4) 0.027(3) 0.000(3) -0.011(3) -0.008(3)
N1 0.025(3) 0.019(2) 0.020(2) -0.0072(19) -0.004(2) -0.004(2)
N1A 0.029(3) 0.018(2) 0.020(2) -0.0030(19) -0.003(2) -0.006(2)
N3 0.022(3) 0.024(3) 0.025(3) -0.007(2) -0.002(2) -0.004(2)
N3A 0.023(3) 0.019(2) 0.027(3) -0.005(2) -0.007(2) -0.005(2)
Br1 0.0345(4) 0.0265(3) 0.0377(4) -0.0143(3) -0.0022(3) -0.0049(3)
Br2 0.0442(4) 0.0292(3) 0.0374(4) -0.0116(3) 0.0050(3) -0.0079(3)
Au1 0.02274(12) 0.01751(11) 0.02175(11) -0.00353(8) -0.00307(8) -0.00423(8)
Au2 0.03420(15) 0.02008(12) 0.02490(13) -0.00909(9) -0.00639(10) -0.00127(10)
loop_
_atom_type_symbol
_atom_type_description
_atom_type_scat_dispersion_real
_atom_type_scat_dispersion_imag
_atom_type_scat_source
C C 0.0033 0.0016 'International Tables Vol C Tables 4.2.6.8 and 6.1.1.4'
H H 0.0000 0.0000 'International Tables Vol C Tables 4.2.6.8 and 6.1.1.4'
N N 0.0061 0.0033 'International Tables Vol C Tables 4.2.6.8 and 6.1.1.4'
Br Br -0.2901 2.4595 'International Tables Vol C Tables 4.2.6.8 and 6.1.1.4'
Au Au -2.0133 8.8022 'International Tables Vol C Tables 4.2.6.8 and 6.1.1.4'
loop_
_geom_angle_atom_site_label_1
_geom_angle_atom_site_label_2
_geom_angle_atom_site_label_3
_geom_angle
_geom_angle_site_symmetry_1
_geom_angle_site_symmetry_3
_geom_angle_publ_flag
N3 C2 N1 109.6(5) . . ?
N3 C2 H2 125.2 . . ?
N1 C2 H2 125.2 . . ?
N3A C2A N1A 110.5(6) . . ?
N3A C2A H2A 124.7 . . ?
N1A C2A H2A 124.7 . . ?
C5 C4 N3 109.3(6) . . ?
C5 C4 H4 125.4 . . ?
N3 C4 H4 125.4 . . ?
C5A C4A N3A 107.6(5) . . ?
C5A C4A H4A 126.2 . . ?
N3A C4A H4A 126.2 . . ?
C4 C5 N1 105.5(6) . . ?
C4 C5 H5 127.3 . . ?
N1 C5 H5 127.3 . . ?
N1A C5A C4A 107.4(6) . . ?
N1A C5A H5A 126.3 . . ?
C4A C5A H5A 126.3 . . ?
C7 C6 N1 125.1(7) . . ?
C7 C6 H6 117.5 . . ?
N1 C6 H6 117.5 . . ?
C7A C6A N1A 124.3(7) . . ?
C7A C6A H6A 117.9 . . ?
N1A C6A H6A 117.9 . . ?
C6 C7 H7A 120.0 . . ?
C6 C7 H7B 120.0 . . ?
H7A C7 H7B 120.0 . . ?
C6A C7A H7AA 120.0 . . ?
C6A C7A H7BA 120.0 . . ?
H7AA C7A H7BA 120.0 . . ?
C2 N1 C5 108.2(5) . . ?
C2 N1 C6 124.5(6) . . ?
C5 N1 C6 127.3(6) . . ?
C2A N1A C5A 106.7(5) . . ?
C2A N1A C6A 123.8(6) . . ?
C5A N1A C6A 129.4(6) . . ?
C2 N3 C4 107.4(5) . . ?
C2 N3 Au1 125.4(5) . . ?
C4 N3 Au1 127.1(4) . . ?
C2A N3A C4A 107.8(5) . . ?
C2A N3A Au1 126.3(5) . . ?
C4A N3A Au1 125.8(4) . . ?
N3 Au1 N3A 176.1(2) . . ?
N3 Au1 Au2 91.01(16) . . ?
N3A Au1 Au2 90.82(16) . . ?
Br1 Au2 Br2 177.81(3) . . ?
Br1 Au2 Au1 93.20(2) . . ?
Br2 Au2 Au1 88.98(2) . . ?
loop_
_geom_bond_atom_site_label_1
_geom_bond_atom_site_label_2
_geom_bond_distance
_geom_bond_site_symmetry_2
_geom_bond_publ_flag
C2 N3 1.304(8) . ?
C2 N1 1.360(8) . ?
C2 H2 0.9500 . ?
C2A N3A 1.309(8) . ?
C2A N1A 1.358(8) . ?
C2A H2A 0.9500 . ?
C4 C5 1.357(9) . ?
C4 N3 1.373(9) . ?
C4 H4 0.9500 . ?
C4A C5A 1.369(9) . ?
C4A N3A 1.373(8) . ?
C4A H4A 0.9500 . ?
C5 N1 1.371(8) . ?
C5 H5 0.9500 . ?
C5A N1A 1.369(9) . ?
C5A H5A 0.9500 . ?
C6 C7 1.306(10) . ?
C6 N1 1.415(8) . ?
C6 H6 0.9500 . ?
C6A C7A 1.300(10) . ?
C6A N1A 1.414(8) . ?
C6A H6A 0.9500 . ?
C7 H7A 0.9500 . ?
C7 H7B 0.9500 . ?
C7A H7AA 0.9500 . ?
C7A H7BA 0.9500 . ?
N3 Au1 2.017(5) . ?
N3A Au1 2.018(5) . ?
Br1 Au2 2.3826(9) . ?
Br2 Au2 2.3843(9) . ?
Au1 Au2 3.1200(5) . ?
