#------------------------------------------------------------------------------
#$Date: 2021-02-05 01:27:14 +0200 (Fri, 05 Feb 2021) $
#$Revision: 261737 $
#$URL: file:///home/coder/svn-repositories/cod/cif/7/06/02/7060272.cif $
#------------------------------------------------------------------------------
#
# This file is available in the Crystallography Open Database (COD),
# http://www.crystallography.net/
#
# All data on this site have been placed in the public domain by the
# contributors.
#
data_7060272
loop_
_publ_author_name
'Gettings, Matthew L.'
'Byrd, Edward F. C.'
'Zeller, Matthias'
'Piercey, Davin'
_publ_section_title
;
 Methyl sydnone imine and its energetic salts
;
_journal_issue                   4
_journal_name_full               'New Journal of Chemistry'
_journal_page_first              2228
_journal_page_last               2236
_journal_paper_doi               10.1039/D0NJ05354F
_journal_volume                  45
_journal_year                    2021
_chemical_formula_moiety         'C3 H6 N3 O, N O3'
_chemical_formula_sum            'C3 H6 N4 O4'
_chemical_formula_weight         162.12
_space_group_crystal_system      monoclinic
_space_group_IT_number           11
_space_group_name_Hall           '-P 2yb'
_space_group_name_H-M_alt        'P 1 21/m 1'
_atom_sites_solution_hydrogens   mixed
_atom_sites_solution_primary     direct
_atom_sites_solution_secondary   difmap
_audit_creation_method           SHELXL-2018/3
_audit_update_record
;
2020-08-24 deposited with the CCDC.	2021-01-11 downloaded from the CCDC.
;
_cell_angle_alpha                90
_cell_angle_beta                 91.390(5)
_cell_angle_gamma                90
_cell_formula_units_Z            2
_cell_length_a                   5.7481(6)
_cell_length_b                   5.8420(7)
_cell_length_c                   9.9504(11)
_cell_measurement_reflns_used    2359
_cell_measurement_temperature    150(2)
_cell_measurement_theta_max      78.9749
_cell_measurement_theta_min      7.7099
_cell_volume                     334.04(6)
_computing_cell_refinement       'SAINT V8.40A (Bruker, 2019)'
_computing_data_collection       'Apex3 v2019.1-0 (Bruker, 2019)'
_computing_data_reduction        'SAINT V8.40A (Bruker, 2019)'
_computing_structure_refinement
;  
SHELXL-2018/3 (Sheldrick, 2015, 2018), 
SHELXLE Rev1117 (H\"ubschle et al., 2011)
;
_computing_structure_solution    'SHELXS-97 (Sheldrick, 2008)'
_diffrn_ambient_temperature      150(2)
_diffrn_detector_area_resol_mean 7.4074
_diffrn_measured_fraction_theta_full 0.986
_diffrn_measured_fraction_theta_max 0.949
_diffrn_measurement_device_type
;
Bruker AXS D8 Quest diffractometer with PhotonIII_C14 charge-integrating and 
photon counting pixel array detector
;
_diffrn_measurement_method       'omega and phi scans'
_diffrn_radiation_monochromator  'laterally graded multilayer (Goebel) mirror'
_diffrn_radiation_type           CuK\a
_diffrn_radiation_wavelength     1.54178
_diffrn_reflns_av_R_equivalents  0.0326
_diffrn_reflns_av_unetI/netI     0.0328
_diffrn_reflns_Laue_measured_fraction_full 0.986
_diffrn_reflns_Laue_measured_fraction_max 0.949
_diffrn_reflns_limit_h_max       6
_diffrn_reflns_limit_h_min       -7
_diffrn_reflns_limit_k_max       7
_diffrn_reflns_limit_k_min       -7
_diffrn_reflns_limit_l_max       12
_diffrn_reflns_limit_l_min       -12
_diffrn_reflns_number            2988
_diffrn_reflns_point_group_measured_fraction_full 0.986
_diffrn_reflns_point_group_measured_fraction_max 0.949
_diffrn_reflns_theta_full        67.679
_diffrn_reflns_theta_max         79.262
_diffrn_reflns_theta_min         7.710
_diffrn_source                   'I-mu-S microsource X-ray tube'
_diffrn_source_current           '1.0 mA'
_diffrn_source_voltage           '50 kV'
_exptl_absorpt_coefficient_mu    1.306
_exptl_absorpt_correction_T_max  0.7542
_exptl_absorpt_correction_T_min  0.6329
_exptl_absorpt_correction_type   multi-scan
_exptl_absorpt_process_details
;
 SADABS 2016/2: Krause, L., Herbst-Irmer, R., Sheldrick G.M. & Stalke D.,
 J. Appl. Cryst. 48 (2015) 3-10
;
_exptl_crystal_colour            colourless
_exptl_crystal_density_diffrn    1.612
_exptl_crystal_description       block
_exptl_crystal_F_000             168
_exptl_crystal_size_max          0.150
_exptl_crystal_size_mid          0.130
_exptl_crystal_size_min          0.090
_refine_diff_density_max         0.188
_refine_diff_density_min         -0.293
_refine_diff_density_rms         0.050
_refine_ls_extinction_method     none
_refine_ls_goodness_of_fit_ref   1.146
_refine_ls_hydrogen_treatment    mixed
_refine_ls_matrix_type           full
_refine_ls_number_parameters     72
_refine_ls_number_reflns         764
_refine_ls_number_restraints     0
_refine_ls_restrained_S_all      1.146
_refine_ls_R_factor_all          0.0377
_refine_ls_R_factor_gt           0.0356
_refine_ls_shift/su_max          0.002
_refine_ls_shift/su_mean         0.000
_refine_ls_structure_factor_coef Fsqd
_refine_ls_weighting_details
'w=1/[\s^2^(Fo^2^)+(0.0538P)^2^+0.0917P] where P=(Fo^2^+2Fc^2^)/3'
_refine_ls_weighting_scheme      calc
_refine_ls_wR_factor_gt          0.1017
_refine_ls_wR_factor_ref         0.1045
_reflns_Friedel_coverage         0.000
_reflns_number_gt                711
_reflns_number_total             764
_reflns_threshold_expression     'I > 2\s(I)'
_cod_data_source_file            d0nj05354f2.cif
_cod_data_source_block           G117_MSI_NO3_0m
_cod_depositor_comments
'Adding full bibliography for 7060272--7060278.cif.'
_cod_original_sg_symbol_H-M      'P 21/m'
_cod_database_code               7060272
_shelx_shelxl_version_number     2018/3
_shelx_space_group_comment
;
The symmetry employed for this shelxl refinement is uniquely defined
by the following loop, which should always be used as a source of
symmetry information in preference to the above space-group names.
They are only intended as comments.
;
_shelx_estimated_absorpt_t_min   0.828
_shelx_estimated_absorpt_t_max   0.891
_shelx_res_file
;
TITL G117_MSI_NO3_0m in P2(1)/m
    G117_MSI_NO3_0m.res
    created by SHELXL-2018/3 at 08:24:03 on 29-Jul-2020
CELL 1.54178   5.7481    5.8420    9.9504   90.0000   91.3901   90.0000
ZERR    2.00   0.0006    0.0007    0.0011    0.0000    0.0052    0.0000
LATT  1
SYMM -X, 0.5+Y, -Z
SFAC C H N O
UNIT 6 12 8 8
LIST 6 ! automatically inserted. Change 6 to 4 for CHECKCIF!!
TEMP -123.150
SIZE 0.09 0.13 0.15
L.S. 4
BOND $H
ACTA
CONF
FMAP 2
PLAN 20

HTAB
HTAB N3 O3
EQIV $2 x-1, y, z
HTAB N3 O2_$2
HTAB N3 O3_$2
HTAB C1 O3_$2
EQIV $3 x-1, y, z-1
HTAB C3 O2_$3

WGHT    0.053800    0.091700
FVAR       2.02298
O1    4    0.243949    0.250000    0.290260    10.50000    0.02121    0.02446 =
         0.02149    0.00000    0.00472    0.00000
O2    4    0.863117    0.250000    0.751474    10.50000    0.01961    0.02805 =
         0.02479    0.00000   -0.00227    0.00000
O3    4    0.618259    0.250000    0.583345    10.50000    0.02516    0.05797 =
         0.01725    0.00000   -0.00121    0.00000
O4    4    0.491438    0.250000    0.786352    10.50000    0.02516    0.04808 =
         0.02887    0.00000    0.01103    0.00000
N1    3    0.139629    0.250000    0.162870    10.50000    0.02632    0.02673 =
         0.01907    0.00000    0.00332    0.00000
N2    3   -0.080735    0.250000    0.186243    10.50000    0.02484    0.02162 =
         0.01896    0.00000    0.00171    0.00000
N3    3    0.142885    0.250000    0.512173    10.50000    0.01989    0.02772 =
         0.01996    0.00000    0.00248    0.00000
REM AFIX 93
H3A   2    0.295506    0.250000    0.535357    10.50000   -1.20000
H3B   2    0.033049    0.250000    0.571065    10.50000   -1.20000
REM AFIX 0
N4    3    0.655494    0.250000    0.708701    10.50000    0.02128    0.01958 =
         0.02126    0.00000    0.00360    0.00000
C1    1   -0.134657    0.250000    0.316740    10.50000    0.02194    0.02415 =
         0.02001    0.00000    0.00420    0.00000
AFIX  43
H1    2   -0.285332    0.250000    0.353916    10.50000   -1.20000
AFIX   0
C2    1    0.077795    0.250000    0.385104    10.50000    0.02070    0.01713 =
         0.02004    0.00000    0.00390    0.00000
C3    1   -0.247246    0.250000    0.071297    10.50000    0.03249    0.04344 =
         0.02131    0.00000   -0.00383    0.00000
AFIX 137
H3C   2   -0.164420    0.217972   -0.011556    10.50000   -1.50000
H3D   2   -0.322587    0.400144    0.064226    10.50000   -1.50000
H3E   2   -0.365475    0.131884    0.084774    10.50000   -1.50000
AFIX   0
HKLF 4




REM  G117_MSI_NO3_0m in P2(1)/m
REM wR2 = 0.1045, GooF = S = 1.146, Restrained GooF = 1.146 for all data
REM R1 = 0.0356 for 711 Fo > 4sig(Fo) and 0.0377 for all 764 data
REM 72 parameters refined using 0 restraints

END

WGHT      0.0540      0.0917

REM Instructions for potential hydrogen bonds
HTAB N3 O3
HTAB N3 N4
HTAB N3 O2_$2
HTAB N3 O3_$2
HTAB N3 N4_$2
HTAB C1 O3_$2
HTAB C3 O2_$3

REM Highest difference peak  0.188,  deepest hole -0.293,  1-sigma level  0.050
Q1    1  -0.0457  0.2116  0.3575  11.00000  0.05    0.19
Q2    1   0.7538  0.2500  0.8392  10.50000  0.05    0.17
Q3    1  -0.1145  0.2500  0.2433  10.50000  0.05    0.17
Q4    1   0.6112  0.1566  0.8745  11.00000  0.05    0.17
Q5    1   0.1989  0.2500  0.0908  10.50000  0.05    0.16
Q6    1   0.3539  0.2500  0.8819  10.50000  0.05    0.15
Q7    1   0.2064  0.2500  0.5181  10.50000  0.05    0.15
Q8    1   0.5465  0.1503  0.6072  11.00000  0.05    0.15
Q9    1  -0.1013  0.2500  0.4664  10.50000  0.05    0.15
Q10   1   0.7405  0.0514  0.5629  11.00000  0.05    0.15
Q11   1   0.7195  0.2500  0.5453  10.50000  0.05    0.14
Q12   1   0.4621  0.0707  0.5609  11.00000  0.05    0.14
Q13   1   0.4922  0.0736  0.7209  11.00000  0.05    0.14
Q14   1   0.6705  0.2500  0.8809  10.50000  0.05    0.14
Q15   1   0.4631  0.2500  0.5688  10.50000  0.05    0.14
Q16   1   0.5683  0.0716  0.6428  11.00000  0.05    0.13
Q17   1   0.3907  0.0572  0.6118  11.00000  0.05    0.13
Q18   1  -0.3995  0.2500  0.0848  10.50000  0.05    0.13
Q19   1   0.1054  0.2500  0.4141  10.50000  0.05    0.13
Q20   1   0.4713  0.0628  0.8432  11.00000  0.05    0.13
;
_shelx_res_checksum              20006
_shelx_hkl_file
;
   1   0   0 1407.65 60.2595   1
   1   0   0 1449.79 60.2199   1
   2   0   0 352.119 19.1455   1
   2   0   0 323.804 18.8884   1
   2   0   0 350.615 15.8605   2
  -2   0   0 376.786 15.7390   3
   3   0   0 1397.59 65.7160   1
   3   0   0 1420.57 59.7735   2
  -4   0   0 901.075 42.2810   8
  -4   0   0 946.665 44.7223   5
   4   0   0 939.147 41.5098   2
  -5   0   0 378.571 21.9368   5
  -5   0   0 368.535 20.1708   8
   5   0   0 356.754 19.2950   2
  -6   0   0 -0.7905 0.96441   8
  -6   0   0 -0.8329 1.82627   5
  -7   0   0 2.77149 1.34231   8
   0  -1   0 3.51627 1.38691   1
   0  -1   0 0.71685 0.32090   3
   0   1   0 0.34713 0.95438   1
   0   1   0 0.12889 0.32750   2
  -1  -1   0 1044.51 43.2197   3
  -1   1   0 1041.01 42.5429   1
   1   1   0 1053.09 47.3546   1
   1   1   0 1029.54 43.3125   2
   1   1   0 1031.09 47.5289   1
  -2  -1   0 1046.94 43.9423   3
   2   1   0 1018.71 50.6686   1
   2   1   0 1057.05 50.8942   1
   2   1   0 1031.72 44.0393   2
  -3  -1   0 583.639 26.6768   3
   3   1   0 583.949 26.8628   2
   3   1   0 608.004 37.9126   1
  -4  -1   0 105.442 9.73634   5
   4  -1   0 111.672 7.75109   2
  -4   1   0 113.754 8.24467   8
   4   1   0 108.578 8.62149   6
  -4   1   0 109.654 9.55407   5
  -4   1   0 108.033 10.0815  10
   4   1   0 118.531 8.08953   2
  -4   1   0 105.438 6.78214   7
  -5  -1   0 273.224 16.1216   8
   5  -1   0 267.587 15.2033   2
  -5  -1   0 278.037 17.6667   5
  -5   1   0 253.717 17.0735   5
  -5   1   0 263.691 15.6214   8
   5   1   0 253.561 15.1129   2
  -6  -1   0 33.9025 4.21431   8
  -6   1   0 24.6328 4.07167   5
  -6   1   0 31.5765 4.01957   8
  -7  -1   0 11.3410 1.77921   8
  -7   1   0 11.6201 1.82635   8
  -1  -2   0 968.808 41.7024   3
   1  -2   0 980.127 40.8121   3
   1   2   0 997.306 48.6911   1
   1   2   0 975.887 41.8755   2
  -1   2   0 998.995 43.2709   1
   1   2   0 974.304 48.9818   1
  -1   2   0 1013.76 42.9981   1
  -2  -2   0 155.055 8.53186   3
   2   2   0 147.427 16.8874   1
   2   2   0 152.227 16.9942   1
   2   2   0 151.023 8.52036   2
   3  -2   0 991.888 42.1863   9
  -3  -2   0 1025.63 44.0550   3
  -3  -2   0 960.818 44.5034   6
  -3   2   0 999.933 45.2074   8
   3   2   0 1041.93 44.2401   2
  -3   2   0 987.994 48.2538  10
  -3   2   0 977.151 43.0766   7
  -3   2   0 994.097 47.0342   5
   4  -2   0 633.483 30.8267   2
  -4  -2   0 626.075 30.4765   6
  -4   2   0 635.189 30.8404   7
   4   2   0 826.566 34.4435   2
  -4   2   0 638.748 31.7546   8
  -5  -2   0 316.528 19.5132   5
  -5  -2   0 284.442 21.1405   8
  -5   2   0 317.465 18.6873   8
   5   2   0 303.749 17.0446   2
  -5   2   0 291.276 21.1763   5
  -5   2   0 311.922 15.6258   7
  -5   2   0 300.976 19.8046  10
  -6  -2   0 0.76237 1.16516   8
  -6   2   0 -1.0761 1.51801   5
  -7  -2   0 2.94632 0.96826   8
   0  -3   0 16.2391 1.96104   3
   0   3   0 0.27557 6.97854   1
  -1  -3   0 158.490 8.65162   3
   1  -3   0 148.602 7.51768   3
   1   3   0 161.712 8.94249   2
  -1   3   0 155.131 12.5059   1
   1   3   0 141.678 18.3383   1
   1   3   0 153.230 18.9401   1
  -2  -3   0 252.500 14.7951   6
   2  -3   0 219.888 11.8302   3
  -2  -3   0 269.164 13.7955   3
  -2   3   0 255.235 15.0395   4
  -2   3   0 277.867 13.7231   7
  -2   3   0 254.197 14.0527   8
   2   3   0 263.830 13.7733   2
  -2   3   0 273.123 17.8053  10
  -3  -3   0 245.923 14.6137   6
  -3  -3   0 251.509 13.8769   3
  -3   3   0 235.240 17.4074  10
  -3   3   0 232.928 12.6670   7
  -3   3   0 238.276 16.2580   5
  -3   3   0 233.897 13.9902   4
   3   3   0 244.347 13.7725   2
  -3   3   0 224.687 13.6733   8
  -4  -3   0 50.7432 5.42619   6
  -4   3   0 57.2283 7.05928   5
  -4   3   0 50.7412 5.56061   8
  -4   3   0 52.2375 7.63783  10
   4   3   0 53.8856 5.74554   2
  -4   3   0 48.0841 4.66590   7
  -5  -3   0 147.377 11.6254   5
  -5   3   0 165.786 12.3943   5
   5   3   0 158.973 10.7878   2
  -5   3   0 158.988 9.25313   7
  -5   3   0 153.823 13.1705  10
  -5   3   0 160.600 10.4230   8
  -6  -3   0 17.1457 2.72724   8
  -6   3   0 14.1549 2.34274   8
   0   4   0 9999.99 409.533   4
  -1  -4   0 352.037 17.5638   3
  -1  -4   0 343.836 19.2182   6
  -1   4   0 363.345 22.7965  10
  -1   4   0 345.590 17.1432   7
  -1   4   0 341.371 18.2119   4
   1   4   0 363.461 18.1724   2
  -2  -4   0 53.0665 5.94153   6
  -2  -4   0 56.4158 5.33757   3
  -2   4   0 52.8396 7.58296  10
  -2   4   0 53.9586 7.22072   5
  -2   4   0 57.2945 4.78615   7
  -2   4   0 54.6588 5.48956   4
  -3  -4   0 357.848 19.7886   3
  -3  -4   0 374.689 20.8495   6
   3  -4   0 370.261 18.9935   9
  -3   4   0 382.051 23.6834   5
  -3   4   0 377.488 24.8855  10
  -3   4   0 363.328 19.7780   8
  -3   4   0 374.705 20.2065   4
   3   4   0 366.446 19.9360   2
  -3   4   0 354.249 18.4677   7
  -4  -4   0 340.720 18.7883   6
   4   4   0 337.186 18.8673   2
  -4   4   0 343.842 21.7356   5
  -4   4   0 343.276 23.3524  10
  -4   4   0 339.779 18.5261   8
  -4   4   0 362.412 17.6557   7
  -5  -4   0 168.372 10.7565   8
  -5  -4   0 127.910 10.0445   5
  -5   4   0 187.614 9.25135   7
  -5   4   0 178.356 9.97479   8
  -6  -4   0 1.49766 1.01018   8
   0  -5   0 0.20720 1.45247   6
   0   5   0 0.57745 1.02317   7
   1  -5   0 25.7792 4.29559   6
  -1  -5   0 20.1254 3.81671   3
  -1  -5   0 25.9797 4.50233   6
   1   5   0 31.0180 3.38554   7
  -1   5   0 29.6955 3.45851   7
  -2  -5   0 64.6298 6.92509   3
  -2   5   0 75.1544 7.08970   7
   3  -5   0 51.2161 6.53768   9
  -3  -5   0 59.2762 6.28712   6
  -3   5   0 59.7101 5.09451   7
   3   5   0 56.4310 4.49968   7
  -4  -5   0 28.8460 3.93324   6
  -5  -5   0 61.4066 4.09268   8
  -5   5   0 62.5196 3.65834   7
   0  -6   0 2321.99 100.489   9
   0  -6   0 2375.23 100.681   6
   0   6   0 2352.70 98.2532   7
   1  -6   0 140.194 9.92446   6
   1  -6   0 147.244 10.4383   9
  -1  -6   0 163.010 11.0028   6
  -1   6   0 155.740 9.07056   7
   1   6   0 154.494 8.72974   7
  -2  -6   0 21.5503 3.57001   6
  -2   6   0 22.1655 2.74750   7
   2   6   0 20.0498 2.53222   7
  -3  -6   0 110.886 7.64110   6
  -3   6   0 105.636 6.40139   7
  -4   6   0 126.255 6.29567   7
   0  -7   0 0.43101 1.23974   6
   0   7   0 -0.2612 0.62937   7
  -1  -7   0 3.60779 1.31360   6
  -1   7   0 2.67015 0.86427   7
   1   7   0 2.45057 0.97676   7
  -2  -7   0 23.0417 2.39384   6
  -2   7   0 19.3439 1.75235   7
  -7   0   1 27.5933 2.76975   8
  -6   0   1 8.76009 2.66056   8
  -5   0   1 266.720 16.8388   5
   5   0  -1 288.975 16.5916   6
   5   0  -1 258.582 15.5580   2
  -5   0   1 275.032 16.1000   8
   4   0  -1 351.804 19.3345   6
   4   0  -1 335.083 17.9710   2
  -4   0   1 353.907 20.0681   5
  -4   0   1 354.113 18.7002   8
   3   0  -1 100.311 12.7817   1
  -2   0   1 51.5377 6.66644   1
  -2   0   1 49.4408 3.17923   3
   2   0  -1 50.9246 6.51468   1
   1   0  -1 2886.60 121.564   1
  -1   0   1 2942.45 121.718   1
   2   0   1 0.95583 2.03896   1
   2   0   1 -0.3359 2.13211   1
   2   0   1 -0.2071 0.60773   2
   3   0   1 41.7346 3.34838   2
   3   0   1 20.8211 6.29152   1
  -4   0  -1 618.885 30.1179   8
   4   0   1 639.778 29.0036   2
  -4   0  -1 631.408 32.7186   5
   5   0   1 95.9455 7.86855   2
  -5   0  -1 93.9994 7.93331   8
  -5   0  -1 95.4216 9.45603   5
  -6   0  -1 18.8810 3.96380   5
  -6   0  -1 17.5436 3.18135   8
  -7   0  -1 16.1047 2.72029   8
  -7  -1   1 1.24992 0.93631   8
  -7   1   1 1.57301 0.91532   8
  -6  -1   1 654.011 31.5174   8
  -6   1   1 659.071 31.0823   8
  -5  -1   1 122.369 9.45866   8
  -5  -1   1 114.843 9.98769   5
   5  -1  -1 114.791 8.95740   2
   5   1  -1 112.430 8.93412   2
  -5   1   1 124.574 9.07499   8
  -5   1   1 112.013 9.72101   5
   4  -1  -1 177.269 10.7683   2
  -4  -1   1 166.132 12.4376   5
   4   1  -1 168.699 11.5627   6
  -4   1   1 170.105 13.4993  10
  -4   1   1 174.868 10.9265   8
  -4   1   1 158.982 9.43067   7
   4   1  -1 184.814 11.0057   2
  -4   1   1 168.375 12.1943   5
   3  -1  -1 180.130 12.6727   1
  -3  -1   1 172.829 9.71448   3
   3   1  -1 191.840 21.7962   1
   3   1  -1 177.284 10.1212   2
   2  -1  -1 82.8558 6.84126   1
   2  -1  -1 85.1572 4.52361   9
  -2  -1   1 84.2509 5.14249   3
   2   1  -1 81.7049 5.28322   2
  -2   1   1 86.9672 7.08360   1
   2   1  -1 97.1991 10.6682   1
   2   1  -1 92.1946 10.5364   1
   0  -1   1 264.586 13.9980   1
   0  -1  -1 275.802 14.3423   1
   0  -1   1 274.432 11.6700   3
   0  -1  -1 273.053 11.3121   3
   0   1   1 279.260 11.8062   2
   0   1  -1 268.350 11.5904   2
   0   1  -1 246.877 13.7650   1
   0   1   1 258.237 14.0717   1
  -1  -1  -1 3150.70 130.318   1
   1   1   1 2936.48 128.592   1
   2   1   1 5189.56 218.883   1
   3  -1   1 43.8991 3.63578   2
   3   1   1 46.6995 3.94343   2
   3   1   1 34.9653 10.9578   1
   4  -1   1 4.12149 1.81890   2
  -4  -1  -1 3.58328 1.99409   8
  -4   1  -1 1.32003 1.32748   7
   4   1   1 4.16954 1.90651   2
  -4   1  -1 4.69892 2.17618  10
  -4   1  -1 2.67508 2.03845   5
  -4   1  -1 4.43731 1.93157   8
  -5  -1  -1 214.484 15.4800   5
  -5  -1  -1 201.105 13.1213   8
  -5   1  -1 205.619 13.2106   8
  -5   1  -1 207.487 15.1962  10
   5   1   1 219.751 12.7296   2
  -5   1  -1 203.122 14.9914   5
  -6  -1  -1 285.533 17.2649   5
  -6  -1  -1 309.349 16.6520   8
  -6   1  -1 307.417 16.5839   8
  -7  -1  -1 16.8652 2.08750   8
  -7   1  -1 17.0036 2.05171   8
  -7  -2   1 15.8710 2.21949   8
  -6  -2   1 4.41498 1.92169   8
  -6   2   1 4.86749 1.86067   8
  -5  -2   1 177.223 12.8913   5
   5  -2  -1 179.684 13.6293   2
  -5   2   1 199.660 10.9537   7
  -5   2   1 188.299 13.2946   5
   5   2  -1 188.287 12.1971   2
  -5   2   1 196.617 13.3986   8
  -4  -2   1 292.568 16.1955   3
  -4  -2   1 278.719 15.6124   6
  -4   2   1 286.853 16.2138   8
   4   2  -1 291.631 17.3968   6
  -4   2   1 313.228 21.4242  10
  -4   2   1 287.021 15.0766   7
   4   2  -1 300.719 16.7340   2
  -4   2   1 292.020 18.1635   5
   3  -2  -1 95.2039 5.71484   9
  -3  -2   1 104.305 7.02138   3
  -3  -2   1 97.3274 10.3758   6
   3   2  -1 97.6590 7.04337   2
  -3   2   1 93.7009 6.19085   7
  -3   2   1 94.4335 9.21821  10
   3   2  -1 96.2688 7.64865   6
  -3   2   1 98.0240 8.52055  11
  -3   2   1 94.8218 7.13732   8
  -2  -2   1 19.0750 2.39442   3
   2   2  -1 12.6092 8.12162   1
   2   2  -1 16.0686 2.25027   2
   2   2  -1 18.0945 8.15043   1
   1  -2  -1 1913.58 84.3420   1
  -1  -2   1 1938.13 81.2430   3
   1   2  -1 2148.51 89.1934   1
   1   2  -1 1941.25 88.7723   1
   1   2  -1 1870.30 81.2067   2
   0  -2   1 1052.01 45.8712   3
   0  -2  -1 1074.36 45.4259   3
   0  -2  -1 1104.68 51.3297   1
   0   2  -1 1140.45 46.1086   2
   0   2  -1 1112.77 50.8362   1
   0   2   1 1117.14 51.0335   1
   0   2  -1 1078.69 50.3560   1
   0   2   1 1117.56 46.2604   2
  -1  -2  -1 2095.57 97.9987   1
  -1   2  -1 2201.27 91.2727   1
   1   2   1 2297.37 99.7937   1
  -1   2  -1 2195.38 91.3656   1
  -2  -2  -1 17.2830 2.23092   3
   2   2   1 15.0396 2.18777   2
   2   2   1 20.7881 9.19543   1
   2   2   1 16.1709 8.38142   1
  -3  -2  -1 32.4133 4.03367   6
  -3   2  -1 31.2339 4.74698   5
  -3   2  -1 35.1021 4.01047   8
  -3   2  -1 33.5315 5.49020  10
  -3   2  -1 34.2821 3.98059   4
   3   2   1 33.4414 3.57928   2
  -3   2  -1 32.2499 3.29696   7
   4  -2   1 426.756 20.4168   2
  -4  -2  -1 350.000 19.6681   6
   4   2   1 429.604 24.4391   2
  -4   2  -1 425.244 21.4770   4
  -4   2  -1 405.118 21.5694   8
  -4   2  -1 430.982 25.6166  10
  -4   2  -1 431.564 24.4240   5
  -5  -2  -1 83.2859 8.90725   5
  -5  -2  -1 82.2303 7.50077   8
  -5   2  -1 79.8931 7.18388   8
  -5   2  -1 81.2755 8.58248   5
  -5   2  -1 82.2309 9.19236  10
   5   2   1 90.2877 8.14650   2
  -5   2  -1 80.7261 5.76008   7
  -6  -2  -1 11.5436 2.87771   5
  -6   2  -1 14.1819 3.04003   5
  -6  -3   1 427.234 19.5764   8
  -6   3   1 349.248 18.6268   8
  -5   3   1 69.7079 7.19627   5
  -5   3   1 67.0713 5.93614   8
  -5   3   1 70.7912 5.52375   7
   5   3  -1 72.1096 6.81865   2
  -4  -3   1 94.6075 7.82312   6
   4   3  -1 87.0754 7.65869   2
  -4   3   1 87.5706 6.68162   7
  -4   3   1 87.1254 7.33813   8
  -4   3   1 93.9863 10.3015  10
  -4   3   1 94.2531 9.20660   5
   3  -3  -1 99.2561 6.72437   9
  -3  -3   1 102.939 7.70608   3
  -3  -3   1 100.355 8.25051   6
  -3   3   1 94.2651 7.45272   8
  -3   3   1 102.653 6.86689   7
  -3   3   1 101.361 9.43495   5
  -3   3   1 99.0120 10.2538  10
   3   3  -1 100.528 7.68542   2
  -2  -3   1 77.4532 6.84459   6
  -2  -3   1 82.8840 6.12495   3
  -2   3   1 82.8684 8.65676  10
  -2   3   1 75.5488 5.37232   7
  -2   3   1 75.0062 6.14803   4
   2   3  -1 80.6304 6.02365   2
  -2   3   1 74.0116 7.56247   5
  -1  -3   1 2651.74 98.3045   3
  -1   3   1 1664.73 106.538   1
   1   3  -1 2629.10 98.3837   2
   1   3  -1 2441.61 110.961   1
   0  -3  -1 64.3855 3.97801   3
   0  -3   1 64.0031 4.45527   3
   0   3  -1 65.6332 4.66244   2
   0   3  -1 63.7479 11.3363   1
  -1  -3  -1 1211.88 49.8626   3
   1  -3   1 1198.02 49.4064   3
   1   3   1 1172.69 50.3828   2
   1   3   1 1202.82 64.2664   1
   1   3   1 1099.02 62.4204   1
  -1   3  -1 1136.73 52.5259   1
   2  -3   1 1660.05 69.7103   3
  -2  -3  -1 1648.14 72.7056   6
  -2  -3  -1 1690.73 71.1904   3
  -2   3  -1 1674.49 70.6092   7
  -2   3  -1 1703.19 76.6996  10
  -2   3  -1 1657.55 72.1301   4
   2   3   1 1695.39 71.4479   2
  -2   3  -1 1667.75 75.1885   5
  -3  -3  -1 1.00337 1.29345   3
  -3  -3  -1 0.32195 1.36186   6
  -3   3  -1 5.10865 2.67123   5
   3   3   1 1.41690 1.60768   2
  -3   3  -1 0.04596 1.17080   8
  -3   3  -1 1.01296 1.47641  10
  -3   3  -1 0.04043 1.09751   7
  -3   3  -1 -0.0105 1.21709   4
  -4  -3  -1 2.15078 1.81075   6
  -4   3  -1 0.23164 1.67203   5
  -4   3  -1 3.53885 1.56655   7
   4   3   1 5.37200 2.54300   2
  -4   3  -1 1.76220 1.73331   8
  -4   3  -1 1.32269 1.60185  10
  -4   3  -1 2.56139 1.62953   4
  -5  -3  -1 157.320 10.6090   8
  -5  -3  -1 164.296 12.6955   5
  -5   3  -1 151.792 8.79264   7
  -5   3  -1 145.425 11.8998   5
   5   3   1 135.890 10.2116   2
  -5   3  -1 162.315 13.3744  10
  -5   3  -1 146.773 10.1685   8
  -6  -3  -1 228.364 11.5450   8
  -6   3  -1 178.467 11.5307   5
  -6   3  -1 217.201 11.2156   8
  -6  -4   1 0.09698 0.72875   8
  -5   4   1 69.0136 5.26948   8
  -5   4   1 76.1208 5.25509   7
  -4  -4   1 159.291 10.7556   6
   4   4  -1 148.776 10.6704   2
  -4   4   1 155.925 9.51922   7
  -4   4   1 145.004 9.91254   8
  -3  -4   1 25.8499 4.31543   6
   3  -4  -1 22.1883 4.02596   9
  -3  -4   1 28.7764 6.03411   3
  -3   4   1 23.9771 3.78266   8
   3   4  -1 22.6087 4.31814   2
  -3   4   1 27.8732 5.74850  10
  -3   4   1 26.3421 3.33588   7
  -2  -4   1 5.55804 2.45612   6
  -2  -4   1 9.52625 2.65240   3
  -2   4   1 5.68484 1.79766   7
  -2   4   1 6.03614 2.88039  10
  -1  -4   1 556.953 28.9598   3
  -1  -4   1 502.234 26.2531   6
  -1   4   1 502.237 23.7634   7
   1   4  -1 510.875 24.7054   2
   0  -4  -1 264.474 15.3270   6
   0  -4  -1 256.852 12.7201   3
   0  -4   1 257.683 13.6336   3
   0   4  -1 268.048 15.0981   4
   0   4   1 265.677 13.4609   7
   0   4  -1 276.553 18.1167  10
   0   4  -1 272.759 13.7015   7
   1  -4   1 556.688 26.7407   3
  -1  -4  -1 612.923 27.4590   3
  -1  -4  -1 585.971 29.5632   6
   1   4   1 605.813 27.1166   7
  -1   4  -1 620.242 27.5954   7
  -1   4  -1 642.866 33.7421  10
  -1   4  -1 592.335 28.7231   4
  -2  -4  -1 10.3329 2.59962   3
  -2  -4  -1 8.76516 2.96819   6
  -2   4  -1 8.21165 2.54534   4
  -2   4  -1 9.14530 2.17863   7
  -2   4  -1 8.40009 3.37945   5
  -2   4  -1 6.59734 2.50168   8
   2   4   1 9.67098 2.82199   2
  -2   4  -1 8.64495 3.37792  10
  -3  -4  -1 2.84539 1.75978   6
  -3   4  -1 3.02960 2.19232  10
  -3   4  -1 4.46353 2.16794   8
   3   4   1 2.42441 2.01701   2
  -3   4  -1 2.30309 2.24304   5
  -3   4  -1 2.41951 1.60407   4
  -3   4  -1 3.15634 1.68625   7
  -4  -4  -1 158.976 10.4830   6
  -4   4  -1 161.058 9.48987   7
  -4   4  -1 159.714 13.2699   5
  -4   4  -1 156.300 10.6633   8
  -4   4  -1 147.191 13.7722  10
   4   4   1 152.062 10.5195   2
  -5  -4  -1 50.1424 4.80534   8
  -5  -4  -1 41.5998 5.29305   5
  -5   4  -1 46.6885 5.65855   5
  -5   4  -1 47.6083 4.50945   8
  -5   4  -1 48.3564 3.80868   7
  -5  -5   1 21.1417 2.46428   8
  -5   5   1 23.8510 2.17038   7
  -4  -5   1 34.7136 4.45825   6
  -4   5   1 35.9389 4.18841   7
   3  -5  -1 21.8671 4.47849   9
  -3  -5   1 37.3930 5.03698   6
   3   5  -1 31.5417 4.57729   2
  -3   5   1 34.3001 3.68334   7
  -2  -5   1 27.8327 4.76689   3
   2  -5  -1 27.3123 4.63974   9
  -1  -5   1 676.838 33.5947   6
   1  -5  -1 651.371 32.3611   6
  -1  -5   1 610.343 33.6140   3
  -1   5   1 706.556 30.7847   7
   1   5  -1 686.106 30.6426   7
   0  -5   1 47.9154 5.77570   6
   0  -5  -1 46.5228 5.49869   6
   0   5   1 48.6632 4.35560   7
   0   5  -1 51.8225 4.58459   7
   0   5  -1 46.8509 4.89086   4
  -1  -5  -1 237.770 14.8232   6
  -1   5  -1 233.541 12.7090   7
  -1   5  -1 228.000 13.5717   4
   1   5   1 218.831 12.0240   7
  -2  -5  -1 335.043 18.3599   9
  -2   5  -1 406.053 21.5154   4
  -2   5  -1 306.806 26.2773  10
   2   5   1 351.307 16.8207   7
  -3  -5  -1 7.64533 2.86217   6
   3  -5   1 8.59731 3.50970   9
  -3   5  -1 5.55573 2.80123  10
  -3   5  -1 6.54172 1.96483   7
  -4  -5  -1 -0.2533 1.14927   6
  -4   5  -1 0.07338 0.99256   7
  -4   6   1 46.9195 3.04494   7
  -3  -6   1 4.04270 1.70067   6
  -3   6   1 3.35446 1.23791   7
  -2  -6   1 3.87681 2.05319   6
   2   6  -1 2.82258 1.33061   7
  -2   6   1 2.55317 1.28034   7
   1  -6  -1 93.0684 7.81888   9
  -1  -6   1 90.2906 7.85411   6
   1  -6  -1 88.9859 7.46563   6
  -1   6   1 94.0687 6.33201   7
   1   6  -1 93.5913 6.25802   7
   0  -6  -1 51.1036 5.78772   9
   0  -6   1 57.9450 5.99324   6
   0  -6  -1 57.6993 6.01532   6
   0   6   1 58.1373 4.64035   7
   0   6  -1 56.4375 4.72401   7
  -1  -6  -1 202.373 12.6377   6
  -1  -6  -1 175.063 11.6888   9
  -1   6  -1 195.789 10.6424   7
   1   6   1 181.386 9.89301   7
  -2  -6  -1 1.63589 1.46720   6
  -2   6  -1 1.81597 1.11708   7
   2   6   1 2.44649 1.63023   7
  -3  -6  -1 1.21274 1.21791   6
  -3   6  -1 1.08289 0.90985   7
  -4   6  -1 35.9698 2.61028   7
  -2  -7   1 11.8939 1.78867   6
  -2   7   1 6.66765 1.22114   7
  -1  -7   1 185.930 9.57364   6
   1   7  -1 168.347 8.26752   7
  -1   7   1 172.089 8.35567   7
   0  -7  -1 35.3313 3.59336   6
   0  -7   1 40.1036 4.43032   6
   0   7   1 28.2051 2.50117   7
   0   7  -1 31.9083 2.97864   7
  -1  -7  -1 45.8199 3.89791   6
  -1   7  -1 54.8913 3.83238   7
  -2  -7  -1 61.2025 4.08547   6
  -2   7  -1 63.6126 3.60168   7
  -6   0   2 362.745 18.4612   8
   6   0  -2 323.932 19.0523   2
   5   0  -2 8.34815 2.89334   2
  -5   0   2 0.48345 1.44866   8
   5   0  -2 0.91847 1.76588   6
  -4   0   2 306.238 16.7256   8
   4   0  -2 309.653 16.5913   2
   4   0  -2 293.704 17.3081   6
  -3   0   2 215.046 10.8396   3
   3   0  -2 219.499 11.8555   2
  -2   0   2 687.361 30.2449   3
  -2   0   2 725.115 37.1389   1
   2   0  -2 756.112 37.1005   1
   2   0  -2 691.974 29.9529   9
  -1   0   2 1785.26 78.8685   1
   1   0  -2 1845.97 79.3503   1
   1   0   2 1023.91 45.5680   1
  -1   0  -2 987.227 42.3720   9
  -1   0  -2 1063.64 46.0635   1
   2   0   2 1682.85 69.7909   2
   2   0   2 1796.36 74.6676   1
  -2   0  -2 1612.98 74.6537   1
   3   0   2 767.923 39.8483   1
   3   0   2 787.804 33.5583   2
   4   0   2 196.775 10.4429   2
  -4   0  -2 180.405 11.6006   8
  -4   0  -2 181.562 13.7583   5
  -4   0  -2 186.450 13.9423  10
  -5   0  -2 959.977 47.9087   5
  -5   0  -2 971.767 44.6708   8
  -6   0  -2 79.2457 6.61550   8
  -6   0  -2 78.0091 7.73801   5
  -7   0  -2 8.66508 1.66530   8
  -7  -1   2 7.99699 1.51945   8
  -6  -1   2 150.674 9.98860   8
  -6   1   2 140.586 9.23646   8
   5  -1  -2 1078.28 49.9981   2
  -5  -1   2 1120.21 50.5037   8
   5   1  -2 1098.40 50.8775   6
   5   1  -2 1125.98 50.2282   2
  -5   1   2 1053.90 49.2963   8
   4  -1  -2 944.857 42.5595   2
  -4  -1   2 940.884 41.7019   3
   4   1  -2 976.714 42.7797   2
  -4   1   2 892.636 42.1088   8
   4   1  -2 921.719 43.5552   6
  -4   1   2 914.317 40.7740   7
   3  -1  -2 362.116 16.9327   9
  -3  -1   2 394.228 18.5293   3
  -3   1   2 384.805 21.0972  11
   3   1  -2 408.111 19.2310   2
  -3   1   2 377.492 18.0988   7
   3   1  -2 401.432 32.5943   1
  -2  -1   2 3080.24 135.588   1
   2  -1  -2 3057.73 130.483   1
  -2   1   2 3054.18 131.008   1
   2   1  -2 3054.69 134.163   1
  -1  -1   2 544.618 23.0441   3
  -1  -1   2 549.314 28.9300   1
   1  -1  -2 548.690 26.5658   1
   1   1  -2 541.088 28.2027   1
  -1   1   2 471.111 26.5434   1
   1   1  -2 539.245 23.5379   2
   0  -1  -2 1104.22 45.7060   9
   0  -1   2 1113.89 49.6999   1
   0  -1  -2 1086.58 49.6967   1
   0   1  -2 1065.82 45.2352   2
   0   1   2 1126.02 49.7983   1
  -1  -1  -2 92.0280 4.87202   9
   1  -1   2 94.7664 6.70516   1
  -1  -1  -2 99.8172 9.30815   1
  -1   1  -2 95.8929 6.58281   1
   1   1   2 90.7676 4.91735   2
   1   1   2 96.5929 9.06008   1
   2  -1   2 1176.54 47.3208   1
   2  -1   2 1089.17 46.6945   2
  -2  -1  -2 1044.82 46.7035   9
   2  -1   2 1171.84 47.1855   1
  -2  -1  -2 1158.35 55.6453   1
   2   1   2 1153.48 55.1523   1
   2   1   2 1121.40 47.4277   2
   3  -1   2 2472.96 102.124   2
  -3   1  -2 2534.48 107.494   5
  -3   1  -2 2445.47 104.395   8
   3   1   2 2465.65 102.838   2
  -4   1  -2 87.4002 9.14407  10
  -4   1  -2 82.3826 6.65398   4
  -4   1  -2 75.0153 9.85089   5
   4   1   2 90.3088 6.46664   2
  -5  -1  -2 294.941 18.9035   5
  -5  -1  -2 270.063 15.7244   8
  -5   1  -2 269.246 18.1684  10
  -5   1  -2 272.091 15.8236   8
  -5   1  -2 279.142 18.2599   5
   5   1   2 174.804 16.4860   2
  -6  -1  -2 95.4511 9.08227   5
  -6  -1  -2 90.7348 7.02801   8
  -6   1  -2 80.1000 9.92317   5
  -6   1  -2 91.9992 7.11690   8
  -7  -1  -2 20.4932 2.09892   8
  -7   1  -2 18.3779 2.03470   8
  -6   2   2 267.737 13.7904   8
  -5   2   2 -0.0671 1.28605   7
   5   2  -2 2.04407 2.64878   2
  -5   2   2 -0.4336 1.30617   8
  -4  -2   2 200.591 12.9606   6
  -4  -2   2 201.936 12.3767   3
  -4   2   2 200.008 11.2879   7
  -4   2   2 199.462 12.1635   8
   4   2  -2 208.342 12.8345   2
   4   2  -2 190.904 13.2098   6
  -4   2   2 193.700 13.5826   5
  -3  -2   2 119.425 7.77894   3
  -3  -2   2 100.666 8.02352   6
   3  -2  -2 105.789 6.52915   9
   3   2  -2 105.730 8.40067   6
   3   2  -2 116.798 7.98582   2
  -3   2   2 157.567 16.9185  10
  -3   2   2 107.704 9.06790  11
  -3   2   2 103.946 6.85843   7
   2  -2  -2 386.868 17.5736   9
  -2  -2   2 388.761 18.2169   3
   2   2  -2 379.842 18.3259   2
   2   2  -2 382.662 28.6790   1
   2   2  -2 353.550 28.1165   1
   1  -2  -2 733.255 37.2820   1
  -1  -2   2 781.411 32.8354   3
   1   2  -2 756.984 32.6594   2
   1   2  -2 748.394 40.2113   1
   0  -2  -2 3614.98 154.392   1
   0   2  -2 3653.90 153.103   1
   0   2   2 3535.03 153.600   1
  -1  -2  -2 484.226 20.8831   9
   1   2   2 478.122 21.0357   2
  -1   2  -2 458.601 22.4610   1
   1   2   2 476.093 28.6828   1
  -1   2  -2 448.593 22.5889   1
  -2  -2  -2 653.028 29.0986   9
  -2  -2  -2 683.084 41.6009   1
   2   2   2 694.178 29.9582   2
   2   2   2 676.793 41.6643   1
  -3   2  -2 445.329 26.0058  10
  -3   2  -2 426.173 22.1579   4
  -3   2  -2 450.003 22.4828   8
  -3   2  -2 437.812 20.7130   7
   3   2   2 468.720 21.4262   2
  -3   2  -2 456.998 25.1327   5
  -4   2  -2 161.866 10.8783   4
  -4   2  -2 169.925 13.3422   5
  -4   2  -2 165.577 11.1789   8
  -4   2  -2 165.811 14.2055  10
  -5  -2  -2 816.530 36.7508   8
  -5  -2  -2 830.104 40.8661   5
  -5   2  -2 780.712 36.7139   8
  -5   2  -2 759.558 40.4995  10
   5   2   2 729.743 35.5240   2
  -5   2  -2 763.112 39.5879   5
  -5   2  -2 712.089 33.4082   7
  -6  -2  -2 58.5669 6.05677   5
  -6  -2  -2 66.0535 5.41889   8
  -6   2  -2 57.0352 6.02902   5
  -6   2  -2 65.2778 5.50612   8
  -6  -3   2 113.967 7.58346   8
   5  -3  -2 726.899 41.4661   2
  -5   3   2 654.732 31.2572   8
  -5   3   2 708.696 31.1328   7
   5   3  -2 656.701 32.7698   2
  -4  -3   2 450.644 22.9675   6
  -4  -3   2 445.028 23.1215   3
   4   3  -2 438.989 22.9545   2
  -4   3   2 413.903 24.3365   5
  -4   3   2 423.360 21.8710   8
  -4   3   2 440.267 21.4171   7
  -3  -3   2 255.852 14.7735   3
   3  -3  -2 259.129 13.6415   9
  -3  -3   2 260.597 15.7065   6
  -3   3   2 242.539 16.5878   5
  -3   3   2 238.687 14.0060   8
  -3   3   2 265.203 16.5510  11
  -3   3   2 260.295 13.5907   7
   3   3  -2 266.510 14.8428   2
   2  -3  -2 986.515 42.7799   9
  -2  -3   2 1002.14 43.5508   3
  -2  -3   2 929.688 44.7472   6
  -2   3   2 927.131 45.0138  11
   2   3  -2 966.500 44.3239   6
  -2   3   2 1006.35 48.7255  10
  -2   3   2 1009.41 46.9571   5
  -2   3   2 974.651 42.4226   7
   2   3  -2 992.631 43.3347   2
  -1  -3   2 207.423 11.3348   3
   1   3  -2 214.529 11.2682   2
   0  -3   2 205.309 10.6057   3
   0   3  -2 197.066 18.3548   1
   0   3  -2 199.128 10.3979   2
   1  -3   2 97.5173 6.04265   3
  -1  -3  -2 95.1249 7.86980   6
   1   3   2 103.645 6.59140   2
  -1   3  -2 94.9357 7.05297   8
  -1   3  -2 95.5977 8.43229   5
  -1   3  -2 92.8838 9.90649   1
  -2  -3  -2 393.114 20.3159   6
   2  -3   2 396.760 18.2563   3
  -2  -3  -2 386.041 18.4174   9
  -2   3  -2 391.548 23.7334  10
  -2   3  -2 374.026 19.7945   8
   2   3   2 408.554 19.2291   2
  -2   3  -2 383.467 18.4114   7
  -2   3  -2 380.823 22.3914   5
  -2   3  -2 371.295 19.6871   4
  -3  -3  -2 983.698 51.0455   6
   3  -3   2 1095.35 47.8199   3
  -3   3  -2 1123.20 48.1620   7
  -3   3  -2 1148.93 53.8951   5
  -3   3  -2 1102.32 50.0525   4
  -3   3  -2 1093.57 49.9631   8
  -3   3  -2 1133.37 55.3979  10
   3   3   2 1160.34 49.2122   2
  -4  -3  -2 24.7096 3.67830   6
  -4   3  -2 24.3848 5.44003  10
  -4   3  -2 25.5923 3.98093   8
  -4   3  -2 22.4675 4.72514   5
   4   3   2 24.9080 3.87305   2
  -4   3  -2 25.3091 3.20957   7
  -4   3  -2 24.7406 3.93785   4
  -5  -3  -2 212.617 15.1183   5
  -5  -3  -2 196.203 11.9628   8
  -5   3  -2 190.711 15.1065  10
  -5   3  -2 203.154 14.4706   5
   5   3   2 150.791 13.0810   2
  -5   3  -2 184.874 11.5389   7
  -5   3  -2 201.190 12.2331   8
  -6  -3  -2 31.4483 3.65614   5
  -6   3  -2 47.4168 3.87370   8
  -5   4   2 4.60295 1.58434   7
  -4  -4   2 62.2340 7.64214   3
  -4  -4   2 93.0691 7.69663   6
  -4   4   2 95.6253 6.67206   7
  -4   4   2 76.1720 6.43599   8
   4   4  -2 89.5562 7.71853   2
   3  -4  -2 27.2226 4.22597   9
  -3  -4   2 27.6877 4.67573   3
  -3  -4   2 29.8358 4.72369   6
  -3   4   2 21.5883 3.96705   8
  -3   4   2 30.3986 3.48196   7
   3   4  -2 34.1430 4.45063   2
   2  -4  -2 101.636 7.87492   9
  -2  -4   2 103.586 8.09295   3
  -2  -4   2 106.593 9.06107   6
  -2   4   2 111.367 7.28030   7
   2   4  -2 103.310 7.97354   2
   1  -4  -2 189.396 12.5507   6
  -1  -4   2 216.583 12.1778   3
  -1  -4   2 203.479 13.2877   6
   1   4  -2 208.824 11.8405   2
  -1   4   2 208.472 11.1353   7
   0  -4  -2 1006.53 46.5534   6
   0  -4   2 1031.19 45.2324   3
   0  -4   2 1027.63 47.2090   6
   0   4  -2 1068.83 50.0746  10
   0   4  -2 985.763 45.4877   4
   0   4   2 1032.55 44.2806   7
  -1  -4  -2 102.065 8.21821   6
   1  -4   2 110.729 7.22343   3
  -1  -4  -2 105.915 7.47116   9
  -1   4  -2 100.394 6.76331   7
   1   4   2 95.7434 6.28924   7
  -1   4  -2 104.979 10.5067  10
  -1   4  -2 104.679 10.0222   5
  -1   4  -2 96.6787 7.63249   4
  -2  -4  -2 115.767 7.98447   9
   2  -4   2 128.125 9.18001   3
  -2  -4  -2 115.174 9.24685   6
  -2   4  -2 119.387 11.2907   5
  -2   4  -2 115.938 7.64269   7
  -2   4  -2 123.365 12.1525  10
  -2   4  -2 115.390 8.96960   8
  -2   4  -2 108.380 8.62789   4
  -3  -4  -2 131.603 9.91766   6
  -3   4  -2 130.934 12.9647  10
  -3   4  -2 118.991 9.42648   8
  -3   4  -2 122.839 8.22953   7
  -3   4  -2 126.122 11.9914   5
   3   4   2 121.437 9.02570   2
  -3   4  -2 124.910 9.58903   4
  -4  -4  -2 146.330 9.54084   6
  -4   4  -2 139.090 12.2507   5
  -4   4  -2 142.657 8.62851   7
  -4   4  -2 150.000 10.2633   8
  -4   4  -2 137.767 13.1855  10
   4   4   2 138.536 9.79661   2
  -4   4  -2 143.243 10.1629   4
  -5  -4  -2 428.225 20.4856   8
  -5  -4  -2 390.318 22.9201   5
  -5   4  -2 447.267 24.7124  10
  -5   4  -2 449.878 20.4194   7
  -5   4  -2 430.392 21.0493   8
  -5   4  -2 443.405 23.5906   5
  -5  -5   2 268.252 13.3867   8
  -5   5   2 287.559 12.6910   7
  -4  -5   2 137.814 8.67582   6
  -4   5   2 115.684 7.89285   7
  -3  -5   2 116.621 9.21679   6
   3  -5  -2 87.3043 8.20869   9
   3   5  -2 118.526 8.86969   2
  -3   5   2 119.954 7.55203   7
   2  -5  -2 285.978 16.1903   9
  -2  -5   2 290.701 17.6823   6
  -2  -5   2 280.224 16.4629   3
  -2   5   2 301.415 15.1254   7
   2   5  -2 268.024 15.9280   2
   1  -5  -2 77.7193 7.09380   6
  -1  -5   2 75.4511 7.64179   6
   1  -5  -2 80.1782 6.90022   9
  -1  -5   2 74.1521 7.29594   3
  -1   5   2 77.5384 5.85382   7
   1   5  -2 77.2413 5.93414   7
   0  -5   2 31.3863 4.67264   6
   0  -5  -2 33.7926 4.73802   6
   0  -5  -2 34.0201 4.38106   9
   0  -5   2 27.6683 5.14654   3
   0   5  -2 31.2631 3.58384   7
   0   5   2 32.5519 3.37353   7
   0   5  -2 28.2865 4.06371   4
  -1  -5  -2 25.1861 4.29797   9
  -1  -5  -2 29.4207 4.53430   6
  -1   5  -2 27.3568 3.90633   4
  -1   5  -2 33.2241 6.09068  10
   1   5   2 27.4227 3.08655   7
  -1   5  -2 27.0139 3.36879   7
  -2  -5  -2 98.6233 8.53555   6
  -2   5  -2 99.3265 8.05946   4
  -2   5  -2 97.5263 6.96112   7
  -2   5  -2 97.7474 10.9383  10
  -3  -5  -2 437.682 22.6619   6
  -3   5  -2 434.178 20.6318   7
  -3   5  -2 406.264 21.9715   4
  -3   5  -2 435.557 26.9699  10
  -4  -5  -2 3.88042 1.62014   6
  -4  -5  -2 3.57241 1.80732   8
  -4   5  -2 5.10392 1.51976   7
  -4   6   2 28.8041 2.10014   7
  -3  -6   2 3.81884 1.58991   6
  -3   6   2 3.76228 1.26363   7
  -2   6   2 29.0223 3.54153   7
   2   6  -2 32.1291 3.28873   7
  -1  -6   2 68.1255 6.60268   6
   1  -6  -2 63.2994 6.00206   6
   1   6  -2 66.5925 4.98870   7
  -1   6   2 59.2322 4.69701   7
   0  -6  -2 294.716 15.7096   6
   0  -6  -2 258.148 15.2917   9
   0  -6   2 207.164 15.3540   6
   0   6   2 290.245 13.4378   7
   0   6  -2 282.734 13.9194   7
  -1  -6  -2 22.1661 3.68776   6
  -1  -6  -2 25.9928 5.20681   9
  -1   6  -2 22.9690 2.79458   7
   1   6   2 20.1386 2.54585   7
  -2  -6  -2 17.4878 4.91825   6
  -2   6  -2 16.6778 4.15952   7
  -3  -6  -2 25.7955 3.10335   6
  -3   6  -2 27.1264 2.56498   7
  -2  -7   2 45.5593 3.45515   6
  -1  -7   2 34.9867 3.12407   6
   1   7  -2 32.0706 2.38805   7
   0  -7  -2 1.39108 1.17528   6
   0   7  -2 2.74773 1.02596   7
  -1  -7  -2 8.33000 1.67462   6
  -1   7  -2 9.95992 1.32289   7
  -2  -7  -2 16.5808 2.29254   6
  -2   7  -2 31.6842 2.46319   7
   5   0  -3 118.221 9.40634   2
  -5   0   3 125.942 9.07284   8
   5   0  -3 113.743 10.5463   6
  -4   0   3 147.263 11.7120  11
   4   0  -3 148.247 10.1152   2
   4   0  -3 146.117 10.6247   6
  -4   0   3 151.315 10.0448   8
  -3   0   3 3740.15 153.874   7
  -2   0   3 1883.90 84.5827   3
   2   0  -3 2067.12 84.8527   9
  -2   0   3 2089.48 94.4298   1
   2   0  -3 2186.39 94.7673   1
  -1   0   3 2573.06 113.544   1
   1   0  -3 2647.84 114.098   1
   0   0  -3 171.853 9.12066   9
   0   0   3 191.608 13.5148   1
   0   0  -3 239.044 18.3081   1
   1   0   3 570.744 29.3509   1
  -1   0  -3 573.464 24.6263   9
  -2   0  -3 301.486 19.6258   1
   2   0   3 250.442 17.9401   1
  -3   0  -3 43.8372 6.96422   5
  -3   0  -3 46.2304 4.48961   8
  -4   0  -3 25.9526 4.90598   5
  -4   0  -3 26.8367 3.72794   8
  -4   0  -3 23.6477 4.70112  10
  -5   0  -3 30.8087 8.17245   5
  -5   0  -3 16.2939 6.96725  10
  -6   0  -3 149.805 9.62476   8
  -7   0  -3 22.7330 2.44387   8
  -6   1   3 12.5712 2.53792   8
   5  -1  -3 1478.65 78.2442   6
   5  -1  -3 1820.66 76.5570   2
   5   1  -3 1902.28 76.6754   2
  -4  -1   3 105.177 7.63970   3
   4  -1  -3 101.639 8.57101   6
  -4   1   3 101.841 7.69605   8
  -4   1   3 98.8936 6.77734   7
  -4   1   3 108.209 9.87626  11
   4   1  -3 93.9824 11.3010   6
  -3  -1   3 53.9043 5.94185   6
  -3  -1   3 60.8582 4.88520   3
   3  -1  -3 62.8299 4.32886   9
   3   1  -3 64.8469 5.42262   2
  -3   1   3 61.3660 4.52826   7
   3   1  -3 59.2685 6.23025   6
  -2  -1   3 454.800 31.0565   1
  -2  -1   3 470.824 21.5255   3
   2  -1  -3 445.969 27.7713   1
   2  -1  -3 505.644 21.2631   9
   2   1  -3 464.438 30.3186   1
   2   1  -3 493.475 22.0451   2
  -2   1   3 479.789 28.7320   1
  -1  -1   3 1067.58 43.5065   3
   1  -1  -3 1039.53 49.2345   1
   1  -1  -3 1064.49 43.4179   9
  -1  -1   3 1027.39 51.1090   1
  -1   1   3 1027.07 50.0992   1
  -1   1   3 966.957 42.0619   3
   1   1  -3 1019.22 43.4066   9
   1   1  -3 1073.21 50.9865   1
   1   1  -3 975.438 43.2796   2
   0  -1  -3 706.458 29.2106   9
   0  -1   3 674.706 34.4439   1
   0  -1  -3 694.635 34.9032   1
   0   1  -3 666.545 34.4197   1
   0   1  -3 644.738 28.3652   2
   0   1  -3 677.038 29.2467   9
   0   1   3 699.278 34.9842   1
  -1  -1  -3 630.558 33.6921   1
  -1  -1  -3 601.717 26.3742   9
   1  -1   3 649.075 30.9023   1
   1   1   3 603.121 32.7073   1
  -1   1  -3 584.934 30.0295   1
   2  -1   3 6.00261 3.69787   1
  -2  -1  -3 4.83771 6.93859   1
  -2  -1  -3 10.6840 1.49588   9
   2   1   3 7.04132 1.48812   2
  -2   1  -3 4.39819 3.55132   1
   2   1   3 25.9627 8.48929   1
  -3  -1  -3 633.320 30.6611   8
  -3   1  -3 635.355 30.8348   8
   3   1   3 649.887 28.9994   2
  -3   1  -3 767.405 40.0063  10
  -3   1  -3 628.475 33.4125   5
  -4  -1  -3 212.819 12.9516   8
  -4  -1  -3 210.676 15.7680   5
  -4  -1  -3 213.697 15.3586  10
  -4   1  -3 215.231 12.6974   4
  -4   1  -3 218.796 13.2803   8
  -4   1  -3 233.747 16.5888  10
   4   1   3 191.022 11.2655   2
  -4   1  -3 213.526 15.5755   5
  -5  -1  -3 118.144 11.2068   5
  -5  -1  -3 111.797 8.66138   8
  -5   1  -3 120.592 9.09298   8
  -5   1  -3 117.449 11.0620  10
  -5   1  -3 115.596 10.8358   5
  -6  -1  -3 369.267 18.5867   8
  -6  -1  -3 370.971 20.8325   5
  -6   1  -3 354.180 20.5499   5
  -7   1  -3 36.5272 3.54051   8
  -6  -2   3 1.89223 1.39665   8
   5  -2  -3 86.0804 7.92618   2
   5   2  -3 89.1902 7.86214   2
  -5   2   3 89.5206 6.92349   8
  -5   2   3 92.4468 6.72577   7
   5   2  -3 88.4253 8.22854   6
  -4  -2   3 134.051 9.38396   6
  -4  -2   3 133.893 9.40615   3
  -4   2   3 130.408 11.3030  11
   4   2  -3 131.907 9.73812   2
  -4   2   3 126.539 8.26932   7
   4   2  -3 130.093 10.2668   6
  -4   2   3 122.554 8.78315   8
  -3  -2   3 2634.55 108.751   3
  -3  -2   3 2566.88 109.735   6
   3  -2  -3 2603.71 107.140   9
  -3   2   3 2481.09 111.160  11
  -3   2   3 2547.97 107.454   7
   3   2  -3 2571.65 110.229   6
   3   2  -3 2647.85 109.081   2
  -2  -2   3 1318.93 53.7594   3
   2   2  -3 1174.71 66.0205   1
   2   2  -3 1229.51 53.5532   2
   1  -2  -3 1306.92 63.2239   1
  -1  -2   3 1373.10 67.3931   1
  -1  -2   3 1346.20 56.0454   3
   1  -2  -3 1349.85 55.8508   9
  -1   2   3 1279.31 63.9878   1
   1   2  -3 1310.22 65.3566   1
   1   2  -3 1271.78 55.5583   2
   0  -2  -3 106.397 6.23142   9
   0  -2   3 100.148 12.0176   1
   0  -2  -3 100.745 12.2694   1
   0  -2   3 105.821 6.13336   3
   0   2   3 97.2037 12.5658   1
   0   2  -3 103.607 5.61752   2
   0   2  -3 112.988 11.9536   1
   1  -2   3 251.744 16.3150   1
  -1  -2  -3 238.012 11.9274   9
  -1  -2  -3 230.839 21.3673   1
   1   2   3 251.446 20.6016   1
  -2  -2  -3 136.078 22.9137   1
  -2  -2  -3 124.273 7.15909   9
  -2   2  -3 135.612 11.1198  10
   2   2   3 116.456 22.2569   1
  -2   2  -3 131.354 8.61866   8
  -2   2  -3 140.079 9.48476   4
  -2   2  -3 131.695 10.3686   5
  -3  -2  -3 27.4862 3.67415   6
   3   2   3 28.4442 3.33213   2
  -3   2  -3 21.5765 3.35907   7
  -3   2  -3 26.4109 3.74109   8
  -3   2  -3 30.0401 5.29820  10
  -3   2  -3 31.1722 3.92720   4
  -3   2  -3 31.4981 5.00136   5
  -4  -2  -3 12.3688 3.22459   8
  -4   2  -3 7.47133 3.16011  10
  -4   2  -3 9.57080 2.81072   4
  -4   2  -3 9.27153 2.91943   8
  -4   2  -3 11.9686 4.08343   5
   4   2   3 5.99502 2.60879   2
  -5  -2  -3 19.7429 4.60390   5
  -5  -2  -3 18.2503 3.29019   8
  -5   2  -3 17.9175 4.06371   5
  -5   2  -3 20.4405 4.70643  10
  -5   2  -3 15.2278 3.18980   8
  -6  -2  -3 112.907 6.96790   8
  -6  -2  -3 115.388 8.69339   5
  -6   2  -3 110.722 7.24201   8
  -6   2  -3 111.833 8.57962   5
  -6   2  -3 73.9246 7.49057  10
  -6  -3   3 13.2418 2.28290   8
  -5   3   3 1208.49 50.4577   7
   5   3  -3 1113.15 52.2013   2
  -4  -3   3 94.5522 8.06915   6
  -4  -3   3 93.7374 8.16981   3
  -4   3   3 75.1516 7.55956   8
   4   3  -3 89.6128 7.86192   2
  -4   3   3 98.8208 6.86265   7
   3  -3  -3 25.1339 3.64318   9
  -3  -3   3 26.8234 4.26659   6
  -3  -3   3 23.5089 4.03871   3
   3   3  -3 27.4294 3.86509   2
  -3   3   3 25.8743 4.38145  11
   3   3  -3 26.1924 4.18971   6
  -3   3   3 25.4826 3.15081   7
   2  -3  -3 198.945 11.2309   9
  -2  -3   3 206.065 11.8883   3
  -2  -3   3 199.294 12.9205   6
  -2   3   3 195.394 10.6997   7
   2   3  -3 196.214 12.3001   6
   2   3  -3 196.418 11.4455   2
  -1  -3   3 356.973 17.5063   3
   1  -3  -3 372.183 17.4311   9
  -1  -3   3 323.730 18.5369   6
   1   3  -3 348.435 16.9498   2
  -1   3   3 345.825 16.5585   7
   0  -3  -3 172.346 9.74197   9
   0  -3   3 173.537 9.71354   3
   0   3  -3 169.417 9.12310   2
  -1  -3  -3 127.609 11.8199   6
   1  -3   3 141.516 8.23862   3
  -1  -3  -3 140.173 8.39764   9
  -1   3  -3 115.797 13.9426   1
  -1   3  -3 142.358 11.1678   5
  -1   3  -3 143.468 11.7277  10
  -1   3  -3 137.881 9.81855   4
  -1   3  -3 139.758 9.27843   8
  -1   3  -3 143.677 8.06438   7
  -2  -3  -3 5.31922 2.13407   6
   2  -3   3 0.12854 1.08800   3
  -2  -3  -3 0.25101 1.06618   9
  -2   3  -3 0.96607 1.21364   5
  -2   3  -3 0.51892 0.98840   8
  -2   3  -3 1.17690 1.20686   4
  -2   3  -3 1.05176 1.35582  10
   2   3   3 1.98145 1.39896   2
  -2   3  -3 0.82785 0.97508   7
  -3  -3  -3 289.260 16.5476   6
   3  -3   3 294.910 15.5340   3
  -3   3  -3 290.158 16.9003   4
  -3   3  -3 295.360 15.5790   7
  -3   3  -3 297.403 16.9353   8
  -3   3  -3 300.051 19.7427   5
  -3   3  -3 308.161 21.2352  10
  -4   3  -3 118.825 10.1710   4
  -4   3  -3 116.749 11.1641   5
   4   3   3 123.247 8.67579   2
  -4   3  -3 120.028 12.1971  10
  -5  -3  -3 101.267 9.90014   8
  -5  -3  -3 107.814 10.1745   5
  -5   3  -3 116.211 10.0542   5
  -5   3  -3 114.161 8.26035   8
  -5   3  -3 105.589 10.4297  10
  -6  -3  -3 106.094 7.62496   5
  -6   3  -3 138.358 9.49347   5
  -5   4   3 47.3143 3.90059   7
  -4  -4   3 82.1540 7.22704   6
  -4  -4   3 75.9336 9.50232   3
   4   4  -3 75.7485 7.16899   2
  -4   4   3 80.3096 6.05883   7
  -3  -4   3 907.641 43.8541   3
   3  -4  -3 971.081 42.8435   9
  -3  -4   3 930.611 44.7522   6
  -3   4   3 948.559 41.9691   7
   3   4  -3 956.280 43.6740   2
  -2  -4   3 293.681 18.0128   6
   2  -4  -3 316.549 16.6465   9
  -2  -4   3 288.770 16.8186   3
  -2   4   3 291.907 17.7114  11
   2   4  -3 311.019 16.6093   2
  -2   4   3 308.988 15.5439   7
   1  -4  -3 401.630 21.0377   6
  -1  -4   3 393.298 20.4094   3
   1   4  -3 422.967 20.0471   2
   1   4  -3 379.918 19.9386   4
   0  -4   3 18.3908 3.89391   6
   0  -4  -3 17.7973 3.23306   6
   0  -4   3 12.5453 2.80147   3
   0  -4  -3 24.9371 3.45377   9
   0   4   3 17.2336 2.55888   7
   0   4  -3 17.0368 3.13997   4
   0   4  -3 19.2664 4.55789  10
  -1  -4  -3 60.0248 5.43971   9
  -1  -4  -3 58.6203 6.02560   6
   1  -4   3 54.0864 5.26312   3
  -1   4  -3 57.2426 7.39654   5
  -1   4  -3 58.2479 4.79552   7
  -1   4  -3 56.2148 5.54963   4
  -2  -4  -3 66.9339 6.69254   6
   2  -4   3 67.6718 6.43292   3
  -2  -4  -3 62.6912 5.63008   9
  -2   4  -3 65.9932 8.18326   5
  -2   4  -3 68.2331 8.79933  10
  -2   4  -3 64.3279 6.56223   8
  -2   4  -3 63.7259 5.21864   7
  -2   4  -3 64.1741 6.36245   4
  -3  -4  -3 12.3657 3.52776   6
  -3   4  -3 9.12538 3.02252   8
  -3   4  -3 9.15674 3.43996  10
  -3   4  -3 11.8341 2.66802   7
  -3   4  -3 10.1217 3.80196   5
  -3   4  -3 12.0336 3.25004   4
  -4  -4  -3 1.62374 1.63208   6
  -4  -4  -3 1.42519 1.63723   8
  -4   4  -3 1.12380 1.52341   8
  -4   4  -3 2.12817 1.88241  10
  -4   4  -3 1.20570 1.68222   5
  -4   4  -3 1.65721 1.26215   7
  -4   4  -3 0.78376 1.32080   4
  -5  -4  -3 3.52395 1.86731   5
  -5   4  -3 1.90314 1.57177  10
  -5   4  -3 2.56740 1.64344   5
  -5   4  -3 2.83277 1.57644   8
  -4  -5   3 72.5445 5.78737   6
  -4   5   3 76.0356 5.12059   7
  -3  -5   3 0.89820 1.41678   6
   3  -5  -3 -2.4884 3.28321   9
   3   5  -3 -0.2016 2.39822   2
  -3   5   3 1.20965 1.16633   7
   2  -5  -3 45.9689 5.61802   6
   2  -5  -3 42.2368 5.08324   9
  -2  -5   3 40.5475 5.80278   3
  -2  -5   3 47.7950 5.93494   6
   2   5  -3 46.1450 5.24625   2
  -2   5   3 47.0528 4.22685   7
  -1  -5   3 84.4244 7.56009   3
   1  -5  -3 83.0622 7.10117   9
   0  -5  -3 69.8245 6.52493   9
   0  -5  -3 77.8576 7.05035   6
   0  -5   3 71.6480 7.17963   6
   0  -5   3 68.0554 7.11315   3
   0   5  -3 73.7980 6.34477   4
   0   5  -3 72.2127 5.66342   7
   0   5   3 67.4959 5.14539   7
  -1  -5  -3 40.0907 4.88222   9
  -1   5  -3 45.3131 9.91823  10
  -2  -5  -3 1.33811 2.21780   9
  -2  -5  -3 0.88393 1.57431   6
  -2   5  -3 0.18734 1.25490   4
  -2   5  -3 0.15768 1.50605  10
  -2   5  -3 -0.7208 0.85231   7
  -3  -5  -3 56.2033 5.69152   6
  -3   5  -3 57.2878 7.78018  10
  -3   5  -3 55.2729 5.55977   4
  -3   5  -3 59.6308 4.67061   7
  -4  -5  -3 38.5182 4.30714   6
  -4   5  -3 28.5053 2.83620   7
  -4   5  -3 36.9045 5.29787  10
  -3  -6   3 301.492 14.9043   6
   3   6  -3 258.162 13.5544   7
  -3   6   3 300.991 13.4580   7
  -2  -6   3 40.1587 4.61843   6
   2   6  -3 43.8129 3.60023   7
  -2   6   3 37.0909 3.30742   7
   1  -6  -3 135.061 9.70876   9
   1  -6  -3 138.517 9.43993   6
  -1   6   3 146.854 8.11865   7
   1   6  -3 150.358 8.45393   7
   0  -6  -3 0.65581 2.40754   9
   0  -6  -3 0.11296 1.39566   6
   0  -6   3 1.36929 1.72152   6
   0   6   3 1.76412 1.20465   7
   0   6  -3 1.75817 1.12676   7
  -1  -6  -3 16.2060 3.12111   6
  -1   6  -3 15.8640 2.32111   7
  -2  -6  -3 41.6113 4.46888   6
  -2   6  -3 43.0061 3.60691   7
  -3  -6  -3 1.91523 1.06295   6
  -3   6  -3 1.97715 1.13389   7
   0  -7  -3 21.9677 3.31855   6
   0   7  -3 28.4185 2.15285   7
  -1  -7  -3 10.9689 1.72355   6
  -1   7  -3 10.1609 1.29913   7
   6   0  -4 201.187 12.0004   6
  -6   0   4 188.190 10.5819   8
   5   0  -4 29.7400 4.71404   2
   5   0  -4 35.4747 5.05538   6
  -5   0   4 30.2787 4.18232   8
  -4   0   4 207.762 14.6080  11
   4   0  -4 209.296 12.9947   2
   4   0  -4 184.195 13.0661   6
  -3   0   4 1013.72 46.2140   3
   3   0  -4 1069.92 48.0676   2
   3   0  -4 1163.38 50.6679   6
   3   0  -4 1085.98 46.1307   9
  -2   0   4 151.680 18.1523   1
   2   0  -4 176.741 19.3514   1
   2   0  -4 167.706 8.92831   9
  -2   0   4 171.180 9.11981   3
   1   0  -4 119.598 18.4571   1
  -1   0   4 87.2482 11.5818   1
   1   0  -4 88.2319 5.55747   9
  -1   0   4 89.4360 5.14124   3
   0   0  -4 890.340 37.3763   9
   0   0  -4 853.364 43.7279   1
   0   0   4 867.958 44.5520   1
  -1   0  -4 27.9910 2.61305   9
  -1   0  -4 31.7179 7.75913   1
   1   0   4 26.0444 7.24942   1
  -2   0  -4 80.3856 4.95788   9
  -2   0  -4 79.6732 13.5825   1
  -3   0  -4 244.361 13.7684   8
  -3   0  -4 257.577 17.4792  10
  -3   0  -4 245.950 16.3854   5
  -4   0  -4 110.201 10.6726  10
  -4   0  -4 103.839 10.2891   5
  -4   0  -4 110.217 8.26608   8
  -5   0  -4 220.798 16.2786  10
  -5   0  -4 245.950 14.1868   8
  -5   0  -4 239.006 16.9998   5
  -6   0  -4 64.9403 6.68290   5
  -6   0  -4 65.9890 5.31694   8
  -6  -1   4 28.3227 3.25567   8
   5  -1  -4 2.33686 2.36918   6
  -5  -1   4 3.16942 1.91931   8
   5  -1  -4 1.21743 2.50694   2
   5   1  -4 8.49601 4.05306   2
  -5   1   4 4.00037 2.02661   8
   5   1  -4 2.42021 1.96544   6
  -4  -1   4 744.282 37.0466   3
   4  -1  -4 897.224 39.3656   2
  -4  -1   4 826.325 38.7518   6
   4  -1  -4 778.046 39.1269   6
   4   1  -4 841.537 38.7997   2
  -4   1   4 854.801 41.6960  11
   4   1  -4 785.858 39.4789   6
  -4   1   4 821.574 36.6377   7
   3  -1  -4 3.17872 1.91565   6
  -3  -1   4 3.31890 1.90960   6
  -3  -1   4 1.65609 1.09939   3
  -3  -1   4 1.50141 2.15719  11
   3  -1  -4 0.86704 1.38503   9
  -3   1   4 1.44258 1.10507   7
   3   1  -4 2.59373 1.56590   2
   3   1  -4 0.81253 1.48408   6
   2  -1  -4 67.8990 4.64959   9
  -2  -1   4 60.6572 14.3074   1
  -2  -1   4 73.9592 4.92665   3
   2   1  -4 74.9545 5.16902   2
   2   1  -4 53.7633 13.5117   1
  -2   1   4 39.5443 3.15263   3
  -1  -1   4 1138.70 58.0644   1
   1  -1  -4 1155.11 47.8873   9
   1  -1  -4 1101.59 56.0946   1
  -1  -1   4 1147.23 47.8809   3
  -1   1   4 1101.94 46.4564   3
   1   1  -4 1147.38 47.9491   9
   1   1  -4 1091.38 47.5024   2
  -1   1   4 1048.24 56.4557   1
   1   1  -4 1195.30 58.2307   1
   0  -1  -4 1610.53 75.7055   1
   0  -1   4 1592.56 67.2423   3
   0  -1   4 1608.08 75.2110   1
   0  -1  -4 1651.46 67.4377   9
   0   1  -4 1650.14 67.5438   9
   0   1   4 1654.54 76.8295   1
   0   1  -4 1601.97 74.9454   1
   0   1  -4 1529.75 66.1474   2
  -1  -1  -4 889.989 38.4291   9
   1  -1   4 878.189 55.0041   1
  -1  -1  -4 898.195 48.1363   1
   1   1   4 936.988 47.7747   1
  -1   1  -4 926.699 44.7020   1
  -1   1  -4 854.063 38.4627   9
  -2  -1  -4 1307.15 72.3939   1
   2  -1   4 1472.80 65.7052   1
  -2  -1  -4 1364.09 59.0411   9
  -2   1  -4 1399.83 65.4072   1
   2   1   4 1492.12 74.0537   1
  -3  -1  -4 765.393 35.6060   8
  -3   1  -4 781.914 39.7189  10
  -3   1  -4 733.040 34.8138   4
  -3   1  -4 749.817 38.1891   5
  -3   1  -4 766.471 35.2247   8
  -4  -1  -4 83.2738 9.22803   5
  -4  -1  -4 77.4888 8.88554  10
  -4  -1  -4 82.9724 6.88360   8
  -4   1  -4 83.9836 9.02324   5
  -4   1  -4 80.9812 9.41709  10
  -4   1  -4 80.1484 7.01154   8
  -4   1  -4 76.3734 6.76575   4
  -5  -1  -4 189.428 11.7262   8
  -5  -1  -4 183.374 14.5006   5
  -5   1  -4 192.194 15.0319  10
  -5   1  -4 182.033 14.2187   5
  -5   1  -4 185.312 11.9415   8
  -6  -1  -4 0.49150 1.24140   5
  -6  -1  -4 1.41066 1.10133   8
  -6   1  -4 1.74029 1.26768   8
  -6   1  -4 1.22177 1.33940   5
  -6  -2   4 172.121 9.78703   8
   5  -2  -4 21.2329 4.64369   2
   5   2  -4 28.9012 4.52625   2
   5   2  -4 30.1464 4.68184   6
  -4  -2   4 160.247 10.8339   3
  -4  -2   4 155.275 10.7366   6
   4  -2  -4 145.173 11.2586   6
  -4   2   4 156.073 9.45567   7
   4   2  -4 151.754 10.9958   2
  -4   2   4 161.068 12.9289  11
   4   2  -4 150.416 11.4420   6
  -3  -2   4 630.562 31.6537   6
   3  -2  -4 660.620 29.5360   9
   3  -2  -4 616.190 31.5462   6
  -3  -2   4 664.949 30.8389   3
   3   2  -4 663.032 32.2488   6
  -3   2   4 617.635 29.2253   7
   3   2  -4 674.936 31.0411   2
  -2  -2   4 193.542 33.1609   1
  -2  -2   4 196.271 11.0350   3
   2  -2  -4 195.853 10.5133   9
   2   2  -4 189.293 10.7221   2
  -2   2   4 178.229 10.0602   7
   2   2  -4 182.053 11.8437   6
   1  -2  -4 22.0771 2.64513   9
  -1  -2   4 18.8109 2.59031   3
  -1  -2   4 11.7992 10.8629   1
   1   2  -4 19.7072 2.38752   2
   1   2  -4 26.7673 11.2035   1
   0  -2  -4 658.002 42.3248   1
   0  -2   4 605.390 37.6351   1
   0  -2   4 607.562 27.5093   3
   0  -2  -4 612.223 27.5671   9
   0   2  -4 562.914 36.1642   1
   0   2   4 655.186 40.2626   1
   1  -2   4 3.04850 6.78996   1
  -1  -2  -4 2.26364 10.0618   1
  -1  -2  -4 8.66623 1.82472   9
  -1   2  -4 2.18697 6.27642   1
   1   2   4 0.46041 10.6461   1
  -2  -2  -4 25.6161 2.85498   9
  -2  -2  -4 24.4601 3.42591   6
  -2   2  -4 23.5808 3.30758   4
  -2   2  -4 24.1717 4.51000  10
  -2   2  -4 22.6629 4.07548   5
  -2   2  -4 26.3623 3.31525   8
  -3  -2  -4 137.785 8.94010   6
  -3  -2  -4 137.337 9.26861   8
  -3   2  -4 142.503 9.64996   4
  -3   2  -4 138.978 13.9301   5
  -3   2  -4 133.987 17.7387  10
  -4  -2  -4 94.6683 10.2675  10
  -4  -2  -4 96.6261 7.64378   8
  -4   2  -4 101.031 10.0362   5
  -4   2  -4 104.225 8.39130   8
  -4   2  -4 101.125 8.12315   4
  -4   2  -4 104.180 11.1441  10
  -5  -2  -4 163.128 13.3698   5
  -5  -2  -4 176.132 10.4701   8
  -5   2  -4 170.347 10.9883   8
  -5   2  -4 151.022 13.2500  10
  -5   2  -4 169.106 13.1444   5
  -6  -2  -4 41.2082 4.76969   5
  -6  -2  -4 45.7504 3.53307   8
  -6   2  -4 45.3943 4.95779   5
  -6   2  -4 47.1081 3.98321   8
  -6  -3   4 16.3330 2.13046   8
   5   3  -4 2.64372 2.61034   2
  -5   3   4 1.34983 1.35814   7
  -4  -3   4 521.079 26.8656   3
  -4  -3   4 522.802 26.5875   6
   4   3  -4 504.761 27.1649   6
   4   3  -4 536.776 26.6068   2
  -4   3   4 513.454 24.6172   7
  -3  -3   4 0.96821 1.29529   6
   3  -3  -4 -0.5275 1.58234   9
  -3  -3   4 -0.4382 1.46545   3
   3  -3  -4 0.74022 2.29492   6
  -3   3   4 3.88126 1.69654   7
   3   3  -4 1.43237 1.72290   6
   3   3  -4 -0.6584 1.57836   2
  -3   3   4 6.92360 3.01505  11
   2  -3  -4 15.8966 3.42363   6
  -2  -3   4 11.9105 3.24490   6
  -2  -3   4 15.8488 3.21420   3
   2  -3  -4 16.5927 3.11975   9
  -2   3   4 16.5878 2.43752   7
   2   3  -4 16.5696 3.36360   2
   2   3  -4 17.5618 3.41753   6
  -1  -3   4 275.053 15.5800   3
   1  -3  -4 277.831 14.2581   9
   1  -3  -4 256.862 14.8282   6
   1   3  -4 254.850 14.2884   6
   1   3  -4 260.931 13.5018   2
   0  -3  -4 365.309 17.5478   9
   0  -3   4 344.979 17.3744   3
   0  -3  -4 334.255 18.1568   6
   0   3  -4 335.947 16.0506   2
   0   3  -4 346.582 20.4062   5
   0   3  -4 345.039 17.9343   4
   1  -3   4 331.006 16.3266   3
  -1  -3  -4 315.132 17.2951   6
  -1  -3  -4 318.145 16.2400   9
  -1   3  -4 306.776 16.9717   4
  -1   3  -4 321.949 17.3732   8
  -1   3  -4 317.685 15.6190   7
  -1   3  -4 320.957 20.4225  10
  -1   3  -4 316.999 19.3197   5
   2  -3   4 532.888 25.7316   3
  -2  -3  -4 526.037 25.2911   9
  -2   3  -4 570.940 32.6126  10
  -2   3  -4 533.142 24.8732   7
  -2   3  -4 555.919 29.9668   5
   3  -3   4 507.353 24.9854   3
  -3  -3  -4 469.679 27.2366   8
  -3  -3  -4 523.491 25.8252   6
  -3   3  -4 553.237 30.1073   5
  -3   3  -4 522.231 26.3755   8
  -3   3  -4 513.615 26.3998   4
  -3   3  -4 512.747 23.9391   7
  -3   3  -4 549.850 31.6784  10
  -4  -3  -4 35.5342 4.25960   8
  -4  -3  -4 35.7893 5.49931   6
  -4   3  -4 41.3910 4.99268   8
  -4   3  -4 38.7982 4.85478   4
  -4   3  -4 40.0040 6.13964   5
  -4   3  -4 39.5970 6.81168  10
  -5  -3  -4 112.057 7.19008   8
  -5  -3  -4 117.601 10.3008   5
  -5   3  -4 115.230 12.5582  10
  -5   3  -4 120.013 10.0274   5
  -5   3  -4 121.517 8.30475   8
  -6  -3  -4 -0.1341 0.82997   5
  -6   3  -4 0.12413 0.62696   8
  -6   3  -4 -0.0068 0.78221   5
  -4  -4   4 72.7355 6.55626   6
   4   4  -4 61.4823 6.49348   2
  -4   4   4 71.6284 5.38578   7
   3  -4  -4 185.532 15.2298   9
  -3  -4   4 193.200 13.2569   6
  -3  -4   4 189.591 12.8626   3
   3   4  -4 186.679 12.2566   2
  -3   4   4 188.249 10.9246   7
  -2  -4   4 121.115 10.1573   6
   2  -4  -4 132.767 9.12129   9
  -2  -4   4 128.789 9.61832   3
   2  -4  -4 125.587 9.58547   6
  -2   4   4 133.496 8.11978   7
  -2   4   4 123.788 9.98486  11
   2   4  -4 122.367 8.87494   2
   1  -4  -4 2.75769 1.53602   9
  -1  -4   4 3.65946 1.75912   3
  -1  -4   4 4.47880 2.39041   6
   1  -4  -4 1.99689 1.89364   6
   1   4  -4 3.90327 2.91495   2
  -1   4   4 4.99098 1.55984   7
   1   4  -4 7.63863 2.52055   4
   0  -4  -4 179.380 10.8543   9
   0  -4   4 153.729 10.4726   3
   0  -4  -4 156.695 10.9986   6
   0   4   4 167.604 9.10375   7
   0   4  -4 168.026 10.7891   4
   0   4  -4 166.358 13.1158  10
  -1  -4  -4 13.0853 3.46228   6
   1  -4   4 12.3594 2.84088   3
  -1  -4  -4 13.2843 2.98310   9
  -1   4  -4 13.2921 4.13002  10
  -1   4  -4 12.5080 4.05796   5
  -1   4  -4 10.1044 2.27364   7
  -1   4  -4 12.8967 3.10486   4
   2  -4   4 7.36836 2.71643   3
  -2  -4  -4 1.57791 1.53590   6
  -2  -4  -4 2.20547 1.70537   9
  -2   4  -4 1.27544 1.16347   7
  -2   4  -4 1.74719 1.51640   4
  -2   4  -4 2.22854 2.01962   5
  -2   4  -4 3.85510 2.51021  10
  -3  -4  -4 45.0844 5.33260   6
  -3   4  -4 47.5465 5.50808   4
  -3   4  -4 46.6955 6.81308   5
  -3   4  -4 47.1869 5.48513   8
  -3   4  -4 50.3311 7.49589  10
  -3   4  -4 46.3458 4.24888   7
  -4  -4  -4 60.9316 5.01071   6
  -4   4  -4 61.9381 7.32322   5
  -4   4  -4 60.7397 7.82777  10
  -4   4  -4 62.2687 5.86473   4
  -4   4  -4 66.7917 6.09853   8
  -4   4  -4 56.4920 4.36542   7
  -5  -4  -4 56.5887 5.67291   5
  -5   4  -4 58.0715 5.72469   5
  -5   4  -4 52.2105 5.74017  10
  -4  -5   4 242.801 12.6798   6
  -4   5   4 237.159 11.6655   7
  -3  -5   4 2.16032 1.54300   6
  -3   5   4 0.98975 1.05066   7
   2  -5  -4 -3.0291 1.86420   9
   2  -5  -4 0.52735 1.79753   6
  -2  -5   4 1.28370 2.74100   3
  -2  -5   4 1.42090 1.42801   6
  -2   5   4 0.73342 1.08765   7
  -1  -5   4 26.9118 4.74842   3
  -1  -5   4 42.8629 5.57215   6
   1  -5  -4 36.4783 4.92760   6
  -1   5   4 37.8784 3.60482   7
   0  -5   4 45.4951 6.51129   3
   0  -5   4 52.9688 6.12799   6
   0  -5  -4 47.6525 5.60758   6
   0  -5  -4 52.6718 5.50503   9
   0   5   4 48.2800 4.02138   7
   0   5  -4 50.2268 5.21956   4
   0   5  -4 49.8248 4.56608   7
  -1  -5  -4 69.5132 7.24902   9
  -1  -5  -4 84.0031 7.42936   6
  -1   5  -4 81.1406 8.95024  10
  -1   5  -4 84.1407 6.14340   7
  -1   5  -4 82.8737 7.08716   4
  -2  -5  -4 158.434 11.1569   9
  -2  -5  -4 187.772 12.0706   6
  -2   5  -4 185.495 11.7666   4
  -2   5  -4 184.100 14.8654  10
  -2   5  -4 176.409 10.0488   7
  -3  -5  -4 261.674 14.4255   6
  -3   5  -4 255.771 14.6002   4
  -3   5  -4 248.051 13.1138   7
  -3   5  -4 265.186 18.1050  10
  -4   5  -4 10.6533 2.69874  10
  -3  -6   4 66.8048 5.58171   6
  -3   6   4 41.2127 2.88523   7
   3   6  -4 42.9128 3.08641   7
  -2  -6   4 76.1254 6.18888   6
   2   6  -4 75.5728 4.92468   7
  -2   6   4 72.0886 4.50462   7
   1  -6  -4 1.72658 1.49035   6
  -1  -6   4 0.86854 1.47834   6
  -1   6   4 3.71308 1.29963   7
   1   6  -4 0.83428 1.04653   7
   0  -6   4 36.8975 4.31754   6
   0  -6  -4 38.3418 4.37692   6
   0   6  -4 43.4941 3.79539   7
  -1  -6  -4 10.3741 2.72443   6
  -1   6  -4 9.29116 1.85270   7
  -1   6  -4 7.82703 1.97683   4
  -2  -6  -4 -0.6406 0.92123   6
  -2   6  -4 -0.3819 0.78676   7
  -3  -6  -4 12.0597 2.01533   6
   1   7  -4 1.33947 0.73462   7
   0   7  -4 1.32262 0.64873   7
   6   0  -5 6.25393 1.96475   6
  -5   0   5 151.011 9.53172   8
   5   0  -5 166.827 11.5826   2
   5   0  -5 154.104 11.6246   6
  -4   0   5 2.02934 2.08242  11
   4   0  -5 0.17170 1.89116   2
   4   0  -5 1.78505 1.92237   6
  -4   0   5 2.26532 1.87099   8
  -3   0   5 26.4326 4.18165   6
  -3   0   5 23.9550 3.24072   3
   3   0  -5 25.5461 3.31954   9
   3   0  -5 25.2922 4.20458   6
   3   0  -5 27.1698 3.84676   2
  -2   0   5 2325.07 95.2429   3
   2   0  -5 2411.54 96.0158   9
   2   0  -5 2146.42 97.5633   6
   1   0  -5 -1.4903 8.98264   1
  -1   0   5 1.35100 0.76534   3
  -1   0   5 0.70874 8.26274   1
   1   0  -5 -1.0232 0.68401   9
   0   0   5 3.11717 6.57390   1
   0   0  -5 2.79791 1.21109   9
   0   0  -5 -0.1336 6.90634   1
   1   0   5 234.460 22.4161   1
  -1   0  -5 215.669 12.1545   9
  -1   0  -5 241.084 21.8244   1
  -2   0  -5 2506.81 103.668   9
  -2   0  -5 2486.09 108.143   5
  -3   0  -5 88.3694 8.96298   5
  -3   0  -5 92.3007 9.92011  10
  -3   0  -5 94.3307 7.04944   8
  -4   0  -5 15.7419 3.05551   8
  -4   0  -5 15.6408 4.05621   5
  -4   0  -5 17.6093 4.46297  10
  -5   0  -5 4.47818 2.61273  10
  -5   0  -5 6.52117 2.85664   5
  -5   0  -5 5.76917 2.23413   8
  -6   0  -5 28.8683 4.01757   5
  -6   0  -5 39.2081 4.56061   8
   6  -1  -5 11.8989 2.73106   6
  -6  -1   5 5.57736 1.55788   8
   5  -1  -5 226.612 14.4763   6
  -5  -1   5 224.136 12.8851   8
   5  -1  -5 223.999 14.4328   2
   5   1  -5 215.281 14.4237   6
   5   1  -5 211.020 13.9574   2
   4  -1  -5 437.344 23.8593   6
  -4  -1   5 402.964 21.3324   6
  -4  -1   5 446.615 21.9811   3
   4  -1  -5 443.891 23.4300   2
  -4  -1   5 437.384 24.1982  11
   4   1  -5 419.764 23.8679   6
   4   1  -5 438.861 23.1226   2
  -4   1   5 442.687 25.7551  11
   3  -1  -5 221.618 14.0352   6
  -3  -1   5 209.458 13.3307   6
  -3  -1   5 211.475 12.4260   3
   3  -1  -5 227.920 12.1922   9
   3   1  -5 222.337 14.2348   6
  -3   1   5 211.686 11.6791   7
   3   1  -5 242.181 13.4685   2
   2  -1  -5 142.050 8.32185   9
  -2  -1   5 133.690 8.20587   3
   2  -1  -5 129.580 9.34511   6
   2   1  -5 124.910 9.27927   6
   2   1  -5 135.091 8.34331   2
  -2   1   5 123.696 7.41481   7
   1  -1  -5 61.5595 13.2029   1
   1  -1  -5 85.8974 5.84796   9
  -1  -1   5 96.4909 18.2254   1
  -1  -1   5 106.574 6.16083   3
  -1   1   5 68.1861 15.2869   1
   1   1  -5 80.3425 5.26756   2
   1   1  -5 86.8924 5.84986   9
   1   1  -5 24.4190 15.1663   1
  -1   1   5 83.8492 4.67272   3
   0  -1  -5 3066.48 141.981   1
   0  -1   5 3362.97 143.619   1
   0   1  -5 3120.68 141.111   1
   0   1   5 3182.28 143.418   1
   0   1  -5 3053.78 128.619   2
   1  -1   5 823.301 45.6500   1
  -1  -1  -5 806.117 35.5903   9
  -1  -1  -5 783.856 48.9231   1
  -1   1  -5 824.751 35.6839   9
   1   1   5 804.887 49.7650   1
  -2  -1  -5 234.816 13.3582   6
  -2  -1  -5 227.377 11.9635   9
  -2   1  -5 234.749 13.9966   4
  -2   1  -5 230.785 12.9057   8
  -2   1  -5 231.130 16.3560  10
  -3  -1  -5 355.541 18.4100   8
  -3   1  -5 350.878 28.5557  10
  -3   1  -5 376.431 26.0408   5
  -3   1  -5 373.290 19.1323   8
  -3   1  -5 354.993 18.9174   4
  -4  -1  -5 1114.85 49.8241   8
  -4  -1  -5 1100.32 54.7176   5
  -4  -1  -5 1185.16 55.7837  10
  -4   1  -5 1098.70 55.7425  10
  -4   1  -5 1136.18 54.5603   5
  -4   1  -5 1080.70 49.6711   4
  -4   1  -5 1114.99 50.5353   8
  -5  -1  -5 22.5195 4.51239   5
  -5  -1  -5 19.9165 3.12819   8
  -5   1  -5 22.5562 4.72668  10
  -5   1  -5 21.5962 3.38932   8
  -5   1  -5 20.8498 4.18437   5
  -6  -1  -5 101.970 7.51498   8
  -6  -1  -5 144.347 9.70216   5
  -6   1  -5 152.981 7.95651   8
  -6   1  -5 142.520 9.74457   5
  -6  -2   5 5.27737 1.38275   8
  -5  -2   5 128.534 9.09038   8
   5  -2  -5 125.516 10.2444   2
   5  -2  -5 134.103 9.84860   6
   5   2  -5 131.766 9.85027   2
   5   2  -5 141.464 10.2603   6
   4  -2  -5 0.05542 2.10831   6
  -4  -2   5 0.74508 2.27188   3
  -4  -2   5 1.03142 1.77605   6
   4   2  -5 1.54863 1.53136   6
  -4   2   5 1.21678 1.40476   7
  -4   2   5 -0.1384 1.48316  11
   4   2  -5 1.79385 1.99513   2
  -3  -2   5 25.5092 4.24529   3
  -3  -2   5 22.1663 3.97447   6
   3  -2  -5 24.2086 3.65498   9
   3   2  -5 23.2610 4.16398   6
  -3   2   5 22.6744 2.95176   7
   3   2  -5 27.2800 4.04366   2
   2  -2  -5 1402.70 62.1749   6
   2  -2  -5 1406.58 60.5190   9
  -2  -2   5 1420.96 61.1873   3
   2   2  -5 1398.11 62.3469   6
   2   2  -5 1396.66 60.5151   2
  -2   2   5 1385.05 59.5145   7
   1  -2  -5 2.77590 1.36880   9
  -1  -2   5 4.78619 1.63365   3
   1   2  -5 3.07613 1.76708   6
   1   2  -5 4.95963 1.62896   2
   0  -2  -5 0.61099 1.06775   6
   0  -2   5 0.11467 0.59887   3
   0  -2  -5 -0.0824 0.69332   9
   0   2  -5 3.13591 2.10904   2
   1  -2   5 169.366 9.59450   3
  -1  -2  -5 156.565 10.2140   6
  -1  -2  -5 172.280 9.61328   9
  -1   2  -5 160.373 10.2516   4
  -1   2  -5 158.088 10.0121   8
  -2  -2  -5 1766.86 74.2477   6
  -2  -2  -5 1624.04 72.6787   9
  -2   2  -5 1679.50 74.0491   8
  -2   2  -5 1801.04 77.6327   5
  -2   2  -5 1718.69 74.5620   4
  -2   2  -5 1723.30 79.1218  10
  -3  -2  -5 43.7806 4.77038   6
  -3   2  -5 44.3592 6.32374   5
  -3   2  -5 46.3551 5.14943   4
  -3   2  -5 44.1064 6.83489  10
  -3   2  -5 45.3648 5.13401   8
  -4  -2  -5 12.7967 2.95551   8
  -4  -2  -5 13.5943 4.58505  10
  -4   2  -5 15.6643 3.32301   4
  -4   2  -5 12.9182 4.85422  10
  -4   2  -5 16.1155 4.12065   5
  -4   2  -5 18.1556 3.35663   8
  -5  -2  -5 2.04439 2.02863   5
  -5  -2  -5 3.00469 1.64971   8
  -5   2  -5 2.23699 1.85767  10
  -5   2  -5 2.75374 1.73829   8
  -5   2  -5 2.06467 1.58577   5
  -6  -2  -5 20.8332 3.00346   5
  -6   2  -5 27.7750 2.55200   8
  -6   2  -5 11.8371 3.43833   5
  -4  -3   5 307.453 17.2620   6
   4  -3  -5 295.044 17.3529   6
  -4  -3   5 314.288 18.7106   3
  -4   3   5 280.548 18.8041  11
   4   3  -5 303.706 17.8210   6
  -4   3   5 299.685 15.3647   7
   4   3  -5 300.958 17.0677   2
   3  -3  -5 90.2619 8.16343   6
  -3  -3   5 99.0406 8.45109   3
  -3  -3   5 90.2116 8.36820   6
   3  -3  -5 91.9058 7.55085   9
   3   3  -5 91.9800 8.32232   6
  -3   3   5 97.2462 6.74195   7
   3   3  -5 92.8495 7.55177   2
  -3   3   5 92.5138 9.19473  11
  -2  -3   5 53.9394 6.24918   6
   2  -3  -5 61.5074 5.52942   9
  -2  -3   5 60.0838 6.00761   3
   2  -3  -5 58.2077 6.01096   6
  -2   3   5 56.0275 4.68124   7
   2   3  -5 59.0713 5.41036   2
   2   3  -5 58.2395 5.96876   6
  -1  -3   5 53.0240 5.23872   3
   1  -3  -5 53.7465 5.58738   6
   1  -3  -5 53.5374 5.04085   9
   1   3  -5 48.1584 5.12985   6
  -1   3   5 55.6266 4.27823   7
   1   3  -5 48.2643 4.38643   2
   0  -3  -5 1500.53 62.4901   9
   0  -3   5 1444.96 62.4671   3
   0  -3  -5 1368.72 63.1266   6
   0   3  -5 1484.47 66.6665  10
   0   3  -5 1387.00 62.8109   4
   1  -3   5 346.977 18.3196   3
  -1  -3  -5 366.949 18.4428   9
  -1   3  -5 357.600 17.3031   7
  -1   3  -5 355.361 22.4614  10
  -1   3  -5 355.433 21.2716   5
  -1   3  -5 363.548 20.6578   4
   2  -3   5 92.3159 7.10727   3
  -2  -3  -5 85.5032 7.64475   9
  -2  -3  -5 90.4560 7.51970   6
  -2   3  -5 83.8773 7.41421   4
  -2   3  -5 86.2966 7.48570   8
  -2   3  -5 92.2201 10.1300  10
  -2   3  -5 93.4562 9.33186   5
  -3  -3  -5 226.502 13.5301   6
   3  -3   5 220.492 13.3408   3
  -3   3  -5 218.874 14.0496   4
  -3   3  -5 242.248 18.3082  10
  -3   3  -5 235.116 16.8059   5
  -3   3  -5 231.705 14.2397   8
  -4   3  -5 735.951 34.4840   8
  -4   3  -5 742.245 34.6032   4
  -4   3  -5 707.476 39.2702  10
  -4   3  -5 708.183 37.4814   5
  -5  -3  -5 15.0771 3.38915   5
  -5   3  -5 15.0446 2.65319   8
  -5   3  -5 13.8254 3.37028  10
  -5   3  -5 15.4986 3.14107   5
  -5  -4   5 73.5466 6.84276   8
  -4  -4   5 0.36997 2.11749   6
  -4   4   5 0.92997 1.08411   7
   3  -4  -5 21.3686 4.23908   6
   3  -4  -5 8.88003 3.05533   9
  -3  -4   5 9.35485 2.93341   6
  -3   4   5 10.3214 3.37329  11
  -3   4   5 11.1159 2.50787   7
   3   4  -5 13.0532 3.71500   2
  -2  -4   5 499.800 27.1849   6
  -2  -4   5 503.549 26.1982   3
   2  -4  -5 489.898 25.9630   6
   2  -4  -5 520.987 25.4665   9
   2   4  -5 508.119 24.8183   2
  -2   4   5 537.073 23.9631   7
  -2   4   5 500.086 26.8293  11
   1  -4  -5 9.64267 2.80394   9
  -1  -4   5 9.86121 3.30734   6
   1  -4  -5 11.4296 3.32326   6
  -1  -4   5 7.72192 2.85966   3
  -1   4   5 9.15302 2.17180   7
   1   4  -5 10.8238 2.96816   4
   1   4  -5 11.8788 3.34461   2
   0  -4   5 1.30946 2.06068   6
   0  -4  -5 4.35786 2.04853   6
   0  -4  -5 7.22589 2.50512   9
   0  -4   5 2.92484 1.95924   3
   0   4  -5 3.04643 1.84751   4
   0   4  -5 1.39904 3.52859  10
  -1  -4  -5 27.0659 4.11320   6
  -1  -4  -5 25.8390 3.84561   9
   1  -4   5 22.4246 4.39083   3
   1  -4   5 29.7779 4.91089   6
  -1   4  -5 25.0902 3.14447   7
  -1   4  -5 28.2181 5.07229   5
  -1   4  -5 28.6165 5.53001  10
  -1   4  -5 29.1130 4.18396   4
  -2  -4  -5 775.806 35.6355   6
   2  -4   5 685.340 32.4663   3
  -2  -4  -5 678.997 31.9266   9
  -2   4  -5 508.547 44.2996  10
  -2   4  -5 634.964 38.0581   5
  -2   4  -5 774.497 35.8084   4
  -3  -4  -5 14.2975 3.11653   6
  -3   4  -5 11.5060 2.12246   7
  -3   4  -5 14.8332 3.05765   4
  -3   4  -5 13.0041 3.88746  10
  -3   4  -5 13.3352 3.72339   5
  -4   4  -5 6.88971 3.03600   4
  -4   4  -5 5.84873 3.10650  10
  -4   4  -5 5.17415 2.75350   5
  -5  -4  -5 0.36208 0.79966   5
  -5   4  -5 2.11649 1.19824   5
  -5   4  -5 0.17768 0.67668  10
  -4  -5   5 102.565 6.25729   6
  -3  -5   5 26.6972 4.18208   6
  -3   5   5 26.7014 2.71330   7
   2  -5  -5 5.18502 3.01917   9
  -2  -5   5 12.8858 3.11888   6
  -2   5   5 12.7924 2.02343   7
  -1  -5   5 57.1387 6.88536   3
   1  -5  -5 59.5041 6.12595   6
   1  -5  -5 57.4402 5.79008   9
  -1  -5   5 60.3715 6.48230   6
  -1   5   5 60.1852 4.51215   7
   1   5  -5 57.1241 5.20745   4
   0  -5   5 412.032 22.2609   6
   0  -5  -5 412.670 21.4525   9
   0  -5   5 395.522 21.9751   3
   0  -5  -5 419.139 21.9914   6
   0   5  -5 412.355 19.8476   7
   0   5  -5 409.073 20.9071   4
  -1  -5  -5 109.139 8.52639   6
  -1  -5  -5 108.171 8.20660   9
  -1   5  -5 103.609 6.87361   7
  -1   5  -5 105.750 10.0503  10
  -1   5  -5 105.048 8.14387   4
  -2  -5  -5 40.7552 4.79920   6
  -2   5  -5 37.6229 5.85660  10
  -2   5  -5 36.3117 4.44438   4
  -2   5  -5 41.7550 3.69238   7
  -3  -5  -5 119.620 8.00711   6
  -3   5  -5 145.526 8.19330   7
  -3   5  -5 131.033 10.8347  10
  -3   5  -5 128.481 8.51702   4
  -4  -5  -5 250.737 15.4606   5
  -4   5  -5 232.163 14.6076  10
  -3  -6   5 2.12401 0.85030   6
   3   6  -5 1.72368 0.61026   7
  -2  -6   5 174.189 10.1454   6
   2   6  -5 174.455 8.82666   7
  -1  -6   5 11.4602 2.35367   6
   1  -6  -5 12.5464 2.51632   6
   1   6  -5 13.3111 1.91646   7
   0  -6   5 2.81567 2.08326   6
   0  -6  -5 8.69908 2.41260   6
   0   6  -5 7.97200 1.67929   7
  -1  -6  -5 0.06595 0.92404   6
  -1   6  -5 0.09721 1.44353   4
  -1   6  -5 -0.2795 0.70057   7
  -2  -6  -5 216.507 11.4680   6
   6   0  -6 1.06556 1.22361   6
   5   0  -6 228.860 14.4202   6
   5   0  -6 198.212 13.5225   2
   4   0  -6 98.5327 8.74905   2
   4   0  -6 106.971 9.45442   6
  -4   0   6 115.346 10.5061  11
   3   0  -6 1.49273 1.92905   9
   3   0  -6 2.21023 2.56073   2
  -3   0   6 1.15259 2.14521   3
   3   0  -6 0.85973 1.72461   6
  -2   0   6 331.523 16.5718   3
   2   0  -6 358.784 17.5259   9
   2   0  -6 350.156 17.6057   2
   2   0  -6 330.825 18.8343   6
  -1   0   6 67.2582 21.7276   1
   1   0  -6 41.2501 18.3206   1
  -1   0   6 55.7793 4.36691   3
   1   0  -6 57.1723 5.57719   6
   1   0  -6 56.4304 4.85059   9
   0   0  -6 36.8602 4.31867   6
   0   0  -6 39.5711 3.86260   9
   0   0   6 38.9228 17.3045   1
  -1   0  -6 2070.03 87.1295   9
  -2   0  -6 169.273 10.5239   4
  -2   0  -6 164.562 9.65457   9
  -2   0  -6 167.326 12.4305   5
  -3   0  -6 675.473 37.8929  10
  -3   0  -6 700.800 36.2209   5
  -4   0  -6 6.14230 3.66469  10
  -4   0  -6 8.96249 2.60457   8
  -4   0  -6 7.71511 3.75441   5
  -5   0  -6 -0.3316 1.64559  10
  -5   0  -6 1.29146 1.55548   8
  -5   0  -6 0.74336 1.21639   5
  -6   0  -6 90.6905 8.03537   5
   5  -1  -6 170.239 11.9963   6
   5  -1  -6 185.325 16.3776   2
  -5  -1   6 156.560 9.61416   8
   5   1  -6 186.445 12.3322   6
  -4  -1   6 23.9020 5.20564   3
   4  -1  -6 42.5261 5.43679   2
  -4   1   6 45.6947 7.74183  11
   4   1  -6 43.1325 5.32366   2
   3  -1  -6 321.876 19.2826   6
  -3  -1   6 353.272 19.1856   6
   3  -1  -6 342.639 17.9439   9
  -3  -1   6 330.917 17.7333   3
   3   1  -6 343.776 18.4160   2
   3   1  -6 331.878 19.5614   6
   2  -1  -6 0.62202 1.26604   6
   2  -1  -6 0.23605 1.08476   9
   2   1  -6 1.05558 1.52900   6
   2   1  -6 -0.3440 1.31192   2
  -1  -1   6 132.304 8.19771   3
   1  -1  -6 135.159 8.50088   9
   1  -1  -6 130.075 9.31662   6
   1   1  -6 132.845 8.44660   9
  -1   1   6 117.740 8.31194   3
   1   1  -6 120.911 7.35071   2
   1   1  -6 128.162 9.08752   6
   0  -1   6 6.47006 1.93026   3
   0  -1  -6 8.11193 2.52901   6
   0  -1  -6 5.90719 1.89974   9
   0   1  -6 7.07571 1.90249   9
   0   1  -6 6.88720 2.26947   6
   0   1   6 5.78603 16.9941   1
  -1  -1  -6 1989.90 86.7014   6
  -1  -1  -6 2024.21 85.9750   9
  -1   1  -6 2095.02 86.1360   9
  -2  -1  -6 8.03250 2.08394   9
  -2  -1  -6 8.00153 2.32102   6
  -2   1  -6 14.5860 3.31569   4
  -2   1  -6 9.71424 3.41543  10
  -2   1  -6 8.09345 2.53517   8
  -2   1  -6 13.5015 3.58423   5
  -3  -1  -6 445.915 26.5308   5
  -3   1  -6 473.148 23.0591   8
  -3   1  -6 472.343 26.6373   5
  -3   1  -6 444.004 23.1120   4
  -3   1  -6 456.050 28.1183  10
  -4  -1  -6 763.774 39.3757   5
  -4  -1  -6 776.111 40.3964  10
  -4  -1  -6 691.800 33.7322   8
  -4   1  -6 814.022 35.4166   8
  -4   1  -6 711.571 34.3214   4
  -4   1  -6 742.102 40.5468  10
  -4   1  -6 762.928 39.0829   5
  -5  -1  -6 166.621 13.2950  10
  -5  -1  -6 253.073 13.1318   8
  -5  -1  -6 240.182 15.6361   5
  -5   1  -6 250.249 12.8260   8
  -5   1  -6 244.091 15.5082   5
  -5   1  -6 214.871 19.4610  10
  -6  -1  -6 16.2401 2.48854   5
  -6   1  -6 20.8030 2.74688   5
  -5  -2   6 177.431 10.1058   8
   5  -2  -6 166.715 11.1263   6
   5   2  -6 182.408 11.6967   6
   4  -2  -6 96.8003 8.51814   6
  -4  -2   6 94.7140 7.87386   6
  -4  -2   6 82.7934 10.4866   3
   4   2  -6 96.6601 8.65388   6
   4   2  -6 93.9795 8.20560   2
  -4   2   6 100.655 9.84294  11
   3  -2  -6 1.57422 1.82252   6
   3  -2  -6 2.30414 2.21951   9
  -3  -2   6 0.38931 1.55379   6
  -3  -2   6 0.69648 1.89206   3
  -3   2   6 1.06024 1.29905   7
   3   2  -6 -1.0232 1.17059   6
   3   2  -6 3.32385 1.92056   2
   2  -2  -6 232.642 16.4736   6
  -2  -2   6 250.025 14.5180   3
   2  -2  -6 258.289 14.2933   9
   2   2  -6 251.342 13.7616   2
  -2   2   6 253.907 12.8054   7
   2   2  -6 252.927 15.3645   6
   1  -2  -6 24.0143 3.83657   6
   1  -2  -6 20.7521 3.11977   9
  -1  -2   6 22.6352 3.72963   3
   1   2  -6 20.1674 3.09139   2
   1   2  -6 24.7450 3.81849   6
  -1   2   6 26.6180 3.55857   7
   0  -2  -6 6.59820 1.98944   9
   0  -2   6 6.16999 1.87835   3
   0  -2  -6 8.98731 2.65618   6
   0   2  -6 11.4956 4.93211  10
  -1  -2  -6 1288.83 57.5541   6
   1  -2   6 1309.94 56.6065   3
  -1  -2  -6 1305.99 56.6085   9
  -1   2  -6 1277.61 57.4220   4
  -1   2  -6 1281.60 59.2300   5
  -1   2  -6 1319.88 61.8278  10
  -2  -2  -6 138.322 8.92666   9
  -2  -2  -6 149.012 9.83718   6
  -2   2  -6 141.337 9.62550   8
  -2   2  -6 142.774 10.0876   4
  -2   2  -6 140.747 11.4534   5
  -2   2  -6 137.335 12.6789  10
  -3  -2  -6 394.995 21.4609   6
  -3   2  -6 459.817 28.1610  10
  -3   2  -6 471.546 23.3698   8
  -3   2  -6 449.212 23.5211   4
  -3   2  -6 507.478 27.0880   5
  -4  -2  -6 13.3731 4.19222   5
  -4  -2  -6 13.3682 3.84822  10
  -4   2  -6 13.9365 3.59549   5
  -4   2  -6 13.7744 3.29920   4
  -4   2  -6 13.7951 4.02799  10
  -4   2  -6 14.4101 2.96253   8
  -5  -2  -6 -0.0263 1.18620   5
  -5   2  -6 0.50615 1.06606   5
  -5   2  -6 0.37394 1.13332  10
  -5   2  -6 0.77109 1.20854   8
  -6  -2  -6 33.6588 3.24503   5
  -5  -3   6 134.960 10.2269   8
  -4  -3   6 26.6547 3.89603   6
   4   3  -6 28.4030 4.91864   2
  -4   3   6 26.0233 4.46443  11
   4   3  -6 21.9300 3.76961   6
  -3  -3   6 204.189 13.9993   6
   3  -3  -6 202.196 13.4866   6
   3  -3  -6 193.531 15.1168   9
  -3  -3   6 201.532 13.5392   3
   3   3  -6 209.966 13.8733   6
  -3   3   6 204.862 11.2092   7
  -3   3   6 210.286 15.0030  11
   3   3  -6 196.751 11.7309   4
   3   3  -6 191.912 12.3995   2
  -2  -3   6 -0.4979 1.32347   6
   2  -3  -6 0.41790 1.35960   6
  -2  -3   6 -0.6039 1.51771   3
   2  -3  -6 2.31174 1.64842   9
   2   3  -6 -0.6929 1.47229   6
   2   3  -6 -2.8667 2.01358   2
  -2   3   6 0.46729 1.09484   7
  -1  -3   6 41.5745 4.83598   3
   1  -3  -6 38.5298 4.51355   9
   1  -3  -6 39.9494 5.04203   6
   1   3  -6 44.3858 5.37294   6
  -1   3   6 38.5350 3.71685   7
   0  -3  -6 8.80452 2.49770   9
   0  -3   6 10.4934 2.74009   3
   0  -3  -6 10.5882 3.20372   6
   0   3  -6 8.95061 3.41845  10
   0   3  -6 9.93287 2.82840   4
  -1  -3  -6 880.283 41.7394   6
   1  -3   6 900.258 41.0008   3
  -1  -3  -6 903.538 40.9069   9
  -1   3  -6 886.197 41.6333   4
  -1   3  -6 894.101 39.0075   7
  -1   3  -6 915.919 45.9125  10
  -1   3  -6 880.209 43.7028   5
  -2  -3  -6 26.2452 3.87950   9
  -2  -3  -6 23.7089 3.97885   6
  -2   3  -6 25.5646 3.95612   4
  -2   3  -6 27.0242 5.56613  10
  -2   3  -6 24.6021 4.59886   5
  -3  -3  -6 206.606 12.3452   6
   3  -3   6 207.836 13.0525   3
  -3   3  -6 219.638 15.7516   5
  -3   3  -6 217.520 13.2746   8
  -3   3  -6 211.212 16.8670  10
  -3   3  -6 206.289 13.2676   4
  -4  -3  -6 490.648 28.2271   5
  -4   3  -6 510.934 27.9652   5
  -4   3  -6 530.414 25.4763   4
  -4   3  -6 517.340 29.7401  10
  -4   3  -6 535.451 25.3954   8
  -5  -3  -6 172.285 10.9857   5
  -5   3  -6 168.674 10.6522   5
  -5   3  -6 143.509 10.9707  10
  -4  -4   6 70.5826 5.62527   6
  -3  -4   6 0.64632 1.24952   6
   3  -4  -6 -0.9099 3.00060   9
   3  -4  -6 1.50025 2.07914   6
   3   4  -6 1.30976 4.40386   2
  -3   4   6 0.28740 1.24208  11
  -3   4   6 1.84956 1.19021   7
   2  -4  -6 149.663 10.1370   9
  -2  -4   6 140.385 10.9622   6
  -2  -4   6 141.770 10.7069   3
   2  -4  -6 146.625 10.5195   6
   2   4  -6 135.123 8.97921   4
  -2   4   6 137.235 8.10371   7
  -2   4   6 139.270 10.8648  11
  -1  -4   6 5.19038 2.49241   3
   1  -4  -6 3.91197 1.90617   9
   0  -4  -6 0.38594 1.29512   6
   0  -4   6 2.99047 2.17407   6
   0  -4   6 -2.5773 1.85553   3
   0  -4  -6 0.46318 1.46088   9
   0   4  -6 1.56296 1.61535   4
  -1  -4  -6 464.603 23.6006   9
   1  -4   6 437.750 23.6335   3
   1  -4   6 415.800 23.7282   6
  -1   4  -6 468.103 28.6978  10
  -1   4  -6 479.810 28.2407   4
  -1   4  -6 502.260 23.9105   7
  -2  -4  -6 72.6780 7.08051   9
   2  -4   6 87.8916 11.0903   3
  -2  -4  -6 71.7845 6.73798   6
  -2   4  -6 74.3590 6.77445   4
  -2   4  -6 77.8660 9.23666  10
  -2   4  -6 67.6781 5.07599   7
  -2   4  -6 81.3347 8.50827   5
  -3  -4  -6 246.152 13.6481   6
  -3   4  -6 264.928 16.9847   5
  -3   4  -6 254.688 14.6648   4
  -3   4  -6 243.748 17.5810  10
  -4  -4  -6 16.9315 3.45226   5
  -4   4  -6 15.7857 3.42478  10
  -4   4  -6 16.3865 2.51020   4
  -4   4  -6 13.2876 2.86616   5
  -5  -4  -6 0.24502 0.63558   5
  -5   4  -6 0.20556 0.48211  10
   4   5  -6 11.4191 1.34696   7
   3  -5  -6 136.599 10.4118   6
  -3  -5   6 106.377 7.91690   6
  -2  -5   6 -0.1022 1.59546   6
   2  -5  -6 0.81363 1.36699   6
  -2   5   6 0.42938 1.13934   7
  -1  -5   6 12.4848 3.31456   6
   1  -5  -6 11.8386 2.87050   6
   1  -5  -6 10.9285 4.18588   9
   1   5  -6 12.7492 2.09697   7
   1   5  -6 10.0882 2.52023   4
   0  -5  -6 17.6091 3.35029   6
   0  -5  -6 14.9338 3.49194   9
   0  -5   6 15.4318 3.28625   6
   0   5  -6 16.9551 3.00855   4
   0   5  -6 15.8113 2.33122   7
  -1  -5  -6 274.292 15.2909   6
   1  -5   6 227.707 14.4317   6
  -1  -5  -6 266.489 15.0459   9
  -1   5  -6 274.829 13.1506   7
  -1   5  -6 258.094 16.2353  10
  -1   5  -6 275.865 14.8699   4
  -2   5  -6 16.0816 2.24174   7
  -2   5  -6 24.5839 4.02558   4
  -2   5  -6 18.1460 3.70280  10
  -3  -5  -6 76.7292 6.01031   6
  -3   5  -6 64.8665 5.10542   4
  -3   5  -6 53.9731 5.94862  10
  -4  -5  -6 79.4038 6.53556   5
  -2  -6   6 72.7639 5.16285   6
   2   6  -6 73.8047 4.18819   7
  -1  -6   6 0.70418 0.82012   6
   1  -6  -6 1.23523 1.02361   6
   1   6  -6 0.63150 0.72235   7
   0  -6  -6 2.85468 1.21870   6
   0  -6   6 0.50781 1.22302   6
   0   6  -6 2.71988 0.88893   7
  -1  -6  -6 146.946 8.35355   6
  -1   6  -6 134.360 6.82917   7
  -2  -6  -6 31.5624 2.75080   6
   5   0  -7 184.429 13.1856   6
   4   0  -7 267.621 16.4270   2
   4   0  -7 291.998 17.6795   6
  -4   0   7 283.559 18.3110  11
  -3   0   7 12.3993 3.30172   6
   3   0  -7 19.4633 3.89799   2
   3   0  -7 14.9550 4.18711   6
   2   0  -7 1531.27 66.9603   6
   2   0  -7 1453.79 64.9944   9
   2   0  -7 1491.36 64.7818   2
  -1   0   7 582.861 26.0317   3
   1   0  -7 518.467 25.5089   2
   1   0  -7 580.333 27.0059   9
   1   0  -7 559.741 27.9738   6
   0   0  -7 31.0035 4.00489   6
   0   0   7 29.4869 3.52529   3
   0   0  -7 28.2649 3.65135   9
  -1   0  -7 170.886 10.6088   6
  -1   0  -7 180.109 10.6864   9
  -2   0  -7 41.7198 4.53711   9
  -2   0  -7 41.0593 5.79708   5
  -3   0  -7 1365.80 66.8935  10
  -3   0  -7 1378.54 64.2595   5
  -4   0  -7 43.3938 6.75751  10
  -4   0  -7 49.6041 6.42378   5
  -4   0  -7 23.6128 4.30809   8
  -5   0  -7 18.9887 3.61907  10
  -5   0  -7 25.0142 3.85806   5
   5  -1  -7 299.135 17.0723   6
   5   1  -7 319.687 17.5961   6
   4  -1  -7 162.459 11.9156   6
  -4  -1   7 158.424 11.7092  11
   4  -1  -7 142.857 11.0021   2
  -4   1   7 179.001 13.4968  11
   4   1  -7 163.957 12.0675   6
   4   1  -7 158.717 11.1544   2
  -3  -1   7 91.4283 8.08713   6
   3  -1  -7 88.2571 7.03083   9
   3  -1  -7 86.9337 8.21555   6
   3  -1  -7 86.1175 7.59302   2
  -3  -1   7 64.8381 7.31908   3
   3   1  -7 84.8783 7.29220   2
   3   1  -7 87.4454 8.26175   6
  -2  -1   7 287.026 15.5925   3
   2  -1  -7 280.142 17.0100   6
   2  -1  -7 279.497 15.7187   9
   2   1  -7 283.586 15.2411   2
   2   1  -7 281.515 16.9401   6
  -1  -1   7 90.1868 6.74825   3
   1  -1  -7 93.2106 7.11825   9
  -1   1   7 81.0391 5.78175   3
   1   1  -7 71.2640 5.82157   2
   1   1  -7 83.7253 7.28707   6
   1   1  -7 96.3672 7.23686   9
   0  -1  -7 734.016 33.9608   9
   0  -1  -7 739.224 34.9454   6
   0  -1   7 741.566 33.4700   3
   0   1  -7 738.374 33.9439   9
   0   1   7 735.172 32.3330   3
   0   1  -7 687.275 33.5850   6
  -1  -1  -7 200.028 12.2810   6
  -1  -1  -7 189.317 13.5461   5
  -1  -1  -7 196.484 11.7099   9
  -1   1  -7 195.362 15.3199  10
  -2  -1  -7 153.579 9.96683   9
  -2  -1  -7 145.706 9.86880   6
  -2  -1  -7 136.443 11.4522   5
  -2   1  -7 138.765 12.9912  10
  -2   1  -7 138.236 9.82363   4
  -2   1  -7 133.810 9.66347   8
  -2   1  -7 143.763 11.4344   5
  -3  -1  -7 1057.35 49.2485   5
  -3   1  -7 942.831 43.9355   8
  -3   1  -7 969.525 50.6955  10
  -3   1  -7 971.465 44.7792   4
  -3   1  -7 1000.49 48.3647   5
  -4  -1  -7 165.231 13.6969  10
  -4  -1  -7 167.041 13.1154   5
  -4   1  -7 171.011 14.3466  10
  -4   1  -7 172.876 13.1200   5
  -4   1  -7 177.197 10.5077   8
  -5  -1  -7 194.077 12.3573   5
  -5   1  -7 151.186 11.9833  10
  -5   1  -7 166.090 11.6628   5
  -5   1  -7 205.720 10.0058   8
   5   2  -7 164.430 10.2372   6
  -4  -2   7 219.329 12.7057   6
   4  -2  -7 215.764 13.9147   6
   4  -2  -7 202.983 13.6237   2
  -4   2   7 228.807 15.6360  11
   4   2  -7 214.574 13.7859   6
   4   2  -7 202.922 13.0977   2
   3  -2  -7 7.91542 2.74873   9
  -3  -2   7 4.42810 3.04181   3
   3   2  -7 8.67073 3.15548   2
   2  -2  -7 1252.32 53.3634   9
  -2  -2   7 1184.08 53.3921   3
   2  -2  -7 1173.21 54.5388   6
   2   2  -7 1214.43 54.2830   6
   2   2  -7 1104.19 51.7029   2
   1  -2  -7 452.451 24.2476   6
  -1  -2   7 469.005 23.3795   3
   1  -2  -7 445.804 23.1566   9
   1   2  -7 455.406 23.1840   6
   0  -2   7 34.7893 4.31217   3
   0  -2  -7 61.6758 5.99597   6
   0  -2  -7 30.9864 4.18794   9
   0   2  -7 29.0822 5.74145  10
   1  -2   7 123.441 8.66115   3
  -1  -2  -7 121.158 9.13114   6
  -1  -2  -7 130.989 8.90429   9
  -1   2  -7 105.963 10.9832  10
  -1   2  -7 121.341 9.11711   4
  -2  -2  -7 35.8858 4.53717   6
  -2  -2  -7 30.8785 4.38089   9
  -2   2  -7 40.4098 4.91669   4
  -2   2  -7 36.5967 6.32681  10
  -2   2  -7 37.4338 5.38037   5
  -3  -2  -7 1109.77 54.2754   5
   3  -2   7 1145.11 50.6053   3
  -3   2  -7 1088.87 55.8990  10
  -3   2  -7 1076.37 49.8447   8
  -3   2  -7 1148.08 53.9092   5
  -3   2  -7 1167.84 50.8941   4
  -4  -2  -7 28.9267 4.80707   5
  -4  -2  -7 26.4207 4.66749  10
  -4   2  -7 30.8785 5.39223  10
  -4   2  -7 28.6048 4.62605   5
  -4   2  -7 32.9231 3.89418   8
  -5  -2  -7 15.0021 2.76027   5
  -5   2  -7 13.4841 2.52180   5
  -5   2  -7 13.0326 2.87329  10
   4  -3  -7 84.0738 6.91901   6
  -4  -3   7 91.0873 6.78137   6
  -4   3   7 90.0262 10.5208  11
  -3  -3   7 41.3012 6.71966   3
  -3  -3   7 43.4180 5.50646   6
   3  -3  -7 39.1547 5.72522   9
   3  -3  -7 39.2529 5.12678   6
   3   3  -7 39.8206 4.44992   4
   3   3  -7 35.6827 5.86320   2
   3   3  -7 40.1182 4.77968   6
  -3   3   7 39.8054 5.72916  11
   2  -3  -7 165.191 11.2209   9
  -2  -3   7 213.759 16.5840   6
  -2  -3   7 176.652 11.9617   3
   2  -3  -7 127.444 12.3576   6
   1  -3  -7 59.3452 6.45518   6
   1  -3  -7 62.0316 6.06787   9
  -1  -3   7 63.7530 6.65286   3
   0  -3  -7 379.003 19.3126   9
   0  -3  -7 345.400 19.5078   6
   0   3  -7 327.638 20.9701  10
   0   3  -7 336.524 18.9657   4
  -1  -3  -7 102.866 8.45064   6
   1  -3   7 89.9669 7.73849   3
  -1  -3  -7 100.706 8.11511   9
  -1   3  -7 100.567 8.24744   4
  -1   3  -7 101.428 10.5184  10
  -1   3  -7 95.6898 6.33730   7
  -1   3  -7 101.394 9.20533   5
   2  -3   7 64.1054 6.43170   3
  -2  -3  -7 66.0416 8.46843   9
  -2  -3  -7 73.7782 6.71326   6
  -2   3  -7 67.2387 7.39250   5
  -2   3  -7 65.5808 8.57742  10
  -2   3  -7 72.3748 6.67075   4
  -3  -3  -7 509.633 27.2533   6
  -3   3  -7 619.775 33.8334  10
  -3   3  -7 621.277 29.2225   4
  -3   3  -7 642.711 31.7283   5
  -4  -3  -7 135.219 10.3116   5
  -4   3  -7 129.829 8.19854   4
  -4   3  -7 118.761 10.6221  10
  -4   3  -7 130.767 9.82911   5
  -5  -3  -7 104.822 6.38666   5
  -5   3  -7 53.5884 4.96964   5
  -5   3  -7 86.4519 6.19878  10
  -4  -4   7 103.410 6.34118   6
   3  -4  -7 14.6886 2.94122   6
  -3  -4   7 23.8407 5.45327   6
  -3   4   7 12.1921 2.79263  11
   2  -4  -7 578.009 29.5748   9
  -2  -4   7 638.928 31.2341   6
   2  -4  -7 643.644 30.6803   6
  -2   4   7 608.909 30.8445  11
   2   4  -7 605.509 32.9937   4
   1  -4  -7 210.425 13.2741   9
  -1  -4   7 223.993 14.4803   6
   1  -4  -7 219.185 13.8944   6
  -1  -4   7 209.538 16.7670   3
   1   4  -7 221.816 13.0467   4
   0  -4  -7 12.1111 3.16806   9
   0  -4   7 15.7262 3.67768   6
   0  -4   7 9.84900 5.03118   3
   0  -4  -7 14.1721 3.16386   6
   0   4  -7 11.9274 2.40610   7
   0   4  -7 14.6617 3.39676   4
   1  -4   7 49.8594 5.54343   6
  -1  -4  -7 41.3451 5.27501   9
   1  -4   7 36.8082 5.65935   3
  -1  -4  -7 43.4172 5.14378   6
  -1   4  -7 40.8182 4.86859   4
  -1   4  -7 43.5652 6.28689  10
  -1   4  -7 41.1366 3.74337   7
  -2  -4  -7 40.3749 4.74980   6
  -2   4  -7 35.9858 4.37972   4
  -2   4  -7 42.4936 6.25535  10
  -3  -4  -7 553.093 25.6692   6
  -3   4  -7 546.857 28.3484   5
  -3   4  -7 581.407 27.0825   4
  -3   4  -7 594.845 30.4230  10
  -4  -4  -7 3.85013 1.42877   5
  -4   4  -7 3.03558 1.07145   4
  -4   4  -7 3.10641 1.56772  10
  -3  -5   7 4.59340 1.48473   6
  -2  -5   7 60.7677 5.48964   6
   2  -5  -7 58.5608 5.15105   6
   2   5  -7 65.6127 4.38187   7
   1  -5  -7 26.5197 3.67503   6
  -1  -5   7 27.4175 3.74004   6
   1   5  -7 25.3333 2.67637   7
   1   5  -7 22.4435 3.52450   4
   0  -5   7 114.552 8.23064   6
   0   5  -7 116.382 6.66253   7
   0   5  -7 119.239 7.74229   4
  -1  -5  -7 47.4321 4.71349   6
  -1   5  -7 46.2683 4.45590   4
  -1   5  -7 44.3126 3.28723   7
  -2  -5  -7 18.7002 2.60363   6
  -2   5  -7 12.9290 2.53910  10
  -2   5  -7 19.3264 2.61352   4
  -3  -5  -7 160.916 9.31144   5
   1   6  -7 90.8334 4.98776   7
   0  -6  -7 4.42710 1.29213   6
  -1  -6  -7 10.6074 1.67623   6
   5   0  -8 16.2989 2.79310   6
  -4   0   8 40.0855 5.48845  11
   4   0  -8 41.6937 5.37511   6
   3   0  -8 7.76228 3.60322   2
  -3   0   8 8.20754 2.63429   6
   3   0  -8 7.55138 3.09209   6
   2   0  -8 20.1286 3.85018   9
   2   0  -8 19.5214 4.03731   6
   2   0  -8 18.8683 4.19203   2
  -1   0   8 1924.95 83.8556   3
   1   0  -8 1943.29 86.0989   6
   1   0  -8 2069.55 85.4712   9
   0   0  -8 262.801 15.2158   9
   0   0   8 274.954 14.5992   3
   0   0  -8 267.418 15.5265   6
  -1   0  -8 552.153 27.4334   6
  -1   0  -8 629.725 28.6720   9
  -2   0  -8 38.5464 4.50456   4
  -2   0  -8 36.2465 5.47440   5
  -3   0  -8 181.556 15.3323  10
  -3   0  -8 176.890 13.1914   5
  -4   0  -8 33.9923 4.85616   5
  -4   0  -8 32.5312 5.36483  10
  -5   0  -8 7.44093 2.15347  10
  -5   0  -8 8.16483 2.21069   5
   5  -1  -8 86.8223 6.58227   6
   5   1  -8 90.9461 6.62328   6
   4  -1  -8 -1.2223 3.25560   2
   4  -1  -8 1.83215 1.67634   6
  -4   1   8 3.01611 2.02079  11
   4   1  -8 1.21368 1.55857   6
   3  -1  -8 1225.43 57.4221   2
   3  -1  -8 1192.88 55.5836   9
  -3  -1   8 1288.49 56.9058   6
   3  -1  -8 1286.04 58.0349   6
   3   1  -8 1256.15 55.9669   2
   3   1  -8 1311.01 58.0859   6
   2  -1  -8 2.17757 1.84039   9
   2  -1  -8 1.07882 1.50939   6
   2  -1  -8 2.86321 2.60154   2
   2   1  -8 -1.3676 1.41845   6
   2   1  -8 0.83537 3.25398   2
  -1  -1   8 8.35331 2.65246   3
   1  -1  -8 8.30947 2.53237   9
   1  -1  -8 8.60057 3.00427   6
   1   1  -8 7.80783 3.11825   6
   1   1  -8 4.32950 2.92858  10
   0  -1  -8 140.449 9.66691   9
   0  -1   8 135.611 9.17534   3
   0  -1  -8 132.796 9.95953   6
   0   1  -8 129.469 9.05504   6
   0   1  -8 123.440 11.7324  10
  -1  -1  -8 556.583 28.0092   6
  -1  -1  -8 578.060 27.9788   9
   1  -1   8 592.096 28.0813   3
  -1   1  -8 575.861 33.0147  10
  -2  -1  -8 28.0462 4.26398   9
  -2  -1  -8 27.5711 4.73159   5
  -2   1  -8 30.0136 5.88069  10
  -2   1  -8 31.5111 4.35277   4
  -2   1  -8 35.7012 5.16866   5
  -3  -1  -8 95.2094 9.02762   5
  -3  -1  -8 92.4878 10.2949  10
  -3   1  -8 88.4957 8.54314   5
  -3   1  -8 91.6557 10.1895  10
  -3   1  -8 86.1460 6.96435   4
  -4  -1  -8 209.770 16.6953   5
  -4   1  -8 243.534 16.4833  10
  -4   1  -8 232.652 16.1056   5
  -5  -1  -8 41.0558 4.42742   5
  -5   1  -8 32.8190 3.89664  10
  -5   1  -8 35.0708 3.65173   5
   5  -2  -8 11.6906 2.35154   6
   4  -2  -8 32.1193 4.36444   6
  -4  -2   8 30.4112 3.51194   6
  -4   2   8 29.4520 4.55507  11
   4   2  -8 29.5730 4.79324   6
   3  -2  -8 2.94332 2.01625   6
  -3  -2   8 2.60563 1.73253   6
   3  -2  -8 5.09914 2.77700   9
   3   2  -8 4.50881 2.32112   6
   2  -2  -8 18.1971 3.83141   9
  -2  -2   8 22.7044 4.26119   3
   2  -2  -8 23.2926 6.67935   6
   1  -2  -8 1423.13 64.3535   6
   1  -2  -8 1441.13 63.3397   9
  -1  -2   8 1514.76 63.5920   3
   1   2  -8 1331.35 61.9329   6
   0  -2  -8 190.026 12.3373   9
   0  -2  -8 187.356 12.7833   6
   0   2  -8 188.643 14.4339  10
  -1  -2  -8 460.206 23.7735   9
   1  -2   8 493.868 24.0286   3
  -1  -2  -8 462.040 24.2055   6
  -1   2  -8 455.834 27.6196  10
  -1   2  -8 458.482 24.0994   4
  -2  -2  -8 23.2648 3.61192   6
   2  -2   8 17.0037 3.59018   3
  -2  -2  -8 18.3337 4.09402   5
  -2   2  -8 18.1260 4.53542  10
  -2   2  -8 17.1285 3.75112   5
  -2   2  -8 17.2209 3.38896   4
  -3  -2  -8 120.961 10.2816   5
  -3   2  -8 126.181 8.67106   4
  -3   2  -8 120.122 11.5134  10
  -3   2  -8 128.492 10.1257   5
  -4  -2  -8 26.7103 4.07862   5
  -4  -2  -8 22.6772 3.97760  10
  -4   2  -8 25.4141 4.29063   4
  -4   2  -8 24.3150 3.68105   5
  -4   2  -8 25.3976 4.47434  10
  -5  -2  -8 2.11040 1.02965   5
  -5   2  -8 4.05394 1.64402   5
  -5   2  -8 1.83001 0.90986  10
  -4  -3   8 0.74481 1.32133   6
   4  -3  -8 -0.1473 1.53339   6
  -4   3   8 0.25123 0.99341  11
  -3  -3   8 829.396 38.6116   6
   3  -3  -8 813.583 38.5179   6
   3   3  -8 792.157 36.4503   4
  -3   3   8 857.266 40.3715  11
   2  -3  -8 1.26122 2.09812   9
  -2  -3   8 2.52970 2.99284   3
  -2  -3   8 4.03964 2.20311   6
   2  -3  -8 2.93420 1.98287   6
   2   3  -8 3.01192 1.84353   4
   1  -3  -8 4.78964 2.39315   6
   1  -3  -8 1.92222 2.06766   9
  -1  -3   8 3.02819 2.75608   3
   1   3  -8 5.03307 2.20094   4
   0  -3   8 91.6584 8.30205   3
   0  -3  -8 99.9484 8.55000   6
   0  -3  -8 123.709 10.5419   9
   0   3  -8 96.5444 8.05450   4
   1  -3   8 334.920 18.7784   3
  -1  -3  -8 350.680 18.7606   9
  -1  -3  -8 339.300 18.9306   6
  -1   3  -8 333.074 21.3870  10
  -1   3  -8 345.360 18.8611   4
  -2  -3  -8 35.4544 4.35830   6
  -2  -3  -8 18.4059 4.40799   9
  -2   3  -8 33.8914 4.30716   4
  -2   3  -8 36.9599 5.92399  10
  -2   3  -8 18.7704 4.76318   5
  -3  -3  -8 37.7412 5.03799   5
  -3   3  -8 35.5947 6.10627  10
  -3   3  -8 33.1216 4.55885   5
  -4   3  -8 99.4024 7.43094   5
  -4   3  -8 126.177 6.86530   4
  -4   3  -8 142.921 9.84651  10
   3  -4  -8 1.54140 1.28257   6
  -3  -4   8 2.77969 1.47125   6
  -3   4   8 1.07171 1.08607  11
  -2  -4   8 40.3665 6.64663   6
   2  -4  -8 23.9638 3.68215   6
  -2   4   8 20.8068 3.51817  11
   2   4  -8 22.5820 2.85339   4
  -1  -4   8 627.428 31.0685   6
   1  -4  -8 637.314 30.8314   6
   1   4  -8 625.539 29.6609   4
   0  -4  -8 86.0546 7.36861   6
   0  -4   8 83.8175 7.34167   6
   0  -4  -8 62.7348 7.56974   9
   0   4  -8 85.9118 6.78144   4
   0   4  -8 81.0683 6.46598   7
   1  -4   8 220.346 13.1309   6
  -1  -4  -8 213.926 14.7134   9
  -1  -4  -8 227.232 13.1136   6
  -1   4  -8 224.348 12.8808   4
  -1   4  -8 193.989 13.3395  10
  -2  -4  -8 5.53945 1.92192   6
  -2   4  -8 3.22024 1.82410  10
  -2   4  -8 11.0482 2.25558   4
  -3  -4  -8 29.4345 3.76955  10
  -3  -4  -8 43.9018 4.28752   5
  -3   4  -8 49.8847 5.25576  10
  -3   4  -8 57.7637 4.26160   4
  -2  -5   8 3.96705 1.71484   6
   2  -5  -8 7.05313 1.56151   6
   2   5  -8 8.20284 1.22907   7
  -1  -5   8 1.87929 1.18518   6
   1  -5  -8 1.52195 1.04615   6
   1   5  -8 2.40224 1.39692   7
   0  -5   8 56.1576 4.99362   6
   0  -5  -8 46.5690 4.39460   6
   0   5  -8 42.3871 3.01686   7
   0   5  -8 45.7351 4.40481   4
  -1  -5  -8 190.893 10.3709   6
  -1   5  -8 177.853 9.85590   4
  -2   5  -8 21.2129 2.27030   4
   5   0  -9 7.77043 1.68323   6
   4   0  -9 89.6764 7.22168   6
  -4   0   9 83.7543 7.14401  11
  -3   0   9 4.54189 2.60873   6
   3   0  -9 4.60810 2.38918   6
   2   0  -9 1098.83 55.3262   9
   2   0  -9 1326.28 56.2817   6
   1   0  -9 254.631 15.0513   9
   1   0  -9 248.423 15.3825   6
   0   0   9 454.035 23.5841   3
   0   0  -9 510.018 24.8887   9
   0   0  -9 479.287 24.2288   6
   1   0   9 208.868 12.7107   3
  -1   0  -9 203.001 12.6722   9
  -2   0  -9 135.443 12.8587  10
  -2   0  -9 122.759 8.76841   4
   2   0   9 165.159 11.5352   3
  -3   0  -9 48.5462 5.59216   5
  -3   0  -9 58.5323 7.52818  10
  -4   0  -9 11.9977 2.55449   5
  -4   0  -9 14.2028 3.25531  10
   5  -1  -9 1.63342 0.87061   6
   5   1  -9 1.55896 0.85767   6
   4  -1  -9 12.2093 2.77777   6
   4   1  -9 11.1469 2.48732   6
  -4   1   9 12.2548 2.75899  11
   3  -1  -9 335.207 19.0694   6
  -3  -1   9 338.448 17.9286   6
   3   1  -9 333.210 18.7542   6
   2  -1  -9 971.733 45.7171   6
   2  -1  -9 979.935 44.4766   9
   2   1  -9 960.282 45.0323   6
   1  -1  -9 139.938 10.3082   9
  -1  -1   9 150.798 10.5913   3
   1   1  -9 163.143 12.5105   6
   0  -1   9 153.451 10.6340   3
   0  -1  -9 193.352 12.9747   6
   0  -1  -9 155.727 10.7863   9
   0   1  -9 122.091 18.1156  10
   1  -1   9 1058.76 48.1000   3
  -1  -1  -9 1076.82 48.1643   9
  -1  -1  -9 1040.49 47.3577   6
   1   1   9 997.814 47.1209   3
  -1   1  -9 1130.10 48.6353   4
  -1   1  -9 1070.88 53.3257  10
  -2  -1  -9 67.6582 6.39737   9
  -2  -1  -9 63.4797 8.08052   5
   2  -1   9 54.0719 6.39653   3
  -2   1  -9 74.8926 8.94215  10
  -2   1  -9 71.0559 6.15919   4
  -3  -1  -9 108.121 10.2984  10
  -3  -1  -9 91.2283 7.91639   5
  -3   1  -9 82.9659 7.30157   5
  -3   1  -9 87.6066 6.37576   4
  -3   1  -9 104.586 9.88843  10
  -4  -1  -9 8.55435 2.44980  10
  -4  -1  -9 9.52403 2.17580   5
  -4   1  -9 9.90454 2.74429  10
  -4   1  -9 4.15915 1.46865   5
   4  -2  -9 70.3954 5.52320   6
   4   2  -9 64.9885 4.86856   6
  -4   2   9 60.8097 5.85669  11
   3  -2  -9 8.33863 2.77851   6
  -3  -2   9 9.79240 3.80392   6
   2  -2  -9 937.854 45.0106   9
   2  -2  -9 1023.01 46.4846   6
   2   2  -9 1017.13 44.7075   6
   1  -2  -9 191.126 12.8921   6
   1  -2  -9 184.311 12.1794   9
   0  -2  -9 423.091 22.9629   9
   0  -2   9 389.999 21.3041   3
   0  -2  -9 403.764 21.7654   6
   0   2  -9 391.199 23.0612  10
  -1  -2  -9 167.827 11.0490   6
  -1  -2  -9 170.377 11.2473   9
  -1   2  -9 161.683 11.1215   4
  -1   2  -9 178.095 13.8485  10
  -2  -2  -9 92.4754 8.77877   5
  -2  -2  -9 80.6033 8.71931   9
  -2   2  -9 113.349 7.94804   4
  -2   2  -9 117.370 10.8444  10
  -3  -2  -9 46.4065 4.86312   5
  -3  -2  -9 35.3930 5.55381  10
  -3   2  -9 53.9311 7.97865  10
  -3   2  -9 45.8172 4.22870   4
  -3   2  -9 27.6685 4.34575   5
  -4  -2  -9 3.71548 1.43766  10
  -4  -2  -9 9.13289 2.20907   5
  -4   2  -9 11.2692 2.61159  10
   4  -3  -9 5.52123 1.68427   6
   3  -3  -9 244.254 13.3964   6
  -3  -3   9 258.402 13.2546   6
  -3   3   9 233.672 14.1013  11
   3   3  -9 211.399 11.4083   4
  -2  -3   9 613.884 30.1030   6
   2  -3  -9 611.164 29.9754   6
   2   3  -9 621.903 28.8759   4
   1  -3  -9 69.3325 7.05070   9
   1  -3  -9 86.8173 7.51364   6
   1   3  -9 89.0956 7.06659   4
   0  -3  -9 122.439 9.14727   6
   0  -3  -9 103.494 8.75622   9
   0   3  -9 122.978 8.80032   4
  -1  -3  -9 675.175 31.8419   9
  -1  -3  -9 696.494 31.5559   6
  -1   3  -9 580.471 35.1065  10
  -1   3  -9 694.762 31.6160   4
  -2  -3  -9 62.4984 4.83123   6
  -2   3  -9 61.3798 7.03518  10
  -2   3  -9 80.5265 9.28999   4
  -3  -3  -9 45.9926 4.31943   5
  -3  -3  -9 56.9358 5.87063  10
  -3   3  -9 73.8550 6.66576  10
  -3   3  -9 72.8919 4.90840   4
  -4   3  -9 7.20404 1.88774  10
  -3  -4   9 12.3122 1.86403   6
   3  -4  -9 10.6624 1.96088   6
   2  -4  -9 506.741 22.6581   6
  -2  -4   9 507.140 22.7892   6
   2   4  -9 391.203 20.4254   7
  -1  -4   9 85.5604 6.83354   6
   1  -4  -9 85.1584 6.62325   6
   1   4  -9 81.6254 5.22929   7
   1   4  -9 86.8168 5.99320   4
   0  -4   9 266.959 14.5216   6
   0  -4  -9 259.706 14.2947   6
   0   4  -9 253.479 13.8088   4
  -1  -4  -9 98.5241 6.59522   6
   1  -4   9 75.3505 7.02384   6
  -1   4  -9 99.5611 6.64910   4
  -2   4  -9 66.7334 4.92640   4
  -3   4  -9 15.8046 1.93182   4
   1  -5  -9 24.2941 2.40221   6
   0  -5  -9 66.7231 4.45954   6
   4   0 -10 0.58425 0.86298   6
   3   0 -10 16.4613 2.92572   6
   2   0 -10 19.8957 3.43892   6
   1   0 -10 37.9194 5.86501  10
   1   0 -10 36.1602 4.60166   6
   0   0 -10 315.759 20.2850  10
   0   0 -10 295.527 15.7702   6
  -1   0 -10 36.5010 6.09293  10
  -1   0 -10 32.3308 4.10557   4
  -2   0 -10 57.5967 7.31512  10
  -2   0 -10 50.4273 4.48894   4
  -3   0 -10 26.7312 4.36996  10
  -4   0 -10 1.04303 0.90176  10
   4  -1 -10 1.81289 1.56822   6
   4   1 -10 6.62579 1.59712   6
  -4   1  10 6.51728 1.60984  11
  -3  -1  10 47.1655 4.20726   6
   3  -1 -10 53.8286 5.16128   6
   3   1 -10 54.4989 4.91398   6
   2  -1 -10 162.601 11.0872   6
   2  -1 -10 158.308 11.3773   9
   2   1 -10 176.016 11.3433   6
   1  -1 -10 1.15278 1.54668   6
   1  -1 -10 4.05315 2.30371   9
   1   1 -10 1.50334 1.70435   6
   0  -1 -10 377.711 20.1463   9
   0  -1 -10 372.139 19.4887   6
   0   1 -10 380.841 22.6324  10
  -1  -1 -10 16.3214 3.63010   9
  -1  -1 -10 21.6324 4.54737   4
  -1   1 -10 20.9693 3.25300   4
  -1   1 -10 19.9644 4.41555  10
  -2  -1 -10 46.9062 6.57748  10
  -2   1 -10 46.5364 6.28132  10
  -2   1 -10 42.0198 4.17790   4
  -3  -1 -10 61.1669 6.61370  10
  -3   1 -10 58.3569 6.43483  10
  -4  -1 -10 28.7958 3.51579  10
   4  -2 -10 0.51411 0.67333   6
   3  -2 -10 11.2603 2.42788   6
  -3  -2  10 11.1847 2.65555   6
   3   2 -10 12.4545 2.17428   4
  -3   2  10 13.5777 2.68889  11
   1  -2 -10 33.7280 4.30896   6
   1  -2 -10 29.3468 4.61124   9
   0  -2 -10 264.555 14.9798   6
   0   2 -10 273.300 15.2761   4
  -1  -2 -10 16.6838 2.76391   6
  -1   2 -10 11.1486 3.21942  10
  -1   2 -10 17.1829 2.85423   4
  -2   2 -10 29.6548 4.63120  10
  -2   2 -10 37.0398 3.71064   4
  -3  -2 -10 22.0837 3.52862  10
  -3   2 -10 27.1876 3.82074  10
  -3   2 -10 21.7717 2.51296   4
   3  -3 -10 33.2320 3.02511   6
  -3  -3  10 26.6891 2.54972   6
  -3   3  10 26.5147 3.00554  11
  -2  -3  10 99.4180 7.14249   6
   2  -3 -10 108.348 7.34847   6
   2   3 -10 100.314 6.49841   4
   1  -3 -10 4.30464 1.67637   6
  -1  -3  10 5.14555 1.92140   6
   1   3 -10 2.90604 1.56312   4
   0  -3 -10 206.371 11.9562   6
   0   3 -10 215.238 12.0739   4
  -1  -3 -10 4.18165 1.51028   6
  -1   3 -10 7.08777 1.93650   4
  -2   3 -10 14.5900 2.78856  10
  -2   3 -10 28.4437 2.81439   4
  -2  -4  10 6.67639 1.39719   6
   2  -4 -10 4.72089 1.08515   6
  -1  -4  10 17.4886 2.37310   6
   1  -4 -10 18.7474 2.71772   6
   1   4 -10 11.4430 1.98297   4
   0  -4 -10 131.816 8.29680   6
   0  -4  10 146.083 8.06574   6
   0   4 -10 146.555 7.82741   4
  -1   4 -10 0.82038 0.69696   4
  -2   4 -10 12.0930 1.55175   4
  -3   0  11 21.1108 2.79984  11
   3   0 -11 30.1389 3.07211   6
   2   0 -11 179.677 10.2457   6
  -2   0  11 187.489 10.7507   6
   1   0 -11 51.8659 4.30982   6
   0   0 -11 15.5175 3.28555  10
  -1   0 -11 13.7865 3.26123  10
  -1   0 -11 15.5988 2.42966   4
  -2   0 -11 59.0240 6.22958  10
  -3   0 -11 257.806 14.1782  10
   3  -1 -11 18.0792 2.43195   6
  -3   1  11 13.3630 2.08820  11
   2  -1 -11 14.9761 2.60279   6
  -2  -1  11 15.3168 2.55274   6
   1  -1 -11 21.9940 3.25617   6
   1  -1 -11 19.7475 3.73691  10
   0  -1 -11 3.05960 1.60601   6
   0  -1 -11 3.23420 1.80150  10
   0   1 -11 3.80482 1.65847   4
   0   1 -11 0.76120 1.64909  10
  -1  -1 -11 82.7570 8.08448  10
  -1   1 -11 86.9952 6.07069   4
  -1   1 -11 76.5854 7.07412  10
  -2  -1 -11 0.83652 1.06926  10
  -2   1 -11 1.01253 1.13623   4
  -2   1 -11 1.11406 1.09904  10
  -3  -1 -11 2.44777 1.09701  10
  -3   1 -11 2.26598 1.01052  10
   3  -2 -11 17.6112 1.88971   6
  -3   2  11 7.98409 1.61984  11
  -2  -2  11 143.160 8.48538   6
   2  -2 -11 136.394 8.23647   6
   2   2 -11 144.007 8.18960   4
   1  -2 -11 45.4574 4.14899   6
   1   2 -11 45.0020 4.17003   4
   0  -2 -11 15.7360 3.12912   6
   0   2 -11 13.8947 2.42991   4
  -1  -2 -11 9.80387 2.64723  10
  -1   2 -11 4.02360 2.01753  10
  -1   2 -11 12.7009 2.07946   4
  -2  -2 -11 41.0761 5.79313  10
  -2   2 -11 38.7069 4.36962  10
  -2   2 -11 55.3664 3.55497   4
   2  -3 -11 10.8723 1.77293   6
  -2  -3  11 8.48689 1.75866   6
  -2   3  11 3.16719 1.13199  11
   1  -3 -11 18.3481 2.22198   6
  -1  -3  11 16.1045 2.25588   6
   1   3 -11 16.7696 1.99757   4
   0  -3  11 0.60759 1.03879   6
   0  -3 -11 1.42394 1.35025   6
   0   3 -11 0.27459 1.08278   4
   1  -3  11 61.8744 4.79766   6
  -1   3 -11 51.7582 3.82217   4
   1   0 -12 139.616 8.53026   4
   0   0 -12 24.0742 2.51130   4
  -1   0 -12 1.54920 0.98077  10
  -2   1  12 7.51644 2.12088  11
   2   1 -12 13.6001 1.53523   4
  -1  -1  12 37.8263 3.36947   6
   1   1 -12 47.0069 3.63974   4
   0   1 -12 0.79090 0.73135   4
  -1  -1 -12 34.5557 3.55915  10
   0  -2  12 16.4288 1.95244   6
   0   2 -12 14.6871 1.76013   4
   0   0   0    0.00    0.00   0

 _exptl_absorpt_process_details
)
 SADABS 2016/2: Krause, L., Herbst-Irmer, R., Sheldrick G.M. & Stalke D.,
 J. Appl. Cryst. 48 (2015) 3-10
)
 _exptl_absorpt_correction_type   multi-scan
 _exptl_absorpt_correction_T_max  0.7542
 _exptl_absorpt_correction_T_min  0.6329
 _exptl_special_details
)
 The following wavelength and cell were deduced by SADABS from the
 direction cosines etc. They are given here for emergency use only:
 CELL 1.54175    5.753    5.844    9.945   89.995   91.440   90.010
)

;
_shelx_hkl_checksum              57509
loop_
_space_group_symop_operation_xyz
'x, y, z'
'-x, y+1/2, -z'
'-x, -y, -z'
'x, -y-1/2, z'
loop_
_atom_site_label
_atom_site_type_symbol
_atom_site_fract_x
_atom_site_fract_y
_atom_site_fract_z
_atom_site_U_iso_or_equiv
_atom_site_adp_type
_atom_site_occupancy
_atom_site_site_symmetry_order
_atom_site_calc_flag
_atom_site_refinement_flags_posn
_atom_site_refinement_flags_adp
_atom_site_refinement_flags_occupancy
_atom_site_disorder_assembly
_atom_site_disorder_group
O1 O 0.2439(2) 0.250000 0.29026(13) 0.0223(3) Uani 1 2 d S T P . .
O2 O 0.8631(2) 0.250000 0.75147(13) 0.0242(4) Uani 1 2 d S T P . .
O3 O 0.6183(2) 0.250000 0.58335(14) 0.0335(4) Uani 1 2 d S T P . .
O4 O 0.4914(3) 0.250000 0.78635(15) 0.0339(4) Uani 1 2 d S T P . .
N1 N 0.1396(3) 0.250000 0.16287(16) 0.0240(4) Uani 1 2 d S T P . .
N2 N -0.0807(3) 0.250000 0.18624(15) 0.0218(4) Uani 1 2 d S T P . .
N3 N 0.1429(3) 0.250000 0.51217(16) 0.0225(4) Uani 1 2 d S T P . .
H3A H 0.296(5) 0.250000 0.535(2) 0.027 Uiso 1 2 d S U P . .
H3B H 0.033(4) 0.250000 0.571(3) 0.027 Uiso 1 2 d S U P . .
N4 N 0.6555(3) 0.250000 0.70870(16) 0.0207(4) Uani 1 2 d S T P . .
C1 C -0.1347(3) 0.250000 0.31674(18) 0.0220(4) Uani 1 2 d S T P . .
H1 H -0.285332 0.250000 0.353916 0.026 Uiso 1 2 calc R U P . .
C2 C 0.0778(3) 0.250000 0.38510(17) 0.0192(4) Uani 1 2 d S T P . .
C3 C -0.2472(4) 0.250000 0.0713(2) 0.0325(5) Uani 1 2 d S T P . .
H3C H -0.164420 0.217972 -0.011556 0.049 Uiso 0.5 1 calc R U P . .
H3D H -0.322587 0.400144 0.064226 0.049 Uiso 0.5 1 calc R U P . .
H3E H -0.365475 0.131884 0.084774 0.049 Uiso 0.5 1 calc R U P . .
loop_
_atom_site_aniso_label
_atom_site_aniso_U_11
_atom_site_aniso_U_22
_atom_site_aniso_U_33
_atom_site_aniso_U_23
_atom_site_aniso_U_13
_atom_site_aniso_U_12
O1 0.0212(7) 0.0245(7) 0.0215(7) 0.000 0.0047(5) 0.000
O2 0.0196(7) 0.0281(7) 0.0248(7) 0.000 -0.0023(5) 0.000
O3 0.0252(8) 0.0580(10) 0.0173(7) 0.000 -0.0012(5) 0.000
O4 0.0252(8) 0.0481(9) 0.0289(8) 0.000 0.0110(6) 0.000
N1 0.0263(8) 0.0267(8) 0.0191(7) 0.000 0.0033(6) 0.000
N2 0.0248(9) 0.0216(7) 0.0190(8) 0.000 0.0017(6) 0.000
N3 0.0199(8) 0.0277(8) 0.0200(8) 0.000 0.0025(6) 0.000
N4 0.0213(8) 0.0196(7) 0.0213(7) 0.000 0.0036(6) 0.000
C1 0.0219(9) 0.0241(8) 0.0200(9) 0.000 0.0042(7) 0.000
C2 0.0207(9) 0.0171(8) 0.0200(9) 0.000 0.0039(7) 0.000
C3 0.0325(11) 0.0434(12) 0.0213(9) 0.000 -0.0038(8) 0.000
loop_
_atom_type_symbol
_atom_type_description
_atom_type_scat_dispersion_real
_atom_type_scat_dispersion_imag
_atom_type_scat_source
C C 0.0181 0.0091 'International Tables Vol C Tables 4.2.6.8 and 6.1.1.4'
H H 0.0000 0.0000 'International Tables Vol C Tables 4.2.6.8 and 6.1.1.4'
N N 0.0311 0.0180 'International Tables Vol C Tables 4.2.6.8 and 6.1.1.4'
O O 0.0492 0.0322 'International Tables Vol C Tables 4.2.6.8 and 6.1.1.4'
loop_
_geom_angle_atom_site_label_1
_geom_angle_atom_site_label_2
_geom_angle_atom_site_label_3
_geom_angle
_geom_angle_site_symmetry_1
_geom_angle_site_symmetry_3
_geom_angle_publ_flag
C2 O1 N1 109.79(14) . . ?
N2 N1 O1 103.82(14) . . ?
N1 N2 C1 115.09(16) . . ?
N1 N2 C3 118.75(16) . . ?
C1 N2 C3 126.16(17) . . ?
C2 N3 H3A 120.0(16) . . ?
C2 N3 H3B 117.0(16) . . ?
H3A N3 H3B 123(2) . . ?
O4 N4 O2 121.45(16) . . ?
O4 N4 O3 120.39(16) . . ?
O2 N4 O3 118.16(15) . . ?
N2 C1 C2 104.71(16) . . ?
N2 C1 H1 127.6 . . ?
C2 C1 H1 127.6 . . ?
N3 C2 O1 118.77(17) . . ?
N3 C2 C1 134.65(18) . . ?
O1 C2 C1 106.58(15) . . ?
N2 C3 H3C 109.5 . . ?
N2 C3 H3D 109.5 . . ?
H3C C3 H3D 109.5 . . ?
N2 C3 H3E 109.5 . . ?
H3C C3 H3E 109.5 . . ?
H3D C3 H3E 109.5 . . ?
N2 C3 H3C 109.5(2) . 4_565 ?
N2 C3 H3D 109.5(3) . 4_565 ?
H3C C3 H3D 109.5 4_565 4_565 ?
N2 C3 H3E 109.5(5) . 4_565 ?
H3C C3 H3E 109.5 4_565 4_565 ?
H3D C3 H3E 109.5 4_565 4_565 ?
loop_
_geom_bond_atom_site_label_1
_geom_bond_atom_site_label_2
_geom_bond_distance
_geom_bond_site_symmetry_2
_geom_bond_publ_flag
O1 C2 1.359(2) . ?
O1 N1 1.389(2) . ?
O2 N4 1.257(2) . ?
O3 N4 1.260(2) . ?
O4 N4 1.234(2) . ?
N1 N2 1.293(2) . ?
N2 C1 1.342(2) . ?
N2 C3 1.473(2) . ?
N3 C2 1.310(2) . ?
N3 H3A 0.90(3) . ?
N3 H3B 0.87(3) . ?
C1 C2 1.383(3) . ?
C1 H1 0.9500 . ?
C3 H3C 0.9800 . ?
C3 H3D 0.9800 . ?
C3 H3E 0.9800 . ?
C3 H3C 0.980(11) 4_565 ?
C3 H3D 0.980(16) 4_565 ?
C3 H3E 0.98(3) 4_565 ?
loop_
_geom_hbond_atom_site_label_D
_geom_hbond_atom_site_label_H
_geom_hbond_atom_site_label_A
_geom_hbond_distance_DH
_geom_hbond_distance_HA
_geom_hbond_distance_DA
_geom_hbond_angle_DHA
_geom_hbond_site_symmetry_A
_geom_hbond_publ_flag
N3 H3A O3 0.90(3) 1.90(3) 2.806(2) 180(2) . yes
N3 H3B O2 0.87(3) 2.06(3) 2.905(2) 162(2) 1_455 yes
N3 H3B O3 0.87(3) 2.39(3) 3.114(2) 141(2) 1_455 yes
C1 H1 O3 0.95 2.36 3.039(2) 127.9 1_455 yes
C3 H3C O2 0.98 2.37 3.260(3) 150.0 1_454 yes
loop_
_geom_torsion_atom_site_label_1
_geom_torsion_atom_site_label_2
_geom_torsion_atom_site_label_3
_geom_torsion_atom_site_label_4
_geom_torsion
_geom_torsion_site_symmetry_1
_geom_torsion_site_symmetry_2
_geom_torsion_site_symmetry_3
_geom_torsion_site_symmetry_4
_geom_torsion_publ_flag
C2 O1 N1 N2 0.000(0) . . . . ?
O1 N1 N2 C1 0.000(0) . . . . ?
O1 N1 N2 C3 180.000(0) . . . . ?
N1 N2 C1 C2 0.000(0) . . . . ?
C3 N2 C1 C2 180.000(0) . . . . ?
N1 O1 C2 N3 180.000(0) . . . . ?
N1 O1 C2 C1 0.000(0) . . . . ?
N2 C1 C2 N3 180.000(0) . . . . ?
N2 C1 C2 O1 0.000(0) . . . . ?
