#------------------------------------------------------------------------------
#$Date: 2021-05-05 11:59:25 +0300 (Wed, 05 May 2021) $
#$Revision: 264937 $
#$URL: file:///home/coder/svn-repositories/cod/cif/7/06/04/7060470.cif $
#------------------------------------------------------------------------------
#
# This file is available in the Crystallography Open Database (COD),
# http://www.crystallography.net/
#
# All data on this site have been placed in the public domain by the
# contributors.
#
data_7060470
loop_
_publ_author_name
'Kukkonen, Esa'
'Lahtinen, Elmeri'
'Myllyperki\"o, Pasi'
'Haukka, Matti'
'Konu, Jari'
_publ_section_title
;
 Nonlinear optical properties of diaromatic stilbene, butadiene and
 thiophene derivatives
;
_journal_issue                   15
_journal_name_full               'New Journal of Chemistry'
_journal_page_first              6640
_journal_page_last               6650
_journal_paper_doi               10.1039/D1NJ00456E
_journal_volume                  45
_journal_year                    2021
_chemical_formula_moiety         'C16 H16 N2 O2'
_chemical_formula_sum            'C16 H16 N2 O2'
_chemical_formula_weight         268.31
_space_group_crystal_system      monoclinic
_space_group_IT_number           4
_space_group_name_Hall           'P 2yb'
_space_group_name_H-M_alt        'P 1 21 1'
_atom_sites_solution_hydrogens   geom
_atom_sites_solution_primary     dual
_audit_creation_date             2021-03-04
_audit_creation_method
;
Olex2 1.2
(compiled 2018.05.29 svn.r3508 for OlexSys, GUI svn.r5506)
;
_audit_update_record
;
2021-03-12 deposited with the CCDC.	2021-03-19 downloaded from the CCDC.
;
_cell_angle_alpha                90
_cell_angle_beta                 96.417(7)
_cell_angle_gamma                90
_cell_formula_units_Z            2
_cell_length_a                   5.9378(4)
_cell_length_b                   7.3721(7)
_cell_length_c                   15.3569(12)
_cell_measurement_reflns_used    1219
_cell_measurement_temperature    120.01(10)
_cell_measurement_theta_max      74.6780
_cell_measurement_theta_min      2.8290
_cell_volume                     668.02(9)
_computing_cell_refinement       'CrysAlisPro 1.171.38.43 (Rigaku OD, 2015)'
_computing_data_collection       'CrysAlisPro 1.171.38.43 (Rigaku OD, 2015)'
_computing_data_reduction        'CrysAlisPro 1.171.38.43 (Rigaku OD, 2015)'
_computing_molecular_graphics    'Olex2 (Dolomanov et al., 2009)'
_computing_publication_material  'Olex2 (Dolomanov et al., 2009)'
_computing_structure_refinement  'ShelXL (Sheldrick, 2015)'
_computing_structure_solution    'ShelXD (Sheldrick, 2008)'
_diffrn_ambient_environment      N~2~
_diffrn_ambient_temperature      120.01(10)
_diffrn_detector                 'CCD plate'
_diffrn_detector_area_resol_mean 5.1977
_diffrn_detector_type            Atlas
_diffrn_measured_fraction_theta_full 0.997
_diffrn_measured_fraction_theta_max 0.973
_diffrn_measurement_details
;
List of Runs (angles in degrees, time in seconds):

  # Type    Start    End  Width  t~exp~   \w     \q     \k     \f   Frames
#--------------------------------------------------------------------------
  1  \w    -95.00 -51.00   1.00   10.00    --  -41.65 125.00-180.00   44
  2  \w    -67.00  24.00   1.00   10.00    --  -41.65  57.00 120.00   91
  3  \w    -66.00  33.00   1.00   10.00    --  -41.65  37.00 -90.00   99
  4  \w   -113.00 -20.00   1.00   10.00    --  -41.65 -57.00 -30.00   93
  5  \w    106.00 163.00   1.00   80.00    --  112.00 111.00 -30.00   57
  6  \w     45.00 116.00   1.00   80.00    --  112.00-111.00  60.00   71
  7  \w     39.00 129.00   1.00   80.00    --  112.00 -77.00-120.00   90
  8  \w     45.00 109.00   1.00   80.00    --  112.00 -94.00-180.00   64
  9  \w    101.00 168.00   1.00   80.00    --  112.00  77.00  60.00   67
 10  \w     49.00 125.00   1.00   80.00    --  112.00 -45.00   0.00   76
 11  \w     82.00 108.00   1.00   80.00    --  112.00  77.00 120.00   26
 12  \w    132.00 176.00   1.00   80.00    --  112.00  77.00 120.00   44
 13  \w     86.00 173.00   1.00   80.00    --  112.00  45.00  30.00   87
 14  \w    102.00 172.00   1.00   80.00    --  112.00  61.00 -60.00   70
;
_diffrn_measurement_device       'four-circle diffractometer'
_diffrn_measurement_device_type  'SuperNova, Dual, Cu at zero, Atlas'
_diffrn_measurement_method       '\w scans'
_diffrn_orient_matrix_type
'CrysAlisPro convention (1999,Acta A55,543-557)'
_diffrn_orient_matrix_UB_11      -0.1336932000
_diffrn_orient_matrix_UB_12      -0.1766289000
_diffrn_orient_matrix_UB_13      0.0100555000
_diffrn_orient_matrix_UB_21      0.2205563000
_diffrn_orient_matrix_UB_22      -0.0961701000
_diffrn_orient_matrix_UB_23      0.0367385000
_diffrn_orient_matrix_UB_31      -0.0409957000
_diffrn_orient_matrix_UB_32      0.0566809000
_diffrn_orient_matrix_UB_33      0.0934656000
_diffrn_radiation_monochromator  mirror
_diffrn_radiation_probe          x-ray
_diffrn_radiation_type           CuK\a
_diffrn_radiation_wavelength     1.54184
_diffrn_reflns_av_R_equivalents  0.0322
_diffrn_reflns_av_unetI/netI     0.0437
_diffrn_reflns_Laue_measured_fraction_full 0.997
_diffrn_reflns_Laue_measured_fraction_max 0.973
_diffrn_reflns_limit_h_max       7
_diffrn_reflns_limit_h_min       -7
_diffrn_reflns_limit_k_max       9
_diffrn_reflns_limit_k_min       -8
_diffrn_reflns_limit_l_max       19
_diffrn_reflns_limit_l_min       -15
_diffrn_reflns_number            3947
_diffrn_reflns_point_group_measured_fraction_full 0.813
_diffrn_reflns_point_group_measured_fraction_max 0.780
_diffrn_reflns_theta_full        67.684
_diffrn_reflns_theta_max         76.761
_diffrn_reflns_theta_min         2.896
_diffrn_source                   'micro-focus sealed X-ray tube'
_diffrn_source_type              'SuperNova (Cu) X-ray Source'
_exptl_absorpt_coefficient_mu    0.719
_exptl_absorpt_correction_T_max  0.971
_exptl_absorpt_correction_T_min  0.922
_exptl_absorpt_correction_type   analytical
_exptl_absorpt_process_details
;
CrysAlisPro 1.171.38.43 (Rigaku Oxford Diffraction, 2015)
Analytical numeric absorption correction using a multifaceted crystal
			model based on expressions derived by R.C. Clark & J.S. Reid.
(Clark, R. C. & Reid, J. S. (1995). Acta Cryst. A51, 887-897)
Empirical absorption correction using spherical harmonics,
 implemented in SCALE3 ABSPACK scaling algorithm.
;
_exptl_crystal_colour            red
_exptl_crystal_colour_primary    red
_exptl_crystal_density_diffrn    1.334
_exptl_crystal_description       block
_exptl_crystal_F_000             284
_exptl_crystal_size_max          0.126
_exptl_crystal_size_mid          0.054
_exptl_crystal_size_min          0.034
_refine_diff_density_max         0.356
_refine_diff_density_min         -0.293
_refine_diff_density_rms         0.058
_refine_ls_abs_structure_details
;
 Flack x determined using 410 quotients [(I+)-(I-)]/[(I+)+(I-)]
 (Parsons, Flack and Wagner, Acta Cryst. B69 (2013) 249-259).
;
_refine_ls_abs_structure_Flack   -0.2(10)
_refine_ls_extinction_method     none
_refine_ls_goodness_of_fit_ref   1.101
_refine_ls_hydrogen_treatment    constr
_refine_ls_matrix_type           full
_refine_ls_number_parameters     217
_refine_ls_number_reflns         2194
_refine_ls_number_restraints     4
_refine_ls_restrained_S_all      1.109
_refine_ls_R_factor_all          0.1051
_refine_ls_R_factor_gt           0.0855
_refine_ls_shift/su_max          0.000
_refine_ls_shift/su_mean         0.000
_refine_ls_structure_factor_coef Fsqd
_refine_ls_weighting_details
'w=1/[\s^2^(Fo^2^)+(0.1281P)^2^+0.3516P] where P=(Fo^2^+2Fc^2^)/3'
_refine_ls_weighting_scheme      calc
_refine_ls_wR_factor_gt          0.2365
_refine_ls_wR_factor_ref         0.2602
_reflns_Friedel_coverage         0.483
_reflns_Friedel_fraction_full    0.595
_reflns_Friedel_fraction_max     0.553
_reflns_number_gt                1671
_reflns_number_total             2194
_reflns_threshold_expression     'I > 2\s(I)'
_cod_data_source_file            d1nj00456e2.cif
_cod_data_source_block           compound_1e
_cod_depositor_comments
'Adding full bibliography for 7060468--7060480.cif.'
_cod_database_code               7060470
_shelx_shelxl_version_number     2018/3
_chemical_oxdiff_formula         'C11 H10 N O'
_shelx_space_group_comment
;
The symmetry employed for this shelxl refinement is uniquely defined
by the following loop, which should always be used as a source of
symmetry information in preference to the above space-group names.
They are only intended as comments.
;
_reflns_odcompleteness_completeness 99.57
_reflns_odcompleteness_iscentric 1
_reflns_odcompleteness_theta     69.95
_olex2_refinement_description
;
1. Fixed Uiso
 At 1.2 times of:
  All C(H) groups
 At 1.5 times of:
  All C(H,H,H) groups
2. Restrained distances
 C8B-C7B
 1.3 with sigma of 0.02
 C9-C8B
 1.4 with sigma of 0.02
 C7B-C4
 1.4 with sigma of 0.02
3. Uiso/Uaniso restraints and constraints
Uanis(C8B) = Uanis(C7B)
Uanis(C13B) = Uanis(C14B) = Uanis(C10B) = Uanis(C11B)
Uanis(C13A) = Uanis(C14A) = Uanis(C10A) = Uanis(C11A)
Uanis(O2B) = Uanis(O1B)
Uanis(C3B) = Uanis(C2B) = Uanis(C6B) = Uanis(C5B)
Uanis(C16B) = Uanis(C15B)
Uanis(C5A) = Uanis(C6A) = Uanis(C2A) = Uanis(C3A)
4. Others
 Fixed Sof: O1A(0.6) O2A(0.6) C2A(0.6) H2A(0.6) C3A(0.6) H3A(0.6) C5A(0.6)
 H5A(0.6) C6A(0.6) H6A(0.6) C7A(0.75) H7A(0.75) C8A(0.75) H8A(0.75) C10A(0.6)
 H10A(0.6) C11A(0.6) H11A(0.6) C13A(0.6) H13A(0.6) C14A(0.6) H14A(0.6)
 C15A(0.6) H15A(0.6) H15B(0.6) H15C(0.6) C16A(0.6) H16A(0.6) H16B(0.6)
 H16C(0.6) O1B(0.4) O2B(0.4) C3B(0.4) H3B(0.4) C2B(0.4) H2B(0.4) C6B(0.4)
 H6B(0.4) C5B(0.4) H5B(0.4) C7B(0.25) H7B(0.25) C8B(0.25) H8B(0.25) C11B(0.4)
 H11B(0.4) C10B(0.4) H10B(0.4) C14B(0.4) H14B(0.4) C13B(0.4) H13B(0.4)
 C15B(0.4) H15D(0.4) H15E(0.4) H15F(0.4) C16B(0.4) H16D(0.4) H16E(0.4) H16F(0.4)
5.a Me refined with riding coordinates:
 C15A(H15A,H15B,H15C), C16A(H16A,H16B,H16C), C15B(H15D,H15E,H15F), C16B(H16D,
 H16E,H16F)
5.b Aromatic/amide H refined with riding coordinates:
 C2A(H2A), C3A(H3A), C5A(H5A), C6A(H6A), C7A(H7A), C8A(H8A), C10A(H10A),
 C11A(H11A), C13A(H13A), C14A(H14A), C3B(H3B), C2B(H2B), C6B(H6B), C5B(H5B),
 C7B(H7B), C8B(H8B), C11B(H11B), C10B(H10B), C14B(H14B), C13B(H13B)
;
_shelx_res_file
;
TITL ek1918_a_P21 in P21 #4
    ek1918_a_p21.res
    created by SHELXL-2018/3 at 13:53:22 on 04-Mar-2021
REM Best SHELXD solution FINAL CC 82.74
REM Fragments: 21
REM reset to P21 #4
CELL 1.54184 5.937789 7.372117 15.356879 90 96.4174 90
ZERR 2 0.000429 0.000681 0.001194 0 0.0066 0
LATT -1
SYMM -X,0.5+Y,-Z
SFAC C H N O
UNIT 32 32 4 4
DFIX 1.3 C8B C7B
DFIX 1.4 C9 C8B
DFIX 1.4 C7B C4
EADP C8B C7B
EADP C13B C14B C10B C11B
EADP C13A C14A C10A C11A
EADP O2B O1B
EADP C3B C2B C6B C5B
EADP C16B C15B
EADP C5A C6A C2A C3A

L.S. 50 0 0
PLAN  2
BOND $H
CONF
fmap 2 53
acta
OMIT 4 -3 2
OMIT 4 -3 4
OMIT 4 -3 3
REM <olex2.extras>
REM <HklSrc "%.\\ek1918_a_P21.hkl">
REM </olex2.extras>

WGHT    0.128100    0.351600
FVAR      17.85525
N1    3    1.114395    1.631070    1.143563    11.00000    0.04571    0.04253 =
         0.03375    0.00727    0.01142   -0.00213
N2    3    0.409158    1.627078    1.863948    11.00000    0.03968    0.04042 =
         0.03017   -0.00370    0.01434   -0.00523
PART 1
O1A   4    0.997959    1.713017    1.084671    10.60000    0.06793    0.09169 =
         0.03578    0.01872   -0.00782   -0.01456
O2A   4    1.288847    1.555032    1.131737    10.60000    0.06211    0.08099 =
         0.09121    0.00517    0.05366    0.02376
C2A   1    1.170926    1.547034    1.296855    10.60000    0.02509    0.01812 =
         0.06703   -0.00430    0.00885    0.00297
AFIX  43
H2A   2    1.307268    1.494259    1.285979    10.60000   -1.20000
AFIX   0
C3A   1    1.107443    1.542549    1.378005    10.60000    0.02509    0.01812 =
         0.06703   -0.00430    0.00885    0.00297
AFIX  43
H3A   2    1.199513    1.484518    1.422480    10.60000   -1.20000
AFIX   0
C5A   1    0.761164    1.710410    1.326357    10.60000    0.02509    0.01812 =
         0.06703   -0.00430    0.00885    0.00297
AFIX  43
H5A   2    0.623012    1.762189    1.335613    10.60000   -1.20000
AFIX   0
C6A   1    0.834156    1.714696    1.243608    10.60000    0.02509    0.01812 =
         0.06703   -0.00430    0.00885    0.00297
AFIX  43
H6A   2    0.749402    1.774125    1.197601    10.60000   -1.20000
AFIX   0
C7A   1    0.845465    1.614043    1.488326    10.75000    0.01911    0.05879 =
         0.02543   -0.00650   -0.00116    0.00193
AFIX  43
H7A   2    0.965914    1.587822    1.530506    10.75000   -1.20000
AFIX   0
C8A   1    0.648424    1.635991    1.516814    10.75000    0.01828    0.05147 =
         0.02907    0.00902    0.00078   -0.00214
AFIX  43
H8A   2    0.526467    1.657312    1.474573    10.75000   -1.20000
AFIX   0
C10A  1    0.730060    1.553521    1.672875    10.60000    0.02664    0.02465 =
         0.04811   -0.00088    0.00835   -0.00522
AFIX  43
H10A  2    0.864598    1.499270    1.660887    10.60000   -1.20000
AFIX   0
C11A  1    0.675812    1.549469    1.760655    10.60000    0.02664    0.02465 =
         0.04811   -0.00088    0.00835   -0.00522
AFIX  43
H11A  2    0.773930    1.495199    1.804486    10.60000   -1.20000
AFIX   0
C13A  1    0.336018    1.709455    1.709255    10.60000    0.02664    0.02465 =
         0.04811   -0.00088    0.00835   -0.00522
AFIX  43
H13A  2    0.201271    1.766019    1.719229    10.60000   -1.20000
AFIX   0
C14A  1    0.401324    1.705657    1.623907    10.60000    0.02664    0.02465 =
         0.04811   -0.00088    0.00835   -0.00522
AFIX  43
H14A  2    0.305435    1.756202    1.578276    10.60000   -1.20000
AFIX   0
C15A  1    0.226099    1.741822    1.884335    10.60000    0.03085    0.06064 =
         0.05787    0.00221    0.01805    0.00407
AFIX  33
H15A  2    0.202295    1.725683    1.944659    10.60000   -1.50000
H15B  2    0.263500    1.866251    1.874405    10.60000   -1.50000
H15C  2    0.090392    1.710073    1.847541    10.60000   -1.50000
AFIX   0
C16A  1    0.566385    1.563902    1.936775    10.60000    0.08852    0.09601 =
         0.04910    0.03571    0.02759    0.05951
AFIX  33
H16A  2    0.496194    1.571934    1.990006    10.60000   -1.50000
H16B  2    0.606713    1.440102    1.926867    10.60000   -1.50000
H16C  2    0.700257    1.637877    1.941632    10.60000   -1.50000
AFIX   0
PART 0
PART 2
O1B   4    0.997377    1.531396    1.085701    10.40000    0.07592    0.05995 =
         0.02275    0.00459    0.01422    0.00284
O2B   4    1.287815    1.697270    1.132882    10.40000    0.07592    0.05995 =
         0.02275    0.00459    0.01422    0.00284
C3B   1    1.090756    1.712310    1.380738    10.40000    0.05208    0.05377 =
         0.00913    0.00387    0.00527    0.01184
AFIX  43
H3B   2    1.173554    1.774455    1.426332    10.40000   -1.20000
AFIX   0
C2B   1    1.172003    1.713366    1.297217    10.40000    0.05208    0.05377 =
         0.00913    0.00387    0.00527    0.01184
AFIX  43
H2B   2    1.308254    1.768448    1.288023    10.40000   -1.20000
AFIX   0
PART 0
C1    1    1.037392    1.628101    1.230577    11.00000    0.02945    0.03136 =
         0.02736    0.00046    0.00711    0.00335
PART 2
C6B   1    0.836524    1.540948    1.242617    10.40000    0.05208    0.05377 =
         0.00913    0.00387    0.00527    0.01184
AFIX  43
H6B   2    0.748567    1.481635    1.197409    10.40000   -1.20000
AFIX   0
C5B   1    0.774343    1.549272    1.330599    10.40000    0.05208    0.05377 =
         0.00913    0.00387    0.00527    0.01184
AFIX  43
H5B   2    0.637166    1.497440    1.341109    10.40000   -1.20000
AFIX   0
PART 0
C4    1    0.899529    1.625843    1.397562    11.00000    0.04916    0.03390 =
         0.03985   -0.00029    0.01920    0.00986
PART 2
C7B   1    0.723645    1.658050    1.456324    10.25000    0.03705    0.16675 =
         0.06038   -0.04396    0.01340    0.01496
AFIX  43
H7B   2    0.586562    1.710244    1.434111    10.25000   -1.20000
AFIX   0
C8B   1    0.756996    1.615139    1.537573    10.25000    0.03705    0.16675 =
         0.06038   -0.04396    0.01340    0.01496
AFIX  43
H8B   2    0.899263    1.567652    1.556356    10.25000   -1.20000
AFIX   0
C11B  1    0.680873    1.703452    1.762456    10.40000    0.04631    0.05148 =
         0.01454    0.00172    0.00299   -0.00604
AFIX  43
H11B  2    0.775823    1.752747    1.808707    10.40000   -1.20000
AFIX   0
C10B  1    0.750108    1.708123    1.680336    10.40000    0.04631    0.05148 =
         0.01454    0.00172    0.00299   -0.00604
AFIX  43
H10B  2    0.889063    1.758716    1.671276    10.40000   -1.20000
AFIX   0
PART 0
C9    1    0.598966    1.630870    1.606221    11.00000    0.04767    0.03048 =
         0.03559   -0.00339    0.01124   -0.01262
PART 2
C14B  1    0.385689    1.546981    1.628505    10.40000    0.04631    0.05148 =
         0.01454    0.00172    0.00299   -0.00604
AFIX  43
H14B  2    0.287038    1.493431    1.584621    10.40000   -1.20000
AFIX   0
C13B  1    0.333704    1.547529    1.711079    10.40000    0.04631    0.05148 =
         0.01454    0.00172    0.00299   -0.00604
AFIX  43
H13B  2    0.199660    1.492504    1.723091    10.40000   -1.20000
AFIX   0
PART 0
C12   1    0.473494    1.627898    1.780379    11.00000    0.03043    0.03004 =
         0.02738    0.00724    0.00819    0.00189
PART 2
C15B  1    0.231883    1.507354    1.885474    10.40000    0.05066    0.07035 =
         0.01862   -0.00017    0.01482   -0.02050
AFIX  33
H15D  2    0.208318    1.523779    1.945804    10.40000   -1.50000
H15E  2    0.094306    1.534539    1.848816    10.40000   -1.50000
H15F  2    0.274854    1.383936    1.876150    10.40000   -1.50000
AFIX   0
C16B  1    0.583764    1.664623    1.935705    10.40000    0.05066    0.07035 =
         0.01862   -0.00017    0.01482   -0.02050
AFIX  33
H16D  2    0.518954    1.660285    1.990205    10.40000   -1.50000
H16E  2    0.701653    1.575393    1.936196    10.40000   -1.50000
H16F  2    0.646067    1.783001    1.928133    10.40000   -1.50000
AFIX   0
HKLF 4




REM  ek1918_a_P21 in P21 #4
REM wR2 = 0.2602, GooF = S = 1.101, Restrained GooF = 1.109 for all data
REM R1 = 0.0855 for 1671 Fo > 4sig(Fo) and 0.1051 for all 2194 data
REM 217 parameters refined using 4 restraints

END

WGHT      0.1281      0.3516

REM Highest difference peak  0.356,  deepest hole -0.293,  1-sigma level  0.058
Q1    1   0.4907  1.6315  1.6203  11.00000  0.05    0.36
Q2    1   0.7264  1.4991  1.2966  11.00000  0.05    0.35
;
_shelx_res_checksum              53230
_ins_header
;
TITL ek1918_a_P21 in P2(1) 
REM P2(1) (#4 in standard setting)
CELL 1.54184   5.937789   7.372117  15.356879  90.0000  96.4174  90.0000
ZERR    3.00   0.000429   0.000681   0.001194   0.0000   0.0066   0.0000
LATT -1
SYMM -x, y+1/2,-z 
SFAC C H N O
UNIT 33.00 30.00 3.00 3.00
TREF
HKLF 4
END
;
_olex2_submission_special_instructions 'No special instructions were received'
_oxdiff_exptl_absorpt_empirical_details
;
Empirical correction (ABSPACK) includes:
- Absorption correction using spherical harmonics
- Frame scaling
;
_oxdiff_exptl_absorpt_empirical_full_max 1.308
_oxdiff_exptl_absorpt_empirical_full_min 0.758
loop_
_space_group_symop_operation_xyz
'x, y, z'
'-x, y+1/2, -z'
loop_
_atom_site_label
_atom_site_type_symbol
_atom_site_fract_x
_atom_site_fract_y
_atom_site_fract_z
_atom_site_U_iso_or_equiv
_atom_site_adp_type
_atom_site_occupancy
_atom_site_site_symmetry_order
_atom_site_calc_flag
_atom_site_refinement_flags_posn
_atom_site_refinement_flags_adp
_atom_site_refinement_flags_occupancy
_atom_site_disorder_assembly
_atom_site_disorder_group
N1 N 1.1144(6) 1.6311(9) 1.1436(2) 0.0401(9) Uani 1 1 d . . . . .
N2 N 0.4092(5) 1.6271(8) 1.86395(19) 0.0360(8) Uani 1 1 d . . . . .
O1A O 0.9980(15) 1.7130(15) 1.0847(5) 0.066(2) Uani 0.6 1 d . . P A 1
O2A O 1.2888(15) 1.5550(16) 1.1317(7) 0.075(3) Uani 0.6 1 d . . P A 1
C2A C 1.1709(13) 1.5470(11) 1.2969(7) 0.0365(11) Uani 0.6 1 d . . P B 1
H2A H 1.307268 1.494259 1.285979 0.044 Uiso 0.6 1 calc R . P B 1
C3A C 1.1074(14) 1.5425(11) 1.3780(7) 0.0365(11) Uani 0.6 1 d . . P B 1
H3A H 1.199513 1.484518 1.422480 0.044 Uiso 0.6 1 calc R . P B 1
C5A C 0.7612(13) 1.7104(10) 1.3264(7) 0.0365(11) Uani 0.6 1 d . . P B 1
H5A H 0.623012 1.762189 1.335613 0.044 Uiso 0.6 1 calc R . P B 1
C6A C 0.8342(14) 1.7147(10) 1.2436(7) 0.0365(11) Uani 0.6 1 d . . P B 1
H6A H 0.749402 1.774125 1.197601 0.044 Uiso 0.6 1 calc R . P B 1
C7A C 0.8455(8) 1.6140(14) 1.4883(3) 0.0347(14) Uani 0.75 1 d . . P B 1
H7A H 0.965914 1.587822 1.530506 0.042 Uiso 0.75 1 calc R . P B 1
C8A C 0.6484(9) 1.6360(14) 1.5168(3) 0.0331(13) Uani 0.75 1 d . . P B 1
H8A H 0.526467 1.657312 1.474573 0.040 Uiso 0.75 1 calc R . P B 1
C10A C 0.7301(13) 1.5535(11) 1.6729(6) 0.0328(10) Uani 0.6 1 d . . P B 1
H10A H 0.864598 1.499270 1.660887 0.039 Uiso 0.6 1 calc R . P B 1
C11A C 0.6758(14) 1.5495(11) 1.7607(6) 0.0328(10) Uani 0.6 1 d . . P B 1
H11A H 0.773930 1.495199 1.804486 0.039 Uiso 0.6 1 calc R . P B 1
C13A C 0.3360(14) 1.7095(11) 1.7093(6) 0.0328(10) Uani 0.6 1 d . . P B 1
H13A H 0.201271 1.766019 1.719229 0.039 Uiso 0.6 1 calc R . P B 1
C14A C 0.4013(13) 1.7057(11) 1.6239(6) 0.0328(10) Uani 0.6 1 d . . P B 1
H14A H 0.305435 1.756202 1.578276 0.039 Uiso 0.6 1 calc R . P B 1
C15A C 0.2261(17) 1.7418(17) 1.8843(8) 0.049(2) Uani 0.6 1 d . . P C 1
H15A H 0.202295 1.725683 1.944659 0.073 Uiso 0.6 1 calc R . P C 1
H15B H 0.263500 1.866251 1.874405 0.073 Uiso 0.6 1 calc R . P C 1
H15C H 0.090392 1.710073 1.847541 0.073 Uiso 0.6 1 calc R . P C 1
C16A C 0.566(3) 1.564(3) 1.9368(9) 0.076(5) Uani 0.6 1 d . . P C 1
H16A H 0.496194 1.571934 1.990006 0.115 Uiso 0.6 1 calc R . P C 1
H16B H 0.606713 1.440102 1.926867 0.115 Uiso 0.6 1 calc R . P C 1
H16C H 0.700257 1.637877 1.941632 0.115 Uiso 0.6 1 calc R . P C 1
O1B O 0.997(2) 1.5314(18) 1.0857(6) 0.0522(19) Uani 0.4 1 d . . P A 2
O2B O 1.288(2) 1.6973(19) 1.1329(6) 0.0522(19) Uani 0.4 1 d . . P A 2
C3B C 1.091(2) 1.712(2) 1.3807(7) 0.0382(16) Uani 0.4 1 d . . P B 2
H3B H 1.173554 1.774455 1.426332 0.046 Uiso 0.4 1 calc R . P B 2
C2B C 1.172(2) 1.713(2) 1.2972(7) 0.0382(16) Uani 0.4 1 d . . P B 2
H2B H 1.308254 1.768448 1.288023 0.046 Uiso 0.4 1 calc R . P B 2
C1 C 1.0374(6) 1.6281(8) 1.2306(2) 0.0291(8) Uani 1 1 d . . . . .
C6B C 0.837(3) 1.5409(19) 1.2426(7) 0.0382(16) Uani 0.4 1 d . . P B 2
H6B H 0.748567 1.481635 1.197409 0.046 Uiso 0.4 1 calc R . P B 2
C5B C 0.774(2) 1.5493(19) 1.3306(7) 0.0382(16) Uani 0.4 1 d . . P B 2
H5B H 0.637166 1.497440 1.341109 0.046 Uiso 0.4 1 calc R . P B 2
C4 C 0.8995(7) 1.6258(10) 1.3976(3) 0.0399(10) Uani 1 1 d D . . . .
C7B C 0.724(4) 1.658(7) 1.4563(13) 0.087(8) Uani 0.25 1 d D . P B 2
H7B H 0.586562 1.710244 1.434111 0.105 Uiso 0.25 1 calc R . P B 2
C8B C 0.757(4) 1.615(7) 1.5376(14) 0.087(8) Uani 0.25 1 d D . P B 2
H8B H 0.899263 1.567652 1.556356 0.105 Uiso 0.25 1 calc R . P B 2
C11B C 0.681(2) 1.703(2) 1.7625(7) 0.0375(16) Uani 0.4 1 d . . P B 2
H11B H 0.775823 1.752747 1.808707 0.045 Uiso 0.4 1 calc R . P B 2
C10B C 0.750(2) 1.7081(19) 1.6803(7) 0.0375(16) Uani 0.4 1 d . . P B 2
H10B H 0.889063 1.758716 1.671276 0.045 Uiso 0.4 1 calc R . P B 2
C9 C 0.5990(7) 1.6309(9) 1.6062(2) 0.0374(10) Uani 1 1 d D . . . .
C14B C 0.386(2) 1.547(2) 1.6285(7) 0.0375(16) Uani 0.4 1 d . . P B 2
H14B H 0.287038 1.493431 1.584621 0.045 Uiso 0.4 1 calc R . P B 2
C13B C 0.334(2) 1.548(2) 1.7111(8) 0.0375(16) Uani 0.4 1 d . . P B 2
H13B H 0.199660 1.492504 1.723091 0.045 Uiso 0.4 1 calc R . P B 2
C12 C 0.4735(6) 1.6279(8) 1.7804(2) 0.0289(8) Uani 1 1 d . . . . .
C15B C 0.232(3) 1.507(2) 1.8855(8) 0.046(3) Uani 0.4 1 d . . P C 2
H15D H 0.208318 1.523779 1.945804 0.069 Uiso 0.4 1 calc R . P C 2
H15E H 0.094306 1.534539 1.848816 0.069 Uiso 0.4 1 calc R . P C 2
H15F H 0.274854 1.383936 1.876150 0.069 Uiso 0.4 1 calc R . P C 2
C16B C 0.584(3) 1.665(3) 1.9357(10) 0.046(3) Uani 0.4 1 d . . P C 2
H16D H 0.518954 1.660285 1.990205 0.069 Uiso 0.4 1 calc R . P C 2
H16E H 0.701653 1.575393 1.936196 0.069 Uiso 0.4 1 calc R . P C 2
H16F H 0.646067 1.783001 1.928133 0.069 Uiso 0.4 1 calc R . P C 2
loop_
_atom_site_aniso_label
_atom_site_aniso_U_11
_atom_site_aniso_U_22
_atom_site_aniso_U_33
_atom_site_aniso_U_23
_atom_site_aniso_U_13
_atom_site_aniso_U_12
N1 0.0457(19) 0.043(2) 0.0338(17) 0.007(2) 0.0114(13) -0.002(3)
N2 0.0397(17) 0.0404(19) 0.0302(15) -0.004(2) 0.0143(12) -0.005(3)
O1A 0.068(4) 0.092(7) 0.036(3) 0.019(3) -0.008(3) -0.015(4)
O2A 0.062(5) 0.081(7) 0.091(6) 0.005(5) 0.054(4) 0.024(5)
C2A 0.0251(18) 0.0181(16) 0.067(3) -0.0043(18) 0.0089(17) 0.0030(14)
C3A 0.0251(18) 0.0181(16) 0.067(3) -0.0043(18) 0.0089(17) 0.0030(14)
C5A 0.0251(18) 0.0181(16) 0.067(3) -0.0043(18) 0.0089(17) 0.0030(14)
C6A 0.0251(18) 0.0181(16) 0.067(3) -0.0043(18) 0.0089(17) 0.0030(14)
C7A 0.019(2) 0.059(4) 0.025(2) -0.006(3) -0.001(2) 0.002(3)
C8A 0.018(2) 0.051(4) 0.029(2) 0.009(3) 0.0008(18) -0.002(3)
C10A 0.0266(18) 0.0247(18) 0.048(3) -0.0009(17) 0.0084(16) -0.0052(16)
C11A 0.0266(18) 0.0247(18) 0.048(3) -0.0009(17) 0.0084(16) -0.0052(16)
C13A 0.0266(18) 0.0247(18) 0.048(3) -0.0009(17) 0.0084(16) -0.0052(16)
C14A 0.0266(18) 0.0247(18) 0.048(3) -0.0009(17) 0.0084(16) -0.0052(16)
C15A 0.031(4) 0.061(7) 0.058(6) 0.002(5) 0.018(4) 0.004(4)
C16A 0.089(9) 0.096(11) 0.049(6) 0.036(7) 0.028(6) 0.060(10)
O1B 0.076(5) 0.060(5) 0.023(3) 0.005(3) 0.014(3) 0.003(4)
O2B 0.076(5) 0.060(5) 0.023(3) 0.005(3) 0.014(3) 0.003(4)
C3B 0.052(4) 0.054(4) 0.009(2) 0.004(2) 0.005(2) 0.012(3)
C2B 0.052(4) 0.054(4) 0.009(2) 0.004(2) 0.005(2) 0.012(3)
C1 0.0294(16) 0.0314(19) 0.0274(16) 0.000(2) 0.0071(12) 0.003(2)
C6B 0.052(4) 0.054(4) 0.009(2) 0.004(2) 0.005(2) 0.012(3)
C5B 0.052(4) 0.054(4) 0.009(2) 0.004(2) 0.005(2) 0.012(3)
C4 0.049(2) 0.034(2) 0.040(2) 0.000(3) 0.0192(16) 0.010(3)
C7B 0.037(8) 0.17(3) 0.060(10) -0.044(15) 0.013(8) 0.015(13)
C8B 0.037(8) 0.17(3) 0.060(10) -0.044(15) 0.013(8) 0.015(13)
C11B 0.046(4) 0.051(4) 0.015(3) 0.002(2) 0.003(2) -0.006(3)
C10B 0.046(4) 0.051(4) 0.015(3) 0.002(2) 0.003(2) -0.006(3)
C9 0.048(2) 0.030(2) 0.0356(18) -0.003(3) 0.0112(15) -0.013(3)
C14B 0.046(4) 0.051(4) 0.015(3) 0.002(2) 0.003(2) -0.006(3)
C13B 0.046(4) 0.051(4) 0.015(3) 0.002(2) 0.003(2) -0.006(3)
C12 0.0304(16) 0.0300(19) 0.0274(16) 0.007(2) 0.0082(12) 0.002(2)
C15B 0.051(6) 0.070(9) 0.019(4) 0.000(4) 0.015(4) -0.020(6)
C16B 0.051(6) 0.070(9) 0.019(4) 0.000(4) 0.015(4) -0.020(6)
loop_
_atom_type_symbol
_atom_type_description
_atom_type_scat_dispersion_real
_atom_type_scat_dispersion_imag
_atom_type_scat_source
C C 0.0181 0.0091 'International Tables Vol C Tables 4.2.6.8 and 6.1.1.4'
H H 0.0000 0.0000 'International Tables Vol C Tables 4.2.6.8 and 6.1.1.4'
N N 0.0311 0.0180 'International Tables Vol C Tables 4.2.6.8 and 6.1.1.4'
O O 0.0492 0.0322 'International Tables Vol C Tables 4.2.6.8 and 6.1.1.4'
loop_
_exptl_crystal_face_index_h
_exptl_crystal_face_index_k
_exptl_crystal_face_index_l
_exptl_crystal_face_perp_dist
0 -1 -6 0.0165
-3 -1 -2 0.0385
0 1 6 0.0175
3 1 2 0.0565
0 -1 0 0.0235
0 1 0 0.0175
loop_
_geom_angle_atom_site_label_1
_geom_angle_atom_site_label_2
_geom_angle_atom_site_label_3
_geom_angle
_geom_angle_site_symmetry_1
_geom_angle_site_symmetry_3
_geom_angle_publ_flag
O1A N1 C1 118.1(6) . . ?
O2A N1 O1A 122.4(7) . . ?
O2A N1 C1 119.4(6) . . ?
O1B N1 C1 114.9(6) . . ?
O2B N1 O1B 123.7(8) . . ?
O2B N1 C1 120.4(6) . . ?
C15A N2 C16A 117.2(7) . . ?
C12 N2 C15A 119.6(6) . . ?
C12 N2 C16A 119.8(6) . . ?
C12 N2 C15B 120.1(7) . . ?
C12 N2 C16B 117.2(7) . . ?
C15B N2 C16B 114.9(9) . . ?
C3A C2A H2A 119.8 . . ?
C3A C2A C1 120.4(7) . . ?
C1 C2A H2A 119.8 . . ?
C2A C3A H3A 119.4 . . ?
C2A C3A C4 121.3(8) . . ?
C4 C3A H3A 119.4 . . ?
C6A C5A H5A 120.1 . . ?
C6A C5A C4 119.8(6) . . ?
C4 C5A H5A 120.1 . . ?
C5A C6A H6A 120.6 . . ?
C5A C6A C1 118.9(8) . . ?
C1 C6A H6A 120.6 . . ?
C8A C7A H7A 116.2 . . ?
C8A C7A C4 127.7(5) . . ?
C4 C7A H7A 116.2 . . ?
C7A C8A H8A 116.4 . . ?
C7A C8A C9 127.2(5) . . ?
C9 C8A H8A 116.4 . . ?
C11A C10A H10A 118.0 . . ?
C9 C10A H10A 118.0 . . ?
C9 C10A C11A 124.0(7) . . ?
C10A C11A H11A 120.4 . . ?
C12 C11A C10A 119.3(7) . . ?
C12 C11A H11A 120.4 . . ?
C14A C13A H13A 119.6 . . ?
C14A C13A C12 120.8(7) . . ?
C12 C13A H13A 119.6 . . ?
C13A C14A H14A 119.0 . . ?
C9 C14A C13A 122.1(8) . . ?
C9 C14A H14A 119.0 . . ?
N2 C15A H15A 109.5 . . ?
N2 C15A H15B 109.5 . . ?
N2 C15A H15C 109.5 . . ?
H15A C15A H15B 109.5 . . ?
H15A C15A H15C 109.5 . . ?
H15B C15A H15C 109.5 . . ?
N2 C16A H16A 109.5 . . ?
N2 C16A H16B 109.5 . . ?
N2 C16A H16C 109.5 . . ?
H16A C16A H16B 109.5 . . ?
H16A C16A H16C 109.5 . . ?
H16B C16A H16C 109.5 . . ?
C2B C3B H3B 118.2 . . ?
C4 C3B H3B 118.2 . . ?
C4 C3B C2B 123.5(12) . . ?
C3B C2B H2B 121.9 . . ?
C1 C2B C3B 116.2(12) . . ?
C1 C2B H2B 121.9 . . ?
C2A C1 N1 118.5(5) . . ?
C2A C1 C6A 122.3(6) . . ?
C6A C1 N1 119.2(5) . . ?
C2B C1 N1 117.3(6) . . ?
C2B C1 C6B 123.3(7) . . ?
C6B C1 N1 119.4(5) . . ?
C1 C6B H6B 122.6 . . ?
C1 C6B C5B 114.8(10) . . ?
C5B C6B H6B 122.6 . . ?
C6B C5B H5B 117.8 . . ?
C4 C5B C6B 124.4(12) . . ?
C4 C5B H5B 117.8 . . ?
C3A C4 C7A 117.2(6) . . ?
C5A C4 C3A 117.2(6) . . ?
C5A C4 C7A 125.6(6) . . ?
C3B C4 C7B 135.1(19) . . ?
C5B C4 C3B 117.6(8) . . ?
C5B C4 C7B 99.7(13) . . ?
C4 C7B H7B 119.5 . . ?
C8B C7B C4 121(2) . . ?
C8B C7B H7B 119.5 . . ?
C7B C8B H8B 115.5 . . ?
C7B C8B C9 129(2) . . ?
C9 C8B H8B 115.5 . . ?
C10B C11B H11B 118.3 . . ?
C10B C11B C12 123.3(11) . . ?
C12 C11B H11B 118.3 . . ?
C11B C10B H10B 120.7 . . ?
C11B C10B C9 118.6(10) . . ?
C9 C10B H10B 120.7 . . ?
C10A C9 C8A 125.3(6) . . ?
C10A C9 C14A 117.6(6) . . ?
C14A C9 C8A 117.2(6) . . ?
C10B C9 C8B 101.4(13) . . ?
C10B C9 C14B 116.3(7) . . ?
C14B C9 C8B 138.7(18) . . ?
C9 C14B H14B 119.6 . . ?
C13B C14B C9 120.7(11) . . ?
C13B C14B H14B 119.6 . . ?
C14B C13B H13B 118.7 . . ?
C14B C13B C12 122.7(12) . . ?
C12 C13B H13B 118.7 . . ?
N2 C12 C11A 122.3(5) . . ?
N2 C12 C13A 121.4(5) . . ?
N2 C12 C11B 121.6(6) . . ?
N2 C12 C13B 120.1(6) . . ?
C11A C12 C13A 116.3(6) . . ?
C13B C12 C11B 118.3(8) . . ?
N2 C15B H15D 109.5 . . ?
N2 C15B H15E 109.5 . . ?
N2 C15B H15F 109.5 . . ?
H15D C15B H15E 109.5 . . ?
H15D C15B H15F 109.5 . . ?
H15E C15B H15F 109.5 . . ?
N2 C16B H16D 109.5 . . ?
N2 C16B H16E 109.5 . . ?
N2 C16B H16F 109.5 . . ?
H16D C16B H16E 109.5 . . ?
H16D C16B H16F 109.5 . . ?
H16E C16B H16F 109.5 . . ?
loop_
_geom_bond_atom_site_label_1
_geom_bond_atom_site_label_2
_geom_bond_distance
_geom_bond_site_symmetry_2
_geom_bond_publ_flag
N1 O1A 1.233(10) . ?
N1 O2A 1.209(10) . ?
N1 O1B 1.294(14) . ?
N1 O2B 1.168(14) . ?
N1 C1 1.460(4) . ?
N2 C15A 1.439(12) . ?
N2 C16A 1.451(14) . ?
N2 C12 1.379(4) . ?
N2 C15B 1.440(15) . ?
N2 C16B 1.453(17) . ?
C2A H2A 0.9300 . ?
C2A C3A 1.342(13) . ?
C2A C1 1.357(10) . ?
C3A H3A 0.9300 . ?
C3A C4 1.440(9) . ?
C5A H5A 0.9300 . ?
C5A C6A 1.388(13) . ?
C5A C4 1.435(11) . ?
C6A H6A 0.9300 . ?
C6A C1 1.399(9) . ?
C7A H7A 0.9300 . ?
C7A C8A 1.304(7) . ?
C7A C4 1.467(6) . ?
C8A H8A 0.9300 . ?
C8A C9 1.436(6) . ?
C10A H10A 0.9300 . ?
C10A C11A 1.421(12) . ?
C10A C9 1.342(10) . ?
C11A H11A 0.9300 . ?
C11A C12 1.397(9) . ?
C13A H13A 0.9300 . ?
C13A C14A 1.408(12) . ?
C13A C12 1.422(10) . ?
C14A H14A 0.9300 . ?
C14A C9 1.351(10) . ?
C15A H15A 0.9600 . ?
C15A H15B 0.9600 . ?
C15A H15C 0.9600 . ?
C16A H16A 0.9600 . ?
C16A H16B 0.9600 . ?
C16A H16C 0.9600 . ?
C3B H3B 0.9300 . ?
C3B C2B 1.420(14) . ?
C3B C4 1.352(16) . ?
C2B H2B 0.9300 . ?
C2B C1 1.378(14) . ?
C1 C6B 1.385(16) . ?
C6B H6B 0.9300 . ?
C6B C5B 1.441(13) . ?
C5B H5B 0.9300 . ?
C5B C4 1.326(14) . ?
C4 C7B 1.474(16) . ?
C7B H7B 0.9300 . ?
C7B C8B 1.28(2) . ?
C8B H8B 0.9300 . ?
C8B C9 1.492(17) . ?
C11B H11B 0.9300 . ?
C11B C10B 1.370(15) . ?
C11B C12 1.406(14) . ?
C10B H10B 0.9300 . ?
C10B C9 1.482(12) . ?
C9 C14B 1.483(14) . ?
C14B H14B 0.9300 . ?
C14B C13B 1.338(16) . ?
C13B H13B 0.9300 . ?
C13B C12 1.405(14) . ?
C15B H15D 0.9600 . ?
C15B H15E 0.9600 . ?
C15B H15F 0.9600 . ?
C16B H16D 0.9600 . ?
C16B H16E 0.9600 . ?
C16B H16F 0.9600 . ?
loop_
_geom_torsion_atom_site_label_1
_geom_torsion_atom_site_label_2
_geom_torsion_atom_site_label_3
_geom_torsion_atom_site_label_4
_geom_torsion
_geom_torsion_site_symmetry_1
_geom_torsion_site_symmetry_2
_geom_torsion_site_symmetry_3
_geom_torsion_site_symmetry_4
_geom_torsion_publ_flag
N1 C1 C6B C5B -178.9(9) . . . . ?
O1A N1 C1 C2A -176.3(9) . . . . ?
O1A N1 C1 C6A 1.1(10) . . . . ?
O2A N1 C1 C2A 3.2(11) . . . . ?
O2A N1 C1 C6A -179.3(10) . . . . ?
C2A C3A C4 C5A 1.2(11) . . . . ?
C2A C3A C4 C7A -179.8(8) . . . . ?
C3A C2A C1 N1 179.5(7) . . . . ?
C3A C2A C1 C6A 2.1(12) . . . . ?
C5A C6A C1 N1 179.6(6) . . . . ?
C5A C6A C1 C2A -3.0(11) . . . . ?
C6A C5A C4 C3A -2.2(11) . . . . ?
C6A C5A C4 C7A 179.0(8) . . . . ?
C7A C8A C9 C10A -20.0(13) . . . . ?
C7A C8A C9 C14A 161.9(8) . . . . ?
C8A C7A C4 C3A -161.0(8) . . . . ?
C8A C7A C4 C5A 17.8(14) . . . . ?
C10A C11A C12 N2 179.3(6) . . . . ?
C10A C11A C12 C13A -0.7(10) . . . . ?
C11A C10A C9 C8A -179.5(8) . . . . ?
C11A C10A C9 C14A -1.5(11) . . . . ?
C13A C14A C9 C8A -179.6(8) . . . . ?
C13A C14A C9 C10A 2.2(11) . . . . ?
C14A C13A C12 N2 -178.5(7) . . . . ?
C14A C13A C12 C11A 1.5(11) . . . . ?
C15A N2 C12 C11A 166.8(8) . . . . ?
C15A N2 C12 C13A -13.2(10) . . . . ?
C16A N2 C12 C11A 8.0(14) . . . . ?
C16A N2 C12 C13A -172.0(12) . . . . ?
O1B N1 C1 C2B 172.1(10) . . . . ?
O1B N1 C1 C6B -7.7(11) . . . . ?
O2B N1 C1 C2B 3.0(13) . . . . ?
O2B N1 C1 C6B -176.8(11) . . . . ?
C3B C2B C1 N1 178.6(9) . . . . ?
C3B C2B C1 C6B -1.7(16) . . . . ?
C3B C4 C7B C8B -80(4) . . . . ?
C2B C3B C4 C5B -4.9(17) . . . . ?
C2B C3B C4 C7B -148(2) . . . . ?
C2B C1 C6B C5B 1.4(15) . . . . ?
C1 C2A C3A C4 -1.2(12) . . . . ?
C1 C6B C5B C4 -2.9(17) . . . . ?
C6B C5B C4 C3B 4.6(17) . . . . ?
C6B C5B C4 C7B 159(2) . . . . ?
C5B C4 C7B C8B 133(3) . . . . ?
C4 C5A C6A C1 3.1(11) . . . . ?
C4 C7A C8A C9 -177.5(11) . . . . ?
C4 C3B C2B C1 3.5(18) . . . . ?
C4 C7B C8B C9 -178(4) . . . . ?
C7B C8B C9 C10B -135(4) . . . . ?
C7B C8B C9 C14B 69(6) . . . . ?
C8B C9 C14B C13B 155(3) . . . . ?
C11B C10B C9 C8B -165(2) . . . . ?
C11B C10B C9 C14B -2.4(17) . . . . ?
C10B C11B C12 N2 -179.5(11) . . . . ?
C10B C11B C12 C13B 2.3(18) . . . . ?
C10B C9 C14B C13B 1.8(17) . . . . ?
C9 C10A C11A C12 0.8(12) . . . . ?
C9 C14B C13B C12 1(2) . . . . ?
C14B C13B C12 N2 178.9(12) . . . . ?
C14B C13B C12 C11B -2.9(19) . . . . ?
C12 C13A C14A C9 -2.3(12) . . . . ?
C12 C11B C10B C9 0(2) . . . . ?
C15B N2 C12 C11B -162.6(12) . . . . ?
C15B N2 C12 C13B 15.6(13) . . . . ?
C16B N2 C12 C11B -15.0(15) . . . . ?
C16B N2 C12 C13B 163.2(14) . . . . ?
loop_
_exptl_oxdiff_crystal_face_indexfrac_h
_exptl_oxdiff_crystal_face_indexfrac_k
_exptl_oxdiff_crystal_face_indexfrac_l
_exptl_oxdiff_crystal_face_x
_exptl_oxdiff_crystal_face_y
_exptl_oxdiff_crystal_face_z
-0.0061 -0.9972 -5.8840 0.1178 -0.1216 -0.6062
-2.9998 -1.0027 -2.3350 0.5547 -0.6510 -0.1521
0.0061 0.9972 5.8840 -0.1178 0.1216 0.6062
2.9998 1.0027 2.3350 -0.5547 0.6510 0.1521
-0.0006 -0.9999 0.0344 0.1770 0.0973 -0.0534
0.0006 0.9999 -0.0344 -0.1770 -0.0973 0.0534
loop_
_hkl_oxdiff_h
_hkl_oxdiff_k
_hkl_oxdiff_l
_hkl_oxdiff_f2
_hkl_oxdiff_sig
_hkl_oxdiff_ba
0 -8 8 3669.70 231.486 10
0 -7 11 1747.39 200.813 6
0 -7 12 34.0762 108.177 10
0 -6 12 134.208 154.198 6
0 -6 13 548.761 190.266 10
0 -6 13 336.802 152.811 6
0 -6 14 2678.09 247.951 10
0 -5 12 572.803 219.653 6
0 -5 13 -98.9223 178.099 6
0 -5 14 -53.1347 150.906 6
0 -5 14 137.809 184.484 10
0 -5 15 49.4268 123.754 6
0 -5 15 104.646 129.612 10
0 -5 16 2625.79 213.142 10
0 -4 5 59523.5 3570.29 2
0 -4 6 2022.17 792.294 2
0 -4 7 1190.75 622.605 2
0 -4 8 35211.5 3297.78 2
0 -4 9 7116.11 1616.43 2
0 -4 10 1386.68 984.882 2
0 -4 12 951.630 292.849 6
0 -4 13 5219.52 518.776 6
0 -4 14 4961.31 457.450 6
0 -4 14 4920.99 482.254 10
0 -4 15 10898.6 607.622 10
0 -4 15 10278.8 579.486 6
0 -4 16 5110.02 364.794 10
0 -4 16 4660.93 338.598 6
0 -3 2 3915.42 789.560 2
0 -3 3 1128.23 603.669 2
0 -3 4 2292.96 821.480 2
0 -3 5 7748.79 1366.51 2
0 -3 6 6607.11 1287.38 2
0 -3 7 2669.93 904.762 2
0 -3 8 4820.23 1385.98 2
0 -3 9 793.597 673.426 2
0 -3 10 2107.00 925.025 2
0 -3 11 6765.23 1933.02 2
0 -3 12 316.084 254.115 6
0 -3 13 4020.91 516.067 6
0 -3 14 294.904 222.305 6
0 -3 14 531.548 257.226 10
0 -3 15 33.0717 217.068 6
0 -3 15 -3.75749 175.512 10
0 -3 16 530.516 209.526 6
0 -3 16 645.727 220.696 10
0 -3 17 34.7357 126.713 10
0 -3 17 55.3163 165.069 6
0 -2 1 33617.1 1461.10 2
0 -2 2 38963.5 1765.48 2
0 -2 3 71172.7 2647.74 2
0 -2 4 41499.3 2230.06 2
0 -2 5 6945.55 1049.45 2
0 -2 6 3682.59 926.442 2
0 -2 7 12759.5 1647.19 2
0 -2 8 140254. 5663.52 2
0 -2 9 10941.4 1781.91 2
0 -2 10 -600.348 664.739 2
0 -2 11 133803. 2344.64 6
0 -2 11 117420. 6264.98 2
0 -2 12 6899.23 1641.17 2
0 -2 12 7922.95 616.999 6
0 -2 13 73160.3 1847.21 6
0 -2 14 4449.00 486.625 10
0 -2 14 3830.04 460.144 6
0 -2 15 3524.63 419.645 10
0 -2 15 3406.40 439.958 6
0 -2 16 2.74391 208.187 6
0 -2 16 261.345 184.461 10
0 -2 17 326.781 187.938 6
0 -2 18 802.063 184.649 6
0 -1 0 -28.8260 121.937 2
0 -1 1 2942.99 374.531 2
0 -1 2 2772.82 468.468 2
0 -1 3 1034.43 444.399 2
0 -1 4 6444.22 856.103 2
0 -1 5 21751.7 1652.08 2
0 -1 6 29949.7 2085.51 2
0 -1 7 15504.9 1661.70 2
0 -1 8 1995.07 864.665 2
0 -1 9 -333.582 614.583 2
0 -1 10 -28.4977 560.249 2
0 -1 11 8096.80 1602.82 2
0 -1 12 462.238 256.060 6
0 -1 12 -357.584 856.019 2
0 -1 12 71.8780 191.527 10
0 -1 13 10807.9 676.323 10
0 -1 13 11323.3 753.145 6
0 -1 13 8848.50 1839.64 2
0 -1 14 9713.18 704.040 6
0 -1 15 2706.24 406.880 6
0 -1 16 1855.50 333.596 6
0 -1 17 379.066 211.687 6
0 -1 18 -15.7621 165.941 6
0 0 1 17612.4 564.423 1
0 0 1 18377.6 561.728 2
0 0 2 358359. 3622.25 1
0 0 2 359722. 3512.41 2
0 0 3 24818.4 1198.14 1
0 0 3 26672.1 1196.21 2
0 0 4 280322. 4467.46 2
0 0 4 270410. 4649.84 1
0 0 5 259934. 4967.18 2
0 0 5 268382. 5158.87 1
0 0 6 45297.5 2330.53 2
0 0 6 44967.3 2390.02 1
0 0 7 20719.2 1798.67 2
0 0 7 21483.9 1849.94 1
0 0 8 228297. 6298.82 2
0 0 9 1869.77 784.067 2
0 0 10 5623.90 1184.05 2
0 0 11 145915. 6310.15 2
0 0 12 13860.3 2132.04 2
0 0 12 16940.8 862.909 6
0 0 13 133720. 2452.33 6
0 0 14 3029.69 438.375 6
0 0 15 986.629 305.926 6
0 0 16 3615.64 430.441 6
0 0 17 7.68861 242.722 6
0 0 18 561.215 212.005 6
0 0 19 16595.7 545.697 6
0 1 0 -70.6907 169.146 3
0 1 1 2969.52 209.068 4
0 1 -1 2889.50 365.679 3
0 1 1 2924.60 389.719 3
0 1 -2 2704.42 376.834 3
0 1 2 3012.92 297.121 2
0 1 2 3380.31 448.912 3
0 1 3 722.955 328.024 3
0 1 -3 621.725 251.352 3
0 1 3 728.198 255.145 2
0 1 4 5487.55 763.097 1
0 1 4 5618.55 603.472 2
0 1 4 5658.61 666.135 3
0 1 -4 5321.66 502.108 3
0 1 5 21949.4 1319.53 2
0 1 5 22270.8 1580.88 1
0 1 -5 19447.8 886.019 3
0 1 5 19285.0 1256.84 3
0 1 -6 23810.3 995.025 3
0 1 6 28810.9 1982.95 1
0 1 6 29659.1 1732.85 2
0 1 7 16085.7 1690.33 1
0 1 7 14469.0 1367.03 2
0 1 8 1183.98 624.229 2
0 1 8 2001.89 916.046 1
0 1 9 -419.223 502.996 2
0 1 9 -389.856 481.256 1
0 1 10 168.799 488.241 1
0 1 10 182.342 420.714 2
0 1 12 76.5940 227.150 6
0 1 13 11144.3 743.766 6
0 1 14 9564.45 690.952 6
0 1 15 2440.87 405.821 6
0 1 16 2195.72 379.676 6
0 1 17 460.386 235.169 6
0 1 18 -167.962 209.109 6
0 1 19 6315.66 351.996 6
0 2 1 31258.7 1721.06 3
0 2 -1 33545.3 1685.27 3
0 2 1 32968.9 1019.08 4
0 2 -2 37836.8 1785.79 3
0 2 2 37808.5 813.790 4
0 2 2 38603.8 1925.98 3
0 2 3 70632.3 1548.87 2
0 2 -3 69963.4 2417.38 3
0 2 3 68811.7 2746.75 3
0 2 -4 41542.9 1867.46 3
0 2 4 42413.5 2237.85 3
0 2 4 41541.6 1375.46 2
0 2 5 6743.80 663.607 2
0 2 5 7504.35 1085.34 3
0 2 5 6496.96 1048.54 1
0 2 -5 7133.40 803.102 3
0 2 6 3920.98 942.973 1
0 2 6 2708.69 502.130 2
0 2 -6 2913.06 501.444 3
0 2 6 3056.73 703.104 3
0 2 7 13348.0 1454.72 3
0 2 7 13769.4 1645.41 1
0 2 8 151027. 5748.70 1
0 2 9 8871.78 1582.12 1
0 2 10 -27.3075 458.474 1
0 2 11 122831. 2151.99 8
0 2 11 125476. 2236.10 6
0 2 11 122947. 6448.10 1
0 2 12 8751.96 1759.65 1
0 2 12 7077.23 560.717 8
0 2 12 7070.29 599.836 6
0 2 13 72542.5 1660.34 8
0 2 13 71917.0 1807.46 6
0 2 14 3974.66 489.783 6
0 2 15 4061.16 495.226 6
0 2 16 -118.912 280.222 6
0 2 17 406.356 277.668 6
0 2 18 1147.15 274.328 6
0 3 0 -48.3476 394.057 3
0 3 0 -210.682 258.868 4
0 3 1 -32.8660 171.411 4
0 3 1 -341.979 419.086 3
0 3 -1 -61.2619 372.236 3
0 3 -1 184.168 275.374 4
0 3 -2 5179.40 973.210 3
0 3 2 5053.09 965.068 3
0 3 -3 1561.61 685.108 3
0 3 3 836.763 620.751 3
0 3 4 1643.42 706.508 3
0 3 -4 2289.81 658.401 3
0 3 -5 6767.11 1030.23 3
0 3 5 7746.21 1339.01 3
0 3 6 7765.60 1328.26 1
0 3 6 8804.35 1389.79 3
0 3 -6 7341.63 995.092 3
0 3 7 3870.06 1097.36 1
0 3 7 2789.40 880.311 3
0 3 8 5040.34 1514.52 1
0 3 8 4320.31 1105.89 3
0 3 9 1996.11 739.097 1
0 3 10 1117.11 527.011 1
0 3 10 1709.46 361.101 6
0 3 10 1420.61 280.793 5
0 3 10 1578.79 348.484 8
0 3 11 6861.49 692.886 6
0 3 11 6474.34 667.567 8
0 3 11 6268.49 1768.35 1
0 3 11 6234.51 654.725 5
0 3 12 396.269 311.143 6
0 3 12 437.575 287.471 8
0 3 13 2384.72 453.984 6
0 3 13 2942.79 422.180 8
0 3 14 586.550 249.575 8
0 3 14 328.891 337.261 6
0 3 15 -143.350 330.259 6
0 3 15 1.88265 181.363 8
0 3 16 718.018 331.789 6
0 4 0 18801.7 2010.59 3
0 4 1 6234.61 1208.67 3
0 4 -1 5554.01 841.351 4
0 4 -1 8605.54 1358.91 3
0 4 2 21164.9 2182.57 3
0 4 -2 22552.8 2081.14 3
0 4 -2 20397.6 1768.98 4
0 4 -3 129845. 4665.92 4
0 4 3 132635. 5556.19 3
0 4 -3 143958. 5269.41 3
0 4 -4 -161.877 508.190 3
0 4 4 400.852 422.938 3
0 4 5 57557.2 3890.59 3
0 4 -5 64836.2 3477.32 3
0 4 6 2653.38 948.325 3
0 4 7 1860.86 801.247 1
0 4 7 1509.37 675.184 3
0 4 8 38029.1 1230.72 8
0 4 8 40216.6 1267.27 6
0 4 8 37073.9 3422.87 1
0 4 8 38001.9 1182.01 5
0 4 8 36644.8 3290.51 3
0 4 9 7839.62 1780.18 1
0 4 9 7208.35 583.631 8
0 4 9 8078.12 651.128 6
0 4 9 7498.26 557.169 5
0 4 -9 8080.67 575.569 13
0 4 10 1539.39 917.526 1
0 4 10 1084.65 299.858 8
0 4 -10 1120.08 288.679 13
0 4 10 1030.30 422.373 6
0 4 10 1130.00 282.372 5
0 4 11 55216.7 1573.95 5
0 4 11 60035.3 1667.24 8
0 4 11 59676.7 1660.62 6
0 4 12 397.865 415.944 6
0 4 12 743.050 292.541 8
0 4 13 4945.81 504.573 8
0 4 13 4874.93 590.813 6
0 4 14 4236.03 426.725 8
0 4 15 10154.6 553.216 8
0 4 16 4622.53 322.651 8
0 5 0 -240.459 465.749 3
0 5 -1 3219.63 1049.97 3
0 5 1 3462.10 1109.85 3
0 5 2 1195.12 730.616 3
0 5 -2 1742.36 770.700 3
0 5 -3 4253.79 1200.03 3
0 5 3 3616.53 1113.05 3
0 5 4 973.072 656.152 3
0 5 -4 1192.46 739.492 3
0 5 5 690.729 801.034 3
0 5 -5 544.160 272.666 13
0 5 5 346.734 259.758 5
0 5 -6 -337.252 536.086 4
0 5 6 22.4198 197.777 5
0 5 -6 -93.9183 229.324 13
0 5 6 707.361 453.224 3
0 5 6 -122.148 283.560 8
0 5 7 -153.670 205.559 8
0 5 7 282.814 595.672 3
0 5 -7 -450.949 257.859 13
0 5 7 -625.655 948.023 1
0 5 -7 -445.121 526.451 4
0 5 7 109.554 226.290 5
0 5 8 1437.04 847.009 3
0 5 8 2874.45 1156.07 1
0 5 8 1961.67 359.450 5
0 5 -8 2121.81 365.818 13
0 5 -8 1041.11 718.083 4
0 5 8 2236.32 387.236 8
0 5 9 1200.45 317.109 8
0 5 9 877.268 265.591 5
0 5 -9 1331.44 294.472 13
0 5 10 682.424 289.732 5
0 5 -10 551.862 245.226 13
0 5 10 638.332 276.823 8
0 5 11 2064.02 387.072 5
0 5 11 2628.44 426.020 8
0 5 -11 2473.31 368.993 13
0 5 12 1095.62 327.861 8
0 5 13 141.754 184.367 8
0 5 14 -59.9931 156.474 8
0 5 15 36.6568 127.027 8
0 6 0 15712.3 791.470 13
0 6 0 17164.5 2569.39 3
0 6 -1 648.839 848.590 3
0 6 1 1637.90 368.336 5
0 6 -1 366.142 287.188 13
0 6 1 8.80853 653.280 3
0 6 1 -3.63785 240.445 13
0 6 -2 20239.6 2670.19 3
0 6 -2 19484.1 874.872 13
0 6 2 21355.6 2864.54 3
0 6 2 20785.1 919.220 5
0 6 3 84426.8 1855.26 5
0 6 3 88481.5 5944.50 3
0 6 -3 80788.1 5243.01 3
0 6 -3 81596.3 1809.86 13
0 6 -4 782.889 388.798 13
0 6 4 1153.23 359.658 5
0 6 4 1225.21 339.787 8
0 6 4 184.289 630.016 3
0 6 5 39655.0 1220.21 8
0 6 -5 35235.6 1242.55 13
0 6 5 36478.3 1261.18 5
0 6 6 298.021 226.129 8
0 6 -6 495.794 276.692 13
0 6 6 37.4138 189.766 5
0 6 -7 218.975 209.498 13
0 6 7 275.674 236.800 8
0 6 7 197.719 234.595 5
0 6 -8 6778.46 562.324 13
0 6 8 7234.27 579.926 5
0 6 8 7446.97 569.423 8
0 6 9 530.731 241.243 5
0 6 -9 612.965 249.091 13
0 6 9 496.284 235.634 8
0 6 -10 -333.195 217.395 13
0 6 10 -35.1583 193.729 8
0 6 10 45.8310 167.779 5
0 6 11 21006.3 876.054 5
0 6 11 22593.6 895.739 8
0 6 -11 21867.4 806.563 13
0 6 -12 -40.8615 143.182 13
0 6 12 -68.0565 175.800 8
0 6 13 478.605 173.504 8
0 6 14 2763.29 245.682 8
0 7 0 182.319 228.449 5
0 7 0 95.4762 192.004 13
0 7 -1 303.583 200.379 5
0 7 1 844.861 248.942 13
0 7 -1 373.781 219.115 13
0 7 1 190.198 186.809 5
0 7 -2 1896.00 321.413 13
0 7 -2 1961.97 327.740 5
0 7 2 2014.60 348.821 5
0 7 -3 2418.37 338.669 5
0 7 -3 2237.53 365.529 13
0 7 3 2664.23 391.073 5
0 7 4 53.9228 187.694 5
0 7 -4 54.4111 211.030 13
0 7 -5 1046.63 298.942 13
0 7 5 1188.19 353.508 5
0 7 -6 792.880 245.491 13
0 7 6 746.895 237.040 5
0 7 6 629.813 223.883 8
0 7 7 185.000 198.831 5
0 7 7 -297.220 183.459 8
0 7 -7 -261.977 192.816 13
0 7 -8 402.447 202.936 13
0 7 8 484.994 206.198 5
0 7 8 313.682 171.156 8
0 7 -9 90.8130 190.270 13
0 7 9 168.310 160.330 5
0 7 9 -95.7925 165.755 8
0 7 -10 196.787 142.571 13
0 7 10 259.092 152.749 8
0 7 10 388.637 159.806 5
0 7 -11 2055.39 245.931 13
0 7 11 1754.79 223.462 8
0 7 12 233.613 118.465 8
0 8 0 2537.38 299.237 5
0 8 0 2624.39 276.021 13
0 8 1 1190.30 221.089 5
0 8 -1 1205.28 224.414 13
0 8 -1 1306.23 240.731 5
0 8 -2 377.128 161.189 5
0 8 -2 453.117 185.634 13
0 8 2 391.790 172.548 5
0 8 3 18578.8 737.097 5
0 8 -3 17369.8 708.505 13
0 8 -3 18159.1 687.567 5
0 8 -4 869.053 233.423 13
0 8 4 1156.52 268.477 5
0 8 -4 1437.58 226.756 5
0 8 -5 4940.86 382.075 13
0 8 5 5962.11 420.025 5
0 8 -5 4975.40 323.128 5
0 8 6 1613.71 234.661 5
0 8 -6 1194.11 220.690 13
0 8 -7 117.140 134.573 13
0 8 7 295.537 135.890 5
0 8 8 4673.75 314.856 5
0 8 -8 4151.53 289.182 13
0 8 -9 164.704 98.1936 13
0 9 0 -21.4549 108.582 5
0 9 1 292.461 102.379 5
0 9 -1 335.783 94.6710 5
0 9 2 513.718 115.799 5
0 9 3 507.032 120.468 5
0 9 4 281.601 93.9307 5
-1 -7 12 32016.8 729.418 6
1 -7 9 35825.6 944.818 10
1 -7 10 820.095 185.300 10
1 -7 11 1777.92 197.518 10
-1 -6 14 -4.76128 113.548 6
-1 -6 14 -17.1316 113.315 10
-1 -6 13 178.646 168.112 6
1 -6 11 310.503 193.544 10
1 -6 12 364.442 177.864 10
1 -6 13 90.6068 133.364 10
1 -6 14 258.472 111.803 10
-1 -5 16 659.497 137.852 6
-1 -5 15 519.174 173.577 6
-1 -5 15 375.863 153.075 10
-1 -5 14 5584.57 460.418 6
-1 -5 13 1170.45 258.338 6
1 -5 11 1504.33 259.470 6
1 -5 12 358.488 182.206 6
1 -5 12 452.877 239.606 10
1 -5 13 275.578 201.459 10
1 -5 14 8539.69 505.595 10
1 -5 15 7409.93 400.041 10
-1 -4 17 202.963 128.533 6
-1 -4 16 374.729 144.964 10
-1 -4 16 222.727 153.951 6
-1 -4 15 2166.24 327.164 6
-1 -4 15 1828.04 292.398 10
-1 -4 14 269.916 234.032 6
-1 -4 13 334.305 267.492 6
-1 -4 10 5277.61 479.386 12
-1 -4 9 270.254 357.944 12
-1 -4 9 260.323 236.863 7
-1 -4 8 428.753 255.382 7
-1 -4 8 40.3064 155.253 12
1 -4 3 726.414 544.319 2
1 -4 4 4526.09 1046.39 2
1 -4 5 -61.6624 493.104 2
1 -4 6 3907.20 1066.88 2
1 -4 7 3719.31 1167.19 2
1 -4 8 -151.189 578.911 2
1 -4 9 1594.71 891.391 2
1 -4 11 369.535 244.568 6
1 -4 12 850.182 251.269 6
1 -4 13 141.255 221.754 10
1 -4 13 519.849 214.767 6
1 -4 14 110.992 203.822 10
1 -4 14 502.888 201.534 6
1 -4 15 621.725 220.809 10
1 -4 16 148.494 125.114 10
-1 -3 18 7322.61 361.395 6
-1 -3 17 -172.376 162.882 6
-1 -3 16 702.162 236.920 6
-1 -3 15 4853.50 455.403 10
-1 -3 15 5005.84 497.838 6
-1 -3 14 11997.5 797.754 6
-1 -3 13 5843.97 502.281 7
-1 -3 13 6606.13 599.142 6
-1 -3 12 48844.7 1398.78 7
-1 -3 11 10230.9 686.169 7
-1 -3 10 47783.2 1350.63 7
-1 -3 10 45812.5 1276.43 12
1 -3 0 24766.6 1214.66 2
1 -3 1 721805. 7781.49 2
1 -3 2 48622.9 2294.98 2
1 -3 3 656.507 505.076 2
1 -3 4 97237.1 3834.80 2
1 -3 5 -291.259 501.868 2
1 -3 6 24078.9 2264.88 2
1 -3 7 172.724 543.338 2
1 -3 8 -75.2553 602.334 2
1 -3 9 43957.5 3746.14 2
1 -3 10 2507.97 351.934 6
1 -3 10 2939.54 1199.42 2
1 -3 11 2778.09 371.090 6
1 -3 11 2942.33 1232.77 2
1 -3 12 77940.4 1787.96 6
1 -3 12 79266.3 1932.31 10
1 -3 13 26.7412 222.103 10
1 -3 13 219.252 219.430 6
1 -3 14 6125.92 557.171 10
1 -3 14 5372.72 466.706 6
1 -3 15 2249.88 297.244 6
1 -3 15 2075.46 323.773 10
1 -3 16 121.978 163.240 10
1 -3 16 148.634 150.529 6
1 -3 17 1552.89 197.878 10
-1 -2 18 781.823 205.569 6
-1 -2 17 -126.817 218.684 6
-1 -2 16 269.377 216.657 6
-1 -2 15 6074.33 572.160 6
-1 -2 14 935.143 331.588 6
-1 -2 13 398.720 257.510 6
-1 -2 12 2657.09 449.195 6
-1 -2 11 302.058 243.045 7
-1 -2 10 2469.87 1051.85 2
-1 -2 9 1855.36 759.139 2
-1 -2 8 -391.253 597.698 2
-1 -2 7 186.977 441.430 2
-1 -2 6 13879.8 1657.79 2
-1 -2 5 6403.93 1028.05 2
1 -2 -1 15644.7 669.685 2
1 -2 0 6447.32 626.801 2
1 -2 1 153450. 3673.60 2
1 -2 2 36409.5 1737.15 2
1 -2 3 7318.03 931.593 2
1 -2 4 3930.38 986.348 2
1 -2 5 2336.70 800.197 2
1 -2 6 7179.08 1373.45 2
1 -2 7 1178.11 710.124 2
1 -2 8 -2.26638 509.633 2
1 -2 9 1856.27 916.971 2
1 -2 10 950.784 802.915 2
1 -2 11 585.549 674.395 2
1 -2 11 2011.88 323.349 6
1 -2 12 38203.7 1260.37 6
1 -2 12 37071.5 3826.68 2
1 -2 12 36065.5 1318.18 10
1 -2 13 2071.95 341.485 6
1 -2 13 1882.47 348.097 10
1 -2 14 2030.08 348.693 6
1 -2 14 1906.30 371.896 10
1 -2 15 1445.35 279.993 6
1 -2 15 1833.27 321.477 10
1 -2 16 1101.50 255.361 10
1 -2 16 1010.87 246.400 6
1 -2 17 560.242 162.221 10
1 -2 17 685.794 177.716 6
-1 -1 19 3301.09 265.242 6
-1 -1 18 5123.39 408.893 6
-1 -1 17 232.167 197.292 6
-1 -1 16 1465.85 338.828 6
-1 -1 15 17582.2 934.842 6
-1 -1 14 8240.14 664.350 6
-1 -1 13 1181.55 321.569 6
-1 -1 12 823.506 261.541 6
-1 -1 11 1577.06 831.372 2
-1 -1 10 2053.13 897.642 2
1 -1 -9 12471.9 1469.24 4
-1 -1 9 11324.2 1689.76 2
1 -1 -8 43407.8 2402.84 4
-1 -1 8 42454.4 2961.19 2
-1 -1 7 986572. 12897.2 2
1 -1 -7 999999. 10542.5 4
-1 -1 6 79618.1 3416.02 2
1 -1 -6 82119.3 2752.16 4
-1 -1 5 89975.2 3372.38 2
1 -1 -5 94551.3 2614.22 4
-1 -1 4 368201. 6231.13 2
1 -1 -4 369738. 4603.43 4
1 -1 -3 310351. 3580.29 4
1 -1 -2 90463.7 1824.52 4
1 -1 -1 342977. 3592.74 4
1 -1 0 3366.49 447.640 4
1 -1 0 3668.59 428.542 2
1 -1 2 40258.1 1695.19 2
1 -1 3 12366.2 1081.27 2
1 -1 4 353716. 6334.11 2
1 -1 5 -223.679 408.206 2
1 -1 6 77363.2 3525.48 2
1 -1 7 18283.7 1875.14 2
1 -1 8 7352.29 1349.39 2
1 -1 9 2473.41 924.274 2
1 -1 10 3647.38 1167.13 2
1 -1 11 21313.7 948.229 10
1 -1 11 21162.4 909.646 6
1 -1 11 18745.5 2567.26 2
1 -1 12 388124. 4078.25 10
1 -1 12 374755. 11814.8 2
1 -1 12 389337. 3967.73 6
1 -1 13 3650.89 464.849 6
1 -1 13 3809.90 484.577 10
1 -1 14 94087.1 2007.47 10
1 -1 14 91676.4 1960.78 6
1 -1 15 4.44284 209.191 6
1 -1 15 326.732 210.677 10
1 -1 16 1215.48 272.481 6
1 -1 16 1112.63 244.727 10
1 -1 17 1608.26 270.785 6
-1 0 19 2752.00 269.859 6
-1 0 18 2113.18 314.720 6
-1 0 17 -54.3963 204.871 6
-1 0 16 -21.4323 214.425 6
-1 0 15 6465.05 577.977 6
-1 0 14 1210.80 328.855 6
-1 0 13 585.282 278.012 6
-1 0 12 -6.40791 210.386 6
1 0 -12 672.118 581.970 4
1 0 -11 608.544 560.336 4
-1 0 11 836.410 609.835 2
-1 0 10 8128.93 1427.96 2
-1 0 9 4052.87 950.175 2
-1 0 9 3648.29 1013.54 1
-1 0 8 4177.08 985.222 1
-1 0 8 4376.88 869.592 2
-1 0 7 4287.22 887.558 1
-1 0 7 3532.58 851.126 2
-1 0 6 22486.9 1703.01 1
-1 0 6 21703.1 1621.48 2
-1 0 5 19552.5 1400.62 1
-1 0 5 20588.6 1426.21 2
-1 0 4 6169.95 742.107 1
-1 0 4 6789.30 775.464 2
1 0 -4 6481.98 745.820 4
1 0 -3 146.257 241.440 4
-1 0 3 187.704 285.583 1
-1 0 2 4907.99 470.259 1
1 0 -2 4943.02 596.614 4
1 0 -1 6612.50 639.682 4
1 0 0 101.285 209.372 4
1 0 1 13027.6 890.411 4
1 0 2 17948.9 1156.40 4
1 0 3 6213.10 746.164 2
1 0 4 1278.14 493.688 2
1 0 5 8775.25 1091.93 2
1 0 6 21820.8 1806.69 2
1 0 7 19121.7 1830.91 2
1 0 8 3072.28 861.633 2
1 0 9 -56.4465 402.035 2
1 0 10 2591.27 1038.55 2
1 0 11 11650.6 1977.44 2
1 0 11 14381.4 749.598 6
1 0 12 102352. 2044.62 6
1 0 12 101828. 2011.59 10
1 0 12 96090.0 5786.66 2
1 0 13 7701.82 598.496 10
1 0 13 7088.28 585.182 6
1 0 14 9526.02 672.933 6
1 0 15 4286.78 458.295 6
1 0 16 5023.04 462.098 6
1 0 17 5599.27 445.741 6
1 0 18 1695.83 245.154 6
-1 1 19 3488.56 289.598 6
-1 1 18 5080.04 422.742 6
-1 1 17 76.3668 214.114 6
-1 1 16 1126.13 320.086 6
-1 1 15 17040.4 894.689 6
-1 1 14 7452.31 620.182 6
-1 1 13 1000.95 299.512 6
1 1 -13 1353.94 1011.75 4
-1 1 12 302.458 223.572 6
1 1 -12 -6.38470 776.029 4
-1 1 11 729.852 670.913 1
-1 1 10 2486.15 957.914 1
-1 1 9 11915.1 1736.18 1
-1 1 9 11236.2 1373.32 2
-1 1 8 41896.4 2360.59 2
-1 1 8 42685.1 2942.73 1
-1 1 7 954182. 10137.8 2
-1 1 7 981929. 12679.0 1
-1 1 6 80284.2 3345.14 1
-1 1 6 80707.1 2311.01 3
-1 1 6 77159.6 2590.74 2
-1 1 5 89891.2 2482.33 3
-1 1 5 90826.2 3255.93 1
-1 1 4 359627. 4961.68 3
-1 1 3 306171. 4475.12 3
1 1 -3 283582. 5307.94 4
1 1 -2 81904.8 2624.79 4
1 1 -2 86364.4 2000.28 3
1 1 -1 337153. 4945.54 4
1 1 -1 345505. 4304.91 3
1 1 0 3404.16 546.445 4
1 1 0 3759.10 531.950 3
1 1 2 38536.5 1293.75 1
1 1 2 40436.6 1816.76 3
1 1 2 40515.2 1754.14 4
1 1 3 12098.9 1058.41 4
1 1 3 12383.7 903.395 1
1 1 4 348398. 6021.21 2
1 1 4 363750. 5476.41 1
1 1 5 -14.2820 355.419 2
1 1 5 -63.7279 345.829 1
1 1 6 77740.5 3336.40 2
1 1 6 80295.2 3333.69 1
1 1 7 18871.4 1824.02 2
1 1 7 21064.5 1890.74 1
1 1 8 9091.05 1360.84 2
1 1 8 8720.23 1362.64 1
1 1 9 2588.92 773.711 2
1 1 10 3861.99 1023.65 2
1 1 11 22215.3 930.703 6
1 1 11 19179.6 2409.65 2
1 1 12 391237. 4029.39 6
1 1 13 3679.99 448.781 6
1 1 14 92711.2 2013.36 6
1 1 15 121.789 250.202 6
1 1 16 1723.77 341.575 6
1 1 17 1429.70 313.246 6
1 1 18 1293.57 244.843 6
-1 2 18 709.090 249.689 6
-1 2 17 178.311 237.788 6
-1 2 16 299.627 236.709 6
-1 2 15 4666.20 512.278 6
-1 2 15 5164.31 429.352 8
-1 2 14 1056.67 253.623 8
-1 2 14 1119.66 326.638 6
-1 2 13 179.031 240.545 6
-1 2 13 577.695 263.900 8
-1 2 12 2030.14 1027.23 1
-1 2 12 2122.49 430.421 6
-1 2 12 1575.65 357.231 8
1 2 -12 92.5084 543.828 4
-1 2 11 855.831 894.863 1
1 2 -11 379.384 664.285 4
-1 2 11 415.396 239.653 6
-1 2 11 833.175 278.773 8
-1 2 10 1970.51 953.933 1
-1 2 9 2236.66 835.330 1
-1 2 8 477.348 487.857 1
-1 2 7 287.910 335.713 3
-1 2 7 529.130 584.672 1
-1 2 6 14451.6 1401.20 3
-1 2 6 14386.8 1674.66 1
1 2 -5 6637.69 625.183 3
-1 2 5 6305.18 978.763 3
1 2 -4 2011.54 533.295 3
-1 2 4 2289.25 627.267 3
1 2 -4 2680.88 890.981 4
1 2 -3 6398.18 985.461 4
1 2 -3 7080.41 827.926 3
-1 2 3 6866.86 934.406 3
1 2 -2 16608.5 1404.18 4
-1 2 2 17827.7 1438.31 3
1 2 -2 18782.4 1341.63 3
1 2 -1 18039.6 1534.55 4
-1 2 1 24073.7 1632.00 3
1 2 0 4805.74 732.626 4
-1 2 0 5378.19 843.132 3
1 2 1 107234. 3705.06 4
1 2 1 169161. 4635.08 3
1 2 2 34646.4 2019.72 3
1 2 2 34577.0 1748.10 4
-1 2 -2 35166.4 1860.97 3
1 2 3 6182.98 817.066 4
1 2 3 6920.40 1020.70 3
-1 2 -3 5925.58 863.904 3
1 2 4 3355.23 780.619 1
1 2 4 3428.65 874.972 3
1 2 4 3423.06 839.807 2
-1 2 -4 3685.25 823.009 3
1 2 5 1635.84 830.068 1
-1 2 -5 1432.35 597.006 3
1 2 5 1467.52 751.074 3
1 2 5 1948.21 654.849 2
-1 2 -6 3798.45 776.200 3
1 2 6 5548.00 1067.28 2
1 2 6 6034.82 1208.50 1
1 2 7 1218.64 550.782 2
1 2 7 724.284 506.982 1
-1 2 -7 275.673 257.957 3
1 2 8 357.683 437.740 2
1 2 8 28.8123 499.574 1
1 2 9 2735.19 1012.14 1
1 2 10 576.575 575.683 1
1 2 11 1799.07 326.284 6
1 2 11 1834.95 315.670 8
1 2 12 37497.4 1284.34 6
1 2 13 1994.84 405.164 6
1 2 14 2127.48 408.479 6
1 2 15 1737.89 377.818 6
1 2 16 990.447 311.212 6
1 2 17 574.001 299.027 6
-1 3 16 882.657 331.926 6
-1 3 16 791.662 205.504 8
-1 3 15 4610.29 461.803 8
-1 3 15 4186.24 510.979 6
-1 3 14 11776.0 767.196 6
-1 3 14 12404.2 714.871 8
-1 3 13 5510.18 553.366 6
-1 3 13 6079.79 547.621 8
-1 3 12 48746.6 1482.68 6
-1 3 12 50866.3 1489.53 8
-1 3 11 12894.9 2246.51 1
1 3 -11 10260.5 2092.35 4
-1 3 11 10414.0 707.355 6
-1 3 11 10404.6 698.772 8
-1 3 10 48895.2 1406.39 8
-1 3 10 48620.6 1363.70 6
-1 3 10 46457.6 1370.18 5
-1 3 10 50375.2 4163.09 1
1 3 -10 46969.9 4113.32 4
-1 3 9 529.842 573.164 1
1 3 -9 324.551 478.753 4
1 3 -8 3835.33 1104.79 4
-1 3 8 2729.59 931.012 1
-1 3 7 70819.6 4318.67 1
1 3 -7 66882.3 4084.80 4
-1 3 7 74644.5 3938.53 3
1 3 -6 -108.790 425.872 4
-1 3 6 -138.908 330.162 3
1 3 -5 1828.04 701.102 4
-1 3 5 1473.70 610.975 3
1 3 -5 1983.15 557.045 3
1 3 -4 15376.8 1387.38 3
-1 3 4 14806.8 1666.76 3
1 3 -4 12994.5 1536.13 4
1 3 -3 24759.7 2006.23 4
-1 3 3 28462.3 2208.33 3
1 3 -3 26683.7 1887.73 3
-1 3 2 131207. 4600.24 3
1 3 -2 132538. 4287.84 3
-1 3 1 33839.2 2333.03 3
1 3 -1 32335.2 2230.50 3
1 3 -1 31477.7 2031.21 4
1 3 0 22728.6 1648.78 4
-1 3 0 23560.7 1946.07 3
1 3 0 24996.2 1988.71 3
-1 3 -1 699029. 10345.8 3
1 3 1 682045. 10685.6 3
-1 3 -2 48356.7 2732.92 3
1 3 2 50494.3 2266.10 4
1 3 2 47823.4 2924.96 3
1 3 3 813.280 432.420 3
1 3 3 249.676 320.375 4
-1 3 -3 9.87798 351.465 3
1 3 4 85523.1 4171.42 3
-1 3 -4 91103.8 3830.66 3
1 3 5 -173.585 381.257 3
1 3 5 -36.4862 351.441 2
-1 3 -5 -418.507 454.518 3
1 3 5 78.4748 357.468 1
1 3 6 24780.4 2186.83 1
1 3 6 23020.5 2291.05 3
-1 3 -6 25078.7 2092.86 3
1 3 7 1626.21 705.751 1
1 3 8 451.429 585.161 1
1 3 9 47460.0 3661.65 1
1 3 9 52218.4 1422.04 6
1 3 10 2984.81 451.613 6
1 3 10 2283.92 1036.04 1
1 3 11 3912.34 1209.81 1
1 3 11 3614.92 454.066 8
1 3 11 3104.56 484.339 6
1 3 12 78793.4 1895.41 6
1 3 12 77736.2 1829.81 8
1 3 13 -280.818 352.707 6
1 3 13 214.794 220.741 8
1 3 14 5435.28 560.536 6
1 3 14 5698.34 465.875 8
1 3 15 2073.40 428.265 6
-1 4 16 318.691 146.690 8
-1 4 15 1457.73 271.661 8
-1 4 14 209.006 196.398 8
-1 4 13 255.292 218.442 8
-1 4 13 498.486 373.349 6
1 4 -12 4159.31 438.407 13
-1 4 12 3812.84 560.454 6
-1 4 12 3354.34 467.343 8
1 4 -11 699.723 242.612 13
-1 4 11 443.614 235.952 5
-1 4 11 568.891 409.023 6
-1 4 11 504.559 248.880 8
1 4 -10 4650.10 1583.81 4
1 4 -10 6505.32 554.426 13
-1 4 10 5562.99 551.400 8
-1 4 10 4848.62 594.148 6
-1 4 10 6679.08 1591.22 1
-1 4 10 4749.42 530.729 5
-1 4 9 291.476 387.113 6
1 4 -9 -313.486 564.802 4
-1 4 9 13.8337 868.941 1
-1 4 9 246.634 211.108 5
-1 4 9 393.911 253.212 8
-1 4 8 152.641 352.803 6
-1 4 8 116.510 230.209 8
-1 4 8 346.946 199.641 5
1 4 -8 -268.398 536.267 4
-1 4 8 671.421 812.640 1
1 4 -7 745.494 635.235 4
-1 4 7 -218.142 793.600 1
-1 4 7 201.418 614.195 3
-1 4 6 408.474 565.869 3
1 4 -6 750.765 644.008 4
1 4 -5 4657.98 1108.49 4
-1 4 5 4718.39 1165.12 3
-1 4 4 9502.48 1606.66 3
1 4 -4 10078.4 1496.29 3
1 4 -4 8973.63 1512.12 4
1 4 -3 1332.91 500.299 4
-1 4 3 2144.15 789.507 3
1 4 -3 2305.33 759.043 3
1 4 -2 765.232 493.321 4
1 4 -2 1162.25 679.871 3
-1 4 2 1128.69 715.852 3
1 4 -1 1082.09 593.959 4
1 4 -1 1611.95 801.977 3
-1 4 1 2980.06 1019.37 3
1 4 0 13939.2 1441.36 4
-1 4 0 18271.9 2018.46 3
1 4 0 19545.5 2097.46 3
1 4 1 73683.8 4273.52 3
-1 4 -1 101269. 4660.75 3
-1 4 -2 10821.6 1612.73 3
1 4 2 9484.41 1597.53 3
1 4 3 1485.33 757.360 3
-1 4 -3 1325.09 802.031 3
1 4 4 3337.02 1065.91 3
-1 4 -4 3658.60 1009.71 3
1 4 5 359.469 506.101 3
-1 4 -5 628.892 596.197 3
1 4 5 2093.20 916.213 1
1 4 6 4026.62 1241.90 3
1 4 6 5858.76 1299.47 1
-1 4 -6 3761.25 1004.86 3
1 4 7 5088.34 1310.10 3
1 4 7 5631.30 1340.77 1
1 4 8 742.948 263.868 14
1 4 8 1021.92 252.576 5
-1 4 -8 829.846 223.079 13
1 4 9 2679.27 380.909 14
-1 4 -9 3337.14 357.860 13
1 4 9 3509.44 406.528 5
1 4 10 2337.24 335.873 5
1 4 11 106.776 263.250 8
1 4 11 280.743 199.357 5
1 4 12 1037.60 314.627 8
1 4 13 -168.391 211.520 8
1 4 14 568.552 229.634 8
1 4 15 639.318 192.582 8
-1 5 16 632.152 129.800 8
-1 5 15 568.414 183.780 8
-1 5 14 6203.40 459.791 8
-1 5 13 1592.78 301.361 8
1 5 -13 1568.09 264.234 13
1 5 -12 93906.4 1771.35 13
-1 5 12 92488.2 1926.71 8
1 5 -11 17144.8 816.719 13
-1 5 11 17366.0 889.601 5
-1 5 11 17197.0 878.267 8
1 5 -10 116692. 2171.54 13
-1 5 10 118007. 2295.48 5
-1 5 10 114670. 2254.85 8
-1 5 9 7762.45 625.812 5
1 5 -9 7901.32 619.014 13
-1 5 9 8663.79 656.410 8
1 5 -8 8488.81 630.572 13
-1 5 8 8931.71 649.649 5
-1 5 8 10057.9 2003.50 1
1 5 -8 8386.09 1825.34 4
-1 5 8 9062.21 641.996 8
1 5 -7 118.554 595.842 4
-1 5 7 320.254 532.708 1
1 5 -7 361.230 259.603 13
-1 5 7 -253.037 834.356 3
-1 5 7 255.130 259.326 5
-1 5 7 105.027 224.601 8
-1 5 6 503.003 548.589 3
1 5 -6 812.975 265.866 13
1 5 -6 793.441 573.642 4
-1 5 6 844.347 250.339 5
-1 5 6 616.081 229.307 8
-1 5 5 4758.76 1313.47 3
1 5 -5 4655.18 1214.59 4
-1 5 5 5200.23 472.965 5
1 5 -5 5680.82 493.033 13
-1 5 4 119375. 6297.05 3
1 5 -4 117494. 5590.66 3
1 5 -4 110944. 5239.65 4
1 5 -3 2340.77 921.589 3
-1 5 3 1912.96 965.433 3
-1 5 2 90240.2 5297.77 3
1 5 -2 89691.2 5005.63 3
1 5 -1 2383.86 989.713 3
-1 5 1 1786.43 870.129 3
1 5 0 7887.77 1551.93 3
-1 5 0 8425.78 1622.49 3
1 5 1 53067.6 3998.82 3
-1 5 -1 52629.4 3908.16 3
1 5 2 6648.71 1540.66 3
-1 5 -2 7503.92 1499.07 3
-1 5 -3 1224.67 788.234 3
1 5 3 89.7640 502.995 3
-1 5 -4 22665.3 951.864 13
1 5 4 23174.4 881.768 14
-1 5 -4 22061.2 2575.45 3
1 5 4 23379.0 2880.58 3
1 5 4 23402.3 956.428 5
1 5 5 -242.886 208.869 5
-1 5 -5 -56.6993 638.185 3
1 5 5 50.4456 628.940 3
-1 5 -5 -58.2946 221.453 13
1 5 5 -617.472 267.558 14
1 5 6 1102.61 777.849 3
1 5 6 774.377 271.160 14
-1 5 -6 542.585 238.674 13
1 5 6 879.990 263.612 5
1 5 7 1068.08 289.478 14
1 5 7 767.563 777.092 3
-1 5 -7 715.658 260.703 13
1 5 7 900.448 275.039 5
-1 5 -8 861.448 275.737 13
1 5 8 662.641 254.567 14
1 5 8 579.268 241.842 5
1 5 9 74146.1 1712.52 5
-1 5 -9 76052.4 1691.46 13
1 5 9 74289.6 1859.49 8
1 5 10 1753.35 300.025 5
-1 5 -10 1638.97 294.009 13
1 5 10 1906.51 376.907 8
1 5 11 1678.14 333.813 8
1 5 11 1548.15 276.528 5
1 5 12 196.807 204.671 8
1 5 13 402.284 186.163 8
1 5 14 7788.29 459.971 8
1 5 15 6326.53 338.395 8
-1 6 14 -74.1408 114.890 8
-1 6 13 363.972 171.423 8
1 6 -13 351.786 141.349 13
1 6 -12 2366.16 274.984 13
-1 6 12 2376.14 306.952 8
-1 6 11 1535.40 282.741 8
1 6 -11 1104.79 244.535 13
-1 6 10 8903.87 591.533 8
-1 6 10 8426.87 610.538 5
1 6 -10 8327.64 558.160 13
-1 6 9 296.494 223.087 5
1 6 -9 191.779 234.414 13
-1 6 9 22.7997 229.142 8
-1 6 8 115.543 207.824 5
1 6 -8 13.5128 211.908 13
-1 6 8 28.5097 217.898 8
1 6 -7 1016.16 302.269 13
-1 6 7 702.236 242.888 5
-1 6 7 1266.46 298.343 8
1 6 -6 1218.66 318.828 13
-1 6 6 1805.86 374.915 5
-1 6 6 1467.80 300.396 8
1 6 -5 2225.38 387.328 13
-1 6 5 2146.63 343.149 5
-1 6 5 2320.20 330.436 8
-1 6 4 1065.42 877.939 3
1 6 -4 1374.00 345.132 13
-1 6 4 1466.18 330.798 5
1 6 -3 134.377 222.109 13
-1 6 3 -676.060 734.124 3
-1 6 3 -1.09245 188.009 5
-1 6 2 2076.02 1015.85 3
1 6 -2 1808.59 396.936 13
1 6 -2 2047.83 1054.29 3
-1 6 2 1857.96 344.033 13
-1 6 2 1621.94 297.466 5
-1 6 1 1582.75 375.639 13
1 6 -1 1780.89 365.100 13
1 6 -1 591.979 710.425 3
-1 6 1 2132.00 400.192 5
-1 6 1 1105.87 955.069 3
1 6 0 1964.51 334.496 13
1 6 0 2037.79 318.545 14
1 6 0 1339.66 933.079 3
-1 6 0 2084.98 335.807 13
-1 6 0 1651.31 849.439 3
-1 6 0 3007.65 386.699 5
1 6 1 1356.29 858.754 3
1 6 1 438.896 270.152 14
-1 6 -1 769.184 324.267 13
-1 6 -1 945.239 307.156 5
-1 6 -1 40.7084 653.785 3
-1 6 -2 799.288 656.635 3
-1 6 -2 725.501 360.040 13
1 6 2 691.516 308.647 14
-1 6 -2 1271.02 314.296 5
1 6 2 704.939 319.467 5
1 6 3 114.962 209.288 14
1 6 3 98.9989 696.305 3
1 6 3 142.534 212.715 5
-1 6 -3 265.791 229.026 13
-1 6 -3 -171.295 562.289 3
-1 6 -4 653.368 280.044 13
1 6 4 481.642 239.927 14
1 6 4 515.266 241.157 5
-1 6 -5 -200.265 232.863 13
1 6 5 -110.193 208.812 14
1 6 5 -159.107 220.259 5
-1 6 -6 49.4272 241.426 13
1 6 6 157.131 199.378 5
-1 6 -7 928.765 291.140 13
1 6 7 831.882 259.603 5
1 6 7 525.215 235.545 8
-1 6 -8 573.942 306.924 13
1 6 8 217.630 185.442 5
1 6 8 362.106 240.356 8
-1 6 -9 1517.48 305.266 13
1 6 9 1305.92 265.455 5
1 6 9 2061.98 353.123 8
-1 6 -10 287.551 199.416 13
1 6 10 303.071 181.080 5
1 6 10 280.087 214.920 8
-1 6 -11 62.9535 145.764 13
1 6 11 107.002 183.603 8
1 6 12 249.818 164.496 8
1 6 13 22.2815 134.133 8
1 6 14 453.043 113.826 8
1 7 -12 34546.8 646.707 13
-1 7 12 34809.3 710.745 8
1 7 -11 6773.76 377.042 13
-1 7 11 6024.38 353.291 8
1 7 -10 56301.7 1168.43 13
-1 7 10 56864.4 1126.69 8
-1 7 10 59184.5 1265.27 5
1 7 -9 12775.0 617.151 13
-1 7 9 13047.2 648.555 5
-1 7 9 12313.9 568.338 8
1 7 -8 229.945 198.740 13
-1 7 8 388.905 184.542 8
1 7 -7 -156.251 209.880 13
-1 7 7 -8.76540 188.541 5
-1 7 7 -102.690 165.333 8
1 7 -6 -140.877 219.129 13
-1 7 6 216.998 192.119 5
1 7 -5 75.7561 197.903 13
-1 7 5 116.815 167.217 5
-1 7 4 33410.5 1115.69 5
1 7 -4 31400.9 1097.49 13
1 7 -3 4390.53 495.292 13
-1 7 3 6096.83 578.723 5
-1 7 2 23819.7 887.133 13
1 7 -2 22904.6 923.098 13
-1 7 2 24077.6 942.279 5
-1 7 1 1980.20 319.429 13
-1 7 1 2669.43 348.859 5
1 7 -1 2301.14 324.615 13
1 7 -1 2518.24 382.343 5
-1 7 0 76.5372 174.483 5
1 7 0 214.336 228.734 5
-1 7 0 205.203 195.593 13
1 7 1 13841.6 776.403 5
-1 7 -1 14644.2 761.865 13
-1 7 -1 15955.3 723.142 5
-1 7 -2 119.612 270.421 13
1 7 2 322.409 251.698 5
-1 7 -2 276.619 223.804 5
1 7 3 1391.62 302.482 5
-1 7 -3 1174.82 295.718 13
1 7 4 10109.5 657.425 5
-1 7 -4 10637.8 658.541 13
-1 7 -5 22.0923 222.758 13
1 7 5 262.316 193.090 5
1 7 5 62.0386 192.172 8
-1 7 -6 216.946 209.347 13
1 7 6 47.5066 164.158 5
1 7 6 371.085 219.123 8
-1 7 -7 1724.59 301.053 13
1 7 7 2180.98 291.465 8
1 7 7 1983.46 287.656 5
1 7 8 -33.8665 160.144 8
-1 7 -8 91.0605 164.309 13
1 7 8 124.727 157.578 5
-1 7 -9 33572.0 922.259 13
1 7 9 33484.1 934.021 5
1 7 9 34573.4 952.501 8
1 7 10 834.027 161.566 5
-1 7 -10 761.342 163.161 13
1 7 10 938.553 204.491 8
1 7 11 1526.77 194.358 8
1 7 12 -101.815 95.4823 8
1 8 -9 36.8119 99.1721 13
1 8 -8 518.296 146.826 13
-1 8 8 387.161 130.560 5
1 8 -8 156.842 84.3572 5
1 8 -7 386.403 125.488 5
1 8 -7 289.120 132.304 13
-1 8 7 639.088 152.270 5
1 8 -6 32.6840 137.875 13
-1 8 6 212.985 132.717 5
1 8 -6 181.113 118.498 5
1 8 -5 -11.7617 134.619 13
1 8 -5 147.042 121.741 5
-1 8 5 31.5272 125.697 5
-1 8 4 139.042 145.425 5
1 8 -4 -147.049 158.967 13
1 8 -4 133.400 147.745 5
-1 8 3 352.825 169.098 5
1 8 -3 -62.0592 153.443 13
1 8 -3 550.883 185.357 5
-1 8 2 4240.70 382.739 5
1 8 -2 4745.42 438.727 5
-1 8 1 9210.79 526.833 5
1 8 -1 10376.1 651.713 5
-1 8 0 141.704 148.550 13
1 8 0 327.569 174.419 5
1 8 1 7514.06 546.725 5
-1 8 -1 6946.06 440.587 5
-1 8 -2 607.047 218.030 13
1 8 2 1504.01 276.387 5
-1 8 -3 879.550 241.364 13
1 8 3 2636.56 316.714 5
-1 8 -4 908.145 251.002 13
1 8 4 2421.90 334.213 5
-1 8 -5 151.850 145.238 13
1 8 5 418.877 167.239 5
-1 8 -6 919.936 183.632 13
1 8 6 1278.12 203.704 5
1 8 7 293.314 131.344 5
-1 8 -7 238.561 131.162 13
-1 8 -8 -146.640 113.105 13
1 8 8 -97.0645 91.4191 5
1 9 -3 1000.57 124.462 5
1 9 -2 1260.93 146.173 5
1 9 -1 2012.06 182.899 5
1 9 0 538.547 122.237 5
1 9 1 11713.8 407.245 5
1 9 2 515.831 136.764 5
1 9 3 685.187 116.299 5
-2 -7 12 294.550 109.721 6
-2 -7 11 810.210 163.397 6
-2 -6 14 625.120 125.661 10
-2 -6 14 727.810 130.353 6
-2 -6 13 570.617 169.240 6
2 -6 7 1719.54 301.592 10
2 -6 8 10487.5 628.287 10
2 -6 9 674.621 228.760 10
2 -6 10 36296.3 1046.95 10
2 -6 11 1466.53 242.172 10
2 -6 12 180.100 122.052 10
-2 -5 15 132.157 136.161 6
-2 -5 15 0.90282 99.8588 10
-2 -5 14 261.374 162.656 6
-2 -5 13 17.0637 170.428 6
-2 -5 10 4513.25 434.714 12
-2 -5 9 5700.41 468.792 12
-2 -5 8 1162.60 258.439 12
-2 -5 7 2680.68 335.991 12
-2 -5 6 1279.85 359.253 12
-2 -5 5 417.534 265.881 12
2 -5 8 2362.60 404.237 10
2 -5 9 298.633 224.069 10
2 -5 10 2178.14 360.557 10
2 -5 11 606.762 234.930 10
2 -5 12 6.71242 179.767 10
2 -5 13 318.554 182.007 10
2 -5 14 133.226 127.796 10
-2 -4 17 4215.08 265.386 6
-2 -4 16 709.003 184.339 6
-2 -4 15 770.715 221.792 6
-2 -4 14 1169.77 268.007 6
-2 -4 13 2392.74 373.789 6
-2 -4 12 3392.27 431.155 7
-2 -4 11 129471. 2215.50 12
-2 -4 11 129388. 2349.78 7
-2 -4 10 52493.3 1403.59 12
-2 -4 10 55262.4 1532.18 7
-2 -4 9 62743.9 1499.12 12
-2 -4 9 63595.4 1649.76 7
-2 -4 8 446.468 211.826 12
-2 -4 8 95.6472 259.106 7
-2 -4 7 1521.01 340.254 7
-2 -4 7 1431.81 237.044 12
2 -4 5 15718.0 1954.03 2
2 -4 6 3109.20 931.220 2
2 -4 7 5007.08 1372.71 2
2 -4 8 5301.15 1394.68 2
2 -4 9 61.2988 237.467 10
2 -4 10 29539.2 1209.29 10
2 -4 11 443.692 254.522 10
2 -4 12 5743.31 527.000 10
2 -4 13 10104.5 658.391 10
2 -4 14 978.642 244.030 10
2 -4 15 907.458 196.226 10
-2 -3 18 134.828 88.7442 6
-2 -3 17 143.924 135.080 6
-2 -3 16 178.711 189.113 6
-2 -3 15 -124.073 192.300 6
-2 -3 14 1980.44 379.538 6
-2 -3 14 2037.29 340.545 7
-2 -3 13 116.053 266.657 7
-2 -3 13 9.23103 220.903 6
-2 -3 12 2734.93 402.899 7
-2 -3 12 2306.45 363.841 12
-2 -3 11 5156.14 551.992 7
-2 -3 11 4662.40 486.614 12
-2 -3 10 707.808 297.720 7
-2 -3 10 396.159 230.708 12
-2 -3 9 1783.95 323.197 12
-2 -3 9 1600.90 332.447 7
2 -3 1 3266.88 691.700 2
2 -3 2 45193.3 2559.44 2
2 -3 3 6735.15 1071.93 2
2 -3 4 2844.90 772.093 2
2 -3 5 4506.88 994.804 2
2 -3 6 -197.031 465.909 2
2 -3 7 -281.541 416.674 2
2 -3 8 286.188 495.555 2
2 -3 9 751.095 877.840 2
2 -3 9 731.902 287.932 10
2 -3 10 4252.27 502.189 10
2 -3 11 2273.73 386.705 10
2 -3 12 59.8856 241.730 10
2 -3 13 9464.34 697.642 10
2 -3 14 467.717 233.746 10
2 -3 15 893.389 246.190 10
2 -3 16 1387.24 230.950 10
-2 -2 18 247.787 125.861 6
-2 -2 17 223.719 171.591 6
-2 -2 16 -24.8417 185.055 6
-2 -2 15 1915.36 335.612 7
-2 -2 15 1038.08 264.625 6
-2 -2 14 39963.9 1377.03 6
-2 -2 14 38446.7 1247.70 7
-2 -2 13 15040.4 819.042 7
-2 -2 13 15993.1 918.673 6
-2 -2 12 954.726 317.339 7
-2 -2 12 635.832 267.603 6
-2 -2 12 714.913 244.957 12
-2 -2 11 2099.92 332.169 12
-2 -2 11 2166.53 354.093 7
-2 -2 10 15579.0 788.669 7
-2 -2 10 15951.0 769.543 12
2 -2 -3 75014.9 2155.05 4
2 -2 -2 46769.9 1570.01 2
2 -2 -1 100499. 2584.32 2
2 -2 0 9906.30 963.337 2
2 -2 1 2553.51 633.034 2
2 -2 2 62468.3 2715.83 2
2 -2 3 2124.16 675.912 2
2 -2 4 7080.41 1135.99 2
2 -2 5 245241. 6753.32 2
2 -2 6 3319.77 910.221 2
2 -2 7 23211.5 2450.18 2
2 -2 8 1389.55 804.250 2
2 -2 9 1865.77 904.306 2
2 -2 9 2742.65 417.871 10
2 -2 10 2076.49 1103.01 2
2 -2 10 2858.25 416.629 10
2 -2 11 362.063 256.170 10
2 -2 12 7233.48 646.103 10
2 -2 13 83484.3 1994.36 10
2 -2 14 2352.22 388.321 10
2 -2 15 1739.78 312.969 10
2 -2 16 5963.62 424.102 10
2 -2 17 282.553 119.454 10
-2 -1 18 594.223 172.884 6
-2 -1 17 2246.57 310.480 6
-2 -1 16 2525.78 363.500 6
-2 -1 15 -102.057 229.907 7
-2 -1 15 65.7312 221.763 6
-2 -1 14 13555.8 802.803 6
-2 -1 14 13301.9 736.807 7
-2 -1 13 2028.13 351.523 6
-2 -1 13 1950.30 334.956 7
-2 -1 12 568.416 297.333 6
-2 -1 12 196.002 222.320 7
-2 -1 11 653.093 239.997 12
-2 -1 11 363.856 250.578 7
-2 -1 11 372.814 233.017 6
2 -1 -8 96.3350 314.362 4
2 -1 -7 61.6654 284.211 4
2 -1 -6 14641.6 1429.12 4
2 -1 -5 30112.4 1775.71 4
2 -1 -4 8638.10 954.410 4
2 -1 -3 10729.4 1452.46 4
2 -1 -2 10029.4 1118.15 4
2 -1 -1 8141.12 891.383 4
2 -1 0 7414.42 1006.09 4
2 -1 1 3175.39 749.970 4
2 -1 1 3602.89 725.975 2
2 -1 2 17058.0 1630.20 2
2 -1 3 8015.86 1111.84 2
2 -1 4 21579.5 1841.00 2
2 -1 5 25944.8 2206.46 2
2 -1 6 1568.07 616.718 2
2 -1 7 28187.2 2632.97 2
2 -1 8 32371.1 2975.57 2
2 -1 9 18289.2 2421.72 2
2 -1 10 7747.15 611.816 10
2 -1 10 7298.72 1615.52 2
2 -1 11 2293.15 1232.75 2
2 -1 11 1791.62 362.802 10
2 -1 12 1975.62 370.479 10
2 -1 13 35689.9 1319.02 10
2 -1 14 2254.10 374.891 10
2 -1 15 345.889 243.993 10
2 -1 16 711.679 190.010 10
-2 0 18 758.354 207.889 6
-2 0 17 1850.44 290.277 6
-2 0 16 2689.85 379.233 6
-2 0 15 2031.13 357.521 6
-2 0 14 85661.4 1786.29 7
-2 0 14 82656.8 1907.82 6
-2 0 13 16199.0 811.393 7
-2 0 13 16195.5 857.348 6
-2 0 12 17359.0 841.912 7
-2 0 12 17954.2 873.774 6
-2 0 11 33380.6 1095.95 7
-2 0 11 32863.5 1131.40 6
2 0 -11 32664.8 3140.37 4
2 0 -10 4784.94 1160.75 4
-2 0 9 8088.79 1410.65 1
2 0 -9 9500.11 1543.83 4
-2 0 8 26681.2 2273.84 1
2 0 -8 31787.5 2544.17 4
-2 0 7 64003.8 3170.40 1
2 0 -7 66895.4 3459.80 4
-2 0 6 351124. 6697.04 1
2 0 -6 367886. 7498.88 4
2 0 -5 1931.52 567.502 4
-2 0 5 1960.75 482.277 1
-2 0 5 2409.23 418.187 3
2 0 -4 1379.77 522.418 4
-2 0 4 1575.04 415.813 1
2 0 -3 48382.3 2355.35 4
-2 0 3 45630.5 1652.36 1
-2 0 2 51715.5 1496.57 1
2 0 -2 54739.6 2493.97 4
2 0 -1 177153. 4403.10 4
2 0 0 88520.3 3179.94 4
2 0 1 3136.84 661.551 4
2 0 2 77872.8 3174.62 4
2 0 3 -37.2063 396.613 2
2 0 4 11576.2 1403.72 2
2 0 5 643092. 10553.0 2
2 0 6 20365.8 2054.79 2
2 0 7 152341. 5916.34 2
2 0 8 13554.0 1948.97 2
2 0 9 9911.12 1749.75 2
2 0 10 116.540 528.320 2
2 0 10 289.324 213.084 10
2 0 11 -634.320 957.309 2
2 0 11 -165.794 228.869 10
2 0 12 3362.51 458.586 10
2 0 13 174765. 2804.80 10
2 0 14 2047.29 357.744 10
2 0 15 2600.68 348.078 10
-2 1 18 648.897 210.784 6
-2 1 17 2437.08 324.345 6
-2 1 16 2379.73 359.881 6
-2 1 15 -30.4892 215.803 6
-2 1 14 12613.6 759.030 6
-2 1 14 13512.0 698.112 8
-2 1 13 1904.81 343.576 7
-2 1 13 2205.19 340.066 8
-2 1 13 1923.04 390.811 6
-2 1 12 538.917 241.137 7
2 1 -12 934.377 805.056 4
-2 1 12 325.685 238.881 6
-2 1 12 400.923 193.201 8
-2 1 11 333.271 429.051 1
-2 1 11 -6.91422 202.481 6
-2 1 11 178.983 198.338 7
2 1 -11 -389.082 667.530 4
-2 1 11 -14.3352 190.521 8
2 1 -10 1627.50 817.575 4
-2 1 10 1589.35 777.447 1
-2 1 9 4210.82 1060.52 1
2 1 -9 3884.06 1089.65 4
2 1 -8 89.8307 457.128 4
-2 1 8 295.987 413.580 1
-2 1 7 1055.13 539.118 1
2 1 -7 870.174 616.663 4
-2 1 6 12786.3 1639.18 1
2 1 -6 14455.7 1898.17 4
-2 1 5 25119.5 1622.77 3
-2 1 5 28776.6 1927.30 1
2 1 -5 26841.5 2134.22 4
-2 1 4 6494.48 857.415 3
2 1 -4 7413.58 1150.07 4
2 1 -3 11422.9 1432.52 4
2 1 -2 10040.9 1227.89 4
2 1 -1 8024.81 1059.21 4
2 1 0 7218.60 1104.98 4
2 1 1 3296.64 814.717 4
2 1 2 17081.4 1705.94 4
2 1 3 8166.20 1197.79 4
2 1 4 21012.5 1927.42 2
2 1 5 25274.2 2227.51 2
2 1 6 1697.54 722.156 2
2 1 7 28710.3 2626.74 2
2 1 8 34768.8 3011.91 2
2 1 9 17089.4 2289.71 2
2 1 10 6994.96 1640.11 2
2 1 10 7428.78 580.563 10
2 1 11 1256.76 863.578 2
2 1 11 1356.08 334.745 6
2 1 11 1637.88 345.012 10
2 1 12 1745.85 338.775 10
2 1 12 1868.32 339.669 6
2 1 13 34502.7 1141.38 6
2 1 13 36355.1 1239.48 10
2 1 14 1970.01 355.330 10
2 1 14 2557.32 385.610 6
2 1 15 238.935 263.426 6
-2 2 18 268.265 198.894 6
-2 2 17 126.426 198.977 6
-2 2 16 456.672 231.850 6
-2 2 16 129.231 155.273 8
-2 2 15 1429.19 310.393 6
-2 2 15 1830.40 299.891 8
-2 2 14 39766.8 1283.70 6
-2 2 14 39269.4 1234.24 8
-2 2 13 15219.0 824.031 6
-2 2 13 16057.3 826.331 8
2 2 -12 866.722 678.879 4
-2 2 12 162.883 661.650 1
-2 2 12 906.830 288.011 6
-2 2 12 655.949 244.389 7
-2 2 12 949.774 279.855 8
2 2 -11 2180.61 1157.36 4
-2 2 11 2159.88 307.444 7
-2 2 11 2524.26 359.378 8
-2 2 11 2618.99 1005.93 1
-2 2 11 2290.12 357.055 6
-2 2 10 16881.4 819.667 8
2 2 -10 15846.9 2451.01 4
-2 2 10 16422.6 2370.94 1
-2 2 9 3625.68 1103.19 1
2 2 -9 4426.79 1279.65 4
-2 2 8 18027.2 2170.45 1
2 2 -8 17871.3 2292.95 4
-2 2 7 11937.7 1664.70 1
2 2 -7 11550.5 1751.08 4
-2 2 6 195786. 5538.12 3
-2 2 6 188724. 6160.47 1
2 2 -6 177205. 6411.31 4
2 2 -5 1159.96 638.983 4
-2 2 5 1420.49 520.058 3
-2 2 4 804.667 522.483 3
2 2 -4 474.353 458.039 4
-2 2 3 68324.8 3159.74 3
2 2 -3 65698.4 3306.63 4
2 2 -2 44526.2 2661.84 4
-2 2 2 40083.9 2343.18 3
2 2 -1 99484.2 3934.27 4
-2 2 1 93102.5 3535.69 3
2 2 0 9788.92 1344.12 4
2 2 1 3401.63 815.412 4
2 2 2 64675.6 3208.91 4
2 2 3 2905.54 805.579 4
2 2 4 6992.03 1136.97 4
2 2 5 248337. 7032.33 2
2 2 6 3464.12 955.758 2
2 2 7 25018.1 2446.34 2
-2 2 -8 792.648 639.229 3
2 2 8 276.873 600.553 2
2 2 9 2173.76 910.951 2
2 2 10 2820.86 428.729 6
2 2 10 2557.41 359.950 10
2 2 11 -239.412 299.444 6
2 2 11 65.6068 247.292 10
2 2 12 7106.67 616.305 6
2 2 13 84482.4 1801.87 6
2 2 14 2279.39 384.447 6
-2 3 16 385.984 326.798 6
-2 3 16 234.341 154.975 8
-2 3 15 43.4966 269.583 6
-2 3 15 -79.2345 172.865 8
-2 3 14 1656.49 338.898 6
-2 3 14 2176.14 318.552 8
-2 3 13 -257.467 286.573 6
-2 3 13 -277.215 242.499 8
-2 3 12 2676.19 410.238 6
-2 3 12 2796.21 383.004 7
-2 3 12 2213.75 371.020 8
-2 3 11 4731.88 1531.15 1
2 3 -11 4244.41 1424.53 4
-2 3 11 3896.85 487.396 6
-2 3 11 4589.25 479.733 7
-2 3 11 4674.19 511.238 8
2 3 -10 239.745 540.770 4
-2 3 10 1297.30 285.845 7
-2 3 10 -20.1827 498.123 1
-2 3 10 337.906 299.072 6
-2 3 10 611.854 267.460 8
2 3 -9 848.441 590.600 4
-2 3 9 1901.03 331.705 7
-2 3 9 1208.68 915.507 1
-2 3 9 2070.76 365.249 5
-2 3 9 1627.96 334.536 8
2 3 -8 3026.14 1066.21 4
-2 3 8 2746.66 1006.75 1
2 3 -7 6253.34 1427.14 4
-2 3 7 8494.34 1682.83 1
-2 3 6 7917.64 1503.61 3
2 3 -6 10734.6 1891.46 4
2 3 -5 2806.47 1013.67 4
-2 3 5 3454.48 1001.29 3
2 3 -4 3918.28 1062.61 4
-2 3 4 4205.85 988.471 3
-2 3 3 36334.0 3059.17 3
2 3 -3 33773.9 2472.44 3
2 3 -3 41721.8 3191.90 4
2 3 -2 13706.0 1677.63 4
-2 3 2 13932.6 1752.39 3
2 3 -2 15553.5 1685.59 3
2 3 -1 7694.07 1304.19 4
-2 3 1 6971.80 1261.22 3
2 3 -1 7322.36 1241.99 3
-2 3 0 10042.7 1743.88 3
2 3 0 11839.0 1618.47 3
2 3 0 7868.86 1481.74 4
2 3 1 3206.93 936.261 3
2 3 1 2569.23 1014.18 4
-2 3 -1 2787.21 873.939 3
-2 3 -2 51519.1 3262.87 3
2 3 2 48820.6 3448.07 3
2 3 3 6211.69 1077.91 4
-2 3 -3 5075.42 1086.75 3
2 3 4 3340.83 833.552 4
-2 3 -4 1902.66 741.377 3
-2 3 -5 3728.76 978.947 3
2 3 5 6092.75 1172.28 2
-2 3 -6 -66.6047 404.815 3
2 3 6 371.642 446.797 2
-2 3 -7 110.851 374.457 3
2 3 8 537.981 251.318 14
2 3 8 436.218 356.949 6
2 3 9 940.910 392.012 6
2 3 10 4262.43 568.842 6
2 3 11 2626.78 513.576 6
2 3 12 172.522 236.784 8
2 3 13 9127.99 614.210 8
-2 4 16 582.988 165.793 8
-2 4 15 496.291 195.990 8
-2 4 14 1184.97 258.257 8
2 4 -13 2385.67 331.377 13
-2 4 13 2255.71 347.867 8
2 4 -12 4001.78 428.005 13
-2 4 12 3249.90 443.561 8
-2 4 12 3101.14 357.221 7
-2 4 11 127927. 2258.57 6
-2 4 11 128603. 2266.26 7
-2 4 11 130812. 2410.12 8
-2 4 10 53804.0 1503.28 7
-2 4 10 51504.5 1513.29 5
-2 4 10 50661.7 1420.96 6
-2 4 10 52742.3 1556.03 8
-2 4 9 60395.1 1602.39 7
-2 4 9 68818.5 5284.76 1
-2 4 9 59913.8 1614.76 5
-2 4 9 62095.0 1648.50 8
2 4 -9 60916.0 4811.07 4
2 4 -8 706.339 790.922 4
-2 4 8 64.5335 197.619 5
-2 4 8 320.845 246.498 8
-2 4 8 -79.1546 600.595 1
-2 4 7 1505.08 707.976 3
2 4 -7 1243.62 752.927 4
-2 4 7 1880.16 833.140 1
-2 4 7 1809.21 292.841 5
-2 4 7 1269.27 256.859 8
-2 4 6 34569.8 3201.85 3
2 4 -6 32251.2 3167.56 4
2 4 -5 -200.170 534.201 4
-2 4 5 -41.2036 427.186 3
2 4 -4 2037.85 839.219 4
-2 4 4 1957.37 792.540 3
2 4 -3 35437.9 2986.81 4
-2 4 3 38197.1 3296.85 3
2 4 -3 36392.5 2795.74 3
2 4 -2 15798.7 1945.48 4
-2 4 2 15485.3 2075.96 3
2 4 -2 15832.7 1920.91 3
2 4 -1 13718.8 1757.02 4
-2 4 1 11888.9 1773.47 3
2 4 -1 12403.6 1759.87 3
2 4 0 106120. 4754.20 4
-2 4 0 100740. 5064.31 3
2 4 0 93584.1 4876.85 3
2 4 1 1940.06 927.589 3
2 4 1 1435.64 817.167 4
-2 4 -1 4248.51 1285.41 3
-2 4 -2 420863. 10364.9 3
2 4 2 410791. 10665.0 3
-2 4 -3 25076.9 2571.72 3
2 4 3 23619.8 2654.05 3
-2 4 -4 2393.86 915.865 3
-2 4 -5 13165.9 1942.53 3
-2 4 -6 3497.04 397.184 13
2 4 6 3963.34 409.185 14
-2 4 -6 2589.51 919.764 3
-2 4 -7 4993.51 436.452 13
2 4 7 4144.99 432.856 14
2 4 8 6854.55 544.499 14
2 4 9 358.097 221.963 14
2 4 10 28490.8 1007.18 14
2 4 12 5273.87 498.229 8
2 4 13 10378.4 597.388 8
2 4 14 1216.35 209.883 8
-2 5 15 2.17282 130.568 8
-2 5 14 253.675 155.690 8
2 5 -13 15.2308 153.803 13
-2 5 13 60.2236 187.078 8
2 5 -12 2629.66 339.697 13
-2 5 12 2217.73 338.919 8
-2 5 11 4376.52 419.240 7
2 5 -11 4633.79 470.128 13
-2 5 11 4840.33 485.612 8
2 5 -10 5029.25 511.172 13
-2 5 10 4758.64 488.906 5
-2 5 10 5003.48 481.286 7
-2 5 10 4858.61 505.661 8
-2 5 9 5269.01 505.459 7
-2 5 9 6045.86 560.379 5
-2 5 9 5811.21 521.446 8
-2 5 8 1320.35 300.932 5
-2 5 8 1123.57 278.002 8
2 5 -7 1668.46 923.795 4
-2 5 7 2059.36 346.586 5
-2 5 7 2412.54 1104.52 1
-2 5 7 2253.08 365.077 8
-2 5 6 114.654 735.690 3
2 5 -6 -421.345 834.223 4
-2 5 6 2370.51 447.435 5
-2 5 6 1428.66 382.463 8
2 5 -5 -241.920 465.632 4
-2 5 5 371.463 223.315 5
-2 5 5 491.096 256.105 8
-2 5 5 1084.91 698.983 3
2 5 -4 2717.11 1147.88 4
-2 5 4 2180.89 307.143 13
-2 5 4 2181.59 294.259 5
-2 5 4 1785.57 831.593 3
-2 5 3 8563.38 636.404 13
2 5 -3 4512.29 1247.14 3
2 5 -3 6982.53 1527.68 4
-2 5 3 6688.04 1733.80 3
2 5 -2 1785.74 862.861 3
-2 5 2 2400.12 351.264 13
-2 5 2 1814.09 924.460 3
-2 5 1 1617.77 300.719 13
2 5 -1 1119.50 704.443 3
-2 5 1 1153.55 669.110 3
-2 5 0 2397.58 387.596 13
2 5 0 2484.24 354.073 14
2 5 0 699.467 553.317 3
-2 5 0 1140.19 680.571 3
2 5 1 539.349 623.777 3
-2 5 -1 1703.51 378.874 13
2 5 1 1943.86 368.046 14
-2 5 -1 -196.876 596.795 3
-2 5 -2 24659.0 1111.94 13
2 5 2 28144.0 1126.40 14
-2 5 -2 15841.7 2457.99 3
2 5 2 12984.0 2338.65 3
2 5 3 4992.77 1445.16 3
-2 5 -3 8159.57 679.404 13
2 5 3 10150.7 702.424 14
-2 5 -3 3418.60 1211.09 3
2 5 3 6942.84 625.600 5
-2 5 -4 192.087 249.050 13
2 5 4 843.268 292.430 14
-2 5 -4 143.780 487.696 3
2 5 4 214.491 200.861 5
2 5 5 -108.982 216.000 14
-2 5 -5 342.521 251.620 13
2 5 5 -40.6261 193.538 5
-2 5 -5 -118.699 828.711 3
2 5 6 47.7322 215.454 14
-2 5 -6 -45.0975 230.230 13
2 5 6 311.226 219.090 5
2 5 7 1179.80 310.860 14
-2 5 -7 1326.21 331.195 13
2 5 7 1142.91 248.306 5
2 5 8 2032.03 357.582 14
-2 5 -8 2234.08 333.317 13
-2 5 -9 61.2248 181.171 13
2 5 9 89.0705 197.636 14
2 5 11 554.627 243.153 8
2 5 12 205.893 186.504 8
2 5 13 711.868 201.572 8
2 5 14 51.8003 102.259 8
-2 6 14 866.130 147.533 8
2 6 -13 721.012 153.113 13
-2 6 13 994.491 184.604 8
2 6 -12 1103.89 213.109 13
-2 6 12 1104.93 235.633 8
2 6 -11 141905. 2008.73 13
-2 6 11 137687. 2021.74 8
2 6 -10 38598.5 1152.33 13
-2 6 10 38973.4 1086.46 7
-2 6 10 40038.3 1146.30 8
-2 6 9 58379.6 1496.89 5
-2 6 9 56644.5 1415.78 7
2 6 -9 55969.7 1450.47 13
-2 6 9 56559.8 1408.57 8
2 6 -8 4065.84 459.018 13
-2 6 8 4281.65 432.979 5
-2 6 8 4164.47 413.450 8
2 6 -7 2535.78 405.074 13
-2 6 7 2690.05 363.193 5
-2 6 7 2572.07 337.134 8
2 6 -6 2336.59 375.938 13
-2 6 6 3194.87 379.301 5
-2 6 6 3207.02 367.409 8
2 6 -5 299.391 226.679 13
-2 6 5 -73.9425 192.570 5
2 6 -4 248.736 237.159 13
-2 6 4 479.200 245.993 13
-2 6 4 492.836 219.726 5
-2 6 3 11321.3 675.944 13
2 6 -3 10182.8 667.021 13
-2 6 3 11725.1 648.413 5
-2 6 2 4262.68 449.987 13
2 6 -2 5076.95 503.887 13
-2 6 2 4813.80 426.400 5
2 6 -1 -86.0310 207.761 13
2 6 -1 481.786 213.384 14
-2 6 1 62.5649 208.784 13
-2 6 0 49763.3 1447.41 13
2 6 0 51193.6 1318.42 14
2 6 1 2519.11 577.130 14
-2 6 -1 2570.61 602.330 13
-2 6 -2 245716. 3245.78 13
2 6 2 246612. 2995.75 14
2 6 2 246622. 3187.49 5
-2 6 -3 22876.6 1023.59 13
2 6 3 22787.2 1003.25 5
2 6 3 22728.8 980.622 14
-2 6 -4 9585.21 691.291 13
2 6 4 10521.0 652.610 14
2 6 4 9815.57 653.398 5
-2 6 -5 243.782 226.129 13
2 6 5 91.7010 210.119 14
2 6 5 216.576 171.308 5
2 6 6 3821.52 424.341 14
-2 6 -6 3864.00 439.543 13
2 6 6 3507.36 384.060 5
2 6 7 1868.05 318.418 14
-2 6 -7 1928.19 310.181 13
2 6 7 2035.80 299.261 5
-2 6 -8 10260.9 615.049 13
2 6 8 10052.6 556.549 5
-2 6 -9 420.156 206.110 13
2 6 9 306.331 224.060 8
-2 6 -10 37240.6 896.039 13
2 6 10 37152.2 1094.60 8
2 6 11 1605.46 250.129 8
2 6 12 88.8873 128.895 8
2 6 13 1103.03 146.734 8
2 7 -11 781.132 155.219 13
-2 7 11 891.341 154.427 8
2 7 -10 1308.20 208.695 13
-2 7 10 944.137 164.638 8
-2 7 9 2292.99 250.810 7
2 7 -9 2366.67 286.191 13
-2 7 9 2130.65 243.354 8
2 7 -8 478.856 204.079 13
-2 7 8 653.168 193.098 7
-2 7 8 1020.20 237.466 5
2 7 -7 48.8621 183.493 13
-2 7 7 418.558 202.727 5
2 7 -6 1302.62 272.804 13
-2 7 6 909.045 215.916 5
2 7 -5 31.3543 181.514 13
-2 7 5 335.831 198.865 5
2 7 -4 305.488 228.820 13
-2 7 4 634.044 218.968 5
2 7 -3 449.714 199.358 13
-2 7 3 356.341 193.940 13
-2 7 3 604.836 210.755 5
2 7 -2 283.174 195.668 13
-2 7 2 233.669 183.250 13
-2 7 2 668.203 209.188 5
-2 7 1 911.022 283.995 13
-2 7 0 4184.14 528.380 13
2 7 0 6190.93 663.131 5
-2 7 -1 1759.22 396.294 13
2 7 1 925.362 387.133 5
-2 7 -2 181.345 221.780 13
2 7 2 152.293 187.104 14
2 7 2 290.428 199.245 5
-2 7 -3 1154.35 334.863 13
2 7 3 1292.55 320.671 5
-2 7 -4 51.3962 249.191 13
2 7 4 295.985 209.165 5
-2 7 -5 10.2351 193.083 13
2 7 5 203.894 160.802 5
2 7 5 -188.120 170.614 8
-2 7 -6 165.160 200.496 13
2 7 6 259.825 152.689 5
2 7 6 97.6177 182.121 8
-2 7 -7 -61.0458 181.137 13
2 7 7 10.8944 124.945 5
2 7 7 94.8963 161.548 8
-2 7 -8 702.122 177.768 13
2 7 8 1092.68 178.355 5
2 7 8 1069.14 217.679 8
-2 7 -9 -49.8886 118.303 13
2 7 9 -169.746 148.010 8
2 7 10 235.418 108.832 8
2 8 -8 1236.07 154.099 13
2 8 -8 959.050 132.823 5
-2 8 7 22.3551 87.3356 7
2 8 -7 -34.8344 103.475 13
2 8 -7 93.8844 103.361 5
2 8 -6 1514.29 193.784 13
-2 8 6 1775.24 204.765 7
2 8 -6 1952.41 216.560 5
2 8 -5 31.2432 126.054 13
-2 8 5 461.638 140.752 5
2 8 -5 164.181 122.268 5
2 8 -4 494.086 146.265 13
-2 8 4 479.666 136.153 5
2 8 -4 535.434 166.821 5
2 8 -3 3168.86 259.785 13
2 8 -3 3707.80 319.565 5
-2 8 2 2400.06 249.973 13
2 8 -2 1770.75 244.369 5
-2 8 1 62.0577 150.324 13
2 8 -1 270.160 167.531 5
2 8 0 12707.2 582.761 5
-2 8 0 12762.7 553.144 13
-2 8 -1 909.925 235.098 13
2 8 1 2340.91 302.513 5
2 8 2 47157.3 1063.78 5
-2 8 -2 46621.1 1059.55 13
-2 8 -3 4089.85 344.977 13
2 8 3 4521.29 358.875 5
-2 8 -4 2233.37 244.602 13
2 8 4 2216.15 238.709 5
-2 8 -5 692.409 173.758 13
2 8 5 597.822 138.973 5
-2 8 -6 396.295 134.414 13
2 8 6 508.750 114.002 5
-2 8 -7 712.801 128.286 13
-3 -7 10 9433.44 398.921 6
-3 -6 13 74.3280 87.5307 6
-3 -6 12 0.88334 120.720 6
-3 -6 9 786.596 181.405 12
-3 -6 8 -22.8287 168.641 12
-3 -6 7 96.3625 160.179 12
-3 -6 6 27.1447 150.241 12
-3 -6 5 648.197 232.616 12
-3 -6 4 1945.91 286.924 12
-3 -5 14 382.032 146.504 6
-3 -5 13 368.250 167.383 6
-3 -5 12 973.872 229.960 6
-3 -5 11 1994.28 284.055 12
-3 -5 10 40858.5 1149.29 12
-3 -5 9 18590.3 801.900 12
-3 -5 8 6095.98 474.279 12
-3 -5 7 18594.9 801.445 12
-3 -5 6 6735.28 510.798 12
-3 -5 5 39387.3 1147.59 12
-3 -5 4 1958.85 378.333 12
-3 -5 -4 5422.87 494.504 11
-3 -5 -5 -186.769 187.072 11
3 -5 7 919.589 263.525 10
3 -5 8 382.768 200.188 10
3 -5 9 10947.3 649.436 10
3 -5 10 3.04133 183.638 10
3 -5 11 586.704 187.362 10
3 -5 12 1859.38 241.858 10
3 -5 13 4474.46 282.218 10
-3 -4 16 1200.79 158.123 6
-3 -4 15 134.064 130.464 6
-3 -4 14 172.085 175.532 6
-3 -4 13 275.601 199.486 6
-3 -4 12 1561.19 288.267 12
-3 -4 12 2013.10 363.079 7
-3 -4 12 1772.29 328.519 6
-3 -4 11 5065.70 467.438 12
-3 -4 11 4584.30 479.269 7
-3 -4 10 8798.78 679.354 12
-3 -4 10 6062.95 647.631 7
-3 -4 9 1479.22 373.500 12
-3 -4 9 1512.74 440.510 7
-3 -4 8 1209.55 402.197 7
-3 -4 8 2181.86 378.600 12
-3 -4 7 1366.29 353.386 7
-3 -4 7 1890.62 354.982 12
-3 -4 6 1804.31 442.063 7
-3 -4 6 2333.25 405.003 12
-3 -4 5 3693.30 565.184 7
-3 -4 4 1729.70 349.508 7
-3 -4 -2 4893.49 492.789 11
-3 -4 -3 6587.00 557.575 11
-3 -4 -4 1238.72 277.124 11
-3 -4 -5 3306.40 418.332 11
-3 -4 -6 7833.34 647.776 11
3 -4 6 3737.54 534.233 10
-3 -4 -7 926.311 283.114 11
3 -4 7 520.947 305.119 10
-3 -4 -8 709.779 363.796 11
3 -4 8 -289.407 248.191 10
-3 -4 -9 168.017 181.381 11
3 -4 9 258.015 246.037 10
-3 -4 -10 76.0626 181.907 11
3 -4 10 -74.0755 223.594 10
-3 -4 -11 189.936 151.648 11
3 -4 11 354.539 230.192 10
-3 -4 -12 42.5887 126.596 11
3 -4 12 300.291 213.202 10
3 -4 13 191.166 177.100 10
3 -4 14 5859.89 369.743 10
-3 -3 16 -38.7573 131.855 6
-3 -3 15 34.2618 165.409 7
-3 -3 15 250.935 172.142 6
-3 -3 14 125.334 159.272 6
-3 -3 14 -183.522 219.512 7
-3 -3 13 7482.77 585.305 7
-3 -3 13 7847.35 575.654 12
-3 -3 13 6892.80 572.399 6
-3 -3 12 6087.42 574.142 7
-3 -3 12 6797.90 560.145 12
-3 -3 12 6382.12 539.014 6
-3 -3 11 289.196 242.408 12
-3 -3 11 193.330 268.814 7
-3 -3 10 69084.8 1744.69 7
-3 -3 10 69703.2 1664.09 12
-3 -3 9 53141.5 1510.27 7
-3 -3 9 52745.4 1411.64 12
-3 -3 8 22835.7 963.739 7
-3 -3 8 22680.5 916.847 12
-3 -3 7 18968.2 858.023 7
-3 -3 7 19272.5 830.718 12
3 -3 3 85291.1 4070.22 2
3 -3 4 3627.53 958.316 2
3 -3 5 935.014 668.015 2
3 -3 6 27233.3 1088.11 10
3 -3 6 27780.7 2802.46 2
3 -3 7 161.397 615.503 2
3 -3 7 -192.874 221.669 10
3 -3 8 209.268 272.637 10
3 -3 8 -1002.54 936.602 2
3 -3 9 9127.00 707.968 10
3 -3 10 308.174 306.175 10
3 -3 11 3825.19 469.818 10
3 -3 12 27.2577 212.697 10
3 -3 13 1321.30 296.672 10
-3 -3 -14 13978.7 576.690 11
3 -3 14 15734.2 695.525 10
3 -3 15 1267.19 193.307 10
-3 -2 17 50.8769 123.794 6
-3 -2 16 150.448 155.967 6
-3 -2 16 269.464 159.327 7
-3 -2 15 122.080 174.862 6
-3 -2 15 -122.773 214.167 7
-3 -2 14 -24.2842 229.051 7
-3 -2 14 123.554 188.251 6
-3 -2 13 2697.79 377.911 12
-3 -2 13 2674.24 397.335 7
-3 -2 13 2692.36 382.335 6
-3 -2 12 67.3439 184.134 12
-3 -2 12 -24.2614 200.669 6
-3 -2 12 0.40013 247.465 7
-3 -2 11 1687.40 351.198 7
-3 -2 11 2231.76 366.491 12
-3 -2 11 2022.09 368.586 6
-3 -2 10 15872.3 888.123 7
-3 -2 10 18679.9 918.752 12
-3 -2 9 1341.74 387.044 7
-3 -2 9 1380.18 322.049 12
3 -2 -3 143.586 370.017 4
3 -2 -1 78.5847 413.619 2
3 -2 0 1125.88 714.251 2
3 -2 1 6495.50 1101.51 2
3 -2 2 2154.20 707.811 2
3 -2 3 1783.08 842.729 2
3 -2 4 1180.48 494.512 2
3 -2 5 11972.7 1752.98 2
3 -2 6 18996.6 2298.19 2
3 -2 7 828.901 563.768 2
3 -2 7 1502.36 335.877 10
3 -2 8 238.891 603.381 2
3 -2 8 265.067 238.370 10
3 -2 9 716.661 305.540 10
3 -2 9 764.048 742.282 2
3 -2 10 1198.19 338.192 10
3 -2 11 4561.74 526.945 10
3 -2 12 1400.35 336.964 10
3 -2 13 311.773 255.050 10
3 -2 14 1626.92 311.033 10
3 -2 15 36.2693 161.918 10
3 -2 16 30.1513 101.257 10
-3 -1 17 800.340 180.445 6
-3 -1 16 4340.40 390.203 7
-3 -1 16 4570.53 379.549 6
-3 -1 15 3937.82 419.688 7
-3 -1 15 4344.06 425.696 6
-3 -1 14 862.089 273.719 7
-3 -1 14 753.453 262.365 6
-3 -1 13 34662.0 1246.54 7
-3 -1 13 34363.6 1187.97 6
-3 -1 12 14282.8 817.259 7
-3 -1 12 13410.1 759.414 12
-3 -1 12 14509.1 783.854 6
-3 -1 11 287.142 216.695 7
-3 -1 11 204.769 198.941 12
-3 -1 11 448.710 258.014 6
-3 -1 10 84204.0 1839.63 7
-3 -1 10 81483.1 1699.89 12
-3 -1 9 70078.2 1615.80 7
3 -1 -6 13262.8 1528.19 4
3 -1 -5 1613.32 615.447 4
3 -1 -4 228.514 362.625 4
3 -1 -3 9602.19 1237.08 4
3 -1 -2 532276. 9196.33 4
3 -1 -1 25695.6 2102.99 4
3 -1 0 49252.9 2893.42 4
3 -1 1 30947.4 2302.72 2
3 -1 2 837.711 603.826 2
3 -1 3 14926.2 1776.02 2
3 -1 4 3216.74 921.423 2
3 -1 5 -174.435 586.166 2
3 -1 6 94719.3 5122.51 2
3 -1 7 4644.23 1259.11 2
3 -1 8 9236.28 1878.36 2
3 -1 8 10925.0 740.290 10
3 -1 9 354.018 782.182 2
3 -1 9 174.463 220.936 10
3 -1 10 2116.05 381.647 10
3 -1 11 9396.99 706.689 10
3 -1 12 2621.03 432.394 10
3 -1 13 2049.60 367.392 10
3 -1 14 4894.38 466.819 10
3 -1 15 358.119 173.952 10
3 -1 16 6428.60 366.439 10
-3 0 17 1373.04 215.810 6
-3 0 16 3017.73 333.068 7
-3 0 16 2679.18 310.563 6
-3 0 15 1684.89 299.667 7
-3 0 15 1563.73 286.068 6
-3 0 14 381.299 206.772 7
-3 0 14 401.801 222.803 6
-3 0 13 7505.86 599.779 7
-3 0 13 7261.06 545.207 6
-3 0 12 1114.94 291.831 7
-3 0 12 1037.26 279.822 6
-3 0 11 404.366 251.287 7
-3 0 11 242.264 221.700 8
-3 0 11 453.664 214.448 12
-3 0 10 12096.6 718.796 7
-3 0 10 11059.4 646.370 8
3 0 -9 2504.15 881.286 4
3 0 -8 603.684 583.433 4
3 0 -7 1790.01 814.269 4
3 0 -6 659.345 485.553 4
3 0 -5 140.448 482.438 4
3 0 -4 560.661 568.205 4
3 0 -3 2765.42 796.778 4
3 0 -2 1409.07 610.323 4
3 0 -1 5179.09 1027.76 4
3 0 0 8159.53 1264.48 4
3 0 1 8280.93 1322.43 4
3 0 2 557.205 414.699 4
3 0 3 6017.04 1164.74 2
3 0 4 14024.4 1866.16 2
3 0 5 29956.2 2775.37 2
3 0 6 30760.3 2936.04 2
3 0 7 915.281 675.027 2
3 0 8 479.086 759.881 2
3 0 8 1037.34 340.752 10
3 0 9 624.976 669.211 2
3 0 9 2084.26 424.118 10
3 0 10 1808.75 388.605 10
3 0 11 7848.13 647.674 10
3 0 12 1887.21 392.603 10
3 0 13 509.863 261.718 10
3 0 14 184.071 191.719 10
3 0 15 33.8074 150.849 10
3 0 16 530.578 148.656 10
-3 1 16 4781.46 377.521 7
-3 1 16 4294.86 349.564 6
-3 1 15 4123.58 414.056 7
-3 1 15 3683.22 376.007 6
-3 1 14 792.757 256.896 7
-3 1 14 792.980 233.620 6
-3 1 13 35334.6 1132.76 6
-3 1 13 37702.8 1271.88 7
-3 1 13 33750.2 1157.82 8
-3 1 12 15116.1 826.919 7
-3 1 12 14738.9 799.108 8
3 1 -11 31.8478 533.232 4
-3 1 11 346.171 223.804 7
-3 1 11 549.841 281.868 8
-3 1 10 84345.3 1827.45 7
-3 1 10 87066.5 4952.92 1
-3 1 10 82061.7 1780.05 8
3 1 -10 84495.2 5245.32 4
-3 1 9 72468.1 4257.07 1
-3 1 9 71018.1 1606.36 7
-3 1 9 70556.2 1598.18 8
3 1 -9 66560.4 4546.52 4
-3 1 8 34234.7 2729.28 1
3 1 -8 32938.7 3058.76 4
3 1 -7 2880.15 925.144 4
-3 1 7 3815.01 906.145 1
3 1 -6 12777.9 1796.32 4
-3 1 6 12980.4 1471.59 1
3 1 -5 591.964 451.560 4
-3 1 5 660.683 335.867 1
-3 1 5 636.979 370.463 3
3 1 -4 337.415 421.210 4
-3 1 4 -17.6032 317.475 3
-3 1 4 13.6712 258.243 1
3 1 -3 10301.4 1528.95 4
3 1 -2 542022. 10522.2 4
3 1 -1 27040.6 2394.49 4
3 1 0 48615.7 3203.89 4
3 1 1 31271.7 2614.54 4
3 1 2 1144.46 622.091 4
3 1 3 17389.5 2032.16 4
3 1 4 2952.32 981.915 2
3 1 5 177.639 540.036 2
3 1 6 95138.7 5293.95 2
3 1 7 4988.98 1361.38 2
3 1 8 10361.0 1954.53 2
3 1 8 11158.5 721.697 10
3 1 9 -20.8555 238.942 10
3 1 9 470.370 816.371 2
3 1 10 1857.12 374.469 10
3 1 11 9404.51 703.481 10
3 1 12 2064.02 357.415 10
3 1 13 2565.04 404.181 10
3 1 14 4656.25 443.105 10
3 1 15 516.342 179.879 10
-3 2 15 297.171 172.142 7
-3 2 14 71.2796 174.694 7
-3 2 14 78.7991 191.027 8
-3 2 13 2793.93 399.912 7
-3 2 13 2433.64 380.416 8
-3 2 12 470.428 239.728 7
-3 2 12 -71.5536 223.165 8
-3 2 11 1751.46 340.503 7
-3 2 11 1629.83 325.114 8
-3 2 10 16796.1 913.938 7
-3 2 10 15662.7 2382.52 1
-3 2 10 17363.4 937.866 8
3 2 -10 15990.0 2534.66 4
-3 2 9 1151.47 327.600 7
-3 2 9 1509.88 355.849 9
3 2 -9 775.164 870.453 4
-3 2 9 886.976 336.553 8
-3 2 9 2088.74 1018.73 1
3 2 -8 826.354 794.686 4
-3 2 8 1986.50 889.389 1
3 2 -7 1041.50 725.924 4
-3 2 7 968.775 517.810 1
3 2 -6 2884.15 1181.92 4
-3 2 6 4062.76 1293.37 1
3 2 -5 5933.55 1469.91 4
-3 2 5 2754.63 832.136 3
-3 2 5 7440.57 1549.89 1
3 2 -4 587.545 665.776 4
-3 2 4 417.682 455.739 3
3 2 -3 892.461 773.571 4
-3 2 3 456.904 440.402 3
3 2 -2 6684.13 1690.94 4
-3 2 2 4369.08 1043.83 3
3 2 -1 1273.46 776.354 4
3 2 0 2624.14 1047.66 4
3 2 1 5848.41 1352.26 4
3 2 2 3542.66 979.110 4
3 2 3 1214.79 768.269 4
3 2 5 11884.5 1876.25 2
3 2 6 17489.6 2379.92 2
3 2 7 1345.93 321.744 10
3 2 7 1031.35 576.313 2
3 2 8 173.812 238.440 10
3 2 8 284.232 545.697 2
3 2 9 1309.23 900.161 2
3 2 9 586.595 283.308 10
3 2 10 923.024 287.207 10
3 2 11 4398.61 477.696 10
3 2 12 1105.69 298.353 10
3 2 13 81.7839 186.421 10
3 2 14 1244.15 255.992 10
-3 3 15 -40.0332 147.279 7
-3 3 15 189.712 196.856 8
-3 3 14 133.156 183.065 7
-3 3 14 74.6367 180.560 8
-3 3 13 7726.32 555.927 7
-3 3 13 7467.38 587.077 8
-3 3 12 6239.95 532.839 7
-3 3 12 6846.88 584.990 8
-3 3 11 454.219 233.953 7
-3 3 11 505.162 292.833 8
-3 3 10 66988.6 1723.86 7
-3 3 10 70050.5 1755.53 8
-3 3 9 51235.9 4235.54 1
-3 3 9 52244.2 1503.04 7
-3 3 9 52175.2 1511.68 8
3 3 -9 51306.8 4427.31 4
-3 3 8 23780.1 2747.37 1
-3 3 8 21937.9 974.628 7
-3 3 8 23963.5 998.020 8
3 3 -8 22833.8 2876.84 4
3 3 -7 21005.0 2718.56 4
-3 3 7 19648.6 871.491 7
-3 3 7 19998.8 877.324 8
-3 3 7 19113.1 2382.98 1
3 3 -6 2669.41 910.843 4
-3 3 6 5672.88 1491.84 1
3 3 -5 39204.1 3446.85 4
-3 3 5 41043.1 3291.93 3
3 3 -4 858.019 799.692 4
-3 3 4 154.175 383.385 3
3 3 -3 369.688 778.326 4
-3 3 3 813.061 390.643 3
3 3 -2 37718.9 3264.17 4
-3 3 2 32590.8 2847.18 3
3 3 -1 27797.9 2777.37 4
-3 3 1 27820.2 2657.94 3
3 3 0 17853.2 2180.64 4
-3 3 0 18007.8 2146.17 3
3 3 1 29599.2 2827.14 4
-3 3 -1 25129.2 2463.89 3
3 3 2 9916.30 1658.51 4
-3 3 -2 8413.95 1492.49 3
3 3 3 83095.0 4757.47 4
-3 3 -3 66341.5 4073.45 3
-3 3 -4 3186.69 1015.75 3
3 3 5 622.678 281.199 14
-3 3 -5 -137.213 507.678 3
3 3 5 323.486 690.890 2
3 3 6 26455.6 2894.53 2
3 3 6 29123.9 1109.99 14
3 3 6 27972.3 1133.45 10
3 3 7 119.857 236.671 14
3 3 7 137.526 275.239 10
-3 3 -7 330.429 626.527 3
3 3 7 88.9255 515.416 2
3 3 8 79.8776 219.753 14
3 3 8 422.522 290.990 10
3 3 9 10135.6 730.902 10
3 3 10 247.356 215.614 10
3 3 11 4189.38 442.818 10
3 3 12 5.21950 171.342 10
3 3 12 160.897 194.243 8
-3 3 -15 1369.70 176.863 9
-3 4 15 329.767 165.459 8
3 4 -14 99.5047 160.807 13
-3 4 14 122.759 135.650 7
-3 4 14 198.144 184.698 8
-3 4 13 297.833 167.735 7
-3 4 13 220.182 208.546 8
-3 4 12 1841.93 302.293 7
-3 4 12 1796.94 337.124 8
-3 4 11 4446.88 464.170 7
-3 4 11 4747.20 488.262 8
-3 4 10 9278.10 711.549 7
-3 4 10 8567.10 728.950 8
-3 4 9 1207.16 363.155 7
-3 4 9 1571.63 386.293 8
-3 4 8 1715.01 378.808 7
-3 4 8 1646.36 408.605 8
3 4 -7 2324.15 1015.76 4
-3 4 7 1971.00 320.998 5
-3 4 7 1546.44 853.369 1
-3 4 7 2142.27 387.388 8
-3 4 6 1516.25 315.592 13
-3 4 6 2115.63 358.854 5
-3 4 6 1989.86 389.560 8
-3 4 5 6131.84 576.350 13
3 4 -5 3137.51 1327.93 4
-3 4 5 4641.12 626.915 8
-3 4 5 3161.92 1151.20 3
-3 4 4 2147.47 358.553 13
3 4 -4 2540.53 1049.41 4
-3 4 4 1516.71 779.564 3
-3 4 3 49.6524 231.923 13
3 4 -3 163.016 456.194 4
-3 4 3 61.3753 450.230 3
-3 4 2 2060.46 433.160 13
3 4 -2 1446.79 956.305 4
-3 4 2 1468.41 987.820 3
3 4 -1 1372.74 707.617 4
-3 4 1 1736.00 839.967 3
-3 4 0 903.376 287.420 13
3 4 0 165.866 587.741 4
-3 4 0 223.860 483.039 3
-3 4 -1 3549.53 484.246 13
3 4 1 1709.94 967.829 4
-3 4 -1 2639.03 1181.80 3
3 4 2 1306.42 375.653 14
3 4 2 273.267 526.181 4
-3 4 -2 1102.39 335.678 13
-3 4 -2 720.033 659.387 3
3 4 3 5798.14 517.661 14
-3 4 -3 5304.77 472.723 13
3 4 4 1350.15 317.843 14
-3 4 -4 647.329 226.511 13
-3 4 -4 1231.97 968.110 3
3 4 5 1997.82 385.809 14
-3 4 -5 1395.59 285.023 13
3 4 6 3473.70 501.022 14
-3 4 -6 3785.73 411.659 13
-3 4 -7 337.509 232.384 13
3 4 7 314.845 251.849 14
3 4 8 -64.3531 222.711 14
3 4 9 222.488 208.064 14
3 4 10 -71.6011 190.818 14
3 4 12 531.701 196.094 8
3 4 13 306.521 153.422 8
-3 4 -14 5685.03 348.495 9
3 5 -14 550.861 140.486 13
-3 5 14 216.367 142.046 8
-3 5 13 494.631 140.545 7
3 5 -13 410.399 168.097 13
-3 5 13 349.807 184.114 8
-3 5 12 1083.58 222.170 7
3 5 -12 1068.84 252.593 13
-3 5 12 1223.35 256.497 8
-3 5 11 2160.14 311.150 7
3 5 -11 2005.90 327.791 13
-3 5 11 2071.99 323.911 8
-3 5 10 41171.0 1268.72 7
-3 5 10 40589.7 1222.28 8
-3 5 9 17837.0 887.801 7
-3 5 9 18676.2 872.772 8
-3 5 8 6104.96 548.449 7
-3 5 8 6207.64 523.132 8
-3 5 7 19390.8 870.361 5
-3 5 7 18751.3 850.481 8
-3 5 6 7005.03 548.722 13
-3 5 6 6486.40 507.809 5
-3 5 6 7225.29 546.251 8
-3 5 5 39586.5 1258.55 13
-3 5 4 1094.37 337.332 13
3 5 -4 826.614 864.786 4
-3 5 4 2085.30 1030.48 3
-3 5 3 908.953 315.601 13
3 5 -3 995.663 704.712 4
-3 5 3 566.603 806.517 3
3 5 -2 5075.70 472.182 14
-3 5 2 4438.82 481.438 13
-3 5 2 5442.97 1563.72 3
3 5 -1 6693.68 529.655 14
-3 5 1 6245.62 542.932 13
-3 5 1 4968.72 1491.81 3
3 5 0 1361.55 306.006 14
-3 5 0 1456.56 356.232 13
-3 5 0 1652.00 330.327 9
-3 5 0 438.785 668.524 3
3 5 1 144280. 2330.23 14
-3 5 -1 141540. 2410.91 13
-3 5 -1 142840. 7296.94 3
-3 5 -1 141268. 2382.55 9
3 5 2 28682.4 1144.36 14
-3 5 -2 25436.9 1109.00 13
-3 5 -2 27441.1 1136.94 9
3 5 3 225337. 2991.48 14
-3 5 -3 229650. 3085.67 13
3 5 4 4091.33 496.768 14
-3 5 -4 3153.11 432.691 13
3 5 5 -92.8209 233.416 14
-3 5 -5 50.4049 224.741 13
-3 5 -6 3260.32 384.954 13
3 5 6 3344.10 411.217 14
-3 5 -7 879.232 237.364 13
3 5 7 934.470 302.169 14
3 5 8 237.323 210.324 14
-3 5 -8 228.680 198.700 13
3 5 9 10504.4 600.345 14
3 5 11 812.624 217.367 8
3 5 12 1617.49 218.362 8
-3 5 -13 4204.80 275.080 9
-3 6 12 -43.4391 94.5384 7
3 6 -12 12.0532 117.060 13
-3 6 12 -12.1151 149.409 8
-3 6 11 304.241 139.088 7
3 6 -11 388.625 166.584 13
-3 6 11 369.113 148.393 8
-3 6 10 63.2341 134.145 7
3 6 -10 36.5102 156.839 13
-3 6 10 240.502 159.943 8
-3 6 9 781.197 217.255 7
3 6 -9 834.346 257.168 13
-3 6 9 519.343 193.178 8
-3 6 8 79.5527 181.222 7
3 6 -8 87.3434 194.935 13
-3 6 8 -34.7609 166.940 8
-3 6 7 20.3834 189.679 7
3 6 -7 62.2696 215.223 13
-3 6 7 617.414 216.037 8
3 6 -6 -119.228 206.741 13
-3 6 6 -48.9120 167.709 5
3 6 -5 436.478 247.259 13
-3 6 5 540.283 241.633 13
3 6 -4 906.537 263.965 13
-3 6 4 1202.88 283.797 13
3 6 -3 209.694 211.677 13
-3 6 3 553.302 240.291 13
3 6 -2 204.446 185.116 14
-3 6 2 214.235 232.828 13
3 6 -2 244.193 225.596 13
3 6 -1 -106.793 190.642 14
-3 6 1 254.684 227.157 13
3 6 0 957.439 269.964 14
-3 6 0 1083.45 316.617 13
3 6 1 3280.05 447.642 14
-3 6 -1 2989.01 459.859 13
3 6 1 3322.39 482.005 5
3 6 2 961.550 326.854 14
-3 6 -2 1131.25 356.436 13
3 6 2 670.993 231.239 5
-3 6 -3 4139.45 466.020 13
-3 6 -3 3396.37 412.035 9
3 6 3 3493.61 394.490 5
3 6 4 3042.48 432.752 14
-3 6 -4 2583.28 398.183 13
-3 6 -4 2459.70 357.924 9
3 6 4 2418.47 300.414 5
-3 6 -5 475.737 243.581 13
3 6 5 510.718 237.838 14
-3 6 -5 455.478 207.131 9
-3 6 -6 247.570 187.302 13
-3 6 -6 43.1715 159.870 9
3 6 7 -14.1917 177.193 14
-3 6 -7 127.146 167.240 13
-3 6 -7 85.5753 167.120 9
3 6 8 -101.031 177.630 14
-3 6 -8 238.759 166.221 13
-3 6 -8 -13.1116 144.030 9
-3 6 -9 188.724 145.297 9
3 6 9 440.112 191.999 8
-3 6 -10 -48.3477 124.145 9
3 6 10 43.6888 134.624 8
-3 6 -11 132.180 92.2470 9
3 6 11 209.282 112.504 8
-3 7 10 13752.8 416.325 7
3 7 -10 16046.1 499.110 13
-3 7 9 4136.39 296.637 7
3 7 -9 4413.64 307.400 13
-3 7 8 1218.61 217.897 7
3 7 -8 881.531 186.412 13
-3 7 7 7730.51 474.938 7
3 7 -7 6557.10 424.939 13
-3 7 6 1165.51 245.210 7
3 7 -6 1075.12 234.567 13
3 7 -5 11236.0 553.049 13
3 7 -4 1197.58 230.040 13
-3 7 4 1197.04 228.506 13
-3 7 3 266.446 163.944 13
3 7 -3 457.446 182.559 13
-3 7 2 675.896 214.095 13
-3 7 1 451.696 202.600 13
3 7 -1 333.748 169.019 14
3 7 -1 245.123 179.097 5
-3 7 0 4879.15 430.681 13
3 7 0 5237.85 374.640 14
3 7 0 4908.22 421.000 5
3 7 1 73209.4 1364.45 14
-3 7 -1 75289.6 1554.32 13
3 7 1 71788.7 1439.56 5
3 7 2 10698.0 599.243 14
-3 7 -2 11059.8 659.937 13
3 7 2 11688.3 605.645 5
-3 7 -3 82853.7 1584.46 13
3 7 3 79536.9 1401.58 5
3 7 3 81872.9 1464.97 14
3 7 4 11231.6 557.787 14
-3 7 -4 11042.0 579.299 13
3 7 4 10680.2 488.607 5
-3 7 -5 321.232 196.554 13
-3 7 -6 819.174 186.068 13
3 7 6 633.744 179.965 8
-3 7 -7 189.766 136.423 13
3 7 7 204.284 135.310 8
-3 7 -8 986.302 144.758 13
3 7 8 829.249 143.406 8
3 7 9 1013.30 144.171 8
3 8 -7 1292.66 140.556 5
-3 8 6 291.809 104.132 7
3 8 -6 301.042 111.225 5
-3 8 5 359.390 117.475 7
3 8 -5 249.640 96.8100 5
-3 8 4 409.058 137.175 7
3 8 -4 702.114 144.917 5
3 8 -3 311.058 118.899 5
-3 8 2 189.212 108.214 13
3 8 -2 236.382 112.653 5
-3 8 1 285.574 126.559 13
3 8 -1 -37.2776 96.4044 5
-3 8 0 909.652 169.336 13
3 8 0 874.161 150.138 5
-3 8 -1 1545.85 206.757 13
3 8 1 1683.78 192.299 5
-3 8 -2 401.255 142.028 13
3 8 2 1090.55 137.473 5
-3 8 -3 2593.05 265.826 13
-3 8 -4 2058.53 221.629 13
-3 8 -5 151.734 87.1872 13
-4 -6 9 722.289 156.553 12
-4 -6 8 464.534 150.314 12
-4 -6 7 715.315 164.631 12
-4 -6 6 29168.1 816.473 12
-4 -6 5 16851.5 651.305 12
-4 -6 4 19391.7 672.633 12
-4 -6 3 1307.28 233.465 12
-4 -6 2 1032.15 203.865 12
-4 -6 1 688.687 197.199 12
-4 -5 11 386.607 157.182 12
-4 -5 10 394.803 157.218 12
-4 -5 10 209.496 168.593 6
-4 -5 9 21.4563 149.664 12
-4 -5 8 43.8053 200.485 12
-4 -5 7 243.793 161.998 12
-4 -5 6 572.277 208.277 12
-4 -5 5 965.297 230.070 12
-4 -5 4 691.591 240.628 12
-4 -4 12 6290.46 441.068 12
-4 -4 12 5603.47 452.112 7
-4 -4 11 11059.7 600.875 12
-4 -4 11 11175.2 654.640 7
-4 -4 10 294.933 225.285 7
-4 -4 10 532.325 202.913 12
-4 -4 9 7742.23 545.736 12
-4 -4 9 6665.47 565.942 7
-4 -4 8 5932.99 486.528 12
-4 -4 8 5604.43 537.866 7
-4 -4 7 381.506 275.783 7
-4 -4 7 1242.57 310.914 12
-4 -4 6 15576.5 789.847 12
-4 -4 6 15428.4 806.623 7
-4 -4 5 19997.3 885.598 7
-4 -4 -1 4121.83 478.244 11
-4 -4 -2 44282.0 1435.06 11
-4 -4 -3 19395.6 968.185 11
-4 -4 -4 21304.8 1006.08 11
-4 -4 -5 10534.2 694.216 11
-4 -4 -6 255.617 220.113 11
-4 -4 -7 13233.0 736.077 11
4 -4 7 13176.0 729.485 10
-4 -4 -8 272.277 199.302 11
4 -4 8 232.260 183.957 10
-4 -4 -9 2586.58 331.882 11
4 -4 9 1950.02 295.814 10
-4 -4 -10 2736.26 306.308 11
4 -4 10 2176.04 300.155 10
-4 -4 -11 505.359 150.188 11
4 -4 11 462.631 171.235 10
-4 -4 -12 396.582 115.441 11
4 -4 12 -64.2736 126.546 10
-4 -3 14 333.664 198.996 7
-4 -3 13 -80.0412 204.975 7
-4 -3 13 -158.548 162.049 12
-4 -3 12 607.430 267.114 7
-4 -3 12 464.925 220.586 12
-4 -3 11 -76.3685 261.726 7
-4 -3 11 353.890 197.974 12
-4 -3 10 422.186 277.511 7
-4 -3 10 475.037 259.996 12
-4 -3 9 1545.66 373.250 7
-4 -3 9 2218.59 389.685 12
-4 -3 8 427.404 259.594 7
-4 -3 8 397.450 211.327 12
-4 -3 7 15.7775 238.450 7
-4 -3 7 260.973 283.198 12
-4 -3 6 397.454 252.516 7
-4 -3 6 689.819 233.352 12
-4 -3 5 1271.08 324.055 7
-4 -3 0 3031.78 460.658 11
-4 -3 -1 2777.55 500.597 11
-4 -3 -2 81902.1 2014.01 11
-4 -3 -3 19228.8 969.920 11
-4 -3 -4 22542.0 1090.49 11
-4 -3 -5 2025.41 364.138 11
-4 -3 -6 673.361 260.627 11
4 -3 6 631.794 284.701 10
-4 -3 -7 3978.11 486.258 11
4 -3 7 2986.38 485.180 10
-4 -3 -8 242.047 248.667 11
4 -3 8 -283.325 290.242 10
-4 -3 -9 72.9699 177.732 11
4 -3 9 192.143 219.861 10
-4 -3 -10 28.8305 174.242 11
4 -3 10 230.219 201.790 10
-4 -3 -11 116.700 158.501 11
4 -3 11 -202.181 195.319 10
-4 -3 -12 56.0021 128.966 11
4 -3 12 115.400 172.824 10
-4 -3 -13 99.6538 102.739 11
4 -3 13 165.453 151.938 10
-4 -2 16 4889.64 321.761 7
-4 -2 15 519.536 218.605 7
-4 -2 14 217.765 210.967 7
-4 -2 13 1016.07 301.286 7
-4 -2 13 964.360 254.093 12
-4 -2 12 2656.87 387.820 7
-4 -2 12 2548.93 338.246 12
-4 -2 11 32.4617 233.423 7
-4 -2 11 106.585 174.504 12
-4 -2 10 12847.6 763.269 7
-4 -2 10 12325.2 704.108 12
-4 -2 9 205103. 2959.85 7
-4 -2 9 201522. 2780.18 12
-4 -2 8 87475.7 1889.70 7
-4 -2 8 88760.3 1836.49 12
-4 -2 7 29376.5 1076.17 7
-4 -2 7 29022.8 1045.25 12
-4 -2 6 2512.63 337.975 7
-4 -2 5 2252.87 328.789 7
4 -2 1 6451.74 1239.78 2
4 -2 2 53325.7 3611.41 2
-4 -2 -2 55510.1 1513.68 11
4 -2 3 14139.9 1930.14 2
-4 -2 -3 16090.2 848.819 11
4 -2 4 35959.5 3261.88 2
4 -2 4 37263.8 1281.47 10
4 -2 5 168.612 562.459 2
4 -2 5 136.966 224.979 10
4 -2 6 1873.86 1187.48 2
4 -2 6 1580.41 359.676 10
4 -2 7 426.980 272.567 10
4 -2 8 -260.205 243.375 10
4 -2 9 796.892 303.700 10
4 -2 10 10049.8 732.109 10
4 -2 11 2159.27 352.430 10
4 -2 12 6600.80 518.495 10
-4 -2 -13 124.317 137.413 11
4 -2 13 -41.2114 170.813 10
-4 -2 -14 828.210 150.836 11
4 -2 14 821.086 180.387 10
-4 -1 16 325.067 155.941 7
-4 -1 15 300.084 207.555 7
-4 -1 14 530.431 224.120 7
-4 -1 13 1200.57 302.715 7
-4 -1 12 524.579 266.348 7
-4 -1 12 570.506 205.354 12
-4 -1 11 230.303 222.892 7
-4 -1 11 466.056 210.319 12
-4 -1 10 204.678 248.194 7
-4 -1 10 -108.137 192.581 12
-4 -1 9 5678.56 531.296 7
-4 -1 9 5987.47 499.144 12
-4 -1 8 1541.48 319.382 7
-4 -1 8 2211.43 328.216 12
-4 -1 7 170.911 203.389 7
-4 -1 7 642.277 253.228 12
-4 -1 6 -148.710 201.267 7
-4 -1 6 98.9234 179.418 9
4 -1 -5 554.915 638.130 4
4 -1 -4 4479.30 1104.62 4
4 -1 -3 4455.27 1044.23 4
4 -1 -2 503.976 406.314 4
4 -1 -1 1064.37 886.700 4
4 -1 0 1356.29 751.074 2
4 -1 1 383.320 489.477 2
4 -1 2 4571.82 1492.70 2
4 -1 3 6927.46 1459.02 2
4 -1 4 9055.48 695.979 10
4 -1 4 7952.73 1664.85 2
4 -1 5 294.447 253.959 10
4 -1 5 1158.35 872.715 2
4 -1 6 163.847 662.720 2
4 -1 6 255.737 269.393 10
4 -1 7 1646.68 388.942 10
4 -1 8 277.709 245.074 10
4 -1 9 3873.11 508.816 10
4 -1 10 6384.64 589.802 10
4 -1 11 -120.398 209.909 10
4 -1 12 1600.08 301.821 10
4 -1 13 -142.914 180.245 10
4 -1 14 287.705 153.928 10
-4 0 16 5600.73 374.296 7
-4 0 15 259.983 185.276 7
-4 0 14 3250.45 393.240 7
-4 0 13 1995.96 353.901 7
-4 0 12 1999.59 378.343 7
-4 0 11 1213.48 336.878 7
-4 0 10 49365.1 1473.90 7
-4 0 9 494702. 4573.27 7
-4 0 8 163234. 2559.15 7
-4 0 8 165449. 2512.86 9
4 0 -7 61211.8 4213.13 4
-4 0 7 57886.3 1469.05 7
-4 0 7 58112.1 1474.12 9
4 0 -6 1869.69 852.528 4
-4 0 6 1477.12 254.337 9
4 0 -5 41065.3 3295.29 4
4 0 -4 10766.5 1732.69 4
4 0 -3 3406.34 952.682 4
4 0 -2 13816.5 1970.46 4
4 0 -1 228971. 7829.28 4
4 0 0 9218.46 1654.17 4
4 0 1 918.713 710.186 4
4 0 2 53635.0 3897.78 2
4 0 3 7650.88 1548.99 2
4 0 4 32767.0 3253.62 2
4 0 4 34298.3 1217.91 10
4 0 5 4727.86 541.421 10
4 0 5 4259.56 1355.58 2
4 0 6 7353.91 658.695 10
4 0 6 7644.71 1694.44 2
4 0 7 1641.04 377.722 10
4 0 7 1382.89 939.933 2
4 0 8 293.911 261.890 10
4 0 9 730.099 277.997 10
4 0 10 12248.6 798.173 10
4 0 11 4307.16 491.277 10
4 0 12 17069.9 848.746 10
4 0 13 5157.67 452.208 10
4 0 14 1902.42 265.834 10
-4 0 -15 498.744 116.404 11
-4 1 16 567.952 172.027 7
-4 1 15 -0.26658 185.317 7
-4 1 14 491.065 215.098 7
-4 1 13 1142.35 283.058 7
-4 1 12 579.960 235.759 7
-4 1 11 556.619 242.957 7
-4 1 10 226.088 208.129 7
-4 1 9 6256.74 548.780 7
4 1 -9 5972.83 1463.36 4
-4 1 9 6393.10 539.614 9
-4 1 8 1749.31 309.970 7
4 1 -8 1735.91 775.049 4
-4 1 8 2055.82 328.055 9
-4 1 7 245.373 183.539 7
4 1 -7 -67.1067 531.153 4
-4 1 7 237.006 207.555 9
-4 1 6 6.78384 187.255 7
4 1 -6 -197.634 675.599 4
-4 1 6 172.406 180.959 9
4 1 -5 459.645 741.533 4
4 1 -4 5407.27 1391.12 4
-4 1 4 4703.27 1045.55 3
4 1 -3 3211.25 1110.51 4
4 1 -2 136.456 623.396 4
4 1 -1 2527.15 1088.84 4
4 1 0 1215.29 837.979 4
4 1 1 508.845 623.521 4
4 1 2 5815.56 1945.19 4
4 1 3 7528.02 1778.78 2
4 1 4 9656.71 688.786 14
4 1 4 11185.5 791.998 10
-4 1 -4 10283.7 713.939 9
4 1 4 8201.34 1812.43 2
4 1 5 938.506 284.443 14
4 1 5 524.040 228.668 10
-4 1 -5 503.240 227.497 9
4 1 6 436.578 244.137 14
4 1 6 690.091 299.662 10
-4 1 -6 508.338 261.647 9
4 1 6 168.238 611.450 2
4 1 7 2165.50 405.605 10
4 1 8 595.856 291.441 10
4 1 9 3158.28 457.428 10
-4 1 -9 3776.13 449.653 9
4 1 10 6769.38 603.419 10
-4 1 -10 6334.18 515.605 9
4 1 11 378.362 233.648 10
4 1 12 1754.47 335.374 10
4 1 13 123.764 163.086 10
4 1 14 236.876 162.072 10
-4 2 16 6108.29 318.538 7
-4 2 15 162.856 158.560 7
-4 2 14 620.713 213.424 7
-4 2 13 1157.53 262.167 7
-4 2 12 2856.37 397.035 7
-4 2 11 119.553 218.747 7
-4 2 11 -285.580 239.066 8
-4 2 10 12244.4 764.558 7
-4 2 10 12965.4 773.824 8
-4 2 9 205427. 2992.98 7
-4 2 9 200127. 2864.16 9
-4 2 9 204446. 2984.53 8
4 2 -8 92503.8 6108.95 4
-4 2 8 88701.2 1948.69 7
-4 2 8 87430.0 1878.74 9
-4 2 8 89659.5 1951.24 8
4 2 -7 28239.5 3290.33 4
-4 2 7 28975.5 1090.26 7
-4 2 7 29044.0 1085.32 9
-4 2 7 29344.9 1112.25 8
-4 2 6 2781.70 368.443 7
4 2 -6 2167.07 1035.40 4
-4 2 6 3358.47 382.905 9
-4 2 6 2888.07 385.397 8
-4 2 5 2296.40 310.156 7
4 2 -5 2609.89 1136.34 4
-4 2 5 2720.37 358.188 9
4 2 -4 449.799 699.805 4
-4 2 4 498.864 212.163 9
-4 2 4 365.178 433.158 3
4 2 -3 1472.64 919.904 4
-4 2 3 633.627 516.966 3
4 2 -2 2258.68 1066.07 4
-4 2 2 1947.10 867.089 3
4 2 -1 69571.3 4785.42 4
-4 2 1 57018.5 3976.45 3
4 2 0 24957.0 2918.35 4
4 2 1 6434.44 1495.52 4
4 2 2 52910.3 4256.05 4
4 2 2 53718.0 1609.37 10
-4 2 -2 54241.0 1496.96 9
4 2 2 58692.6 1540.91 14
4 2 3 16241.1 828.598 14
4 2 3 13789.5 2157.18 4
4 2 3 16931.8 906.099 10
-4 2 -3 16579.5 856.350 9
4 2 4 40078.9 1351.13 14
4 2 4 39465.1 3827.87 2
4 2 4 38791.2 1378.17 10
-4 2 -4 41000.9 1368.61 9
4 2 5 352.952 273.097 14
4 2 5 695.574 299.753 10
4 2 5 117.482 622.814 2
4 2 6 1973.57 362.308 14
4 2 6 2341.06 413.012 10
4 2 6 2397.39 1076.92 2
4 2 7 977.201 315.410 14
4 2 7 1059.15 330.216 10
4 2 8 -361.012 282.203 10
4 2 9 1183.90 321.172 10
4 2 10 10758.9 718.197 10
4 2 11 1955.06 321.845 10
-4 2 -11 2280.89 334.629 9
4 2 12 6622.99 500.903 10
-4 2 -12 6596.28 434.528 9
4 2 13 78.3841 142.912 10
-4 3 15 1210.95 186.806 7
-4 3 14 194.539 160.222 7
-4 3 13 20.6893 158.533 7
-4 3 12 344.634 204.651 7
-4 3 11 126.819 194.679 7
-4 3 11 290.298 246.846 8
-4 3 10 292.941 238.539 7
-4 3 10 150.616 249.034 8
-4 3 9 2400.77 402.342 7
-4 3 9 2348.04 357.354 9
-4 3 9 2210.19 398.442 8
-4 3 8 470.144 233.359 7
-4 3 8 299.649 219.481 9
-4 3 8 235.438 262.113 8
-4 3 7 199.802 238.264 7
-4 3 7 303.578 187.072 9
-4 3 7 146.647 257.992 8
4 3 -6 -317.128 729.415 4
-4 3 6 758.314 307.380 7
-4 3 6 343.726 235.035 9
-4 3 6 285.467 256.517 8
4 3 -5 1984.44 847.524 4
-4 3 5 1428.12 309.633 7
-4 3 5 978.040 270.589 9
-4 3 5 1217.65 266.704 8
4 3 -4 1273.37 280.425 14
-4 3 4 1115.09 291.590 13
4 3 -4 642.940 554.331 4
-4 3 4 789.402 243.684 7
-4 3 4 1043.18 262.619 9
-4 3 4 194.953 429.918 3
4 3 -3 755.008 299.682 14
-4 3 3 926.405 326.282 13
4 3 -3 81.5497 647.701 4
-4 3 3 971.077 317.735 9
-4 3 3 1177.58 707.401 3
4 3 -2 1354.74 375.666 14
-4 3 2 592.234 263.180 13
4 3 -2 473.968 603.535 4
-4 3 2 1186.80 352.933 9
-4 3 2 532.424 584.685 3
4 3 -1 13395.0 867.145 14
-4 3 1 9882.49 811.526 13
4 3 -1 7251.31 1910.38 4
-4 3 1 11106.9 925.963 9
-4 3 1 5370.02 1498.90 3
4 3 0 1972.43 421.862 14
-4 3 0 1278.37 348.923 13
4 3 0 1045.89 734.683 4
-4 3 0 1702.02 897.390 3
-4 3 0 1931.76 369.933 9
4 3 1 2835.01 414.181 14
-4 3 -1 1371.29 357.297 13
4 3 1 864.222 852.578 4
-4 3 -1 2386.40 483.075 9
4 3 2 19448.5 3337.38 4
-4 3 -2 14203.4 2562.79 3
4 3 2 31766.0 1412.22 14
-4 3 -2 29072.6 1266.49 13
4 3 3 8897.92 757.743 14
-4 3 -3 8164.69 628.345 13
4 3 3 4138.84 1337.93 4
4 3 3 9462.23 873.943 10
-4 3 -3 11442.8 796.113 9
-4 3 -3 2546.34 1089.17 3
4 3 4 11251.1 877.989 14
-4 3 -4 8888.13 647.133 13
4 3 4 10957.4 971.971 10
4 3 4 8293.95 2105.57 2
4 3 5 530.016 297.239 14
4 3 5 756.515 347.299 10
-4 3 -5 769.209 308.848 9
4 3 6 881.270 342.213 14
4 3 6 761.279 297.974 10
4 3 7 3367.86 468.231 14
4 3 7 4066.51 545.841 10
4 3 8 95.3049 210.254 14
4 3 8 428.536 262.604 10
4 3 9 73.9969 220.422 10
4 3 10 245.297 218.255 10
-4 3 -10 176.684 210.890 9
-4 3 -11 -130.601 175.785 9
-4 3 -12 65.8568 131.583 9
-4 3 -13 209.660 119.737 9
4 4 -14 1192.93 171.241 13
-4 4 14 1282.35 180.912 7
-4 4 13 1777.12 256.331 7
-4 4 12 5798.99 455.694 7
-4 4 11 11089.7 645.044 7
-4 4 11 11028.3 639.334 8
-4 4 10 433.145 217.811 7
-4 4 10 413.615 236.458 8
-4 4 9 7471.82 595.079 7
-4 4 9 7915.33 583.634 8
-4 4 8 6019.63 544.463 7
-4 4 8 5744.62 530.659 8
-4 4 7 942.221 295.572 7
-4 4 7 709.156 216.264 9
-4 4 7 925.650 311.657 8
-4 4 6 15650.9 849.057 7
-4 4 6 15350.7 757.968 9
-4 4 6 15060.9 786.944 8
-4 4 5 19390.5 952.786 7
-4 4 5 19151.0 932.593 13
-4 4 5 18697.4 856.154 9
4 4 -4 24162.8 951.337 14
-4 4 4 22009.4 994.147 13
-4 4 4 21540.3 933.705 9
-4 4 3 279.221 206.325 9
-4 4 3 -298.617 805.824 3
4 4 -2 2747.98 390.604 14
-4 4 2 2673.59 409.700 13
4 4 -2 2836.55 1164.14 4
-4 4 2 2445.58 386.756 9
-4 4 2 2184.84 1033.55 3
4 4 -1 297.343 258.166 14
-4 4 1 378.353 302.581 13
4 4 -1 -520.368 937.774 4
-4 4 1 438.173 254.170 9
-4 4 1 860.762 783.247 3
4 4 0 20563.9 965.684 14
-4 4 0 20316.9 945.447 13
-4 4 0 18897.7 2659.06 3
4 4 0 18923.8 2678.73 4
-4 4 0 18973.1 932.564 9
-4 4 -1 4237.12 491.928 13
-4 4 -1 3837.86 450.040 9
4 4 1 4509.30 517.734 14
4 4 2 44791.2 1425.82 14
-4 4 -2 45309.0 1376.84 13
-4 4 -2 41096.2 1397.04 9
4 4 3 20088.5 958.525 14
-4 4 -3 19267.7 911.037 13
-4 4 -3 18275.8 935.761 9
-4 4 -4 21344.8 939.149 13
4 4 4 22235.1 994.784 14
-4 4 -4 21086.2 1024.27 9
4 4 5 10603.4 721.850 14
-4 4 -5 11155.6 663.596 13
-4 4 -5 9930.94 712.247 9
4 4 6 23.6409 226.636 14
-4 4 -6 229.904 200.832 13
-4 4 -6 -22.4508 206.421 9
4 4 7 12522.0 692.767 14
-4 4 -7 13624.6 817.608 9
4 4 8 464.879 202.523 14
-4 4 -8 -79.8395 231.812 9
4 4 9 1761.16 276.219 14
-4 4 -9 1826.73 312.213 9
-4 4 -10 2717.83 327.491 9
-4 4 -11 1591.11 231.733 9
4 4 11 419.976 145.976 8
-4 4 -12 -11.9494 105.823 9
-4 5 13 158.907 111.220 7
4 5 -13 142.476 99.6718 13
-4 5 12 502.902 157.395 7
4 5 -12 655.329 179.524 13
-4 5 11 68.3414 132.333 7
-4 5 10 417.023 190.992 7
-4 5 9 143.355 175.872 7
-4 5 8 379.947 209.579 7
-4 5 7 258.387 182.123 7
-4 5 6 554.674 252.883 7
-4 5 5 1021.54 265.479 7
-4 5 4 168.748 211.279 13
-4 5 4 711.632 215.046 9
4 5 -3 1044.29 243.200 14
-4 5 3 1198.30 326.497 13
-4 5 3 1359.54 274.080 9
4 5 -2 1005.54 305.928 14
-4 5 2 529.880 264.327 13
-4 5 2 548.594 220.886 9
4 5 -1 399.368 277.973 14
-4 5 1 252.382 270.324 13
-4 5 1 756.535 256.696 9
4 5 0 255.593 240.047 14
-4 5 0 547.542 284.954 13
-4 5 0 331.540 216.514 9
4 5 1 1386.90 374.771 14
-4 5 -1 602.092 324.719 13
-4 5 -1 1529.23 349.501 9
4 5 2 8175.26 809.141 14
-4 5 -2 7535.76 747.353 13
-4 5 -2 9370.51 801.259 9
4 5 3 3403.45 413.978 14
-4 5 -3 2642.77 392.620 9
4 5 4 669.779 268.469 14
-4 5 -4 488.648 229.008 13
-4 5 -4 362.906 241.240 9
4 5 5 358.312 215.519 14
-4 5 -5 -70.6636 208.089 13
-4 5 -5 264.584 207.364 9
4 5 6 301.310 212.197 14
-4 5 -6 97.3940 187.310 13
-4 5 -6 -109.418 188.118 9
4 5 7 1269.17 261.993 14
-4 5 -7 1431.24 243.770 13
-4 5 -7 1400.15 273.888 9
4 5 8 145.849 163.511 14
-4 5 -8 -237.740 189.395 9
4 5 9 633.278 165.268 14
-4 5 -9 1026.59 211.997 9
-4 5 -10 401.904 139.707 9
4 5 10 698.706 179.851 8
-4 5 -11 586.242 117.467 9
-4 6 11 13739.4 459.539 7
4 6 -11 14904.4 473.577 13
-4 6 10 367.257 133.314 7
4 6 -10 91.9775 125.577 13
-4 6 9 789.924 186.760 7
4 6 -9 883.127 196.393 13
-4 6 8 339.761 152.913 7
4 6 -8 393.654 190.354 13
-4 6 7 751.461 216.762 7
4 6 -7 632.599 220.349 13
-4 6 6 29937.6 997.810 7
4 6 -6 27420.0 902.725 13
-4 6 5 16058.2 759.007 7
4 6 -5 15530.2 691.104 13
-4 6 4 19122.8 824.341 7
-4 6 4 18528.8 798.622 13
4 6 -4 18415.9 734.960 13
-4 6 3 1377.27 286.017 13
4 6 -3 640.245 187.394 13
4 6 -2 724.343 183.030 14
-4 6 2 1253.97 269.688 13
-4 6 1 -73.9653 185.721 13
4 6 -1 -15.3739 142.228 5
4 6 0 4408.86 417.691 14
-4 6 0 3457.35 394.389 13
-4 6 0 3198.78 315.191 9
4 6 1 296.603 197.910 14
-4 6 -1 15.2660 181.768 13
-4 6 -1 265.351 153.172 9
4 6 2 26036.7 881.907 14
-4 6 -2 28284.9 998.987 13
-4 6 -2 25739.5 860.385 9
4 6 3 8805.32 532.272 14
-4 6 -3 8691.92 556.433 13
-4 6 -3 8163.71 505.778 9
4 6 4 4621.79 391.852 14
-4 6 -4 5008.64 418.581 13
-4 6 -4 3813.78 350.656 9
4 6 5 3711.68 342.575 14
-4 6 -5 3679.76 342.518 13
-4 6 -5 3367.32 319.903 9
4 6 6 32.3803 149.808 14
-4 6 -6 277.252 151.305 13
-4 6 -6 133.807 123.666 9
4 6 7 12047.6 510.282 14
-4 6 -7 13304.4 459.752 13
-4 6 -7 11482.8 502.285 9
-4 6 -8 405.996 123.560 9
4 6 8 616.526 160.584 8
-4 6 -9 1402.20 153.806 9
4 6 9 1552.09 173.208 8
-4 7 8 216.431 94.6862 7
4 7 -8 99.2832 100.922 13
-4 7 7 935.467 155.583 7
4 7 -7 761.166 130.072 13
-4 7 6 207.262 118.460 7
4 7 -6 321.528 111.850 13
4 7 -5 -132.557 105.422 13
-4 7 5 -48.9960 114.974 7
4 7 -5 28.7323 97.9296 5
-4 7 4 740.560 173.916 7
4 7 -4 756.511 160.196 5
-4 7 3 1763.66 232.433 7
4 7 -3 1711.85 214.739 5
-4 7 2 -123.368 138.856 13
-4 7 2 54.2196 132.318 7
4 7 -2 36.7721 104.011 5
-4 7 1 861.189 217.782 13
-4 7 1 609.798 195.273 7
4 7 -1 975.154 169.812 5
4 7 0 340.750 129.312 14
-4 7 0 503.381 177.922 13
-4 7 0 397.816 137.220 7
4 7 1 1389.06 185.629 14
-4 7 -1 1552.11 205.310 7
-4 7 -1 1525.75 224.806 13
4 7 2 786.355 172.713 14
-4 7 -2 770.330 192.610 13
4 7 3 -249.877 137.581 14
-4 7 -3 223.229 132.275 13
-4 7 -4 2882.18 265.883 13
-4 7 -5 1846.91 185.425 13
4 7 5 1282.38 157.317 8
-5 -6 7 904.677 140.896 12
-5 -6 6 356.817 113.406 12
-5 -6 5 27.8563 90.2442 12
-5 -6 4 31.6162 98.4546 12
-5 -6 3 869.818 158.900 12
-5 -6 2 967.873 162.853 12
-5 -6 1 657.248 143.358 12
-5 -6 0 47.4921 103.288 12
-5 -6 -1 520.268 128.011 12
-5 -6 -2 1371.92 153.066 12
-5 -5 10 6160.20 318.093 12
-5 -5 9 1064.81 167.665 12
-5 -5 8 850.186 192.536 12
-5 -5 7 3258.42 286.389 12
-5 -5 6 150.498 144.904 12
-5 -5 5 3607.67 330.774 12
-5 -5 4 6657.04 432.721 12
-5 -5 3 4750.20 383.054 12
-5 -4 11 39.7546 116.201 12
-5 -4 10 442.223 161.960 12
-5 -4 9 4464.97 375.504 12
-5 -4 8 5472.06 465.769 12
-5 -4 7 7283.35 590.478 12
-5 -4 6 306.679 185.611 12
-5 -4 5 3588.14 439.985 12
-5 -4 -5 128.154 167.108 11
-5 -4 -6 326.461 188.181 11
-5 -4 -7 387.456 181.402 11
-5 -4 -8 847.061 177.656 11
-5 -3 13 520.852 177.207 7
-5 -3 12 5372.52 369.350 12
-5 -3 12 6062.96 412.165 7
-5 -3 11 2517.42 319.005 7
-5 -3 11 2721.66 294.177 12
-5 -3 10 -51.3583 197.625 7
-5 -3 10 314.148 186.582 12
-5 -3 9 1510.08 301.897 7
-5 -3 9 1224.17 252.317 12
-5 -3 8 32144.6 1053.25 7
-5 -3 8 32790.5 1053.36 12
-5 -3 7 20651.6 860.937 7
-5 -3 7 21518.0 876.614 12
-5 -3 6 2121.85 332.556 12
-5 -3 -2 651.976 262.822 11
-5 -3 -3 49962.3 1523.69 11
-5 -3 -4 18454.0 920.698 11
-5 -3 -5 3653.28 437.111 11
-5 -3 -6 2299.12 353.264 11
-5 -3 -7 4484.11 435.479 11
5 -3 7 4375.63 409.448 10
-5 -3 -8 2040.43 300.856 11
5 -3 8 2028.64 310.940 10
-5 -3 -9 416.523 183.434 11
5 -3 9 329.178 175.837 10
-5 -3 -10 2007.18 235.207 11
5 -3 10 1673.90 218.770 10
-5 -3 -11 1688.45 189.639 11
-5 -2 15 1103.38 160.237 7
-5 -2 14 -146.272 167.272 7
-5 -2 13 225.203 173.489 7
-5 -2 12 -238.991 222.549 7
-5 -2 12 226.513 128.068 12
-5 -2 11 -62.0702 211.064 7
-5 -2 11 161.733 157.457 12
-5 -2 10 68.5964 206.901 7
-5 -2 10 481.553 181.361 12
-5 -2 9 1380.69 324.060 7
-5 -2 9 1820.20 353.275 12
-5 -2 8 3645.92 492.922 7
-5 -2 8 5011.49 562.173 12
-5 -2 7 4943.89 500.789 7
-5 -2 7 7051.27 668.235 12
-5 -2 6 -85.7959 221.976 7
-5 -2 6 268.132 222.720 12
-5 -2 0 11306.0 888.839 11
-5 -2 -1 426.990 266.727 11
-5 -2 -2 3917.58 471.984 11
-5 -2 -3 8125.88 775.924 11
-5 -2 -4 3487.57 486.674 11
-5 -2 -5 5916.23 549.276 11
5 -2 5 6269.36 543.618 10
-5 -2 -6 923.360 283.187 11
5 -2 6 265.305 220.242 10
-5 -2 -7 95.9704 186.660 11
5 -2 7 -208.255 218.491 10
-5 -2 -8 276.028 198.026 11
5 -2 8 50.6844 198.166 10
-5 -2 -9 364.782 182.594 11
5 -2 9 -36.1813 204.282 10
-5 -2 -10 123.562 134.191 11
5 -2 10 229.947 161.397 10
-5 -2 -11 690.579 168.708 11
5 -2 11 822.548 192.813 10
-5 -2 -12 -16.3995 89.8107 11
5 -2 12 152.784 112.355 10
-5 -1 15 18679.5 580.523 7
-5 -1 14 6466.89 427.599 7
-5 -1 13 11875.0 604.750 7
-5 -1 12 3742.02 385.503 7
-5 -1 12 3040.48 294.616 12
-5 -1 11 -31.2609 193.209 7
-5 -1 11 316.904 221.434 12
-5 -1 10 3724.26 432.548 7
-5 -1 10 3486.66 357.937 12
-5 -1 9 40565.0 1274.91 7
-5 -1 9 40609.4 1129.21 12
-5 -1 8 166066. 2545.93 7
-5 -1 8 167470. 2329.03 12
-5 -1 7 54388.5 1444.66 7
-5 -1 7 53885.2 1354.98 12
-5 -1 6 20824.5 879.082 7
-5 -1 6 20136.4 843.723 12
-5 -1 6 19986.4 870.203 9
-5 -1 5 11568.3 654.608 9
-5 -1 4 494.064 194.841 9
-5 -1 3 2490.90 340.446 9
-5 -1 2 2691.72 333.634 9
-5 -1 0 4135.11 474.709 11
-5 -1 -1 -138.286 203.455 11
-5 -1 -2 317.419 199.070 11
-5 -1 -3 215711. 3101.81 11
5 -1 3 213211. 3069.12 10
-5 -1 -4 45375.5 1463.77 11
5 -1 4 45877.6 1499.09 10
-5 -1 -5 45631.6 1471.29 11
5 -1 5 49209.5 1547.05 10
-5 -1 -6 3672.46 440.961 11
5 -1 6 3643.57 466.655 10
-5 -1 -7 4249.66 458.752 11
5 -1 7 4528.32 505.670 10
-5 -1 -8 2510.05 358.794 11
5 -1 8 2269.00 383.297 10
-5 -1 -9 711.160 230.022 11
5 -1 9 851.992 276.789 10
-5 -1 -10 807.441 210.955 11
5 -1 10 904.301 256.419 10
-5 -1 -11 12263.7 572.521 11
5 -1 11 12882.2 618.725 10
-5 -1 -12 3480.89 270.146 11
5 -1 12 3068.27 289.232 10
-5 0 15 1992.64 226.429 7
-5 0 14 429.905 189.216 7
-5 0 13 -53.7108 164.172 7
-5 0 12 -83.2786 186.826 7
-5 0 11 103.217 190.182 7
-5 0 10 -53.0849 199.089 7
-5 0 9 137.656 265.757 7
-5 0 8 77.8280 196.107 7
-5 0 7 5473.58 505.569 7
-5 0 7 5700.53 493.098 9
-5 0 6 -36.9739 210.833 7
-5 0 6 -19.1723 180.184 9
-5 0 5 32.0234 215.296 7
-5 0 5 -8.87487 175.851 9
5 0 -4 -111.403 716.312 4
-5 0 4 -68.1914 192.636 9
5 0 -3 24.0571 650.093 4
-5 0 3 -138.403 196.950 9
5 0 -2 877.761 686.111 4
-5 0 2 364.782 207.250 9
5 0 -1 952.216 855.984 4
-5 0 1 668.354 245.566 9
-5 0 0 1233.26 262.831 11
-5 0 0 899.253 246.693 9
5 0 0 727.134 730.260 2
-5 0 -1 1722.41 321.772 11
-5 0 -1 1195.34 257.725 9
-5 0 -2 9338.74 633.266 11
5 0 2 8879.69 689.464 10
-5 0 -2 8972.79 583.763 9
5 0 2 8621.53 1914.19 2
-5 0 -3 7334.31 584.439 11
5 0 3 7150.75 642.397 10
-5 0 -3 7072.29 517.386 9
5 0 4 2964.40 403.706 14
-5 0 -4 3120.46 398.289 11
5 0 4 3630.02 495.298 10
-5 0 -5 18482.6 912.123 11
5 0 5 19492.5 1009.38 10
5 0 5 18531.8 891.176 14
-5 0 -6 3453.86 435.321 11
5 0 6 3451.58 478.610 10
-5 0 -7 1488.47 324.491 11
5 0 7 1553.28 345.922 10
-5 0 -8 328.444 213.585 11
5 0 8 263.289 229.192 10
-5 0 -9 146.813 164.610 11
5 0 9 -163.601 217.656 10
-5 0 -10 963.952 222.569 11
5 0 10 1594.23 286.908 10
-5 0 -11 3058.15 316.302 11
5 0 11 3705.72 362.090 10
-5 0 -12 264.093 115.480 11
5 0 12 714.372 179.463 10
-5 1 15 18806.4 575.445 7
-5 1 14 6158.67 414.628 7
-5 1 13 11264.4 599.395 7
-5 1 12 3980.13 405.954 7
-5 1 11 -141.788 198.314 7
-5 1 10 3222.77 397.308 7
-5 1 9 41448.3 1310.41 7
-5 1 8 165451. 2629.43 7
-5 1 8 174012. 2657.17 9
-5 1 7 54473.2 1483.71 7
-5 1 7 56942.6 1538.74 9
-5 1 6 21736.0 946.891 9
-5 1 6 21412.8 925.895 7
-5 1 5 12076.6 669.719 7
-5 1 5 12578.9 729.439 9
5 1 -4 1019.81 834.636 4
-5 1 4 418.338 201.206 9
5 1 -3 4085.79 1325.05 4
-5 1 3 2879.58 389.265 9
5 1 -2 2358.62 728.229 4
-5 1 2 2489.56 388.435 9
5 1 -1 832.796 815.313 4
-5 1 1 1648.49 349.248 9
5 1 0 4492.39 1494.61 4
-5 1 0 3748.65 437.073 9
5 1 1 34.6784 245.014 10
5 1 1 92.0956 625.551 2
-5 1 -1 316.269 225.865 9
5 1 2 -174.434 258.727 14
5 1 2 216.034 265.572 10
-5 1 -2 33.7203 189.197 9
5 1 3 216138. 3098.99 14
5 1 3 212610. 3324.60 10
-5 1 -3 214072. 2947.39 9
5 1 4 47835.4 1595.58 10
-5 1 -4 47353.3 1399.52 9
5 1 4 45504.4 1462.99 14
5 1 5 48973.6 1491.65 14
5 1 5 47009.9 1605.92 10
-5 1 -5 49052.6 1404.11 9
5 1 6 3437.19 416.145 14
-5 1 -6 4196.88 423.552 11
5 1 6 4159.61 502.223 10
-5 1 -6 3848.52 407.329 9
-5 1 -7 4327.11 417.075 11
5 1 7 4807.56 506.011 10
-5 1 -7 4560.90 416.916 9
-5 1 -8 2091.89 295.974 11
5 1 8 2039.74 353.597 10
-5 1 -9 729.353 208.915 11
5 1 9 704.447 255.423 10
-5 1 -10 579.650 163.273 11
5 1 10 892.410 250.603 10
-5 1 -11 10033.2 454.285 11
5 1 11 13285.3 646.865 10
5 1 12 3178.45 283.126 10
-5 2 15 1376.46 166.330 7
-5 2 14 -14.4680 123.118 7
-5 2 13 285.160 161.799 7
-5 2 12 271.200 186.373 7
-5 2 11 285.276 199.999 7
-5 2 10 316.243 209.277 7
-5 2 9 1497.98 317.144 7
-5 2 8 4373.85 545.642 9
-5 2 8 4747.99 559.725 7
-5 2 7 6178.38 558.391 7
-5 2 7 6888.26 641.095 9
5 2 -6 70.7909 212.733 14
-5 2 6 128.755 200.083 7
-5 2 6 18.1892 192.734 9
5 2 -5 2094.94 408.229 14
-5 2 5 1005.67 328.284 7
-5 2 5 1605.00 412.178 9
-5 2 4 2863.16 405.497 7
5 2 -4 3868.76 619.856 14
5 2 -3 4673.73 574.958 14
-5 2 3 3702.21 551.095 9
5 2 -2 2436.59 465.673 14
-5 2 2 2333.57 476.249 9
5 2 -1 1145.79 518.170 14
-5 2 1 1293.06 368.059 9
5 2 0 6602.70 748.423 14
-5 2 0 10060.7 757.738 9
5 2 1 148.314 296.784 14
-5 2 -1 486.995 236.930 9
5 2 2 3544.94 462.820 14
-5 2 -2 3383.85 424.675 9
5 2 3 4471.33 596.900 14
5 2 3 5858.91 774.827 10
-5 2 -3 6886.84 672.071 9
5 2 4 1908.33 371.972 14
5 2 4 2546.55 470.173 10
-5 2 -4 3160.49 457.788 9
5 2 5 5803.03 565.792 14
5 2 5 6443.04 612.125 10
-5 2 -5 6030.39 542.730 9
5 2 6 906.164 299.876 14
5 2 6 938.467 339.965 10
-5 2 -6 771.834 283.368 9
5 2 7 -284.728 199.010 14
5 2 7 -42.8043 237.503 10
-5 2 -7 -180.867 215.934 9
5 2 8 -235.816 243.801 10
-5 2 -8 -120.387 163.573 9
5 2 9 399.756 223.175 10
-5 2 -9 300.757 156.906 9
5 2 10 333.250 194.050 10
-5 2 -10 105.404 119.535 9
-5 3 14 7.52108 109.306 7
-5 3 13 658.083 171.815 7
-5 3 12 6292.89 445.255 7
-5 3 11 3250.98 359.575 7
-5 3 10 273.609 178.686 7
-5 3 9 1143.61 265.200 7
-5 3 8 31958.8 1102.30 7
-5 3 8 32247.2 1069.96 9
-5 3 7 21594.7 919.543 7
-5 3 7 21221.9 892.174 9
-5 3 6 4078.81 426.512 7
-5 3 6 2086.17 312.127 9
5 3 -5 3334.99 386.825 14
-5 3 5 3074.13 378.310 7
-5 3 5 3505.79 417.948 9
5 3 -4 6303.90 540.719 14
-5 3 4 6544.01 528.267 7
-5 3 4 6416.12 538.998 9
5 3 -3 6628.97 587.491 14
-5 3 3 6770.98 501.907 7
-5 3 3 6154.72 543.017 9
5 3 -2 697.886 329.282 14
-5 3 2 725.628 281.059 9
5 3 -1 995.158 393.902 14
-5 3 1 1142.88 394.148 9
5 3 0 8823.74 681.999 14
-5 3 0 8159.43 632.433 9
5 3 1 8869.85 672.043 14
-5 3 -1 8595.66 641.078 9
5 3 2 459.964 295.231 14
-5 3 -2 523.280 266.539 9
5 3 3 43190.5 1419.04 14
-5 3 -3 42987.8 1396.44 9
5 3 4 17116.4 898.870 14
-5 3 -4 17045.4 875.291 9
5 3 5 3572.90 423.686 14
-5 3 -5 4416.99 496.658 9
5 3 6 2170.13 343.201 14
-5 3 -6 2546.26 366.999 9
5 3 7 3396.65 359.166 14
-5 3 -7 4267.08 424.068 9
5 3 8 1478.59 226.928 14
-5 3 -8 1743.82 277.786 9
-5 3 -9 48.3614 127.098 9
-5 3 -10 1841.07 213.849 9
-5 4 13 1889.50 183.420 7
-5 4 12 220.373 134.028 7
-5 4 11 95.8523 135.585 7
-5 4 10 455.621 177.026 7
-5 4 9 3966.45 385.299 7
-5 4 8 3959.89 442.581 7
-5 4 7 4305.63 492.563 7
-5 4 7 3736.41 414.884 9
-5 4 6 189.313 195.468 7
-5 4 6 286.747 179.488 9
5 4 -5 2717.50 331.992 14
-5 4 5 2151.50 364.728 7
-5 4 5 2098.67 337.169 9
5 4 -4 3204.03 398.879 14
-5 4 4 2542.46 393.550 7
-5 4 4 3618.85 436.371 9
5 4 -3 1267.92 332.521 14
-5 4 3 1157.58 280.275 7
-5 4 3 1827.43 346.065 9
5 4 -2 365.322 280.174 14
-5 4 2 3.31634 169.076 7
-5 4 2 670.358 261.374 9
5 4 -1 678.179 279.024 14
-5 4 1 956.099 282.887 9
5 4 0 5480.26 551.991 14
-5 4 0 3799.97 527.971 9
5 4 1 744.870 283.848 14
-5 4 -1 666.866 284.315 13
-5 4 -1 987.500 292.917 9
5 4 2 605.209 250.070 14
-5 4 -2 636.838 233.469 9
5 4 3 2301.38 418.394 14
-5 4 -3 3367.56 470.219 9
5 4 4 387.896 215.194 14
-5 4 -4 231.387 194.581 9
5 4 5 -23.9133 181.174 14
-5 4 -5 227.299 176.195 9
5 4 6 123.190 181.035 14
-5 4 -6 455.177 194.972 9
5 4 7 354.716 170.805 14
-5 4 -7 25.4333 148.409 9
5 4 8 561.670 140.271 14
-5 4 -8 593.696 166.887 9
-5 4 -9 287.977 123.588 9
-5 4 -10 665.742 119.856 9
-5 5 11 6166.31 313.903 7
5 5 -11 6303.01 302.926 13
-5 5 10 6118.91 355.833 7
5 5 -10 6444.53 356.530 13
-5 5 9 1046.05 197.127 7
-5 5 8 746.427 191.734 7
-5 5 7 3585.12 335.928 7
-5 5 6 96.9603 139.726 7
-5 5 5 3833.37 367.724 7
-5 5 5 3354.85 294.474 9
-5 5 4 7063.98 469.123 7
-5 5 4 6249.71 409.111 9
5 5 -3 4865.48 374.844 14
-5 5 3 5028.70 407.468 7
-5 5 3 4768.41 380.850 9
5 5 -2 816.674 220.364 14
-5 5 2 782.321 190.641 7
-5 5 2 567.261 184.381 9
5 5 -1 219.739 200.438 14
-5 5 1 561.673 193.422 9
5 5 0 15424.9 687.490 14
-5 5 0 14314.2 671.289 9
5 5 1 16694.0 714.836 14
-5 5 -1 16697.4 726.845 9
5 5 2 1127.06 249.572 14
-5 5 -2 1226.54 246.427 9
5 5 3 0.51498 166.063 14
-5 5 -3 164.080 155.914 9
5 5 4 705.415 209.583 14
-5 5 -4 559.691 177.387 9
5 5 5 3726.37 320.368 14
-5 5 -5 3588.81 320.102 9
5 5 6 13068.2 521.211 14
-5 5 -6 14147.3 572.682 9
5 5 7 1935.08 201.484 14
-5 5 -7 1880.62 210.518 9
-5 5 -8 8788.18 357.192 9
-5 6 8 496.818 117.804 7
5 6 -8 -88.1300 94.8351 13
-5 6 7 343.192 125.871 7
5 6 -7 -243.206 113.027 13
-5 6 6 308.283 132.673 7
5 6 -6 190.267 106.378 13
-5 6 5 14.9546 115.292 7
5 6 -5 268.444 116.237 13
-5 6 4 65.1374 111.101 7
-5 6 3 438.208 141.025 7
5 6 -2 540.039 144.202 14
-5 6 2 583.532 145.263 7
5 6 -1 285.081 138.486 14
-5 6 1 367.986 121.908 9
5 6 0 -126.296 132.014 14
-5 6 0 -10.1066 100.743 9
5 6 1 226.364 142.289 14
-5 6 -1 333.945 107.013 9
5 6 2 714.687 163.269 14
-5 6 -2 823.832 142.147 9
5 6 3 136.241 117.629 14
-5 6 -3 84.1168 88.4222 9
5 6 4 -1.05734 101.366 14
-5 6 -4 -63.6315 83.4310 9
5 6 5 67.7464 94.7438 14
-5 6 -5 97.5586 75.2334 9
-6 -5 6 3152.69 215.329 12
-6 -5 5 1360.34 155.032 12
-6 -5 4 451.420 127.324 12
-6 -5 3 -132.024 102.487 12
-6 -5 2 63.4871 90.0549 12
-6 -5 1 630.054 148.778 12
-6 -5 0 1726.83 183.247 12
-6 -5 -1 521.915 114.929 12
-6 -5 -2 -57.1819 71.5922 12
-6 -4 9 3681.30 220.815 12
-6 -4 8 6518.12 325.638 12
-6 -4 7 15877.2 523.920 12
-6 -4 6 20298.0 627.745 12
-6 -4 5 292.787 136.167 12
-6 -4 4 362.805 135.863 12
-6 -4 3 418.259 164.384 12
-6 -4 2 426.920 163.405 12
-6 -3 10 35.3631 86.3783 12
-6 -3 9 1511.94 195.278 12
-6 -3 8 4531.90 368.961 12
-6 -3 7 10881.8 549.555 12
-6 -3 6 9001.41 519.100 12
-6 -3 5 1093.55 215.389 12
-6 -3 4 690.633 212.366 12
-6 -2 11 8150.57 367.100 7
-6 -2 10 -225.497 154.429 7
-6 -2 10 -36.2511 101.524 12
-6 -2 9 -329.620 176.253 7
-6 -2 9 351.524 134.510 12
-6 -2 8 2522.13 266.093 12
-6 -2 7 4875.88 365.877 12
-6 -2 6 3657.43 332.207 12
-6 -2 5 5107.87 408.052 12
-6 -2 -6 1622.65 250.297 11
-6 -2 -7 2487.23 258.241 11
-6 -1 12 1652.67 198.559 7
-6 -1 11 589.954 190.166 7
-6 -1 10 209.970 163.051 7
-6 -1 9 -808.806 231.570 7
-6 -1 8 255.342 185.940 7
-6 -1 6 1259.38 271.947 12
-6 -1 5 725.748 241.453 12
-6 -1 4 74.8240 150.145 12
-6 -1 3 1045.57 218.555 9
6 -1 2 690.483 247.379 14
6 -1 3 4967.00 434.576 14
-6 -1 -4 5496.80 489.647 11
-6 -1 -5 181.957 159.255 11
-6 -1 -6 3821.85 364.518 11
6 -1 6 4026.11 363.815 10
-6 -1 -7 666.373 178.325 11
6 -1 7 42.4975 148.888 10
-6 -1 -8 -134.314 121.068 11
6 -1 8 230.170 144.117 10
-6 0 13 4115.10 250.288 7
-6 0 12 72.8006 124.956 7
-6 0 11 11059.2 501.601 7
-6 0 10 78.3676 152.062 7
-6 0 9 5641.71 399.375 7
-6 0 8 1786.44 267.876 7
-6 0 7 1777.23 265.630 7
-6 0 5 12985.1 675.833 9
-6 0 4 31448.0 1025.87 9
-6 0 3 19180.1 803.576 9
-6 0 2 12281.2 641.032 9
-6 0 1 3584.84 367.774 9
-6 0 0 33.7398 143.153 9
6 0 1 867.131 288.852 14
-6 0 -1 591.139 166.429 9
6 0 2 1558.97 310.480 14
6 0 3 300.382 232.257 14
-6 0 -4 110841. 1805.87 11
6 0 4 106944. 1976.40 10
-6 0 -5 40308.7 1069.65 11
6 0 5 38124.0 1183.27 10
-6 0 -6 5353.99 383.193 11
6 0 6 5787.46 462.150 10
-6 0 -7 3809.86 302.491 11
6 0 7 4313.94 388.853 10
-6 0 -8 2244.12 218.292 11
6 0 8 2829.25 297.159 10
-6 1 12 1990.04 225.478 7
-6 1 11 625.274 159.971 7
-6 1 10 237.351 149.286 7
-6 1 9 -15.0530 152.033 7
6 1 -8 398.731 189.554 14
-6 1 8 155.582 174.930 7
-6 1 7 2050.89 283.616 7
-6 1 7 2637.42 371.256 9
6 1 -6 611.053 258.711 14
-6 1 6 940.333 286.106 9
6 1 -5 245.888 220.978 14
-6 1 5 267.972 188.030 9
6 1 -4 -439.179 243.044 14
-6 1 4 -205.240 192.109 9
6 1 -3 1381.16 340.648 14
-6 1 3 951.911 259.185 9
6 1 -2 4239.49 470.782 14
-6 1 2 3606.24 408.150 9
6 1 -1 1882.10 358.265 14
-6 1 1 1878.50 312.934 9
6 1 0 -46.3311 239.463 14
-6 1 0 36.7218 167.490 9
6 1 1 327.853 258.505 14
-6 1 -1 604.600 203.831 9
6 1 2 752.552 288.940 14
-6 1 -2 930.691 241.079 9
6 1 3 5849.74 529.838 14
-6 1 -3 5885.41 427.570 9
6 1 4 4338.99 430.451 14
-6 1 -4 5079.21 386.831 9
6 1 5 157.338 173.147 14
-6 1 -5 290.833 136.078 9
-6 2 12 1043.95 154.907 7
-6 2 11 8687.70 417.644 7
-6 2 10 77.0845 129.092 7
-6 2 9 441.444 245.616 7
-6 2 8 2509.92 286.366 7
-6 2 7 5100.25 397.491 7
6 2 -7 5483.74 409.197 14
-6 2 7 5386.01 423.824 9
-6 2 6 3924.25 342.680 7
6 2 -6 4126.18 403.806 14
-6 2 6 4091.93 381.337 9
6 2 -5 6166.63 494.149 14
-6 2 5 5754.81 484.406 9
6 2 -4 14297.1 739.201 14
-6 2 4 13116.1 694.536 9
6 2 -3 9743.31 630.668 14
-6 2 3 9087.70 589.413 9
6 2 -2 4978.22 476.618 14
-6 2 2 4787.64 433.330 9
6 2 -1 172.554 247.449 14
-6 2 1 171.346 176.447 9
6 2 0 80.6955 228.421 14
-6 2 0 -20.1580 157.383 9
6 2 1 962.992 288.092 14
-6 2 -1 780.584 226.011 9
6 2 2 366.015 255.369 14
-6 2 -2 -131.281 168.849 9
6 2 3 484.376 256.588 14
-6 2 -3 413.500 197.537 9
6 2 4 43979.4 1185.48 14
-6 2 -4 46670.4 1149.29 9
6 2 5 19706.7 737.925 14
-6 2 -5 23958.5 761.673 9
6 2 6 1487.22 209.739 14
-6 2 -6 1570.96 198.032 9
-6 2 -7 2450.82 201.616 9
-6 3 11 587.100 123.380 7
-6 3 10 388.149 142.247 7
-6 3 9 1149.69 193.095 7
-6 3 8 2226.79 274.468 7
-6 3 7 6323.28 449.788 7
-6 3 7 8023.17 496.659 9
-6 3 6 2245.53 299.834 7
6 3 -6 2864.98 326.613 14
6 3 -5 1142.42 219.415 14
-6 3 5 1088.17 227.452 9
6 3 -4 477.272 217.218 14
-6 3 4 614.561 202.477 9
6 3 -3 666.061 254.862 14
-6 3 3 959.759 256.500 9
6 3 -2 1000.13 288.285 14
-6 3 2 661.502 237.609 9
6 3 -1 803.249 272.722 14
-6 3 1 377.811 177.846 9
6 3 0 459.188 240.247 14
-6 3 0 492.732 193.400 9
6 3 1 524.799 254.639 14
-6 3 -1 395.908 175.381 9
6 3 2 760.693 267.792 14
-6 3 -2 1027.96 238.174 9
6 3 3 1960.44 299.153 14
-6 3 -3 1929.01 266.820 9
6 3 4 2633.95 344.453 14
-6 3 -4 3256.91 358.226 9
6 3 5 390.996 172.305 14
-6 3 -5 462.525 162.628 9
6 3 6 789.360 157.440 14
-6 3 -6 1203.51 192.515 9
-6 3 -7 695.285 127.419 9
-6 4 9 3144.09 214.540 7
-6 4 8 6669.43 334.826 7
-6 4 7 15040.3 506.596 7
-6 4 6 20422.3 602.694 7
-6 4 6 19194.6 610.094 9
-6 4 5 409.996 143.974 9
6 4 -4 229.296 144.037 14
-6 4 4 227.432 132.238 9
6 4 -3 178.645 154.844 14
-6 4 3 207.205 139.784 9
6 4 -2 75.3299 162.857 14
-6 4 2 125.463 126.111 9
6 4 -1 2941.85 308.393 14
-6 4 1 2634.04 278.385 9
6 4 0 1804.17 275.358 14
-6 4 0 1655.91 248.762 9
6 4 1 11487.2 552.158 14
-6 4 -1 11131.5 526.415 9
6 4 2 4183.35 338.135 14
-6 4 -2 4432.40 337.133 9
6 4 3 1001.17 193.076 14
-6 4 -3 1135.16 189.934 9
6 4 4 2659.49 247.707 14
-6 4 -4 2952.87 255.013 9
6 4 5 3505.87 244.578 14
-6 4 -5 3982.47 260.418 9
-6 4 -6 147.153 80.9777 9
-6 5 4 264.593 90.7754 9
-6 5 3 51.6268 83.8490 9
6 5 -2 183.182 106.075 14
-6 5 2 -1.77314 86.8333 9
6 5 -1 360.298 129.281 14
-6 5 1 663.906 142.804 9
6 5 0 664.063 146.779 14
-6 5 0 1071.42 154.094 9
6 5 1 471.789 124.121 14
-6 5 -1 527.534 113.989 9
6 5 2 56.9162 94.7280 14
-6 5 -2 5.84522 89.7006 9
6 5 3 439.167 113.603 14
-6 5 -3 364.387 90.5485 9
7 -3 -3 1686.38 174.889 14
7 -2 -7 120.442 106.439 14
7 -2 -3 1246.16 214.812 14
-7 -2 3 1636.04 174.920 12
7 -2 -2 384.363 159.585 14
-7 -2 2 1118.45 140.467 12
7 -2 -1 506.467 162.996 14
-7 -2 1 679.502 113.861 12
7 -2 0 678.193 159.835 14
-7 -2 0 1559.19 168.639 12
-7 -2 -1 695.824 124.741 12
7 -1 -7 132.786 120.520 14
7 -1 -6 3052.06 273.444 14
7 -1 -5 1534.86 220.435 14
7 -1 -4 3754.75 325.033 14
7 -1 -3 8784.95 472.058 14
7 -1 -2 8122.50 455.971 14
7 -1 -1 2857.99 288.224 14
7 -1 0 689.761 179.250 14
7 -1 1 256.765 148.942 14
7 -1 2 431.674 126.965 14
7 0 -7 104.413 121.463 14
7 0 -6 387.172 169.750 14
7 0 -5 681.156 186.013 14
7 0 -4 378.973 181.200 14
7 0 -3 395.492 195.195 14
7 0 -2 -1.38700 165.434 14
7 0 -1 1169.48 221.575 14
7 0 0 591.669 189.262 14
7 0 1 143.149 155.943 14
7 0 2 -21.0284 124.516 14
7 1 -6 2934.88 250.468 14
7 1 -5 1339.59 214.967 14
7 1 -4 4109.68 327.995 14
7 1 -3 8936.71 487.896 14
7 1 -2 8922.54 487.064 14
-7 1 2 8574.75 382.021 9
7 1 -1 2960.89 299.573 14
-7 1 1 3290.91 246.386 9
7 1 0 781.583 209.815 14
-7 1 0 942.329 139.668 9
7 1 1 56.5421 141.153 14
-7 1 -1 772.219 114.403 9
7 1 2 785.855 172.288 14
7 1 3 1819.53 178.949 14
7 2 -5 608.702 147.534 14
7 2 -4 854.372 176.457 14
7 2 -3 1296.20 207.341 14
-7 2 3 1577.46 204.873 9
7 2 -2 328.393 152.307 14
-7 2 2 449.199 133.792 9
7 2 -1 311.404 148.629 14
-7 2 1 595.555 137.680 9
7 2 0 854.185 182.177 14
-7 2 0 1182.71 166.753 9
7 2 1 432.058 146.518 14
-7 2 -1 642.087 122.163 9
7 2 2 473.841 136.990 14
-7 3 3 2483.70 195.844 9
7 3 -2 633.460 125.848 14
-7 3 2 886.347 126.792 9
7 3 -1 -37.6735 108.069 14
-7 3 1 92.2748 74.1460 9
7 3 0 2618.42 201.561 14
-7 3 0 3496.72 210.887 9
