#------------------------------------------------------------------------------
#$Date: 2021-04-05 18:08:56 +0300 (Mon, 05 Apr 2021) $
#$Revision: 263803 $
#$URL: file:///home/coder/svn-repositories/cod/cif/7/06/03/7060380.cif $
#------------------------------------------------------------------------------
#
# This file is available in the Crystallography Open Database (COD),
# http://www.crystallography.net/
#
# All data on this site have been placed in the public domain by the
# contributors.
#
data_7060380
loop_
_publ_author_name
'Li, Edward W.'
'Katinas, Jade'
'Jones, Marjorie A.'
'Hamaker, Christopher G.'
_publ_section_title
;
 Structural characterization of naphthalene sulfonamides and a sulfonate
 ester and their in vitro efficacy against Leishmania tarentolae
 promastigotes
;
_journal_issue                   10
_journal_name_full               'New Journal of Chemistry'
_journal_page_first              4791
_journal_page_last               4801
_journal_paper_doi               10.1039/D0NJ06320G
_journal_volume                  45
_journal_year                    2021
_chemical_formula_moiety         'C18 H14 O5 S'
_chemical_formula_sum            'C18 H14 O5 S'
_chemical_formula_weight         342.35
_chemical_name_common
'CGH7-05A  1-naphthyl-SO3-C6H3(2-Me)(4-COOH) CH7-04 from Acetone/Hexanes'
_space_group_crystal_system      triclinic
_space_group_IT_number           2
_space_group_name_Hall           '-P 1'
_space_group_name_H-M_alt        'P -1'
_atom_sites_solution_hydrogens   mixed
_audit_update_record
;
2019-05-21 deposited with the CCDC.	2021-02-10 downloaded from the CCDC.
;
_cell_angle_alpha                93.616(4)
_cell_angle_beta                 92.555(4)
_cell_angle_gamma                103.286(4)
_cell_formula_units_Z            2
_cell_length_a                   7.9204(5)
_cell_length_b                   8.7629(6)
_cell_length_c                   11.5108(7)
_cell_measurement_reflns_used    4899
_cell_measurement_temperature    100.(2)
_cell_measurement_theta_max      27.8887
_cell_measurement_theta_min      2.3950
_cell_volume                     774.55(9)
_computing_cell_refinement       'SAINT V8.38A (Bruker AXS Inc., 2017)'
_computing_data_collection       'Bruker Instrument Service v2016.11.0.2'
_computing_data_reduction        'SAINT V8.38A (Bruker AXS Inc., 2017)'
_computing_molecular_graphics    'shelXle (C.B. Huebschle, rev 882)'
_computing_structure_refinement  'SHELXL-2018/3 (Sheldrick, 2018)'
_computing_structure_solution    'XS, VERSION 2013/1'
_diffrn_ambient_temperature      100.(2)
_diffrn_detector_area_resol_mean 8.3333
_diffrn_measured_fraction_theta_full 0.983
_diffrn_measured_fraction_theta_max 0.983
_diffrn_measurement_device_type  'Bruker APEX-II CCD'
_diffrn_measurement_method       '\f and \w scans'
_diffrn_radiation_monochromator  graphite
_diffrn_radiation_type           MoK\a
_diffrn_radiation_wavelength     0.71073
_diffrn_reflns_av_R_equivalents  0.0301
_diffrn_reflns_av_unetI/netI     0.0267
_diffrn_reflns_limit_h_max       10
_diffrn_reflns_limit_h_min       -10
_diffrn_reflns_limit_k_max       11
_diffrn_reflns_limit_k_min       -11
_diffrn_reflns_limit_l_max       15
_diffrn_reflns_limit_l_min       -15
_diffrn_reflns_number            15929
_diffrn_reflns_theta_full        28.00
_diffrn_reflns_theta_max         28.00
_diffrn_reflns_theta_min         1.78
_exptl_absorpt_coefficient_mu    0.235
_exptl_absorpt_correction_T_max  0.98
_exptl_absorpt_correction_T_min  0.92
_exptl_absorpt_correction_type   multi-scan
_exptl_absorpt_process_details
;
SADABS-2016/2 - Bruker AXS area detector scaling and absorption correction
;
_exptl_crystal_colour            colourless
_exptl_crystal_density_diffrn    1.468
_exptl_crystal_density_method    'not measured'
_exptl_crystal_description       'cut block'
_exptl_crystal_F_000             356
_exptl_crystal_size_max          0.275
_exptl_crystal_size_mid          0.159
_exptl_crystal_size_min          0.089
_refine_diff_density_max         0.698
_refine_diff_density_min         -0.382
_refine_ls_extinction_method     none
_refine_ls_goodness_of_fit_ref   1.045
_refine_ls_hydrogen_treatment    mixed
_refine_ls_matrix_type           full
_refine_ls_number_parameters     222
_refine_ls_number_reflns         3695
_refine_ls_number_restraints     0
_refine_ls_restrained_S_all      1.045
_refine_ls_R_factor_all          0.0473
_refine_ls_R_factor_gt           0.0378
_refine_ls_shift/su_max          0.001
_refine_ls_shift/su_mean         0.000
_refine_ls_structure_factor_coef Fsqd
_refine_ls_weighting_details
'w=1/[\s^2^(Fo^2^)+(0.0466P)^2^+0.4570P] where P=(Fo^2^+2Fc^2^)/3'
_refine_ls_weighting_scheme      calc
_refine_ls_wR_factor_gt          0.0972
_refine_ls_wR_factor_ref         0.1028
_reflns_number_gt                3110
_reflns_number_total             3695
_reflns_threshold_expression     'I > 2\s(I)'
_cod_data_source_file            d0nj06320g4.cif
_cod_data_source_block           Compound_C
_cod_depositor_comments
;
The following automatic conversions were performed:

data item '_exptl_absorpt_correction_type' value 'Multi-Scan' was
changed to 'multi-scan' in accordance with the
/home/data/users/saulius/crontab/automatic-downloads/rss-feeds/RSC/lib/dictionaries/cif_core.dic
dictionary named 'cif_core.dic' version 2.4.2 last updated on
2011-04-26.

Automatic conversion script
Id: cif_fix_values 7556 2019-12-06 15:28:31Z antanas 

 Adding full bibliography for 7060378--7060380.cif.
;
_cod_database_code               7060380
_shelx_res_file
;

TITL cgh0284_0m in P-1
    cgh0284_0m.res
    created by SHELXL-2018/3 at 16:53:49 on 11-Jun-2018
CELL 0.71073   7.92040   8.76290  11.51080  93.6163  92.5553 103.2860
ZERR 2.00000 0.00050 0.00060 0.00070 0.0041 0.0040 0.0038
LATT 1
SFAC C  H  O  S
UNIT 36  28  10  2
LIST 6 ! automatically inserted. Change 6 to 4 for CHECKCIF!!
L.S. 10
ACTA
BOND $H
FMAP 2
PLAN 5
SIZE 0.089 0.159 0.275
MPLA C15 C16 C17 C18 C19 C20
MPLA C1 C2 C3 C4 C5 C6 C7 C8 C9 C10
CONF
EQIV $1 -x+2, -y+3, -z+1
HTAB O24 O23_$1
TEMP -173.170
WGHT    0.046600    0.457000
FVAR       0.22216
MOLE 1
S11   4    0.049988    0.824742    0.250787    11.00000    0.01454    0.02030 =
         0.02303   -0.00113   -0.00054    0.00265
C1    1    0.145177    0.778144    0.121705    11.00000    0.01656    0.01821 =
         0.02010    0.00009   -0.00202    0.00118
C10   1    0.180896    0.626595    0.095544    11.00000    0.01564    0.01717 =
         0.02028   -0.00010   -0.00453    0.00070
C5    1    0.259707    0.605766   -0.011601    11.00000    0.01790    0.02008 =
         0.02143   -0.00241   -0.00455    0.00153
C6    1    0.296720    0.458631   -0.043566    11.00000    0.02183    0.02208 =
         0.02782   -0.00630   -0.00210    0.00305
AFIX  43
H6    2    0.347509    0.443630   -0.115370    11.00000   -1.20000
AFIX   0
C7    1    0.260167    0.338505    0.027688    11.00000    0.02529    0.01741 =
         0.04036   -0.00516   -0.00303    0.00374
AFIX  43
H7    2    0.286164    0.240574    0.005464    11.00000   -1.20000
AFIX   0
C2    1    0.186120    0.897298    0.048317    11.00000    0.02442    0.01748 =
         0.02828    0.00183   -0.00026    0.00369
AFIX  43
H2    2    0.160199    0.995958    0.068132    11.00000   -1.20000
AFIX   0
C3    1    0.266216    0.874157   -0.056032    11.00000    0.03301    0.02284 =
         0.02669    0.00765    0.00218    0.00334
AFIX  43
H3    2    0.295228    0.957134   -0.106166    11.00000   -1.20000
AFIX   0
C9    1    0.144772    0.498636    0.168103    11.00000    0.02291    0.02072 =
         0.02490    0.00335   -0.00170    0.00267
AFIX  43
H9    2    0.093383    0.510314    0.240153    11.00000   -1.20000
AFIX   0
C4    1    0.301986    0.731674   -0.084790    11.00000    0.02665    0.02839 =
         0.02004    0.00110    0.00117    0.00363
AFIX  43
H4    2    0.356248    0.716657   -0.155200    11.00000   -1.20000
AFIX   0
C8    1    0.184021    0.358641    0.134167    11.00000    0.02781    0.01808 =
         0.03506    0.00619   -0.00352    0.00193
AFIX  43
H8    2    0.159512    0.273987    0.183170    11.00000   -1.20000
AFIX   0
O13   3    0.001813    0.970983    0.240348    11.00000    0.02134    0.02590 =
         0.03262   -0.00097   -0.00138    0.00951
O12   3   -0.073330    0.693005    0.286362    11.00000    0.01729    0.02807 =
         0.03114   -0.00044    0.00210   -0.00196
O14   3    0.205920    0.848905    0.348731    11.00000    0.01639    0.01721 =
         0.02108    0.00064   -0.00018    0.00059
C15   1    0.347486    0.982480    0.355272    11.00000    0.01485    0.01666 =
         0.01770    0.00022   -0.00079   -0.00116
C18   1    0.633466    1.227948    0.401857    11.00000    0.01966    0.01791 =
         0.01642    0.00105    0.00116    0.00012
C20   1    0.322952    1.127675    0.396554    11.00000    0.01809    0.02157 =
         0.02793   -0.00278    0.00140    0.00538
AFIX  43
H20   2    0.209631    1.141953    0.408974    11.00000   -1.20000
AFIX   0
C17   1    0.652786    1.081962    0.356657    11.00000    0.01648    0.02269 =
         0.02110   -0.00180    0.00241    0.00297
AFIX  43
H17   2    0.765800    1.068153    0.342553    11.00000   -1.20000
AFIX   0
C22   1    0.793787    1.351576    0.438376    11.00000    0.02239    0.01833 =
         0.01956    0.00091    0.00328    0.00085
C16   1    0.509712    0.955830    0.331726    11.00000    0.01849    0.01987 =
         0.01861   -0.00222    0.00024    0.00368
C19   1    0.468277    1.251908    0.419338    11.00000    0.02318    0.01721 =
         0.02619   -0.00240    0.00193    0.00417
AFIX  43
H19   2    0.454788    1.352722    0.446727    11.00000   -1.20000
AFIX   0
C21   1    0.531976    0.796474    0.287628    11.00000    0.02116    0.02640 =
         0.03440   -0.00840   -0.00017    0.00469
AFIX 137
H21A  2    0.513134    0.784209    0.202496    11.00000   -1.50000
H21B  2    0.447368    0.714456    0.322008    11.00000   -1.50000
H21C  2    0.649906    0.787116    0.309699    11.00000   -1.50000
AFIX   0
O23   3    0.939719    1.333409    0.415968    11.00000    0.01962    0.02523 =
         0.02999   -0.00535    0.00556   -0.00219
O24   3    0.767412    1.475157    0.497850    11.00000    0.02287    0.01798 =
         0.03454   -0.00647    0.00266   -0.00143
H24   2    0.867058    1.539275    0.520414    11.00000    0.06943
HKLF 4




REM  cgh0284_0m in P-1
REM wR2 = 0.1028, GooF = S = 1.045, Restrained GooF = 1.045 for all data
REM R1 = 0.0378 for 3110 Fo > 4sig(Fo) and 0.0473 for all 3695 data
REM 222 parameters refined using 0 restraints

END

WGHT      0.0466      0.4569

REM Highest difference peak  0.698,  deepest hole -0.382,  1-sigma level  0.054
Q1    1   0.1619  1.1193  0.4739  11.00000  0.05    0.70
Q2    1   0.1095  0.7985  0.1857  11.00000  0.05    0.43
Q3    1   0.7146  1.2827  0.4185  11.00000  0.05    0.32
Q4    1   0.2185  0.6182  0.0415  11.00000  0.05    0.31
Q5    1   0.1623  0.7021  0.1075  11.00000  0.05    0.31
;
_shelx_res_checksum              78525
_shelx_hkl_file
;
  -1   0   0   75.08    1.01
   1   0   0   75.20    1.04
   1   0   0   72.90    1.09
   1   0   0   72.14    1.02
   1   0   0   74.45    1.10
   1   0   0   73.08    1.05
  -2   0   0   61.87    0.96
  -2   0   0   61.25    1.04
  -2   0   0   62.42    0.89
   2   0   0   62.15    0.94
   2   0   0   61.89    0.96
   2   0   0   61.13    0.91
  -3   0   0    0.42    0.08
  -3   0   0    0.71    0.07
  -3   0   0    0.31    0.11
   3   0   0    0.26    0.11
   3   0   0    0.25    0.08
   3   0   0    0.36    0.06
  -4   0   0   41.56    0.96
  -4   0   0   41.77    0.69
   4   0   0   43.10    0.83
   4   0   0   41.30    0.73
   4   0   0   39.31    0.96
   4   0   0   42.09    0.80
  -5   0   0    0.16    0.11
   5   0   0    0.17    0.06
   5   0   0    0.15    0.09
   5   0   0    0.09    0.08
   5   0   0    0.20    0.12
  -6   0   0    5.38    0.40
   6   0   0    5.60    0.32
   6   0   0    6.11    0.44
   6   0   0    6.77    0.34
  -7   0   0   16.60    0.75
   7   0   0   17.46    0.60
   7   0   0   15.41    0.75
   7   0   0   17.65    0.61
  -8   0   0    6.14    0.59
   8   0   0    6.43    0.40
   8   0   0    6.88    0.42
   8   0   0    6.05    0.61
  -9   0   0    4.86    0.57
   9   0   0    4.53    0.43
   9   0   0    4.42    0.39
   9   0   0    5.12    0.63
 -10   0   0    5.54    0.65
  10   0   0    5.07    0.50
  10   0   0    4.07    0.60
  10  -1   0    1.15    0.35
  10  -1   0    1.31    0.28
 -10   1   0    0.89    0.31
   9  -1   0    0.12    0.13
   9  -1   0    0.26    0.16
   9  -1   0    0.24    0.25
  -9   1   0    0.04    0.20
   8  -1   0    4.41    0.34
   8  -1   0    4.24    0.30
   8  -1   0    3.15    0.45
  -8   1   0    4.74    0.50
   7  -1   0    8.56    0.56
   7  -1   0    8.75    0.41
   7  -1   0    9.21    0.39
  -7   1   0    8.06    0.52
   6  -1   0    2.90    0.22
   6  -1   0    2.85    0.34
   6  -1   0    3.16    0.23
  -6   1   0    3.04    0.35
   5  -1   0    0.07    0.12
   5  -1   0    0.36    0.09
   5  -1   0    0.35    0.10
   5  -1   0    0.17    0.08
  -5   1   0    0.34    0.09
   4  -1   0    3.89    0.19
   4  -1   0    4.20    0.28
   4  -1   0    4.35    0.19
   4  -1   0    4.24    0.28
   4  -1   0    4.36    0.20
   4  -1   0    4.38    0.18
  -4   1   0    4.26    0.20
   3  -1   0   46.69    0.74
   3  -1   0   45.91    0.76
   3  -1   0   45.32    0.92
   3  -1   0   46.04    0.92
   3  -1   0   46.22    0.77
   3  -1   0   43.72    0.76
  -3   1   0   46.57    0.80
   2  -1   0   12.66    0.36
   2  -1   0   12.70    0.29
   2  -1   0   12.83    0.26
   2  -1   0   13.16    0.35
   2  -1   0   13.05    0.24
  -2   1   0   12.71    0.31
   1  -1   0  266.41    3.77
   1  -1   0  258.48    3.60
   1  -1   0  251.97    3.53
  -1   1   0  255.41    3.52
  -1   1   0  256.11    3.63
   0  -1   0    8.58    0.20
   0  -1   0    8.69    0.20
   0   1   0    8.48    0.22
   0   1   0    8.83    0.20
   0   1   0    9.04    0.21
  -1  -1   0   57.02    0.90
  -1  -1   0   57.17    0.91
  -1  -1   0   56.56    0.91
   1   1   0   57.02    0.90
   1   1   0   55.41    0.88
   1   1   0   57.83    0.92
   1   1   0   57.41    0.92
  -2  -1   0  185.76    2.73
  -2  -1   0  186.66    2.70
  -2  -1   0  184.58    2.66
   2   1   0  184.38    2.70
   2   1   0  185.66    2.67
   2   1   0  193.09    2.63
   2   1   0  184.98    2.74
  -3  -1   0   24.12    0.57
  -3  -1   0   23.33    0.51
  -3  -1   0   23.49    0.62
   3   1   0   24.48    0.58
   3   1   0   23.78    0.55
   3   1   0   23.43    0.49
   3   1   0   24.08    0.63
  -4  -1   0    6.90    0.31
  -4  -1   0    7.14    0.37
  -4  -1   0    6.48    0.25
   4   1   0    6.06    0.24
   4   1   0    6.78    0.37
   4   1   0    6.94    0.31
   4   1   0    6.56    0.32
  -5  -1   0    2.84    0.31
   5   1   0    2.98    0.27
   5   1   0    3.02    0.27
   5   1   0    2.84    0.31
   5   1   0    2.73    0.17
  -6  -1   0   92.43    1.93
   6   1   0   96.91    2.00
   6   1   0   88.78    1.73
   6   1   0   92.27    1.75
  -7  -1   0    0.15    0.16
   7   1   0    0.06    0.12
   7   1   0    0.08    0.18
   7   1   0    0.01    0.12
  -8  -1   0    5.24    0.55
   8   1   0    5.32    0.42
   8   1   0    4.67    0.53
   8   1   0    4.91    0.39
  -9  -1   0    1.07    0.32
   9   1   0    0.94    0.23
   9   1   0    0.69    0.31
   9   1   0    1.31    0.28
  10  -2   0    3.11    0.50
 -10   2   0    3.66    0.53
   9  -2   0    3.99    0.37
   9  -2   0    3.64    0.49
  -9   2   0    4.84    0.57
   8  -2   0    4.38    0.52
   8  -2   0    3.95    0.31
   8  -2   0    4.10    0.27
  -8   2   0    3.09    0.42
   7  -2   0    1.44    0.18
   7  -2   0    1.05    0.17
   7  -2   0    1.17    0.28
  -7   2   0    0.68    0.22
   6  -2   0    0.15    0.08
   6  -2   0    0.22    0.15
   6  -2   0    0.41    0.10
   6  -2   0    0.20    0.16
  -6   2   0    0.49    0.12
   5  -2   0    0.60    0.17
   5  -2   0    0.64    0.10
   5  -2   0    0.79    0.11
   5  -2   0    0.99    0.20
   5  -2   0    0.75    0.12
  -5   2   0    0.98    0.16
   4  -2   0    0.24    0.12
   4  -2   0    0.51    0.14
   4  -2   0    0.35    0.08
   4  -2   0    0.27    0.07
   4  -2   0    0.32    0.07
   4  -2   0    0.30    0.08
  -4   2   0    0.28    0.10
   3  -2   0    0.01    0.05
   3  -2   0    0.05    0.04
   3  -2   0    0.17    0.09
   3  -2   0    0.05    0.05
   3  -2   0    0.06    0.08
   3  -2   0    0.12    0.07
  -3   2   0    0.04    0.08
   2  -2   0   82.97    1.26
   2  -2   0   85.14    1.34
   2  -2   0   85.33    1.25
  -2   2   0   82.80    1.23
  -2   2   0   82.97    1.36
   1  -2   0   54.61    0.88
   1  -2   0   53.18    0.88
   1  -2   0   53.79    0.93
   1  -2   0   55.08    0.86
  -1   2   0   55.37    0.93
  -1   2   0   53.59    0.89
   0  -2   0   22.66    0.48
   0  -2   0   22.85    0.49
   0  -2   0   22.58    0.49
   0   2   0   22.18    0.49
   0   2   0   22.01    0.47
   0   2   0   22.42    0.46
  -1  -2   0   24.37    0.55
  -1  -2   0   24.47    0.55
  -1  -2   0   24.29    0.54
   1   2   0   24.50    0.47
   1   2   0   24.15    0.56
   1   2   0   23.91    0.52
   1   2   0   24.02    0.54
  -2  -2   0    4.77    0.25
  -2  -2   0    4.73    0.25
  -2  -2   0    4.71    0.23
  -2  -2   0    4.46    0.24
   2   2   0    4.05    0.25
   2   2   0    4.46    0.24
   2   2   0    5.18    0.23
   2   2   0    4.30    0.25
  -3  -2   0    5.53    0.27
  -3  -2   0    5.99    0.30
  -3  -2   0    5.15    0.29
   3   2   0    5.29    0.30
   3   2   0    5.87    0.29
   3   2   0    5.88    0.26
   3   2   0    5.40    0.31
  -4  -2   0    9.12    0.35
  -4  -2   0    9.30    0.40
  -4  -2   0    8.94    0.43
   4   2   0    8.66    0.33
   4   2   0    8.32    0.40
   4   2   0   10.15    0.47
   4   2   0    9.02    0.39
  -5  -2   0    7.64    0.45
   5   2   0    8.17    0.43
   5   2   0    8.34    0.41
   5   2   0    7.85    0.47
   5   2   0    8.00    0.32
  -6  -2   0   25.26    0.89
   6   2   0   25.29    0.92
   6   2   0   25.14    0.82
   6   2   0   25.40    0.79
  -7  -2   0    7.30    0.53
   7   2   0    7.43    0.66
   7   2   0    6.93    0.46
   7   2   0    6.55    0.45
  -8  -2   0   15.48    0.80
   8   2   0   16.49    0.88
   8   2   0   16.38    0.74
   8   2   0   15.86    0.71
  -9  -2   0    6.49    0.65
   9   2   0    6.03    0.57
   9   2   0    7.05    0.51
   9   2   0    5.43    0.64
  10  -3   0    7.78    0.77
 -10   3   0    8.45    0.66
   9  -3   0    0.05    0.22
  -9   3   0    0.20    0.21
   8  -3   0   10.83    0.67
   8  -3   0   10.29    0.45
   8  -3   0    9.48    0.38
   8  -3   0    9.01    0.62
   7  -3   0    0.24    0.09
   7  -3   0    0.05    0.15
   7  -3   0    0.64    0.21
   7  -3   0    0.25    0.11
   6  -3   0    0.41    0.18
   6  -3   0    0.50    0.10
   6  -3   0    0.23    0.09
   6  -3   0    0.54    0.17
  -6   3   0    0.54    0.15
   5  -3   0    7.46    0.41
   5  -3   0    7.78    0.28
   5  -3   0    7.31    0.42
   5  -3   0    7.81    0.27
  -5   3   0    7.32    0.36
   4  -3   0   15.57    0.40
   4  -3   0   15.51    0.56
   4  -3   0   16.06    0.40
   4  -3   0   16.47    0.40
   4  -3   0   16.37    0.54
  -4   3   0   16.46    0.52
   3  -3   0   13.35    0.36
   3  -3   0   13.88    0.36
   3  -3   0   13.40    0.47
   3  -3   0   13.97    0.44
  -3   3   0   13.54    0.45
  -3   3   0   13.73    0.33
   2  -3   0    1.69    0.15
   2  -3   0    1.32    0.14
   2  -3   0    1.49    0.17
   2  -3   0    1.68    0.15
  -2   3   0    1.40    0.17
  -2   3   0    1.50    0.14
   1  -3   0   10.29    0.33
   1  -3   0   10.16    0.29
   1  -3   0   10.19    0.35
   1  -3   0    9.82    0.33
  -1   3   0   10.53    0.31
  -1   3   0   10.64    0.34
  -1   3   0   10.01    0.35
   0  -3   0    1.91    0.19
   0  -3   0    1.73    0.18
   0  -3   0    1.48    0.16
   0   3   0    1.41    0.15
   0   3   0    1.47    0.16
   0   3   0    1.70    0.17
  -1  -3   0   15.19    0.47
  -1  -3   0   15.57    0.46
  -1  -3   0   15.70    0.48
   1   3   0   15.33    0.46
   1   3   0   15.99    0.41
   1   3   0   14.84    0.48
  -2  -3   0   21.31    0.60
  -2  -3   0   21.56    0.61
  -2  -3   0   20.93    0.59
  -2  -3   0   20.54    0.59
   2   3   0   21.65    0.60
   2   3   0   20.57    0.58
   2   3   0   21.07    0.62
   2   3   0   21.40    0.57
  -3  -3   0    1.24    0.19
  -3  -3   0    0.65    0.13
  -3  -3   0    1.08    0.18
  -3  -3   0    1.13    0.19
   3   3   0    0.69    0.15
   3   3   0    0.92    0.15
   3   3   0    0.99    0.19
   3   3   0    0.88    0.17
  -4  -3   0    7.60    0.40
  -4  -3   0    7.57    0.42
  -4  -3   0    7.90    0.37
   4   3   0    7.81    0.40
   4   3   0    8.27    0.36
   4   3   0    8.01    0.43
   4   3   0    7.77    0.44
  -5  -3   0    6.10    0.42
   5   3   0    5.96    0.45
   5   3   0    5.76    0.32
   5   3   0    6.45    0.42
   5   3   0    6.54    0.40
  -6  -3   0    2.82    0.38
   6   3   0    2.47    0.33
   6   3   0    2.67    0.38
   6   3   0    2.96    0.35
  -7  -3   0    0.09    0.18
   7   3   0   -0.12    0.19
   7   3   0    0.24    0.17
   7   3   0    0.15    0.16
  -8  -3   0    0.72    0.29
   8   3   0    0.44    0.28
   8   3   0    1.12    0.29
   8   3   0    1.20    0.28
  -9  -3   0    0.87    0.30
   9   3   0    0.53    0.24
   9   3   0    0.89    0.34
   9   3   0    0.54    0.26
  10  -4   0    0.38    0.26
 -10   4   0   -0.06    0.23
   9  -4   0    5.54    0.61
   9  -4   0    6.09    0.62
   8  -4   0   21.86    0.94
   8  -4   0   22.86    0.68
   8  -4   0   21.81    0.95
   7  -4   0    3.64    0.21
   7  -4   0    3.28    0.41
   7  -4   0    3.26    0.39
   7  -4   0    3.61    0.26
  -7   4   0    3.15    0.35
   6  -4   0   25.49    0.88
   6  -4   0   25.06    0.63
   6  -4   0   23.97    0.57
   6  -4   0   24.37    0.82
  -6   4   0   24.59    0.77
   5  -4   0    2.45    0.32
   5  -4   0    2.47    0.18
   5  -4   0    1.88    0.24
   5  -4   0    2.84    0.20
  -5   4   0    1.98    0.29
  -5   4   0    2.41    0.28
   4  -4   0    0.80    0.16
   4  -4   0    0.84    0.13
   4  -4   0    0.80    0.19
   4  -4   0    0.62    0.12
  -4   4   0    0.80    0.11
  -4   4   0    0.70    0.16
   3  -4   0   11.76    0.38
   3  -4   0   11.53    0.38
   3  -4   0   10.70    0.46
   3  -4   0   11.70    0.41
  -3   4   0   11.77    0.47
  -3   4   0   11.47    0.38
   2  -4   0  164.27    2.55
   2  -4   0  171.04    2.61
   2  -4   0  170.71    2.71
   2  -4   0  171.80    2.61
  -2   4   0  174.11    2.62
  -2   4   0  171.19    2.72
  -2   4   0  174.92    2.53
   1  -4   0    5.22    0.28
   1  -4   0    5.26    0.24
   1  -4   0    4.93    0.28
   1  -4   0    5.86    0.31
  -1   4   0    5.43    0.26
  -1   4   0    5.43    0.30
  -1   4   0    5.48    0.29
   0  -4   0    0.42    0.12
   0  -4   0    0.37    0.11
   0  -4   0    0.49    0.13
   0   4   0    0.36    0.11
   0   4   0    0.27    0.11
   0   4   0    0.60    0.13
  -1  -4   0   32.16    0.82
  -1  -4   0   31.85    0.81
  -1  -4   0   31.83    0.79
   1   4   0   33.64    0.84
   1   4   0   32.60    0.79
   1   4   0   31.99    0.72
  -2  -4   0    0.10    0.09
  -2  -4   0    0.04    0.10
  -2  -4   0    0.10    0.11
   2   4   0    0.00    0.10
   2   4   0    0.01    0.08
   2   4   0   -0.03    0.09
  -3  -4   0   -0.05    0.09
  -3  -4   0   -0.01    0.11
  -3  -4   0    0.07    0.09
   3   4   0    0.06    0.12
   3   4   0   -0.02    0.10
   3   4   0   -0.03    0.09
   3   4   0   -0.08    0.09
  -4  -4   0    7.11    0.40
  -4  -4   0    8.50    0.47
  -4  -4   0    7.53    0.46
  -4  -4   0    8.26    0.45
   4   4   0    6.82    0.45
   4   4   0    8.37    0.45
   4   4   0    7.71    0.45
   4   4   0    8.01    0.40
  -5  -4   0   33.06    1.03
  -5  -4   0   35.26    1.06
   5   4   0   34.73    1.07
   5   4   0   34.33    1.07
   5   4   0   33.23    1.01
  -6  -4   0    1.21    0.28
  -6  -4   0    1.47    0.31
   6   4   0    1.45    0.29
   6   4   0    1.37    0.32
   6   4   0    1.33    0.28
  -7  -4   0    4.32    0.53
  -7  -4   0    3.16    0.44
   7   4   0    3.83    0.51
   7   4   0    3.24    0.43
   7   4   0    4.05    0.47
  -8  -4   0    2.55    0.44
  -8  -4   0    2.89    0.44
   8   4   0    2.86    0.51
   8   4   0    2.70    0.42
   8   4   0    2.56    0.40
  10  -5   0    4.28    0.59
  10  -5   0    3.74    0.55
   9  -5   0    2.38    0.44
   9  -5   0    1.90    0.40
   8  -5   0    1.43    0.34
   8  -5   0    1.02    0.28
   8  -5   0    1.10    0.20
   7  -5   0    5.98    0.28
   7  -5   0    6.75    0.49
   7  -5   0    6.14    0.35
   7  -5   0    5.62    0.54
  -7   5   0    5.75    0.43
   6  -5   0   10.31    0.37
   6  -5   0   10.47    0.54
   6  -5   0    9.98    0.41
   6  -5   0    9.30    0.57
  -6   5   0   10.85    0.54
   5  -5   0   42.15    0.88
   5  -5   0   42.74    1.16
   5  -5   0   42.20    1.06
   5  -5   0   43.56    0.94
  -5   5   0   43.04    1.12
   4  -5   0    1.13    0.16
   4  -5   0    1.93    0.27
   4  -5   0    1.59    0.21
   4  -5   0    1.49    0.19
  -4   5   0    1.08    0.22
   3  -5   0    7.74    0.36
   3  -5   0    8.25    0.36
   3  -5   0    8.07    0.43
   3  -5   0    7.89    0.35
  -3   5   0    7.62    0.41
  -3   5   0    7.19    0.34
   2  -5   0   80.25    1.60
   2  -5   0   85.14    1.44
   2  -5   0   85.24    1.55
   2  -5   0   84.18    1.55
  -2   5   0   83.90    1.55
  -2   5   0   82.49    1.61
  -2   5   0   82.73    1.43
   1  -5   0    0.06    0.08
   1  -5   0    0.07    0.09
   1  -5   0    0.15    0.10
   1  -5   0   -0.02    0.10
  -1   5   0    0.00    0.09
  -1   5   0    0.04    0.08
  -1   5   0    0.06    0.10
   0  -5   0   -0.09    0.08
   0  -5   0   -0.06    0.08
   0  -5   0   -0.08    0.07
   0   5   0    0.08    0.09
   0   5   0   -0.02    0.09
   0   5   0    0.04    0.10
  -1  -5   0    0.08    0.11
  -1  -5   0    0.00    0.09
  -1  -5   0   -0.03    0.09
   1   5   0   -0.14    0.07
   1   5   0    0.04    0.09
   1   5   0    0.09    0.11
  -2  -5   0    0.12    0.12
  -2  -5   0    0.17    0.12
  -2  -5   0    0.10    0.12
   2   5   0   -0.07    0.10
   2   5   0   -0.06    0.12
   2   5   0    0.12    0.11
  -3  -5   0    1.96    0.27
  -3  -5   0    1.55    0.26
  -3  -5   0    1.01    0.20
   3   5   0    0.97    0.22
   3   5   0    1.35    0.23
   3   5   0    1.35    0.23
  -4  -5   0    0.32    0.18
  -4  -5   0    0.50    0.19
  -4  -5   0    0.16    0.15
   4   5   0    0.25    0.15
   4   5   0    0.38    0.17
   4   5   0    0.02    0.16
  -5  -5   0    6.03    0.47
   5   5   0    6.91    0.50
   5   5   0    6.82    0.51
  -6  -5   0    0.45    0.22
  -6  -5   0    0.17    0.22
   6   5   0    0.69    0.24
   6   5   0    0.36    0.24
   6   5   0    0.51    0.24
  -7  -5   0    5.97    0.61
  -7  -5   0    5.31    0.57
   7   5   0    5.35    0.61
   7   5   0    6.16    0.60
   7   5   0    4.77    0.55
  -8  -5   0   -0.26    0.23
   8   5   0    0.16    0.28
   9  -6   0    1.13    0.33
   9  -6   0    1.87    0.42
   8  -6   0    9.57    0.54
   8  -6   0    9.28    0.67
   8  -6   0    9.00    0.62
  -8   6   0    8.32    0.57
   7  -6   0    9.49    0.64
   7  -6   0    8.89    0.36
   7  -6   0    8.66    0.56
   7  -6   0    8.47    0.43
  -7   6   0    7.02    0.51
   6  -6   0    7.96    0.41
   6  -6   0    7.28    0.47
   6  -6   0    7.96    0.36
   6  -6   0    8.93    0.57
  -6   6   0    7.28    0.49
   5  -6   0   12.00    0.54
   5  -6   0   11.35    0.48
   5  -6   0   11.06    0.60
   5  -6   0   12.21    0.45
  -5   6   0   11.63    0.59
   4  -6   0    2.54    0.27
   4  -6   0    3.21    0.36
   4  -6   0    3.15    0.31
   4  -6   0    2.75    0.28
  -4   6   0    3.12    0.38
   3  -6   0    5.15    0.34
   3  -6   0    4.81    0.30
   3  -6   0    4.80    0.32
   3  -6   0    4.82    0.37
  -3   6   0    5.31    0.39
   2  -6   0    1.34    0.21
   2  -6   0    1.21    0.20
   2  -6   0    1.63    0.26
   2  -6   0    1.61    0.19
  -2   6   0    1.47    0.19
  -2   6   0    1.30    0.22
  -2   6   0    1.49    0.25
   1  -6   0   34.96    0.97
   1  -6   0   34.50    0.96
   1  -6   0   37.24    0.82
   1  -6   0   35.98    0.96
  -1   6   0   37.81    1.00
  -1   6   0   36.40    0.97
  -1   6   0   37.17    0.90
   0  -6   0   40.90    1.06
   0  -6   0   39.81    1.07
   0  -6   0   41.42    1.07
   0   6   0   41.60    1.02
   0   6   0   41.13    1.10
   0   6   0   42.89    1.04
  -1  -6   0   62.17    1.43
  -1  -6   0   61.47    1.40
  -1  -6   0   62.64    1.44
   1   6   0   61.29    1.46
   1   6   0   61.75    1.38
  -2  -6   0    3.59    0.37
  -2  -6   0    2.88    0.35
  -2  -6   0    3.92    0.41
   2   6   0    2.70    0.35
   2   6   0    2.87    0.33
   2   6   0    3.41    0.38
  -3  -6   0    8.83    0.51
  -3  -6   0    9.72    0.56
  -3  -6   0    8.84    0.53
   3   6   0    7.97    0.51
   3   6   0    8.76    0.51
   3   6   0    8.60    0.55
  -4  -6   0   19.88    0.81
   4   6   0   19.64    0.76
   4   6   0   19.58    0.81
   4   6   0   21.04    0.88
  -5  -6   0    0.15    0.19
   5   6   0    0.03    0.16
   5   6   0   -0.03    0.17
  -6  -6   0    1.37    0.32
   6   6   0    1.03    0.31
   6   6   0    1.21    0.32
  -7  -6   0    1.99    0.42
   7   6   0    1.33    0.34
   7   6   0    1.92    0.39
   9  -7   0    0.37    0.25
   9  -7   0    0.24    0.25
   8  -7   0    0.19    0.21
   8  -7   0    0.51    0.18
   8  -7   0    0.27    0.21
  -8   7   0    0.03    0.20
   7  -7   0    2.97    0.46
   7  -7   0    2.42    0.37
   7  -7   0    3.38    0.30
   7  -7   0    3.36    0.36
  -7   7   0    2.37    0.38
   6  -7   0   17.57    0.72
   6  -7   0   17.33    0.66
   6  -7   0   18.90    0.62
   6  -7   0   18.28    0.83
  -6   7   0   17.95    0.81
   5  -7   0   13.22    0.53
   5  -7   0   12.72    0.57
   5  -7   0   12.53    0.67
   5  -7   0   13.34    0.57
  -5   7   0   12.88    0.66
   4  -7   0    0.79    0.18
   4  -7   0    0.77    0.19
   4  -7   0    0.77    0.18
   4  -7   0    0.36    0.18
  -4   7   0    0.89    0.25
   3  -7   0    0.22    0.13
   3  -7   0    0.13    0.12
   3  -7   0    0.21    0.14
   3  -7   0    0.37    0.18
  -3   7   0    0.10    0.15
   2  -7   0    1.64    0.28
   2  -7   0    1.35    0.20
   2  -7   0    1.81    0.28
   2  -7   0    1.79    0.26
  -2   7   0    1.69    0.29
   1  -7   0    1.59    0.27
   1  -7   0    1.22    0.23
   1  -7   0    1.33    0.20
   1  -7   0    1.45    0.26
  -1   7   0    1.29    0.26
  -1   7   0    1.57    0.24
  -1   7   0    1.23    0.25
   0  -7   0    5.47    0.41
   0  -7   0    4.41    0.41
   0  -7   0    4.86    0.32
   0  -7   0    4.49    0.43
   0   7   0    5.13    0.40
   0   7   0    4.83    0.45
   0   7   0    5.49    0.39
  -1  -7   0    0.87    0.23
  -1  -7   0    0.85    0.23
  -1  -7   0    0.83    0.22
   1   7   0    0.66    0.25
   1   7   0    0.65    0.19
   1   7   0    0.56    0.21
  -2  -7   0    3.87    0.42
  -2  -7   0    4.33    0.44
  -2  -7   0    3.59    0.43
   2   7   0    4.10    0.44
   2   7   0    3.87    0.41
   2   7   0    4.27    0.48
  -3  -7   0   32.16    1.09
  -3  -7   0   31.41    1.09
  -3  -7   0   31.76    1.06
   3   7   0   33.77    1.10
   3   7   0   34.46    1.18
   3   7   0   30.96    1.04
  -4  -7   0    5.57    0.53
   4   7   0    4.94    0.48
   4   7   0    4.87    0.56
   4   7   0    5.22    0.52
  -5  -7   0    1.06    0.28
   5   7   0    1.18    0.32
   5   7   0    0.93    0.33
  -6  -7   0    2.90    0.45
   6   7   0    3.53    0.51
   6   7   0    1.75    0.38
   8  -8   0   -0.16    0.19
   8  -8   0    0.07    0.16
  -8   8   0    0.13    0.23
   7  -8   0    0.30    0.22
   7  -8   0    0.73    0.17
   7  -8   0    0.92    0.22
  -7   8   0    0.24    0.24
   6  -8   0    6.63    0.41
   6  -8   0    5.40    0.56
   6  -8   0    6.64    0.46
  -6   8   0    6.75    0.62
   5  -8   0    0.24    0.17
   5  -8   0    0.61    0.18
   5  -8   0    0.48    0.23
  -5   8   0    0.30    0.21
   4  -8   0    4.97    0.38
   4  -8   0    4.34    0.43
   4  -8   0    4.09    0.45
  -4   8   0    4.63    0.50
   3  -8   0    2.65    0.34
   3  -8   0    1.77    0.34
   3  -8   0    2.82    0.34
  -3   8   0    2.06    0.35
   2  -8   0   16.52    0.72
   2  -8   0   16.56    0.75
   2  -8   0   17.68    0.73
  -2   8   0   16.99    0.76
   1  -8   0    6.16    0.47
   1  -8   0    6.65    0.48
   1  -8   0    6.07    0.47
  -1   8   0    6.55    0.48
   0  -8   0    1.12    0.26
   0  -8   0    2.25    0.37
   0  -8   0    1.55    0.31
   0   8   0    1.83    0.30
   0   8   0    1.20    0.30
  -1  -8   0    2.17    0.36
  -1  -8   0    1.90    0.33
  -1  -8   0    1.98    0.34
   1   8   0    1.58    0.32
   1   8   0    1.87    0.37
   1   8   0    1.93    0.32
  -2  -8   0   23.90    0.96
  -2  -8   0   23.69    0.93
  -2  -8   0   24.12    0.98
   2   8   0   24.83    1.02
   2   8   0   23.21    0.95
   2   8   0   23.57    0.94
  -3  -8   0    6.40    0.51
  -3  -8   0    7.86    0.60
  -3  -8   0    5.55    0.57
   3   8   0    7.49    0.57
   3   8   0    7.38    0.68
   3   8   0    8.30    0.59
  -4  -8   0    0.95    0.29
   4   8   0    0.86    0.30
   4   8   0    0.91    0.33
   4   8   0    0.46    0.24
  -5  -8   0    6.91    0.67
   5   8   0    6.99    0.69
   5   8   0    7.57    0.77
   8  -9   0    3.15    0.42
   8  -9   0    2.23    0.45
  -8   9   0    1.64    0.38
   7  -9   0    3.94    0.39
   7  -9   0    3.45    0.50
   7  -9   0    3.65    0.44
  -7   9   0    3.81    0.52
   6  -9   0    0.12    0.21
   6  -9   0    0.12    0.14
   6  -9   0    0.19    0.18
  -6   9   0    0.34    0.25
   5  -9   0   -0.10    0.14
   5  -9   0   -0.09    0.17
  -5   9   0   -0.10    0.20
   4  -9   0    0.05    0.17
   4  -9   0   -0.10    0.12
   4  -9   0    0.20    0.16
  -4   9   0    0.02    0.20
   3  -9   0    2.49    0.39
   3  -9   0    2.16    0.38
   3  -9   0    1.74    0.31
  -3   9   0    2.13    0.38
   2  -9   0    5.08    0.53
   2  -9   0    5.12    0.52
   2  -9   0    5.32    0.54
  -2   9   0    4.67    0.52
   1  -9   0    5.49    0.55
   1  -9   0    5.46    0.56
   1  -9   0    5.19    0.54
   0  -9   0    0.20    0.17
   0  -9   0   -0.02    0.16
   0  -9   0    0.08    0.17
  -1  -9   0    0.36    0.20
  -1  -9   0    1.03    0.29
  -1  -9   0    0.51    0.24
   1   9   0    0.58    0.24
   1   9   0    0.43    0.26
   1   9   0    0.16    0.22
  -2  -9   0    0.71    0.25
  -2  -9   0    1.88    0.38
  -2  -9   0    1.03    0.30
   2   9   0    1.66    0.36
   2   9   0    1.28    0.36
   2   9   0    0.78    0.28
  -3  -9   0    0.45    0.23
  -3  -9   0    0.47    0.25
   3   9   0    0.77    0.30
   3   9   0    0.51    0.26
   3   9   0    0.58    0.24
  -4  -9   0    4.49    0.56
   4   9   0    4.57    0.60
   4   9   0    4.00    0.54
   7 -10   0    3.72    0.55
  -7  10   0    3.42    0.54
   6 -10   0    0.55    0.27
   6 -10   0    0.99    0.26
   6 -10   0    0.87    0.26
  -6  10   0    0.77    0.33
   5 -10   0    3.54    0.51
   5 -10   0    4.55    0.51
  -5  10   0    3.74    0.54
   4 -10   0    0.13    0.17
   4 -10   0   -0.07    0.18
   4 -10   0    0.06    0.18
  -4  10   0    0.16    0.25
   3 -10   0    0.15    0.20
   3 -10   0    0.09    0.19
   3 -10   0    0.07    0.17
  -3  10   0    0.06    0.23
   2 -10   0    1.68    0.36
   2 -10   0    1.25    0.32
   2 -10   0    1.20    0.29
   1 -10   0    3.35    0.47
   1 -10   0    3.31    0.47
   1 -10   0    2.67    0.43
   0 -10   0    0.88    0.30
   0 -10   0    0.91    0.27
   0  10   0    0.74    0.30
  -1 -10   0    0.02    0.17
  -1 -10   0    0.03    0.18
  -1 -10   0    0.36    0.25
   1  10   0   -0.07    0.20
  -2 -10   0    0.06    0.20
  -2 -10   0    0.10    0.21
  -2 -10   0    0.08    0.21
   2  10   0    0.40    0.27
   2  10   0    0.25    0.23
   5 -11   0    1.20    0.37
   4 -11   0    5.07    0.64
   4 -11   0    4.07    0.57
   4 -11   0    2.77    0.43
   3 -11   0    6.87    0.66
   3 -11   0    8.16    0.67
   3 -11   0    7.03    0.71
   2 -11   0   -0.13    0.15
   2 -11   0   -0.21    0.19
   2 -11   0    0.19    0.22
   1 -11   0    0.15    0.24
   1 -11   0    0.07    0.22
   1 -11   0    0.11    0.19
  -1  11   0    0.19    0.23
   0 -11   0    0.11    0.22
   0 -11   0    0.19    0.24
   0 -11   0    0.19    0.25
   0  11   0    0.71    0.32
   0  11  -1   -0.24    0.21
   0 -11   1    0.03    0.20
   0 -11   1    0.07    0.23
   0 -11   1    0.14    0.20
  -1  11  -1    1.34    0.39
   1 -11   1    2.38    0.44
   1 -11   1    2.06    0.41
   1 -11   1    1.90    0.40
  -2  11  -1    5.31    0.65
   2 -11   1    4.44    0.54
   2 -11   1    4.71    0.58
   2 -11   1    5.40    0.65
  -3  11  -1    0.42    0.29
   3 -11   1   -0.04    0.18
   3 -11   1   -0.18    0.14
   3 -11   1    0.19    0.22
   4 -11   1    0.71    0.28
   4 -11   1    0.70    0.29
   4 -11   1    1.25    0.35
   5 -11   1    4.08    0.56
   2  10  -1    0.72    0.28
   2  10  -1    0.94    0.37
   2  10  -1    0.85    0.31
  -2 -10   1    0.57    0.28
  -2 -10   1    1.25    0.35
  -2 -10   1    1.22    0.31
   1  10  -1    2.78    0.47
  -1 -10   1    4.05    0.55
  -1 -10   1    3.42    0.52
  -1 -10   1    2.92    0.45
   0  10  -1    3.84    0.53
   0 -10   1    4.40    0.53
   0 -10   1    3.89    0.52
   0 -10   1    3.65    0.50
  -1  10  -1    1.42    0.34
   1 -10   1    1.99    0.37
   1 -10   1    2.03    0.38
   1 -10   1    1.74    0.37
  -2  10  -1    0.12    0.20
   2 -10   1    0.42    0.23
   2 -10   1    0.10    0.17
   2 -10   1    0.08    0.21
   3 -10   1   -0.05    0.15
   3 -10   1    0.35    0.20
   3 -10   1    0.02    0.19
   4 -10   1    0.50    0.23
   4 -10   1    0.33    0.23
   4 -10   1    0.21    0.22
   5 -10   1    1.73    0.39
   5 -10   1    2.37    0.40
   5 -10   1    2.29    0.36
   6 -10   1    0.36    0.21
   6 -10   1    0.64    0.30
   6 -10   1    0.32    0.20
   7 -10   1    2.17    0.43
   4   9  -1    0.35    0.26
   4   9  -1    0.43    0.30
   4   9  -1    0.30    0.26
   3   9  -1    4.60    0.59
   3   9  -1    4.50    0.54
   3   9  -1    4.39    0.53
  -3  -9   1    4.09    0.51
   2   9  -1    4.09    0.54
   2   9  -1    3.20    0.43
   2   9  -1    3.78    0.49
  -2  -9   1    3.38    0.46
  -2  -9   1    4.65    0.51
  -2  -9   1    3.69    0.48
   1   9  -1    2.38    0.36
   1   9  -1    2.98    0.49
   1   9  -1    2.21    0.39
  -1  -9   1    2.61    0.41
  -1  -9   1    2.97    0.45
  -1  -9   1    2.73    0.39
   0   9  -1    0.43    0.44
   0   9  -1    0.76    0.25
   0  -9   1    0.72    0.27
   0  -9   1    0.65    0.23
   0  -9   1    0.73    0.25
  -1   9  -1    7.86    0.59
   1  -9   1    9.06    0.61
   1  -9   1    7.58    0.56
   1  -9   1    8.04    0.56
   2  -9   1    7.97    0.56
   2  -9   1    7.36    0.53
   2  -9   1    8.02    0.57
   3  -9   1    1.01    0.27
   3  -9   1    1.02    0.27
   3  -9   1    0.80    0.24
  -4   9  -1    1.04    0.31
   4  -9   1    2.65    0.42
   4  -9   1    1.71    0.32
   4  -9   1    1.45    0.30
  -5   9  -1    1.58    0.35
   5  -9   1    1.82    0.31
   5  -9   1    1.41    0.29
   5  -9   1    1.69    0.37
   6  -9   1    3.23    0.47
   6  -9   1    3.91    0.41
   6  -9   1    3.39    0.42
   7  -9   1    0.15    0.15
   7  -9   1    0.23    0.19
   7  -9   1    0.37    0.26
   8  -9   1    0.83    0.33
   8  -9   1    0.61    0.33
   8  -9   1    0.79    0.26
   5   8  -1    1.58    0.39
   5   8  -1    1.21    0.35
   4   8  -1    1.06    0.31
   4   8  -1    0.35    0.26
   4   8  -1    1.30    0.32
  -4  -8   1    0.92    0.28
   3   8  -1   13.09    0.72
   3   8  -1   13.33    0.73
   3   8  -1   11.51    0.75
  -3  -8   1   14.22    0.72
  -3  -8   1   14.61    0.80
  -3  -8   1   11.81    0.71
   2   8  -1    7.27    0.55
   2   8  -1    6.31    0.63
   2   8  -1    6.40    0.52
  -2  -8   1    5.87    0.58
  -2  -8   1    6.58    0.49
  -2  -8   1    7.93    0.57
   1   8  -1   10.44    0.67
   1   8  -1   12.15    0.68
   1   8  -1   10.48    0.61
  -1  -8   1   10.30    0.64
  -1  -8   1   11.69    0.66
  -1  -8   1   10.62    0.60
   0   8  -1    7.98    0.57
   0   8  -1    6.41    0.51
   0   8  -1    7.89    0.50
   0  -8   1    7.90    0.53
   0  -8   1    7.75    0.45
   0  -8   1    7.17    0.53
   0  -8   1    7.83    0.50
  -1   8  -1   20.37    1.01
   1  -8   1   22.35    0.72
   1  -8   1   19.86    0.81
   1  -8   1   20.54    0.81
   1  -8   1   19.45    0.82
  -2   8  -1    0.72    0.26
   2  -8   1    0.59    0.18
   2  -8   1    0.29    0.17
   2  -8   1    0.58    0.19
   2  -8   1    0.67    0.21
  -3   8  -1    1.00    0.27
   3  -8   1    0.92    0.23
   3  -8   1    0.79    0.22
   3  -8   1    0.85    0.20
   3  -8   1    1.10    0.26
  -4   8  -1    0.08    0.19
   4  -8   1    0.54    0.22
   4  -8   1    0.51    0.18
   4  -8   1    0.25    0.15
   4  -8   1    0.58    0.19
  -5   8  -1    0.57    0.24
   5  -8   1    0.56    0.19
   5  -8   1    1.28    0.25
   5  -8   1    1.33    0.31
   5  -8   1    0.95    0.23
  -6   8  -1    0.67    0.26
   6  -8   1    0.99    0.22
   6  -8   1    1.00    0.30
   6  -8   1    0.52    0.20
   6  -8   1    0.69    0.22
  -7   8  -1    7.25    0.66
   7  -8   1    8.06    0.52
   7  -8   1    8.16    0.45
   7  -8   1    8.38    0.56
   7  -8   1    5.96    0.63
   8  -8   1    3.80    0.42
   8  -8   1    4.15    0.57
   8  -8   1    3.46    0.37
   8  -8   1    3.94    0.50
   6   7  -1    0.02    0.22
   6   7  -1   -0.09    0.20
   5   7  -1    0.36    0.26
   5   7  -1    0.19    0.21
  -5  -7   1    0.21    0.19
   4   7  -1   -0.17    0.15
   4   7  -1    0.10    0.19
   4   7  -1   -0.01    0.17
  -4  -7   1    0.04    0.18
   3   7  -1    3.09    0.41
   3   7  -1    3.21    0.44
   3   7  -1    2.92    0.38
  -3  -7   1    3.26    0.39
  -3  -7   1    2.90    0.40
  -3  -7   1    2.78    0.38
   2   7  -1   28.48    1.02
   2   7  -1   28.23    0.96
   2   7  -1   28.52    0.98
  -2  -7   1   28.18    0.93
  -2  -7   1   28.83    0.99
  -2  -7   1   27.22    0.97
   1   7  -1   47.88    1.32
   1   7  -1   47.08    1.26
   1   7  -1   48.13    1.35
  -1  -7   1   47.31    1.24
  -1  -7   1   48.80    1.31
  -1  -7   1   50.22    1.33
   0   7  -1   37.38    1.04
   0   7  -1   39.13    1.15
   0   7  -1   35.55    1.09
   0  -7   1   36.61    0.94
   0  -7   1   36.68    1.04
   0  -7   1   37.90    1.09
   0  -7   1   35.94    1.08
  -1   7  -1    3.47    0.40
  -1   7  -1    3.44    0.33
   1  -7   1    3.97    0.42
   1  -7   1    3.81    0.31
   1  -7   1    4.47    0.43
   1  -7   1    3.24    0.36
  -2   7  -1   -0.01    0.15
   2  -7   1    0.09    0.12
   2  -7   1    0.16    0.13
   2  -7   1    0.42    0.14
   2  -7   1   -0.15    0.09
   3  -7   1   16.78    0.65
   3  -7   1   16.76    0.61
   3  -7   1   16.64    0.67
   3  -7   1   16.94    0.71
  -4   7  -1    1.96    0.33
   4  -7   1    2.33    0.34
   4  -7   1    2.02    0.27
   4  -7   1    2.05    0.29
   4  -7   1    2.08    0.28
  -5   7  -1    1.98    0.34
   5  -7   1    1.57    0.24
   5  -7   1    1.54    0.26
   5  -7   1    1.74    0.32
   5  -7   1    1.72    0.26
  -6   7  -1   11.83    0.66
   6  -7   1   12.46    0.58
   6  -7   1   12.03    0.68
   6  -7   1   11.51    0.52
   6  -7   1   12.76    0.63
   7  -7   1    0.67    0.17
   7  -7   1    0.46    0.18
   7  -7   1    0.65    0.24
   7  -7   1    0.40    0.24
   8  -7   1   12.69    0.61
   8  -7   1   12.70    0.72
   8  -7   1   12.43    0.79
   8  -7   1   11.89    0.50
   9  -7   1    0.03    0.23
   9  -7   1    0.08    0.22
   7   6  -1    1.51    0.36
   7   6  -1    0.81    0.31
   6   6  -1    0.44    0.26
   6   6  -1   -0.03    0.19
  -6  -6   1   -0.01    0.23
   5   6  -1    1.59    0.34
   5   6  -1    1.59    0.31
  -5  -6   1    0.86    0.25
   4   6  -1    1.09    0.25
   4   6  -1    1.16    0.25
   4   6  -1    1.15    0.29
  -4  -6   1    1.15    0.25
   3   6  -1    0.08    0.14
   3   6  -1    0.21    0.18
   3   6  -1   -0.07    0.13
  -3  -6   1    0.28    0.17
  -3  -6   1    0.18    0.15
  -3  -6   1    0.16    0.14
   2   6  -1    1.02    0.25
   2   6  -1    0.67    0.19
   2   6  -1    1.04    0.24
  -2  -6   1    0.71    0.20
  -2  -6   1    0.52    0.18
  -2  -6   1    0.73    0.22
   1   6  -1    1.51    0.25
   1   6  -1    1.89    0.29
   1   6  -1    1.67    0.25
  -1  -6   1    1.25    0.24
  -1  -6   1    1.36    0.23
  -1  -6   1    1.48    0.25
   0   6  -1   24.58    0.82
   0   6  -1   26.21    0.78
   0  -6   1   23.93    0.76
   0  -6   1   24.92    0.81
   0  -6   1   25.39    0.81
  -1   6  -1   25.04    0.73
  -1   6  -1   24.35    0.79
   1  -6   1   25.16    0.68
   1  -6   1   24.55    0.77
   1  -6   1   23.38    0.76
  -2   6  -1    6.51    0.35
  -2   6  -1    7.09    0.41
  -2   6  -1    6.82    0.42
   2  -6   1    7.15    0.40
   2  -6   1    7.24    0.36
   2  -6   1    6.24    0.39
   2  -6   1    6.68    0.39
  -3   6  -1    1.28    0.24
   3  -6   1    1.10    0.19
   3  -6   1    1.29    0.21
   3  -6   1    1.64    0.24
   3  -6   1    1.21    0.20
  -4   6  -1   12.74    0.59
   4  -6   1   12.98    0.53
   4  -6   1   12.58    0.59
   4  -6   1   11.82    0.51
   4  -6   1   12.46    0.50
  -5   6  -1    2.26    0.33
   5  -6   1    1.66    0.30
   5  -6   1    2.07    0.26
   5  -6   1    2.04    0.24
   5  -6   1    2.17    0.29
  -6   6  -1   12.51    0.63
   6  -6   1   12.79    0.67
   6  -6   1   12.07    0.60
   6  -6   1   12.21    0.53
   6  -6   1   12.99    0.49
  -7   6  -1    1.58    0.30
   7  -6   1    1.31    0.22
   7  -6   1    1.24    0.20
   7  -6   1    1.98    0.33
   7  -6   1    1.44    0.32
   8  -6   1    0.56    0.24
   8  -6   1    0.80    0.26
   8  -6   1    0.14    0.15
   8  -6   1    0.55    0.15
   9  -6   1    1.92    0.40
   9  -6   1    1.75    0.37
   8   5  -1    1.34    0.33
   8   5  -1    2.14    0.41
  -8  -5   1    0.87    0.35
   7   5  -1   -0.18    0.17
   7   5  -1    0.13    0.21
  -7  -5   1   -0.10    0.20
   6   5  -1    0.57    0.23
   6   5  -1    0.39    0.21
  -6  -5   1    0.15    0.20
   5   5  -1   12.16    0.57
   5   5  -1   11.88    0.62
   5   5  -1   10.83    0.63
  -5  -5   1   11.41    0.60
   4   5  -1    6.33    0.42
   4   5  -1    5.85    0.43
   4   5  -1    6.36    0.47
  -4  -5   1    6.60    0.44
   3   5  -1    9.90    0.51
   3   5  -1   11.02    0.56
   3   5  -1   10.96    0.52
  -3  -5   1   10.12    0.50
  -3  -5   1   11.43    0.55
  -3  -5   1   11.34    0.51
   2   5  -1   21.82    0.72
   2   5  -1   20.71    0.75
   2   5  -1   22.39    0.73
  -2  -5   1   22.47    0.70
  -2  -5   1   22.77    0.74
  -2  -5   1   22.72    0.75
   1   5  -1   21.24    0.72
   1   5  -1   22.58    0.69
   1   5  -1   21.22    0.70
  -1  -5   1   20.91    0.69
  -1  -5   1   21.64    0.70
  -1  -5   1   21.75    0.66
   0   5  -1    2.91    0.26
   0   5  -1    3.11    0.32
   0  -5   1    2.76    0.29
   0  -5   1    2.97    0.28
   0  -5   1    2.19    0.24
  -1   5  -1    1.13    0.20
  -1   5  -1    1.23    0.17
  -1   5  -1    1.37    0.21
   1  -5   1    1.39    0.20
   1  -5   1    1.05    0.19
   1  -5   1    1.10    0.16
   1  -5   1    1.13    0.19
  -2   5  -1   40.89    0.87
  -2   5  -1   40.64    0.99
  -2   5  -1   40.89    0.94
   2  -5   1   41.05    0.95
   2  -5   1   39.07    0.97
   2  -5   1   40.26    0.88
   2  -5   1   40.78    0.94
  -3   5  -1   14.27    0.55
  -3   5  -1   14.23    0.42
  -3   5  -1   13.15    0.48
   3  -5   1   14.38    0.50
   3  -5   1   14.19    0.50
   3  -5   1   13.66    0.50
   3  -5   1   14.41    0.56
  -4   5  -1    7.35    0.42
   4  -5   1    7.98    0.40
   4  -5   1    8.51    0.38
   4  -5   1    7.99    0.45
   4  -5   1    9.07    0.40
  -5   5  -1    9.29    0.48
   5  -5   1   11.39    0.56
   5  -5   1   10.07    0.43
   5  -5   1    9.48    0.49
   5  -5   1    8.82    0.38
  -6   5  -1   33.97    0.99
   6  -5   1   32.98    0.80
   6  -5   1   34.78    0.87
   6  -5   1   35.21    1.03
   6  -5   1   32.32    1.07
  -7   5  -1   19.77    0.75
   7  -5   1   19.71    0.86
   7  -5   1   19.59    0.58
   7  -5   1   20.07    0.82
   7  -5   1   19.31    0.65
   8  -5   1    5.93    0.39
   8  -5   1    6.43    0.64
   8  -5   1    6.79    0.34
   8  -5   1    7.24    0.65
   9  -5   1   -0.26    0.20
   9  -5   1   -0.05    0.20
  10  -5   1    1.87    0.42
   8   4  -1   14.46    0.77
   8   4  -1   14.94    0.89
   8   4  -1   14.39    0.79
  -8  -4   1   15.18    0.86
   7   4  -1    2.04    0.34
   7   4  -1    1.39    0.31
   7   4  -1    2.40    0.43
  -7  -4   1    1.65    0.32
  -7  -4   1    2.06    0.38
   6   4  -1    1.37    0.28
   6   4  -1    0.89    0.29
   6   4  -1    1.54    0.28
  -6  -4   1    1.28    0.30
  -6  -4   1    0.58    0.22
   5   4  -1    5.60    0.37
   5   4  -1    5.63    0.46
   5   4  -1    4.32    0.43
   5   4  -1    5.22    0.40
  -5  -4   1    4.93    0.39
  -5  -4   1    6.66    0.47
   4   4  -1    5.03    0.34
   4   4  -1    4.32    0.35
   4   4  -1    4.15    0.40
   4   4  -1    4.63    0.42
  -4  -4   1    4.82    0.38
  -4  -4   1    5.05    0.37
  -4  -4   1    4.01    0.37
   3   4  -1    4.14    0.38
   3   4  -1    3.65    0.28
   3   4  -1    3.68    0.33
  -3  -4   1    3.60    0.34
  -3  -4   1    3.03    0.28
  -3  -4   1    3.45    0.28
   2   4  -1   -0.18    0.07
   2   4  -1    0.04    0.10
   2   4  -1   -0.14    0.08
  -2  -4   1    0.14    0.10
  -2  -4   1   -0.02    0.09
  -2  -4   1   -0.02    0.09
   1   4  -1    6.14    0.32
   1   4  -1    6.10    0.34
   1   4  -1    5.86    0.34
  -1  -4   1    6.23    0.34
  -1  -4   1    5.82    0.32
  -1  -4   1    5.73    0.30
   0   4  -1    4.11    0.26
   0   4  -1    3.97    0.28
   0  -4   1    4.60    0.28
   0  -4   1    3.92    0.24
   0  -4   1    4.04    0.27
  -1   4  -1   40.21    0.89
  -1   4  -1   39.26    0.83
  -1   4  -1   36.95    0.87
   1  -4   1   39.61    0.87
   1  -4   1   39.32    0.81
   1  -4   1   39.61    0.87
   1  -4   1   39.56    0.88
  -2   4  -1    4.48    0.26
  -2   4  -1    4.56    0.24
  -2   4  -1    3.89    0.27
   2  -4   1    4.45    0.26
   2  -4   1    4.23    0.27
   2  -4   1    4.05    0.25
   2  -4   1    4.57    0.25
  -3   4  -1    6.24    0.26
  -3   4  -1    5.92    0.34
  -3   4  -1    6.97    0.31
   3  -4   1    6.38    0.30
   3  -4   1    6.86    0.33
   3  -4   1    6.59    0.35
   3  -4   1    6.61    0.31
  -4   4  -1    3.90    0.15
  -4   4  -1    4.17    0.30
   4  -4   1    3.78    0.28
   4  -4   1    3.67    0.23
   4  -4   1    3.96    0.25
   4  -4   1    4.21    0.31
  -5   4  -1    0.16    0.12
   5  -4   1    0.00    0.08
   5  -4   1    0.19    0.09
   5  -4   1    0.15    0.11
   5  -4   1   -0.13    0.11
  -6   4  -1    6.41    0.40
   6  -4   1    6.91    0.47
   6  -4   1    7.60    0.33
   6  -4   1    6.36    0.44
   6  -4   1    7.64    0.36
  -7   4  -1    0.52    0.17
   7  -4   1    0.65    0.14
   7  -4   1    0.80    0.25
   7  -4   1    1.12    0.27
   7  -4   1    0.69    0.16
   8  -4   1   14.39    0.78
   8  -4   1   15.04    0.49
   8  -4   1   15.38    0.79
   8  -4   1   14.61    0.57
   9  -4   1    1.51    0.25
   9  -4   1    1.28    0.33
 -10   4  -1    2.67    0.45
  10  -4   1    2.70    0.47
   9   3  -1    1.54    0.42
   9   3  -1    0.87    0.26
   9   3  -1    0.86    0.26
  -9  -3   1    1.78    0.41
   8   3  -1    0.39    0.21
   8   3  -1    0.12    0.18
   8   3  -1    0.47    0.28
  -8  -3   1    0.27    0.21
   7   3  -1    5.94    0.45
   7   3  -1    6.74    0.63
   7   3  -1    6.66    0.47
  -7  -3   1    6.47    0.59
   6   3  -1   11.00    0.63
   6   3  -1   11.84    0.58
   6   3  -1   12.19    0.57
  -6  -3   1   11.44    0.63
   5   3  -1    8.15    0.44
   5   3  -1    9.44    0.49
   5   3  -1    9.40    0.41
   5   3  -1    8.11    0.50
  -5  -3   1    8.47    0.50
   4   3  -1   16.05    0.63
   4   3  -1   14.84    0.52
   4   3  -1   16.61    0.58
   4   3  -1   16.68    0.61
  -4  -3   1   15.21    0.60
  -4  -3   1   16.02    0.52
  -4  -3   1   15.93    0.57
  -4  -3   1   15.93    0.57
   3   3  -1   33.48    0.81
   3   3  -1   34.78    0.84
   3   3  -1   32.87    0.86
   3   3  -1   34.49    0.88
  -3  -3   1   34.55    0.85
  -3  -3   1   33.24    0.87
  -3  -3   1   35.72    0.82
  -3  -3   1   36.46    0.85
   2   3  -1  161.97    2.54
   2   3  -1  160.16    2.54
   2   3  -1  160.95    2.59
  -2  -3   1  165.21    2.52
  -2  -3   1  163.72    2.58
  -2  -3   1  161.73    2.54
   1   3  -1   18.50    0.51
   1   3  -1   18.43    0.52
   1   3  -1   17.81    0.53
  -1  -3   1   18.87    0.48
  -1  -3   1   18.46    0.52
  -1  -3   1   18.18    0.52
   0   3  -1    1.00    0.14
   0   3  -1    1.47    0.15
   0  -3   1    1.50    0.17
   0  -3   1    1.74    0.16
   0  -3   1    1.46    0.16
  -1   3  -1   20.18    0.53
  -1   3  -1   19.49    0.48
  -1   3  -1   20.40    0.52
   1  -3   1   20.17    0.48
   1  -3   1   20.11    0.50
   1  -3   1   19.77    0.51
   1  -3   1   20.21    0.51
  -2   3  -1    1.69    0.18
  -2   3  -1    1.74    0.17
   2  -3   1    1.29    0.14
   2  -3   1    1.83    0.17
   2  -3   1    1.53    0.18
   2  -3   1    1.86    0.18
  -3   3  -1   21.84    0.38
  -3   3  -1   22.70    0.54
  -3   3  -1   22.17    0.59
   3  -3   1   22.35    0.53
   3  -3   1   22.82    0.54
   3  -3   1   21.32    0.59
  -4   3  -1   34.28    0.78
  -4   3  -1   32.29    0.70
   4  -3   1   31.08    0.81
   4  -3   1   30.04    0.83
   4  -3   1   31.55    0.68
   4  -3   1   32.29    0.70
  -5   3  -1   29.05    0.75
   5  -3   1   29.11    0.87
   5  -3   1   28.65    0.84
   5  -3   1   29.13    0.67
   5  -3   1   28.81    0.67
  -6   3  -1    0.68    0.16
   6  -3   1    1.01    0.22
   6  -3   1    0.46    0.12
   6  -3   1    0.73    0.14
   6  -3   1    0.90    0.23
   7  -3   1    3.54    0.41
   7  -3   1    5.90    0.54
   7  -3   1    4.37    0.30
   7  -3   1    4.17    0.27
   8  -3   1    0.08    0.11
   8  -3   1    0.01    0.18
   8  -3   1   -0.02    0.11
  -9   3  -1    0.06    0.18
   9  -3   1   -0.04    0.14
   9  -3   1   -0.10    0.22
 -10   3  -1   -0.11    0.19
  10  -3   1   -0.28    0.21
   9   2  -1    0.01    0.16
   9   2  -1   -0.03    0.24
   9   2  -1    0.19    0.19
  -9  -2   1   -0.02    0.20
   8   2  -1    0.03    0.16
   8   2  -1    0.13    0.15
   8   2  -1    0.19    0.22
  -8  -2   1    0.26    0.21
   7   2  -1    0.53    0.18
   7   2  -1    0.64    0.20
   7   2  -1    0.71    0.25
  -7  -2   1    0.31    0.20
   6   2  -1    1.57    0.24
   6   2  -1    1.46    0.24
   6   2  -1    1.34    0.27
  -6  -2   1    1.59    0.27
   5   2  -1    6.11    0.31
   5   2  -1    5.75    0.34
   5   2  -1    5.77    0.36
   5   2  -1    5.15    0.40
  -5  -2   1    5.39    0.38
   4   2  -1    7.30    0.32
   4   2  -1    8.02    0.38
   4   2  -1    6.76    0.34
   4   2  -1    6.82    0.40
  -4  -2   1    7.43    0.35
  -4  -2   1    7.32    0.30
  -4  -2   1    7.58    0.39
   3   2  -1    3.49    0.22
   3   2  -1    3.54    0.24
   3   2  -1    3.33    0.22
   3   2  -1    3.29    0.29
  -3  -2   1    3.59    0.21
  -3  -2   1    3.39    0.23
  -3  -2   1    3.37    0.25
   2   2  -1    1.50    0.17
   2   2  -1    1.22    0.16
   2   2  -1    1.04    0.14
   2   2  -1    0.95    0.13
  -2  -2   1    1.26    0.14
  -2  -2   1    1.34    0.16
  -2  -2   1    1.14    0.16
  -2  -2   1    1.07    0.13
   1   2  -1    4.25    0.22
   1   2  -1    4.29    0.21
   1   2  -1    4.11    0.23
  -1  -2   1    4.49    0.20
  -1  -2   1    4.95    0.23
  -1  -2   1    4.10    0.21
   0   2  -1   61.93    1.05
   0   2  -1   62.23    1.02
   0  -2   1   61.76    1.04
   0  -2   1   62.08    0.99
   0  -2   1   61.82    1.04
  -1   2  -1  173.08    2.47
  -1   2  -1  175.07    2.53
  -1   2  -1  174.29    2.51
   1  -2   1  173.02    2.50
   1  -2   1  175.76    2.50
   1  -2   1  173.35    2.51
   1  -2   1  171.35    2.49
  -2   2  -1    0.37    0.09
  -2   2  -1    0.46    0.09
   2  -2   1    0.37    0.08
   2  -2   1    0.36    0.08
   2  -2   1    0.40    0.10
   2  -2   1    0.44    0.11
  -3   2  -1    7.23    0.28
  -3   2  -1    7.10    0.26
   3  -2   1    7.14    0.32
   3  -2   1    6.83    0.32
   3  -2   1    6.87    0.25
   3  -2   1    6.59    0.25
  -4   2  -1   44.72    0.87
  -4   2  -1   42.23    0.90
   4  -2   1   42.39    0.99
   4  -2   1   43.89    0.83
   4  -2   1   42.44    0.98
   4  -2   1   43.93    0.83
  -5   2  -1    3.23    0.22
   5  -2   1    3.29    0.22
   5  -2   1    2.84    0.30
   5  -2   1    3.27    0.21
   5  -2   1    3.46    0.34
   6  -2   1    1.46    0.26
   6  -2   1    1.18    0.16
   6  -2   1    1.05    0.24
   6  -2   1    0.98    0.16
   7  -2   1    2.69    0.28
   7  -2   1    4.01    0.46
   7  -2   1    3.40    0.29
  -8   2  -1    1.22    0.30
   8  -2   1    1.28    0.22
   8  -2   1    1.09    0.20
   8  -2   1    0.70    0.28
  -9   2  -1    4.37    0.54
   9  -2   1    3.18    0.49
   9  -2   1    2.92    0.31
   9  -2   1    2.70    0.33
 -10   2  -1    2.31    0.44
  10  -2   1    2.13    0.46
  10  -2   1    1.55    0.29
   9   1  -1    2.22    0.45
   9   1  -1    2.06    0.33
   9   1  -1    1.96    0.29
  -9  -1   1    2.41    0.42
   8   1  -1    4.85    0.55
   8   1  -1    6.27    0.41
   8   1  -1    5.98    0.42
  -8  -1   1    5.03    0.54
   7   1  -1    8.67    0.59
   7   1  -1    9.08    0.45
   7   1  -1    9.06    0.46
  -7  -1   1    9.34    0.56
   6   1  -1    5.01    0.32
   6   1  -1    5.08    0.47
   6   1  -1    5.04    0.32
  -6  -1   1    5.27    0.41
   5   1  -1   11.40    0.39
   5   1  -1   12.06    0.55
   5   1  -1   11.33    0.43
   5   1  -1   11.68    0.42
  -5  -1   1   11.31    0.51
   4   1  -1   11.16    0.39
   4   1  -1   10.75    0.36
   4   1  -1   11.51    0.48
   4   1  -1   10.80    0.37
  -4  -1   1   10.97    0.37
  -4  -1   1   10.84    0.45
   3   1  -1    0.82    0.15
   3   1  -1    1.08    0.13
   3   1  -1    0.92    0.12
   3   1  -1    1.17    0.13
  -3  -1   1    0.95    0.12
  -3  -1   1    1.14    0.15
   2   1  -1   25.33    0.54
   2   1  -1   26.60    0.54
  -2  -1   1   25.29    0.53
  -2  -1   1   26.43    0.58
   1   1  -1    1.30    0.13
   1   1  -1    0.97    0.10
   1   1  -1    0.93    0.09
   1   1  -1    1.00    0.10
  -1  -1   1    1.01    0.11
  -1  -1   1    1.25    0.10
  -1  -1   1    0.99    0.10
   0   1  -1  164.95    2.34
   0   1  -1  167.24    2.32
   0   1  -1  167.74    2.34
   0  -1   1  166.72    2.30
   0  -1   1  170.24    2.34
   0  -1   1  166.99    2.33
  -1   1  -1   25.37    0.47
   1  -1   1   25.55    0.48
   1  -1   1   25.64    0.46
   1  -1   1   25.21    0.48
   1  -1   1   26.16    0.47
  -2   1  -1   31.53    0.57
  -2   1  -1   30.64    0.57
   2  -1   1   30.76    0.57
   2  -1   1   30.54    0.64
   2  -1   1   29.54    0.63
   2  -1   1   30.79    0.56
  -3   1  -1    2.51    0.15
  -3   1  -1    2.41    0.16
   3  -1   1    2.49    0.21
   3  -1   1    2.55    0.20
   3  -1   1    2.52    0.16
   3  -1   1    2.59    0.16
  -4   1  -1   13.12    0.35
  -4   1  -1   12.92    0.39
   4  -1   1   13.24    0.49
   4  -1   1   13.46    0.50
   4  -1   1   13.07    0.40
   4  -1   1   13.50    0.39
   5  -1   1    0.00    0.07
   5  -1   1   -0.20    0.09
   5  -1   1   -0.14    0.06
  -6   1  -1    0.52    0.17
   6  -1   1    0.58    0.14
   6  -1   1    0.50    0.17
   6  -1   1    0.39    0.13
  -7   1  -1    1.18    0.26
   7  -1   1    1.25    0.28
   7  -1   1    1.39    0.22
   7  -1   1    0.95    0.19
  -8   1  -1    0.89    0.26
   8  -1   1    0.91    0.20
   8  -1   1    1.09    0.22
   8  -1   1    0.78    0.27
  -9   1  -1    6.46    0.65
   9  -1   1    5.81    0.45
   9  -1   1    6.29    0.66
   9  -1   1    6.25    0.41
 -10   1  -1    1.33    0.36
  10  -1   1    0.83    0.33
  10  -1   1    1.08    0.29
  10   0  -1    3.02    0.39
  10   0  -1    2.74    0.49
 -10   0   1    3.48    0.52
   9   0  -1    3.49    0.32
   9   0  -1    3.03    0.49
   9   0  -1    3.57    0.38
  -9   0   1    3.24    0.46
   8   0  -1    6.66    0.63
   8   0  -1    6.99    0.42
   8   0  -1    6.34    0.37
  -8   0   1    6.93    0.53
   7   0  -1   78.24    1.47
   7   0  -1   74.86    1.84
   7   0  -1   79.04    1.51
  -7   0   1   80.08    1.80
   6   0  -1   10.91    0.41
   6   0  -1    9.50    0.54
   6   0  -1   10.68    0.40
  -6   0   1   10.86    0.55
   5   0  -1    5.64    0.27
   5   0  -1    4.58    0.24
   5   0  -1    4.62    0.35
   5   0  -1    5.14    0.25
  -5   0   1    4.80    0.21
  -5   0   1    5.60    0.35
   4   0  -1    4.78    0.22
   4   0  -1    5.28    0.23
   4   0  -1    4.68    0.31
   4   0  -1    5.05    0.21
  -4   0   1    5.11    0.20
  -4   0   1    5.10    0.30
   3   0  -1    2.11    0.15
   3   0  -1    1.94    0.12
   3   0  -1    2.40    0.14
   3   0  -1    2.54    0.23
   3   0  -1    1.76    0.14
  -3   0   1    2.07    0.19
   2   0  -1    0.90    0.11
   2   0  -1    0.86    0.08
   2   0  -1    1.06    0.10
   2   0  -1    0.83    0.12
   2   0  -1    0.82    0.08
   2   0  -1    0.94    0.07
  -2   0   1    0.69    0.11
   1   0  -1  111.34    1.55
   1   0  -1  112.46    1.53
   1   0  -1  110.54    1.59
   1   0  -1  110.22    1.61
  -1   0   1  113.30    1.59
   0   0   1    1.89    0.08
  -1   0  -1    2.12    0.12
   1   0   1    2.07    0.12
  -2   0  -1  395.31    5.39
  -2   0  -1  400.26    5.35
   2   0   1  393.38    5.44
   2   0   1  391.50    5.39
   2   0   1  389.28    5.44
  -3   0  -1    1.79    0.16
  -3   0  -1    1.68    0.13
   3   0   1    1.76    0.15
   3   0   1    1.83    0.17
   3   0   1    1.87    0.07
   3   0   1    1.40    0.17
  -4   0  -1   10.78    0.44
  -4   0  -1   10.72    0.37
   4   0   1   11.19    0.39
   4   0   1   10.79    0.38
   4   0   1   11.04    0.46
   4   0   1   10.87    0.23
  -5   0  -1    0.38    0.14
   5   0   1    0.59    0.14
   5   0   1    0.69    0.14
   5   0   1    0.55    0.17
  -6   0  -1    9.24    0.51
   6   0   1    8.31    0.41
   6   0   1    8.92    0.52
   6   0   1    8.69    0.41
  -7   0  -1    7.47    0.51
   7   0   1    6.85    0.41
   7   0   1    8.33    0.43
   7   0   1    6.97    0.53
  -8   0  -1    4.93    0.56
   8   0   1    4.16    0.39
   8   0   1    4.79    0.54
   8   0   1    5.52    0.41
  -9   0  -1    7.36    0.72
   9   0   1    7.00    0.69
   9   0   1    7.78    0.53
   9   0   1    7.70    0.49
 -10   0  -1    0.72    0.30
  10   0   1    0.64    0.32
  10  -1  -1    0.12    0.24
 -10   1   1   -0.09    0.18
   9  -1  -1    6.54    0.41
   9  -1  -1    5.80    0.61
  -9   1   1    5.76    0.60
   8  -1  -1    6.49    0.32
   8  -1  -1    5.41    0.55
   8  -1  -1    6.19    0.36
  -8   1   1    5.97    0.60
   7  -1  -1    5.51    0.31
   7  -1  -1    5.95    0.48
   7  -1  -1    5.57    0.28
  -7   1   1    5.31    0.49
   6  -1  -1    8.84    0.35
   6  -1  -1    9.36    0.34
   6  -1  -1    9.29    0.33
   6  -1  -1    9.58    0.52
  -6   1   1    8.93    0.49
   5  -1  -1   26.64    0.56
   5  -1  -1   28.24    0.63
   5  -1  -1   26.99    0.82
   5  -1  -1   27.39    0.79
   5  -1  -1   27.47    0.56
  -5   1   1   28.78    0.81
  -5   1   1   26.97    0.62
   4  -1  -1   72.13    1.10
   4  -1  -1   72.74    1.08
   4  -1  -1   70.00    1.36
   4  -1  -1   71.90    1.22
   4  -1  -1   72.18    1.39
  -4   1   1   73.66    1.22
   3  -1  -1   14.09    0.27
   3  -1  -1   13.64    0.26
   3  -1  -1   13.13    0.41
   3  -1  -1   13.75    0.36
  -3   1   1   14.59    0.37
   2  -1  -1  144.99    2.09
   2  -1  -1  143.37    2.12
   1  -1  -1  229.60    3.30
   1  -1  -1  226.79    3.21
   1  -1  -1  237.36    3.22
   1  -1  -1  232.07    3.21
  -1   1   1  236.28    3.21
   0  -1  -1    3.94    0.15
   0  -1  -1    3.89    0.14
   0  -1  -1    4.08    0.14
   0  -1  -1    3.90    0.14
   0   1   1    4.08    0.14
   0   1   1    3.96    0.15
   0   1   1    3.97    0.08
  -1  -1  -1  160.46    2.31
  -1  -1  -1  164.66    2.34
  -1  -1  -1  164.57    2.36
   1   1   1  161.88    2.30
   1   1   1  165.68    2.37
   1   1   1  162.23    2.34
  -2  -1  -1   68.74    1.16
  -2  -1  -1   66.42    1.12
  -2  -1  -1   64.66    1.15
   2   1   1   65.73    1.15
   2   1   1   69.90    1.18
   2   1   1   68.94    1.15
   2   1   1   68.75    1.02
  -3  -1  -1   35.05    0.76
  -3  -1  -1   35.85    0.72
  -3  -1  -1   34.25    0.80
   3   1   1   35.83    0.61
   3   1   1   35.47    0.79
   3   1   1   35.40    0.81
   3   1   1   35.49    0.76
  -4  -1  -1    1.29    0.15
  -4  -1  -1    1.08    0.16
  -4  -1  -1    1.27    0.20
   4   1   1    1.36    0.19
   4   1   1    1.18    0.11
   4   1   1    1.16    0.17
   4   1   1    1.08    0.20
  -5  -1  -1    0.31    0.14
   5   1   1    0.54    0.14
   5   1   1    0.52    0.18
   5   1   1    0.59    0.16
  -6  -1  -1   87.03    1.86
   6   1   1   89.48    1.74
   6   1   1   89.03    1.91
   6   1   1   88.38    1.73
  -7  -1  -1    4.14    0.47
   7   1   1    4.25    0.39
   7   1   1    4.72    0.42
   7   1   1    4.74    0.50
  -8  -1  -1    1.51    0.32
   8   1   1    1.40    0.27
   8   1   1    1.24    0.26
   8   1   1    0.84    0.30
  -9  -1  -1    0.45    0.24
   9   1   1    0.14    0.25
   9   1   1    0.26    0.19
   9   1   1    0.25    0.18
  10  -2  -1    0.31    0.27
 -10   2   1    0.69    0.30
   9  -2  -1    3.66    0.50
  -9   2   1    3.69    0.49
   8  -2  -1   14.88    0.78
   8  -2  -1   14.76    0.52
  -8   2   1   14.67    0.74
   7  -2  -1   12.48    0.35
   7  -2  -1   12.26    0.41
   7  -2  -1   12.11    0.64
  -7   2   1   11.42    0.60
   6  -2  -1    0.51    0.18
   6  -2  -1    0.44    0.12
   6  -2  -1    0.44    0.09
   6  -2  -1    0.61    0.19
   6  -2  -1    0.51    0.09
  -6   2   1    0.41    0.12
   5  -2  -1    2.00    0.12
   5  -2  -1    1.98    0.12
   5  -2  -1    2.61    0.29
   5  -2  -1    1.90    0.24
   5  -2  -1    2.45    0.22
   5  -2  -1    2.04    0.13
  -5   2   1    2.56    0.24
   4  -2  -1   11.83    0.23
   4  -2  -1   10.85    0.43
   4  -2  -1   12.01    0.46
   4  -2  -1   11.58    0.25
   4  -2  -1   11.42    0.24
   4  -2  -1   11.26    0.37
  -4   2   1   11.76    0.40
   3  -2  -1    0.26    0.09
   3  -2  -1    0.38    0.10
   3  -2  -1    0.38    0.05
   3  -2  -1    0.33    0.05
   3  -2  -1    0.45    0.11
  -3   2   1    0.43    0.11
   2  -2  -1   28.50    0.60
   2  -2  -1   27.73    0.48
   2  -2  -1   28.35    0.46
   2  -2  -1   27.41    0.55
   2  -2  -1   26.95    0.61
   2  -2  -1   28.51    0.48
  -2   2   1   27.91    0.61
  -2   2   1   28.98    0.57
   1  -2  -1    1.98    0.10
   1  -2  -1    2.03    0.15
   1  -2  -1    2.03    0.13
   1  -2  -1    1.79    0.16
   1  -2  -1    1.81    0.13
  -1   2   1    1.86    0.13
  -1   2   1    2.23    0.18
  -1   2   1    2.15    0.15
   0  -2  -1   85.02    1.35
   0  -2  -1   83.90    1.34
   0  -2  -1   85.49    1.37
   0   2   1   84.98    1.32
   0   2   1   85.26    1.35
   0   2   1   85.69    1.32
  -1  -2  -1   94.26    1.54
  -1  -2  -1   94.30    1.48
  -1  -2  -1   95.01    1.53
  -1  -2  -1   96.51    1.55
   1   2   1   98.94    1.46
   1   2   1   92.48    1.51
   1   2   1   95.47    1.42
   1   2   1   92.34    1.54
  -2  -2  -1  131.15    2.04
  -2  -2  -1  128.29    2.06
  -2  -2  -1  125.41    2.02
   2   2   1  130.20    2.02
   2   2   1  126.16    2.06
   2   2   1  129.58    2.04
   2   2   1  130.38    1.81
  -3  -2  -1   23.99    0.66
  -3  -2  -1   25.13    0.63
  -3  -2  -1   24.62    0.66
   3   2   1   25.30    0.68
   3   2   1   25.44    0.55
   3   2   1   25.09    0.68
   3   2   1   24.57    0.65
  -4  -2  -1    9.11    0.43
  -4  -2  -1    8.30    0.40
  -4  -2  -1    8.34    0.36
   4   2   1    8.47    0.43
   4   2   1    8.72    0.40
   4   2   1    8.30    0.41
   4   2   1    8.27    0.30
  -5  -2  -1   25.99    0.82
   5   2   1   24.88    0.76
   5   2   1   26.03    0.80
   5   2   1   25.40    0.85
  -6  -2  -1    0.55    0.20
   6   2   1    0.60    0.18
   6   2   1    0.83    0.23
   6   2   1    0.14    0.14
  -7  -2  -1   -0.12    0.16
   7   2   1    0.10    0.19
   7   2   1    0.09    0.16
   7   2   1   -0.12    0.13
  -8  -2  -1    0.57    0.25
   8   2   1    0.32    0.20
   8   2   1    0.20    0.18
   8   2   1    0.15    0.24
  -9  -2  -1    4.88    0.58
   9   2   1    4.52    0.59
   9   2   1    4.71    0.50
   9   2   1    4.84    0.52
  10  -3  -1    4.15    0.57
 -10   3   1    3.34    0.50
   9  -3  -1    1.62    0.35
  -9   3   1    1.37    0.32
   8  -3  -1    0.67    0.24
   8  -3  -1    0.54    0.24
  -8   3   1    0.45    0.21
   7  -3  -1    0.54    0.22
   7  -3  -1    0.42    0.11
   7  -3  -1    0.33    0.18
   6  -3  -1   10.70    0.33
   6  -3  -1   10.38    0.53
   6  -3  -1   10.97    0.44
   6  -3  -1   11.58    0.27
   6  -3  -1   10.74    0.55
  -6   3   1   11.97    0.48
   5  -3  -1    0.24    0.07
   5  -3  -1    0.16    0.12
   5  -3  -1    0.10    0.05
   5  -3  -1    0.11    0.11
   5  -3  -1    0.09    0.09
   5  -3  -1    0.14    0.05
  -5   3   1    0.20    0.11
   4  -3  -1    0.37    0.07
   4  -3  -1    0.27    0.12
   4  -3  -1    0.30    0.07
   4  -3  -1    0.27    0.11
   4  -3  -1    0.31    0.11
   4  -3  -1    0.34    0.07
  -4   3   1    0.35    0.12
  -4   3   1    0.28    0.09
   3  -3  -1   26.83    0.53
   3  -3  -1   27.68    0.66
   3  -3  -1   27.50    0.52
   3  -3  -1   27.18    0.63
   3  -3  -1   27.37    0.53
  -3   3   1   27.55    0.59
  -3   3   1   27.48    0.70
   2  -3  -1  217.54    3.02
   2  -3  -1  207.20    3.02
   2  -3  -1  214.58    3.02
   2  -3  -1  211.27    3.18
  -2   3   1  211.86    3.03
  -2   3   1  213.66    3.05
  -2   3   1  210.03    3.18
   1  -3  -1   41.66    0.87
   1  -3  -1   44.00    0.82
   1  -3  -1   42.37    0.82
   1  -3  -1   42.95    0.71
  -1   3   1   44.25    0.83
  -1   3   1   43.62    0.87
  -1   3   1   43.93    0.78
   0  -3  -1    0.34    0.10
   0  -3  -1    0.40    0.11
   0  -3  -1    0.64    0.12
   0   3   1    0.50    0.12
   0   3   1    0.44    0.10
   0   3   1    0.43    0.10
  -1  -3  -1    0.30    0.11
  -1  -3  -1    0.52    0.12
  -1  -3  -1    0.41    0.11
   1   3   1    0.55    0.10
   1   3   1    0.39    0.11
   1   3   1    0.36    0.12
  -2  -3  -1    9.83    0.41
  -2  -3  -1   10.29    0.39
  -2  -3  -1   10.43    0.41
  -2  -3  -1    9.73    0.42
   2   3   1   10.22    0.29
   2   3   1    9.77    0.42
   2   3   1   10.12    0.40
   2   3   1   10.60    0.38
  -3  -3  -1    5.19    0.32
  -3  -3  -1    5.17    0.33
  -3  -3  -1    4.71    0.32
  -3  -3  -1    5.40    0.31
   3   3   1    5.45    0.33
   3   3   1    5.17    0.34
   3   3   1    5.08    0.31
   3   3   1    5.19    0.27
  -4  -3  -1   45.95    1.05
  -4  -3  -1   46.26    1.12
  -4  -3  -1   45.53    1.11
   4   3   1   45.99    1.10
   4   3   1   45.54    0.96
   4   3   1   47.00    1.15
   4   3   1   47.58    1.14
  -5  -3  -1   38.26    1.07
   5   3   1   37.34    1.07
   5   3   1   38.17    1.05
   5   3   1   38.86    1.10
  -6  -3  -1   20.13    0.81
   6   3   1   21.35    0.86
   6   3   1   20.49    0.81
   6   3   1   20.25    0.78
  -7  -3  -1    1.73    0.34
   7   3   1    1.36    0.28
   7   3   1    1.65    0.32
   7   3   1    1.58    0.34
  -8  -3  -1    9.86    0.67
   8   3   1    9.02    0.61
   8   3   1    8.67    0.63
   8   3   1   10.14    0.73
  -9  -3  -1    0.33    0.24
   9   3   1    0.64    0.32
  10  -4  -1   13.95    0.86
 -10   4   1   13.75    0.82
   9  -4  -1   21.59    1.00
   9  -4  -1   20.72    0.97
  -9   4   1   20.92    0.94
   8  -4  -1    1.34    0.31
   8  -4  -1    1.89    0.35
   7  -4  -1    0.20    0.18
   7  -4  -1   -0.16    0.13
   7  -4  -1    0.18    0.10
  -7   4   1   -0.02    0.13
   6  -4  -1   -0.02    0.14
   6  -4  -1    0.07    0.05
   6  -4  -1    0.16    0.13
   6  -4  -1    0.09    0.08
  -6   4   1    0.26    0.14
   5  -4  -1    6.64    0.38
   5  -4  -1    6.12    0.41
   5  -4  -1    6.92    0.26
   5  -4  -1    6.55    0.23
  -5   4   1    6.80    0.40
  -5   4   1    6.41    0.31
   4  -4  -1    5.66    0.23
   4  -4  -1    5.87    0.25
   4  -4  -1    5.35    0.35
   4  -4  -1    5.78    0.24
   4  -4  -1    5.58    0.31
  -4   4   1    6.04    0.27
  -4   4   1    5.18    0.33
   3  -4  -1   23.58    0.55
   3  -4  -1   23.41    0.55
   3  -4  -1   23.13    0.69
   3  -4  -1   24.08    0.59
  -3   4   1   23.93    0.56
  -3   4   1   22.35    0.68
   2  -4  -1   17.13    0.48
   2  -4  -1   17.23    0.48
   2  -4  -1   17.79    0.43
   2  -4  -1   17.23    0.56
  -2   4   1   17.36    0.42
  -2   4   1   17.74    0.57
  -2   4   1   17.93    0.50
   1  -4  -1    2.59    0.15
   1  -4  -1    2.81    0.22
   1  -4  -1    2.44    0.23
   1  -4  -1    2.54    0.25
  -1   4   1    2.46    0.19
  -1   4   1    2.68    0.24
  -1   4   1    2.46    0.23
   0  -4  -1   61.90    1.22
   0  -4  -1   62.65    1.24
   0  -4  -1   63.25    1.23
   0   4   1   61.91    1.18
   0   4   1   61.55    1.18
   0   4   1   63.10    1.25
  -1  -4  -1    5.48    0.33
  -1  -4  -1    5.02    0.31
  -1  -4  -1    5.52    0.32
   1   4   1    5.13    0.30
   1   4   1    5.01    0.26
   1   4   1    5.93    0.34
  -2  -4  -1    1.90    0.25
  -2  -4  -1    1.34    0.20
  -2  -4  -1    1.43    0.21
   2   4   1    1.70    0.17
   2   4   1    2.22    0.25
   2   4   1    1.96    0.25
  -3  -4  -1    0.35    0.15
  -3  -4  -1    0.74    0.16
  -3  -4  -1    0.60    0.17
  -3  -4  -1    0.85    0.19
   3   4   1    0.77    0.18
   3   4   1    0.93    0.22
   3   4   1    0.51    0.14
   3   4   1    0.54    0.15
  -4  -4  -1   11.71    0.55
  -4  -4  -1   10.87    0.53
  -4  -4  -1   10.84    0.55
  -4  -4  -1   11.40    0.52
   4   4   1   10.89    0.57
   4   4   1   10.60    0.54
   4   4   1   11.61    0.54
   4   4   1   11.30    0.46
  -5  -4  -1    0.09    0.16
  -5  -4  -1    0.17    0.18
   5   4   1    0.32    0.16
   5   4   1    0.41    0.20
   5   4   1    0.21    0.17
  -6  -4  -1    7.95    0.57
  -6  -4  -1    7.16    0.52
   6   4   1    8.24    0.54
   6   4   1    8.27    0.56
   6   4   1    7.72    0.56
  -7  -4  -1    9.14    0.63
  -7  -4  -1   10.05    0.68
   7   4   1    9.72    0.64
   7   4   1    8.33    0.63
   7   4   1    9.25    0.63
  -8  -4  -1    0.22    0.24
  -8  -4  -1    0.11    0.22
   8   4   1    0.24    0.23
   8   4   1    0.58    0.30
   8   4   1    0.44    0.26
  10  -5  -1    1.60    0.38
  10  -5  -1    0.92    0.33
 -10   5   1    1.48    0.38
   9  -5  -1    1.26    0.36
   9  -5  -1    1.52    0.35
   8  -5  -1    7.99    0.57
   8  -5  -1    9.01    0.62
   7  -5  -1    2.99    0.26
   7  -5  -1    3.66    0.44
   7  -5  -1    3.35    0.39
  -7   5   1    3.16    0.38
   6  -5  -1   15.90    0.71
   6  -5  -1   15.50    0.41
   6  -5  -1   15.25    0.48
   6  -5  -1   15.56    0.65
  -6   5   1   15.18    0.65
   5  -5  -1    0.00    0.07
   5  -5  -1    0.24    0.10
   5  -5  -1    0.05    0.13
   5  -5  -1   -0.06    0.09
  -5   5   1   -0.04    0.12
   4  -5  -1   61.34    1.13
   4  -5  -1   61.13    1.15
   4  -5  -1   60.52    1.40
   4  -5  -1   58.96    1.20
  -4   5   1   59.77    1.35
  -4   5   1   59.52    1.12
   3  -5  -1    0.73    0.14
   3  -5  -1    0.62    0.13
   3  -5  -1    0.64    0.17
   3  -5  -1    0.60    0.12
  -3   5   1    0.66    0.16
   2  -5  -1    0.99    0.13
   2  -5  -1    1.30    0.21
   2  -5  -1    0.90    0.15
   2  -5  -1    0.92    0.16
  -2   5   1    0.91    0.16
  -2   5   1    1.02    0.19
  -2   5   1    0.82    0.13
   1  -5  -1   12.84    0.51
   1  -5  -1   10.20    0.44
   1  -5  -1   10.72    0.34
   1  -5  -1   11.79    0.46
  -1   5   1   11.25    0.46
  -1   5   1   10.67    0.46
  -1   5   1   11.70    0.42
   0  -5  -1    0.91    0.17
   0  -5  -1    0.92    0.18
   0  -5  -1    1.00    0.18
   0   5   1    1.14    0.19
   0   5   1    0.86    0.16
   0   5   1    0.95    0.19
  -1  -5  -1    3.97    0.32
  -1  -5  -1    3.82    0.31
  -1  -5  -1    3.86    0.31
   1   5   1    4.25    0.28
   1   5   1    4.22    0.39
   1   5   1    4.02    0.31
  -2  -5  -1    0.13    0.12
  -2  -5  -1    0.26    0.13
  -2  -5  -1    0.09    0.13
   2   5   1    0.19    0.10
   2   5   1   -0.11    0.11
   2   5   1    0.29    0.12
  -3  -5  -1    4.73    0.44
  -3  -5  -1    4.93    0.38
  -3  -5  -1    5.03    0.37
   3   5   1    4.25    0.40
   3   5   1    4.42    0.34
   3   5   1    5.31    0.48
  -4  -5  -1   16.68    0.72
  -4  -5  -1   15.73    0.66
  -4  -5  -1   16.36    0.71
   4   5   1   15.83    0.70
   4   5   1   17.05    0.69
   4   5   1   17.23    0.76
   4   5   1   16.51    0.62
  -5  -5  -1    0.31    0.20
  -5  -5  -1    0.54    0.23
   5   5   1    0.55    0.23
   5   5   1    0.33    0.21
   5   5   1    0.45    0.22
  -6  -5  -1    3.21    0.45
  -6  -5  -1    3.41    0.45
   6   5   1    3.00    0.43
   6   5   1    3.34    0.43
   6   5   1    3.33    0.45
  -7  -5  -1    0.62    0.29
  -7  -5  -1    0.55    0.26
   7   5   1    0.72    0.31
   7   5   1    0.72    0.28
   7   5   1    0.61    0.28
   9  -6  -1   -0.19    0.18
   9  -6  -1   -0.02    0.20
   8  -6  -1    5.93    0.62
   8  -6  -1    5.92    0.56
  -8   6   1    5.91    0.55
   7  -6  -1   16.89    0.57
   7  -6  -1   17.89    0.76
   7  -6  -1   16.67    0.82
  -7   6   1   16.40    0.76
   6  -6  -1   39.41    1.22
   6  -6  -1   41.11    1.11
   6  -6  -1   40.72    0.85
   6  -6  -1   41.26    0.96
  -6   6   1   44.51    1.23
   5  -6  -1    6.49    0.35
   5  -6  -1    6.09    0.31
   5  -6  -1    5.61    0.37
   5  -6  -1    5.84    0.45
  -5   6   1    5.47    0.43
   4  -6  -1   16.74    0.57
   4  -6  -1   16.89    0.54
   4  -6  -1   17.51    0.71
   4  -6  -1   17.46    0.57
  -4   6   1   16.32    0.68
   3  -6  -1    8.37    0.41
   3  -6  -1    7.63    0.46
   3  -6  -1    7.79    0.39
   3  -6  -1    8.15    0.35
  -3   6   1    7.49    0.45
   2  -6  -1   13.69    0.59
   2  -6  -1   12.22    0.52
   2  -6  -1   13.20    0.42
   2  -6  -1   13.57    0.53
  -2   6   1   12.38    0.56
  -2   6   1   13.13    0.55
   1  -6  -1    0.61    0.18
   1  -6  -1    0.65    0.16
   1  -6  -1    0.47    0.12
   1  -6  -1    0.69    0.17
  -1   6   1    0.43    0.14
  -1   6   1    0.57    0.17
  -1   6   1    0.58    0.17
   0  -6  -1    0.06    0.11
   0  -6  -1    0.11    0.13
   0  -6  -1    0.20    0.13
   0   6   1    0.11    0.13
   0   6   1    0.02    0.13
   0   6   1    0.13    0.11
  -1  -6  -1   30.50    0.93
  -1  -6  -1   30.12    0.93
  -1  -6  -1   30.78    0.93
   1   6   1   30.92    0.90
   1   6   1   29.26    0.95
   1   6   1   31.34    0.83
  -2  -6  -1   19.13    0.75
  -2  -6  -1   17.68    0.72
  -2  -6  -1   19.86    0.76
   2   6   1   20.03    0.74
   2   6   1   17.50    0.75
  -3  -6  -1    0.72    0.22
  -3  -6  -1    0.39    0.17
  -3  -6  -1    0.28    0.19
   3   6   1    0.38    0.22
   3   6   1    0.64    0.19
   3   6   1    0.75    0.21
  -4  -6  -1    5.54    0.53
  -4  -6  -1    5.20    0.50
   4   6   1    5.41    0.41
   4   6   1    4.69    0.53
   4   6   1    4.70    0.48
  -5  -6  -1    0.21    0.21
   5   6   1    0.55    0.24
   5   6   1    0.44    0.23
  -6  -6  -1   -0.08    0.19
   6   6   1    0.09    0.19
   6   6   1    0.09    0.20
  -7  -6  -1   -0.12    0.21
   7   6   1   -0.15    0.18
   7   6   1    0.17    0.24
   9  -7  -1    0.38    0.26
   8  -7  -1    3.69    0.53
  -8   7   1    3.20    0.45
   7  -7  -1    0.98    0.23
   7  -7  -1    0.77    0.30
   7  -7  -1    1.00    0.20
   7  -7  -1    0.40    0.26
  -7   7   1    0.34    0.24
   6  -7  -1    0.63    0.15
   6  -7  -1    0.70    0.18
   6  -7  -1    0.63    0.25
   6  -7  -1    0.43    0.20
  -6   7   1    0.68    0.23
   5  -7  -1    1.35    0.31
   5  -7  -1    1.92    0.26
  -5   7   1    2.20    0.36
   4  -7  -1   10.84    0.51
   4  -7  -1   10.71    0.48
   4  -7  -1   10.25    0.59
  -4   7   1   10.72    0.59
   3  -7  -1    5.02    0.36
   3  -7  -1    4.73    0.36
   3  -7  -1    5.13    0.41
  -3   7   1    4.28    0.43
   2  -7  -1    6.35    0.45
   2  -7  -1    6.10    0.40
   2  -7  -1    6.24    0.42
  -2   7   1    6.01    0.44
   1  -7  -1   34.93    1.01
   1  -7  -1   35.58    1.05
   1  -7  -1   32.86    1.00
  -1   7   1   36.04    1.04
  -1   7   1   32.54    0.99
  -1   7   1   34.04    0.99
   0  -7  -1   36.08    1.06
   0  -7  -1   35.29    1.06
   0  -7  -1   35.09    1.06
   0   7   1   34.10    0.99
   0   7   1   37.63    1.11
   0   7   1   36.22    1.01
  -1  -7  -1   20.63    0.82
  -1  -7  -1   20.94    0.81
  -1  -7  -1   20.21    0.81
   1   7   1   21.60    0.80
   1   7   1   22.09    0.74
   1   7   1   21.76    0.86
  -2  -7  -1   26.84    0.98
  -2  -7  -1   25.49    0.94
  -2  -7  -1   25.82    0.94
   2   7   1   25.89    0.98
   2   7   1   27.18    0.95
   2   7   1   24.75    0.90
  -3  -7  -1   36.81    1.17
  -3  -7  -1   37.77    1.18
  -3  -7  -1   34.31    1.18
   3   7   1   35.97    1.11
   3   7   1   37.10    1.24
   3   7   1   36.78    1.17
  -4  -7  -1    2.95    0.42
   4   7   1    2.89    0.45
   4   7   1    3.22    0.44
   4   7   1    2.76    0.41
  -5  -7  -1    9.33    0.65
   5   7   1   11.25    0.73
   5   7   1   10.45    0.72
  -6  -7  -1    2.19    0.43
   6   7   1    1.95    0.40
   6   7   1    2.14    0.44
   8  -8  -1    3.56    0.53
  -8   8   1    4.15    0.54
   7  -8  -1    0.26    0.17
   7  -8  -1    0.48    0.14
   7  -8  -1    0.39    0.23
  -7   8   1   -0.23    0.20
   6  -8  -1    2.32    0.32
   6  -8  -1    1.85    0.37
   6  -8  -1    1.96    0.26
  -6   8   1    2.21    0.38
   5  -8  -1    4.98    0.37
   5  -8  -1    3.87    0.48
   5  -8  -1    5.19    0.46
  -5   8   1    4.30    0.50
   4  -8  -1    5.91    0.41
   4  -8  -1    6.15    0.59
   4  -8  -1    5.95    0.42
  -4   8   1    5.37    0.54
   3  -8  -1    4.02    0.40
   3  -8  -1    4.65    0.49
   3  -8  -1    3.41    0.39
  -3   8   1    3.34    0.42
   2  -8  -1    3.16    0.39
   2  -8  -1    2.99    0.39
   2  -8  -1    3.67    0.41
  -2   8   1    3.78    0.46
   1  -8  -1    4.91    0.46
   1  -8  -1    5.33    0.52
   1  -8  -1    6.18    0.55
  -1   8   1    5.61    0.50
   0  -8  -1   20.04    0.84
   0  -8  -1   20.07    0.83
   0  -8  -1   21.50    0.87
   0   8   1   19.72    0.89
   0   8   1   20.45    0.80
   0   8   1   19.79    0.86
  -1  -8  -1   17.90    0.82
  -1  -8  -1   15.73    0.78
  -1  -8  -1   19.11    0.84
   1   8   1   18.94    0.87
   1   8   1   20.40    0.82
   1   8   1   18.75    0.74
  -2  -8  -1   -0.13    0.13
  -2  -8  -1   -0.38    0.13
  -2  -8  -1   -0.10    0.16
   2   8   1    0.02    0.20
   2   8   1    0.20    0.19
   2   8   1    0.13    0.18
  -3  -8  -1    0.06    0.19
  -3  -8  -1    0.29    0.21
  -3  -8  -1    0.15    0.19
   3   8   1    0.62    0.25
   3   8   1    0.01    0.20
   3   8   1    0.20    0.20
  -4  -8  -1   12.38    0.75
   4   8   1   11.28    0.80
   4   8   1   13.13    0.78
  -5  -8  -1   18.72    0.95
   5   8   1   18.18    0.95
   5   8   1   18.21    1.02
   8  -9  -1    1.13    0.34
  -8   9   1    1.41    0.37
   7  -9  -1    0.21    0.15
   7  -9  -1    0.40    0.27
   7  -9  -1    0.27    0.18
  -7   9   1    0.39    0.27
   6  -9  -1    0.28    0.16
   6  -9  -1    0.29    0.18
   6  -9  -1    0.35    0.25
  -6   9   1    0.47    0.27
   5  -9  -1    0.45    0.20
   5  -9  -1    0.25    0.17
   5  -9  -1    0.10    0.18
  -5   9   1    0.71    0.28
   4  -9  -1    1.12    0.25
   4  -9  -1    0.47    0.22
   4  -9  -1    1.17    0.31
  -4   9   1    0.51    0.26
   3  -9  -1   13.97    0.75
   3  -9  -1   11.97    0.67
   3  -9  -1   12.92    0.65
  -3   9   1   14.10    0.75
   2  -9  -1    4.50    0.51
   2  -9  -1    4.13    0.46
   2  -9  -1    4.58    0.49
  -2   9   1    4.27    0.50
   1  -9  -1   -0.02    0.15
   1  -9  -1   -0.03    0.14
   1  -9  -1    0.27    0.20
  -1   9   1    0.02    0.20
   0  -9  -1    2.07    0.38
   0  -9  -1    1.40    0.33
   0  -9  -1    2.00    0.36
   0   9   1    1.67    0.34
  -1  -9  -1    1.36    0.34
  -1  -9  -1    1.01    0.28
  -1  -9  -1    1.61    0.35
   1   9   1    1.09    0.39
   1   9   1    1.24    0.33
  -2  -9  -1    0.40    0.23
  -2  -9  -1    0.84    0.29
  -2  -9  -1    0.29    0.22
   2   9   1    0.05    0.21
   2   9   1    0.68    0.30
   2   9   1    0.40    0.23
  -3  -9  -1    3.02    0.47
  -3  -9  -1    3.09    0.48
  -3  -9  -1    3.07    0.49
   3   9   1    3.73    0.50
   3   9   1    3.68    0.50
   3   9   1    3.35    0.53
  -4  -9  -1    4.39    0.57
   4   9   1    4.83    0.57
   4   9   1    4.05    0.58
   7 -10  -1    0.13    0.22
   6 -10  -1    4.41    0.45
   6 -10  -1    4.04    0.48
   6 -10  -1    4.78    0.62
  -6  10   1    3.04    0.50
   5 -10  -1    0.02    0.19
   5 -10  -1    0.02    0.16
   5 -10  -1    0.09    0.18
  -5  10   1   -0.02    0.23
   4 -10  -1    0.59    0.24
   4 -10  -1    0.33    0.24
   4 -10  -1    0.69    0.24
  -4  10   1    0.60    0.30
   3 -10  -1    2.68    0.42
   3 -10  -1    2.91    0.44
   3 -10  -1    3.08    0.42
  -3  10   1    3.97    0.54
   2 -10  -1    0.77    0.27
   2 -10  -1    0.48    0.25
   2 -10  -1    0.86    0.28
  -2  10   1    0.60    0.28
   1 -10  -1    3.18    0.46
   1 -10  -1    3.08    0.45
   1 -10  -1    3.32    0.47
  -1  10   1    2.44    0.42
   0 -10  -1    0.25    0.23
   0 -10  -1    0.01    0.20
   0 -10  -1    0.24    0.21
  -1 -10  -1    0.05    0.18
  -1 -10  -1    0.23    0.22
  -1 -10  -1    0.03    0.19
   1  10   1    0.18    0.23
  -2 -10  -1   -0.26    0.15
  -2 -10  -1    0.21    0.23
  -2 -10  -1    0.33    0.27
   2  10   1   -0.27    0.18
   5 -11  -1    2.77    0.42
   5 -11  -1    2.73    0.51
   4 -11  -1    1.39    0.32
   4 -11  -1    1.69    0.38
   4 -11  -1    1.93    0.43
  -4  11   1    1.39    0.40
   3 -11  -1    5.39    0.61
   3 -11  -1    6.45    0.73
   3 -11  -1    5.79    0.64
  -3  11   1    5.51    0.64
   2 -11  -1    0.03    0.17
   2 -11  -1    0.35    0.25
   2 -11  -1    0.15    0.26
   1 -11  -1    5.35    0.62
   1 -11  -1    4.54    0.58
   1 -11  -1    5.64    0.65
   0 -11  -1    4.90    0.60
   0 -11  -1    4.36    0.57
   0  11  -2    0.33    0.28
   0 -11   2    0.28    0.24
   0 -11   2   -0.21    0.15
   0 -11   2    0.13    0.25
  -1  11  -2   12.57    0.85
   1 -11   2   11.60    0.75
   1 -11   2   12.74    0.83
   1 -11   2   11.41    0.76
  -2  11  -2   -0.03    0.22
   2 -11   2    0.71    0.30
   2 -11   2    0.22    0.24
   2 -11   2    0.52    0.25
  -3  11  -2    0.70    0.32
   3 -11   2    0.58    0.24
   3 -11   2    0.55    0.29
   3 -11   2    0.73    0.30
  -4  11  -2    0.48    0.27
   4 -11   2    0.40    0.26
   4 -11   2    0.90    0.32
   5 -11   2    5.59    0.65
   2  10  -2   -0.03    0.21
   2  10  -2    0.07    0.23
   2  10  -2    0.29    0.27
  -2 -10   2    0.01    0.20
  -2 -10   2    0.45    0.31
   1  10  -2   -0.13    0.19
   1  10  -2   -0.03    0.26
  -1 -10   2    0.22    0.21
  -1 -10   2    0.06    0.20
  -1 -10   2   -0.01    0.18
   0  10  -2    1.46    0.37
   0 -10   2    1.99    0.41
   0 -10   2    1.35    0.33
   0 -10   2    1.38    0.32
  -1  10  -2    1.35    0.35
   1 -10   2    1.15    0.31
   1 -10   2    1.16    0.32
   1 -10   2    1.13    0.29
  -2  10  -2    2.59    0.44
   2 -10   2    3.00    0.46
   2 -10   2    2.33    0.40
   2 -10   2    2.85    0.45
  -3  10  -2   11.76    0.76
   3 -10   2    9.70    0.64
   3 -10   2    9.12    0.67
   3 -10   2   10.45    0.67
  -4  10  -2    0.76    0.28
   4 -10   2    1.35    0.34
   4 -10   2    0.54    0.25
   5 -10   2    0.29    0.22
   5 -10   2    0.12    0.21
   5 -10   2    0.01    0.16
   6 -10   2    0.14    0.23
   6 -10   2    0.24    0.23
   6 -10   2   -0.12    0.15
   7 -10   2    5.87    0.68
   4   9  -2   -0.36    0.17
   4   9  -2   -0.27    0.20
   4   9  -2    0.10    0.22
   3   9  -2    0.22    0.23
   3   9  -2    0.16    0.22
   3   9  -2    0.10    0.22
   2   9  -2    1.31    0.33
   2   9  -2    0.91    0.28
   2   9  -2    0.30    0.25
  -2  -9   2    1.16    0.28
  -2  -9   2    0.83    0.29
  -2  -9   2    0.67    0.27
   1   9  -2    9.07    0.65
   1   9  -2   10.25    0.65
   1   9  -2   10.40    0.73
  -1  -9   2    9.13    0.65
  -1  -9   2   10.47    0.62
  -1  -9   2   10.51    0.68
   0   9  -2   12.79    0.69
   0   9  -2   13.87    0.77
   0   9  -2   13.27    0.77
   0  -9   2   12.93    0.72
   0  -9   2   12.09    0.67
   0  -9   2   13.86    0.76
  -1   9  -2    0.58    0.24
   1  -9   2    0.54    0.24
   1  -9   2    0.33    0.20
   1  -9   2    0.18    0.18
  -2   9  -2    2.90    0.41
   2  -9   2    2.17    0.34
   2  -9   2    2.98    0.43
   2  -9   2    3.63    0.44
   3  -9   2    1.26    0.29
   3  -9   2    0.75    0.24
   3  -9   2    0.99    0.27
   4  -9   2    0.04    0.17
   4  -9   2    0.07    0.17
   5  -9   2    0.27    0.21
   5  -9   2    0.32    0.22
   5  -9   2    0.29    0.18
   6  -9   2    4.59    0.56
   6  -9   2    4.36    0.45
   6  -9   2    4.78    0.52
   7  -9   2    1.75    0.34
   7  -9   2    1.38    0.36
   7  -9   2    2.14    0.32
   8  -9   2    1.57    0.40
   5   8  -2    4.41    0.59
   5   8  -2    5.21    0.60
   4   8  -2    0.61    0.28
   4   8  -2    0.30    0.22
   4   8  -2    0.80    0.27
   3   8  -2    0.86    0.26
   3   8  -2    0.96    0.30
   3   8  -2    1.19    0.30
  -3  -8   2    0.72    0.36
  -3  -8   2    0.85    0.26
   2   8  -2   -0.19    0.18
   2   8  -2   -0.03    0.18
   2   8  -2    0.30    0.20
  -2  -8   2   -0.20    0.13
  -2  -8   2    0.14    0.15
  -2  -8   2    0.14    0.18
   1   8  -2   -0.05    0.16
   1   8  -2   -0.05    0.15
   1   8  -2   -0.08    0.16
  -1  -8   2   -0.17    0.12
  -1  -8   2    0.01    0.17
  -1  -8   2    0.01    0.13
   0   8  -2   64.85    1.58
   0   8  -2   67.31    1.71
   0   8  -2   67.58    1.71
   0  -8   2   67.59    1.67
   0  -8   2   63.79    1.64
   0  -8   2   65.76    1.48
   0  -8   2   66.36    1.57
  -1   8  -2    5.17    0.42
  -1   8  -2    5.57    0.53
  -1   8  -2    4.21    0.46
   1  -8   2    4.73    0.47
   1  -8   2    5.31    0.49
   1  -8   2    5.63    0.44
   1  -8   2    5.61    0.41
   2  -8   2   -0.09    0.11
   2  -8   2   -0.03    0.13
   2  -8   2    0.11    0.14
   2  -8   2   -0.09    0.12
   3  -8   2    5.61    0.45
   3  -8   2    6.71    0.44
   3  -8   2    5.65    0.44
   3  -8   2    4.88    0.46
   4  -8   2    5.84    0.56
   4  -8   2    5.05    0.46
   4  -8   2    4.48    0.46
   5  -8   2    3.66    0.46
   5  -8   2    3.78    0.42
   5  -8   2    3.29    0.39
   5  -8   2    3.47    0.40
   6  -8   2    5.86    0.53
   6  -8   2    5.57    0.53
   6  -8   2    6.35    0.64
   6  -8   2    5.18    0.41
   7  -8   2    0.91    0.26
   7  -8   2    0.75    0.24
   7  -8   2    1.03    0.24
   7  -8   2    1.01    0.33
   8  -8   2   11.64    0.66
   8  -8   2   11.89    0.80
   8  -8   2   11.14    0.55
   8  -8   2   11.53    0.73
   6   7  -2    0.34    0.26
   6   7  -2    0.14    0.24
   5   7  -2    0.20    0.22
   5   7  -2    0.13    0.25
   5   7  -2    0.25    0.21
   4   7  -2    4.01    0.47
   4   7  -2    4.83    0.50
   4   7  -2    4.48    0.54
  -4  -7   2    5.41    0.72
   3   7  -2    0.49    0.23
   3   7  -2    0.47    0.22
   3   7  -2    0.56    0.23
  -3  -7   2    1.04    0.26
  -3  -7   2    1.13    0.25
  -3  -7   2    0.83    0.25
   2   7  -2   -0.02    0.15
   2   7  -2    0.37    0.21
   2   7  -2    0.03    0.16
  -2  -7   2    0.44    0.20
  -2  -7   2    0.20    0.16
  -2  -7   2    0.42    0.17
   1   7  -2  124.78    2.49
   1   7  -2  120.88    2.44
   1   7  -2  119.96    2.35
  -1  -7   2  122.34    2.29
  -1  -7   2  126.49    2.45
  -1  -7   2  121.51    2.41
   0   7  -2    1.04    0.26
   0   7  -2    0.77    0.21
   0   7  -2    1.21    0.24
   0  -7   2    1.03    0.22
   0  -7   2    1.21    0.24
   0  -7   2    1.01    0.25
   0  -7   2    1.10    0.26
  -1   7  -2   20.93    0.80
  -1   7  -2   20.92    0.73
  -1   7  -2   21.70    0.81
   1  -7   2   20.77    0.75
   1  -7   2   20.92    0.71
   1  -7   2   20.68    0.78
   1  -7   2   20.95    0.77
  -2   7  -2    3.16    0.36
  -2   7  -2    3.41    0.35
   2  -7   2    3.53    0.38
   2  -7   2    3.20    0.32
   2  -7   2    2.90    0.33
   2  -7   2    3.23    0.36
   3  -7   2    7.34    0.47
   3  -7   2    7.54    0.45
   3  -7   2    7.36    0.42
   3  -7   2    7.26    0.46
   4  -7   2    0.17    0.14
   4  -7   2    0.07    0.14
   4  -7   2   -0.04    0.12
   4  -7   2   -0.06    0.13
   5  -7   2    3.18    0.34
   5  -7   2    3.34    0.36
   5  -7   2    3.19    0.40
   5  -7   2    3.35    0.37
   6  -7   2   24.28    0.97
   6  -7   2   23.14    0.83
   6  -7   2   24.70    0.79
   6  -7   2   23.43    0.88
   7  -7   2    8.01    0.57
   7  -7   2    8.20    0.50
   7  -7   2    7.05    0.58
   7  -7   2    7.41    0.44
   8  -7   2    6.79    0.70
   8  -7   2    5.23    0.48
   8  -7   2    5.71    0.60
   8  -7   2    6.08    0.40
   9  -7   2    0.50    0.22
   9  -7   2    0.74    0.32
   9  -7   2    0.90    0.32
   7   6  -2    1.10    0.32
   7   6  -2    1.14    0.33
   6   6  -2    3.71    0.49
   6   6  -2    3.59    0.47
   5   6  -2    0.01    0.15
   5   6  -2   -0.06    0.17
   5   6  -2   -0.13    0.15
   4   6  -2    0.21    0.17
   4   6  -2    0.28    0.19
   4   6  -2    0.14    0.18
  -4  -6   2    0.38    0.17
   3   6  -2    0.23    0.19
   3   6  -2    0.37    0.19
   3   6  -2   -0.05    0.13
  -3  -6   2    0.50    0.17
  -3  -6   2    0.26    0.18
  -3  -6   2    0.49    0.18
   2   6  -2    3.56    0.37
   2   6  -2    2.68    0.35
   2   6  -2    2.65    0.32
  -2  -6   2    3.15    0.34
  -2  -6   2    3.95    0.42
  -2  -6   2    3.11    0.36
   1   6  -2   29.92    0.90
   1   6  -2   31.01    0.95
   1   6  -2   30.34    0.97
  -1  -6   2   32.65    0.87
  -1  -6   2   31.24    0.95
  -1  -6   2   30.61    0.93
   0   6  -2   23.53    0.81
   0   6  -2   24.31    0.75
   0   6  -2   22.74    0.79
   0  -6   2   23.16    0.79
   0  -6   2   24.14    0.72
   0  -6   2   21.76    0.76
   0  -6   2   23.48    0.72
  -1   6  -2   18.39    0.64
  -1   6  -2   19.63    0.71
  -1   6  -2   19.15    0.69
   1  -6   2   18.36    0.62
   1  -6   2   18.25    0.64
   1  -6   2   19.85    0.69
   1  -6   2   19.12    0.69
  -2   6  -2    8.28    0.45
  -2   6  -2    8.24    0.40
   2  -6   2    8.69    0.42
   2  -6   2    7.88    0.43
   2  -6   2    7.41    0.42
   2  -6   2    7.68    0.43
   3  -6   2    0.61    0.16
   3  -6   2    0.94    0.20
   3  -6   2    0.71    0.17
   3  -6   2    1.15    0.23
   4  -6   2    3.48    0.34
   4  -6   2    3.42    0.35
   4  -6   2    2.94    0.35
   4  -6   2    3.01    0.32
   5  -6   2    5.27    0.36
   5  -6   2    5.09    0.42
   5  -6   2    5.21    0.40
   5  -6   2    5.20    0.37
   6  -6   2   13.99    0.66
   6  -6   2   12.71    0.69
   6  -6   2   12.91    0.54
   6  -6   2   13.10    0.57
   7  -6   2    0.62    0.19
   7  -6   2    0.48    0.22
   7  -6   2    0.55    0.17
   7  -6   2    0.54    0.23
   8  -6   2    0.87    0.28
   8  -6   2    0.47    0.26
   8  -6   2    0.75    0.22
   8  -6   2    0.56    0.17
   9  -6   2    4.72    0.46
   9  -6   2    3.88    0.52
   9  -6   2    4.42    0.59
   8   5  -2    1.18    0.31
   8   5  -2    1.01    0.30
   7   5  -2    0.18    0.21
   7   5  -2    0.10    0.19
   6   5  -2   -0.01    0.17
   6   5  -2   -0.04    0.17
   5   5  -2    0.17    0.17
   5   5  -2   -0.02    0.15
   5   5  -2    0.43    0.17
  -5  -5   2    0.07    0.15
   4   5  -2    5.75    0.46
   4   5  -2    5.78    0.42
   4   5  -2    5.26    0.42
  -4  -5   2    6.08    0.40
   3   5  -2    0.55    0.19
   3   5  -2    0.33    0.15
   3   5  -2    0.79    0.19
  -3  -5   2    0.43    0.15
  -3  -5   2    0.47    0.16
  -3  -5   2    0.62    0.18
   2   5  -2    0.32    0.15
   2   5  -2    0.28    0.14
   2   5  -2    0.18    0.13
  -2  -5   2    0.05    0.10
  -2  -5   2    0.01    0.10
  -2  -5   2    0.25    0.14
   1   5  -2    0.04    0.13
   1   5  -2   -0.08    0.08
   1   5  -2    0.14    0.11
  -1  -5   2    0.01    0.09
  -1  -5   2   -0.16    0.08
  -1  -5   2    0.06    0.09
   0   5  -2   32.23    0.89
   0   5  -2   32.12    0.83
   0   5  -2   31.97    0.88
   0  -5   2   31.18    0.86
   0  -5   2   31.76    0.79
   0  -5   2   31.30    0.85
  -1   5  -2    5.08    0.30
  -1   5  -2    4.51    0.33
   1  -5   2    5.19    0.33
   1  -5   2    5.28    0.31
   1  -5   2    4.56    0.32
   1  -5   2    4.78    0.30
  -2   5  -2    0.15    0.11
  -2   5  -2    0.09    0.09
   2  -5   2    0.22    0.11
   2  -5   2    0.15    0.11
   2  -5   2    0.16    0.11
   2  -5   2   -0.04    0.09
  -3   5  -2    0.38    0.10
  -3   5  -2    0.35    0.12
   3  -5   2    0.40    0.14
   3  -5   2    0.34    0.14
   3  -5   2    0.41    0.13
   3  -5   2    0.05    0.10
   4  -5   2   10.65    0.51
   4  -5   2   10.31    0.44
   4  -5   2   11.27    0.50
   4  -5   2   10.98    0.47
   5  -5   2   20.03    0.63
   5  -5   2   20.82    0.74
   5  -5   2   21.16    0.79
   5  -5   2   20.16    0.66
   6  -5   2    0.45    0.19
   6  -5   2    0.72    0.23
   6  -5   2    0.60    0.16
   6  -5   2    1.10    0.21
   7  -5   2    0.50    0.15
   7  -5   2    0.14    0.18
   7  -5   2    0.78    0.26
   7  -5   2    0.47    0.17
   8  -5   2    0.90    0.18
   8  -5   2    0.91    0.30
   8  -5   2    0.85    0.22
   8  -5   2    1.29    0.32
   9  -5   2    0.19    0.24
   9  -5   2    0.80    0.30
   9  -5   2    0.15    0.18
  10  -5   2    0.59    0.32
   8   4  -2    4.34    0.50
   8   4  -2    3.59    0.54
   8   4  -2    2.68    0.41
  -8  -4   2    3.47    0.52
   7   4  -2    0.88    0.26
   7   4  -2    0.82    0.24
   7   4  -2    0.45    0.27
  -7  -4   2    0.60    0.27
   6   4  -2    2.96    0.42
   6   4  -2    2.85    0.35
   6   4  -2    3.12    0.39
  -6  -4   2    3.14    0.43
  -6  -4   2    3.15    0.38
   5   4  -2    0.00    0.12
   5   4  -2    0.16    0.16
   5   4  -2    0.05    0.13
  -5  -4   2   -0.01    0.16
  -5  -4   2   -0.20    0.12
   4   4  -2    8.03    0.44
   4   4  -2    8.31    0.45
   4   4  -2    8.03    0.48
  -4  -4   2    8.38    0.44
   3   4  -2   27.93    0.80
   3   4  -2   25.96    0.82
   3   4  -2   25.36    0.76
  -3  -4   2   26.87    0.76
  -3  -4   2   27.53    0.80
  -3  -4   2   27.84    0.74
   2   4  -2   32.19    0.87
   2   4  -2   31.86    0.85
   2   4  -2   31.47    0.82
  -2  -4   2   31.87    0.84
  -2  -4   2   31.85    0.82
  -2  -4   2   31.51    0.75
   1   4  -2    5.48    0.33
   1   4  -2    5.98    0.35
   1   4  -2    5.11    0.30
  -1  -4   2    5.93    0.33
  -1  -4   2    5.36    0.28
  -1  -4   2    5.21    0.31
   0   4  -2    7.73    0.38
   0   4  -2    8.06    0.37
   0  -4   2    8.19    0.38
   0  -4   2    7.80    0.37
   0  -4   2    8.82    0.34
  -1   4  -2   21.98    0.63
  -1   4  -2   21.51    0.62
  -1   4  -2   22.16    0.58
   1  -4   2   21.45    0.61
   1  -4   2   21.32    0.58
   1  -4   2   21.44    0.58
   1  -4   2   20.51    0.60
  -2   4  -2   31.14    0.71
  -2   4  -2   32.01    0.77
   2  -4   2   31.49    0.77
   2  -4   2   32.38    0.77
   2  -4   2   32.14    0.78
   2  -4   2   31.85    0.77
  -3   4  -2   17.91    0.54
  -3   4  -2   17.46    0.47
   3  -4   2   17.25    0.54
   3  -4   2   17.48    0.58
   3  -4   2   17.85    0.54
   3  -4   2   18.23    0.57
  -4   4  -2   41.64    1.00
   4  -4   2   47.69    1.09
   4  -4   2   46.24    0.98
   4  -4   2   47.52    1.13
   4  -4   2   47.47    1.01
   5  -4   2   21.68    0.77
   5  -4   2   21.73    0.64
   5  -4   2   20.53    0.72
   5  -4   2   21.21    0.62
   6  -4   2    7.30    0.49
   6  -4   2    6.03    0.36
   6  -4   2    5.66    0.43
   6  -4   2    6.48    0.35
   7  -4   2    1.89    0.24
   7  -4   2    2.01    0.26
   7  -4   2    1.93    0.34
   7  -4   2    2.71    0.40
   8  -4   2    4.88    0.53
   8  -4   2    5.14    0.39
   8  -4   2    4.03    0.31
   8  -4   2    4.78    0.54
   9  -4   2    0.52    0.19
   9  -4   2   -0.08    0.21
   9  -4   2    0.25    0.14
 -10   4  -2    1.12    0.34
  10  -4   2    0.98    0.26
  10  -4   2    0.38    0.28
   9   3  -2   17.63    1.00
   9   3  -2   16.73    0.82
   9   3  -2   15.84    0.76
  -9  -3   2   17.79    0.96
   8   3  -2    0.12    0.16
   8   3  -2    0.05    0.17
   8   3  -2   -0.27    0.19
  -8  -3   2   -0.03    0.19
   7   3  -2    0.15    0.16
   7   3  -2    0.20    0.15
   7   3  -2    0.43    0.26
  -7  -3   2    0.07    0.17
   6   3  -2    1.65    0.26
   6   3  -2    2.34    0.31
   6   3  -2    2.15    0.36
  -6  -3   2    1.77    0.32
   5   3  -2   19.79    0.65
   5   3  -2   19.85    0.68
   5   3  -2   19.92    0.71
   5   3  -2   19.69    0.78
  -5  -3   2   20.33    0.76
   4   3  -2    3.39    0.36
   4   3  -2    2.85    0.27
   4   3  -2    2.46    0.28
   4   3  -2    3.24    0.30
  -4  -3   2    2.63    0.32
  -4  -3   2    3.03    0.29
  -4  -3   2    2.43    0.29
   3   3  -2   69.14    1.35
   3   3  -2   67.76    1.31
   3   3  -2   66.92    1.36
  -3  -3   2   69.60    1.28
  -3  -3   2   66.01    1.37
  -3  -3   2   68.88    1.29
  -3  -3   2   65.82    1.32
   2   3  -2  111.59    1.89
   2   3  -2  109.14    1.84
   2   3  -2  110.43    1.89
  -2  -3   2  111.36    1.84
  -2  -3   2  107.07    1.76
  -2  -3   2  109.18    1.86
   1   3  -2   63.87    1.20
   1   3  -2   62.96    1.21
   1   3  -2   60.38    1.15
  -1  -3   2   61.88    1.07
  -1  -3   2   61.49    1.18
  -1  -3   2   63.16    1.18
   0   3  -2    3.01    0.22
   0   3  -2    3.08    0.22
   0   3  -2    2.77    0.20
   0  -3   2    2.83    0.17
   0  -3   2    3.02    0.21
   0  -3   2    2.63    0.21
  -1   3  -2   37.50    0.76
  -1   3  -2   37.35    0.80
  -1   3  -2   36.59    0.79
   1  -3   2   37.88    0.75
   1  -3   2   37.07    0.79
   1  -3   2   37.24    0.79
   1  -3   2   37.78    0.78
  -2   3  -2    2.85    0.18
  -2   3  -2    2.52    0.20
   2  -3   2    2.70    0.20
   2  -3   2    2.51    0.20
   2  -3   2    2.89    0.21
   2  -3   2    2.68    0.22
  -3   3  -2    0.34    0.08
  -3   3  -2    0.15    0.09
   3  -3   2    0.19    0.09
   3  -3   2    0.09    0.09
   3  -3   2    0.33    0.10
   3  -3   2    0.28    0.11
  -4   3  -2   12.52    0.43
   4  -3   2   13.49    0.53
   4  -3   2   11.94    0.42
   4  -3   2   12.74    0.43
   4  -3   2   12.71    0.50
   5  -3   2   28.40    0.70
   5  -3   2   26.48    0.82
   5  -3   2   27.92    0.72
   5  -3   2   27.53    0.86
   6  -3   2   26.60    0.74
   6  -3   2   27.27    0.72
   6  -3   2   26.45    0.91
   6  -3   2   27.90    0.91
   7  -3   2    6.36    0.36
   7  -3   2    6.94    0.51
   7  -3   2    6.60    0.51
   7  -3   2    6.18    0.38
   8  -3   2    0.03    0.11
   8  -3   2   -0.15    0.16
   8  -3   2    0.16    0.13
  -9   3  -2    1.81    0.36
   9  -3   2    1.98    0.28
   9  -3   2    1.88    0.30
   9  -3   2    2.54    0.45
 -10   3  -2    4.65    0.63
  10  -3   2    4.38    0.61
  10  -3   2    4.51    0.46
   9   2  -2    2.55    0.48
   9   2  -2    2.37    0.36
   9   2  -2    2.02    0.32
  -9  -2   2    2.24    0.43
   8   2  -2    6.26    0.66
   8   2  -2    6.75    0.47
   8   2  -2    6.65    0.45
  -8  -2   2    7.77    0.71
   7   2  -2   14.61    0.61
   7   2  -2   13.91    0.59
   7   2  -2   13.93    0.76
  -7  -2   2   14.40    0.71
   6   2  -2   86.43    1.71
   6   2  -2   87.38    1.70
   6   2  -2   89.81    1.98
  -6  -2   2   88.40    1.89
   5   2  -2    3.68    0.27
   5   2  -2    3.23    0.28
   5   2  -2    3.69    0.29
   5   2  -2    3.52    0.36
  -5  -2   2    3.93    0.37
   4   2  -2    3.52    0.25
   4   2  -2    4.29    0.27
   4   2  -2    4.46    0.29
   4   2  -2    3.60    0.34
  -4  -2   2    3.84    0.30
  -4  -2   2    4.52    0.27
   3   2  -2   86.05    1.50
   3   2  -2   84.81    1.49
   3   2  -2   83.91    1.45
   3   2  -2   84.56    1.59
  -3  -2   2   83.51    1.39
  -3  -2   2   81.81    1.54
  -3  -2   2   85.18    1.46
   2   2  -2   34.66    0.77
   2   2  -2   35.85    0.74
   2   2  -2   35.14    0.78
  -2  -2   2   37.09    0.76
  -2  -2   2   37.10    0.80
  -2  -2   2   36.55    0.69
  -2  -2   2   36.65    0.74
   1   2  -2    3.29    0.19
   1   2  -2    3.45    0.21
   1   2  -2    3.48    0.22
  -1  -2   2    3.25    0.20
  -1  -2   2    3.23    0.15
  -1  -2   2    3.33    0.20
   0   2  -2   14.98    0.41
   0   2  -2   14.82    0.39
   0  -2   2   15.01    0.41
   0  -2   2   14.98    0.41
   0  -2   2   15.08    0.33
  -1   2  -2   88.54    1.40
  -1   2  -2   87.68    1.39
  -1   2  -2   89.53    1.44
   1  -2   2   86.90    1.42
   1  -2   2   88.36    1.42
   1  -2   2   88.56    1.38
   1  -2   2   87.75    1.42
  -2   2  -2   24.02    0.56
  -2   2  -2   24.31    0.50
  -2   2  -2   23.06    0.51
   2  -2   2   23.32    0.54
   2  -2   2   23.56    0.57
   2  -2   2   24.04    0.58
   2  -2   2   23.25    0.55
  -3   2  -2    1.26    0.15
  -3   2  -2    1.21    0.12
   3  -2   2    1.07    0.16
   3  -2   2    1.35    0.16
   3  -2   2    1.63    0.17
   3  -2   2    1.45    0.19
  -4   2  -2  107.34    1.75
   4  -2   2  102.22    1.88
   4  -2   2  104.24    1.74
   4  -2   2  107.22    1.74
   4  -2   2  104.47    1.91
   5  -2   2    5.86    0.30
   5  -2   2    5.30    0.37
   5  -2   2    4.90    0.35
   5  -2   2    5.72    0.31
   6  -2   2    2.91    0.27
   6  -2   2    3.51    0.28
   6  -2   2    2.80    0.34
   7  -2   2    3.65    0.33
   7  -2   2    4.29    0.33
   7  -2   2    4.25    0.46
  -8   2  -2    5.38    0.55
   8  -2   2    4.64    0.35
   8  -2   2    4.97    0.52
   8  -2   2    4.37    0.40
  -9   2  -2    3.71    0.51
   9  -2   2    2.47    0.34
   9  -2   2    3.12    0.34
   9  -2   2    2.46    0.43
 -10   2  -2   -0.05    0.23
  10  -2   2    0.15    0.18
  10  -2   2    0.00    0.16
  10  -2   2    0.22    0.25
   9   1  -2   -0.04    0.22
   9   1  -2    0.03    0.13
   9   1  -2   -0.07    0.14
  -9  -1   2   -0.14    0.19
   8   1  -2    4.17    0.54
   8   1  -2    3.18    0.34
   8   1  -2    3.82    0.35
  -8  -1   2    3.06    0.42
   7   1  -2    0.50    0.16
   7   1  -2    0.64    0.17
   7   1  -2    0.57    0.22
  -7  -1   2    0.86    0.24
   6   1  -2   16.24    0.54
   6   1  -2   16.17    0.72
   6   1  -2   16.41    0.55
   6   1  -2   16.70    0.55
  -6  -1   2   16.76    0.69
   5   1  -2    6.52    0.31
   5   1  -2    6.03    0.42
   5   1  -2    6.59    0.32
   5   1  -2    6.61    0.31
  -5  -1   2    6.04    0.38
   4   1  -2   20.75    0.51
   4   1  -2   20.83    0.54
   4   1  -2   21.53    0.57
   4   1  -2   19.55    0.66
  -4  -1   2   19.41    0.62
  -4  -1   2   19.92    0.51
   3   1  -2   21.28    0.61
   3   1  -2   20.98    0.48
   3   1  -2   19.93    0.53
   3   1  -2   20.56    0.50
  -3  -1   2   21.24    0.58
  -3  -1   2   20.81    0.49
   2   1  -2   46.46    0.91
   2   1  -2   45.49    0.86
   2   1  -2   45.69    0.82
   2   1  -2   45.50    0.79
  -2  -1   2   45.65    0.87
  -2  -1   2   47.35    0.81
   1   1  -2   27.90    0.52
   1   1  -2   27.40    0.54
   1   1  -2   27.44    0.57
  -1  -1   2   27.07    0.52
  -1  -1   2   28.63    0.44
  -1  -1   2   27.92    0.54
   0   1  -2  308.03    4.35
   0   1  -2  315.57    4.24
   0   1  -2  309.05    4.24
   0  -1   2  304.06    4.17
   0  -1   2  300.85    4.23
   0  -1   2  307.15    4.23
  -1   1  -2    1.13    0.12
  -1   1  -2    0.90    0.09
  -1   1  -2    0.95    0.11
   1  -1   2    0.70    0.10
   1  -1   2    0.90    0.12
   1  -1   2    0.79    0.10
   1  -1   2    1.02    0.09
   1  -1   2    1.03    0.12
  -2   1  -2    0.44    0.06
  -2   1  -2    0.41    0.08
  -2   1  -2    0.47    0.10
   2  -1   2    0.40    0.09
   2  -1   2    0.32    0.09
   2  -1   2    0.42    0.10
   2  -1   2    0.36    0.10
  -3   1  -2   14.71    0.38
  -3   1  -2   14.72    0.43
   3  -1   2   14.36    0.43
   3  -1   2   14.68    0.47
   3  -1   2   14.51    0.42
   3  -1   2   15.67    0.50
  -4   1  -2    3.40    0.23
  -4   1  -2    3.61    0.19
   4  -1   2    3.68    0.24
   4  -1   2    4.00    0.29
   4  -1   2    3.48    0.24
   5  -1   2    0.26    0.10
   5  -1   2    0.20    0.14
   5  -1   2    0.27    0.11
   6  -1   2    3.83    0.30
   6  -1   2    3.58    0.32
   6  -1   2    3.99    0.42
  -7   1  -2   10.73    0.60
   7  -1   2   10.93    0.50
   7  -1   2   10.16    0.50
   7  -1   2   10.73    0.64
  -8   1  -2    0.87    0.26
   8  -1   2    0.55    0.19
   8  -1   2    0.69    0.20
   8  -1   2    0.69    0.26
  -9   1  -2    0.14    0.20
   9  -1   2    0.01    0.15
   9  -1   2   -0.04    0.19
   9  -1   2    0.12    0.17
 -10   1  -2    7.42    0.75
  10  -1   2    8.30    0.83
  10  -1   2    8.17    0.59
  10  -1   2    7.56    0.50
  10   0  -2    0.33    0.29
 -10   0   2    0.58    0.26
   9   0  -2    3.62    0.37
   9   0  -2    3.34    0.50
  -9   0   2    4.15    0.51
   8   0  -2    4.18    0.36
   8   0  -2    4.29    0.29
   8   0  -2    4.17    0.52
  -8   0   2    4.50    0.49
   7   0  -2    5.19    0.29
   7   0  -2    5.80    0.54
   7   0  -2    5.00    0.31
  -7   0   2    5.31    0.50
   6   0  -2    0.37    0.17
   6   0  -2    0.15    0.09
   6   0  -2    0.18    0.11
   6   0  -2    0.24    0.10
  -6   0   2    0.36    0.16
   5   0  -2    3.84    0.21
   5   0  -2    3.76    0.25
   5   0  -2    3.90    0.38
   5   0  -2    4.03    0.21
  -5   0   2    3.83    0.30
   4   0  -2    0.69    0.12
   4   0  -2    0.66    0.14
   4   0  -2    0.72    0.10
  -4   0   2    0.88    0.16
   3   0  -2    8.55    0.36
   3   0  -2    9.67    0.32
   3   0  -2    9.17    0.22
   3   0  -2    9.02    0.25
   3   0  -2    9.22    0.32
   3   0  -2    9.01    0.24
  -3   0   2    8.75    0.34
   2   0  -2   93.78    1.39
   2   0  -2   92.76    1.50
   2   0  -2   90.98    1.34
   2   0  -2   91.47    1.46
   2   0  -2   93.65    1.31
  -2   0   2   93.90    1.46
   1   0  -2   22.74    0.47
   1   0  -2   21.96    0.40
   1   0  -2   21.93    0.37
   1   0  -2   22.61    0.39
  -1   0   2   21.79    0.40
   0   0  -2    4.10    0.15
   0   0  -2    3.99    0.16
   0   0  -2    4.39    0.16
   0   0   2    4.30    0.16
   0   0   2    4.37    0.16
   0   0   2    4.24    0.15
   0   0   2    4.59    0.18
  -1   0  -2  155.41    2.28
  -1   0  -2  154.74    2.15
  -1   0  -2  160.03    2.26
   1   0   2  154.60    2.27
   1   0   2  157.38    2.26
   1   0   2  156.95    2.24
  -2   0  -2  990.58   13.73
  -2   0  -2 1000.00   13.64
   2   0   2  970.72   13.42
   2   0   2  963.72   13.82
   2   0   2  924.57   13.90
  -3   0  -2   78.66    1.36
  -3   0  -2   76.63    1.30
   3   0   2   80.05    1.41
   3   0   2   77.61    1.36
   3   0   2   77.28    1.35
  -4   0  -2   24.41    0.64
  -4   0  -2   23.55    0.57
   4   0   2   23.92    0.64
   4   0   2   24.84    0.64
   4   0   2   24.16    0.70
  -5   0  -2    2.39    0.29
   5   0   2    1.68    0.21
   5   0   2    1.78    0.25
   5   0   2    1.91    0.23
  -6   0  -2   13.34    0.62
   6   0   2   14.36    0.57
   6   0   2   14.34    0.66
   6   0   2   14.51    0.58
  -7   0  -2    1.91    0.33
   7   0   2    2.27    0.29
   7   0   2    1.42    0.25
   7   0   2    2.22    0.36
  -8   0  -2    0.59    0.25
   8   0   2    0.00    0.14
   8   0   2    0.24    0.24
   8   0   2    0.42    0.18
  -9   0  -2   -0.16    0.17
   9   0   2    0.26    0.19
   9   0   2    0.29    0.27
   9   0   2   -0.05    0.15
  10  -1  -2   -0.10    0.22
 -10   1   2   -0.05    0.18
   9  -1  -2    2.00    0.40
  -9   1   2    2.85    0.43
   8  -1  -2    0.77    0.26
   8  -1  -2    1.73    0.22
  -8   1   2    1.53    0.32
   7  -1  -2    1.04    0.26
   7  -1  -2    1.77    0.19
   7  -1  -2    1.30    0.14
  -7   1   2    1.53    0.28
   6  -1  -2    3.53    0.37
   6  -1  -2    3.61    0.26
   6  -1  -2    3.53    0.18
   6  -1  -2    3.51    0.20
  -6   1   2    3.97    0.29
  -6   1   2    4.17    0.39
   5  -1  -2    0.77    0.09
   5  -1  -2    0.94    0.19
   5  -1  -2    0.87    0.18
   5  -1  -2    1.01    0.15
   5  -1  -2    0.93    0.09
   5  -1  -2    0.60    0.07
  -5   1   2    0.44    0.15
  -5   1   2    0.79    0.14
   4  -1  -2   58.37    1.13
   4  -1  -2   56.29    1.07
  -4   1   2   53.87    1.13
   3  -1  -2    1.03    0.15
   3  -1  -2    0.88    0.13
   3  -1  -2    0.85    0.12
   2  -1  -2   10.32    0.32
   2  -1  -2   10.22    0.31
   2  -1  -2    9.63    0.30
   1  -1  -2  144.30    1.99
   1  -1  -2  144.39    1.97
   1  -1  -2  144.50    2.09
   1  -1  -2  138.42    1.98
   1  -1  -2  139.69    2.04
  -1   1   2  142.72    2.11
   0  -1  -2   90.94    1.42
   0  -1  -2   93.56    1.41
   0  -1  -2   92.71    1.41
   0  -1  -2   93.44    1.42
   0   1   2   92.91    1.29
   0   1   2   95.78    1.47
   0   1   2   94.06    1.42
   0   1   2   95.19    1.41
  -1  -1  -2   58.13    1.01
  -1  -1  -2   60.57    0.94
  -1  -1  -2   58.68    0.92
  -1  -1  -2   60.00    1.03
   1   1   2   58.97    1.02
   1   1   2   59.05    0.94
   1   1   2   59.02    1.01
  -2  -1  -2   49.37    0.91
  -2  -1  -2   51.30    0.94
  -2  -1  -2   50.08    0.96
   2   1   2   48.14    0.95
   2   1   2   50.52    0.92
   2   1   2   49.64    0.94
  -3  -1  -2   23.93    0.63
  -3  -1  -2   25.53    0.62
  -3  -1  -2   25.41    0.65
   3   1   2   25.92    0.65
   3   1   2   26.73    0.67
   3   1   2   25.09    0.66
   3   1   2   25.06    0.45
  -4  -1  -2  138.96    2.32
  -4  -1  -2  143.23    2.23
  -4  -1  -2  136.48    2.35
   4   1   2  137.63    2.38
   4   1   2  145.77    2.36
   4   1   2  136.76    1.94
   4   1   2  141.61    2.32
  -5  -1  -2    6.56    0.40
   5   1   2    6.90    0.38
   5   1   2    7.02    0.40
   5   1   2    7.03    0.43
  -6  -1  -2    2.99    0.35
   6   1   2    3.01    0.37
   6   1   2    3.28    0.35
   6   1   2    3.52    0.35
  -7  -1  -2    0.17    0.18
   7   1   2   -0.14    0.12
   7   1   2    0.18    0.14
   7   1   2   -0.08    0.16
  -8  -1  -2    3.49    0.47
   8   1   2    3.62    0.40
   8   1   2    3.88    0.43
   8   1   2    4.16    0.53
  -9  -1  -2    1.58    0.36
   9   1   2    2.08    0.37
   9   1   2    1.73    0.33
   9   1   2    2.10    0.42
  10  -2  -2    1.44    0.38
 -10   2   2    1.60    0.36
   9  -2  -2    1.15    0.32
  -9   2   2    1.13    0.31
   8  -2  -2    2.12    0.37
  -8   2   2    2.75    0.39
   7  -2  -2    1.15    0.14
   7  -2  -2    1.01    0.24
   7  -2  -2    1.40    0.27
  -7   2   2    1.19    0.25
   6  -2  -2    1.83    0.27
   6  -2  -2    1.29    0.23
   6  -2  -2    1.53    0.12
   6  -2  -2    1.53    0.21
  -6   2   2    1.40    0.21
  -6   2   2    1.71    0.27
   5  -2  -2    5.82    0.36
   5  -2  -2    5.97    0.31
   5  -2  -2    6.12    0.37
  -5   2   2    5.63    0.31
   4  -2  -2    1.91    0.22
   4  -2  -2    1.70    0.21
   4  -2  -2    1.91    0.20
  -4   2   2    1.60    0.19
   3  -2  -2   11.54    0.39
   3  -2  -2   10.82    0.39
   3  -2  -2   11.26    0.37
  -3   2   2   11.40    0.39
   2  -2  -2    6.69    0.28
   2  -2  -2    7.20    0.19
   2  -2  -2    6.90    0.28
   2  -2  -2    6.61    0.19
   2  -2  -2    7.01    0.17
   2  -2  -2    7.28    0.24
  -2   2   2    7.35    0.28
   1  -2  -2    5.15    0.19
   1  -2  -2    4.56    0.23
   1  -2  -2    4.97    0.12
   1  -2  -2    5.09    0.20
   1  -2  -2    5.35    0.24
  -1   2   2    5.13    0.20
  -1   2   2    5.24    0.24
   0  -2  -2    2.07    0.16
   0  -2  -2    2.01    0.18
   0  -2  -2    2.01    0.17
   0  -2  -2    2.13    0.16
   0   2   2    2.15    0.18
   0   2   2    2.04    0.16
  -1  -2  -2    1.34    0.16
  -1  -2  -2    1.38    0.13
  -1  -2  -2    1.47    0.16
  -1  -2  -2    1.44    0.16
   1   2   2    1.09    0.14
   1   2   2    1.22    0.15
   1   2   2    1.29    0.11
  -2  -2  -2   60.67    1.12
  -2  -2  -2   61.84    1.21
  -2  -2  -2   61.68    1.19
  -2  -2  -2   61.76    1.17
   2   2   2   62.73    1.11
   2   2   2   61.91    1.18
   2   2   2   63.51    1.22
   2   2   2   62.84    0.97
  -3  -2  -2    0.41    0.12
  -3  -2  -2    0.45    0.13
  -3  -2  -2    0.31    0.12
   3   2   2    0.50    0.14
   3   2   2    0.63    0.16
   3   2   2    0.75    0.11
   3   2   2    0.45    0.13
  -4  -2  -2   11.30    0.47
  -4  -2  -2   10.14    0.45
  -4  -2  -2   10.37    0.42
   4   2   2   10.06    0.46
   4   2   2   10.20    0.31
   4   2   2   10.64    0.47
   4   2   2   10.17    0.47
  -5  -2  -2   27.12    0.84
   5   2   2   26.86    0.83
   5   2   2   27.77    0.85
   5   2   2   27.04    0.87
  -6  -2  -2   18.68    0.76
   6   2   2   20.14    0.76
   6   2   2   19.39    0.75
   6   2   2   20.57    0.82
  -7  -2  -2    9.08    0.60
   7   2   2    8.76    0.54
   7   2   2    7.84    0.53
   7   2   2   10.45    0.67
  -8  -2  -2    3.59    0.49
   8   2   2    2.75    0.39
   8   2   2    3.18    0.41
   8   2   2    3.45    0.50
  -9  -2  -2    0.06    0.22
   9   2   2   -0.15    0.22
   9   2   2   -0.01    0.20
   9   2   2    0.25    0.21
  10  -3  -2    3.18    0.50
 -10   3   2    4.44    0.57
  -9   3   2   20.81    0.92
   8  -3  -2   26.14    1.00
   8  -3  -2   26.74    1.01
  -8   3   2   25.83    0.98
   7  -3  -2    0.01    0.15
   7  -3  -2    0.36    0.18
  -7   3   2    0.16    0.13
   6  -3  -2    0.50    0.08
   6  -3  -2    0.43    0.18
   6  -3  -2    0.61    0.18
   6  -3  -2    0.91    0.17
  -6   3   2    0.42    0.15
   5  -3  -2    0.44    0.14
   5  -3  -2    0.59    0.15
   5  -3  -2    0.52    0.17
  -5   3   2    0.50    0.13
  -5   3   2    0.51    0.15
   4  -3  -2    2.42    0.23
   4  -3  -2    2.26    0.23
   4  -3  -2    2.62    0.28
  -4   3   2    2.56    0.21
  -4   3   2    2.33    0.25
   3  -3  -2    6.66    0.28
   3  -3  -2    6.62    0.21
   3  -3  -2    6.71    0.21
   3  -3  -2    7.22    0.21
   3  -3  -2    6.97    0.33
   3  -3  -2    6.41    0.33
  -3   3   2    7.11    0.30
  -3   3   2    7.13    0.34
   2  -3  -2    3.19    0.17
   2  -3  -2    3.23    0.22
   2  -3  -2    3.25    0.16
   2  -3  -2    3.32    0.17
   2  -3  -2    3.00    0.22
  -2   3   2    3.22    0.24
  -2   3   2    3.24    0.21
   1  -3  -2   52.39    0.96
   1  -3  -2   51.42    1.02
   1  -3  -2   51.38    0.76
   1  -3  -2   52.41    0.96
  -1   3   2   50.42    0.90
  -1   3   2   53.17    0.97
  -1   3   2   53.06    1.02
   0  -3  -2    9.54    0.36
   0  -3  -2    9.49    0.36
   0  -3  -2    9.74    0.38
   0   3   2    9.67    0.37
   0   3   2    9.11    0.34
   0   3   2    9.79    0.34
  -1  -3  -2    0.35    0.11
  -1  -3  -2    0.36    0.11
  -1  -3  -2    0.32    0.11
   1   3   2    0.26    0.08
   1   3   2    0.02    0.09
   1   3   2    0.33    0.10
   1   3   2    0.29    0.09
  -2  -3  -2    5.55    0.29
  -2  -3  -2    5.27    0.31
  -2  -3  -2    6.04    0.33
  -2  -3  -2    5.62    0.34
   2   3   2    5.59    0.33
   2   3   2    4.69    0.29
   2   3   2    5.38    0.27
   2   3   2    5.55    0.22
  -3  -3  -2    2.46    0.25
  -3  -3  -2    3.28    0.31
  -3  -3  -2    3.13    0.31
  -3  -3  -2    3.45    0.27
   3   3   2    3.18    0.25
   3   3   2    3.30    0.32
   3   3   2    2.26    0.25
   3   3   2    3.05    0.14
  -4  -3  -2    3.56    0.28
  -4  -3  -2    3.94    0.39
  -4  -3  -2    3.39    0.35
  -4  -3  -2    3.04    0.32
   4   3   2    3.63    0.33
   4   3   2    3.41    0.35
   4   3   2    2.97    0.30
   4   3   2    3.16    0.22
  -5  -3  -2    2.45    0.31
   5   3   2    1.13    0.24
   5   3   2    1.92    0.28
   5   3   2    1.78    0.27
  -6  -3  -2    3.45    0.41
   6   3   2    3.54    0.41
   6   3   2    2.91    0.37
   6   3   2    4.00    0.42
  -7  -3  -2    5.95    0.56
   7   3   2    5.61    0.52
   7   3   2    5.53    0.58
   7   3   2    6.24    0.58
  -8  -3  -2    9.99    0.70
   8   3   2    9.31    0.66
   8   3   2   10.51    0.68
   8   3   2   10.54    0.75
  10  -4  -2    0.15    0.21
 -10   4   2    0.36    0.25
   9  -4  -2   11.02    0.71
   9  -4  -2   10.04    0.69
  -9   4   2   10.38    0.68
   8  -4  -2    8.08    0.58
   8  -4  -2    8.62    0.59
   7  -4  -2   50.37    1.19
   7  -4  -2   52.31    1.40
   7  -4  -2   48.93    1.33
  -7   4   2   48.65    1.23
   6  -4  -2   31.65    0.62
   6  -4  -2   31.21    0.88
   6  -4  -2   31.12    0.99
   6  -4  -2   32.36    0.95
  -6   4   2   31.89    0.86
  -6   4   2   31.30    0.92
   5  -4  -2    3.04    0.17
   5  -4  -2    3.67    0.33
   5  -4  -2    3.04    0.29
   5  -4  -2    2.78    0.31
  -5   4   2    3.44    0.34
  -5   4   2    3.06    0.28
   4  -4  -2   26.56    0.54
   4  -4  -2   26.27    0.68
   4  -4  -2   27.77    0.77
   4  -4  -2   27.39    0.81
   4  -4  -2   27.14    0.56
  -4   4   2   26.78    0.79
  -4   4   2   27.68    0.69
   3  -4  -2   20.74    0.51
   3  -4  -2   21.22    0.51
   3  -4  -2   20.14    0.64
   3  -4  -2   20.56    0.49
   3  -4  -2   19.13    0.62
  -3   4   2   20.95    0.66
  -3   4   2   20.41    0.57
   2  -4  -2   20.57    0.63
   2  -4  -2   19.22    0.52
   2  -4  -2   20.30    0.43
   2  -4  -2   19.97    0.53
  -2   4   2   19.15    0.61
  -2   4   2   19.84    0.52
   1  -4  -2    2.65    0.13
   1  -4  -2    2.62    0.21
   1  -4  -2    3.06    0.25
   1  -4  -2    3.25    0.23
  -1   4   2    2.72    0.22
  -1   4   2    2.90    0.27
  -1   4   2    2.80    0.20
   0  -4  -2   16.64    0.56
   0  -4  -2   16.78    0.54
   0  -4  -2   16.33    0.54
   0   4   2   16.23    0.51
   0   4   2   17.09    0.52
   0   4   2   16.01    0.55
  -1  -4  -2    3.84    0.28
  -1  -4  -2    4.24    0.29
  -1  -4  -2    4.34    0.30
   1   4   2    5.09    0.33
   1   4   2    3.93    0.24
   1   4   2    3.94    0.28
  -2  -4  -2   18.21    0.64
  -2  -4  -2   17.15    0.61
  -2  -4  -2   18.79    0.65
   2   4   2   18.57    0.49
   2   4   2   18.62    0.54
   2   4   2   17.84    0.65
   2   4   2   18.56    0.63
  -3  -4  -2   22.05    0.76
  -3  -4  -2   19.62    0.69
  -3  -4  -2   21.25    0.68
  -3  -4  -2   20.70    0.73
   3   4   2   20.83    0.65
   3   4   2   21.18    0.72
   3   4   2   19.89    0.74
  -4  -4  -2   16.28    0.70
  -4  -4  -2   16.91    0.68
  -4  -4  -2   15.94    0.64
  -4  -4  -2   16.41    0.64
   4   4   2   17.03    0.71
   4   4   2   15.77    0.63
   4   4   2   16.42    0.55
   4   4   2   15.85    0.66
  -5  -4  -2   13.46    0.68
  -5  -4  -2   12.85    0.63
   5   4   2   12.79    0.68
   5   4   2   13.29    0.66
   5   4   2   14.34    0.66
  -6  -4  -2    6.45    0.60
  -6  -4  -2    6.04    0.56
   6   4   2    6.33    0.51
   6   4   2    5.58    0.53
   6   4   2    5.28    0.53
  -7  -4  -2    5.48    0.56
  -7  -4  -2    5.77    0.62
   7   4   2    5.14    0.56
   7   4   2    5.38    0.57
   7   4   2    5.97    0.61
  -8  -4  -2    1.20    0.34
  -8  -4  -2    0.61    0.30
   8   4   2    0.41    0.26
   8   4   2    1.24    0.37
   8   4   2    0.91    0.31
  10  -5  -2    0.50    0.29
  10  -5  -2    0.56    0.27
 -10   5   2    0.32    0.25
   9  -5  -2    0.27    0.22
   9  -5  -2   -0.16    0.19
   8  -5  -2    3.77    0.46
   8  -5  -2    4.45    0.52
  -8   5   2    3.12    0.44
   7  -5  -2    1.43    0.27
   7  -5  -2    1.03    0.28
  -7   5   2    1.36    0.28
   6  -5  -2   17.04    0.48
   6  -5  -2   16.91    0.67
   6  -5  -2   17.28    0.74
  -6   5   2   17.88    0.72
   5  -5  -2    2.35    0.16
   5  -5  -2    2.41    0.27
   5  -5  -2    2.68    0.35
   5  -5  -2    2.32    0.20
  -5   5   2    2.73    0.27
  -5   5   2    1.76    0.28
   4  -5  -2   34.76    0.81
   4  -5  -2   34.02    0.73
   4  -5  -2   34.34    0.76
   4  -5  -2   33.93    0.97
  -4   5   2   34.21    0.82
  -4   5   2   35.04    0.97
   3  -5  -2   19.09    0.67
   3  -5  -2   20.03    0.51
   3  -5  -2   19.76    0.55
   3  -5  -2   19.26    0.56
  -3   5   2   20.07    0.69
   2  -5  -2   25.47    0.69
   2  -5  -2   25.74    0.68
   2  -5  -2   26.17    0.78
   2  -5  -2   24.92    0.53
  -2   5   2   26.48    0.77
  -2   5   2   26.01    0.69
  -2   5   2   25.10    0.60
   1  -5  -2    4.02    0.18
   1  -5  -2    4.55    0.30
   1  -5  -2    4.64    0.30
   1  -5  -2    4.35    0.32
  -1   5   2    4.30    0.31
  -1   5   2    4.18    0.26
  -1   5   2    4.32    0.30
   0  -5  -2   11.79    0.50
   0  -5  -2   11.64    0.51
   0  -5  -2   11.21    0.49
   0   5   2   12.34    0.52
   0   5   2   11.18    0.46
   0   5   2   11.68    0.46
  -1  -5  -2    0.76    0.18
  -1  -5  -2    0.94    0.19
  -1  -5  -2    0.83    0.19
   1   5   2    1.02    0.20
   1   5   2    0.80    0.19
   1   5   2    1.02    0.17
  -2  -5  -2    2.54    0.31
  -2  -5  -2    2.20    0.30
  -2  -5  -2    1.57    0.23
   2   5   2    2.25    0.29
   2   5   2    2.43    0.23
   2   5   2    2.38    0.31
  -3  -5  -2    0.53    0.17
  -3  -5  -2    0.45    0.19
  -3  -5  -2    0.26    0.18
   3   5   2    0.29    0.16
   3   5   2    0.40    0.15
   3   5   2    0.46    0.20
  -4  -5  -2    0.18    0.17
  -4  -5  -2    0.38    0.16
  -4  -5  -2    0.20    0.17
   4   5   2    0.07    0.14
   4   5   2    0.37    0.19
   4   5   2    0.21    0.17
   4   5   2    0.21    0.14
  -5  -5  -2    5.87    0.54
  -5  -5  -2    4.94    0.52
   5   5   2    4.70    0.49
   5   5   2    3.75    0.45
   5   5   2    4.92    0.47
  -6  -5  -2    3.21    0.47
  -6  -5  -2    2.54    0.40
   6   5   2    3.65    0.46
   6   5   2    4.43    0.55
   6   5   2    4.21    0.49
  -7  -5  -2    0.50    0.27
  -7  -5  -2    0.33    0.26
   7   5   2    0.93    0.31
   7   5   2    0.68    0.29
   7   5   2    1.51    0.35
   9  -6  -2    0.84    0.30
   9  -6  -2    0.35    0.24
   8  -6  -2   11.23    0.65
   8  -6  -2   10.51    0.71
  -8   6   2   10.15    0.63
   7  -6  -2    0.45    0.22
   7  -6  -2    0.30    0.18
  -7   6   2    0.30    0.21
   6  -6  -2    2.20    0.17
   6  -6  -2    1.70    0.26
   6  -6  -2    1.96    0.22
   6  -6  -2    1.68    0.31
  -6   6   2    1.85    0.31
   5  -6  -2   31.21    0.79
   5  -6  -2   31.68    0.85
   5  -6  -2   31.45    1.03
  -5   6   2   30.86    0.99
   4  -6  -2    0.99    0.23
   4  -6  -2    1.08    0.18
   4  -6  -2    1.22    0.18
   4  -6  -2    0.90    0.17
  -4   6   2    1.18    0.26
   3  -6  -2    1.06    0.18
   3  -6  -2    0.83    0.14
   3  -6  -2    0.77    0.20
   3  -6  -2    0.65    0.16
  -3   6   2    1.07    0.24
   2  -6  -2    0.25    0.12
   2  -6  -2    0.17    0.13
   2  -6  -2    0.23    0.12
  -2   6   2    0.26    0.16
   1  -6  -2    0.49    0.15
   1  -6  -2    0.16    0.13
   1  -6  -2    0.31    0.14
  -1   6   2    0.34    0.13
  -1   6   2    0.33    0.15
  -1   6   2    0.37    0.15
   0  -6  -2   10.45    0.51
   0  -6  -2    9.69    0.51
   0  -6  -2   10.16    0.51
   0   6   2   10.17    0.47
   0   6   2   10.34    0.49
   0   6   2    9.33    0.51
  -1  -6  -2    0.62    0.20
  -1  -6  -2    0.67    0.19
  -1  -6  -2    0.56    0.19
   1   6   2    0.46    0.19
   1   6   2    0.57    0.17
   1   6   2    0.48    0.16
  -2  -6  -2   54.22    1.38
  -2  -6  -2   54.54    1.38
  -2  -6  -2   53.92    1.36
   2   6   2   54.68    1.42
   2   6   2   51.57    1.13
   2   6   2   53.14    1.34
  -3  -6  -2    9.13    0.56
  -3  -6  -2    8.82    0.55
  -3  -6  -2    8.59    0.53
   3   6   2    8.76    0.55
   3   6   2    9.61    0.51
   3   6   2    8.55    0.58
  -4  -6  -2    6.14    0.50
  -4  -6  -2    5.20    0.50
  -4  -6  -2    5.80    0.46
   4   6   2    5.68    0.56
   4   6   2    6.29    0.50
  -5  -6  -2    3.12    0.46
   5   6   2    1.96    0.35
   5   6   2    2.89    0.44
  -6  -6  -2    1.67    0.37
   6   6   2    1.35    0.34
   6   6   2    1.56    0.36
  -7  -6  -2    0.21    0.26
   7   6   2    1.16    0.35
   7   6   2    1.10    0.36
   9  -7  -2   -0.02    0.22
   8  -7  -2   13.22    0.81
  -8   7   2   12.39    0.74
   7  -7  -2    3.67    0.50
  -7   7   2    2.72    0.40
   6  -7  -2    0.23    0.13
   6  -7  -2    0.15    0.18
   6  -7  -2    0.10    0.10
  -6   7   2    0.01    0.17
   5  -7  -2    1.92    0.23
   5  -7  -2    2.29    0.27
   5  -7  -2    2.89    0.42
  -5   7   2    1.86    0.31
   4  -7  -2   11.54    0.62
   4  -7  -2   10.63    0.47
   4  -7  -2   10.93    0.50
  -4   7   2    9.86    0.58
   3  -7  -2    3.20    0.39
   3  -7  -2    4.20    0.38
   3  -7  -2    3.63    0.36
  -3   7   2    3.23    0.41
   2  -7  -2    0.49    0.16
   2  -7  -2    0.53    0.17
   2  -7  -2    0.16    0.14
  -2   7   2    0.33    0.17
   1  -7  -2   16.30    0.67
   1  -7  -2   15.33    0.65
   1  -7  -2   15.19    0.69
  -1   7   2   16.11    0.68
   0  -7  -2   15.12    0.68
   0  -7  -2   14.75    0.67
   0  -7  -2   15.08    0.69
   0   7   2   15.03    0.63
   0   7   2   14.76    0.68
   0   7   2   15.89    0.65
  -1  -7  -2   11.10    0.60
  -1  -7  -2   10.67    0.60
  -1  -7  -2   11.18    0.61
   1   7   2   10.84    0.57
   1   7   2   11.29    0.53
   1   7   2   10.10    0.60
  -2  -7  -2    0.08    0.15
  -2  -7  -2    0.05    0.13
  -2  -7  -2    0.15    0.16
   2   7   2    0.20    0.20
   2   7   2   -0.19    0.12
  -3  -7  -2    0.34    0.21
  -3  -7  -2    0.29    0.22
  -3  -7  -2    0.34    0.19
   3   7   2    0.26    0.19
   3   7   2    0.22    0.20
   3   7   2    0.69    0.28
  -4  -7  -2    7.11    0.57
   4   7   2    7.63    0.58
   4   7   2    7.06    0.66
  -5  -7  -2   18.94    0.94
   5   7   2   19.17    0.97
   5   7   2   17.48    0.92
  -6  -7  -2    1.69    0.40
   6   7   2    1.31    0.38
   6   7   2    2.26    0.42
   8  -8  -2    0.09    0.23
  -8   8   2    0.19    0.25
   7  -8  -2    1.13    0.22
   7  -8  -2    0.40    0.27
  -7   8   2    1.16    0.32
   6  -8  -2    2.88    0.29
   6  -8  -2    2.78    0.45
   6  -8  -2    2.68    0.33
  -6   8   2    2.05    0.38
   5  -8  -2    0.51    0.17
   5  -8  -2    0.80    0.20
   5  -8  -2    1.05    0.31
  -5   8   2    0.36    0.22
   4  -8  -2    0.20    0.16
   4  -8  -2    0.19    0.19
   4  -8  -2    0.19    0.14
  -4   8   2   -0.04    0.17
   3  -8  -2    1.77    0.29
   3  -8  -2    1.46    0.26
   3  -8  -2    1.51    0.32
  -3   8   2    1.83    0.36
   2  -8  -2   36.09    1.17
   2  -8  -2   36.12    1.10
   2  -8  -2   36.80    1.09
  -2   8   2   36.98    1.15
   1  -8  -2    3.25    0.41
   1  -8  -2    2.99    0.38
   1  -8  -2    3.40    0.40
  -1   8   2    2.77    0.39
   0  -8  -2   -0.17    0.13
   0  -8  -2    0.10    0.16
   0  -8  -2    0.18    0.16
   0   8   2    0.25    0.19
  -1  -8  -2    0.51    0.22
  -1  -8  -2    0.71    0.22
  -1  -8  -2    0.76    0.25
   1   8   2    0.63    0.23
   1   8   2    0.22    0.20
   1   8   2    0.11    0.17
  -2  -8  -2    1.74    0.33
  -2  -8  -2    1.78    0.35
  -2  -8  -2    1.26    0.30
   2   8   2    1.90    0.35
   2   8   2    1.34    0.33
  -3  -8  -2    1.27    0.32
  -3  -8  -2    0.54    0.25
   3   8   2    1.05    0.30
   3   8   2    0.66    0.26
   3   8   2    0.94    0.30
  -4  -8  -2   20.20    0.97
   4   8   2   19.49    0.96
   4   8   2   22.37    1.07
  -5  -8  -2    0.18    0.23
   5   8   2    0.13    0.26
   5   8   2   -0.10    0.22
   8  -9  -2    3.83    0.59
   7  -9  -2   -0.09    0.15
   7  -9  -2    0.08    0.22
  -7   9   2    0.07    0.23
   6  -9  -2    1.78    0.30
   6  -9  -2    1.74    0.36
   6  -9  -2    2.08    0.28
  -6   9   2    1.41    0.36
   5  -9  -2    0.12    0.16
   5  -9  -2   -0.04    0.18
   5  -9  -2    0.25    0.16
  -5   9   2    0.17    0.23
   4  -9  -2    0.15    0.16
   4  -9  -2    0.27    0.22
   4  -9  -2   -0.03    0.14
  -4   9   2   -0.04    0.20
   3  -9  -2    1.74    0.31
   3  -9  -2    1.90    0.34
   3  -9  -2    1.44    0.32
  -3   9   2    2.16    0.41
   2  -9  -2    3.03    0.41
   2  -9  -2    4.70    0.51
   2  -9  -2    3.79    0.47
  -2   9   2    3.43    0.45
   1  -9  -2    6.70    0.60
   1  -9  -2    6.82    0.64
   1  -9  -2    4.68    0.50
  -1   9   2    7.21    0.64
   0  -9  -2    8.67    0.62
   0  -9  -2    8.71    0.61
   0  -9  -2    7.92    0.58
   0   9   2    8.57    0.58
  -1  -9  -2    3.34    0.48
  -1  -9  -2    2.73    0.43
  -1  -9  -2    2.97    0.46
  -2  -9  -2    3.06    0.45
  -2  -9  -2    3.29    0.46
  -2  -9  -2    2.81    0.44
   2   9   2    3.23    0.49
   2   9   2    2.39    0.41
  -3  -9  -2   -0.21    0.17
  -3  -9  -2   -0.07    0.19
  -3  -9  -2    0.10    0.20
   3   9   2    0.11    0.22
   3   9   2    0.04    0.24
   3   9   2    0.23    0.22
  -4  -9  -2    0.56    0.28
   6 -10  -2    3.08    0.37
   6 -10  -2    2.38    0.47
   6 -10  -2    3.79    0.46
  -6  10   2    2.23    0.45
   5 -10  -2    0.36    0.18
   5 -10  -2    0.21    0.21
   5 -10  -2    0.46    0.26
  -5  10   2    0.39    0.26
   4 -10  -2    6.63    0.66
   4 -10  -2    8.24    0.55
   4 -10  -2    8.91    0.63
  -4  10   2    8.41    0.77
   3 -10  -2    5.88    0.61
   3 -10  -2    6.58    0.61
   3 -10  -2    5.21    0.54
  -3  10   2    4.85    0.56
   2 -10  -2    1.10    0.29
   2 -10  -2    1.40    0.36
   2 -10  -2    0.87    0.28
  -2  10   2    0.78    0.29
   1 -10  -2    1.86    0.38
   1 -10  -2    2.55    0.44
   1 -10  -2    3.30    0.48
  -1  10   2    2.79    0.45
   0 -10  -2    0.84    0.29
   0 -10  -2    0.47    0.25
   0 -10  -2    1.27    0.34
   0  10   2    0.74    0.29
  -1 -10  -2   -0.15    0.18
  -1 -10  -2    0.15    0.19
  -1 -10  -2   -0.03    0.19
   1  10   2   -0.12    0.21
  -2 -10  -2    0.18    0.24
  -2 -10  -2    0.17    0.22
  -2 -10  -2    0.40    0.27
   2  10   2    0.11    0.25
   4 -11  -2    0.50    0.29
   4 -11  -2    1.00    0.32
   4 -11  -2    0.94    0.29
  -4  11   2    1.19    0.40
   3 -11  -2   10.18    0.74
   3 -11  -2    8.30    0.62
   3 -11  -2    8.82    0.70
  -3  11   2    8.44    0.81
   2 -11  -2    5.56    0.62
   2 -11  -2    6.70    0.73
   2 -11  -2    6.28    0.66
  -2  11   2    5.97    0.66
   1 -11  -2    1.80    0.38
   1 -11  -2    1.81    0.43
   1 -11  -2    2.48    0.47
  -1  11   2    1.34    0.37
   0 -11  -2    0.66    0.27
   0  11  -3    3.30    0.52
   0 -11   3    2.45    0.44
  -1  11  -3    0.47    0.28
   1 -11   3    0.32    0.21
   1 -11   3    0.17    0.25
  -2  11  -3    1.51    0.39
   2 -11   3    1.31    0.38
   2 -11   3    1.49    0.35
   2 -11   3    0.81    0.30
  -3  11  -3    5.06    0.65
   3 -11   3    4.07    0.53
   3 -11   3    5.82    0.66
   3 -11   3    4.47    0.55
  -4  11  -3    0.41    0.27
   4 -11   3    0.17    0.25
   4 -11   3    0.48    0.27
   4 -11   3    0.32    0.26
   5 -11   3    0.53    0.27
   2  10  -3    1.31    0.35
   2  10  -3    1.40    0.41
   2  10  -3    1.47    0.38
  -2 -10   3    1.42    0.37
   1  10  -3   -0.02    0.22
   1  10  -3   -0.16    0.19
   1  10  -3   -0.15    0.22
  -1 -10   3    0.12    0.23
  -1 -10   3    0.22    0.21
   0  10  -3    0.22    0.22
   0 -10   3   -0.14    0.15
   0 -10   3    0.15    0.23
  -1  10  -3    2.24    0.44
   1 -10   3    3.15    0.45
   1 -10   3    2.90    0.46
   1 -10   3    2.54    0.43
  -2  10  -3    1.25    0.35
   2 -10   3    0.92    0.29
   2 -10   3    1.07    0.27
   2 -10   3    1.07    0.31
  -3  10  -3    0.51    0.28
   3 -10   3    0.40    0.23
   3 -10   3    0.93    0.29
   3 -10   3    0.61    0.24
  -4  10  -3   -0.20    0.17
   4 -10   3   -0.07    0.18
   4 -10   3    0.13    0.18
   4 -10   3    0.12    0.20
  -5  10  -3    0.96    0.32
   5 -10   3    1.29    0.34
   5 -10   3    0.32    0.24
   5 -10   3    0.96    0.29
  -6  10  -3    0.19    0.25
   6 -10   3    0.21    0.19
   6 -10   3   -0.17    0.18
   6 -10   3    0.29    0.23
   4   9  -3    0.91    0.34
   4   9  -3    0.94    0.31
   4   9  -3    1.27    0.36
   3   9  -3    4.60    0.60
   3   9  -3    2.96    0.48
   3   9  -3    3.46    0.50
   2   9  -3   -0.13    0.20
   2   9  -3   -0.09    0.18
   2   9  -3    0.18    0.21
  -2  -9   3    0.25    0.22
  -2  -9   3   -0.13    0.17
   1   9  -3    0.04    0.20
   1   9  -3    0.17    0.23
   1   9  -3    0.63    0.30
  -1  -9   3    0.52    0.22
  -1  -9   3   -0.10    0.18
  -1  -9   3    0.05    0.20
   0   9  -3    1.03    0.27
   0   9  -3    0.75    0.28
   0   9  -3    0.90    0.29
   0  -9   3    1.02    0.27
   0  -9   3    0.95    0.25
   0  -9   3    1.11    0.28
   0  -9   3    0.91    0.29
  -1   9  -3    1.79    0.38
   1  -9   3    1.27    0.32
   1  -9   3    1.23    0.26
   1  -9   3    1.41    0.29
   1  -9   3    2.07    0.37
  -2   9  -3    8.97    0.63
   2  -9   3    8.02    0.59
   2  -9   3    9.11    0.59
   2  -9   3    8.97    0.58
   2  -9   3    9.15    0.55
  -3   9  -3    1.64    0.34
   3  -9   3    1.72    0.30
   3  -9   3    2.23    0.37
   3  -9   3    2.04    0.36
   3  -9   3    2.13    0.36
  -4   9  -3   -0.13    0.18
   4  -9   3    0.38    0.22
   4  -9   3    0.41    0.23
   4  -9   3    0.56    0.21
   4  -9   3    0.53    0.23
  -5   9  -3    0.01    0.17
   5  -9   3   -0.07    0.17
   5  -9   3    0.37    0.20
   5  -9   3    0.61    0.24
   5  -9   3   -0.06    0.16
  -6   9  -3    0.82    0.47
   6  -9   3    0.49    0.27
   6  -9   3    0.48    0.23
   6  -9   3    0.77    0.24
   6  -9   3    0.74    0.26
   7  -9   3   -0.09    0.19
   7  -9   3   -0.02    0.15
   7  -9   3    0.07    0.20
   7  -9   3   -0.01    0.20
   5   8  -3    1.68    0.38
   5   8  -3    1.17    0.36
   5   8  -3    1.33    0.36
   4   8  -3    1.19    0.33
   4   8  -3    1.24    0.32
   4   8  -3    0.93    0.29
   3   8  -3    4.41    0.50
   3   8  -3    3.11    0.47
   3   8  -3    4.28    0.52
   2   8  -3    4.08    0.52
   2   8  -3    2.97    0.42
   2   8  -3    2.94    0.40
  -2  -8   3    4.10    0.47
  -2  -8   3    3.48    0.48
   1   8  -3   20.22    0.89
   1   8  -3   20.85    0.85
   1   8  -3   20.37    0.91
  -1  -8   3   20.20    0.87
  -1  -8   3   19.79    0.87
  -1  -8   3   21.21    0.79
   0   8  -3    0.36    0.23
   0   8  -3    0.15    0.16
   0   8  -3    0.14    0.17
   0  -8   3    0.15    0.15
   0  -8   3    0.26    0.17
   0  -8   3    0.30    0.17
   0  -8   3    0.21    0.18
  -1   8  -3    3.25    0.42
  -1   8  -3    2.71    0.38
  -1   8  -3    3.31    0.37
   1  -8   3    3.65    0.39
   1  -8   3    2.68    0.34
   1  -8   3    3.28    0.41
   1  -8   3    3.68    0.43
  -2   8  -3    1.05    0.28
   2  -8   3    0.95    0.24
   2  -8   3    0.81    0.23
   2  -8   3    1.18    0.27
   2  -8   3    0.96    0.23
  -3   8  -3    9.08    0.58
   3  -8   3    8.28    0.56
   3  -8   3    8.69    0.55
   3  -8   3    8.31    0.50
   3  -8   3    7.63    0.51
  -4   8  -3    0.36    0.20
   4  -8   3    0.54    0.21
   4  -8   3    0.79    0.21
   4  -8   3    0.09    0.16
   4  -8   3    0.25    0.19
  -5   8  -3    3.50    0.43
   5  -8   3    3.68    0.44
   5  -8   3    3.37    0.41
   5  -8   3    4.19    0.45
   5  -8   3    3.60    0.40
   6  -8   3    1.67    0.30
   6  -8   3    2.06    0.35
   6  -8   3    2.01    0.34
   6  -8   3    1.99    0.36
   7  -8   3    0.13    0.20
   7  -8   3    0.19    0.22
   7  -8   3    0.06    0.16
   7  -8   3    0.08    0.16
   8  -8   3    0.66    0.25
   8  -8   3    0.43    0.26
   8  -8   3    0.53    0.29
   8  -8   3    0.68    0.22
   6   7  -3    0.99    0.32
   6   7  -3    1.65    0.38
   5   7  -3    0.07    0.20
   5   7  -3   -0.19    0.17
   5   7  -3    0.31    0.21
   4   7  -3    1.24    0.30
   4   7  -3    1.05    0.30
   4   7  -3    0.66    0.25
   3   7  -3    0.11    0.20
   3   7  -3    0.07    0.17
   3   7  -3    0.19    0.20
   2   7  -3    0.08    0.16
   2   7  -3   -0.14    0.15
   2   7  -3    0.41    0.20
  -2  -7   3    0.24    0.17
  -2  -7   3   -0.03    0.14
  -2  -7   3    0.47    0.17
   1   7  -3   29.05    1.01
   1   7  -3   26.46    0.96
   1   7  -3   28.13    0.93
  -1  -7   3   28.56    0.85
  -1  -7   3   26.93    0.96
  -1  -7   3   26.65    0.95
   0   7  -3   33.95    1.08
   0   7  -3   33.76    1.02
   0   7  -3   34.54    1.09
   0  -7   3   34.82    0.97
   0  -7   3   33.62    1.05
   0  -7   3   35.21    1.08
   0  -7   3   36.35    1.00
  -1   7  -3  110.40    2.11
  -1   7  -3  109.84    2.22
  -1   7  -3  107.98    2.23
   1  -7   3  110.64    2.19
   1  -7   3  112.85    2.10
   1  -7   3  107.54    2.07
   1  -7   3  107.67    2.19
  -2   7  -3    6.93    0.48
  -2   7  -3    6.23    0.46
  -2   7  -3    6.10    0.40
   2  -7   3    6.16    0.42
   2  -7   3    7.17    0.47
   2  -7   3    6.87    0.44
   2  -7   3    6.90    0.47
  -3   7  -3   13.88    0.65
   3  -7   3   13.62    0.64
   3  -7   3   14.19    0.64
   3  -7   3   14.31    0.62
  -4   7  -3   -0.16    0.13
   4  -7   3    0.18    0.15
   4  -7   3    0.02    0.13
   4  -7   3    0.12    0.14
   4  -7   3    0.02    0.14
   5  -7   3   30.01    0.99
   5  -7   3   31.28    0.99
   5  -7   3   30.05    0.93
   5  -7   3   31.96    1.07
   6  -7   3    5.04    0.49
   6  -7   3    6.02    0.46
   6  -7   3    4.36    0.50
   6  -7   3    5.13    0.40
   7  -7   3    2.09    0.30
   7  -7   3    2.23    0.36
   7  -7   3    1.81    0.37
   7  -7   3    2.29    0.35
   8  -7   3    0.39    0.18
   8  -7   3    0.57    0.25
   8  -7   3    0.60    0.24
   9  -7   3    0.96    0.27
   9  -7   3    0.42    0.31
   9  -7   3    0.55    0.29
   9  -7   3    0.38    0.17
   7   6  -3   12.67    0.78
   7   6  -3   12.81    0.80
   6   6  -3    2.28    0.38
   6   6  -3    2.22    0.41
   5   6  -3    2.04    0.38
   5   6  -3    2.73    0.39
   5   6  -3    2.46    0.38
   4   6  -3    5.21    0.49
   4   6  -3    4.13    0.47
   4   6  -3    4.26    0.48
   3   6  -3    4.60    0.45
   3   6  -3    3.80    0.43
   3   6  -3    4.36    0.43
  -3  -6   3    5.24    0.42
  -3  -6   3    4.72    0.35
  -3  -6   3    5.42    0.43
   2   6  -3    3.97    0.43
   2   6  -3    3.56    0.37
   2   6  -3    3.38    0.41
  -2  -6   3    3.67    0.30
  -2  -6   3    4.69    0.44
  -2  -6   3    4.66    0.46
   1   6  -3    1.29    0.26
   1   6  -3    2.44    0.31
   1   6  -3    2.01    0.29
  -1  -6   3    1.78    0.24
  -1  -6   3    2.40    0.32
  -1  -6   3    1.62    0.27
   0   6  -3    0.08    0.14
   0   6  -3    0.19    0.13
   0   6  -3    0.12    0.12
   0  -6   3    0.62    0.16
   0  -6   3    0.28    0.14
  -1   6  -3    0.41    0.16
  -1   6  -3    0.23    0.13
  -1   6  -3    0.36    0.16
   1  -6   3    0.09    0.13
   1  -6   3    0.29    0.15
   1  -6   3    0.20    0.12
   1  -6   3    0.70    0.18
  -2   6  -3   58.90    1.37
  -2   6  -3   60.51    1.37
  -2   6  -3   59.86    1.26
   2  -6   3   58.56    1.30
   2  -6   3   57.77    1.33
   2  -6   3   56.65    1.29
   2  -6   3   58.16    1.35
  -3   6  -3   23.20    0.77
  -3   6  -3   21.57    0.76
   3  -6   3   23.90    0.78
   3  -6   3   23.10    0.76
   3  -6   3   22.35    0.75
   3  -6   3   23.71    0.78
   4  -6   3    0.94    0.22
   4  -6   3    1.47    0.26
   4  -6   3    1.29    0.23
   4  -6   3    1.22    0.22
   5  -6   3   24.63    0.86
   5  -6   3   23.23    0.80
   5  -6   3   22.76    0.76
   5  -6   3   23.13    0.87
   6  -6   3    1.61    0.28
   6  -6   3    1.93    0.28
   6  -6   3    1.91    0.35
   6  -6   3    1.30    0.26
   7  -6   3    5.51    0.55
   7  -6   3    4.71    0.53
   7  -6   3    3.71    0.39
   7  -6   3    4.59    0.42
   8  -6   3    1.39    0.32
   8  -6   3    0.88    0.22
   8  -6   3    1.14    0.27
   8  -6   3    1.26    0.35
   9  -6   3    1.62    0.40
   9  -6   3    1.07    0.23
   9  -6   3    0.62    0.31
   9  -6   3    0.92    0.26
   7   5  -3    0.36    0.22
   7   5  -3    0.15    0.20
   6   5  -3    0.50    0.20
   6   5  -3    0.65    0.25
   5   5  -3    2.35    0.34
   5   5  -3    1.92    0.30
   5   5  -3    2.12    0.35
   4   5  -3    0.02    0.14
   4   5  -3    0.04    0.14
   4   5  -3   -0.15    0.12
  -4  -5   3    0.04    0.12
   3   5  -3    3.22    0.33
   3   5  -3    2.90    0.35
   3   5  -3    3.32    0.36
  -3  -5   3    3.76    0.39
  -3  -5   3    3.95    0.37
  -3  -5   3    3.46    0.29
   2   5  -3   11.40    0.56
   2   5  -3   10.76    0.53
   2   5  -3   11.05    0.51
  -2  -5   3   11.79    0.52
  -2  -5   3   10.97    0.44
  -2  -5   3   11.17    0.53
   1   5  -3   46.01    1.15
   1   5  -3   48.18    1.11
   1   5  -3   45.99    1.16
  -1  -5   3   47.07    1.15
  -1  -5   3   46.25    1.14
  -1  -5   3   47.12    1.00
   0   5  -3    6.71    0.40
   0   5  -3    6.36    0.39
   0  -5   3    6.31    0.38
   0  -5   3    6.37    0.38
   0  -5   3    7.12    0.34
  -1   5  -3   11.35    0.50
  -1   5  -3   11.36    0.46
  -1   5  -3   11.55    0.50
   1  -5   3   10.76    0.46
   1  -5   3   10.49    0.48
   1  -5   3   11.41    0.44
   1  -5   3   10.80    0.47
  -2   5  -3   12.13    0.51
  -2   5  -3   11.55    0.50
  -2   5  -3   12.48    0.46
   2  -5   3   11.55    0.49
   2  -5   3   11.87    0.48
   2  -5   3   12.16    0.51
   2  -5   3   12.23    0.50
  -3   5  -3    2.63    0.28
  -3   5  -3    2.38    0.27
  -3   5  -3    2.60    0.24
   3  -5   3    2.18    0.25
   3  -5   3    2.50    0.28
   3  -5   3    2.07    0.25
   3  -5   3    2.78    0.30
   4  -5   3    0.73    0.17
   4  -5   3    1.14    0.20
   4  -5   3    0.57    0.17
   4  -5   3    0.74    0.19
   5  -5   3   19.26    0.67
   5  -5   3   19.69    0.76
   5  -5   3   18.47    0.64
   5  -5   3   18.16    0.72
   6  -5   3   21.45    0.71
   6  -5   3   22.08    0.75
   6  -5   3   21.20    0.83
   6  -5   3   22.25    0.87
   7  -5   3    5.50    0.38
   7  -5   3    7.25    0.55
   7  -5   3    5.49    0.41
   7  -5   3    6.37    0.58
   8  -5   3   14.30    0.60
   8  -5   3   15.52    0.68
   8  -5   3   15.86    0.85
   8  -5   3   15.57    0.82
   9  -5   3    2.58    0.33
   9  -5   3    2.17    0.41
   9  -5   3    2.34    0.35
   8   4  -3    0.61    0.25
   8   4  -3    0.59    0.23
  -8  -4   3    0.93    0.32
   7   4  -3    0.69    0.24
   7   4  -3    0.68    0.23
  -7  -4   3    0.52    0.24
   6   4  -3    1.00    0.24
   6   4  -3    0.75    0.22
  -6  -4   3    0.60    0.22
   5   4  -3    0.09    0.13
   5   4  -3    0.01    0.12
   5   4  -3   -0.07    0.13
  -5  -4   3    0.06    0.14
   4   4  -3    0.58    0.19
   4   4  -3    0.83    0.19
   4   4  -3    0.51    0.16
  -4  -4   3    0.42    0.14
   3   4  -3   12.30    0.54
   3   4  -3   12.48    0.54
   3   4  -3   12.04    0.50
  -3  -4   3   13.25    0.46
  -3  -4   3   12.91    0.53
  -3  -4   3   11.85    0.49
   2   4  -3    2.98    0.29
   2   4  -3    2.97    0.30
  -2  -4   3    2.77    0.27
  -2  -4   3    3.24    0.22
  -2  -4   3    3.10    0.30
   1   4  -3    7.08    0.35
   1   4  -3    7.41    0.39
   1   4  -3    7.18    0.39
  -1  -4   3    6.93    0.29
  -1  -4   3    6.70    0.36
  -1  -4   3    7.56    0.38
   0   4  -3    6.00    0.34
   0   4  -3    6.55    0.33
   0   4  -3    6.28    0.35
   0  -4   3    5.99    0.34
   0  -4   3    6.40    0.34
   0  -4   3    6.33    0.28
  -1   4  -3    0.10    0.08
  -1   4  -3    0.18    0.11
  -1   4  -3    0.08    0.09
   1  -4   3   -0.03    0.07
   1  -4   3    0.20    0.11
   1  -4   3    0.04    0.09
   1  -4   3   -0.01    0.09
  -2   4  -3    5.74    0.32
  -2   4  -3    5.00    0.28
  -2   4  -3    5.24    0.32
   2  -4   3    4.93    0.30
   2  -4   3    4.87    0.29
   2  -4   3    4.97    0.31
   2  -4   3    5.45    0.32
  -3   4  -3    1.47    0.21
  -3   4  -3    1.27    0.16
  -3   4  -3    1.46    0.20
   3  -4   3    1.51    0.23
   3  -4   3    1.23    0.18
   3  -4   3    1.34    0.20
   3  -4   3    1.14    0.18
  -4   4  -3    3.65    0.25
  -4   4  -3    3.31    0.26
   4  -4   3    3.91    0.28
   4  -4   3    3.29    0.32
   4  -4   3    3.64    0.29
   4  -4   3    3.87    0.31
  -5   4  -3    7.30    0.33
   5  -4   3    6.75    0.43
   5  -4   3    6.37    0.42
   5  -4   3    6.85    0.38
   6  -4   3    4.85    0.35
   6  -4   3    4.27    0.44
   6  -4   3    4.41    0.33
   6  -4   3    5.48    0.43
   7  -4   3   -0.01    0.12
   7  -4   3   -0.08    0.15
   7  -4   3    0.00    0.11
   7  -4   3   -0.06    0.15
   8  -4   3   -0.17    0.12
   8  -4   3    0.13    0.13
   8  -4   3    0.08    0.18
   9  -4   3    0.64    0.23
   9  -4   3    1.02    0.22
   9  -4   3    0.36    0.25
  10  -4   3    2.72    0.48
   9   3  -3    2.36    0.48
   9   3  -3    3.02    0.43
   9   3  -3    3.29    0.40
  -9  -3   3    2.75    0.47
   8   3  -3   20.85    0.84
   8   3  -3   21.62    1.05
   8   3  -3   21.39    0.83
  -8  -3   3   22.22    0.99
   7   3  -3    3.50    0.47
   7   3  -3    3.74    0.41
   7   3  -3    3.53    0.38
  -7  -3   3    4.21    0.50
   6   3  -3    0.79    0.22
   6   3  -3    0.69    0.25
   6   3  -3    0.81    0.20
   6   3  -3    1.18    0.22
  -6  -3   3    1.60    0.30
   5   3  -3    0.03    0.12
   5   3  -3   -0.11    0.15
   5   3  -3   -0.05    0.10
   5   3  -3   -0.02    0.11
  -5  -3   3    0.12    0.12
  -5  -3   3    0.14    0.15
   4   3  -3    8.05    0.42
   4   3  -3    8.02    0.42
   4   3  -3    7.24    0.38
  -4  -3   3    8.24    0.46
  -4  -3   3    7.89    0.37
   3   3  -3   14.19    0.53
   3   3  -3   14.12    0.53
  -3  -3   3   13.40    0.43
  -3  -3   3   13.15    0.45
  -3  -3   3   12.80    0.49
   2   3  -3    3.82    0.25
   2   3  -3    2.97    0.27
   2   3  -3    3.61    0.27
  -2  -3   3    3.91    0.20
  -2  -3   3    3.51    0.26
  -2  -3   3    3.66    0.24
   1   3  -3   65.98    1.28
   1   3  -3   66.15    1.28
   1   3  -3   64.39    1.22
  -1  -3   3   66.80    1.25
  -1  -3   3   65.53    1.08
  -1  -3   3   65.79    1.25
   0   3  -3    1.60    0.19
   0   3  -3    1.53    0.19
   0   3  -3    1.42    0.16
   0  -3   3    2.15    0.21
   0  -3   3    1.78    0.19
   0  -3   3    1.91    0.14
  -1   3  -3    8.19    0.33
  -1   3  -3    7.87    0.33
  -1   3  -3    8.00    0.35
   1  -3   3    7.49    0.33
   1  -3   3    7.90    0.35
   1  -3   3    8.02    0.34
   1  -3   3    7.76    0.29
  -2   3  -3    7.63    0.32
  -2   3  -3    7.77    0.32
  -2   3  -3    8.57    0.36
   2  -3   3    7.48    0.33
   2  -3   3    8.44    0.35
   2  -3   3    7.75    0.35
   2  -3   3    8.03    0.35
  -3   3  -3    1.03    0.16
  -3   3  -3    1.17    0.16
  -3   3  -3    0.83    0.13
   3  -3   3    1.16    0.19
   3  -3   3    0.99    0.16
   3  -3   3    0.87    0.16
   3  -3   3    0.89    0.15
  -4   3  -3   13.90    0.42
  -4   3  -3   15.22    0.51
  -4   3  -3   14.13    0.41
   4  -3   3   14.04    0.56
   4  -3   3   14.48    0.50
   4  -3   3   14.11    0.50
   4  -3   3   14.44    0.56
   5  -3   3   10.54    0.45
   5  -3   3   10.33    0.43
   5  -3   3   10.47    0.53
   5  -3   3   10.14    0.51
   6  -3   3   15.52    0.57
   6  -3   3   15.07    0.68
   6  -3   3   15.27    0.59
   7  -3   3    0.04    0.12
   7  -3   3    0.31    0.15
   7  -3   3    0.14    0.18
   8  -3   3    3.06    0.34
   8  -3   3    3.12    0.44
   8  -3   3    4.25    0.41
   9  -3   3    0.23    0.24
   9  -3   3    0.40    0.19
   9  -3   3    0.08    0.15
 -10   3  -3    0.25    0.25
  10  -3   3    0.15    0.27
  10  -3   3    0.00    0.16
  10  -3   3    0.22    0.19
   9   2  -3    3.18    0.40
   9   2  -3    3.99    0.58
   9   2  -3    4.09    0.41
  -9  -2   3    3.37    0.49
   8   2  -3   -0.01    0.15
   8   2  -3   -0.18    0.12
   8   2  -3    0.12    0.23
  -8  -2   3   -0.03    0.16
   7   2  -3    0.80    0.28
   7   2  -3    0.99    0.21
   7   2  -3    1.06    0.21
  -7  -2   3    1.00    0.27
   6   2  -3   73.90    1.50
   6   2  -3   75.20    1.54
   6   2  -3   74.71    1.80
   6   2  -3   74.44    1.51
  -6  -2   3   75.78    1.71
   5   2  -3    2.23    0.27
   5   2  -3    2.46    0.25
   5   2  -3    2.21    0.26
   5   2  -3    2.05    0.30
  -5  -2   3    2.38    0.31
   4   2  -3    6.16    0.34
   4   2  -3    6.75    0.41
   4   2  -3    6.29    0.34
  -4  -2   3    6.39    0.38
   3   2  -3   23.07    0.63
   3   2  -3   24.49    0.60
   3   2  -3   23.36    0.65
  -3  -2   3   22.59    0.54
  -3  -2   3   24.21    0.67
  -3  -2   3   23.02    0.61
   2   2  -3   13.27    0.45
   2   2  -3   12.52    0.40
   2   2  -3   12.48    0.42
  -2  -2   3   13.64    0.33
  -2  -2   3   13.59    0.40
  -2  -2   3   13.05    0.41
   1   2  -3    0.28    0.10
   1   2  -3    0.09    0.09
   1   2  -3    0.30    0.08
  -1  -2   3    0.31    0.06
  -1  -2   3    0.14    0.08
  -1  -2   3    0.03    0.07
   0   2  -3    0.22    0.09
   0   2  -3    0.53    0.12
   0   2  -3    0.27    0.09
   0  -2   3    0.55    0.11
   0  -2   3    0.46    0.07
  -1   2  -3  136.42    2.07
  -1   2  -3  135.43    2.12
  -1   2  -3  134.47    2.08
   1  -2   3  136.98    2.12
   1  -2   3  136.65    1.95
   1  -2   3  137.72    2.02
   1  -2   3  135.51    2.11
   1  -2   3  130.29    2.09
  -2   2  -3    7.23    0.28
  -2   2  -3    7.24    0.31
  -2   2  -3    6.76    0.25
   2  -2   3    6.95    0.30
   2  -2   3    7.12    0.31
   2  -2   3    6.98    0.32
   2  -2   3    6.49    0.29
  -3   2  -3   59.67    1.15
  -3   2  -3   58.77    1.07
  -3   2  -3   60.89    0.99
   3  -2   3   58.10    1.18
   3  -2   3   59.15    1.19
   3  -2   3   58.70    1.14
   3  -2   3   59.98    1.15
  -4   2  -3   14.16    0.32
  -4   2  -3   14.36    0.42
  -4   2  -3   14.15    0.48
   4  -2   3   14.32    0.56
   4  -2   3   14.14    0.48
   4  -2   3   13.65    0.53
   4  -2   3   13.97    0.48
   5  -2   3    8.08    0.39
   5  -2   3    7.38    0.38
   5  -2   3    7.50    0.44
   6  -2   3    4.73    0.44
   6  -2   3    5.12    0.35
   6  -2   3    4.79    0.34
   7  -2   3    0.16    0.13
   7  -2   3    0.16    0.14
   7  -2   3    0.01    0.15
  -8   2  -3    0.77    0.26
   8  -2   3    0.83    0.29
   8  -2   3    0.66    0.21
   8  -2   3    0.72    0.20
  -9   2  -3   -0.13    0.16
   9  -2   3    0.06    0.16
   9  -2   3   -0.07    0.15
   9  -2   3    0.36    0.25
 -10   2  -3    2.30    0.45
  10  -2   3    1.87    0.43
   9   1  -3    2.56    0.48
   9   1  -3    3.11    0.36
  -9  -1   3    2.48    0.40
   8   1  -3    9.52    0.68
   8   1  -3    9.02    0.44
   8   1  -3    9.02    0.47
  -8  -1   3   10.26    0.64
   7   1  -3   29.08    0.80
   7   1  -3   29.19    0.77
   7   1  -3   28.59    1.07
  -7  -1   3   28.25    0.99
   6   1  -3    1.86    0.21
   6   1  -3    1.69    0.23
   6   1  -3    1.60    0.20
   6   1  -3    1.13    0.26
  -6  -1   3    1.48    0.26
   5   1  -3   10.23    0.39
   5   1  -3   10.52    0.38
   5   1  -3   10.55    0.54
   5   1  -3   10.05    0.43
  -5  -1   3   11.17    0.51
   4   1  -3    0.18    0.09
   4   1  -3    0.18    0.07
   4   1  -3    0.27    0.11
   4   1  -3    0.21    0.13
  -4  -1   3   -0.01    0.10
  -4  -1   3    0.22    0.11
   3   1  -3    2.80    0.17
   3   1  -3    2.49    0.23
   3   1  -3    2.53    0.18
   3   1  -3    2.52    0.24
  -3  -1   3    2.57    0.23
  -3  -1   3    2.46    0.17
   2   1  -3    0.20    0.07
   2   1  -3    0.31    0.09
   2   1  -3    0.32    0.10
  -2  -1   3    0.25    0.09
  -2  -1   3    0.30    0.08
   1   1  -3   10.13    0.30
   1   1  -3    9.32    0.31
   1   1  -3   10.01    0.34
  -1  -1   3   10.40    0.30
  -1  -1   3    9.84    0.30
   0   1  -3  954.13   13.70
   0   1  -3  960.13   13.70
   0   1  -3  965.26   13.70
   0  -1   3  959.58   13.59
   0  -1   3  969.26   13.60
   0  -1   3  938.14   13.41
  -1   1  -3   15.85    0.38
  -1   1  -3   15.76    0.41
  -1   1  -3   16.35    0.44
   1  -1   3   15.95    0.38
   1  -1   3   15.79    0.43
   1  -1   3   16.08    0.43
   1  -1   3   15.82    0.42
  -2   1  -3   18.94    0.51
  -2   1  -3   18.83    0.48
  -2   1  -3   18.87    0.38
   2  -1   3   18.55    0.51
   2  -1   3   18.57    0.50
   2  -1   3   19.29    0.51
  -3   1  -3   33.58    0.73
  -3   1  -3   35.67    0.80
  -3   1  -3   35.00    0.54
   3  -1   3   35.21    0.79
   3  -1   3   35.99    0.79
   3  -1   3   34.53    0.82
  -4   1  -3   29.00    0.74
  -4   1  -3   29.54    0.68
   4  -1   3   29.35    0.81
   4  -1   3   29.70    0.75
   4  -1   3   29.86    0.75
   5  -1   3    3.56    0.35
   5  -1   3    2.66    0.27
   5  -1   3    3.31    0.31
   6  -1   3    0.25    0.14
   6  -1   3    0.10    0.12
   6  -1   3    0.12    0.16
  -7   1  -3   34.14    1.10
   7  -1   3   31.80    0.94
   7  -1   3   34.19    1.14
   7  -1   3   33.96    0.99
  -8   1  -3    0.14    0.20
   8  -1   3    0.61    0.21
   8  -1   3    0.07    0.21
   8  -1   3    0.67    0.22
  -9   1  -3   -0.02    0.19
   9  -1   3   -0.07    0.13
   9  -1   3    0.04    0.17
   9  -1   3    0.03    0.24
  10   0  -3   -0.08    0.22
 -10   0   3    0.08    0.20
   9   0  -3    1.39    0.37
  -9   0   3    0.58    0.25
   8   0  -3    7.38    0.39
   8   0  -3    5.23    0.57
  -8   0   3    6.76    0.52
   7   0  -3    6.25    0.29
   7   0  -3    4.84    0.51
   7   0  -3    5.30    0.31
  -7   0   3    5.36    0.43
   6   0  -3   14.37    0.53
   6   0  -3   15.34    0.45
   6   0  -3   14.29    0.42
   6   0  -3   14.52    0.67
  -6   0   3   14.53    0.62
   5   0  -3   53.58    0.95
   5   0  -3   53.47    1.13
   5   0  -3   55.94    0.96
  -5   0   3   54.64    1.23
   4   0  -3   45.42    1.07
   4   0  -3   49.14    1.00
   4   0  -3   46.47    0.81
   4   0  -3   46.76    0.80
   4   0  -3   45.88    0.80
  -4   0   3   47.76    1.03
   3   0  -3   11.47    0.27
   3   0  -3   10.63    0.33
   3   0  -3   10.81    0.29
   3   0  -3   10.69    0.28
   3   0  -3   10.94    0.39
   3   0  -3   11.51    0.42
  -3   0   3   11.29    0.38
   2   0  -3    0.53    0.11
   2   0  -3    0.64    0.12
   2   0  -3    0.46    0.07
   2   0  -3    0.51    0.08
   2   0  -3    0.49    0.07
  -2   0   3    0.48    0.09
   1   0  -3   71.63    1.03
   1   0  -3   70.43    1.13
   1   0  -3   72.22    1.21
   1   0  -3   73.17    1.12
  -1   0   3   71.94    1.12
  -1   0   3   70.79    1.23
   0   0  -3  101.09    1.54
   0   0  -3  101.02    1.55
   0   0  -3  100.84    1.47
   0   0  -3  102.83    1.56
   0   0   3  100.82    1.57
   0   0   3  100.44    1.55
   0   0   3   99.91    1.54
   0   0   3   99.43    1.50
  -1   0  -3   38.92    0.78
  -1   0  -3   39.80    0.68
   1   0   3   38.90    0.77
   1   0   3   40.40    0.73
   1   0   3   40.23    0.77
  -2   0  -3   11.89    0.38
  -2   0  -3   11.15    0.25
  -2   0  -3   11.87    0.39
   2   0   3   11.84    0.38
   2   0   3   11.74    0.39
   2   0   3   12.18    0.40
  -3   0  -3   40.06    0.84
  -3   0  -3   39.82    0.88
   3   0   3   39.55    0.88
   3   0   3   38.73    0.88
   3   0   3   38.98    0.87
  -4   0  -3  134.61    2.24
  -4   0  -3  136.18    2.16
   4   0   3  134.01    2.25
   4   0   3  133.01    2.24
   4   0   3  131.27    2.29
  -5   0  -3    2.67    0.30
   5   0   3    2.29    0.26
   5   0   3    3.03    0.33
   5   0   3    2.72    0.28
  -6   0  -3    9.74    0.55
   6   0   3    9.74    0.50
   6   0   3   10.72    0.60
   6   0   3   10.30    0.51
  -7   0  -3    5.84    0.47
   7   0   3    6.89    0.46
   7   0   3    6.30    0.45
   7   0   3    6.33    0.57
  -8   0  -3    4.74    0.55
   8   0   3    4.13    0.50
   8   0   3    3.99    0.43
   8   0   3    3.95    0.43
  -9   0  -3    0.25    0.23
   9   0   3   -0.23    0.16
   9   0   3    0.05    0.22
   9   0   3    0.02    0.16
  10  -1  -3    4.89    0.62
 -10   1   3    4.57    0.58
   9  -1  -3    5.31    0.62
  -9   1   3    3.95    0.49
   8  -1  -3    1.64    0.34
  -8   1   3    1.37    0.29
   7  -1  -3    0.17    0.09
   7  -1  -3    0.31    0.18
  -7   1   3    0.33    0.18
   6  -1  -3    2.70    0.32
   6  -1  -3    2.73    0.17
   6  -1  -3    2.68    0.27
   6  -1  -3    2.39    0.32
  -6   1   3    2.41    0.31
  -6   1   3    2.42    0.25
   5  -1  -3   16.61    0.57
   5  -1  -3   16.34    0.33
   5  -1  -3   16.24    0.61
   5  -1  -3   15.87    0.54
  -5   1   3   16.49    0.58
   4  -1  -3    7.58    0.37
   4  -1  -3    7.25    0.33
   4  -1  -3    7.52    0.34
  -4   1   3    7.61    0.34
   3  -1  -3  107.78    1.73
   3  -1  -3  108.54    1.81
   3  -1  -3  111.23    1.81
  -3   1   3  109.47    1.75
   2  -1  -3  116.76    1.66
   2  -1  -3  112.75    1.65
   2  -1  -3  112.95    1.85
   2  -1  -3  122.65    1.80
   2  -1  -3  118.49    1.63
   2  -1  -3  116.07    1.76
  -2   1   3  115.63    1.89
  -2   1   3  118.33    1.73
   1  -1  -3    9.68    0.26
   1  -1  -3    9.91    0.28
   1  -1  -3    9.70    0.32
   1  -1  -3    9.60    0.27
  -1   1   3    9.34    0.19
  -1   1   3    9.63    0.34
  -1   1   3    9.33    0.27
   0  -1  -3   57.38    0.99
   0  -1  -3   57.74    0.99
   0  -1  -3   59.32    1.01
   0  -1  -3   56.04    0.98
   0   1   3   58.64    1.00
   0   1   3   57.84    0.98
   0   1   3   59.27    0.88
   0   1   3   57.40    1.05
  -1  -1  -3   18.84    0.50
  -1  -1  -3   18.62    0.48
  -1  -1  -3   18.14    0.39
  -1  -1  -3   18.59    0.42
   1   1   3   19.63    0.50
   1   1   3   19.20    0.50
   1   1   3   19.33    0.42
  -2  -1  -3   62.01    1.09
  -2  -1  -3   62.74    1.16
  -2  -1  -3   62.54    1.18
   2   1   3   61.31    1.18
   2   1   3   61.76    1.11
   2   1   3   62.98    1.17
  -3  -1  -3  116.27    1.91
  -3  -1  -3  113.54    1.96
  -3  -1  -3  114.86    1.92
   3   1   3  114.31    1.95
   3   1   3  114.18    1.92
   3   1   3  114.12    1.96
  -4  -1  -3   23.73    0.70
  -4  -1  -3   24.64    0.72
  -4  -1  -3   24.76    0.67
   4   1   3   24.12    0.73
   4   1   3   23.89    0.71
   4   1   3   24.59    0.73
  -5  -1  -3   24.64    0.79
   5   1   3   24.13    0.81
   5   1   3   24.46    0.77
   5   1   3   24.29    0.79
  -6  -1  -3   51.46    1.33
   6   1   3   49.60    1.29
   6   1   3   54.08    1.39
   6   1   3   50.49    1.28
  -7  -1  -3    0.02    0.17
   7   1   3    0.66    0.24
   7   1   3    0.53    0.21
   7   1   3    0.18    0.16
  -8  -1  -3    8.85    0.63
   8   1   3    9.47    0.68
   8   1   3    8.27    0.55
   8   1   3    9.66    0.61
  -9  -1  -3    8.05    0.65
   9   1   3    8.92    0.81
   9   1   3    7.96    0.61
   9   1   3    8.85    0.60
  10  -2  -3    2.57    0.46
 -10   2   3    3.26    0.50
   9  -2  -3    1.21    0.31
  -9   2   3    0.62    0.25
   8  -2  -3    6.27    0.59
  -8   2   3    5.54    0.53
   7  -2  -3    0.02    0.15
   7  -2  -3    0.26    0.17
   7  -2  -3   -0.09    0.10
  -7   2   3    0.15    0.14
   6  -2  -3    5.06    0.39
   6  -2  -3    4.36    0.36
   6  -2  -3    5.44    0.34
  -6   2   3    4.63    0.35
  -6   2   3    4.46    0.31
   5  -2  -3    0.61    0.15
   5  -2  -3    0.83    0.16
   5  -2  -3    0.71    0.16
  -5   2   3    0.74    0.16
   4  -2  -3    1.98    0.22
   4  -2  -3    1.46    0.19
   4  -2  -3    1.38    0.18
   3  -2  -3    0.71    0.14
   3  -2  -3    0.74    0.12
   3  -2  -3    0.42    0.12
  -3   2   3    0.53    0.13
   2  -2  -3    7.28    0.22
   2  -2  -3    7.42    0.24
   2  -2  -3    6.86    0.21
   2  -2  -3    7.27    0.21
   2  -2  -3    7.27    0.29
   2  -2  -3    7.00    0.31
  -2   2   3    7.20    0.32
   1  -2  -3   54.30    1.02
   1  -2  -3   54.67    1.00
   1  -2  -3   55.12    0.94
   1  -2  -3   53.61    0.94
  -1   2   3   52.81    0.94
  -1   2   3   54.65    1.05
   0  -2  -3   16.47    0.44
   0  -2  -3   15.87    0.46
   0  -2  -3   15.67    0.44
   0  -2  -3   16.18    0.44
   0   2   3   16.34    0.44
   0   2   3   15.38    0.44
   0   2   3   15.66    0.27
  -1  -2  -3    4.66    0.22
  -1  -2  -3    4.39    0.26
  -1  -2  -3    4.55    0.25
  -1  -2  -3    4.17    0.19
  -1  -2  -3    4.35    0.26
   1   2   3    4.46    0.18
   1   2   3    4.24    0.25
   1   2   3    4.05    0.26
  -2  -2  -3   -0.12    0.07
  -2  -2  -3    0.16    0.08
  -2  -2  -3    0.05    0.09
  -2  -2  -3    0.17    0.09
   2   2   3    0.01    0.07
   2   2   3   -0.03    0.08
   2   2   3    0.07    0.10
  -3  -2  -3   36.45    0.91
  -3  -2  -3   36.03    0.87
  -3  -2  -3   35.40    0.83
   3   2   3   36.14    0.84
   3   2   3   35.46    0.89
   3   2   3   35.42    0.92
  -4  -2  -3   25.45    0.78
  -4  -2  -3   24.75    0.73
  -4  -2  -3   26.32    0.76
   4   2   3   25.92    0.82
   4   2   3   26.09    0.78
   4   2   3   25.48    0.77
  -5  -2  -3    0.70    0.19
   5   2   3    0.23    0.16
   5   2   3    0.39    0.17
   5   2   3    0.27    0.15
  -6  -2  -3    0.44    0.20
   6   2   3    0.13    0.17
   6   2   3    0.32    0.17
   6   2   3    0.04    0.17
  -7  -2  -3    1.12    0.27
   7   2   3    1.36    0.32
   7   2   3    1.05    0.28
   7   2   3    1.35    0.28
  -8  -2  -3    2.06    0.39
   8   2   3    2.26    0.43
   8   2   3    2.31    0.37
   8   2   3    1.73    0.34
  -9  -2  -3    0.09    0.22
   9   2   3   -0.16    0.23
   9   2   3   -0.30    0.18
   9   2   3   -0.19    0.19
  10  -3  -3    3.37    0.53
 -10   3   3    5.13    0.60
   9  -3  -3    0.99    0.29
  -9   3   3    1.26    0.31
   8  -3  -3    6.66    0.51
   8  -3  -3    5.34    0.53
  -8   3   3    5.35    0.51
   7  -3  -3    0.27    0.16
   7  -3  -3    0.41    0.19
   7  -3  -3    0.90    0.25
  -7   3   3    0.75    0.19
  -7   3   3    0.66    0.21
   6  -3  -3    0.04    0.11
   6  -3  -3    0.13    0.14
   6  -3  -3    0.20    0.14
  -6   3   3    0.14    0.13
  -6   3   3    0.08    0.12
   5  -3  -3    0.19    0.11
   5  -3  -3    0.02    0.10
   5  -3  -3    0.23    0.13
  -5   3   3   -0.11    0.09
  -5   3   3   -0.04    0.10
   4  -3  -3    8.09    0.35
   4  -3  -3    7.23    0.36
   4  -3  -3    7.72    0.38
  -4   3   3    7.23    0.36
  -4   3   3    7.75    0.39
   3  -3  -3    1.47    0.11
   3  -3  -3    1.19    0.18
   3  -3  -3    1.15    0.14
   3  -3  -3    1.31    0.11
   3  -3  -3    1.08    0.17
   3  -3  -3    1.22    0.11
  -3   3   3    1.09    0.17
   2  -3  -3    7.46    0.27
   2  -3  -3    7.73    0.27
   2  -3  -3    7.89    0.22
   2  -3  -3    7.38    0.34
   2  -3  -3    7.58    0.35
  -2   3   3    8.23    0.36
  -2   3   3    7.11    0.34
   1  -3  -3   20.27    0.58
   1  -3  -3   21.18    0.53
   1  -3  -3   21.34    0.54
   1  -3  -3   21.31    0.59
  -1   3   3   21.55    0.50
  -1   3   3   21.18    0.53
   0  -3  -3   32.14    0.75
   0  -3  -3   31.45    0.74
   0  -3  -3   31.40    0.77
   0   3   3   31.65    0.75
   0   3   3   30.90    0.71
  -1  -3  -3    0.18    0.10
  -1  -3  -3    0.17    0.10
  -1  -3  -3    0.16    0.11
   1   3   3    0.18    0.10
   1   3   3    0.26    0.12
   1   3   3    0.12    0.06
  -2  -3  -3    1.11    0.18
  -2  -3  -3    1.82    0.25
  -2  -3  -3    1.20    0.16
  -2  -3  -3    1.57    0.22
   2   3   3    1.37    0.19
   2   3   3    1.49    0.22
   2   3   3    1.26    0.15
   2   3   3    1.33    0.14
  -3  -3  -3    5.45    0.38
  -3  -3  -3    5.54    0.32
  -3  -3  -3    5.18    0.35
   3   3   3    5.19    0.35
   3   3   3    5.31    0.37
   3   3   3    4.93    0.30
   3   3   3    5.18    0.21
  -4  -3  -3   14.29    0.57
  -4  -3  -3   14.23    0.60
  -4  -3  -3   13.73    0.62
  -4  -3  -3   14.65    0.57
   4   3   3   13.49    0.55
   4   3   3   14.46    0.63
   4   3   3   13.41    0.59
  -5  -3  -3   27.90    0.88
   5   3   3   26.81    0.90
   5   3   3   27.53    0.91
   5   3   3   26.73    0.91
  -6  -3  -3    8.76    0.54
   6   3   3    7.33    0.51
   6   3   3    7.29    0.54
   6   3   3    7.52    0.53
  -7  -3  -3    1.87    0.34
   7   3   3    2.61    0.40
   7   3   3    3.05    0.44
   7   3   3    2.35    0.38
  -8  -3  -3    1.07    0.31
   8   3   3    0.63    0.27
   8   3   3    1.16    0.30
   8   3   3    0.72    0.31
  10  -4  -3    2.75    0.46
 -10   4   3    3.12    0.47
   9  -4  -3    0.39    0.22
   9  -4  -3    0.28    0.23
  -9   4   3   -0.12    0.16
   8  -4  -3    3.76    0.46
   8  -4  -3    3.90    0.47
  -8   4   3    3.94    0.46
   7  -4  -3   11.53    0.61
   7  -4  -3   11.94    0.64
   7  -4  -3   11.98    0.56
  -7   4   3   11.95    0.58
   6  -4  -3    2.29    0.30
   6  -4  -3    1.59    0.26
   6  -4  -3    2.09    0.31
  -6   4   3    1.92    0.29
  -6   4   3    1.90    0.26
   5  -4  -3   23.67    0.71
   5  -4  -3   24.17    0.48
   5  -4  -3   23.76    0.79
   5  -4  -3   25.28    0.78
  -5   4   3   24.00    0.78
  -5   4   3   23.34    0.71
   4  -4  -3    0.46    0.08
   4  -4  -3    0.19    0.10
   4  -4  -3    0.63    0.17
   4  -4  -3    0.44    0.09
   4  -4  -3    0.25    0.13
  -4   4   3    0.32    0.12
  -4   4   3    0.12    0.13
   3  -4  -3   15.05    0.41
   3  -4  -3   15.62    0.56
   3  -4  -3   14.84    0.41
   3  -4  -3   15.92    0.43
   3  -4  -3   15.87    0.45
   3  -4  -3   15.17    0.55
  -3   4   3   15.42    0.57
  -3   4   3   14.53    0.52
   2  -4  -3  106.11    1.91
   2  -4  -3  107.33    1.76
   2  -4  -3  106.11    1.75
   2  -4  -3  104.67    1.90
   2  -4  -3  108.87    1.55
  -2   4   3  106.82    1.76
  -2   4   3  108.19    1.91
   1  -4  -3   46.80    0.98
   1  -4  -3   44.90    0.97
   1  -4  -3   46.15    1.05
  -1   4   3   43.73    0.97
  -1   4   3   45.21    1.01
  -1   4   3   47.22    0.91
   0  -4  -3   39.51    0.93
   0  -4  -3   38.57    0.95
   0  -4  -3   39.24    0.92
   0   4   3   39.55    0.88
   0   4   3   38.06    0.88
   0   4   3   39.76    0.94
  -1  -4  -3    0.30    0.15
  -1  -4  -3   -0.07    0.07
  -1  -4  -3    0.11    0.10
   1   4   3    0.26    0.13
   1   4   3    0.36    0.12
   1   4   3    0.20    0.11
  -2  -4  -3   11.40    0.52
  -2  -4  -3   11.12    0.50
  -2  -4  -3   10.97    0.51
   2   4   3   11.70    0.54
   2   4   3   10.98    0.40
   2   4   3   11.80    0.40
   2   4   3   12.37    0.52
  -3  -4  -3    1.62    0.23
  -3  -4  -3    1.48    0.25
  -3  -4  -3    1.98    0.27
  -3  -4  -3    1.36    0.25
   3   4   3    1.08    0.22
   3   4   3    1.12    0.23
   3   4   3    1.38    0.20
  -4  -4  -3    5.77    0.46
  -4  -4  -3    7.11    0.47
  -4  -4  -3    7.02    0.43
  -4  -4  -3    6.29    0.42
   4   4   3    6.57    0.41
   4   4   3    5.76    0.44
   4   4   3    5.39    0.44
  -5  -4  -3   16.42    0.78
  -5  -4  -3   16.31    0.70
   5   4   3   16.13    0.75
   5   4   3   16.64    0.77
   5   4   3   18.19    0.74
  -6  -4  -3    0.41    0.21
  -6  -4  -3    0.20    0.21
   6   4   3    0.03    0.17
   6   4   3    0.43    0.22
   6   4   3    0.14    0.17
  -7  -4  -3    0.85    0.31
  -7  -4  -3    1.02    0.30
   7   4   3    0.87    0.30
   7   4   3    0.67    0.27
   7   4   3    1.03    0.31
  -8  -4  -3    2.20    0.45
  -8  -4  -3    1.03    0.34
   8   4   3    1.28    0.36
   8   4   3    2.08    0.41
   8   4   3    1.10    0.36
  10  -5  -3    5.63    0.64
  10  -5  -3    4.53    0.57
 -10   5   3    5.82    0.66
   9  -5  -3    2.86    0.43
   9  -5  -3    3.94    0.54
  -9   5   3    3.15    0.45
   8  -5  -3    1.29    0.31
   8  -5  -3    1.44    0.30
  -8   5   3    1.61    0.30
   7  -5  -3    2.62    0.37
   7  -5  -3    2.00    0.35
  -7   5   3    2.82    0.38
   6  -5  -3   28.72    0.91
   6  -5  -3   26.88    0.84
   6  -5  -3   28.44    0.96
  -6   5   3   25.97    0.90
   5  -5  -3    4.16    0.19
   5  -5  -3    4.55    0.24
   5  -5  -3    4.82    0.38
   5  -5  -3    4.25    0.31
   5  -5  -3    3.55    0.38
  -5   5   3    3.97    0.31
  -5   5   3    4.54    0.44
   4  -5  -3   12.14    0.41
   4  -5  -3   12.20    0.39
   4  -5  -3   12.24    0.43
   4  -5  -3   11.84    0.56
  -4   5   3   12.13    0.50
  -4   5   3   12.19    0.57
   3  -5  -3   11.95    0.41
   3  -5  -3   11.72    0.42
   3  -5  -3   10.81    0.34
   3  -5  -3   10.74    0.51
  -3   5   3   11.05    0.52
   2  -5  -3    0.87    0.16
   2  -5  -3    0.67    0.15
   2  -5  -3    0.54    0.08
   2  -5  -3    0.83    0.19
  -2   5   3    0.75    0.18
  -2   5   3    0.49    0.17
   1  -5  -3   20.25    0.70
   1  -5  -3   21.25    0.66
   1  -5  -3   20.64    0.65
  -1   5   3   20.15    0.65
  -1   5   3   22.07    0.61
  -1   5   3   20.75    0.68
   0  -5  -3   14.65    0.59
   0  -5  -3   13.28    0.54
   0  -5  -3   14.60    0.56
   0   5   3   15.10    0.55
   0   5   3   13.96    0.57
   0   5   3   14.56    0.53
  -1  -5  -3   -0.03    0.10
  -1  -5  -3    0.02    0.13
  -1  -5  -3    0.10    0.11
   1   5   3   -0.05    0.11
   1   5   3    0.03    0.10
   1   5   3    0.07    0.11
  -2  -5  -3    2.00    0.29
  -2  -5  -3    2.01    0.29
  -2  -5  -3    2.14    0.29
   2   5   3    1.67    0.27
   2   5   3    1.85    0.22
   2   5   3    2.08    0.29
  -3  -5  -3   14.29    0.66
  -3  -5  -3   13.30    0.66
  -3  -5  -3   14.20    0.64
   3   5   3   14.68    0.67
   3   5   3   15.09    0.70
   3   5   3   13.56    0.54
  -4  -5  -3   21.22    0.85
  -4  -5  -3   22.79    0.90
  -4  -5  -3   22.49    0.84
   4   5   3   23.87    0.94
   4   5   3   22.00    0.77
   4   5   3   21.67    0.86
  -5  -5  -3    0.22    0.18
  -5  -5  -3   -0.09    0.17
   5   5   3    0.03    0.15
   5   5   3   -0.05    0.16
   5   5   3    0.13    0.19
  -6  -5  -3    0.16    0.23
  -6  -5  -3   -0.03    0.17
   6   5   3    0.30    0.24
   6   5   3   -0.08    0.18
   6   5   3    0.11    0.20
  -7  -5  -3    0.38    0.26
  -7  -5  -3    0.24    0.25
   7   5   3    0.86    0.30
   7   5   3    0.10    0.21
   9  -6  -3    0.27    0.24
   8  -6  -3    3.81    0.51
  -8   6   3    4.23    0.49
   7  -6  -3    2.06    0.37
  -7   6   3    2.24    0.37
   6  -6  -3   14.28    0.72
   6  -6  -3   13.66    0.48
  -6   6   3   14.41    0.70
   5  -6  -3   40.90    0.84
   5  -6  -3   39.50    0.91
   5  -6  -3   38.52    1.18
  -5   6   3   39.23    1.16
   4  -6  -3   27.84    0.75
   4  -6  -3   26.57    0.90
   4  -6  -3   27.38    0.71
  -4   6   3   25.88    0.89
   3  -6  -3    7.42    0.39
   3  -6  -3    8.07    0.39
   3  -6  -3    7.39    0.46
  -3   6   3    7.59    0.48
   2  -6  -3   15.69    0.59
   2  -6  -3   16.49    0.67
   2  -6  -3   16.10    0.60
  -2   6   3   17.80    0.68
   1  -6  -3    2.39    0.29
   1  -6  -3    2.43    0.32
   1  -6  -3    2.42    0.29
  -1   6   3    2.50    0.30
  -1   6   3    2.44    0.31
   0  -6  -3    4.40    0.40
   0  -6  -3    4.19    0.39
   0  -6  -3    4.19    0.42
   0   6   3    4.56    0.42
   0   6   3    4.54    0.36
   0   6   3    4.79    0.35
  -1  -6  -3    0.21    0.16
  -1  -6  -3    0.43    0.17
  -1  -6  -3    0.16    0.14
   1   6   3    0.19    0.17
   1   6   3    0.09    0.13
   1   6   3    0.31    0.15
  -2  -6  -3    1.87    0.30
  -2  -6  -3    1.38    0.26
  -2  -6  -3    1.70    0.31
   2   6   3    1.55    0.26
   2   6   3    1.43    0.24
   2   6   3    1.86    0.34
  -3  -6  -3    4.70    0.47
  -3  -6  -3    5.17    0.53
  -3  -6  -3    5.25    0.52
   3   6   3    4.83    0.46
   3   6   3    4.88    0.51
  -4  -6  -3    2.90    0.41
  -4  -6  -3    3.18    0.45
  -4  -6  -3    3.57    0.47
   4   6   3    2.71    0.40
   4   6   3    2.69    0.44
  -5  -6  -3    1.91    0.38
   5   6   3    2.13    0.38
   5   6   3    1.58    0.34
  -6  -6  -3    2.56    0.46
   6   6   3    2.11    0.40
   6   6   3    2.59    0.46
   9  -7  -3    6.36    0.70
   8  -7  -3    0.91    0.30
  -8   7   3    1.18    0.32
   7  -7  -3    0.22    0.20
  -7   7   3   -0.12    0.18
   6  -7  -3    4.55    0.33
   6  -7  -3    5.00    0.52
   6  -7  -3    4.88    0.27
  -6   7   3    5.47    0.55
   5  -7  -3    0.19    0.11
   5  -7  -3    0.50    0.16
   5  -7  -3    0.87    0.25
  -5   7   3    0.46    0.21
   4  -7  -3    0.24    0.14
   4  -7  -3    0.40    0.15
   4  -7  -3    0.26    0.17
  -4   7   3    0.56    0.23
   3  -7  -3    8.49    0.54
   3  -7  -3    8.79    0.45
   3  -7  -3    7.83    0.45
  -3   7   3    8.18    0.53
   2  -7  -3   39.61    1.18
   2  -7  -3   39.84    1.09
   2  -7  -3   40.33    1.07
  -2   7   3   39.54    1.15
   1  -7  -3    4.09    0.41
   1  -7  -3    3.29    0.39
   1  -7  -3    3.35    0.37
  -1   7   3    3.49    0.39
   0  -7  -3    0.68    0.20
   0  -7  -3    0.55    0.20
   0  -7  -3    0.80    0.24
   0   7   3    0.45    0.19
   0   7   3    0.29    0.19
   0   7   3    0.44    0.22
  -1  -7  -3   35.80    1.12
  -1  -7  -3   35.39    1.13
  -1  -7  -3   34.52    1.12
   1   7   3   35.59    0.99
   1   7   3   34.06    1.06
   1   7   3   34.74    1.14
  -2  -7  -3   22.21    0.90
  -2  -7  -3   20.77    0.87
  -2  -7  -3   19.50    0.84
   2   7   3   20.30    0.84
   2   7   3   19.89    0.89
  -3  -7  -3    0.75    0.24
  -3  -7  -3    1.34    0.32
  -3  -7  -3    1.14    0.29
   3   7   3    1.35    0.32
   3   7   3    1.13    0.28
  -4  -7  -3    6.05    0.60
  -4  -7  -3    5.64    0.58
   4   7   3    4.44    0.54
   4   7   3    4.58    0.53
  -5  -7  -3    2.71    0.48
   5   7   3    3.72    0.51
   5   7   3    2.67    0.46
  -6  -7  -3   -0.12    0.22
   8  -8  -3    1.66    0.39
  -8   8   3    1.30    0.35
   7  -8  -3    3.39    0.49
  -7   8   3    4.02    0.52
   6  -8  -3    0.59    0.19
   6  -8  -3    0.23    0.19
   6  -8  -3    0.32    0.14
  -6   8   3    0.43    0.24
   5  -8  -3   -0.13    0.11
   5  -8  -3    0.09    0.18
   5  -8  -3    0.20    0.13
  -5   8   3   -0.19    0.14
   4  -8  -3    0.40    0.17
   4  -8  -3    0.17    0.13
   4  -8  -3    0.22    0.20
  -4   8   3    0.49    0.23
   3  -8  -3   11.65    0.60
   3  -8  -3   10.83    0.56
   3  -8  -3   11.71    0.68
  -3   8   3   13.40    0.71
   2  -8  -3    1.40    0.27
   2  -8  -3    0.97    0.25
   2  -8  -3    1.23    0.26
  -2   8   3    0.84    0.25
   1  -8  -3   13.32    0.67
   1  -8  -3   11.70    0.63
   1  -8  -3   12.94    0.70
  -1   8   3   14.40    0.69
   0  -8  -3    5.87    0.56
   0  -8  -3    5.86    0.57
   0  -8  -3    4.84    0.52
   0   8   3    5.85    0.45
  -1  -8  -3    1.04    0.27
  -1  -8  -3    2.16    0.38
  -1  -8  -3    1.46    0.32
   1   8   3    1.15    0.27
   1   8   3    0.99    0.34
  -2  -8  -3    6.83    0.64
  -2  -8  -3    5.99    0.59
  -2  -8  -3    5.72    0.56
   2   8   3    6.02    0.60
   2   8   3    6.27    0.59
  -3  -8  -3    7.32    0.67
  -3  -8  -3    7.33    0.60
   3   8   3    7.81    0.73
   3   8   3    6.53    0.60
   3   8   3    6.36    0.58
  -4  -8  -3    3.40    0.52
   4   8   3    2.89    0.47
   4   8   3    3.98    0.56
   7  -9  -3    0.15    0.21
   7  -9  -3    0.09    0.18
  -7   9   3    0.28    0.27
   6  -9  -3    1.46    0.37
   6  -9  -3    0.97    0.25
  -6   9   3    1.04    0.32
   5  -9  -3    0.10    0.13
   5  -9  -3    0.35    0.19
   5  -9  -3   -0.09    0.18
  -5   9   3    0.38    0.24
   4  -9  -3    0.40    0.19
   4  -9  -3    0.22    0.22
   4  -9  -3   -0.08    0.13
  -4   9   3    0.30    0.24
   3  -9  -3    0.99    0.25
   3  -9  -3    0.90    0.29
   3  -9  -3    1.25    0.28
  -3   9   3    1.13    0.32
   2  -9  -3    0.19    0.18
   2  -9  -3    0.15    0.21
   2  -9  -3    0.61    0.22
  -2   9   3    0.07    0.20
   1  -9  -3    4.70    0.56
   1  -9  -3    4.49    0.52
   1  -9  -3    4.49    0.53
  -1   9   3    4.24    0.50
   0  -9  -3   -0.11    0.16
   0  -9  -3    0.11    0.17
   0  -9  -3    0.28    0.21
   0   9   3    0.13    0.20
  -1  -9  -3    0.12    0.19
  -1  -9  -3   -0.02    0.22
  -1  -9  -3    0.09    0.17
  -2  -9  -3   -0.16    0.19
  -2  -9  -3   -0.13    0.18
  -2  -9  -3   -0.27    0.17
  -3  -9  -3    1.70    0.39
  -3  -9  -3    1.56    0.37
  -3  -9  -3    1.95    0.40
   3   9   3    2.08    0.43
   3   9   3    1.71    0.44
   6 -10  -3    1.10    0.36
   6 -10  -3    0.89    0.26
  -6  10   3    1.01    0.35
   5 -10  -3    0.08    0.15
   5 -10  -3    0.06    0.16
   5 -10  -3   -0.19    0.21
  -5  10   3   -0.03    0.23
   4 -10  -3   -0.01    0.15
   4 -10  -3    0.02    0.18
   4 -10  -3   -0.13    0.17
  -4  10   3    0.02    0.23
   3 -10  -3    2.10    0.37
   3 -10  -3    1.31    0.34
   3 -10  -3    1.31    0.34
  -3  10   3    1.26    0.38
   2 -10  -3    3.30    0.49
   2 -10  -3    3.49    0.48
   2 -10  -3    3.70    0.48
  -2  10   3    3.75    0.53
   1 -10  -3    2.96    0.43
   1 -10  -3    3.18    0.50
   1 -10  -3    3.11    0.47
  -1  10   3    2.80    0.45
   0 -10  -3    0.13    0.21
   0 -10  -3   -0.17    0.17
   0 -10  -3   -0.23    0.14
  -1 -10  -3    0.23    0.23
  -1 -10  -3    0.26    0.24
  -1 -10  -3    0.10    0.21
  -2 -10  -3    0.09    0.21
  -2 -10  -3    0.02    0.24
   4 -11  -3   18.51    0.87
   3 -11  -3   -0.13    0.16
   3 -11  -3    0.29    0.26
  -3  11   3    0.00    0.26
   2 -11  -3    0.30    0.27
   2 -11  -3    0.02    0.19
  -2  11   3   -0.17    0.25
   1 -11  -3   -0.02    0.18
   1 -11  -3   -0.06    0.23
   0 -11   4    1.21    0.35
  -1  11  -4    0.14    0.26
   1 -11   4   -0.05    0.23
   1 -11   4   -0.01    0.19
  -2  11  -4    0.18    0.25
   2 -11   4    0.67    0.33
   2 -11   4    0.37    0.26
  -3  11  -4    3.45    0.54
   3 -11   4    3.39    0.48
   3 -11   4    5.11    0.64
   4 -11   4    1.95    0.40
   2  10  -4   10.53    0.81
   2  10  -4    8.42    0.80
   2  10  -4   10.25    0.73
   1  10  -4    1.43    0.37
   1  10  -4    2.14    0.39
   1  10  -4    1.28    0.38
  -1 -10   4    1.90    0.42
  -1 -10   4    1.80    0.38
   0  10  -4    0.95    0.32
   0 -10   4    1.41    0.35
   0 -10   4    0.99    0.35
   0 -10   4    0.77    0.28
  -1  10  -4    5.28    0.61
   1 -10   4    4.91    0.52
   1 -10   4    5.76    0.65
   1 -10   4    5.13    0.59
  -2  10  -4    1.68    0.38
   2 -10   4    2.32    0.38
   2 -10   4    2.58    0.45
   2 -10   4    3.39    0.44
   2 -10   4    3.23    0.47
  -3  10  -4    0.25    0.23
   3 -10   4    0.05    0.17
   3 -10   4    0.05    0.19
   3 -10   4    0.04    0.21
  -4  10  -4    8.51    0.68
   4 -10   4    7.92    0.59
   4 -10   4    9.07    0.67
   4 -10   4    8.93    0.65
   4 -10   4    8.66    0.62
  -5  10  -4    8.74    0.68
   5 -10   4    8.35    0.62
   5 -10   4    9.58    0.68
   5 -10   4    8.30    0.62
   5 -10   4    8.31    0.68
   6 -10   4    3.57    0.53
   6 -10   4    3.39    0.46
   6 -10   4    2.64    0.50
   6 -10   4    3.81    0.53
   4   9  -4   -0.14    0.20
   4   9  -4    0.02    0.24
   4   9  -4    0.07    0.23
   3   9  -4    0.90    0.34
   3   9  -4    0.74    0.28
   3   9  -4    0.94    0.30
   2   9  -4    0.26    0.26
   2   9  -4    0.72    0.28
   2   9  -4    0.35    0.23
  -2  -9   4    0.06    0.20
   1   9  -4    0.07    0.19
   1   9  -4    0.00    0.19
   1   9  -4    0.35    0.25
  -1  -9   4   -0.29    0.15
  -1  -9   4    0.00    0.19
  -1  -9   4    0.08    0.18
   0   9  -4    8.68    0.60
   0   9  -4    9.06    0.66
   0   9  -4    8.26    0.63
   0  -9   4    8.45    0.59
   0  -9   4    9.15    0.63
   0  -9   4    7.84    0.63
  -1   9  -4    3.55    0.48
   1  -9   4    3.73    0.50
   1  -9   4    3.43    0.41
   1  -9   4    3.55    0.43
   1  -9   4    3.58    0.47
  -2   9  -4    0.94    0.28
   2  -9   4    0.73    0.25
   2  -9   4    0.57    0.23
   2  -9   4    0.67    0.23
   2  -9   4    0.93    0.28
  -3   9  -4    2.13    0.38
   3  -9   4    2.41    0.37
   3  -9   4    2.10    0.34
   3  -9   4    3.24    0.46
  -4   9  -4    2.21    0.38
   4  -9   4    2.59    0.40
   4  -9   4    2.30    0.37
   4  -9   4    2.20    0.38
   4  -9   4    2.04    0.35
  -5   9  -4    0.10    0.20
   5  -9   4    0.27    0.21
   5  -9   4   -0.17    0.16
   5  -9   4    0.13    0.17
   5  -9   4    0.04    0.17
   6  -9   4   -0.03    0.19
   6  -9   4    0.17    0.20
   6  -9   4   -0.08    0.19
   6  -9   4    0.17    0.18
   7  -9   4    2.99    0.41
   7  -9   4    3.50    0.48
   7  -9   4    3.49    0.48
   7  -9   4    3.35    0.49
   5   8  -4    0.61    0.29
   5   8  -4    1.20    0.34
   5   8  -4    0.53    0.28
   4   8  -4    3.75    0.51
   4   8  -4    3.28    0.47
   4   8  -4    3.41    0.51
   3   8  -4    3.48    0.45
   3   8  -4    3.27    0.49
   3   8  -4    4.13    0.51
   2   8  -4    0.87    0.28
   2   8  -4    1.05    0.30
   2   8  -4    1.29    0.30
  -2  -8   4    1.45    0.32
  -2  -8   4    1.39    0.30
   1   8  -4    0.38    0.24
   1   8  -4    0.56    0.24
   1   8  -4    0.83    0.24
  -1  -8   4    0.58    0.23
  -1  -8   4    0.49    0.23
   0   8  -4    5.19    0.54
   0   8  -4    4.86    0.46
   0   8  -4    3.93    0.48
   0  -8   4    5.45    0.53
   0  -8   4    5.09    0.39
   0  -8   4    5.53    0.50
   0  -8   4    4.03    0.46
  -1   8  -4    1.25    0.32
  -1   8  -4    1.07    0.26
  -1   8  -4    1.54    0.32
   1  -8   4    0.96    0.26
   1  -8   4    0.91    0.22
   1  -8   4    1.05    0.26
   1  -8   4    1.32    0.30
  -2   8  -4    3.92    0.47
   2  -8   4    3.28    0.38
   2  -8   4    2.75    0.38
   2  -8   4    2.81    0.39
   2  -8   4    3.90    0.42
  -3   8  -4    7.17    0.53
   3  -8   4    6.62    0.49
   3  -8   4    5.79    0.47
   3  -8   4    7.03    0.51
   3  -8   4    7.79    0.55
  -4   8  -4    1.36    0.30
   4  -8   4    1.44    0.30
   4  -8   4    1.43    0.30
   4  -8   4    1.95    0.34
   4  -8   4    1.49    0.29
  -5   8  -4   -0.02    0.16
   5  -8   4   -0.04    0.17
   5  -8   4    0.09    0.18
   5  -8   4   -0.03    0.16
   5  -8   4   -0.35    0.12
   6  -8   4    1.74    0.36
   6  -8   4    2.10    0.36
   6  -8   4    2.65    0.41
   6  -8   4    2.03    0.33
   7  -8   4    0.61    0.22
   7  -8   4    0.16    0.25
   7  -8   4    0.61    0.25
   7  -8   4    0.38    0.24
   8  -8   4    0.73    0.32
   8  -8   4    0.50    0.25
   8  -8   4    0.27    0.27
   8  -8   4    0.66    0.23
   6   7  -4    7.78    0.76
   6   7  -4    8.65    0.68
   5   7  -4    3.22    0.46
   5   7  -4    1.89    0.39
   5   7  -4    2.81    0.42
   4   7  -4    3.51    0.46
   4   7  -4    3.91    0.52
   4   7  -4    4.32    0.49
   3   7  -4    1.03    0.29
   3   7  -4    0.63    0.23
   3   7  -4    0.48    0.22
   2   7  -4    4.46    0.46
   2   7  -4    4.76    0.52
   2   7  -4    6.65    0.51
  -2  -7   4    5.65    0.52
  -2  -7   4    6.04    0.47
   1   7  -4    0.13    0.15
   1   7  -4    0.08    0.16
   1   7  -4    0.07    0.18
  -1  -7   4    0.28    0.17
  -1  -7   4   -0.11    0.14
  -1  -7   4   -0.13    0.10
   0   7  -4    0.10    0.14
   0   7  -4    0.20    0.16
   0   7  -4    0.00    0.16
   0  -7   4    0.35    0.18
   0  -7   4    0.45    0.19
   0  -7   4    0.31    0.14
   0  -7   4    0.42    0.18
  -1   7  -4    8.01    0.53
  -1   7  -4    8.93    0.54
  -1   7  -4    8.42    0.48
   1  -7   4    8.16    0.51
   1  -7   4    8.74    0.46
   1  -7   4    9.59    0.55
   1  -7   4    8.36    0.51
  -2   7  -4    0.28    0.14
  -2   7  -4    0.28    0.16
  -2   7  -4    0.13    0.16
   2  -7   4    0.41    0.18
   2  -7   4    0.40    0.18
   2  -7   4    0.08    0.16
   2  -7   4    0.13    0.14
  -3   7  -4   18.53    0.76
   3  -7   4   19.68    0.77
   3  -7   4   18.94    0.74
   3  -7   4   18.33    0.77
   3  -7   4   18.95    0.74
  -4   7  -4    4.40    0.45
   4  -7   4    4.28    0.43
   4  -7   4    5.03    0.49
   4  -7   4    4.00    0.42
   4  -7   4    3.95    0.43
  -5   7  -4    4.58    0.45
   5  -7   4    6.13    0.55
   5  -7   4    5.44    0.49
   5  -7   4    4.78    0.49
   5  -7   4    4.85    0.48
   6  -7   4   -0.19    0.12
   6  -7   4   -0.10    0.15
   6  -7   4    0.12    0.19
   6  -7   4   -0.11    0.15
   7  -7   4    0.38    0.23
   7  -7   4    0.57    0.23
   7  -7   4    0.37    0.22
   7  -7   4    0.29    0.19
   8  -7   4    0.00    0.21
   8  -7   4    0.27    0.18
   8  -7   4    0.05    0.18
   8  -7   4    0.08    0.21
   9  -7   4    5.11    0.62
   9  -7   4    5.34    0.67
   7   6  -4    0.17    0.24
   7   6  -4   -0.07    0.19
   6   6  -4    0.06    0.21
   6   6  -4    0.10    0.19
   5   6  -4    5.41    0.57
   5   6  -4    6.71    0.59
   5   6  -4    5.23    0.53
   4   6  -4    4.86    0.51
   4   6  -4    4.58    0.47
   4   6  -4    3.65    0.45
   3   6  -4    9.52    0.57
   3   6  -4    8.80    0.58
   3   6  -4    8.82    0.54
   2   6  -4    9.13    0.54
   2   6  -4    9.67    0.56
   2   6  -4    9.71    0.53
  -2  -6   4    8.92    0.52
  -2  -6   4    7.95    0.54
  -2  -6   4    9.34    0.53
   1   6  -4   16.16    0.70
   1   6  -4   14.57    0.62
   1   6  -4   15.83    0.69
  -1  -6   4   15.14    0.53
  -1  -6   4   13.79    0.64
  -1  -6   4   15.11    0.66
   0   6  -4    7.10    0.46
   0   6  -4    7.40    0.48
   0  -6   4    7.52    0.46
   0  -6   4    7.33    0.38
   0  -6   4    7.46    0.46
   0  -6   4    7.21    0.45
  -1   6  -4    9.10    0.47
  -1   6  -4    8.94    0.50
  -1   6  -4    9.08    0.50
   1  -6   4    8.71    0.49
   1  -6   4    9.66    0.51
   1  -6   4    9.72    0.50
   1  -6   4    9.23    0.43
  -2   6  -4    3.95    0.38
  -2   6  -4    4.40    0.42
   2  -6   4    4.46    0.40
   2  -6   4    4.57    0.34
   2  -6   4    4.28    0.39
  -3   6  -4   19.49    0.74
  -3   6  -4   21.06    0.69
  -3   6  -4   21.35    0.75
   3  -6   4   20.64    0.74
   3  -6   4   20.68    0.76
   3  -6   4   20.64    0.74
   3  -6   4   20.92    0.73
  -4   6  -4    1.80    0.28
   4  -6   4    1.61    0.27
   4  -6   4    1.20    0.23
   4  -6   4    1.93    0.28
   4  -6   4    1.40    0.25
  -5   6  -4   19.97    0.71
   5  -6   4   19.92    0.80
   5  -6   4   20.40    0.78
   5  -6   4   20.29    0.74
   5  -6   4   19.10    0.80
   6  -6   4    5.74    0.44
   6  -6   4    5.81    0.43
   6  -6   4    6.02    0.48
   6  -6   4    5.40    0.53
   7  -6   4    0.76    0.23
   7  -6   4    0.52    0.26
   7  -6   4    0.88    0.27
   7  -6   4    0.76    0.23
   8  -6   4    1.08    0.25
   8  -6   4    1.34    0.29
   8  -6   4    1.32    0.34
   8  -6   4    0.99    0.30
   9  -6   4   -0.18    0.20
   9  -6   4    0.16    0.24
   9  -6   4    0.03    0.19
   9  -6   4    0.07    0.16
   7   5  -4    4.72    0.51
   7   5  -4    5.65    0.58
   6   5  -4    0.47    0.21
   6   5  -4    0.55    0.24
   6   5  -4    0.27    0.20
   5   5  -4    1.06    0.26
   5   5  -4    0.80    0.22
   5   5  -4    0.90    0.24
   4   5  -4    0.51    0.19
   4   5  -4    0.15    0.17
   4   5  -4    0.54    0.19
   3   5  -4    0.58    0.19
   3   5  -4    0.48    0.17
   3   5  -4    0.33    0.18
  -3  -5   4    0.28    0.25
  -3  -5   4    0.23    0.15
   2   5  -4    6.78    0.44
   2   5  -4    7.98    0.47
  -2  -5   4    8.03    0.44
  -2  -5   4    6.28    0.32
  -2  -5   4    6.73    0.42
   1   5  -4   32.22    0.90
   1   5  -4   31.34    0.94
   1   5  -4   33.71    0.96
  -1  -5   4   32.49    0.92
  -1  -5   4   32.02    0.90
  -1  -5   4   31.79    0.75
   0   5  -4    4.60    0.35
   0   5  -4    4.30    0.34
   0   5  -4    5.03    0.34
   0  -5   4    4.99    0.35
   0  -5   4    5.50    0.36
   0  -5   4    4.32    0.33
   0  -5   4    4.85    0.27
  -1   5  -4   18.36    0.66
  -1   5  -4   17.99    0.61
  -1   5  -4   18.46    0.65
   1  -5   4   18.49    0.56
   1  -5   4   17.54    0.64
   1  -5   4   17.65    0.63
  -2   5  -4    1.27    0.21
  -2   5  -4    1.24    0.19
  -2   5  -4    1.39    0.23
   2  -5   4    1.48    0.23
   2  -5   4    0.89    0.19
   2  -5   4    1.61    0.23
   2  -5   4    1.30    0.20
  -3   5  -4   25.60    0.79
  -3   5  -4   24.50    0.75
  -3   5  -4   25.16    0.71
   3  -5   4   25.46    0.77
   3  -5   4   23.96    0.74
   3  -5   4   24.75    0.79
   3  -5   4   25.49    0.79
  -4   5  -4    9.50    0.44
   4  -5   4    9.94    0.48
   4  -5   4    9.18    0.48
   4  -5   4   10.61    0.52
   4  -5   4    9.21    0.50
  -5   5  -4    4.62    0.43
   5  -5   4    3.29    0.35
   5  -5   4    3.59    0.36
   5  -5   4    3.99    0.42
   5  -5   4    3.92    0.41
   6  -5   4    1.15    0.28
   6  -5   4    0.95    0.27
   6  -5   4    1.49    0.26
   6  -5   4    0.88    0.22
   7  -5   4    1.16    0.30
   7  -5   4    0.98    0.25
   7  -5   4    1.65    0.27
   7  -5   4    1.34    0.33
   8  -5   4    2.58    0.45
   8  -5   4    2.50    0.36
   8  -5   4    2.12    0.32
   8  -5   4    2.86    0.44
   9  -5   4    0.18    0.25
   9  -5   4    0.23    0.20
   9  -5   4    0.13    0.16
   8   4  -4    0.18    0.19
   8   4  -4    0.24    0.20
  -8  -4   4    0.34    0.29
   7   4  -4    1.75    0.30
   7   4  -4    2.03    0.34
  -7  -4   4    1.65    0.35
   6   4  -4    1.76    0.31
   6   4  -4    1.59    0.28
   6   4  -4    2.27    0.33
   5   4  -4    4.13    0.43
   5   4  -4    4.71    0.38
   5   4  -4    4.85    0.45
   4   4  -4    2.56    0.29
   4   4  -4    1.98    0.30
   4   4  -4    1.79    0.28
   3   4  -4    3.21    0.33
   3   4  -4    2.57    0.31
   3   4  -4    2.82    0.30
  -3  -4   4    3.19    0.30
  -3  -4   4    2.90    0.31
  -3  -4   4    2.85    0.21
   2   4  -4   64.25    1.34
   2   4  -4   65.05    1.42
   2   4  -4   63.04    1.39
  -2  -4   4   66.19    1.37
  -2  -4   4   63.38    1.14
  -2  -4   4   65.48    1.35
   1   4  -4   29.46    0.83
   1   4  -4   29.83    0.79
   1   4  -4   27.92    0.83
  -1  -4   4   29.30    0.64
  -1  -4   4   30.40    0.81
  -1  -4   4   30.44    0.82
   0   4  -4    0.02    0.08
   0   4  -4   -0.03    0.09
   0   4  -4    0.22    0.12
   0  -4   4    0.27    0.12
   0  -4   4    0.11    0.07
   0  -4   4    0.09    0.10
  -1   4  -4   27.28    0.77
  -1   4  -4   27.22    0.72
  -1   4  -4   26.52    0.74
   1  -4   4   26.38    0.75
   1  -4   4   26.38    0.64
   1  -4   4   26.53    0.74
   1  -4   4   27.37    0.76
  -2   4  -4    1.33    0.19
  -2   4  -4    1.48    0.22
  -2   4  -4    1.14    0.17
   2  -4   4    1.27    0.20
   2  -4   4    1.14    0.19
   2  -4   4    1.25    0.17
   2  -4   4    1.28    0.20
   2  -4   4    1.41    0.10
  -3   4  -4   11.39    0.49
  -3   4  -4   12.13    0.45
  -3   4  -4   11.61    0.44
   3  -4   4   11.97    0.49
   3  -4   4   11.88    0.49
   3  -4   4   12.35    0.51
   3  -4   4   11.72    0.51
  -4   4  -4   27.00    0.79
  -4   4  -4   28.30    0.71
  -4   4  -4   28.19    0.80
   4  -4   4   27.29    0.84
   4  -4   4   27.12    0.81
   4  -4   4   27.06    0.78
   4  -4   4   27.52    0.83
   5  -4   4   57.01    1.40
   5  -4   4   57.86    1.29
   5  -4   4   55.47    1.29
   5  -4   4   56.85    1.38
   6  -4   4   19.41    0.81
   6  -4   4   18.47    0.68
   6  -4   4   20.38    0.73
   6  -4   4   18.64    0.79
   7  -4   4   13.00    0.59
   7  -4   4   13.56    0.72
   7  -4   4   12.72    0.62
   7  -4   4   12.76    0.72
   8  -4   4   -0.16    0.14
   8  -4   4    0.21    0.15
   8  -4   4    0.01    0.19
   9  -4   4    4.20    0.48
   9  -4   4    4.30    0.57
   9  -4   4    5.22    0.48
   8   3  -4   17.88    0.77
   8   3  -4   17.74    0.74
  -8  -3   4   17.93    0.91
   7   3  -4    3.29    0.37
   7   3  -4    3.35    0.39
  -7  -3   4    3.33    0.45
   6   3  -4    5.31    0.40
   6   3  -4    5.53    0.42
   6   3  -4    4.81    0.39
  -6  -3   4    5.26    0.51
   5   3  -4   -0.10    0.11
   5   3  -4    0.25    0.14
   5   3  -4    0.08    0.13
  -5  -3   4   -0.03    0.14
   4   3  -4    0.06    0.12
   4   3  -4    0.14    0.11
   4   3  -4    0.34    0.15
  -4  -3   4    0.27    0.11
   3   3  -4    0.44    0.14
   3   3  -4    0.82    0.18
   3   3  -4    0.56    0.13
  -3  -3   4    0.82    0.13
  -3  -3   4    0.66    0.15
  -3  -3   4    0.49    0.12
   2   3  -4    1.50    0.18
   2   3  -4    1.81    0.22
   2   3  -4    1.55    0.22
  -2  -3   4    1.59    0.13
  -2  -3   4    1.35    0.19
  -2  -3   4    1.71    0.20
   1   3  -4   21.39    0.61
   1   3  -4   21.61    0.65
   1   3  -4   21.71    0.64
  -1  -3   4   22.10    0.61
  -1  -3   4   21.11    0.62
  -1  -3   4   20.98    0.44
   0   3  -4   17.35    0.53
   0   3  -4   17.19    0.55
   0   3  -4   16.70    0.54
   0  -3   4   17.43    0.54
   0  -3   4   16.90    0.40
  -1   3  -4   79.66    1.48
  -1   3  -4   81.80    1.45
  -1   3  -4   79.51    1.43
   1  -3   4   77.05    1.46
   1  -3   4   79.58    1.33
   1  -3   4   78.16    1.46
   1  -3   4   79.19    1.28
   1  -3   4   78.00    1.46
  -2   3  -4    0.45    0.13
  -2   3  -4    0.54    0.12
  -2   3  -4    0.30    0.10
   2  -3   4    0.40    0.12
   2  -3   4    0.59    0.14
   2  -3   4    0.27    0.10
   2  -3   4    0.51    0.13
   2  -3   4    0.54    0.08
  -3   3  -4    8.15    0.35
  -3   3  -4    9.62    0.42
  -3   3  -4    8.56    0.33
   3  -3   4    8.57    0.40
   3  -3   4    8.05    0.39
   3  -3   4    8.47    0.40
   3  -3   4    8.04    0.40
  -4   3  -4    2.51    0.28
  -4   3  -4    2.37    0.18
  -4   3  -4    2.40    0.23
   4  -3   4    1.67    0.23
   4  -3   4    2.31    0.27
   4  -3   4    2.15    0.27
   4  -3   4    2.56    0.28
   5  -3   4   -0.08    0.10
   5  -3   4    0.00    0.11
   5  -3   4   -0.06    0.10
   5  -3   4   -0.11    0.10
   6  -3   4    1.25    0.24
   6  -3   4    1.11    0.25
   6  -3   4    0.87    0.20
   7  -3   4    9.57    0.51
   7  -3   4    9.66    0.54
   7  -3   4    9.87    0.62
   8  -3   4   10.14    0.59
   8  -3   4   11.01    0.70
   8  -3   4   10.23    0.55
   9  -3   4    3.43    0.44
   9  -3   4    2.71    0.45
   9  -3   4    2.51    0.35
   9   2  -4    0.14    0.18
   9   2  -4   -0.07    0.24
  -9  -2   4   -0.41    0.16
   8   2  -4    1.20    0.34
   8   2  -4    2.09    0.28
   8   2  -4    1.70    0.28
  -8  -2   4    1.63    0.35
   7   2  -4   16.76    0.62
   7   2  -4   15.90    0.63
   7   2  -4   16.61    0.84
  -7  -2   4   18.46    0.82
   6   2  -4    0.19    0.15
   6   2  -4    0.10    0.12
   6   2  -4    0.06    0.12
   6   2  -4   -0.07    0.15
  -6  -2   4    0.32    0.18
   5   2  -4   33.81    1.05
   5   2  -4   32.12    0.83
   5   2  -4   31.38    0.90
  -5  -2   4   32.24    0.95
   4   2  -4   37.34    0.89
   4   2  -4   37.90    0.87
   4   2  -4   41.61    1.00
  -4  -2   4   37.70    0.98
   3   2  -4   27.47    0.68
   3   2  -4   28.77    0.77
   3   2  -4   27.83    0.71
  -3  -2   4   28.87    0.76
  -3  -2   4   27.03    0.61
  -3  -2   4   27.58    0.57
  -3  -2   4   27.74    0.69
   2   2  -4    0.71    0.12
   2   2  -4    0.79    0.15
   2   2  -4    0.74    0.15
  -2  -2   4    0.79    0.14
  -2  -2   4    0.72    0.07
  -2  -2   4    0.84    0.13
   1   2  -4    5.09    0.25
   1   2  -4    3.70    0.25
   1   2  -4    5.20    0.29
  -1  -2   4    5.13    0.26
   0   2  -4   22.10    0.59
   0   2  -4   22.42    0.59
   0   2  -4   22.21    0.56
   0  -2   4   21.58    0.58
   0  -2   4   22.02    0.58
   0  -2   4   21.44    0.42
   0  -2   4   21.72    0.57
  -1   2  -4   54.65    1.02
  -1   2  -4   51.92    1.02
  -1   2  -4   54.46    1.08
   1  -2   4   53.36    0.93
   1  -2   4   53.52    1.05
   1  -2   4   52.86    0.94
   1  -2   4   54.08    1.06
   1  -2   4   53.33    1.05
  -2   2  -4   18.59    0.47
  -2   2  -4   18.92    0.57
  -2   2  -4   18.78    0.53
   2  -2   4   19.07    0.53
   2  -2   4   18.41    0.56
   2  -2   4   18.22    0.55
   2  -2   4   18.45    0.55
  -3   2  -4   24.67    0.64
  -3   2  -4   24.44    0.69
  -3   2  -4   25.32    0.53
   3  -2   4   24.40    0.69
   3  -2   4   25.17    0.69
   3  -2   4   24.40    0.68
   3  -2   4   23.46    0.68
  -4   2  -4   17.62    0.52
  -4   2  -4   17.38    0.38
  -4   2  -4   16.95    0.57
   4  -2   4   17.15    0.59
   4  -2   4   18.15    0.63
   4  -2   4   16.57    0.58
   5  -2   4    4.38    0.35
   5  -2   4    4.03    0.32
   5  -2   4    4.43    0.33
   6  -2   4    1.27    0.25
   6  -2   4    0.64    0.18
   6  -2   4    1.03    0.22
   7  -2   4    0.62    0.20
   7  -2   4    0.76    0.21
   7  -2   4    1.39    0.30
   8  -2   4   -0.05    0.18
   8  -2   4   -0.02    0.14
   8  -2   4   -0.03    0.16
  -9   2  -4    3.32    0.49
   9  -2   4    3.15    0.51
   9  -2   4    2.72    0.38
   9  -2   4    2.82    0.40
   9   1  -4    2.36    0.46
   9   1  -4    2.18    0.31
  -9  -1   4    2.71    0.43
   8   1  -4    4.37    0.38
   8   1  -4    4.83    0.31
   8   1  -4    6.36    0.66
  -8  -1   4    4.96    0.53
   7   1  -4   34.91    0.89
   7   1  -4   33.81    1.19
   7   1  -4   36.09    0.85
  -7  -1   4   34.96    1.11
   6   1  -4    1.34    0.19
   6   1  -4    1.10    0.17
   6   1  -4    1.91    0.33
   6   1  -4    1.93    0.27
  -6  -1   4    1.66    0.28
   5   1  -4    4.00    0.25
   5   1  -4    3.92    0.31
   5   1  -4    3.87    0.25
   5   1  -4    4.71    0.44
  -5  -1   4    4.00    0.36
   4   1  -4    3.71    0.29
   4   1  -4    3.66    0.22
   4   1  -4    4.13    0.24
   4   1  -4    4.27    0.39
  -4  -1   4    3.62    0.28
   3   1  -4   18.25    0.57
   3   1  -4   17.91    0.49
   3   1  -4   18.89    0.47
  -3  -1   4   18.12    0.47
  -3  -1   4   17.62    0.54
   2   1  -4   46.41    0.89
   2   1  -4   46.60    0.86
   2   1  -4   46.77    0.98
  -2  -1   4   45.31    0.87
   1   1  -4   10.84    0.38
   1   1  -4   11.17    0.34
   1   1  -4   10.51    0.36
  -1  -1   4   10.54    0.33
  -1  -1   4   10.72    0.34
   0   1  -4  194.90    2.84
   0   1  -4  191.97    2.82
   0   1  -4  189.02    2.85
   0  -1   4  190.97    2.83
   0  -1   4  190.47    2.82
   0  -1   4  189.27    2.83
   0  -1   4  190.77    2.83
  -1   1  -4   74.19    1.30
  -1   1  -4   70.71    1.19
  -1   1  -4   71.05    1.24
   1  -1   4   70.41    1.27
   1  -1   4   71.50    1.27
   1  -1   4   69.95    1.20
   1  -1   4   67.82    1.23
  -2   1  -4    4.68    0.26
  -2   1  -4    5.49    0.29
  -2   1  -4    4.90    0.20
   2  -1   4    5.09    0.29
   2  -1   4    5.16    0.29
   2  -1   4    4.88    0.27
  -3   1  -4    7.41    0.36
  -3   1  -4    7.99    0.34
  -3   1  -4    7.76    0.22
   3  -1   4    8.40    0.38
   3  -1   4    7.98    0.38
   3  -1   4    7.70    0.37
  -4   1  -4    1.14    0.20
  -4   1  -4    0.71    0.14
   4  -1   4    1.18    0.20
   4  -1   4    0.90    0.18
   4  -1   4    0.83    0.18
   5  -1   4    0.22    0.13
   5  -1   4    0.16    0.13
   5  -1   4    0.28    0.16
   6  -1   4    1.24    0.27
   6  -1   4    1.04    0.22
   6  -1   4    1.27    0.24
  -7   1  -4    6.87    0.51
   7  -1   4    7.81    0.49
   7  -1   4    7.31    0.56
   7  -1   4    7.16    0.48
  -8   1  -4    2.02    0.39
   8  -1   4    2.05    0.35
   8  -1   4    2.43    0.35
   8  -1   4    1.67    0.37
  -9   1  -4    1.65    0.37
   9  -1   4    1.11    0.29
   9  -1   4    1.33    0.31
   9  -1   4    0.99    0.32
   9   0  -4    7.67    0.76
  -9   0   4    6.11    0.63
   8   0  -4    0.15    0.21
  -8   0   4    0.10    0.17
   7   0  -4    0.08    0.08
   7   0  -4    0.14    0.10
   7   0  -4    0.09    0.14
   7   0  -4    0.16    0.18
  -7   0   4    0.07    0.14
   6   0  -4   -0.15    0.11
   6   0  -4   -0.07    0.10
   6   0  -4    0.00    0.07
  -6   0   4   -0.14    0.10
   5   0  -4    1.55    0.22
   5   0  -4    1.62    0.15
   5   0  -4    1.68    0.15
   5   0  -4    1.80    0.27
  -5   0   4    1.64    0.24
   4   0  -4   22.66    0.48
   4   0  -4   22.67    0.50
   4   0  -4   21.90    0.70
   4   0  -4   21.99    0.65
   4   0  -4   24.17    0.50
   4   0  -4   23.90    0.58
  -4   0   4   22.45    0.65
   3   0  -4    8.31    0.25
   3   0  -4    8.22    0.27
   3   0  -4    8.01    0.37
   3   0  -4    8.90    0.38
   3   0  -4    8.32    0.27
  -3   0   4    8.38    0.33
   2   0  -4   96.47    1.42
   2   0  -4   95.83    1.66
   2   0  -4   97.37    1.52
   2   0  -4   98.54    1.49
  -2   0   4   98.02    1.56
  -2   0   4   97.60    1.52
   1   0  -4   59.34    0.90
   1   0  -4   58.48    1.09
   1   0  -4   59.18    1.01
   1   0  -4   58.76    1.03
  -1   0   4   58.06    0.98
  -1   0   4   58.77    1.13
  -1   0   4   59.37    1.02
   0   0  -4    0.06    0.07
   0   0  -4    0.24    0.09
   0   0  -4    0.15    0.07
   0   0  -4    0.23    0.08
   0   0   4    0.13    0.07
   0   0   4    0.01    0.08
   0   0   4    0.14    0.08
   0   0   4    0.09    0.08
  -1   0  -4   80.76    1.42
  -1   0  -4   83.12    1.31
  -1   0  -4   82.24    1.40
   1   0   4   79.82    1.40
   1   0   4   80.50    1.40
   1   0   4   82.76    1.34
   1   0   4   79.98    1.41
  -2   0  -4    4.39    0.27
  -2   0  -4    4.84    0.18
  -2   0  -4    4.69    0.26
   2   0   4    5.08    0.29
   2   0   4    4.65    0.28
   2   0   4    4.26    0.25
  -3   0  -4   30.40    0.75
  -3   0  -4   30.93    0.51
  -3   0  -4   30.74    0.80
   3   0   4   30.15    0.78
   3   0   4   30.46    0.77
   3   0   4   30.77    0.80
  -4   0  -4  121.08    2.05
  -4   0  -4  120.79    2.14
   4   0   4  119.38    2.14
   4   0   4  121.00    2.14
   4   0   4  120.85    2.14
  -5   0  -4    0.94    0.21
   5   0   4    0.84    0.19
   5   0   4    0.74    0.18
   5   0   4    0.60    0.18
  -6   0  -4  107.16    2.16
   6   0   4  109.62    2.21
   6   0   4  106.01    2.12
   6   0   4  108.02    2.11
  -7   0  -4    1.10    0.26
   7   0   4    0.80    0.23
   7   0   4    0.95    0.25
   7   0   4    1.25    0.30
  -8   0  -4    0.08    0.19
   8   0   4   -0.09    0.17
   8   0   4    0.10    0.22
   8   0   4    0.14    0.18
  -9   0  -4    0.69    0.28
   9   0   4    0.79    0.30
   9   0   4    0.47    0.25
   9   0   4    0.25    0.19
  10  -1  -4    0.14    0.25
 -10   1   4   -0.11    0.20
   9  -1  -4    6.42    0.69
  -9   1   4    7.07    0.66
   8  -1  -4   13.59    0.77
  -8   1   4   15.92    0.75
   7  -1  -4    8.89    0.58
   7  -1  -4    8.57    0.46
  -7   1   4    8.36    0.52
   6  -1  -4    0.03    0.06
   6  -1  -4   -0.06    0.10
   6  -1  -4   -0.08    0.12
   6  -1  -4   -0.09    0.12
  -6   1   4   -0.03    0.11
   5  -1  -4    2.86    0.32
   5  -1  -4    2.79    0.29
   5  -1  -4    2.54    0.12
   5  -1  -4    2.82    0.28
  -5   1   4    2.71    0.28
   4  -1  -4    8.33    0.20
   4  -1  -4    7.94    0.34
   4  -1  -4    8.01    0.39
   4  -1  -4    7.86    0.39
  -4   1   4    8.45    0.36
   3  -1  -4   19.27    0.37
   3  -1  -4   18.95    0.38
   3  -1  -4   18.18    0.54
   3  -1  -4   19.39    0.49
   3  -1  -4   19.64    0.58
   3  -1  -4   19.01    0.37
  -3   1   4   19.24    0.49
   2  -1  -4  164.43    2.35
   2  -1  -4  163.19    2.57
   2  -1  -4  167.13    2.41
   2  -1  -4  166.37    2.38
  -2   1   4  165.62    2.35
  -2   1   4  160.81    2.61
   1  -1  -4  183.73    2.66
   1  -1  -4  184.80    2.77
   1  -1  -4  186.49    2.69
   1  -1  -4  184.63    2.65
  -1   1   4  178.14    2.81
  -1   1   4  183.06    2.67
  -1   1   4  183.22    2.80
   0  -1  -4   46.64    0.87
   0  -1  -4   46.67    0.91
   0  -1  -4   46.12    0.89
   0  -1  -4   45.82    0.88
   0   1   4   45.65    0.89
   0   1   4   45.51    0.95
   0   1   4   47.27    0.88
   0   1   4   47.95    0.78
  -1  -1  -4   16.00    0.41
  -1  -1  -4   15.69    0.47
  -1  -1  -4   15.86    0.35
  -1  -1  -4   15.74    0.47
  -1  -1  -4   15.06    0.48
   1   1   4   15.66    0.48
   1   1   4   16.20    0.40
   1   1   4   15.51    0.47
  -2  -1  -4  110.01    1.86
  -2  -1  -4  109.30    1.73
  -2  -1  -4  108.49    1.66
  -2  -1  -4  110.54    1.90
   2   1   4  109.77    1.89
   2   1   4  110.90    1.77
   2   1   4  107.75    1.88
  -3  -1  -4   14.77    0.48
  -3  -1  -4   13.46    0.52
  -3  -1  -4   14.46    0.50
   3   1   4   14.42    0.49
   3   1   4   14.05    0.52
   3   1   4   12.94    0.52
  -4  -1  -4    2.27    0.26
  -4  -1  -4    2.70    0.29
  -4  -1  -4    2.87    0.27
   4   1   4    2.32    0.27
   4   1   4    2.40    0.27
   4   1   4    2.59    0.29
  -5  -1  -4   60.58    1.36
   5   1   4   56.44    1.35
   5   1   4   57.42    1.36
   5   1   4   56.08    1.35
  -6  -1  -4   15.27    0.69
   6   1   4   15.67    0.69
   6   1   4   16.39    0.72
   6   1   4   15.08    0.70
  -7  -1  -4    0.02    0.16
   7   1   4    0.07    0.19
   7   1   4    0.18    0.18
   7   1   4   -0.15    0.14
  -8  -1  -4    6.41    0.63
   8   1   4    5.74    0.56
   8   1   4    5.29    0.58
   8   1   4    5.36    0.54
  -9  -1  -4    1.29    0.35
   9   1   4    0.75    0.34
   9   1   4    0.93    0.30
   9   1   4    1.23    0.31
 -10   2   4    3.77    0.53
   9  -2  -4    4.04    0.54
  -9   2   4    4.46    0.53
   8  -2  -4    0.22    0.19
  -8   2   4    0.23    0.18
   7  -2  -4    1.06    0.24
   7  -2  -4    1.01    0.26
   7  -2  -4    0.82    0.20
  -7   2   4    0.91    0.23
   6  -2  -4   -0.08    0.09
   6  -2  -4   -0.04    0.12
   6  -2  -4   -0.02    0.10
  -6   2   4    0.07    0.11
   5  -2  -4    0.24    0.13
   5  -2  -4    0.19    0.11
   5  -2  -4    0.21    0.13
  -5   2   4    0.00    0.09
   4  -2  -4   11.98    0.46
   4  -2  -4   12.68    0.46
   4  -2  -4   12.74    0.50
  -4   2   4   12.50    0.51
  -4   2   4   13.09    0.44
   3  -2  -4   38.16    0.82
   3  -2  -4   36.52    0.78
   3  -2  -4   37.49    0.63
   3  -2  -4   36.36    0.62
   3  -2  -4   38.18    0.62
   3  -2  -4   37.64    0.89
  -3   2   4   37.33    0.75
  -3   2   4   37.47    0.91
   2  -2  -4   61.07    1.14
   2  -2  -4   63.85    1.04
   2  -2  -4   63.77    1.05
   2  -2  -4   60.92    1.22
  -2   2   4   64.22    1.26
   1  -2  -4   10.49    0.39
   1  -2  -4   10.36    0.35
   1  -2  -4   10.98    0.35
   1  -2  -4   10.56    0.37
  -1   2   4   10.77    0.32
  -1   2   4   11.28    0.35
  -1   2   4   10.97    0.43
   0  -2  -4    0.10    0.07
   0  -2  -4   -0.02    0.07
   0  -2  -4    0.12    0.08
   0  -2  -4    0.09    0.08
   0   2   4    0.06    0.04
   0   2   4    0.05    0.09
   0   2   4    0.09    0.08
  -1  -2  -4    3.56    0.26
  -1  -2  -4    3.34    0.24
  -1  -2  -4    3.65    0.17
  -1  -2  -4    3.72    0.21
  -1  -2  -4    3.61    0.26
   1   2   4    3.53    0.26
   1   2   4    3.58    0.26
   1   2   4    3.62    0.17
  -2  -2  -4    1.32    0.20
  -2  -2  -4    1.40    0.19
  -2  -2  -4    1.58    0.17
  -2  -2  -4    1.58    0.23
   2   2   4    1.12    0.15
   2   2   4    0.96    0.17
   2   2   4    1.26    0.19
  -3  -2  -4    0.14    0.10
  -3  -2  -4    0.37    0.11
  -3  -2  -4    0.61    0.15
   3   2   4    0.60    0.15
   3   2   4    0.65    0.14
   3   2   4    0.57    0.16
  -4  -2  -4   45.72    1.07
  -4  -2  -4   45.14    1.09
  -4  -2  -4   43.86    1.13
   4   2   4   45.81    1.09
   4   2   4   43.79    1.15
   4   2   4   44.27    1.13
  -5  -2  -4   15.86    0.64
   5   2   4   14.60    0.68
   5   2   4   16.35    0.67
   5   2   4   16.67    0.70
  -6  -2  -4   11.21    0.59
   6   2   4   10.27    0.60
   6   2   4   10.65    0.62
   6   2   4   11.97    0.63
  -7  -2  -4   11.39    0.67
   7   2   4   12.02    0.69
   7   2   4   12.51    0.71
   7   2   4   10.54    0.65
  -8  -2  -4   24.13    1.03
   8   2   4   23.97    1.07
   8   2   4   22.54    0.98
   8   2   4   24.93    1.03
  -9  -2  -4    1.70    0.41
  10  -3  -4   14.12    0.87
 -10   3   4   13.87    0.80
   9  -3  -4    4.34    0.53
   9  -3  -4    3.60    0.47
  -9   3   4    4.49    0.51
   8  -3  -4    2.24    0.37
   8  -3  -4    2.21    0.38
  -8   3   4    2.57    0.38
   7  -3  -4   18.27    0.77
   7  -3  -4   17.91    0.75
   7  -3  -4   18.63    0.70
  -7   3   4   19.30    0.72
  -7   3   4   17.13    0.71
  -7   3   4   19.09    0.77
   6  -3  -4    7.21    0.42
   6  -3  -4    6.51    0.42
   6  -3  -4    6.03    0.42
  -6   3   4    6.51    0.43
  -6   3   4    6.36    0.41
  -6   3   4    6.13    0.39
   5  -3  -4    0.84    0.19
   5  -3  -4    0.90    0.19
   5  -3  -4    0.79    0.18
  -5   3   4    0.98    0.20
   4  -3  -4    0.14    0.09
   4  -3  -4    0.13    0.12
   4  -3  -4    0.07    0.11
  -4   3   4   -0.02    0.09
   3  -3  -4    1.55    0.12
   3  -3  -4    1.71    0.13
   3  -3  -4    1.52    0.16
   3  -3  -4    1.50    0.20
   3  -3  -4    1.32    0.13
   3  -3  -4    1.37    0.20
  -3   3   4    1.34    0.20
   2  -3  -4   31.08    0.77
   2  -3  -4   31.91    0.68
   2  -3  -4   32.38    0.68
   2  -3  -4   31.90    0.81
  -2   3   4   31.15    0.82
  -2   3   4   33.19    0.68
   1  -3  -4    0.05    0.09
   1  -3  -4   -0.12    0.06
   1  -3  -4    0.09    0.08
   1  -3  -4    0.13    0.10
  -1   3   4    0.07    0.07
  -1   3   4    0.09    0.11
  -1   3   4    0.04    0.09
   0  -3  -4   12.91    0.47
   0  -3  -4   13.17    0.46
   0  -3  -4   12.65    0.46
   0  -3  -4   12.56    0.45
   0   3   4   13.28    0.48
   0   3   4   12.66    0.44
  -1  -3  -4    0.25    0.10
  -1  -3  -4    0.47    0.14
  -1  -3  -4    0.48    0.15
   1   3   4    0.47    0.13
   1   3   4    0.33    0.07
   1   3   4    0.38    0.14
  -2  -3  -4   16.27    0.62
  -2  -3  -4   16.40    0.60
  -2  -3  -4   16.30    0.48
   2   3   4   15.79    0.46
   2   3   4   17.31    0.63
   2   3   4   15.24    0.57
  -3  -3  -4    5.14    0.31
  -3  -3  -4    4.58    0.36
  -3  -3  -4    4.54    0.33
  -3  -3  -4    4.35    0.34
   3   3   4    4.25    0.40
   3   3   4    4.36    0.22
   3   3   4    4.25    0.34
   3   3   4    4.51    0.29
  -4  -3  -4    2.44    0.32
  -4  -3  -4    2.11    0.26
  -4  -3  -4    2.10    0.27
  -4  -3  -4    1.64    0.29
   4   3   4    2.11    0.27
   4   3   4    2.06    0.29
   4   3   4    2.95    0.36
  -5  -3  -4    0.93    0.22
  -5  -3  -4    0.71    0.25
   5   3   4    0.47    0.21
   5   3   4    0.30    0.18
   5   3   4    0.77    0.21
  -6  -3  -4    3.31    0.39
   6   3   4    3.22    0.42
   6   3   4    3.14    0.39
   6   3   4    2.94    0.39
  -7  -3  -4    1.29    0.32
   7   3   4    1.14    0.30
   7   3   4    1.55    0.33
   7   3   4    1.79    0.35
  -8  -3  -4    1.04    0.31
   8   3   4    0.92    0.29
   8   3   4    1.13    0.35
   8   3   4    0.59    0.28
  10  -4  -4    6.73    0.70
  10  -4  -4    5.05    0.66
 -10   4   4    6.70    0.67
   9  -4  -4    5.67    0.60
   9  -4  -4    5.13    0.57
  -9   4   4    6.43    0.52
   8  -4  -4    0.77    0.24
   8  -4  -4    0.59    0.24
  -8   4   4    0.91    0.25
   7  -4  -4   12.24    0.64
   7  -4  -4   10.16    0.57
   7  -4  -4   12.59    0.59
  -7   4   4   11.75    0.60
  -7   4   4   11.70    0.59
   6  -4  -4   12.25    0.59
   6  -4  -4   12.83    0.57
   6  -4  -4   12.16    0.58
  -6   4   4   12.30    0.58
  -6   4   4   12.35    0.59
   5  -4  -4   28.53    0.78
   5  -4  -4   26.32    0.52
   5  -4  -4   26.33    0.85
   5  -4  -4   27.96    0.86
  -5   4   4   27.46    0.86
  -5   4   4   27.04    0.83
   4  -4  -4   92.17    1.59
   4  -4  -4   92.29    1.47
   4  -4  -4   93.58    1.41
   4  -4  -4   94.37    1.80
   4  -4  -4   90.48    1.80
  -4   4   4   91.35    1.77
  -4   4   4   88.61    1.80
   3  -4  -4   -0.09    0.09
   3  -4  -4    0.05    0.07
   3  -4  -4    0.10    0.11
   3  -4  -4    0.07    0.06
   3  -4  -4    0.08    0.07
  -3   4   4   -0.10    0.10
  -3   4   4   -0.02    0.10
   2  -4  -4    0.62    0.13
   2  -4  -4    0.71    0.13
   2  -4  -4    0.88    0.17
   2  -4  -4    0.55    0.16
  -2   4   4    0.39    0.11
  -2   4   4    0.84    0.19
   1  -4  -4   17.98    0.57
   1  -4  -4   18.60    0.62
   1  -4  -4   18.72    0.58
   1  -4  -4   18.12    0.62
  -1   4   4   18.21    0.52
  -1   4   4   17.96    0.57
   0  -4  -4    1.48    0.20
   0  -4  -4    1.96    0.24
   0  -4  -4    1.46    0.21
   0   4   4    1.47    0.20
   0   4   4    2.04    0.24
  -1  -4  -4   15.28    0.58
  -1  -4  -4   14.61    0.58
  -1  -4  -4   14.07    0.58
   1   4   4   15.16    0.59
   1   4   4   15.41    0.38
   1   4   4   15.31    0.50
   1   4   4   15.74    0.57
  -2  -4  -4    8.26    0.46
  -2  -4  -4   10.13    0.51
  -2  -4  -4    9.46    0.48
   2   4   4    9.85    0.38
   2   4   4    9.05    0.47
   2   4   4    9.44    0.50
   2   4   4    9.39    0.36
  -3  -4  -4   16.04    0.70
  -3  -4  -4   16.69    0.68
  -3  -4  -4   16.98    0.59
  -3  -4  -4   17.35    0.67
   3   4   4   16.51    0.56
   3   4   4   17.04    0.71
   3   4   4   16.48    0.68
  -4  -4  -4   34.21    1.02
  -4  -4  -4   33.82    0.96
  -4  -4  -4   32.80    1.09
  -4  -4  -4   32.72    1.05
   4   4   4   36.78    1.11
   4   4   4   33.85    1.06
   4   4   4   33.56    0.94
  -5  -4  -4    1.09    0.24
  -5  -4  -4    1.20    0.30
   5   4   4    0.76    0.24
   5   4   4    0.82    0.26
   5   4   4    0.66    0.20
  -6  -4  -4    6.46    0.57
  -6  -4  -4    5.94    0.63
   6   4   4    6.34    0.56
   6   4   4    6.10    0.61
   6   4   4    5.95    0.57
  -7  -4  -4    1.28    0.33
  -7  -4  -4    0.93    0.33
   7   4   4    0.67    0.28
   7   4   4    0.63    0.26
   7   4   4    1.00    0.32
  -8  -4  -4    6.13    0.65
   8   4   4    4.60    0.58
   9  -5  -4    0.72    0.28
  -9   5   4    0.78    0.27
   8  -5  -4    6.58    0.54
   8  -5  -4    6.60    0.79
  -8   5   4    7.43    0.53
   7  -5  -4    8.26    0.59
   7  -5  -4    7.51    0.51
   7  -5  -4    8.72    0.56
  -7   5   4    8.93    0.56
   6  -5  -4    0.02    0.16
   6  -5  -4    0.31    0.18
   6  -5  -4    0.04    0.16
  -6   5   4    0.17    0.18
  -6   5   4    0.07    0.13
   5  -5  -4   35.88    0.76
   5  -5  -4   36.65    1.08
   5  -5  -4   35.61    1.04
  -5   5   4   36.91    1.00
  -5   5   4   36.44    1.08
   4  -5  -4   65.00    1.21
   4  -5  -4   65.18    1.47
   4  -5  -4   62.71    1.15
   4  -5  -4   64.01    1.47
  -4   5   4   63.86    1.48
  -4   5   4   66.48    1.42
   3  -5  -4   36.55    1.01
   3  -5  -4   36.35    0.83
   3  -5  -4   37.10    1.02
   3  -5  -4   37.38    0.86
  -3   5   4   36.05    1.01
  -3   5   4   37.50    0.99
   2  -5  -4   11.68    0.46
   2  -5  -4   10.90    0.44
   2  -5  -4    9.99    0.49
  -2   5   4   11.49    0.52
   1  -5  -4    0.51    0.15
   1  -5  -4    0.49    0.16
   1  -5  -4    0.68    0.16
  -1   5   4    0.44    0.15
  -1   5   4    0.32    0.14
  -1   5   4    0.40    0.12
   0  -5  -4    0.36    0.14
   0  -5  -4    0.39    0.15
   0  -5  -4    0.24    0.12
   0   5   4    0.43    0.15
   0   5   4    0.70    0.16
   0   5   4    0.44    0.16
  -1  -5  -4   24.60    0.80
  -1  -5  -4   23.37    0.80
  -1  -5  -4   24.47    0.83
   1   5   4   25.21    0.84
   1   5   4   24.56    0.78
   1   5   4   25.83    0.73
  -2  -5  -4   22.75    0.83
  -2  -5  -4   22.02    0.81
  -2  -5  -4   23.30    0.81
   2   5   4   23.59    0.81
   2   5   4   22.83    0.84
   2   5   4   20.96    0.64
  -3  -5  -4    0.30    0.19
  -3  -5  -4    0.11    0.14
  -3  -5  -4    0.03    0.13
   3   5   4    0.12    0.16
   3   5   4    0.00    0.17
  -4  -5  -4    3.52    0.42
  -4  -5  -4    3.85    0.43
  -4  -5  -4    4.03    0.49
   4   5   4    3.11    0.41
   4   5   4    3.80    0.44
  -5  -5  -4    0.22    0.20
  -5  -5  -4    0.62    0.27
   5   5   4    0.03    0.18
   5   5   4    0.43    0.25
  -6  -5  -4    0.45    0.26
  -6  -5  -4    0.34    0.26
   6   5   4    0.64    0.27
   6   5   4    0.54    0.26
  -7  -5  -4    0.24    0.24
  -7  -5  -4    0.07    0.22
   7   5   4    0.05    0.24
   7   5   4    0.00    0.21
   9  -6  -4    0.26    0.23
   8  -6  -4    1.84    0.39
  -8   6   4    1.17    0.32
   7  -6  -4    0.58    0.24
  -7   6   4    0.33    0.23
   6  -6  -4    0.19    0.18
  -6   6   4    0.08    0.18
   5  -6  -4    0.79    0.22
   5  -6  -4    1.00    0.15
   5  -6  -4    1.08    0.17
  -5   6   4    0.67    0.21
  -5   6   4    0.84    0.24
   4  -6  -4    0.98    0.25
   4  -6  -4    1.13    0.18
   4  -6  -4    0.96    0.18
  -4   6   4    0.89    0.24
   3  -6  -4    0.00    0.09
   3  -6  -4    0.00    0.12
   3  -6  -4    0.10    0.10
  -3   6   4    0.21    0.17
   2  -6  -4    1.85    0.26
   2  -6  -4    1.25    0.25
   2  -6  -4    1.27    0.23
  -2   6   4    1.86    0.28
   1  -6  -4    6.15    0.39
   1  -6  -4    5.96    0.40
   1  -6  -4    6.46    0.45
  -1   6   4    5.77    0.41
   0  -6  -4   16.14    0.70
   0  -6  -4   14.46    0.64
   0  -6  -4   15.27    0.64
   0   6   4   16.32    0.62
   0   6   4   14.91    0.61
   0   6   4   14.86    0.67
  -1  -6  -4    6.59    0.48
  -1  -6  -4    7.30    0.47
  -1  -6  -4    6.80    0.46
   1   6   4    6.94    0.41
   1   6   4    6.58    0.44
   1   6   4    5.97    0.47
  -2  -6  -4   21.63    0.85
  -2  -6  -4   21.73    0.86
  -2  -6  -4   20.94    0.83
   2   6   4   21.20    0.88
   2   6   4   21.66    0.82
  -3  -6  -4    4.26    0.45
  -3  -6  -4    3.69    0.43
  -3  -6  -4    4.83    0.50
   3   6   4    4.15    0.43
   3   6   4    4.44    0.50
  -4  -6  -4    4.25    0.52
  -4  -6  -4    4.45    0.50
  -4  -6  -4    3.47    0.45
   4   6   4    3.47    0.46
   4   6   4    4.44    0.51
  -5  -6  -4   -0.38    0.17
   5   6   4   -0.10    0.19
   5   6   4   -0.17    0.22
  -6  -6  -4   -0.40    0.17
   6   6   4   -0.16    0.21
   6   6   4   -0.08    0.20
   9  -7  -4    2.27    0.45
  -9   7   4    2.44    0.43
   8  -7  -4    2.25    0.42
  -8   7   4    2.36    0.41
   7  -7  -4    1.29    0.33
  -7   7   4    1.21    0.33
   6  -7  -4    8.74    0.43
   6  -7  -4    8.46    0.60
  -6   7   4    9.94    0.64
   5  -7  -4   10.39    0.43
   5  -7  -4   10.56    0.48
   5  -7  -4   10.53    0.64
  -5   7   4   10.83    0.65
   4  -7  -4   11.12    0.52
   4  -7  -4   11.72    0.49
   4  -7  -4   11.63    0.65
  -4   7   4   11.01    0.63
   3  -7  -4   -0.02    0.14
   3  -7  -4    0.05    0.13
   3  -7  -4    0.01    0.11
  -3   7   4   -0.05    0.14
   2  -7  -4    0.05    0.12
   2  -7  -4   -0.07    0.11
   2  -7  -4    0.04    0.15
  -2   7   4    0.06    0.16
   1  -7  -4    0.73    0.20
   1  -7  -4    0.47    0.18
   1  -7  -4    0.62    0.22
  -1   7   4    0.50    0.21
   0  -7  -4    6.86    0.49
   0  -7  -4    6.00    0.46
   0  -7  -4    6.63    0.50
   0   7   4    6.93    0.47
  -1  -7  -4    9.70    0.58
  -1  -7  -4   10.35    0.60
  -1  -7  -4    8.63    0.58
   1   7   4    8.87    0.50
   1   7   4    9.29    0.60
   1   7   4    7.91    0.52
  -2  -7  -4    8.31    0.57
  -2  -7  -4    8.68    0.58
  -2  -7  -4    7.31    0.56
   2   7   4    7.68    0.53
   2   7   4    8.19    0.60
  -3  -7  -4    2.84    0.42
  -3  -7  -4    2.07    0.39
  -3  -7  -4    2.00    0.36
   3   7   4    1.86    0.32
   3   7   4    2.52    0.43
  -4  -7  -4    0.70    0.28
  -4  -7  -4    0.46    0.24
  -4  -7  -4    0.70    0.26
   4   7   4    0.94    0.30
   4   7   4    0.69    0.28
  -5  -7  -4    0.32    0.26
   5   7   4    0.06    0.22
   5   7   4    0.04    0.23
   8  -8  -4    0.83    0.32
  -8   8   4    1.31    0.37
   7  -8  -4    0.01    0.21
  -7   8   4    0.25    0.23
   6  -8  -4    0.59    0.19
   6  -8  -4    0.35    0.23
  -6   8   4    0.28    0.24
   5  -8  -4    3.06    0.31
   5  -8  -4    3.54    0.38
   5  -8  -4    1.94    0.37
  -5   8   4    3.14    0.46
   4  -8  -4    6.72    0.54
   4  -8  -4    5.68    0.40
   4  -8  -4    6.58    0.45
  -4   8   4    6.10    0.59
   3  -8  -4    6.78    0.55
   3  -8  -4    7.17    0.46
   3  -8  -4    6.64    0.48
  -3   8   4    7.10    0.55
   2  -8  -4    0.29    0.17
   2  -8  -4    0.09    0.15
   2  -8  -4    0.43    0.21
  -2   8   4    0.35    0.22
   1  -8  -4    5.80    0.47
   1  -8  -4    7.10    0.56
   1  -8  -4    6.53    0.50
  -1   8   4    6.55    0.52
   0  -8  -4   22.03    0.90
   0  -8  -4   21.69    0.92
   0  -8  -4   21.58    0.94
   0   8   4   21.26    0.84
  -1  -8  -4    3.75    0.49
  -1  -8  -4    2.35    0.39
  -1  -8  -4    3.28    0.46
  -2  -8  -4    1.25    0.33
  -2  -8  -4    0.51    0.25
  -2  -8  -4    0.77    0.26
   2   8   4    1.16    0.32
  -3  -8  -4    0.82    0.30
  -3  -8  -4    0.75    0.25
  -3  -8  -4    0.72    0.27
   3   8   4    0.24    0.24
   3   8   4    1.15    0.35
  -4  -8  -4    6.84    0.70
  -4  -8  -4    7.97    0.75
   4   8   4    7.32    0.68
   4   8   4    7.59    0.76
   7  -9  -4   -0.32    0.20
  -7   9   4    0.01    0.23
   6  -9  -4   10.09    0.75
   6  -9  -4   10.32    0.58
   6  -9  -4   10.24    0.49
  -6   9   4    9.74    0.71
   5  -9  -4    0.21    0.17
   5  -9  -4    0.11    0.14
   5  -9  -4   -0.03    0.19
  -5   9   4    0.07    0.22
   4  -9  -4    1.91    0.40
   4  -9  -4    1.76    0.33
   4  -9  -4    1.23    0.25
  -4   9   4    1.31    0.35
   3  -9  -4    2.95    0.48
   3  -9  -4    3.23    0.40
   3  -9  -4    3.27    0.43
  -3   9   4    2.74    0.44
   2  -9  -4    2.16    0.40
   2  -9  -4    1.71    0.34
   2  -9  -4    1.72    0.32
  -2   9   4    2.24    0.41
   1  -9  -4    3.80    0.49
   1  -9  -4    3.54    0.47
   1  -9  -4    3.78    0.48
  -1   9   4    4.05    0.50
   0  -9  -4    0.00    0.19
   0  -9  -4    0.55    0.26
   0  -9  -4    0.36    0.20
   0   9   4    0.32    0.24
  -1  -9  -4   10.98    0.72
  -1  -9  -4   10.39    0.71
  -1  -9  -4   10.69    0.73
  -2  -9  -4    8.21    0.66
  -2  -9  -4    8.33    0.66
  -2  -9  -4    8.26    0.67
  -3  -9  -4    8.84    0.70
  -3  -9  -4    8.82    0.71
   3   9   4    7.47    1.23
   6 -10  -4    2.65    0.33
   6 -10  -4    1.36    0.41
  -6  10   4    1.64    0.41
   5 -10  -4    1.43    0.29
   5 -10  -4    1.61    0.40
   5 -10  -4    1.65    0.33
  -5  10   4    1.33    0.38
   4 -10  -4    1.28    0.37
   4 -10  -4    1.50    0.32
   4 -10  -4    1.26    0.29
  -4  10   4    1.09    0.32
   3 -10  -4    0.73    0.24
   3 -10  -4    0.98    0.32
   3 -10  -4    0.90    0.29
  -3  10   4    0.81    0.32
   2 -10  -4    2.01    0.40
   2 -10  -4    2.21    0.42
   2 -10  -4    1.60    0.34
  -2  10   4    2.09    0.43
   1 -10  -4   -0.10    0.14
   1 -10  -4    0.02    0.18
   1 -10  -4   -0.01    0.19
  -1  10   4    0.10    0.24
   0 -10  -4    3.62    0.54
   0 -10  -4    3.38    0.51
   0 -10  -4    4.07    0.53
  -1 -10  -4    1.35    0.38
  -1 -10  -4    2.30    0.43
  -1 -10  -4    1.65    0.36
   1 -11   5    0.18    0.24
   2  10  -5   -0.04    0.22
   2  10  -5   -0.21    0.21
   2  10  -5   -0.24    0.20
  -2 -10   5   -0.14    0.22
   1  10  -5    6.86    0.75
   1  10  -5    6.66    0.67
   1  10  -5    7.09    0.74
  -1 -10   5    6.41    0.66
  -1 -10   5    6.99    0.69
  -1 -10   5    6.87    0.65
   0  10  -5    5.69    0.65
   0  10  -5    7.02    0.74
   0 -10   5    8.30    0.78
   0 -10   5    5.10    0.57
   0 -10   5    6.52    0.61
  -1  10  -5    0.36    0.25
   1 -10   5    0.58    0.27
   1 -10   5    0.29    0.25
   1 -10   5    0.82    0.28
  -2  10  -5    1.65    0.39
   2 -10   5    2.43    0.44
   2 -10   5    2.38    0.40
  -3  10  -5    1.43    0.36
   3 -10   5    1.70    0.39
   3 -10   5    2.56    0.42
   3 -10   5    1.92    0.41
   3 -10   5    2.85    0.48
  -4  10  -5    0.06    0.21
   4 -10   5    0.06    0.21
   4 -10   5   -0.05    0.21
   4 -10   5    0.26    0.25
   4 -10   5    0.04    0.19
  -5  10  -5    0.27    0.26
   5 -10   5   -0.10    0.20
   5 -10   5    0.20    0.22
   5 -10   5    0.07    0.20
   5 -10   5    0.36    0.26
   6 -10   5    6.12    0.66
   6 -10   5    5.84    0.63
   3   9  -5    0.04    0.25
   3   9  -5    0.05    0.25
   3   9  -5   -0.03    0.22
   2   9  -5    0.41    0.23
   2   9  -5    0.09    0.21
   2   9  -5    0.38    0.26
   1   9  -5    4.85    0.59
   1   9  -5    6.18    0.60
   1   9  -5    5.10    0.60
  -1  -9   5    6.36    0.60
  -1  -9   5    5.53    0.59
  -1  -9   5    6.73    0.64
   0   9  -5   13.01    0.79
   0   9  -5   13.42    0.74
   0   9  -5   11.60    0.75
   0  -9   5   13.38    0.76
   0  -9   5   11.19    0.68
   0  -9   5   13.52    0.78
  -1   9  -5    0.78    0.28
  -1   9  -5    0.85    0.28
   1  -9   5    1.26    0.32
   1  -9   5    1.27    0.32
   1  -9   5    0.33    0.20
  -2   9  -5    0.00    0.18
   2  -9   5   -0.07    0.17
   2  -9   5   -0.07    0.19
   2  -9   5   -0.21    0.12
  -3   9  -5    7.62    0.69
   3  -9   5    6.20    0.58
   3  -9   5    7.15    0.52
   3  -9   5    8.03    0.60
   3  -9   5    7.87    0.63
  -4   9  -5    8.46    0.61
   4  -9   5    7.70    0.58
   4  -9   5    7.39    0.60
   4  -9   5    7.92    0.59
   4  -9   5    8.93    0.60
  -5   9  -5    4.18    0.50
   5  -9   5    4.47    0.54
   5  -9   5    5.07    0.55
   5  -9   5    4.33    0.53
   5  -9   5    4.43    0.53
   6  -9   5    0.35    0.25
   6  -9   5    0.20    0.21
   6  -9   5    0.48    0.25
   6  -9   5   -0.06    0.20
   7  -9   5    1.93    0.36
   7  -9   5    1.69    0.37
   7  -9   5    1.81    0.38
   7  -9   5    1.94    0.42
   5   8  -5    1.12    0.35
   5   8  -5    1.10    0.36
   5   8  -5    1.29    0.35
   4   8  -5    4.80    0.55
   4   8  -5    4.48    0.55
   4   8  -5    3.42    0.53
   3   8  -5    5.84    0.63
   3   8  -5    3.99    0.53
   3   8  -5    4.47    0.51
   2   8  -5    1.52    0.33
   2   8  -5    1.13    0.32
   2   8  -5    1.54    0.36
  -2  -8   5    1.28    0.34
   1   8  -5   27.42    1.02
   1   8  -5   27.92    1.09
   1   8  -5   28.77    1.11
  -1  -8   5   28.11    1.03
  -1  -8   5   29.19    1.08
  -1  -8   5   28.65    1.07
   0   8  -5    1.99    0.33
   0   8  -5    1.48    0.32
   0   8  -5    1.45    0.31
   0  -8   5    1.36    0.31
   0  -8   5    2.18    0.38
   0  -8   5    1.22    0.29
  -1   8  -5    2.94    0.44
  -1   8  -5    3.01    0.41
  -1   8  -5    2.89    0.38
   1  -8   5    2.58    0.38
   1  -8   5    3.46    0.42
   1  -8   5    3.57    0.44
   1  -8   5    2.78    0.37
  -2   8  -5    1.23    0.28
   2  -8   5    0.98    0.27
   2  -8   5    1.28    0.26
   2  -8   5    1.06    0.28
  -3   8  -5    0.34    0.19
   3  -8   5    0.38    0.19
   3  -8   5    0.29    0.20
   3  -8   5    0.46    0.22
   3  -8   5    0.30    0.19
  -4   8  -5    1.38    0.31
   4  -8   5    1.42    0.29
   4  -8   5    0.98    0.26
   4  -8   5    1.09    0.28
   4  -8   5    1.70    0.33
  -5   8  -5    2.25    0.36
   5  -8   5    2.46    0.38
   5  -8   5    2.35    0.38
   5  -8   5    1.73    0.34
   5  -8   5    2.83    0.40
   6  -8   5   11.51    0.73
   6  -8   5   12.29    0.73
   6  -8   5   11.98    0.72
   6  -8   5   12.04    0.68
   7  -8   5    0.56    0.23
   7  -8   5    0.51    0.25
   7  -8   5    0.42    0.25
   7  -8   5    0.44    0.24
   8  -8   5   -0.21    0.18
   8  -8   5    0.11    0.20
   8  -8   5    0.14    0.23
   8  -8   5   -0.18    0.19
   6   7  -5    1.61    0.39
   6   7  -5    2.05    0.41
   5   7  -5    0.76    0.29
   5   7  -5    1.13    0.29
   5   7  -5    1.28    0.35
   4   7  -5    1.40    0.33
   4   7  -5    1.73    0.35
   4   7  -5    1.20    0.30
   3   7  -5    0.31    0.22
   3   7  -5    0.22    0.20
   3   7  -5    0.51    0.23
   2   7  -5   -0.06    0.15
   2   7  -5   -0.03    0.17
   2   7  -5    0.16    0.18
  -2  -7   5   -0.06    0.14
  -2  -7   5    0.06    0.15
   1   7  -5   15.21    0.75
   1   7  -5   13.75    0.72
   1   7  -5   14.54    0.69
  -1  -7   5   14.91    0.71
  -1  -7   5   15.40    0.73
   0   7  -5    4.03    0.45
   0   7  -5    4.82    0.51
   0  -7   5    4.33    0.45
   0  -7   5    3.61    0.41
   0  -7   5    4.26    0.44
  -1   7  -5    5.05    0.51
  -1   7  -5    5.82    0.47
   1  -7   5    5.16    0.36
   1  -7   5    4.49    0.46
   1  -7   5    4.63    0.45
  -2   7  -5   31.74    0.98
  -2   7  -5   32.70    1.06
  -2   7  -5   34.56    1.10
   2  -7   5   35.59    1.09
   2  -7   5   31.57    1.05
   2  -7   5   32.35    1.03
   2  -7   5   33.55    0.96
  -3   7  -5   56.08    1.43
   3  -7   5   56.90    1.38
   3  -7   5   54.61    1.45
   3  -7   5   55.81    1.42
   3  -7   5   56.88    1.45
  -4   7  -5    0.12    0.16
   4  -7   5    0.05    0.16
   4  -7   5    0.22    0.18
   4  -7   5    0.13    0.16
   4  -7   5    0.43    0.20
  -5   7  -5    2.46    0.35
   5  -7   5    3.02    0.41
   5  -7   5    2.41    0.35
   5  -7   5    2.11    0.34
   5  -7   5    2.53    0.37
   6  -7   5    9.69    0.63
   6  -7   5    8.32    0.55
   6  -7   5   10.56    0.63
   6  -7   5   10.14    0.65
   7  -7   5    9.01    0.66
   7  -7   5    9.96    0.69
   7  -7   5    9.84    0.64
   7  -7   5    9.98    0.59
   8  -7   5   -0.25    0.20
   8  -7   5    0.15    0.18
   8  -7   5    0.15    0.23
   8  -7   5   -0.24    0.17
   6   6  -5    0.21    0.21
   6   6  -5    0.02    0.19
   6   6  -5    0.43    0.24
   5   6  -5    2.45    0.40
   5   6  -5    4.11    0.48
   5   6  -5    2.57    0.40
   4   6  -5    2.63    0.39
   4   6  -5    2.75    0.37
   4   6  -5    2.11    0.36
   3   6  -5    0.10    0.14
   3   6  -5    0.61    0.22
   3   6  -5    0.30    0.18
   2   6  -5    5.41    0.51
   2   6  -5    6.04    0.47
  -2  -6   5    5.90    0.44
  -2  -6   5    5.96    0.45
   1   6  -5    0.31    0.17
   1   6  -5    0.43    0.19
   1   6  -5    0.36    0.16
  -1  -6   5    0.47    0.18
  -1  -6   5    0.26    0.17
   0   6  -5    0.84    0.22
   0   6  -5    0.37    0.16
   0   6  -5    0.92    0.24
   0  -6   5    0.84    0.23
   0  -6   5    0.95    0.23
   0  -6   5    0.91    0.17
   0  -6   5    0.87    0.21
  -1   6  -5   -0.10    0.10
  -1   6  -5   -0.03    0.13
  -1   6  -5    0.05    0.13
   1  -6   5   -0.01    0.15
   1  -6   5    0.21    0.15
   1  -6   5    0.23    0.13
  -2   6  -5    1.63    0.27
  -2   6  -5    1.16    0.22
  -2   6  -5    1.64    0.27
   2  -6   5    1.62    0.24
   2  -6   5    1.78    0.28
   2  -6   5    1.36    0.25
   2  -6   5    1.16    0.23
  -3   6  -5    0.21    0.17
  -3   6  -5    0.20    0.14
  -3   6  -5    0.14    0.12
   3  -6   5   -0.10    0.10
   3  -6   5    0.02    0.14
   3  -6   5    0.30    0.16
   3  -6   5    0.09    0.13
  -4   6  -5   33.07    0.96
   4  -6   5   31.04    0.99
   4  -6   5   33.83    1.01
   4  -6   5   32.75    1.03
   4  -6   5   34.75    1.06
   5  -6   5   36.48    1.14
   5  -6   5   36.52    1.13
   5  -6   5   35.92    1.11
   5  -6   5   35.39    1.06
   6  -6   5    1.04    0.27
   6  -6   5    1.22    0.26
   6  -6   5    0.92    0.25
   6  -6   5    0.79    0.25
   7  -6   5    0.29    0.25
   7  -6   5    0.99    0.23
   7  -6   5    0.25    0.23
   7  -6   5    0.39    0.22
   8  -6   5    1.69    0.38
   8  -6   5    2.42    0.43
   8  -6   5    2.27    0.38
   8  -6   5    2.53    0.37
   9  -6   5    3.29    0.42
   9  -6   5    3.63    0.49
   9  -6   5    2.64    0.47
   7   5  -5    1.94    0.36
   7   5  -5    1.02    0.30
   6   5  -5    0.20    0.19
   6   5  -5    0.11    0.18
   6   5  -5   -0.05    0.17
   5   5  -5   -0.13    0.14
   5   5  -5    0.15    0.18
   5   5  -5   -0.09    0.13
   4   5  -5    5.32    0.51
   4   5  -5    3.90    0.43
   4   5  -5    4.89    0.45
   3   5  -5    8.50    0.52
   3   5  -5    7.44    0.49
   2   5  -5   11.51    0.54
   2   5  -5   11.06    0.57
   2   5  -5   11.48    0.58
  -2  -5   5   10.65    0.52
  -2  -5   5   10.80    0.54
   1   5  -5    1.31    0.25
   1   5  -5    1.22    0.22
   1   5  -5    1.43    0.26
  -1  -5   5    1.54    0.18
  -1  -5   5    1.06    0.21
  -1  -5   5    1.58    0.25
   0   5  -5    0.07    0.13
   0   5  -5    0.11    0.12
   0   5  -5    0.37    0.16
   0  -5   5    0.14    0.13
   0  -5   5    0.05    0.12
   0  -5   5    0.01    0.11
   0  -5   5    0.11    0.09
  -1   5  -5    1.29    0.24
  -1   5  -5    1.30    0.24
  -1   5  -5    1.13    0.20
   1  -5   5    1.61    0.20
   1  -5   5    1.26    0.23
   1  -5   5    1.49    0.24
   1  -5   5    1.11    0.22
  -2   5  -5    7.19    0.42
  -2   5  -5    6.37    0.41
  -2   5  -5    6.72    0.38
   2  -5   5    6.50    0.41
   2  -5   5    6.85    0.42
   2  -5   5    6.54    0.35
   2  -5   5    7.23    0.43
  -3   5  -5    0.11    0.11
  -3   5  -5    0.16    0.12
  -3   5  -5    0.13    0.14
   3  -5   5    0.15    0.14
   3  -5   5    0.16    0.14
   3  -5   5    0.38    0.16
   3  -5   5    0.30    0.14
  -4   5  -5    9.81    0.46
   4  -5   5   10.46    0.54
   4  -5   5    9.80    0.52
   4  -5   5   11.06    0.56
   4  -5   5   10.78    0.53
   5  -5   5    8.03    0.50
   5  -5   5    7.87    0.52
   5  -5   5    8.70    0.50
   5  -5   5    8.07    0.52
   6  -5   5    4.41    0.43
   6  -5   5    5.20    0.51
   6  -5   5    5.76    0.55
   6  -5   5    5.34    0.49
   7  -5   5    4.69    0.53
   7  -5   5    4.13    0.43
   7  -5   5    4.25    0.46
   7  -5   5    3.61    0.47
   8  -5   5    3.34    0.43
   8  -5   5    3.54    0.41
   8  -5   5    3.45    0.49
   9  -5   5    2.89    0.42
   9  -5   5    3.45    0.42
   9  -5   5    2.89    0.48
   8   4  -5    5.59    0.56
   8   4  -5    4.52    0.48
   7   4  -5    1.87    0.32
   7   4  -5    1.73    0.30
   6   4  -5    1.75    0.31
   6   4  -5    2.52    0.34
   6   4  -5    2.76    0.37
   5   4  -5    3.90    0.42
   5   4  -5    4.11    0.43
   5   4  -5    3.92    0.38
   4   4  -5    1.05    0.23
   4   4  -5    0.81    0.22
   4   4  -5    0.91    0.20
   3   4  -5    0.04    0.11
   3   4  -5    0.26    0.15
   3   4  -5    0.03    0.12
   2   4  -5   66.35    1.41
   2   4  -5   68.44    1.48
   2   4  -5   68.15    1.51
  -2  -4   5   69.50    1.44
  -2  -4   5   66.69    1.41
   1   4  -5    0.66    0.16
   1   4  -5    0.62    0.16
   1   4  -5    0.43    0.16
  -1  -4   5    0.78    0.17
  -1  -4   5    0.60    0.10
  -1  -4   5    0.53    0.15
   0   4  -5    0.14    0.11
   0   4  -5   -0.01    0.10
   0   4  -5   -0.03    0.08
   0  -4   5    0.09    0.12
   0  -4   5    0.13    0.11
   0  -4   5    0.13    0.08
   0  -4   5    0.22    0.12
  -1   4  -5    0.32    0.14
  -1   4  -5    0.42    0.14
  -1   4  -5    0.44    0.15
   1  -4   5    0.31    0.13
   1  -4   5    0.17    0.08
   1  -4   5    0.21    0.13
   1  -4   5   -0.01    0.10
  -2   4  -5    2.17    0.24
  -2   4  -5    2.52    0.29
  -2   4  -5    2.06    0.24
   2  -4   5    2.40    0.24
   2  -4   5    2.05    0.14
   2  -4   5    1.62    0.23
   2  -4   5    1.72    0.24
   2  -4   5    1.82    0.24
  -3   4  -5    1.13    0.18
  -3   4  -5    1.07    0.19
  -3   4  -5    0.74    0.19
   3  -4   5    1.04    0.20
   3  -4   5    1.39    0.22
   3  -4   5    1.14    0.22
   3  -4   5    1.11    0.21
  -4   4  -5    2.14    0.23
  -4   4  -5    2.46    0.27
  -4   4  -5    2.23    0.28
   4  -4   5    1.84    0.27
   4  -4   5    2.06    0.28
   4  -4   5    2.37    0.30
   4  -4   5    2.15    0.29
   5  -4   5   10.59    0.53
   5  -4   5   10.39    0.57
   5  -4   5    9.52    0.54
   5  -4   5   10.00    0.53
   6  -4   5    2.39    0.36
   6  -4   5    1.77    0.31
   6  -4   5    2.92    0.35
   6  -4   5    2.10    0.31
   7  -4   5    0.20    0.23
   7  -4   5    0.53    0.21
   7  -4   5    0.49    0.20
   8  -4   5    0.02    0.20
   8  -4   5   -0.06    0.15
   8  -4   5    0.23    0.18
   9  -4   5    1.72    0.42
   9  -4   5    1.52    0.33
   9  -4   5    1.54    0.29
   8   3  -5    2.78    0.37
   8   3  -5    3.65    0.40
  -8  -3   5    2.83    0.45
   7   3  -5    9.08    0.53
   7   3  -5   10.28    0.54
  -7  -3   5    8.53    0.61
   6   3  -5   75.84    1.71
   6   3  -5   73.66    1.60
   6   3  -5   76.38    1.61
  -6  -3   5   73.78    1.77
   5   3  -5    2.05    0.28
   5   3  -5    2.24    0.32
   4   3  -5    0.11    0.13
   4   3  -5    0.10    0.11
   4   3  -5    0.22    0.15
   3   3  -5   31.22    0.89
   3   3  -5   29.76    0.83
   3   3  -5   28.68    0.79
  -3  -3   5   29.03    0.90
   2   3  -5    2.01    0.26
   2   3  -5    1.50    0.20
   2   3  -5    2.05    0.24
  -2  -3   5    1.56    0.21
  -2  -3   5    1.71    0.10
  -2  -3   5    1.91    0.22
   1   3  -5    0.51    0.15
   1   3  -5    0.50    0.14
   1   3  -5    0.27    0.11
  -1  -3   5    0.18    0.05
  -1  -3   5    0.29    0.12
   0   3  -5    1.04    0.16
   0   3  -5    0.91    0.17
   0  -3   5    0.69    0.14
   0  -3   5    1.15    0.19
   0  -3   5    0.93    0.17
   0  -3   5    1.53    0.12
  -1   3  -5   -0.04    0.07
  -1   3  -5   -0.08    0.08
  -1   3  -5    0.24    0.12
   1  -3   5    0.12    0.08
   1  -3   5    0.19    0.12
   1  -3   5   -0.05    0.09
   1  -3   5   -0.02    0.10
   1  -3   5    0.10    0.08
  -2   3  -5    5.29    0.29
  -2   3  -5    4.94    0.31
  -2   3  -5    5.56    0.35
   2  -3   5    5.26    0.23
   2  -3   5    6.04    0.36
   2  -3   5    5.94    0.31
   2  -3   5    5.18    0.33
   2  -3   5    5.61    0.34
  -3   3  -5   25.70    0.72
  -3   3  -5   27.65    0.67
  -3   3  -5   27.44    0.79
   3  -3   5   26.38    0.75
   3  -3   5   25.92    0.77
   3  -3   5   25.51    0.78
   3  -3   5   25.63    0.77
  -4   3  -5   72.83    1.50
  -4   3  -5   72.23    1.40
  -4   3  -5   69.90    1.24
   4  -3   5   68.14    1.51
   4  -3   5   70.40    1.51
   4  -3   5   71.16    1.50
   4  -3   5   70.93    1.48
   5  -3   5    4.15    0.41
   5  -3   5    2.80    0.33
   5  -3   5    2.56    0.30
   6  -3   5    4.12    0.41
   6  -3   5    5.04    0.40
   6  -3   5    5.50    0.52
   7  -3   5    1.79    0.30
   7  -3   5    1.58    0.33
   7  -3   5    1.76    0.30
   8  -3   5    1.59    0.30
   8  -3   5    1.40    0.32
   8  -3   5    1.37    0.30
   9  -3   5    1.20    0.29
   9  -3   5    0.60    0.29
   9  -3   5    0.43    0.22
   9   2  -5    0.27    0.19
  -9  -2   5    0.28    0.24
   8   2  -5    0.78    0.19
   8   2  -5    0.36    0.19
  -8  -2   5    0.79    0.28
   7   2  -5    6.68    0.40
   7   2  -5    6.28    0.41
   7   2  -5    5.37    0.56
  -7  -2   5    5.00    0.51
   6   2  -5    0.20    0.16
   6   2  -5    0.15    0.12
   6   2  -5    0.26    0.13
  -6  -2   5    0.29    0.17
   5   2  -5   13.45    0.51
   5   2  -5   13.38    0.52
   5   2  -5   14.71    0.62
  -5  -2   5   13.50    0.60
   4   2  -5   48.70    1.04
   4   2  -5   49.51    1.08
   4   2  -5   49.97    1.20
  -4  -2   5   49.12    1.16
   3   2  -5   22.89    0.63
   3   2  -5   22.94    0.72
   3   2  -5   23.22    0.65
  -3  -2   5   22.09    0.45
  -3  -2   5   23.64    0.64
   2   2  -5   10.99    0.43
   2   2  -5   10.61    0.46
   2   2  -5   11.42    0.41
  -2  -2   5   11.62    0.40
  -2  -2   5   11.64    0.42
   1   2  -5    5.21    0.31
   1   2  -5    5.23    0.29
   1   2  -5    5.34    0.28
  -1  -2   5    5.62    0.29
  -1  -2   5    5.03    0.29
   0   2  -5   11.36    0.42
   0   2  -5   14.00    0.48
   0   2  -5   12.61    0.45
   0  -2   5   12.77    0.46
   0  -2   5   12.78    0.45
   0  -2   5   12.47    0.43
   0  -2   5   14.28    0.48
  -1   2  -5    1.35    0.19
  -1   2  -5    1.45    0.19
  -1   2  -5    1.48    0.18
   1  -2   5    1.27    0.18
   1  -2   5    1.12    0.18
   1  -2   5    1.58    0.19
   1  -2   5    1.60    0.17
  -2   2  -5    7.57    0.39
  -2   2  -5    7.43    0.35
  -2   2  -5    7.87    0.31
   2  -2   5    6.95    0.36
   2  -2   5    7.46    0.38
   2  -2   5    7.32    0.37
  -3   2  -5    1.47    0.15
  -3   2  -5    1.21    0.20
  -3   2  -5    1.08    0.18
   3  -2   5    1.29    0.20
   3  -2   5    1.09    0.19
   3  -2   5    1.34    0.20
  -4   2  -5    9.17    0.41
  -4   2  -5    8.43    0.43
   4  -2   5    8.60    0.46
   4  -2   5    9.08    0.46
   4  -2   5    9.18    0.46
   5  -2   5    0.22    0.14
   5  -2   5    0.29    0.17
   5  -2   5    0.49    0.17
   6  -2   5    4.60    0.42
   6  -2   5    4.45    0.42
   6  -2   5    4.72    0.46
   7  -2   5   12.90    0.64
   7  -2   5   12.15    0.62
   7  -2   5   12.45    0.71
   8  -2   5    2.30    0.42
   8  -2   5    2.29    0.34
   8  -2   5    1.07    0.27
  -9   2  -5    1.21    0.33
   9  -2   5    1.29    0.32
   9  -2   5    1.48    0.39
   9  -2   5    1.11    0.28
   9   1  -5    6.92    0.74
  -9  -1   5    6.46    0.65
   8   1  -5    1.25    0.23
   8   1  -5    1.34    0.36
  -8  -1   5    1.19    0.29
   7   1  -5    2.11    0.38
   7   1  -5    1.77    0.23
   7   1  -5    2.30    0.24
   7   1  -5    1.89    0.30
  -7  -1   5    2.02    0.33
   6   1  -5   12.92    0.68
   6   1  -5   12.66    0.47
   6   1  -5   12.45    0.58
   6   1  -5   12.71    0.45
  -6  -1   5   13.13    0.62
   5   1  -5   14.51    0.47
   5   1  -5   15.14    0.48
   5   1  -5   15.16    0.61
  -5  -1   5   14.56    0.59
   4   1  -5   11.02    0.40
   4   1  -5   11.81    0.40
   4   1  -5   12.02    0.51
  -4  -1   5   12.53    0.50
   3   1  -5   11.19    0.47
   3   1  -5   11.24    0.39
   3   1  -5   10.85    0.37
  -3  -1   5   10.36    0.41
  -3  -1   5   10.74    0.37
   2   1  -5    8.56    0.40
   2   1  -5    8.66    0.35
   2   1  -5    8.31    0.33
  -2  -1   5    9.08    0.33
  -2  -1   5    8.51    0.30
   1   1  -5    2.31    0.20
   1   1  -5    2.12    0.23
   1   1  -5    2.47    0.22
  -1  -1   5    2.34    0.20
  -1  -1   5    1.97    0.22
  -1  -1   5    2.04    0.19
   0   1  -5    2.27    0.21
   0   1  -5    2.74    0.21
   0   1  -5    2.29    0.22
   0  -1   5    2.19    0.21
   0  -1   5    2.46    0.22
   0  -1   5    1.93    0.19
   0  -1   5    2.03    0.20
  -1   1  -5   26.60    0.70
  -1   1  -5   26.51    0.62
  -1   1  -5   26.34    0.67
   1  -1   5   25.97    0.65
   1  -1   5   26.13    0.68
   1  -1   5   26.61    0.65
   1  -1   5   25.94    0.69
  -2   1  -5  115.19    1.97
  -2   1  -5  115.99    1.81
  -2   1  -5  116.47    2.02
   2  -1   5  114.11    2.00
   2  -1   5  121.42    1.98
   2  -1   5  115.23    2.00
  -3   1  -5   52.71    0.91
  -3   1  -5   53.93    1.19
  -3   1  -5   54.20    1.13
   3  -1   5   53.09    1.17
   3  -1   5   53.67    1.17
   3  -1   5   54.44    1.17
  -4   1  -5    3.52    0.33
  -4   1  -5    3.22    0.25
   4  -1   5    3.72    0.34
   4  -1   5    3.49    0.34
   4  -1   5    3.75    0.34
   5  -1   5    0.33    0.16
   5  -1   5    0.64    0.20
   5  -1   5    0.66    0.20
   6  -1   5    5.56    0.43
   6  -1   5    5.61    0.44
   6  -1   5    6.84    0.50
  -7   1  -5    0.39    0.21
   7  -1   5    0.49    0.24
   7  -1   5    0.51    0.20
   7  -1   5    0.73    0.23
  -8   1  -5    1.65    0.36
   8  -1   5    1.04    0.29
   8  -1   5    0.89    0.31
   8  -1   5    0.99    0.26
  -9   1  -5    5.53    0.61
   9  -1   5    4.13    0.56
   9  -1   5    5.74    0.58
   9  -1   5    5.09    0.55
   9   0  -5    4.12    0.57
  -9   0   5    2.71    0.42
   8   0  -5    3.09    0.47
  -8   0   5    2.73    0.39
   7   0  -5    2.82    0.41
   7   0  -5    3.10    0.24
   7   0  -5    2.71    0.34
  -7   0   5    2.87    0.37
   6   0  -5    4.37    0.41
   6   0  -5    3.39    0.39
   6   0  -5    3.71    0.20
   6   0  -5    4.08    0.24
  -6   0   5    3.86    0.38
   5   0  -5    5.81    0.37
   5   0  -5    5.90    0.25
   5   0  -5    6.31    0.26
   5   0  -5    5.98    0.41
  -5   0   5    5.86    0.37
   4   0  -5    3.64    0.20
   4   0  -5    3.63    0.22
   4   0  -5    3.96    0.20
   4   0  -5    3.02    0.30
  -4   0   5    4.05    0.27
   3   0  -5   94.04    1.45
   3   0  -5   94.92    1.50
   3   0  -5   94.68    1.74
   3   0  -5   93.47    1.52
  -3   0   5   94.18    1.59
   2   0  -5    0.07    0.06
   2   0  -5    0.14    0.08
   2   0  -5    0.06    0.05
   2   0  -5    0.17    0.10
  -2   0   5    0.18    0.12
  -2   0   5    0.20    0.08
   1   0  -5   52.86    1.02
   1   0  -5   53.14    0.99
   1   0  -5   52.46    1.07
   1   0  -5   52.19    0.85
  -1   0   5   54.08    0.97
  -1   0   5   52.90    1.10
  -1   0   5   53.39    1.00
   0   0  -5    0.03    0.08
   0   0  -5    0.18    0.09
   0   0  -5    0.11    0.08
   0   0  -5    0.05    0.07
   0   0   5    0.07    0.08
   0   0   5    0.08    0.08
   0   0   5   -0.05    0.08
   0   0   5    0.05    0.08
  -1   0  -5   21.41    0.62
  -1   0  -5   22.32    0.60
  -1   0  -5   22.53    0.54
   1   0   5   21.16    0.60
   1   0   5   22.19    0.62
   1   0   5   21.87    0.61
   1   0   5   21.86    0.55
  -2   0  -5    1.75    0.22
  -2   0  -5    2.09    0.15
  -2   0  -5    1.62    0.19
   2   0   5    2.22    0.21
   2   0   5    2.09    0.24
   2   0   5    2.02    0.22
  -3   0  -5    0.00    0.09
  -3   0  -5    0.10    0.05
  -3   0  -5    0.10    0.10
   3   0   5    0.10    0.11
   3   0   5    0.19    0.12
   3   0   5    0.03    0.09
  -4   0  -5    9.16    0.43
  -4   0  -5    9.46    0.47
   4   0   5    9.23    0.46
   4   0   5    9.72    0.48
   4   0   5    8.01    0.45
  -5   0  -5    8.86    0.47
  -5   0  -5    7.84    0.64
   5   0   5    7.99    0.48
   5   0   5    8.42    0.49
   5   0   5    8.44    0.49
  -6   0  -5    5.34    0.43
   6   0   5    6.05    0.48
   6   0   5    5.56    0.44
   6   0   5    5.45    0.44
  -7   0  -5    1.88    0.34
   7   0   5    1.36    0.33
   7   0   5    1.86    0.32
   7   0   5    2.40    0.35
  -8   0  -5   -0.12    0.17
   8   0   5   -0.11    0.18
   8   0   5    0.14    0.22
   8   0   5    0.03    0.19
  -9   0  -5    1.17    0.36
   9   0   5    1.05    0.35
   9   0   5    0.78    0.30
   9   0   5    0.71    0.26
   9  -1  -5    0.30    0.24
  -9   1   5    0.23    0.20
   8  -1  -5    0.82    0.28
  -8   1   5    0.56    0.21
   7  -1  -5    0.49    0.18
   7  -1  -5    0.69    0.22
  -7   1   5    0.27    0.17
   6  -1  -5    0.24    0.15
   6  -1  -5    0.18    0.07
   6  -1  -5    0.05    0.14
   6  -1  -5    0.14    0.12
  -6   1   5    0.13    0.13
   5  -1  -5    1.48    0.25
   5  -1  -5    1.89    0.22
   5  -1  -5    1.61    0.12
   5  -1  -5    1.68    0.25
  -5   1   5    1.70    0.22
   4  -1  -5    6.50    0.30
   4  -1  -5    6.91    0.21
   4  -1  -5    6.25    0.21
   4  -1  -5    7.18    0.39
   4  -1  -5    6.46    0.37
  -4   1   5    6.68    0.32
   3  -1  -5    5.41    0.21
   3  -1  -5    6.59    0.27
   3  -1  -5    6.19    0.35
   3  -1  -5    5.87    0.21
   3  -1  -5    5.62    0.22
  -3   1   5    5.96    0.26
  -3   1   5    5.47    0.35
   2  -1  -5   33.84    0.70
   2  -1  -5   33.30    0.67
   2  -1  -5   34.14    0.83
   2  -1  -5   33.80    0.68
  -2   1   5   33.35    0.67
  -2   1   5   33.83    0.61
  -2   1   5   32.50    0.85
   1  -1  -5   77.34    1.33
   1  -1  -5   79.60    1.36
   1  -1  -5   79.25    1.43
   1  -1  -5   77.65    1.29
  -1   1   5   76.96    1.28
  -1   1   5   78.78    1.34
  -1   1   5   76.51    1.46
   0  -1  -5    0.65    0.13
   0  -1  -5    0.87    0.14
   0  -1  -5    0.82    0.13
   0  -1  -5    0.68    0.14
   0   1   5    0.88    0.11
   0   1   5    0.68    0.13
   0   1   5    0.58    0.16
   0   1   5    0.81    0.15
  -1  -1  -5    0.62    0.14
  -1  -1  -5    0.48    0.11
  -1  -1  -5    0.53    0.13
  -1  -1  -5    0.64    0.14
   1   1   5    0.93    0.16
   1   1   5    0.92    0.17
   1   1   5    0.48    0.10
  -2  -1  -5    2.06    0.25
  -2  -1  -5    1.73    0.17
  -2  -1  -5    1.90    0.22
  -2  -1  -5    1.75    0.16
   2   1   5    1.35    0.20
   2   1   5    1.64    0.18
   2   1   5    1.83    0.24
  -3  -1  -5   34.37    0.80
  -3  -1  -5   33.00    0.63
  -3  -1  -5   33.36    0.86
  -3  -1  -5   33.67    0.91
   3   1   5   31.77    0.90
   3   1   5   33.52    0.83
   3   1   5   33.16    0.90
  -4  -1  -5    1.50    0.22
  -4  -1  -5    1.66    0.27
  -4  -1  -5    1.73    0.23
   4   1   5    1.83    0.28
   4   1   5    1.16    0.23
   4   1   5    1.76    0.24
  -5  -1  -5    5.52    0.53
  -5  -1  -5    6.16    0.40
   5   1   5    6.02    0.44
   5   1   5    6.47    0.46
   5   1   5    6.16    0.45
  -6  -1  -5    4.94    0.47
   6   1   5    5.16    0.49
   6   1   5    4.81    0.48
   6   1   5    5.43    0.51
  -7  -1  -5   20.24    0.86
   7   1   5   18.08    0.85
   7   1   5   21.80    0.93
   7   1   5   20.26    0.88
  -8  -1  -5   22.44    0.99
   8   1   5   23.16    1.05
   8   1   5   21.31    0.95
   8   1   5   21.21    0.97
  -9  -1  -5    0.21    0.23
   9   1   5    0.06    0.25
 -10   2   5    2.65    0.43
   9  -2  -5    5.44    0.60
  -9   2   5    5.77    0.58
   8  -2  -5    9.80    0.65
  -8   2   5    8.83    0.57
   7  -2  -5    0.03    0.14
   7  -2  -5   -0.04    0.14
   7  -2  -5    0.08    0.15
  -7   2   5    0.29    0.15
  -7   2   5   -0.13    0.13
   6  -2  -5    0.47    0.18
   6  -2  -5    0.44    0.16
   6  -2  -5    0.76    0.20
  -6   2   5    0.11    0.12
   5  -2  -5    0.54    0.17
   5  -2  -5    0.75    0.17
   5  -2  -5    0.68    0.17
  -5   2   5    0.59    0.15
  -5   2   5    0.66    0.19
   4  -2  -5   -0.04    0.04
   4  -2  -5    0.07    0.09
   4  -2  -5    0.01    0.09
   4  -2  -5    0.03    0.10
  -4   2   5    0.02    0.11
  -4   2   5    0.03    0.07
   3  -2  -5   21.17    0.46
   3  -2  -5   21.55    0.47
   3  -2  -5   22.09    0.58
   3  -2  -5   21.63    0.67
   3  -2  -5   22.16    0.48
  -3   2   5   20.41    0.69
  -3   2   5   21.28    0.50
   2  -2  -5   54.68    1.04
   2  -2  -5   51.85    1.14
   2  -2  -5   53.91    0.98
   2  -2  -5   54.62    0.99
  -2   2   5   55.34    1.18
  -2   2   5   53.32    0.84
  -2   2   5   51.97    0.97
   1  -2  -5   53.99    1.04
   1  -2  -5   52.52    1.04
   1  -2  -5   53.91    1.03
   1  -2  -5   52.91    1.11
  -1   2   5   53.29    1.17
  -1   2   5   53.67    0.97
  -1   2   5   53.79    1.03
  -1   2   5   52.43    0.85
   0  -2  -5   10.37    0.39
   0  -2  -5   10.36    0.39
   0  -2  -5    9.88    0.40
   0  -2  -5    9.78    0.39
   0   2   5   10.03    0.38
   0   2   5   10.14    0.41
   0   2   5    9.69    0.26
  -1  -2  -5   20.54    0.55
  -1  -2  -5   20.04    0.61
  -1  -2  -5   20.19    0.43
  -1  -2  -5   20.64    0.63
  -1  -2  -5   20.30    0.62
   1   2   5   20.42    0.63
   1   2   5   20.47    0.61
   1   2   5   20.44    0.47
  -2  -2  -5    2.53    0.19
  -2  -2  -5    2.54    0.18
  -2  -2  -5    2.19    0.26
  -2  -2  -5    2.86    0.27
  -2  -2  -5    3.10    0.32
   2   2   5    2.23    0.20
   2   2   5    3.00    0.30
   2   2   5    2.63    0.28
  -3  -2  -5   12.22    0.55
  -3  -2  -5   12.70    0.53
  -3  -2  -5   13.07    0.46
   3   2   5   12.46    0.55
   3   2   5   12.65    0.56
   3   2   5   13.37    0.49
  -4  -2  -5    0.54    0.16
  -4  -2  -5    0.74    0.20
  -4  -2  -5    0.40    0.15
   4   2   5    0.18    0.14
   4   2   5    0.34    0.18
   4   2   5    0.43    0.16
  -5  -2  -5    0.29    0.16
  -5  -2  -5    0.21    0.21
   5   2   5    0.33    0.17
   5   2   5    0.31    0.18
   5   2   5    0.16    0.17
  -6  -2  -5    0.24    0.16
   6   2   5    0.03    0.16
   6   2   5    0.07    0.19
   6   2   5    0.29    0.20
  -7  -2  -5    2.03    0.35
   7   2   5    1.48    0.33
   7   2   5    2.00    0.36
   7   2   5    0.77    0.27
  -8  -2  -5    1.18    0.32
   8   2   5    0.72    0.29
   8   2   5    1.04    0.32
   8   2   5    0.72    0.31
   9  -3  -5    0.57    0.27
  -9   3   5    0.38    0.22
   8  -3  -5    0.05    0.18
   8  -3  -5   -0.09    0.17
  -8   3   5    0.11    0.17
  -8   3   5    0.32    0.21
   7  -3  -5    1.81    0.31
   7  -3  -5    2.57    0.35
   7  -3  -5    1.88    0.31
  -7   3   5    1.80    0.30
  -7   3   5    2.03    0.34
   6  -3  -5    5.83    0.42
   6  -3  -5    6.35    0.43
   6  -3  -5    6.17    0.42
  -6   3   5    5.43    0.42
  -6   3   5    5.38    0.36
   5  -3  -5    1.07    0.22
   5  -3  -5    0.85    0.18
   5  -3  -5    0.69    0.18
  -5   3   5    1.10    0.24
  -5   3   5    1.06    0.18
   4  -3  -5    4.32    0.27
   4  -3  -5    4.21    0.30
   4  -3  -5    4.00    0.18
   4  -3  -5    3.54    0.33
   4  -3  -5    3.82    0.15
  -4   3   5    4.59    0.35
  -4   3   5    3.82    0.24
   3  -3  -5   11.38    0.34
   3  -3  -5   11.15    0.49
   3  -3  -5   11.50    0.45
   3  -3  -5   11.34    0.35
  -3   3   5   10.50    0.49
   2  -3  -5   13.17    0.48
   2  -3  -5   13.44    0.52
   2  -3  -5   14.15    0.44
   2  -3  -5   13.92    0.43
  -2   3   5   13.14    0.43
  -2   3   5   14.26    0.56
   1  -3  -5    3.51    0.24
   1  -3  -5    3.64    0.25
   1  -3  -5    3.48    0.27
   1  -3  -5    3.37    0.26
  -1   3   5    3.47    0.25
  -1   3   5    3.64    0.31
  -1   3   5    3.38    0.22
   0  -3  -5    6.24    0.35
   0  -3  -5    6.83    0.35
   0  -3  -5    6.19    0.33
   0  -3  -5    6.97    0.36
   0   3   5    7.57    0.38
   0   3   5    6.41    0.33
  -1  -3  -5   -0.13    0.10
  -1  -3  -5    0.01    0.08
  -1  -3  -5    0.02    0.08
  -1  -3  -5    0.22    0.11
   1   3   5    0.12    0.06
   1   3   5    0.09    0.11
   1   3   5    0.05    0.10
  -2  -3  -5    1.41    0.21
  -2  -3  -5    1.49    0.25
  -2  -3  -5    1.58    0.18
  -2  -3  -5    1.96    0.28
   2   3   5    1.49    0.25
   2   3   5    0.88    0.19
  -3  -3  -5   19.96    0.76
  -3  -3  -5   18.45    0.58
  -3  -3  -5   18.49    0.71
  -3  -3  -5   18.94    0.70
   3   3   5   18.57    0.70
   3   3   5   19.42    0.75
   3   3   5   18.87    0.60
  -4  -3  -5   20.46    0.68
  -4  -3  -5   20.55    0.76
  -4  -3  -5   20.30    0.82
  -4  -3  -5   20.36    0.78
   4   3   5   20.63    0.83
   4   3   5   19.94    0.69
   4   3   5   19.03    0.77
  -5  -3  -5   10.12    0.53
  -5  -3  -5    9.41    0.62
   5   3   5    9.48    0.54
   5   3   5   10.02    0.60
   5   3   5    9.27    0.60
  -6  -3  -5    7.62    0.61
  -6  -3  -5    6.43    0.49
   6   3   5    6.23    0.58
   6   3   5    7.08    0.56
   6   3   5    6.42    0.51
  -7  -3  -5   10.30    0.64
  -7  -3  -5    9.53    0.72
   7   3   5    9.86    0.69
   7   3   5    9.24    0.65
   7   3   5   10.57    0.69
  -8  -3  -5    1.93    0.38
  -8  -3  -5    2.21    0.47
   8   3   5    2.01    0.39
   8   3   5    1.71    0.39
   8   3   5    1.66    0.38
   9  -4  -5    4.07    0.52
  -9   4   5    4.34    0.51
   8  -4  -5    1.05    0.28
   8  -4  -5    1.01    0.27
   8  -4  -5    1.13    0.27
  -8   4   5    0.79    0.22
  -8   4   5    0.95    0.30
   7  -4  -5    0.03    0.14
   7  -4  -5    0.28    0.17
   7  -4  -5    0.15    0.18
  -7   4   5   -0.10    0.13
  -7   4   5    0.11    0.17
  -7   4   5    0.21    0.16
   6  -4  -5    3.01    0.34
   6  -4  -5    3.55    0.39
   6  -4  -5    3.62    0.38
  -6   4   5    2.96    0.37
  -6   4   5    3.61    0.35
  -6   4   5    3.20    0.38
   5  -4  -5   26.50    0.55
   5  -4  -5   26.89    0.85
   5  -4  -5   27.82    0.89
   5  -4  -5   26.06    0.74
  -5   4   5   26.64    0.89
  -5   4   5   25.39    0.85
   4  -4  -5   50.51    1.20
   4  -4  -5   51.16    1.02
   4  -4  -5   52.18    0.90
   4  -4  -5   53.07    0.97
   4  -4  -5   50.94    1.26
  -4   4   5   49.60    1.23
   3  -4  -5   39.48    1.00
   3  -4  -5   39.05    1.04
   3  -4  -5   39.70    0.82
   3  -4  -5   39.28    0.84
  -3   4   5   38.25    1.03
   2  -4  -5   10.41    0.47
   2  -4  -5   10.33    0.48
   2  -4  -5   11.18    0.42
   2  -4  -5    9.69    0.40
  -2   4   5   11.44    0.53
   1  -4  -5    5.73    0.36
   1  -4  -5    5.27    0.35
   1  -4  -5    5.65    0.32
   1  -4  -5    5.74    0.33
  -1   4   5    5.05    0.32
  -1   4   5    4.99    0.28
   0  -4  -5   19.63    0.67
   0  -4  -5   19.80    0.68
   0  -4  -5   20.35    0.66
   0  -4  -5   19.42    0.66
   0   4   5   20.03    0.67
   0   4   5   20.51    0.64
  -1  -4  -5    0.55    0.17
  -1  -4  -5    0.52    0.15
  -1  -4  -5    0.38    0.15
   1   4   5    0.76    0.20
   1   4   5    0.57    0.16
  -2  -4  -5    2.22    0.31
  -2  -4  -5    2.44    0.31
  -2  -4  -5    1.85    0.29
   2   4   5    2.62    0.32
   2   4   5    2.02    0.30
  -3  -4  -5    0.06    0.11
  -3  -4  -5   -0.04    0.11
  -3  -4  -5   -0.06    0.14
  -3  -4  -5    0.09    0.15
   3   4   5    0.08    0.15
   3   4   5    0.14    0.15
  -4  -4  -5   -0.04    0.11
  -4  -4  -5    0.27    0.19
  -4  -4  -5    0.16    0.20
  -4  -4  -5   -0.07    0.12
   4   4   5    0.16    0.18
   4   4   5    0.13    0.17
  -5  -4  -5    5.73    0.44
  -5  -4  -5    5.69    0.58
   5   4   5    5.92    0.57
   5   4   5    5.66    0.53
  -6  -4  -5   10.06    0.72
  -6  -4  -5   10.82    0.64
   6   4   5   10.70    0.71
   6   4   5   11.05    0.72
  -7  -4  -5    3.39    0.53
  -7  -4  -5    3.03    0.45
   7   4   5    2.75    0.45
   7   4   5    2.41    0.43
   9  -5  -5    2.77    0.45
   8  -5  -5   13.15    0.70
   8  -5  -5   13.22    0.74
  -8   5   5   13.63    0.72
   7  -5  -5    0.76    0.25
   7  -5  -5    1.39    0.27
  -7   5   5    1.21    0.29
   6  -5  -5    4.79    0.47
   6  -5  -5    5.08    0.48
  -6   5   5    4.60    0.48
  -6   5   5    5.01    0.41
   5  -5  -5   45.90    0.79
   5  -5  -5   47.35    1.27
   5  -5  -5   45.78    0.92
   5  -5  -5   46.67    1.27
  -5   5   5   46.17    1.22
  -5   5   5   46.01    1.26
   4  -5  -5   27.48    0.70
   4  -5  -5   27.89    0.92
   4  -5  -5   26.86    0.89
   4  -5  -5   29.50    0.67
  -4   5   5   26.91    0.91
  -4   5   5   27.42    0.89
   3  -5  -5   19.96    0.60
   3  -5  -5   19.79    0.73
   3  -5  -5   19.55    0.73
   3  -5  -5   18.30    0.57
  -3   5   5   17.88    0.71
  -3   5   5   17.89    0.71
   2  -5  -5    0.36    0.16
   2  -5  -5    0.35    0.12
   2  -5  -5    0.48    0.14
   2  -5  -5    0.40    0.17
  -2   5   5    0.48    0.17
   1  -5  -5    1.04    0.22
   1  -5  -5    0.83    0.18
   1  -5  -5    0.35    0.13
  -1   5   5    0.87    0.21
   0  -5  -5    0.34    0.16
   0  -5  -5    0.38    0.14
   0  -5  -5    0.28    0.13
   0   5   5    0.31    0.14
   0   5   5    0.25    0.16
   0   5   5    0.15    0.15
  -1  -5  -5    0.00    0.11
  -1  -5  -5    0.03    0.14
  -1  -5  -5   -0.10    0.09
   1   5   5    0.16    0.14
   1   5   5    0.10    0.15
   1   5   5    0.10    0.13
  -2  -5  -5   62.37    1.52
  -2  -5  -5   64.07    1.55
  -2  -5  -5   61.72    1.55
   2   5   5   65.10    1.53
   2   5   5   65.19    1.33
   2   5   5   64.87    1.57
  -3  -5  -5   -0.02    0.17
  -3  -5  -5    0.08    0.14
  -3  -5  -5   -0.07    0.13
   3   5   5    0.01    0.15
   3   5   5    0.08    0.16
  -4  -5  -5    0.22    0.16
  -4  -5  -5    0.10    0.16
  -4  -5  -5    0.11    0.21
   4   5   5    0.32    0.22
   4   5   5    0.59    0.24
  -5  -5  -5    7.96    0.53
  -5  -5  -5    7.35    0.68
   5   5   5    5.66    0.58
   5   5   5    7.82    0.61
  -6  -5  -5    6.11    0.57
  -6  -5  -5    6.38    0.67
   6   5   5    7.43    0.68
   6   5   5    8.81    0.68
  -7  -5  -5    0.12    0.28
  -7  -5  -5   -0.21    0.20
   7   5   5    0.35    0.30
   7   5   5    0.17    0.25
   9  -6  -5   -0.09    0.21
   8  -6  -5    9.80    0.67
  -8   6   5   10.23    0.67
   7  -6  -5    0.85    0.26
   7  -6  -5    0.42    0.24
  -7   6   5    0.52    0.24
   6  -6  -5    0.22    0.20
   6  -6  -5    0.24    0.21
  -6   6   5    0.09    0.19
   5  -6  -5   12.64    0.65
   5  -6  -5   10.84    0.44
   5  -6  -5   12.28    0.65
   5  -6  -5   11.74    0.39
  -5   6   5   10.89    0.63
  -5   6   5   10.75    0.58
   4  -6  -5   15.38    0.56
   4  -6  -5   16.38    0.53
   4  -6  -5   14.54    0.71
   4  -6  -5   15.56    0.70
  -4   6   5   14.48    0.69
  -4   6   5   16.88    0.71
   3  -6  -5   18.72    0.62
   3  -6  -5   17.79    0.75
   3  -6  -5   19.14    0.65
  -3   6   5   18.47    0.76
   2  -6  -5   16.53    0.63
   2  -6  -5   17.86    0.66
   2  -6  -5   17.59    0.73
  -2   6   5   16.76    0.71
   1  -6  -5    0.15    0.14
   1  -6  -5    0.41    0.19
   1  -6  -5    0.13    0.13
  -1   6   5    0.22    0.17
   0  -6  -5   -0.12    0.10
   0  -6  -5    0.02    0.11
   0  -6  -5    0.24    0.17
   0   6   5   -0.18    0.13
  -1  -6  -5   42.22    1.22
  -1  -6  -5   40.79    1.20
  -1  -6  -5   41.88    1.24
   1   6   5   41.44    1.16
   1   6   5   42.83    1.10
   1   6   5   42.73    1.24
  -2  -6  -5    4.08    0.46
  -2  -6  -5    3.71    0.45
  -2  -6  -5    4.37    0.48
   2   6   5    4.42    0.49
   2   6   5    4.43    0.45
  -3  -6  -5    1.95    0.33
  -3  -6  -5    1.79    0.35
  -3  -6  -5    1.65    0.31
   3   6   5    1.92    0.34
   3   6   5    2.17    0.38
  -4  -6  -5    4.37    0.52
  -4  -6  -5    3.34    0.43
  -4  -6  -5    3.55    0.46
   4   6   5    3.52    0.45
   4   6   5    4.03    0.50
  -5  -6  -5    0.99    0.33
   5   6   5    1.31    0.33
   5   6   5    1.09    0.32
  -6  -6  -5    0.50    0.32
   6   6   5    0.07    0.26
   6   6   5    0.51    0.29
   8  -7  -5    0.32    0.23
  -8   7   5    0.07    0.23
   7  -7  -5    0.61    0.26
  -7   7   5    0.14    0.22
   6  -7  -5    0.93    0.30
   6  -7  -5    0.65    0.27
  -6   7   5    0.56    0.26
   5  -7  -5    0.28    0.14
   5  -7  -5    0.31    0.21
   5  -7  -5    0.18    0.12
  -5   7   5    0.29    0.20
   4  -7  -5    0.16    0.13
   4  -7  -5    0.42    0.22
   4  -7  -5    0.34    0.14
  -4   7   5    0.24    0.22
   3  -7  -5    0.15    0.13
   3  -7  -5    0.13    0.17
   3  -7  -5    0.30    0.14
  -3   7   5   -0.04    0.18
   2  -7  -5   13.36    0.68
   2  -7  -5   13.01    0.61
   2  -7  -5   13.50    0.61
  -2   7   5   13.43    0.69
   1  -7  -5    1.96    0.30
   1  -7  -5    1.77    0.30
   1  -7  -5    1.75    0.32
  -1   7   5    2.47    0.36
   0  -7  -5    6.19    0.51
   0  -7  -5    5.54    0.52
   0  -7  -5    5.96    0.47
   0   7   5    6.15    0.46
  -1  -7  -5    7.53    0.53
  -1  -7  -5    6.70    0.52
  -1  -7  -5    6.89    0.54
   1   7   5    7.32    0.47
  -2  -7  -5    0.79    0.24
  -2  -7  -5    0.67    0.26
  -2  -7  -5    0.46    0.22
   2   7   5    0.35    0.21
   2   7   5    0.87    0.32
  -3  -7  -5    2.67    0.44
  -3  -7  -5    3.06    0.43
  -3  -7  -5    2.26    0.37
   3   7   5    2.39    0.39
   3   7   5    3.23    0.47
  -4  -7  -5    9.87    0.68
  -4  -7  -5    9.52    0.70
  -4  -7  -5   10.53    0.70
   4   7   5    9.48    0.69
   4   7   5   10.56    0.76
  -5  -7  -5    0.25    0.27
   5   7   5    0.20    0.25
   5   7   5    0.46    0.29
   8  -8  -5    0.41    0.28
  -8   8   5    0.42    0.28
   7  -8  -5    1.10    0.34
  -7   8   5    1.12    0.34
   6  -8  -5    4.88    0.39
   6  -8  -5    4.54    0.54
  -6   8   5    4.04    0.51
   5  -8  -5    3.68    0.39
   5  -8  -5    3.86    0.35
   5  -8  -5    4.59    0.55
  -5   8   5    4.31    0.53
   4  -8  -5    0.51    0.23
   4  -8  -5    0.22    0.15
   4  -8  -5    0.32    0.17
  -4   8   5    0.03    0.19
   3  -8  -5    6.73    0.45
   3  -8  -5    6.25    0.46
   3  -8  -5    5.74    0.57
  -3   8   5    5.91    0.57
   2  -8  -5    4.73    0.48
   2  -8  -5    4.12    0.48
   2  -8  -5    4.44    0.46
  -2   8   5    4.34    0.50
   1  -8  -5    0.33    0.20
   1  -8  -5    0.26    0.20
   1  -8  -5    0.46    0.19
  -1   8   5    0.11    0.19
   0  -8  -5    1.20    0.32
   0  -8  -5    1.09    0.28
   0  -8  -5    1.02    0.28
   0   8   5    1.11    0.29
  -1  -8  -5   16.59    0.83
  -1  -8  -5   15.38    0.83
  -1  -8  -5   16.22    0.82
  -2  -8  -5   20.77    0.96
  -2  -8  -5   22.43    1.02
  -2  -8  -5   20.29    0.96
  -3  -8  -5   -0.17    0.19
  -3  -8  -5   -0.03    0.18
  -3  -8  -5   -0.12    0.18
   3   8   5    0.07    0.24
  -4  -8  -5    1.61    0.39
  -4  -8  -5    2.44    0.49
   4   8   5    1.39    0.39
   4   8   5    2.44    0.44
   7  -9  -5    0.13    0.24
  -7   9   5   -0.10    0.23
   6  -9  -5    1.31    0.35
   6  -9  -5    1.67    0.30
  -6   9   5    1.89    0.39
   5  -9  -5    0.05    0.21
   5  -9  -5    0.16    0.15
   5  -9  -5   -0.07    0.12
  -5   9   5    0.56    0.27
   4  -9  -5    3.84    0.41
   4  -9  -5    4.60    0.56
   4  -9  -5    5.12    0.52
  -4   9   5    5.39    0.62
   3  -9  -5    0.72    0.23
   3  -9  -5    0.77    0.25
   3  -9  -5    0.63    0.29
  -3   9   5    0.55    0.28
   2  -9  -5    0.60    0.27
   2  -9  -5    0.54    0.22
   2  -9  -5    0.43    0.21
  -2   9   5    0.55    0.26
   1  -9  -5    1.28    0.32
   1  -9  -5    2.70    0.44
   1  -9  -5    1.57    0.33
  -1   9   5    1.87    0.37
   0  -9  -5    1.96    0.36
   0  -9  -5    2.31    0.43
   0  -9  -5    1.98    0.38
   0   9   5    1.93    0.37
  -1  -9  -5    0.70    0.25
  -1  -9  -5    1.29    0.34
  -1  -9  -5    1.41    0.37
  -2  -9  -5   -0.08    0.20
  -2  -9  -5   -0.22    0.20
  -2  -9  -5   -0.09    0.19
   5 -10  -5   -0.19    0.16
   5 -10  -5   -0.01    0.15
   5 -10  -5   -0.07    0.22
  -5  10   5   -0.25    0.22
   4 -10  -5    0.11    0.20
   4 -10  -5    0.20    0.24
   4 -10  -5    0.12    0.18
  -4  10   5    0.18    0.27
   3 -10  -5    6.34    0.64
   3 -10  -5    4.89    0.52
   3 -10  -5    6.21    0.67
  -3  10   5    5.56    0.63
   2 -10  -5    0.50    0.24
   2 -10  -5    0.18    0.22
   2 -10  -5    0.78    0.33
  -2  10   5    0.50    0.29
   1 -10  -5   -0.11    0.18
   1 -10  -5   -0.04    0.20
   1 -10  -5    0.00    0.18
  -1  10   5    0.00    0.22
   0 -10  -5   13.30    0.85
   0 -10  -5   12.55    0.82
   0 -10  -5   10.04    0.73
  -1 -10  -5    0.76    0.29
   1  10  -6    0.09    0.24
   1  10  -6   -0.02    0.23
   1  10  -6    0.31    0.27
  -1 -10   6    0.06    0.26
  -1 -10   6    0.26    0.24
   0  10  -6    3.84    0.54
   0  10  -6    4.12    0.59
   0 -10   6    2.75    0.45
   0 -10   6    3.26    0.49
   0 -10   6    4.57    0.60
  -1  10  -6    0.27    0.25
   1 -10   6   -0.07    0.22
   1 -10   6   -0.10    0.22
  -2  10  -6    4.42    0.58
   2 -10   6    4.38    0.56
   2 -10   6    5.03    0.57
   2 -10   6    5.34    0.63
  -3  10  -6    1.55    0.37
   3 -10   6    2.99    0.51
   3 -10   6    2.91    0.49
   3 -10   6    2.71    0.44
  -4  10  -6    1.76    0.38
   4 -10   6    1.92    0.39
   4 -10   6    1.73    0.38
   4 -10   6    2.13    0.44
  -5  10  -6    0.79    0.45
   5 -10   6    0.75    0.29
   5 -10   6    1.18    0.31
   5 -10   6    1.35    0.36
   5 -10   6    0.95    0.31
   3   9  -6    1.70    0.40
   3   9  -6    2.29    0.47
   3   9  -6    1.96    0.39
   2   9  -6    0.96    0.30
   2   9  -6    0.96    0.33
   2   9  -6    1.41    0.38
   1   9  -6    1.48    0.37
   1   9  -6    1.29    0.33
   1   9  -6    0.96    0.31
  -1  -9   6    1.25    0.33
  -1  -9   6    1.56    0.36
  -1  -9   6    1.00    0.28
   0   9  -6    4.43    0.49
   0   9  -6    3.96    0.55
   0   9  -6    4.10    0.53
   0  -9   6    4.09    0.50
   0  -9   6    4.83    0.57
   0  -9   6    4.21    0.53
  -1   9  -6    0.51    0.27
  -1   9  -6    0.86    0.30
   1  -9   6    1.29    0.32
   1  -9   6    1.14    0.30
  -2   9  -6    1.12    0.33
   2  -9   6    0.93    0.29
   2  -9   6    1.11    0.32
   2  -9   6    0.78    0.28
  -3   9  -6    1.14    0.31
   3  -9   6    1.59    0.35
   3  -9   6    1.20    0.32
   3  -9   6    1.57    0.34
  -4   9  -6   -0.13    0.18
   4  -9   6    0.06    0.19
   4  -9   6    0.16    0.19
   4  -9   6    0.03    0.19
   4  -9   6    0.07    0.20
   5  -9   6    3.27    0.47
   5  -9   6    3.71    0.48
   5  -9   6    3.87    0.52
   5  -9   6    3.62    0.49
   6  -9   6    3.08    0.48
   6  -9   6    3.76    0.51
   6  -9   6    2.85    0.48
   6  -9   6    3.68    0.51
   4   8  -6    0.26    0.27
   4   8  -6    0.37    0.28
   4   8  -6   -0.06    0.20
   3   8  -6    0.86    0.30
   3   8  -6    0.44    0.25
   3   8  -6    0.66    0.30
   2   8  -6    0.29    0.22
   2   8  -6    0.48    0.27
   2   8  -6    0.14    0.21
   1   8  -6   14.85    0.82
   1   8  -6   15.38    0.83
   1   8  -6   17.18    0.81
  -1  -8   6   16.45    0.80
  -1  -8   6   15.28    0.80
   0   8  -6    0.15    0.19
   0   8  -6    0.08    0.20
   0   8  -6    0.01    0.16
   0  -8   6   -0.01    0.15
   0  -8   6    0.18    0.20
   0  -8   6   -0.08    0.18
  -1   8  -6    7.36    0.58
  -1   8  -6    8.80    0.64
   1  -8   6    7.81    0.58
   1  -8   6    8.02    0.58
  -2   8  -6    1.91    0.40
  -2   8  -6    2.01    0.37
   2  -8   6    2.17    0.36
   2  -8   6    3.44    0.47
   2  -8   6    2.97    0.44
  -3   8  -6    1.44    0.31
   3  -8   6    1.01    0.28
   3  -8   6    2.05    0.37
   3  -8   6    1.08    0.31
   3  -8   6    1.36    0.27
  -4   8  -6    1.42    0.31
   4  -8   6    1.37    0.29
   4  -8   6    2.18    0.38
   4  -8   6    1.88    0.35
   4  -8   6    1.90    0.36
   5  -8   6    6.29    0.59
   5  -8   6    6.70    0.62
   5  -8   6    6.77    0.63
   5  -8   6    6.96    0.55
   6  -8   6    4.81    0.56
   6  -8   6    4.89    0.57
   6  -8   6    5.24    0.55
   6  -8   6    5.33    0.58
   7  -8   6    0.13    0.20
   7  -8   6    0.20    0.21
   7  -8   6    0.06    0.21
   7  -8   6    0.50    0.25
   5   7  -6    7.20    0.70
   5   7  -6    7.30    0.68
   5   7  -6    9.25    0.68
   4   7  -6    5.08    0.56
   4   7  -6    4.75    0.56
   4   7  -6    4.52    0.54
   3   7  -6   11.53    0.71
   3   7  -6   11.43    0.68
   2   7  -6    0.13    0.17
   2   7  -6   -0.35    0.13
   2   7  -6    0.04    0.19
   1   7  -6    4.66    0.51
   1   7  -6    2.89    0.42
  -1  -7   6    2.91    0.39
  -1  -7   6    3.93    0.46
   0   7  -6    2.17    0.37
   0   7  -6    1.78    0.33
   0   7  -6    1.59    0.28
   0  -7   6    2.07    0.33
   0  -7   6    2.30    0.36
   0  -7   6    2.42    0.37
  -1   7  -6    0.81    0.21
  -1   7  -6    0.56    0.23
  -1   7  -6    0.78    0.25
   1  -7   6    0.75    0.25
   1  -7   6    0.94    0.26
   1  -7   6    0.95    0.27
  -2   7  -6    4.21    0.43
  -2   7  -6    3.38    0.43
   2  -7   6    3.22    0.39
   2  -7   6    3.11    0.38
   2  -7   6    4.01    0.46
   2  -7   6    3.16    0.34
  -3   7  -6    0.34    0.19
   3  -7   6    0.36    0.20
   3  -7   6    0.28    0.18
   3  -7   6    0.35    0.19
   3  -7   6    0.51    0.18
  -4   7  -6    3.18    0.39
   4  -7   6    3.22    0.40
   4  -7   6    3.24    0.42
   4  -7   6    3.80    0.43
   4  -7   6    3.31    0.43
   5  -7   6   46.36    1.39
   5  -7   6   47.12    1.35
   5  -7   6   46.49    1.36
   5  -7   6   48.99    1.42
   6  -7   6    1.54    0.32
   6  -7   6    0.71    0.26
   6  -7   6    1.34    0.34
   6  -7   6    1.41    0.34
   7  -7   6    1.39    0.32
   7  -7   6    1.31    0.35
   7  -7   6    1.58    0.36
   7  -7   6    1.18    0.29
   8  -7   6    0.21    0.25
   8  -7   6    0.09    0.22
   8  -7   6   -0.13    0.17
   8  -7   6   -0.03    0.20
   6   6  -6    0.55    0.26
   6   6  -6    0.32    0.24
   6   6  -6    0.15    0.21
   5   6  -6   -0.01    0.18
   5   6  -6    0.17    0.20
   5   6  -6    0.31    0.20
   4   6  -6    0.16    0.18
   4   6  -6    0.24    0.20
   4   6  -6    0.72    0.26
   3   6  -6   15.37    0.77
   3   6  -6   16.44    0.78
   2   6  -6   24.63    0.95
   2   6  -6   26.11    0.91
   2   6  -6   26.33    0.97
  -2  -6   6   26.20    1.34
  -2  -6   6   24.59    0.92
   1   6  -6   15.58    0.74
   1   6  -6   16.37    0.70
   1   6  -6   17.24    0.77
  -1  -6   6   16.55    0.71
   0   6  -6    0.83    0.21
   0   6  -6    0.81    0.24
   0   6  -6    1.23    0.26
   0  -6   6    0.95    0.23
   0  -6   6    0.88    0.23
  -1   6  -6   21.53    0.81
  -1   6  -6   21.72    0.77
  -1   6  -6   18.71    0.80
   1  -6   6   22.07    0.66
   1  -6   6   21.33    0.81
   1  -6   6   19.85    0.79
   1  -6   6   21.48    0.82
  -2   6  -6    4.05    0.42
  -2   6  -6    3.57    0.36
  -2   6  -6    3.93    0.40
   2  -6   6    3.61    0.40
   2  -6   6    3.89    0.40
   2  -6   6    4.05    0.41
   2  -6   6    4.39    0.33
  -3   6  -6   14.56    0.62
  -3   6  -6   15.31    0.66
  -3   6  -6   14.31    0.68
   3  -6   6   14.83    0.69
   3  -6   6   13.54    0.65
   3  -6   6   14.22    0.68
   3  -6   6   14.93    0.62
  -4   6  -6    7.59    0.47
   4  -6   6    8.29    0.52
   4  -6   6    7.80    0.52
   4  -6   6    6.85    0.51
   4  -6   6    7.23    0.47
   5  -6   6    0.18    0.18
   5  -6   6    0.06    0.17
   5  -6   6    0.12    0.17
   5  -6   6   -0.09    0.13
   6  -6   6   11.27    0.68
   6  -6   6   11.56    0.69
   6  -6   6    9.97    0.63
   6  -6   6   11.86    0.65
   7  -6   6   12.45    0.76
   7  -6   6   13.00    0.68
   7  -6   6   14.03    0.76
   7  -6   6   12.51    0.76
   8  -6   6    2.98    0.44
   8  -6   6    3.79    0.46
   8  -6   6    2.47    0.45
   7   5  -6    0.06    0.19
   7   5  -6    0.54    0.24
   6   5  -6    2.26    0.39
   6   5  -6    3.15    0.43
   6   5  -6    2.83    0.42
   5   5  -6    8.85    0.58
   5   5  -6    7.46    0.53
   5   5  -6    8.71    0.59
   4   5  -6    0.21    0.17
   4   5  -6   -0.08    0.13
   3   5  -6    1.05    0.25
   3   5  -6    1.10    0.25
   3   5  -6    1.01    0.23
   2   5  -6    4.23    0.42
   2   5  -6    3.88    0.42
   2   5  -6    4.32    0.41
  -2  -5   6    3.76    0.37
  -2  -5   6    4.13    0.41
   1   5  -6    3.54    0.38
   1   5  -6    3.58    0.35
   1   5  -6    4.44    0.43
  -1  -5   6    3.77    0.38
   0   5  -6    6.71    0.42
   0   5  -6    6.93    0.45
   0   5  -6    7.30    0.46
   0  -5   6    6.40    0.42
   0  -5   6    5.89    0.42
   0  -5   6    6.29    0.43
  -1   5  -6    4.82    0.36
  -1   5  -6    4.81    0.39
  -1   5  -6    4.66    0.37
   1  -5   6    3.98    0.40
   1  -5   6    4.34    0.39
   1  -5   6    4.87    0.38
   1  -5   6    4.61    0.28
  -2   5  -6    2.14    0.28
  -2   5  -6    1.67    0.24
  -2   5  -6    1.76    0.28
   2  -5   6    2.60    0.33
   2  -5   6    2.16    0.25
   2  -5   6    2.15    0.30
   2  -5   6    1.62    0.26
  -3   5  -6   16.42    0.62
  -3   5  -6   15.97    0.69
  -3   5  -6   14.57    0.60
   3  -5   6   16.11    0.61
   3  -5   6   15.41    0.67
   3  -5   6   15.82    0.67
   3  -5   6   16.51    0.69
  -4   5  -6    6.89    0.40
   4  -5   6    6.79    0.45
   4  -5   6    8.37    0.52
   4  -5   6    6.84    0.46
   4  -5   6    6.00    0.43
   5  -5   6    8.06    0.52
   5  -5   6    8.10    0.53
   5  -5   6    8.07    0.54
   5  -5   6    7.66    0.51
   6  -5   6    1.51    0.29
   6  -5   6    1.56    0.30
   6  -5   6    1.27    0.28
   6  -5   6    1.02    0.28
   7  -5   6    4.24    0.47
   7  -5   6    4.46    0.48
   7  -5   6    3.68    0.48
   8  -5   6    0.21    0.18
   8  -5   6    0.20    0.20
   8  -5   6    0.23    0.23
   9  -5   6    0.33    0.29
   8   4  -6    0.18    0.21
   8   4  -6    0.07    0.20
   7   4  -6    0.17    0.18
   7   4  -6    0.02    0.17
   6   4  -6   -0.02    0.15
   6   4  -6   -0.08    0.15
   6   4  -6   -0.02    0.15
   5   4  -6    0.59    0.22
   5   4  -6    0.54    0.21
   4   4  -6    7.54    0.50
   4   4  -6    7.42    0.45
   4   4  -6    7.35    0.48
   3   4  -6   17.66    0.66
   3   4  -6   18.09    0.71
   3   4  -6   16.89    0.71
   2   4  -6    2.58    0.32
   2   4  -6    2.65    0.35
   2   4  -6    2.79    0.31
  -2  -4   6    2.67    0.28
  -2  -4   6    1.88    0.26
   1   4  -6    0.65    0.18
   1   4  -6    0.57    0.17
   1   4  -6    0.94    0.19
  -1  -4   6    0.81    0.18
  -1  -4   6    0.49    0.16
   0   4  -6    1.46    0.23
   0   4  -6    1.66    0.25
   0   4  -6    1.54    0.25
   0  -4   6    1.53    0.23
   0  -4   6    1.48    0.23
   0  -4   6    1.54    0.24
   0  -4   6    1.95    0.16
  -1   4  -6   17.00    0.61
  -1   4  -6   16.79    0.62
  -1   4  -6   17.27    0.66
   1  -4   6   17.88    0.65
   1  -4   6   17.64    0.50
   1  -4   6   17.38    0.52
   1  -4   6   18.04    0.65
   1  -4   6   15.86    0.63
  -2   4  -6    0.03    0.10
  -2   4  -6    0.04    0.11
  -2   4  -6   -0.04    0.10
   2  -4   6    0.06    0.10
   2  -4   6   -0.06    0.12
   2  -4   6    0.21    0.13
   2  -4   6    0.03    0.12
   2  -4   6    0.05    0.07
  -3   4  -6   14.82    0.57
  -3   4  -6   15.18    0.63
  -3   4  -6   14.65    0.54
   3  -4   6   16.45    0.60
   3  -4   6   14.98    0.63
   3  -4   6   15.42    0.64
   3  -4   6   15.71    0.64
  -4   4  -6   19.38    0.74
  -4   4  -6   20.57    0.68
  -4   4  -6   20.00    0.61
   4  -4   6   18.89    0.73
   4  -4   6   19.54    0.74
   4  -4   6   19.65    0.72
   4  -4   6   18.58    0.74
   5  -4   6    4.23    0.45
   5  -4   6    4.32    0.43
   5  -4   6    4.60    0.44
   5  -4   6    5.29    0.47
   6  -4   6   10.03    0.62
   6  -4   6   10.13    0.59
   6  -4   6   11.12    0.60
   7  -4   6    7.42    0.58
   7  -4   6    6.63    0.52
   7  -4   6    6.84    0.50
   8  -4   6    6.03    0.57
   8  -4   6    6.30    0.65
   8  -4   6    5.84    0.55
   9  -4   6    5.15    0.53
   9  -4   6    5.02    0.62
   9  -4   6    4.67    0.53
   8   3  -6   -0.11    0.15
   8   3  -6    0.40    0.20
  -8  -3   6    0.22    0.25
   7   3  -6    4.53    0.50
   7   3  -6    5.47    0.42
   7   3  -6    5.30    0.43
   6   3  -6   -0.12    0.15
   6   3  -6    0.03    0.14
   6   3  -6    0.13    0.14
   5   3  -6    9.01    0.54
   5   3  -6    8.79    0.47
   5   3  -6    8.33    0.48
   4   3  -6   28.62    0.95
   4   3  -6   30.37    0.89
   4   3  -6   31.32    0.87
   3   3  -6   18.82    0.64
   3   3  -6   17.18    0.64
   3   3  -6   18.29    0.70
   2   3  -6    0.02    0.09
   2   3  -6    0.19    0.13
   2   3  -6    0.06    0.12
  -2  -3   6    0.08    0.10
  -2  -3   6    0.01    0.08
   1   3  -6    0.15    0.12
   1   3  -6    0.18    0.12
   1   3  -6    0.11    0.09
  -1  -3   6   -0.10    0.09
  -1  -3   6    0.01    0.09
   0   3  -6   11.52    0.51
   0   3  -6   13.08    0.52
   0   3  -6   11.67    0.48
   0  -3   6   12.03    0.46
   0  -3   6   12.37    0.32
   0  -3   6   12.16    0.51
   0  -3   6   11.82    0.49
   0  -3   6   11.80    0.49
  -1   3  -6   65.44    1.43
  -1   3  -6   68.54    1.38
  -1   3  -6   67.78    1.37
   1  -3   6   69.84    1.42
   1  -3   6   68.60    1.42
   1  -3   6   68.99    1.27
   1  -3   6   67.87    1.21
   1  -3   6   67.78    1.41
  -2   3  -6   20.89    0.66
  -2   3  -6   22.77    0.73
  -2   3  -6   22.18    0.64
   2  -3   6   21.79    0.71
   2  -3   6   21.45    0.70
   2  -3   6   20.96    0.70
   2  -3   6   21.04    0.55
   2  -3   6   22.20    0.62
  -3   3  -6   35.35    0.82
  -3   3  -6   35.07    0.90
  -3   3  -6   36.18    0.99
   3  -3   6   35.20    0.97
   3  -3   6   36.01    0.98
   3  -3   6   34.23    0.96
  -4   3  -6   27.66    0.87
  -4   3  -6   27.95    0.79
   4  -3   6   27.66    0.88
   4  -3   6   27.73    0.88
   4  -3   6   26.86    0.86
   5  -3   6   11.24    0.58
   5  -3   6   12.21    0.61
   5  -3   6   10.67    0.55
   6  -3   6    4.41    0.46
   6  -3   6    4.16    0.44
   6  -3   6    3.41    0.40
   7  -3   6    0.45    0.21
   7  -3   6    0.10    0.18
   7  -3   6    0.74    0.27
   8  -3   6    0.07    0.18
   8  -3   6    0.55    0.28
   8  -3   6    0.32    0.23
   9  -3   6    5.49    0.56
   9  -3   6    5.11    0.56
  -9  -2   6    2.12    0.43
   8   2  -6    2.51    0.29
   8   2  -6    2.82    0.35
  -8  -2   6    1.94    0.37
   7   2  -6    2.51    0.36
   7   2  -6    2.33    0.28
   7   2  -6    2.14    0.29
  -7  -2   6    1.80    0.33
   6   2  -6    1.96    0.26
   6   2  -6    2.58    0.30
   6   2  -6    2.34    0.33
  -6  -2   6    2.15    0.33
   5   2  -6   54.31    1.19
   5   2  -6   54.71    1.20
   5   2  -6   54.77    1.37
  -5  -2   6   53.78    1.32
   4   2  -6   14.31    0.53
   4   2  -6   13.30    0.51
   4   2  -6   13.78    0.61
   3   2  -6    0.24    0.15
   3   2  -6    0.41    0.12
   3   2  -6    0.53    0.14
   2   2  -6    0.18    0.10
   2   2  -6    0.04    0.09
   2   2  -6   -0.18    0.08
  -2  -2   6    0.06    0.08
  -2  -2   6    0.09    0.09
   1   2  -6    2.52    0.26
   1   2  -6    2.34    0.24
   1   2  -6    2.48    0.27
  -1  -2   6    2.43    0.24
  -1  -2   6    2.12    0.22
   0   2  -6   80.95    1.55
   0   2  -6   83.81    1.59
   0   2  -6   82.32    1.54
   0  -2   6   82.64    1.52
   0  -2   6   81.21    1.53
   0  -2   6   80.89    1.54
   0  -2   6   81.76    1.54
  -1   2  -6   28.64    0.77
  -1   2  -6   29.83    0.75
  -1   2  -6   29.47    0.82
   1  -2   6   29.15    0.79
   1  -2   6   30.62    0.81
   1  -2   6   30.66    0.80
   1  -2   6   29.30    0.72
  -2   2  -6    0.19    0.10
  -2   2  -6    0.05    0.11
  -2   2  -6    0.15    0.10
   2  -2   6   -0.02    0.10
   2  -2   6    0.16    0.11
   2  -2   6    0.10    0.11
   2  -2   6    0.09    0.11
  -3   2  -6    4.65    0.34
  -3   2  -6    4.02    0.30
  -3   2  -6    4.52    0.24
   3  -2   6    3.60    0.33
   3  -2   6    3.97    0.32
   3  -2   6    4.59    0.35
  -4   2  -6   10.95    0.48
  -4   2  -6   12.21    0.56
   4  -2   6   10.93    0.53
   4  -2   6   10.31    0.52
   4  -2   6   10.01    0.51
   5  -2   6    5.77    0.44
   5  -2   6    6.19    0.44
   5  -2   6    6.55    0.44
   6  -2   6    0.29    0.18
   6  -2   6    0.52    0.20
   6  -2   6    0.50    0.22
   7  -2   6    5.55    0.51
   7  -2   6    4.69    0.52
   7  -2   6    5.01    0.51
   8  -2   6    0.27    0.21
   8  -2   6    0.06    0.24
   8  -2   6    0.30    0.21
  -9   2  -6    0.01    0.20
   9  -2   6   -0.18    0.16
   9  -2   6    0.08    0.26
   9  -2   6    0.04    0.22
  -9  -1   6    1.64    0.36
   8   1  -6    4.31    0.38
  -8  -1   6    4.18    0.50
   7   1  -6    3.42    0.40
   7   1  -6    3.42    0.26
  -7  -1   6    3.91    0.44
   6   1  -6    6.52    0.45
   6   1  -6    6.24    0.33
   6   1  -6    6.20    0.35
  -6  -1   6    6.51    0.46
   5   1  -6   36.35    0.85
   5   1  -6   36.55    1.04
   5   1  -6   36.29    0.84
  -5  -1   6   36.73    0.99
   4   1  -6   58.29    1.14
   4   1  -6   56.91    1.13
   4   1  -6   57.96    1.34
  -4  -1   6   57.48    1.24
   3   1  -6   12.28    0.53
   3   1  -6   11.51    0.41
   3   1  -6   11.79    0.43
   2   1  -6    1.65    0.18
   2   1  -6    1.27    0.20
   2   1  -6    1.98    0.22
  -2  -1   6    1.95    0.21
  -2  -1   6    1.76    0.18
   1   1  -6   23.37    0.66
   1   1  -6   24.36    0.70
   1   1  -6   23.97    0.64
  -1  -1   6   24.55    0.72
  -1  -1   6   24.36    0.62
  -1  -1   6   23.59    0.64
   0   1  -6    0.83    0.16
   0   1  -6    0.88    0.17
   0   1  -6    0.78    0.14
   0  -1   6    0.69    0.15
   0  -1   6    0.69    0.15
   0  -1   6    1.17    0.18
   0  -1   6    0.83    0.15
  -1   1  -6   14.15    0.46
  -1   1  -6   13.21    0.49
  -1   1  -6   12.99    0.51
   1  -1   6   13.79    0.51
   1  -1   6   14.31    0.49
   1  -1   6   13.34    0.48
   1  -1   6   13.29    0.51
  -2   1  -6   20.28    0.54
  -2   1  -6   20.83    0.65
  -2   1  -6   20.58    0.68
   2  -1   6   20.55    0.66
   2  -1   6   20.59    0.66
   2  -1   6   21.31    0.64
  -3   1  -6   10.44    0.49
  -3   1  -6   10.75    0.34
  -3   1  -6   10.57    0.46
   3  -1   6   10.90    0.50
   3  -1   6   11.17    0.48
   3  -1   6   10.19    0.49
  -4   1  -6    4.11    0.39
  -4   1  -6    2.69    0.29
   4  -1   6    2.95    0.32
   4  -1   6    2.83    0.31
   4  -1   6    3.19    0.35
   5  -1   6    0.40    0.16
   5  -1   6    0.49    0.18
   5  -1   6    0.38    0.18
   6  -1   6   10.24    0.59
   6  -1   6   11.28    0.61
   6  -1   6   11.18    0.64
  -7   1  -6    2.08    0.37
   7  -1   6    1.66    0.35
   7  -1   6    1.93    0.33
   7  -1   6    1.77    0.33
  -8   1  -6    5.09    0.58
   8  -1   6    5.56    0.59
   8  -1   6    5.79    0.57
   8  -1   6    5.62    0.57
  -9   1  -6    0.20    0.22
   9  -1   6    0.22    0.23
   9  -1   6   -0.12    0.18
   9  -1   6    0.15    0.28
   9   0  -6    0.85    0.32
  -9   0   6    1.34    0.34
   8   0  -6    2.31    0.42
  -8   0   6    2.70    0.40
   7   0  -6    1.08    0.20
   7   0  -6    1.21    0.26
   7   0  -6    1.67    0.34
  -7   0   6    1.05    0.25
   6   0  -6    1.55    0.28
   6   0  -6    1.49    0.29
   6   0  -6    1.51    0.18
   6   0  -6    1.53    0.16
  -6   0   6    1.82    0.28
   5   0  -6    3.73    0.22
   5   0  -6    3.62    0.23
   5   0  -6    4.04    0.41
  -5   0   6    3.81    0.34
   4   0  -6    0.39    0.15
   4   0  -6    0.64    0.12
   4   0  -6    0.38    0.12
  -4   0   6    0.50    0.13
   3   0  -6   22.05    0.58
   3   0  -6   23.07    0.72
   3   0  -6   24.30    0.58
   3   0  -6   22.82    0.47
  -3   0   6   23.68    0.59
  -3   0   6   22.59    0.76
   2   0  -6   40.24    0.85
   2   0  -6   41.51    0.88
   2   0  -6   40.66    0.69
   2   0  -6   39.34    0.96
  -2   0   6   41.88    0.86
  -2   0   6   39.37    1.01
   1   0  -6   32.91    0.61
   1   0  -6   32.76    0.78
   1   0  -6   32.49    0.82
   1   0  -6   32.59    0.76
  -1   0   6   33.20    0.73
  -1   0   6   33.61    0.77
  -1   0   6   33.77    0.87
   0   0  -6   29.40    0.73
   0   0  -6   30.17    0.76
   0   0  -6   27.64    0.62
   0   0  -6   28.64    0.73
   0   0   6   27.89    0.67
   0   0   6   29.44    0.72
   0   0   6   27.99    0.73
   0   0   6   29.46    0.78
  -1   0  -6   42.12    0.90
  -1   0  -6   43.12    0.98
  -1   0  -6   43.76    1.02
   1   0   6   42.88    0.99
   1   0   6   44.62    0.99
   1   0   6   42.98    1.00
   1   0   6   42.78    0.90
  -2   0  -6   67.98    1.42
  -2   0  -6   66.98    1.37
  -2   0  -6   67.55    1.20
   2   0   6   68.43    1.31
   2   0   6   66.80    1.40
   2   0   6   66.96    1.39
  -3   0  -6   37.53    1.00
  -3   0  -6   34.80    0.70
  -3   0  -6   36.18    0.94
   3   0   6   36.57    0.98
   3   0   6   35.89    0.96
   3   0   6   34.75    0.90
  -4   0  -6    0.27    0.13
  -4   0  -6    0.19    0.15
   4   0   6    0.07    0.12
   4   0   6    0.32    0.15
   4   0   6    0.42    0.17
  -5   0  -6    2.50    0.42
   5   0   6    2.51    0.33
   5   0   6    2.88    0.35
   5   0   6    2.71    0.37
  -6   0  -6    2.32    0.34
   6   0   6    1.60    0.31
   6   0   6    1.84    0.31
   6   0   6    1.66    0.31
  -7   0  -6   -0.09    0.15
   7   0   6   -0.22    0.17
   7   0   6   -0.14    0.18
   7   0   6   -0.31    0.15
  -8   0  -6   29.29    1.12
   8   0   6   29.11    1.18
   8   0   6   28.01    1.12
   8   0   6   27.99    1.10
  -9   0  -6    8.26    0.79
   9   0   6    6.98    0.73
   9  -1  -6   -0.12    0.18
  -9   1   6    0.09    0.17
   8  -1  -6    0.49    0.24
  -8   1   6    0.67    0.23
   7  -1  -6    0.78    0.23
   7  -1  -6    1.16    0.28
  -7   1   6    1.57    0.27
   6  -1  -6   19.88    0.76
   6  -1  -6   19.99    0.56
   6  -1  -6   20.62    0.81
  -6   1   6   20.01    0.71
   5  -1  -6    7.40    0.45
   5  -1  -6    7.27    0.22
   5  -1  -6    7.73    0.36
   5  -1  -6    6.37    0.42
   5  -1  -6    6.95    0.27
  -5   1   6    7.15    0.38
   4  -1  -6    4.23    0.34
   4  -1  -6    3.91    0.20
   4  -1  -6    3.89    0.24
   4  -1  -6    3.56    0.20
  -4   1   6    3.28    0.36
  -4   1   6    3.54    0.24
   3  -1  -6    2.86    0.19
   3  -1  -6    3.47    0.21
   3  -1  -6    3.14    0.31
   3  -1  -6    3.27    0.20
  -3   1   6    2.95    0.33
  -3   1   6    3.22    0.19
   2  -1  -6    5.00    0.33
   2  -1  -6    5.56    0.24
   2  -1  -6    4.87    0.26
   2  -1  -6    4.81    0.24
  -2   1   6    4.85    0.33
  -2   1   6    5.06    0.26
   1  -1  -6    0.52    0.11
   1  -1  -6    0.69    0.13
   1  -1  -6    0.89    0.16
   1  -1  -6    0.39    0.12
  -1   1   6    0.66    0.16
  -1   1   6    0.67    0.12
  -1   1   6    0.47    0.12
  -1   1   6    0.40    0.10
   0  -1  -6   46.32    1.02
   0  -1  -6   45.23    0.93
   0  -1  -6   47.05    1.00
   0  -1  -6   45.24    0.99
   0   1   6   44.45    0.99
   0   1   6   44.56    1.06
   0   1   6   46.56    0.97
   0   1   6   45.95    0.87
  -1  -1  -6   62.66    1.29
  -1  -1  -6   65.32    1.35
  -1  -1  -6   62.67    1.26
  -1  -1  -6   63.90    1.21
   1   1   6   64.19    1.32
   1   1   6   65.09    1.17
   1   1   6   66.91    1.31
  -2  -1  -6    9.39    0.33
  -2  -1  -6    9.23    0.46
  -2  -1  -6    8.92    0.42
  -2  -1  -6    9.51    0.35
   2   1   6    9.41    0.38
   2   1   6    9.12    0.46
   2   1   6    9.31    0.45
  -3  -1  -6   26.61    0.69
  -3  -1  -6   26.15    0.79
  -3  -1  -6   27.56    0.85
  -3  -1  -6   24.58    0.58
   3   1   6   25.44    0.81
   3   1   6   25.72    0.83
   3   1   6   26.74    0.74
  -4  -1  -6   17.43    0.60
  -4  -1  -6   16.12    0.64
  -4  -1  -6   15.81    0.67
   4   1   6   14.81    0.60
   4   1   6   17.21    0.69
   4   1   6   17.41    0.71
  -5  -1  -6    0.39    0.18
  -5  -1  -6    0.21    0.15
   5   1   6    0.62    0.22
   5   1   6    0.64    0.22
   5   1   6    0.36    0.18
  -6  -1  -6    0.58    0.20
   6   1   6    0.63    0.24
   6   1   6    0.42    0.22
   6   1   6    0.41    0.21
  -7  -1  -6   27.52    1.02
   7   1   6   25.76    1.04
   7   1   6   27.15    1.06
   7   1   6   26.88    1.06
  -8  -1  -6   13.35    0.78
   8   1   6   13.06    0.79
   8   1   6   13.58    0.81
   8   1   6   14.07    0.84
   9  -2  -6    0.59    0.26
  -9   2   6    0.60    0.23
   8  -2  -6    2.41    0.40
   8  -2  -6    1.76    0.30
  -8   2   6    1.80    0.30
   7  -2  -6   12.15    0.62
   7  -2  -6   13.77    0.70
  -7   2   6   12.46    0.69
  -7   2   6   12.13    0.59
   6  -2  -6    0.77    0.19
   6  -2  -6    0.70    0.20
   6  -2  -6    0.55    0.20
  -6   2   6    0.59    0.22
  -6   2   6    0.76    0.19
   5  -2  -6    0.14    0.15
   5  -2  -6    0.19    0.06
   5  -2  -6    0.18    0.11
   5  -2  -6    0.12    0.13
  -5   2   6    0.14    0.11
  -5   2   6    0.27    0.16
   4  -2  -6    3.14    0.25
   4  -2  -6    3.57    0.19
   4  -2  -6    3.49    0.36
   4  -2  -6    3.80    0.18
  -4   2   6    3.55    0.36
  -4   2   6    3.33    0.23
   3  -2  -6    0.83    0.12
   3  -2  -6    0.77    0.14
   3  -2  -6    0.93    0.13
   3  -2  -6    0.94    0.18
  -3   2   6    0.61    0.16
  -3   2   6    1.21    0.12
   2  -2  -6    1.04    0.19
   2  -2  -6    0.81    0.14
   2  -2  -6    0.73    0.13
  -2   2   6    1.01    0.15
  -2   2   6    0.52    0.17
   1  -2  -6    1.16    0.18
   1  -2  -6    1.48    0.19
   1  -2  -6    1.60    0.19
   1  -2  -6    1.40    0.20
  -1   2   6    1.37    0.13
  -1   2   6    1.30    0.23
  -1   2   6    1.61    0.17
  -1   2   6    1.60    0.20
   0  -2  -6   56.42    1.17
   0  -2  -6   56.74    1.20
   0  -2  -6   58.14    1.18
   0  -2  -6   56.65    1.19
   0   2   6   58.25    1.20
   0   2   6   57.04    0.96
   0   2   6   55.89    1.29
   0   2   6   57.70    1.16
  -1  -2  -6   14.47    0.54
  -1  -2  -6   13.66    0.54
  -1  -2  -6   14.62    0.34
  -1  -2  -6   14.62    0.49
  -1  -2  -6   13.23    0.52
   1   2   6   15.07    0.55
   1   2   6   14.55    0.41
   1   2   6   15.08    0.57
  -2  -2  -6    0.29    0.13
  -2  -2  -6    0.72    0.14
  -2  -2  -6    0.73    0.17
  -2  -2  -6    0.55    0.17
  -2  -2  -6    0.44    0.10
   2   2   6    0.28    0.15
   2   2   6    0.47    0.16
   2   2   6    0.44    0.12
  -3  -2  -6    9.61    0.52
  -3  -2  -6    9.81    0.49
  -3  -2  -6    8.58    0.49
  -3  -2  -6    9.08    0.39
   3   2   6    9.67    0.51
   3   2   6   10.36    0.44
   3   2   6    9.61    0.52
  -4  -2  -6    0.42    0.16
  -4  -2  -6    1.14    0.21
  -4  -2  -6    1.00    0.23
   4   2   6    0.39    0.19
   4   2   6    0.39    0.19
   4   2   6    0.40    0.16
  -5  -2  -6    3.95    0.39
  -5  -2  -6    3.45    0.47
   5   2   6    3.47    0.42
   5   2   6    3.81    0.46
   5   2   6    3.35    0.38
  -6  -2  -6    3.74    0.41
   6   2   6    3.88    0.48
   6   2   6    3.93    0.49
   6   2   6    4.44    0.47
  -7  -2  -6    3.92    0.46
   7   2   6    3.47    0.47
   7   2   6    3.18    0.44
   7   2   6    3.25    0.47
  -8  -2  -6    6.55    0.65
   8   2   6    5.29    0.61
   8   2   6    5.72    0.63
   8   2   6    6.00    0.63
   9  -3  -6    4.54    0.56
   8  -3  -6    0.66    0.25
   8  -3  -6    0.35    0.21
  -8   3   6    0.54    0.24
   7  -3  -6    1.80    0.32
   7  -3  -6    2.50    0.38
   7  -3  -6    2.20    0.34
  -7   3   6    2.24    0.38
  -7   3   6    2.13    0.34
  -7   3   6    3.18    0.39
   6  -3  -6    0.83    0.21
   6  -3  -6    0.82    0.21
   6  -3  -6    1.48    0.28
  -6   3   6    0.75    0.23
  -6   3   6    0.98    0.21
   5  -3  -6    0.28    0.14
   5  -3  -6    0.51    0.19
   5  -3  -6    0.28    0.07
   5  -3  -6    0.30    0.14
  -5   3   6    0.52    0.17
  -5   3   6    0.38    0.17
   4  -3  -6    0.71    0.10
   4  -3  -6    0.67    0.11
   4  -3  -6    0.56    0.18
   4  -3  -6    0.68    0.16
  -4   3   6    0.93    0.22
   3  -3  -6    7.66    0.44
   3  -3  -6    8.57    0.33
   3  -3  -6    8.98    0.41
   3  -3  -6    8.16    0.32
  -3   3   6    7.88    0.46
   2  -3  -6   25.42    0.66
   2  -3  -6   24.46    0.65
   2  -3  -6   24.13    0.76
   2  -3  -6   25.90    0.71
  -2   3   6   23.66    0.80
   1  -3  -6    4.86    0.33
   1  -3  -6    4.67    0.31
   1  -3  -6    4.67    0.30
   1  -3  -6    4.53    0.29
  -1   3   6    4.04    0.26
  -1   3   6    4.55    0.30
  -1   3   6    5.08    0.38
   0  -3  -6    5.10    0.34
   0  -3  -6    4.55    0.31
   0  -3  -6    4.41    0.31
   0  -3  -6    4.75    0.32
   0   3   6    4.70    0.33
   0   3   6    4.13    0.29
  -1  -3  -6    0.85    0.19
  -1  -3  -6    1.05    0.18
  -1  -3  -6    0.61    0.16
  -1  -3  -6    1.00    0.20
   1   3   6    0.99    0.20
   1   3   6    1.17    0.21
  -2  -3  -6    2.13    0.20
  -2  -3  -6    2.44    0.30
  -2  -3  -6    2.58    0.31
  -2  -3  -6    2.50    0.31
   2   3   6    3.06    0.34
   2   3   6    2.54    0.31
   2   3   6    3.84    0.24
  -3  -3  -6    0.04    0.13
  -3  -3  -6    0.08    0.10
  -3  -3  -6    0.00    0.11
  -3  -3  -6    0.15    0.17
   3   3   6    0.06    0.11
   3   3   6    0.07    0.16
   3   3   6    0.33    0.17
  -4  -3  -6    0.29    0.14
  -4  -3  -6    0.22    0.20
  -4  -3  -6    0.39    0.17
  -4  -3  -6    0.57    0.21
   4   3   6    0.21    0.15
   4   3   6    0.47    0.22
   4   3   6    0.35    0.18
  -5  -3  -6    5.11    0.53
  -5  -3  -6    5.43    0.41
   5   3   6    5.17    0.53
   5   3   6    5.55    0.54
   5   3   6    4.81    0.44
  -6  -3  -6    1.65    0.37
  -6  -3  -6    1.18    0.26
   6   3   6    1.26    0.29
   6   3   6    2.23    0.40
   6   3   6    1.64    0.34
  -7  -3  -6    0.20    0.28
  -7  -3  -6    0.33    0.21
   7   3   6    0.22    0.39
   7   3   6    0.31    0.24
   7   3   6    0.49    0.24
   8  -4  -6    3.60    0.44
  -8   4   6    2.58    0.39
  -8   4   6    2.88    0.48
   7  -4  -6    4.88    0.49
   7  -4  -6    5.55    0.52
  -7   4   6    4.98    0.50
  -7   4   6    5.83    0.48
   6  -4  -6    0.32    0.17
   6  -4  -6    0.43    0.20
  -6   4   6    0.37    0.19
  -6   4   6    0.15    0.17
   5  -4  -6    3.51    0.41
   5  -4  -6    3.12    0.35
   5  -4  -6    2.92    0.19
  -5   4   6    3.39    0.40
   4  -4  -6   10.49    0.34
   4  -4  -6   11.73    0.57
   4  -4  -6   11.52    0.39
   4  -4  -6   11.68    0.53
  -4   4   6   10.28    0.56
   3  -4  -6   34.19    0.99
   3  -4  -6   33.77    0.80
   3  -4  -6   33.72    0.78
   3  -4  -6   34.51    0.94
  -3   4   6   33.70    1.01
   2  -4  -6    0.20    0.11
   2  -4  -6    0.01    0.11
   2  -4  -6    0.31    0.11
   2  -4  -6    0.17    0.13
  -2   4   6    0.25    0.16
   1  -4  -6    3.49    0.34
   1  -4  -6    3.47    0.28
   1  -4  -6    3.60    0.33
   1  -4  -6    3.28    0.34
   0  -4  -6    1.33    0.21
   0  -4  -6    1.50    0.24
   0  -4  -6    1.57    0.24
   0  -4  -6    1.84    0.28
   0   4   6    1.35    0.23
   0   4   6    1.31    0.20
  -1  -4  -6    0.32    0.15
  -1  -4  -6    0.29    0.14
  -1  -4  -6    0.32    0.16
   1   4   6    0.37    0.16
   1   4   6    0.25    0.16
  -2  -4  -6    0.43    0.18
  -2  -4  -6    0.15    0.18
  -2  -4  -6    0.19    0.13
   2   4   6    0.70    0.23
   2   4   6    0.48    0.19
  -3  -4  -6    0.26    0.17
  -3  -4  -6    0.15    0.15
  -3  -4  -6    0.51    0.22
   3   4   6    0.27    0.21
   3   4   6    0.59    0.21
  -4  -4  -6    1.20    0.27
  -4  -4  -6    1.94    0.34
  -4  -4  -6    1.66    0.34
  -4  -4  -6    1.01    0.30
   4   4   6    0.96    0.28
   4   4   6    1.41    0.30
  -5  -4  -6    0.52    0.27
  -5  -4  -6    0.73    0.31
   5   4   6    1.03    0.31
   5   4   6    1.18    0.29
  -6  -4  -6    6.83    0.71
   6   4   6    7.31    0.68
   6   4   6    8.87    0.67
  -7  -4  -6    0.13    0.26
   7   4   6    0.35    0.28
   7   4   6    0.75    0.32
   8  -5  -6    1.52    0.33
   8  -5  -6    1.51    0.33
  -8   5   6    1.80    0.36
   7  -5  -6    0.68    0.24
   7  -5  -6    0.15    0.19
  -7   5   6    0.28    0.22
  -7   5   6    0.12    0.18
   6  -5  -6   14.80    0.71
   6  -5  -6   15.46    0.74
  -6   5   6   16.37    0.74
  -6   5   6   14.62    0.73
   5  -5  -6   47.24    0.83
   5  -5  -6   46.45    0.97
   5  -5  -6   49.51    1.34
   5  -5  -6   46.62    1.26
  -5   5   6   46.64    1.32
  -5   5   6   48.08    1.30
   4  -5  -6    0.10    0.09
   4  -5  -6    0.02    0.14
   4  -5  -6    0.22    0.10
   4  -5  -6    0.17    0.17
  -4   5   6    0.00    0.16
  -4   5   6    0.08    0.17
   3  -5  -6    0.51    0.19
   3  -5  -6    0.52    0.14
   3  -5  -6    0.65    0.15
   3  -5  -6    0.69    0.19
  -3   5   6    0.79    0.23
   2  -5  -6   43.97    1.17
   2  -5  -6   42.94    1.14
   2  -5  -6   41.50    1.04
   2  -5  -6   43.63    1.05
   1  -5  -6   28.83    0.92
   1  -5  -6   29.34    0.91
   1  -5  -6   26.77    0.84
   1  -5  -6   28.38    0.85
   0  -5  -6    4.37    0.41
   0  -5  -6    3.52    0.36
   0  -5  -6    3.59    0.39
   0   5   6    4.19    0.51
  -1  -5  -6    0.01    0.12
  -1  -5  -6    0.05    0.12
  -1  -5  -6    0.01    0.15
   1   5   6   -0.02    0.14
   1   5   6    0.14    0.13
   1   5   6   -0.03    0.13
  -2  -5  -6    8.64    0.54
  -2  -5  -6    7.54    0.51
  -2  -5  -6    8.42    0.56
   2   5   6    7.74    0.54
   2   5   6    7.80    0.44
   2   5   6    8.95    0.54
  -3  -5  -6   15.86    0.78
  -3  -5  -6   13.76    0.70
  -3  -5  -6   14.79    0.73
   3   5   6   14.19    0.74
   3   5   6   14.24    0.73
  -4  -5  -6    2.91    0.43
  -4  -5  -6    3.03    0.45
  -4  -5  -6    3.52    0.44
   4   5   6    3.92    0.48
   4   5   6    3.20    0.44
  -5  -5  -6    0.46    0.27
   5   5   6    0.22    0.25
   5   5   6    1.05    0.32
  -6  -5  -6    1.64    0.41
   6   5   6    1.22    0.35
   6   5   6    1.83    0.40
   8  -6  -6   -0.13    0.16
   8  -6  -6    0.29    0.22
  -8   6   6    0.48    0.25
   7  -6  -6    2.00    0.35
   7  -6  -6    2.02    0.39
  -7   6   6    1.90    0.38
   6  -6  -6    8.03    0.59
   6  -6  -6    8.15    0.56
  -6   6   6    7.09    0.56
  -6   6   6    6.93    0.60
   5  -6  -6    0.42    0.22
   5  -6  -6    0.84    0.25
   5  -6  -6    0.46    0.11
   5  -6  -6    0.21    0.12
  -5   6   6    0.23    0.19
  -5   6   6    0.49    0.22
   4  -6  -6    0.76    0.25
   4  -6  -6    0.62    0.22
   4  -6  -6    0.73    0.16
   4  -6  -6    0.67    0.17
  -4   6   6    0.42    0.22
  -4   6   6    1.04    0.26
   3  -6  -6    1.03    0.20
   3  -6  -6    1.21    0.22
   3  -6  -6    1.58    0.29
   3  -6  -6    1.37    0.28
  -3   6   6    1.15    0.27
   2  -6  -6    5.36    0.39
   2  -6  -6    5.28    0.44
   2  -6  -6    6.06    0.40
  -2   6   6    5.73    0.52
   1  -6  -6    0.85    0.22
   1  -6  -6    0.87    0.21
   1  -6  -6    0.98    0.23
  -1   6   6    0.82    0.24
   0  -6  -6    2.62    0.38
   0  -6  -6    2.77    0.36
   0  -6  -6    3.08    0.37
   0   6   6    3.17    0.37
  -1  -6  -6   40.21    1.22
  -1  -6  -6   39.95    1.19
  -1  -6  -6   40.30    1.24
   1   6   6   38.90    1.08
   1   6   6   38.49    1.46
  -2  -6  -6   10.44    0.63
  -2  -6  -6   10.11    0.63
  -2  -6  -6   10.00    0.64
   2   6   6   11.93    0.65
   2   6   6   10.86    0.66
  -3  -6  -6    2.60    0.42
  -3  -6  -6    1.87    0.34
  -3  -6  -6    1.77    0.34
   3   6   6    2.77    0.41
   3   6   6    2.41    0.39
  -4  -6  -6    0.52    0.28
  -4  -6  -6    0.72    0.25
  -4  -6  -6    0.38    0.23
   4   6   6    0.51    0.25
   4   6   6    0.55    0.29
  -5  -6  -6   -0.02    0.22
   5   6   6    0.18    0.24
   5   6   6    0.34    0.28
   8  -7  -6    0.08    0.22
  -8   7   6    0.34    0.24
   7  -7  -6    3.19    0.46
  -7   7   6    2.53    0.43
   6  -7  -6    6.62    0.64
  -6   7   6    4.70    0.55
   5  -7  -6    6.34    0.41
   5  -7  -6    6.42    0.34
   5  -7  -6    7.11    0.65
  -5   7   6    6.18    0.61
   4  -7  -6    5.00    0.51
   4  -7  -6    5.16    0.35
   4  -7  -6    5.53    0.39
  -4   7   6    3.71    0.46
   3  -7  -6   18.21    0.72
   3  -7  -6   17.90    0.68
   3  -7  -6   16.97    0.80
  -3   7   6   17.73    0.82
   2  -7  -6   -0.03    0.12
   2  -7  -6    0.10    0.15
   2  -7  -6   -0.08    0.15
  -2   7   6    0.05    0.18
   1  -7  -6    0.27    0.20
   1  -7  -6    0.20    0.16
   1  -7  -6    0.26    0.17
  -1   7   6    0.19    0.19
   0  -7  -6    0.17    0.16
   0  -7  -6    0.17    0.19
   0  -7  -6   -0.02    0.14
   0   7   6    0.27    0.19
  -1  -7  -6    2.06    0.37
  -1  -7  -6    2.94    0.43
  -1  -7  -6    2.16    0.37
   1   7   6    2.13    0.34
  -2  -7  -6    7.79    0.58
  -2  -7  -6    8.51    0.60
  -2  -7  -6    7.50    0.61
  -3  -7  -6    7.17    0.69
  -3  -7  -6    6.21    0.63
  -3  -7  -6    6.53    0.63
   3   7   6    5.45    0.62
   3   7   6    6.47    0.64
  -4  -7  -6   11.51    0.78
  -4  -7  -6   10.84    0.73
  -4  -7  -6   10.12    0.72
   4   7   6   10.34    0.80
   4   7   6    9.44    0.71
   7  -8  -6    0.52    0.30
  -7   8   6    0.24    0.27
   6  -8  -6    1.21    0.34
   6  -8  -6    1.43    0.30
  -6   8   6    1.00    0.31
   5  -8  -6   -0.09    0.12
   5  -8  -6   -0.09    0.11
   5  -8  -6    0.36    0.23
  -5   8   6    0.07    0.20
   4  -8  -6    1.78    0.31
   4  -8  -6    1.19    0.24
   4  -8  -6    1.40    0.33
  -4   8   6    1.31    0.33
   3  -8  -6    2.83    0.44
   3  -8  -6    3.49    0.41
   3  -8  -6    3.03    0.38
  -3   8   6    3.19    0.46
   2  -8  -6    0.81    0.24
   2  -8  -6    1.08    0.26
   2  -8  -6    0.69    0.26
  -2   8   6    1.31    0.34
   1  -8  -6    2.00    0.37
   1  -8  -6    2.08    0.36
   1  -8  -6    2.57    0.39
  -1   8   6    2.03    0.37
   0  -8  -6    2.29    0.43
   0  -8  -6    1.69    0.34
   0  -8  -6    2.62    0.40
   0   8   6    2.28    0.38
  -1  -8  -6   10.60    0.69
  -1  -8  -6   10.73    0.71
  -1  -8  -6   12.07    0.76
  -2  -8  -6    5.73    0.60
  -2  -8  -6    5.35    0.61
  -2  -8  -6    6.32    0.65
  -3  -8  -6    1.27    0.33
  -3  -8  -6    1.33    0.37
  -3  -8  -6    1.21    0.34
   6  -9  -6    0.00    0.15
   6  -9  -6    0.02    0.21
  -6   9   6    0.00    0.23
   5  -9  -6    0.39    0.20
   5  -9  -6    0.13    0.16
   5  -9  -6    0.31    0.26
  -5   9   6    0.35    0.28
   4  -9  -6    0.16    0.17
   4  -9  -6    0.24    0.17
   4  -9  -6    0.17    0.22
  -4   9   6    0.18    0.25
   3  -9  -6    0.45    0.19
   3  -9  -6    0.59    0.24
   3  -9  -6    0.65    0.29
  -3   9   6    0.25    0.24
   2  -9  -6    1.29    0.30
   2  -9  -6    0.86    0.32
   2  -9  -6    0.91    0.26
  -2   9   6    0.42    0.27
   1  -9  -6    0.83    0.31
   1  -9  -6    1.61    0.35
   1  -9  -6    1.10    0.30
  -1   9   6    1.30    0.34
   0  -9  -6    2.60    0.45
   0  -9  -6    2.03    0.42
   0  -9  -6    1.97    0.38
   0   9   6    1.97    0.61
  -1  -9  -6    1.76    0.41
  -1  -9  -6    1.46    0.37
  -1  -9  -6    1.64    0.37
  -2  -9  -6    2.31    0.47
  -2  -9  -6    2.28    0.45
  -2  -9  -6    2.86    0.47
   4 -10  -6    3.37    0.44
   4 -10  -6    3.09    0.51
  -4  10   6    2.67    0.46
   3 -10  -6    0.03    0.24
   3 -10  -6    0.01    0.22
   3 -10  -6   -0.05    0.17
  -3  10   6    0.35    0.31
   2 -10  -6    0.12    0.27
   2 -10  -6    0.03    0.20
   2 -10  -6    0.37    0.20
  -2  10   6    0.19    0.25
   1 -10  -6    0.03    0.24
   1 -10  -6   -0.10    0.20
   1 -10  -6   -0.10    0.17
  -1  10   6    0.14    0.27
   0  10  -7    1.26    0.36
   0 -10   7    0.85    0.34
   0 -10   7    1.32    0.38
  -1  10  -7    2.32    0.45
   1 -10   7    1.89    0.41
   1 -10   7    2.45    0.46
   1 -10   7    1.96    0.42
  -2  10  -7    3.86    0.56
   2 -10   7    3.91    0.57
   2 -10   7    5.09    0.65
   2 -10   7    3.56    0.51
  -3  10  -7    0.53    0.29
   3 -10   7    0.87    0.31
   3 -10   7    0.51    0.31
   3 -10   7    0.37    0.26
  -4  10  -7    5.40    0.63
   4 -10   7    6.26    0.70
   4 -10   7    4.04    0.53
   4 -10   7    4.68    0.59
   3   9  -7    0.97    0.35
   3   9  -7    1.86    0.38
   2   9  -7    0.17    0.24
   2   9  -7    0.24    0.25
   2   9  -7    0.11    0.23
  -2  -9   7   -0.35    0.23
   1   9  -7    0.00    0.21
   1   9  -7    0.13    0.23
   1   9  -7   -0.13    0.21
  -1  -9   7   -0.04    0.22
   0   9  -7   -0.25    0.18
   0   9  -7    0.32    0.22
   0   9  -7   -0.26    0.17
   0  -9   7   -0.12    0.23
   0  -9   7   -0.23    0.21
  -1   9  -7    2.31    0.44
  -1   9  -7    2.26    0.42
  -1   9  -7    2.59    0.53
   1  -9   7    2.88    0.46
   1  -9   7    2.34    0.41
   1  -9   7    2.01    0.41
  -2   9  -7    0.69    0.27
   2  -9   7    0.74    0.29
   2  -9   7    0.53    0.25
   2  -9   7   -0.13    0.22
  -3   9  -7   12.30    0.76
   3  -9   7   13.53    0.83
   3  -9   7   12.10    0.75
   3  -9   7   13.39    0.79
  -4   9  -7    2.33    0.42
   4  -9   7    2.61    0.43
   4  -9   7    1.73    0.37
   4  -9   7    2.27    0.43
   5  -9   7   -0.05    0.20
   5  -9   7   -0.02    0.25
   5  -9   7   -0.43    0.17
   5  -9   7   -0.26    0.17
   6  -9   7    2.62    0.44
   6  -9   7    1.98    0.42
   6  -9   7    1.92    0.40
   6  -9   7    2.18    0.41
   4   8  -7    0.17    0.24
   4   8  -7    0.35    0.27
   4   8  -7    0.46    0.29
   3   8  -7    4.53    0.56
   3   8  -7    3.73    0.55
   3   8  -7    5.48    0.60
   2   8  -7    3.58    0.52
   2   8  -7    3.85    0.55
   2   8  -7    3.01    0.43
   1   8  -7    0.00    0.18
   1   8  -7    0.07    0.20
   1   8  -7   -0.10    0.17
  -1  -8   7    0.09    0.22
  -1  -8   7    0.04    0.18
   0   8  -7    0.79    0.27
   0   8  -7    0.25    0.23
   0  -8   7    0.30    0.21
   0  -8   7    0.17    0.22
   0  -8   7    0.14    0.22
  -1   8  -7    1.15    0.31
  -1   8  -7    1.24    0.32
  -1   8  -7    0.91    0.25
   1  -8   7    1.35    0.33
   1  -8   7    1.41    0.33
   1  -8   7    1.83    0.36
  -2   8  -7    0.81    0.26
  -2   8  -7    1.26    0.32
   2  -8   7    0.78    0.28
   2  -8   7    0.56    0.26
   2  -8   7    0.70    0.27
  -3   8  -7    0.07    0.16
   3  -8   7   -0.14    0.17
   3  -8   7    0.02    0.18
   3  -8   7    0.12    0.20
  -4   8  -7    0.33    0.21
   4  -8   7    0.13    0.22
   4  -8   7    0.42    0.22
   4  -8   7    0.53    0.27
   4  -8   7    0.47    0.25
   5  -8   7   -0.19    0.18
   5  -8   7    0.11    0.19
   5  -8   7    0.23    0.20
   5  -8   7    0.17    0.21
   6  -8   7    0.22    0.22
   6  -8   7   -0.19    0.18
   6  -8   7   -0.35    0.18
   6  -8   7   -0.03    0.19
   7  -8   7    0.16    0.22
   7  -8   7    0.00    0.22
   7  -8   7   -0.11    0.19
   7  -8   7   -0.09    0.20
   5   7  -7    0.50    0.28
   5   7  -7    0.16    0.23
   5   7  -7    0.32    0.26
   4   7  -7    1.67    0.35
   4   7  -7    1.86    0.39
   4   7  -7    2.22    0.41
   3   7  -7    6.62    0.59
   3   7  -7    5.91    0.62
   3   7  -7    5.71    0.60
   2   7  -7   12.07    0.68
   2   7  -7   11.36    0.70
   2   7  -7   11.68    0.72
   1   7  -7    1.45    0.32
   1   7  -7    2.03    0.37
   1   7  -7    1.42    0.28
  -1  -7   7    1.27    0.29
  -1  -7   7    1.02    0.29
   0   7  -7   -0.14    0.15
   0   7  -7    0.37    0.19
   0   7  -7    0.02    0.18
   0  -7   7    0.21    0.19
   0  -7   7    0.32    0.21
   0  -7   7    0.07    0.17
  -1   7  -7    6.11    0.47
  -1   7  -7    6.64    0.60
  -1   7  -7    6.87    0.54
   1  -7   7    5.51    0.52
   1  -7   7    6.62    0.54
   1  -7   7    6.31    0.57
  -2   7  -7    5.29    0.49
  -2   7  -7    5.07    0.52
  -2   7  -7    5.36    0.55
   2  -7   7    5.49    0.53
   2  -7   7    5.41    0.52
   2  -7   7    6.53    0.51
  -3   7  -7    9.49    0.59
   3  -7   7   10.49    0.60
   3  -7   7   10.13    0.62
   3  -7   7   10.01    0.63
   3  -7   7    9.59    0.62
  -4   7  -7    3.09    0.39
   4  -7   7    3.26    0.42
   4  -7   7    2.79    0.42
   4  -7   7    3.24    0.44
   4  -7   7    4.57    0.47
   5  -7   7    1.07    0.30
   5  -7   7    0.88    0.28
   5  -7   7    0.93    0.27
   5  -7   7    1.11    0.29
   6  -7   7    0.07    0.20
   6  -7   7   -0.11    0.17
   6  -7   7    0.18    0.22
   6  -7   7   -0.12    0.21
   7  -7   7    5.21    0.60
   7  -7   7    6.56    0.67
   7  -7   7    6.34    0.65
   7  -7   7    6.32    0.62
   6   6  -7    1.48    0.35
   6   6  -7    0.80    0.30
   6   6  -7    1.31    0.34
   5   6  -7   -0.03    0.17
   5   6  -7    0.14    0.19
   5   6  -7    0.13    0.19
   4   6  -7    2.32    0.37
   4   6  -7    2.61    0.40
   4   6  -7    2.58    0.42
   3   6  -7    1.37    0.31
   3   6  -7    1.34    0.31
   3   6  -7    1.49    0.28
   2   6  -7    0.40    0.20
   2   6  -7    0.12    0.17
   2   6  -7    0.28    0.17
   1   6  -7   24.12    0.93
   1   6  -7   22.91    0.86
   1   6  -7   21.61    0.89
  -1  -6   7   22.93    0.88
  -1  -6   7   23.18    0.87
   0   6  -7    8.49    0.52
   0   6  -7    7.63    0.52
   0   6  -7    8.91    0.58
   0  -6   7    7.56    0.54
   0  -6   7    7.73    0.54
   0  -6   7    8.37    0.54
  -1   6  -7    3.68    0.39
  -1   6  -7    3.57    0.42
  -1   6  -7    4.10    0.46
   1  -6   7    4.03    0.46
   1  -6   7    3.80    0.42
   1  -6   7    3.73    0.41
  -2   6  -7    0.55    0.20
  -2   6  -7    1.11    0.24
  -2   6  -7    0.74    0.24
   2  -6   7    0.66    0.23
   2  -6   7    1.03    0.24
   2  -6   7    0.89    0.25
  -3   6  -7   16.58    0.77
  -3   6  -7   14.45    0.65
  -3   6  -7   15.12    0.66
   3  -6   7   13.90    0.71
   3  -6   7   15.14    0.63
   3  -6   7   16.39    0.74
   3  -6   7   14.84    0.72
  -4   6  -7    1.92    0.29
   4  -6   7    1.90    0.32
   4  -6   7    1.38    0.26
   4  -6   7    1.62    0.32
   4  -6   7    1.83    0.33
   5  -6   7   -0.12    0.15
   5  -6   7    0.18    0.18
   5  -6   7    0.05    0.16
   5  -6   7   -0.04    0.16
   6  -6   7   10.74    0.66
   6  -6   7   10.69    0.67
   6  -6   7    9.24    0.63
   6  -6   7    9.82    0.68
   7  -6   7   12.85    0.78
   7  -6   7   12.31    0.70
   7  -6   7   13.05    0.80
   8  -6   7    5.57    0.66
   8  -6   7    4.22    0.54
   8  -6   7    4.24    0.52
   7   5  -7    0.10    0.20
   7   5  -7   -0.04    0.18
   6   5  -7    0.27    0.23
   6   5  -7    0.22    0.21
   6   5  -7   -0.05    0.18
   5   5  -7    0.44    0.23
   5   5  -7    0.45    0.23
   4   5  -7    1.98    0.36
   4   5  -7    1.38    0.28
   4   5  -7    1.08    0.28
   3   5  -7    9.64    0.58
   3   5  -7    8.24    0.51
   3   5  -7    8.52    0.57
   2   5  -7   20.56    0.77
   2   5  -7   19.84    0.82
   2   5  -7   19.84    0.80
   1   5  -7    5.03    0.47
   1   5  -7    5.55    0.43
   1   5  -7    4.76    0.43
  -1  -5   7    5.01    0.40
  -1  -5   7    5.51    0.41
   0   5  -7    3.66    0.39
   0   5  -7    2.76    0.34
   0   5  -7    2.65    0.34
   0  -5   7    3.48    0.37
   0  -5   7    3.09    0.37
   0  -5   7    3.29    0.37
  -1   5  -7    0.73    0.20
  -1   5  -7    0.88    0.20
  -1   5  -7    0.45    0.19
   1  -5   7    0.57    0.15
   1  -5   7    0.60    0.20
   1  -5   7    0.38    0.18
   1  -5   7    0.62    0.20
  -2   5  -7    0.20    0.16
  -2   5  -7    0.22    0.14
  -2   5  -7    0.29    0.15
   2  -5   7    0.17    0.16
   2  -5   7    0.29    0.18
   2  -5   7    0.15    0.15
   2  -5   7    0.33    0.13
  -3   5  -7    0.99    0.24
  -3   5  -7    0.69    0.18
  -3   5  -7    1.10    0.22
   3  -5   7    0.99    0.22
   3  -5   7    0.81    0.20
   3  -5   7    0.91    0.24
   3  -5   7    0.72    0.23
  -4   5  -7    1.39    0.27
   4  -5   7    1.65    0.30
   4  -5   7    1.39    0.28
   4  -5   7    1.01    0.24
   4  -5   7    1.37    0.29
   5  -5   7   11.12    0.63
   5  -5   7   11.47    0.64
   5  -5   7   10.33    0.63
   5  -5   7   11.41    0.62
   6  -5   7    3.21    0.46
   6  -5   7    2.30    0.36
   6  -5   7    2.47    0.38
   7  -5   7   10.63    0.65
   7  -5   7   11.10    0.73
   7  -5   7    9.54    0.66
   8  -5   7    4.09    0.50
   8  -5   7    3.54    0.53
   8  -5   7    4.00    0.52
   7   4  -7    4.69    0.48
   7   4  -7    5.84    0.60
   7   4  -7    5.91    0.55
   6   4  -7    3.79    0.43
   6   4  -7    3.44    0.42
   6   4  -7    3.40    0.46
   5   4  -7    2.82    0.40
   5   4  -7    3.12    0.39
   5   4  -7    2.74    0.35
   4   4  -7    3.30    0.38
   4   4  -7    3.56    0.43
   4   4  -7    3.08    0.36
   3   4  -7    4.25    0.45
   3   4  -7    4.92    0.46
   2   4  -7    1.99    0.30
   2   4  -7    2.14    0.30
   2   4  -7    1.87    0.26
   1   4  -7    3.18    0.37
   1   4  -7    4.54    0.44
   1   4  -7    3.42    0.34
  -1  -4   7    4.08    0.38
  -1  -4   7    3.55    0.37
   0   4  -7    9.50    0.48
   0   4  -7    9.75    0.52
   0   4  -7    9.44    0.50
   0  -4   7    9.72    0.50
   0  -4   7    9.52    0.45
   0  -4   7    9.75    0.51
   0  -4   7    8.93    0.48
  -1   4  -7   17.60    0.70
  -1   4  -7   17.71    0.66
  -1   4  -7   17.59    0.66
   1  -4   7   17.92    0.57
   1  -4   7   17.16    0.68
   1  -4   7   17.73    0.68
   1  -4   7   17.65    0.51
   1  -4   7   17.18    0.68
  -2   4  -7    4.52    0.34
  -2   4  -7    5.36    0.36
  -2   4  -7    5.11    0.39
   2  -4   7    3.89    0.31
   2  -4   7    4.27    0.40
   2  -4   7    5.15    0.40
   2  -4   7    4.83    0.39
   2  -4   7    4.55    0.31
  -3   4  -7    1.21    0.25
  -3   4  -7    1.14    0.20
  -3   4  -7    1.06    0.20
   3  -4   7    1.15    0.21
   3  -4   7    0.98    0.24
   3  -4   7    1.09    0.25
   3  -4   7    1.14    0.24
  -4   4  -7    0.27    0.17
  -4   4  -7    0.26    0.14
   4  -4   7    0.40    0.18
   4  -4   7    0.27    0.19
   4  -4   7    0.21    0.19
   5  -4   7    0.02    0.16
   5  -4   7    0.03    0.16
   5  -4   7   -0.06    0.15
   6  -4   7    0.06    0.17
   6  -4   7   -0.04    0.15
   6  -4   7    0.06    0.18
   7  -4   7    1.45    0.34
   7  -4   7    0.78    0.26
   7  -4   7    1.31    0.31
   8  -4   7    2.88    0.42
   8  -4   7    2.41    0.44
   8  -4   7    2.65    0.44
   8   3  -7    0.75    0.22
   8   3  -7    1.28    0.29
   7   3  -7   -0.01    0.14
   7   3  -7    0.34    0.20
   7   3  -7    0.04    0.14
   6   3  -7   16.48    0.68
   6   3  -7   16.30    0.79
   6   3  -7   16.44    0.68
   5   3  -7   54.62    1.31
   5   3  -7   52.02    1.28
   5   3  -7   54.78    1.46
   4   3  -7   63.93    1.40
   4   3  -7   62.76    1.42
   4   3  -7   60.48    1.53
   3   3  -7    3.78    0.39
   3   3  -7    4.76    0.35
   3   3  -7    4.21    0.39
   2   3  -7    8.28    0.45
   2   3  -7    7.68    0.42
   2   3  -7    7.49    0.46
  -2  -3   7    7.84    0.44
   1   3  -7    2.84    0.29
   1   3  -7    3.55    0.37
   1   3  -7    2.82    0.32
  -1  -3   7    3.55    0.33
  -1  -3   7    2.97    0.31
   0   3  -7   11.76    0.53
   0   3  -7   11.05    0.53
   0   3  -7   12.32    0.52
   0  -3   7   10.90    0.50
   0  -3   7   12.19    0.54
   0  -3   7   12.36    0.50
   0  -3   7   12.47    0.54
  -1   3  -7    8.53    0.43
  -1   3  -7    9.75    0.46
  -1   3  -7    9.23    0.48
   1  -3   7    8.81    0.40
   1  -3   7    7.96    0.45
   1  -3   7    8.55    0.46
   1  -3   7    7.63    0.44
  -2   3  -7    5.81    0.35
  -2   3  -7    5.58    0.40
  -2   3  -7    6.58    0.39
   2  -3   7    5.09    0.38
   2  -3   7    6.08    0.40
   2  -3   7    5.91    0.41
   2  -3   7    5.76    0.32
  -3   3  -7    6.14    0.34
  -3   3  -7    5.61    0.42
  -3   3  -7    5.68    0.38
   3  -3   7    5.48    0.41
   3  -3   7    5.37    0.40
   3  -3   7    5.68    0.41
  -4   3  -7   12.89    0.56
  -4   3  -7   13.53    0.63
   4  -3   7   13.45    0.64
   4  -3   7   13.06    0.63
   4  -3   7   13.40    0.63
   5  -3   7   17.21    0.74
   5  -3   7   16.38    0.74
   5  -3   7   16.29    0.73
   6  -3   7    5.17    0.51
   6  -3   7    4.66    0.49
   6  -3   7    5.25    0.52
   7  -3   7    4.97    0.53
   7  -3   7    6.58    0.53
   7  -3   7    6.63    0.64
   8  -3   7    2.41    0.44
   8  -3   7    1.77    0.35
   8  -3   7    1.61    0.34
   9  -3   7    0.18    0.26
   8   2  -7    0.42    0.18
  -8  -2   7    0.38    0.25
   7   2  -7    8.96    0.58
   7   2  -7    7.44    0.43
  -7  -2   7    7.06    0.54
   6   2  -7    3.46    0.35
   6   2  -7    3.32    0.42
   6   2  -7    3.27    0.34
   5   2  -7    0.64    0.21
   5   2  -7    0.94    0.20
   5   2  -7    0.73    0.16
   4   2  -7    0.22    0.16
   4   2  -7    0.05    0.11
   4   2  -7    0.09    0.11
   3   2  -7   38.46    0.94
   3   2  -7   37.36    1.07
   3   2  -7   37.20    0.96
   2   2  -7   44.85    1.06
   2   2  -7   44.55    1.03
   2   2  -7   43.87    1.14
  -2  -2   7   44.67    1.04
   1   2  -7    0.46    0.14
   1   2  -7    0.78    0.19
   1   2  -7    0.72    0.18
  -1  -2   7    0.70    0.18
  -1  -2   7    0.77    0.16
  -1  -2   7    0.92    0.18
   0   2  -7   44.04    1.09
   0   2  -7   44.55    1.05
   0   2  -7   44.58    1.07
   0  -2   7   44.59    1.05
   0  -2   7   46.27    1.07
   0  -2   7   44.72    1.07
   0  -2   7   45.01    1.05
  -1   2  -7   51.51    1.12
  -1   2  -7   49.89    1.14
  -1   2  -7   48.99    1.19
   1  -2   7   49.34    1.14
   1  -2   7   50.15    1.17
   1  -2   7   49.40    1.17
   1  -2   7   49.08    1.09
  -2   2  -7    2.63    0.29
  -2   2  -7    2.52    0.25
  -2   2  -7    2.26    0.30
   2  -2   7    2.51    0.29
   2  -2   7    2.88    0.28
   2  -2   7    2.61    0.30
   2  -2   7    2.76    0.29
  -3   2  -7    0.30    0.13
  -3   2  -7    0.93    0.21
  -3   2  -7    0.64    0.13
   3  -2   7    0.56    0.17
   3  -2   7    0.61    0.19
   3  -2   7    0.37    0.17
  -4   2  -7    0.02    0.11
  -4   2  -7    0.14    0.16
   4  -2   7    0.24    0.17
   4  -2   7    0.20    0.15
   4  -2   7   -0.03    0.13
   5  -2   7   -0.18    0.12
   5  -2   7   -0.09    0.13
   5  -2   7   -0.08    0.14
   6  -2   7    3.94    0.45
   6  -2   7    3.46    0.42
   6  -2   7    3.50    0.43
   7  -2   7    0.73    0.28
   7  -2   7    0.38    0.23
   7  -2   7    0.18    0.21
   8  -2   7    7.93    0.72
   8  -2   7    9.45    0.69
   8  -2   7    7.99    0.62
  -9   2  -7    2.95    0.48
   9  -2   7    3.60    0.56
  -9  -1   7    3.39    0.50
  -8  -1   7   -0.03    0.19
   7   1  -7   -0.03    0.16
   7   1  -7    0.20    0.11
   7   1  -7   -0.13    0.10
  -7  -1   7   -0.02    0.15
   6   1  -7    2.61    0.27
   6   1  -7    2.82    0.27
   6   1  -7    2.80    0.37
  -6  -1   7    2.56    0.34
   5   1  -7    3.44    0.27
   5   1  -7    3.66    0.42
   5   1  -7    3.53    0.27
  -5  -1   7    3.27    0.35
   4   1  -7    0.08    0.10
   4   1  -7   -0.18    0.11
   4   1  -7    0.14    0.10
   3   1  -7    5.22    0.31
   3   1  -7    5.93    0.40
   3   1  -7    5.53    0.33
   2   1  -7    1.70    0.22
   2   1  -7    2.07    0.27
   2   1  -7    1.93    0.22
  -2  -1   7    1.79    0.22
  -2  -1   7    2.66    0.33
   1   1  -7    0.88    0.18
   1   1  -7    0.73    0.16
   1   1  -7    0.81    0.07
   1   1  -7    0.84    0.16
  -1  -1   7    0.89    0.15
  -1  -1   7    0.83    0.19
  -1  -1   7    1.13    0.18
   0   1  -7   16.36    0.56
   0   1  -7   15.02    0.40
   0   1  -7   15.46    0.57
   0   1  -7   15.85    0.55
   0  -1   7   15.50    0.55
   0  -1   7   16.74    0.56
   0  -1   7   15.11    0.56
   0  -1   7   14.78    0.56
  -1   1  -7   40.85    0.98
  -1   1  -7   39.48    1.01
  -1   1  -7   39.66    0.92
   1  -1   7   40.85    0.98
   1  -1   7   38.66    0.99
   1  -1   7   38.19    0.97
   1  -1   7   36.97    0.92
  -2   1  -7    3.12    0.30
  -2   1  -7    3.76    0.37
  -2   1  -7    3.28    0.24
   2  -1   7    3.55    0.32
   2  -1   7    3.34    0.34
   2  -1   7    2.71    0.29
  -3   1  -7    1.99    0.20
  -3   1  -7    1.84    0.28
  -3   1  -7    2.27    0.27
   3  -1   7    2.16    0.29
   3  -1   7    2.39    0.31
   3  -1   7    1.98    0.26
  -4   1  -7    8.27    0.45
  -4   1  -7    9.08    0.52
   4  -1   7    8.73    0.52
   4  -1   7    7.71    0.47
   4  -1   7    8.50    0.51
   5  -1   7    4.75    0.48
   5  -1   7    5.30    0.48
   5  -1   7    3.31    0.37
   6  -1   7    9.25    0.59
   6  -1   7    7.75    0.56
   6  -1   7    8.12    0.57
  -7   1  -7   10.63    0.64
   7  -1   7   10.03    0.65
   7  -1   7    8.96    0.64
   7  -1   7    9.01    0.63
  -8   1  -7    1.72    0.36
   8  -1   7    1.55    0.36
   8  -1   7    1.13    0.35
   8  -1   7    1.48    0.35
  -9   0   7    2.11    0.39
   8   0  -7    2.78    0.64
  -8   0   7    3.13    0.43
   7   0  -7    6.50    0.51
  -7   0   7    7.43    0.50
   6   0  -7    6.08    0.27
   6   0  -7    6.07    0.32
   6   0  -7    5.65    0.51
  -6   0   7    6.78    0.44
   5   0  -7   18.20    0.54
   5   0  -7   18.85    0.75
   5   0  -7   19.30    0.53
  -5   0   7   18.31    0.65
   4   0  -7    9.35    0.38
   4   0  -7   10.07    0.52
   4   0  -7   10.27    0.39
  -4   0   7   10.52    0.57
  -4   0   7   10.57    0.43
   3   0  -7    8.47    0.36
   3   0  -7    9.35    0.39
   3   0  -7    8.86    0.46
  -3   0   7    9.29    0.51
   2   0  -7   10.44    0.42
   2   0  -7    9.67    0.27
   2   0  -7   10.49    0.48
   2   0  -7   10.42    0.41
  -2   0   7    9.97    0.50
   1   0  -7    0.08    0.10
   1   0  -7   -0.06    0.09
   1   0  -7    0.08    0.09
   1   0  -7    0.15    0.07
  -1   0   7   -0.06    0.09
  -1   0   7    0.01    0.08
  -1   0   7    0.17    0.13
  -1   0   7   -0.04    0.09
   0   0  -7    0.11    0.11
   0   0  -7    0.12    0.09
   0   0  -7    0.10    0.09
   0   0  -7   -0.03    0.08
   0   0   7   -0.02    0.11
   0   0   7    0.11    0.11
   0   0   7    0.06    0.10
   0   0   7    0.24    0.12
  -1   0  -7   11.28    0.48
  -1   0  -7   11.87    0.45
  -1   0  -7   11.25    0.51
   1   0   7   11.10    0.49
   1   0   7   10.26    0.49
   1   0   7   11.99    0.44
   1   0   7   12.00    0.49
  -2   0  -7   32.50    0.94
  -2   0  -7   31.66    0.76
  -2   0  -7   32.23    0.90
   2   0   7   32.81    0.93
   2   0   7   33.51    0.92
   2   0   7   33.43    0.84
  -3   0  -7    0.49    0.16
  -3   0  -7    0.79    0.21
   3   0   7    1.02    0.22
   3   0   7    0.76    0.17
   3   0   7    0.63    0.19
  -4   0  -7    3.53    0.40
  -4   0  -7    3.11    0.32
   4   0   7    3.04    0.34
   4   0   7    2.88    0.38
   4   0   7    2.11    0.30
  -5   0  -7    1.51    0.26
  -5   0  -7    1.81    0.43
   5   0   7    1.91    0.32
   5   0   7    1.90    0.34
   5   0   7    2.11    0.33
  -6   0  -7    1.06    0.24
   6   0   7    1.03    0.26
   6   0   7    0.49    0.22
   6   0   7    0.68    0.24
  -7   0  -7   10.55    0.64
   7   0   7    7.93    0.62
   7   0   7    8.33    0.63
   7   0   7    8.95    0.64
  -8   0  -7    0.32    0.23
   8   0   7    0.69    0.28
   8   0   7    0.56    0.30
   8   0   7    0.37    0.24
   8  -1  -7    1.33    0.30
  -8   1   7    1.92    0.33
   7  -1  -7    2.27    0.35
  -7   1   7    2.22    0.32
   6  -1  -7    0.36    0.19
   6  -1  -7    0.34    0.16
  -6   1   7    0.17    0.13
  -6   1   7    0.14    0.19
   5  -1  -7    2.05    0.16
   5  -1  -7    2.09    0.19
   5  -1  -7    2.50    0.33
  -5   1   7    1.90    0.24
  -5   1   7    2.61    0.38
   4  -1  -7   17.35    0.48
   4  -1  -7   16.75    0.68
   4  -1  -7   16.83    0.49
  -4   1   7   17.13    0.52
  -4   1   7   17.72    0.74
   3  -1  -7   17.08    0.46
   3  -1  -7   17.12    0.51
   3  -1  -7   15.78    0.49
   3  -1  -7   15.84    0.63
  -3   1   7   17.21    0.69
   2  -1  -7    3.09    0.23
   2  -1  -7    3.62    0.21
   2  -1  -7    3.49    0.33
   2  -1  -7    3.33    0.25
  -2   1   7    3.70    0.37
   1  -1  -7    5.00    0.31
   1  -1  -7    3.85    0.27
   1  -1  -7    4.37    0.31
   1  -1  -7    4.40    0.25
  -1   1   7    4.30    0.34
  -1   1   7    3.94    0.24
  -1   1   7    4.34    0.26
  -1   1   7    3.72    0.27
   0  -1  -7   44.38    1.04
   0  -1  -7   45.41    1.07
   0  -1  -7   45.51    1.04
   0  -1  -7   46.69    0.97
   0   1   7   45.98    1.14
   0   1   7   46.38    1.06
   0   1   7   46.39    0.92
   0   1   7   45.78    1.02
  -1  -1  -7   71.89    1.43
  -1  -1  -7   73.21    1.49
  -1  -1  -7   72.93    1.53
  -1  -1  -7   73.96    1.40
   1   1   7   73.97    1.52
   1   1   7   73.86    1.33
   1   1   7   73.25    1.49
  -2  -1  -7    0.00    0.09
  -2  -1  -7    0.22    0.14
  -2  -1  -7   -0.02    0.08
  -2  -1  -7   -0.01    0.11
  -2  -1  -7    0.03    0.07
   2   1   7   -0.07    0.11
   2   1   7    0.03    0.10
   2   1   7    0.20    0.13
  -3  -1  -7    3.63    0.27
  -3  -1  -7    3.27    0.33
  -3  -1  -7    3.91    0.40
   3   1   7    3.81    0.39
   3   1   7    3.98    0.31
   3   1   7    3.72    0.38
  -4  -1  -7    3.97    0.44
  -4  -1  -7    3.84    0.34
  -4  -1  -7    3.92    0.39
   4   1   7    3.92    0.37
   4   1   7    3.45    0.42
   4   1   7    3.82    0.41
  -5  -1  -7    0.00    0.17
  -5  -1  -7    0.27    0.14
   5   1   7    0.45    0.22
   5   1   7    0.09    0.16
   5   1   7    0.14    0.16
  -6  -1  -7    0.69    0.22
   6   1   7    0.89    0.29
   6   1   7    0.42    0.24
   6   1   7    0.64    0.23
  -7  -1  -7   -0.06    0.17
   7   1   7    0.16    0.23
   7   1   7   -0.10    0.20
   7   1   7   -0.24    0.18
  -8  -1  -7    4.74    0.56
   8   1   7    2.84    0.47
   8   1   7    4.67    0.58
   8   1   7    4.81    0.58
   9  -2  -7    3.29    0.49
  -9   2   7    3.85    0.55
   8  -2  -7    0.23    0.19
   8  -2  -7    0.17    0.20
  -8   2   7    0.19    0.22
   7  -2  -7   11.04    0.65
   7  -2  -7   12.38    0.67
  -7   2   7   13.03    0.74
   6  -2  -7    8.08    0.52
  -6   2   7    7.72    0.57
   5  -2  -7    3.95    0.42
   5  -2  -7    3.05    0.20
  -5   2   7    3.85    0.44
   4  -2  -7    1.73    0.17
   4  -2  -7    2.00    0.29
   4  -2  -7    1.84    0.22
   4  -2  -7    2.22    0.19
  -4   2   7    2.82    0.36
   3  -2  -7    5.38    0.28
   3  -2  -7    5.43    0.30
   3  -2  -7    5.12    0.28
   3  -2  -7    5.74    0.39
  -3   2   7    4.67    0.40
   2  -2  -7   13.46    0.46
   2  -2  -7   12.93    0.47
   2  -2  -7   12.77    0.55
   2  -2  -7   13.46    0.48
  -2   2   7   13.31    0.60
   1  -2  -7    0.83    0.15
   1  -2  -7    0.90    0.18
   1  -2  -7    0.73    0.15
   1  -2  -7    0.91    0.19
  -1   2   7    0.79    0.12
  -1   2   7    1.34    0.20
  -1   2   7    1.06    0.17
  -1   2   7    1.30    0.25
   0  -2  -7   42.71    1.01
   0  -2  -7   44.26    1.05
   0  -2  -7   43.03    1.00
   0  -2  -7   42.03    1.05
   0   2   7   42.72    0.99
   0   2   7   43.67    1.05
   0   2   7   43.42    1.14
   0   2   7   40.82    0.81
  -1  -2  -7   32.12    0.90
  -1  -2  -7   32.38    0.82
  -1  -2  -7   31.37    0.88
  -1  -2  -7   31.46    0.91
   1   2   7   33.29    0.89
   1   2   7   30.21    0.70
   1   2   7   33.90    0.94
  -2  -2  -7   58.52    1.38
  -2  -2  -7   59.74    1.39
  -2  -2  -7   62.36    1.44
  -2  -2  -7   62.24    1.23
   2   2   7   60.60    1.43
   2   2   7   60.14    1.19
   2   2   7   60.70    1.39
  -3  -2  -7   12.30    0.62
  -3  -2  -7   12.75    0.46
  -3  -2  -7   13.57    0.64
  -3  -2  -7   13.02    0.59
   3   2   7   12.91    0.62
   3   2   7   13.14    0.63
   3   2   7   13.17    0.52
  -4  -2  -7    0.23    0.17
  -4  -2  -7    0.39    0.21
  -4  -2  -7    0.55    0.18
  -4  -2  -7    0.54    0.16
   4   2   7    0.39    0.20
   4   2   7    0.23    0.19
   4   2   7    0.27    0.15
  -5  -2  -7    0.10    0.13
  -5  -2  -7    0.46    0.21
   5   2   7   -0.12    0.14
   5   2   7    0.19    0.21
   5   2   7    0.27    0.20
  -6  -2  -7    0.74    0.24
   6   2   7    0.26    0.21
   6   2   7    0.33    0.23
   6   2   7    0.13    0.19
  -7  -2  -7   -0.06    0.18
   7   2   7    0.14    0.22
   7   2   7   -0.01    0.23
   7   2   7    0.19    0.23
  -8  -2  -7    0.67    0.39
   8   2   7    0.29    0.26
  -9   3   7    0.05    0.21
   8  -3  -7    0.61    0.25
  -8   3   7    1.04    0.28
   7  -3  -7    0.90    0.26
   7  -3  -7    0.82    0.30
  -7   3   7    0.86    0.26
   6  -3  -7    0.55    0.21
  -6   3   7    0.49    0.22
   5  -3  -7    1.73    0.29
   5  -3  -7    2.22    0.29
   5  -3  -7    2.06    0.18
  -5   3   7    2.01    0.33
   4  -3  -7   39.65    0.79
   4  -3  -7   40.12    1.13
   4  -3  -7   40.22    0.85
   4  -3  -7   40.49    0.99
  -4   3   7   39.45    1.16
   3  -3  -7    1.24    0.21
   3  -3  -7    1.87    0.27
   3  -3  -7    1.37    0.18
   3  -3  -7    1.65    0.19
  -3   3   7    1.26    0.26
   2  -3  -7    4.84    0.32
   2  -3  -7    5.12    0.31
   2  -3  -7    5.15    0.36
   2  -3  -7    5.26    0.31
  -2   3   7    6.05    0.44
   1  -3  -7   37.28    0.95
   1  -3  -7   39.25    0.97
   1  -3  -7   36.53    0.99
   1  -3  -7   36.96    0.94
  -1   3   7   38.47    1.10
   0  -3  -7    9.36    0.46
   0  -3  -7    9.00    0.44
   0  -3  -7    9.34    0.46
   0  -3  -7    8.47    0.45
   0   3   7    9.44    0.44
   0   3   7    9.68    0.48
  -1  -3  -7    0.38    0.15
  -1  -3  -7    0.12    0.11
  -1  -3  -7    0.37    0.16
  -1  -3  -7    0.63    0.16
   1   3   7    0.36    0.17
   1   3   7    0.40    0.16
  -2  -3  -7    7.60    0.47
  -2  -3  -7    8.20    0.50
  -2  -3  -7    7.53    0.48
  -2  -3  -7    8.07    0.40
   2   3   7    7.14    0.47
   2   3   7    8.19    0.51
  -3  -3  -7    9.78    0.56
  -3  -3  -7   11.14    0.60
  -3  -3  -7   10.98    0.62
   3   3   7   10.26    0.60
   3   3   7   10.28    0.59
  -4  -3  -7    8.43    0.57
  -4  -3  -7    7.36    0.50
  -4  -3  -7    6.96    0.55
   4   3   7    6.40    0.58
   4   3   7    6.95    0.52
  -5  -3  -7    1.26    0.47
  -5  -3  -7    0.74    0.29
   5   3   7    0.86    0.28
   5   3   7    0.74    0.28
  -6  -3  -7   21.87    1.02
   6   3   7   17.44    0.93
   6   3   7   19.42    0.96
  -7  -3  -7    6.90    0.75
   7   3   7    6.03    0.64
   7   3   7    4.91    0.59
   8  -4  -7    0.31    0.24
  -8   4   7    0.90    0.27
  -8   4   7    0.36    0.21
   7  -4  -7    1.54    0.32
  -7   4   7    1.41    0.31
  -7   4   7    1.01    0.26
   6  -4  -7    0.62    0.18
   6  -4  -7    0.16    0.18
  -6   4   7    0.04    0.18
   5  -4  -7   10.02    0.37
   5  -4  -7   10.30    0.53
   5  -4  -7   10.06    0.59
  -5   4   7    8.69    0.55
   4  -4  -7    5.49    0.43
   4  -4  -7    6.18    0.41
   4  -4  -7    5.27    0.30
   4  -4  -7    5.96    0.29
  -4   4   7    5.31    0.45
   3  -4  -7    1.99    0.23
   3  -4  -7    2.60    0.26
   3  -4  -7    2.22    0.30
   3  -4  -7    2.38    0.32
  -3   4   7    2.08    0.33
   2  -4  -7    9.05    0.50
   2  -4  -7   10.13    0.45
   2  -4  -7    8.91    0.43
   2  -4  -7    9.26    0.48
  -2   4   7    9.01    0.55
   1  -4  -7   18.78    0.71
   1  -4  -7   17.49    0.65
   1  -4  -7   18.29    0.68
   1  -4  -7   18.28    0.66
   0  -4  -7    2.37    0.31
   0  -4  -7    2.55    0.31
   0  -4  -7    2.22    0.28
   0  -4  -7    2.55    0.32
   0   4   7    2.48    0.40
  -1  -4  -7    0.68    0.19
  -1  -4  -7    0.53    0.18
  -1  -4  -7    0.63    0.20
  -1  -4  -7    0.55    0.18
   1   4   7    0.64    0.19
   1   4   7    0.36    0.19
  -2  -4  -7   23.74    0.88
  -2  -4  -7   24.25    0.90
  -2  -4  -7   24.99    0.91
   2   4   7   24.49    0.93
   2   4   7   26.17    0.90
  -3  -4  -7    7.84    0.53
  -3  -4  -7    7.73    0.53
  -3  -4  -7    7.85    0.57
   3   4   7    8.41    0.56
   3   4   7    7.06    0.55
  -4  -4  -7   10.38    0.68
  -4  -4  -7   11.77    0.69
  -4  -4  -7   12.39    0.68
   4   4   7   11.97    0.73
   4   4   7   12.33    0.72
  -5  -4  -7    1.42    0.35
   5   4   7    1.90    0.39
   5   4   7    1.48    0.34
  -6  -4  -7    0.50    0.30
   6   4   7   -0.13    0.19
   6   4   7   -0.15    0.19
   8  -5  -7    6.60    0.64
  -8   5   7    6.19    0.62
   7  -5  -7    2.99    0.44
   7  -5  -7    3.13    0.41
  -7   5   7    3.09    0.43
  -7   5   7    3.62    0.47
   6  -5  -7    3.72    0.43
   6  -5  -7    3.43    0.46
  -6   5   7    2.81    0.41
  -6   5   7    3.25    0.45
   5  -5  -7    2.49    0.25
   5  -5  -7    2.54    0.19
   5  -5  -7    3.24    0.43
   5  -5  -7    2.49    0.34
  -5   5   7    2.35    0.38
   4  -5  -7   13.55    0.47
   4  -5  -7   14.69    0.65
   4  -5  -7   13.99    0.70
   4  -5  -7   13.92    0.52
  -4   5   7   14.27    0.71
   3  -5  -7    0.95    0.19
   3  -5  -7    1.20    0.21
   3  -5  -7    0.74    0.22
   3  -5  -7    0.70    0.21
  -3   5   7    0.89    0.26
   2  -5  -7   37.19    1.08
   2  -5  -7   37.12    0.99
   2  -5  -7   37.95    1.12
   2  -5  -7   40.38    1.04
   1  -5  -7   17.52    0.73
   1  -5  -7   17.48    0.72
   1  -5  -7   17.39    0.68
   1  -5  -7   16.70    0.67
   0  -5  -7   15.98    0.69
   0  -5  -7   17.36    0.71
   0  -5  -7   15.91    0.71
  -1  -5  -7    0.49    0.19
  -1  -5  -7    0.27    0.17
  -1  -5  -7    0.39    0.20
   1   5   7    0.48    0.26
   1   5   7    0.36    0.20
  -2  -5  -7    5.72    0.53
  -2  -5  -7    6.10    0.47
  -2  -5  -7    6.09    0.57
   2   5   7    5.28    0.52
   2   5   7    5.45    0.50
  -3  -5  -7   -0.04    0.19
  -3  -5  -7    0.32    0.18
  -3  -5  -7    0.42    0.21
   3   5   7    0.20    0.21
   3   5   7    0.18    0.20
  -4  -5  -7    2.51    0.42
  -4  -5  -7    2.22    0.41
  -4  -5  -7    2.89    0.43
   4   5   7    2.74    0.43
   4   5   7    1.78    0.36
  -5  -5  -7   -0.16    0.21
   5   5   7   -0.05    0.21
   5   5   7    0.32    0.26
  -6  -5  -7    0.09    0.26
   6   5   7   -0.16    0.22
   6   5   7   -0.17    0.21
   8  -6  -7    0.03    0.20
  -8   6   7   -0.01    0.24
   7  -6  -7    3.75    0.50
   7  -6  -7    4.11    0.48
  -7   6   7    3.41    0.47
   6  -6  -7   15.53    0.76
   6  -6  -7   15.70    0.80
  -6   6   7   15.35    0.81
  -6   6   7   13.87    0.75
   5  -6  -7   10.98    0.48
   5  -6  -7   12.04    0.69
   5  -6  -7   11.11    0.40
   5  -6  -7   11.83    0.65
  -5   6   7   11.76    0.69
  -5   6   7   11.11    0.66
   4  -6  -7   12.86    0.69
   4  -6  -7   12.63    0.67
   4  -6  -7   12.87    0.55
   4  -6  -7   12.84    0.50
  -4   6   7   13.30    0.71
  -4   6   7   12.07    0.69
   3  -6  -7    0.74    0.25
   3  -6  -7    0.58    0.17
   3  -6  -7    0.70    0.18
   3  -6  -7    0.58    0.23
  -3   6   7    0.56    0.24
   2  -6  -7    0.16    0.17
   2  -6  -7    0.19    0.17
   2  -6  -7   -0.01    0.12
   2  -6  -7    0.13    0.14
  -2   6   7   -0.17    0.13
   1  -6  -7    7.90    0.50
   1  -6  -7    9.15    0.54
   1  -6  -7    9.82    0.59
  -1   6   7   10.15    0.58
   0  -6  -7    5.06    0.49
   0  -6  -7    5.46    0.53
   0  -6  -7    4.89    0.49
   0   6   7    4.56    0.44
  -1  -6  -7    1.06    0.27
  -1  -6  -7    0.84    0.24
  -1  -6  -7    1.24    0.31
   1   6   7    1.18    0.27
  -2  -6  -7    7.20    0.57
  -2  -6  -7    6.57    0.61
  -2  -6  -7    6.78    0.61
   2   6   7    7.57    0.61
  -3  -6  -7   -0.26    0.17
  -3  -6  -7   -0.07    0.15
  -3  -6  -7   -0.10    0.15
   3   6   7    0.21    0.24
   3   6   7    0.00    0.19
  -4  -6  -7    0.51    0.26
  -4  -6  -7   -0.06    0.21
  -4  -6  -7    0.80    0.28
   4   6   7    0.48    0.29
   4   6   7    0.32    0.26
  -5  -6  -7    1.38    0.40
   5   6   7    1.12    0.35
   5   6   7    0.98    0.34
   8  -7  -7    0.43    0.28
   7  -7  -7    0.43    0.25
  -7   7   7    0.72    0.28
   6  -7  -7   -0.27    0.18
  -6   7   7    0.09    0.23
   5  -7  -7    3.49    0.31
   5  -7  -7    3.60    0.36
   5  -7  -7    3.66    0.46
  -5   7   7    3.57    0.47
   4  -7  -7    6.90    0.42
   4  -7  -7    6.85    0.54
   4  -7  -7    6.69    0.45
  -4   7   7    7.25    0.57
   3  -7  -7    4.02    0.40
   3  -7  -7    4.85    0.46
   3  -7  -7    4.50    0.52
  -3   7   7    3.61    0.47
   2  -7  -7    0.09    0.14
   2  -7  -7    0.07    0.18
   2  -7  -7   -0.01    0.12
  -2   7   7   -0.10    0.17
   1  -7  -7    3.97    0.45
   1  -7  -7    4.83    0.50
   1  -7  -7    5.03    0.54
  -1   7   7    5.27    0.52
   0  -7  -7   15.69    0.78
   0  -7  -7   18.56    0.83
   0  -7  -7   19.65    0.90
   0   7   7   17.47    0.78
  -1  -7  -7    5.35    0.56
  -1  -7  -7    4.59    0.53
  -1  -7  -7    5.31    0.55
  -2  -7  -7    2.26    0.42
  -2  -7  -7    2.65    0.43
  -2  -7  -7    2.91    0.44
  -3  -7  -7   -0.11    0.22
  -3  -7  -7    0.02    0.19
  -3  -7  -7   -0.12    0.18
  -4  -7  -7    0.76    0.30
  -4  -7  -7    1.33    0.40
  -4  -7  -7    1.00    0.31
   4   7   7    1.45    0.42
   4   7   7    0.91    0.36
   7  -8  -7    3.17    0.50
  -7   8   7    3.17    0.52
   6  -8  -7    5.69    0.62
  -6   8   7    5.04    0.62
   5  -8  -7    0.77    0.28
   5  -8  -7    0.27    0.14
   5  -8  -7    0.73    0.22
  -5   8   7   -0.01    0.22
   4  -8  -7    2.88    0.37
   4  -8  -7    2.30    0.31
   4  -8  -7    2.18    0.41
  -4   8   7    2.99    0.47
   3  -8  -7   -0.14    0.14
   3  -8  -7   -0.07    0.17
   3  -8  -7   -0.11    0.12
  -3   8   7   -0.02    0.24
   2  -8  -7    0.02    0.14
   2  -8  -7   -0.03    0.15
   2  -8  -7    0.37    0.22
  -2   8   7    0.27    0.24
   1  -8  -7    5.90    0.64
   1  -8  -7    5.02    0.54
   1  -8  -7    5.10    0.53
  -1   8   7    5.47    0.57
   0  -8  -7    2.86    0.42
   0  -8  -7    3.22    0.50
   0  -8  -7    3.29    0.49
   0   8   7    2.84    0.41
  -1  -8  -7    6.23    0.65
  -1  -8  -7    5.82    0.66
  -1  -8  -7    7.25    0.67
  -2  -8  -7    4.53    0.60
  -2  -8  -7    5.04    0.59
  -2  -8  -7    5.09    0.58
  -3  -8  -7   20.01    1.01
  -3  -8  -7   16.45    0.96
   5  -9  -7    1.21    0.25
   5  -9  -7    1.58    0.32
   5  -9  -7    1.22    0.35
  -5   9   7    1.54    0.41
   4  -9  -7    0.32    0.25
   4  -9  -7    0.06    0.16
   4  -9  -7   -0.04    0.15
  -4   9   7    0.36    0.29
   3  -9  -7   -0.11    0.18
   3  -9  -7    0.18    0.18
   3  -9  -7    0.03    0.22
  -3   9   7    0.29    0.26
   2  -9  -7    1.75    0.33
   2  -9  -7    1.87    0.40
   2  -9  -7    2.99    0.45
  -2   9   7    1.58    0.37
   1  -9  -7    0.90    0.29
   1  -9  -7    1.43    0.37
   1  -9  -7    1.68    0.38
  -1   9   7    1.18    0.33
   0  -9  -7    6.08    0.65
   0  -9  -7    6.41    0.71
   0  -9  -7    5.09    0.61
  -1  -9  -7    2.71    0.45
  -1  -9  -7    2.66    0.47
  -1  -9  -7    2.06    0.43
   1 -10   8    0.49    0.32
  -2  10  -8    0.67    0.30
   2 -10   8    0.26    0.28
   3 -10   8    7.01    0.70
   2   9  -8   -0.36    0.16
   2   9  -8   -0.01    0.21
   2   9  -8    0.07    0.26
  -2  -9   8    0.23    0.27
   1   9  -8    4.23    0.57
   1   9  -8    4.54    0.61
   1   9  -8    5.52    0.62
  -1  -9   8    5.06    0.62
   0   9  -8    2.05    0.44
   0   9  -8    1.80    0.38
   0   9  -8    1.24    0.35
   0  -9   8    1.55    0.36
   0  -9   8    1.52    0.40
   0  -9   8    2.10    0.45
  -1   9  -8    0.49    0.27
  -1   9  -8    0.46    0.28
   1  -9   8    0.84    0.31
   1  -9   8    1.15    0.35
   1  -9   8    0.73    0.31
  -2   9  -8    0.01    0.21
   2  -9   8   -0.01    0.23
   2  -9   8    0.09    0.25
   2  -9   8   -0.37    0.16
  -3   9  -8   -0.05    0.19
   3  -9   8   -0.02    0.22
   3  -9   8   -0.18    0.20
   3  -9   8   -0.14    0.19
  -4   9  -8    0.40    0.23
   4  -9   8    0.05    0.23
   4  -9   8    0.50    0.27
   4  -9   8    0.14    0.23
   5  -9   8    0.40    0.26
   5  -9   8   -0.01    0.23
   5  -9   8   -0.08    0.22
   3   8  -8    0.14    0.23
   3   8  -8    0.00    0.21
   3   8  -8    0.25    0.25
   2   8  -8    0.13    0.25
   2   8  -8    0.20    0.22
   2   8  -8   -0.11    0.20
  -2  -8   8    0.40    0.28
   1   8  -8    0.81    0.30
   1   8  -8    1.24    0.31
   1   8  -8    1.27    0.33
  -1  -8   8    1.02    0.32
   0   8  -8    0.06    0.19
   0   8  -8    0.12    0.17
   0   8  -8    0.25    0.23
   0  -8   8    0.40    0.23
   0  -8   8    0.02    0.21
   0  -8   8    0.09    0.24
  -1   8  -8    5.75    0.58
  -1   8  -8    7.80    0.72
  -1   8  -8    5.12    0.58
   1  -8   8    6.76    0.65
   1  -8   8    6.10    0.63
   1  -8   8    5.58    0.61
  -2   8  -8    6.63    0.64
  -2   8  -8    6.01    0.62
   2  -8   8    7.16    0.64
   2  -8   8    7.53    0.70
   2  -8   8    7.06    0.67
  -3   8  -8    4.76    0.55
   3  -8   8    4.17    0.52
   3  -8   8    5.91    0.62
   3  -8   8    3.93    0.50
  -4   8  -8    0.26    0.22
   4  -8   8    0.29    0.23
   4  -8   8    0.13    0.22
   4  -8   8    0.00    0.19
   5  -8   8    1.82    0.42
   5  -8   8    1.99    0.40
   5  -8   8    2.52    0.43
   6  -8   8    1.11    0.35
   6  -8   8    1.37    0.34
   6  -8   8    0.98    0.32
   6  -8   8    0.43    0.28
   5   7  -8    4.74    0.58
   5   7  -8    4.43    0.59
   5   7  -8    3.63    0.53
   4   7  -8    5.10    0.60
   4   7  -8    5.89    0.64
   4   7  -8    6.37    0.62
   3   7  -8    1.58    0.37
   3   7  -8    1.60    0.36
   2   7  -8    1.03    0.31
   2   7  -8    0.94    0.26
   2   7  -8    0.78    0.26
   1   7  -8    0.84    0.28
   1   7  -8    0.87    0.29
   1   7  -8    1.34    0.29
  -1  -7   8    1.74    0.37
   0   7  -8    0.03    0.15
   0   7  -8   -0.11    0.16
   0   7  -8    0.10    0.18
   0  -7   8    0.33    0.24
   0  -7   8   -0.11    0.17
   0  -7   8   -0.11    0.16
  -1   7  -8    0.02    0.15
  -1   7  -8    0.37    0.21
  -1   7  -8    0.02    0.17
   1  -7   8   -0.27    0.14
   1  -7   8    0.13    0.20
   1  -7   8   -0.07    0.19
  -2   7  -8    0.48    0.23
  -2   7  -8    0.76    0.24
  -2   7  -8    1.03    0.29
   2  -7   8    1.15    0.30
   2  -7   8    0.74    0.28
   2  -7   8    1.05    0.29
  -3   7  -8    0.91    0.25
   3  -7   8    0.99    0.29
   3  -7   8    0.92    0.29
   3  -7   8    1.05    0.31
   4  -7   8    2.71    0.43
   4  -7   8    1.49    0.33
   4  -7   8    2.56    0.42
   5  -7   8    0.72    0.27
   5  -7   8    0.93    0.28
   5  -7   8    0.37    0.23
   5  -7   8    0.62    0.27
   6  -7   8    0.17    0.22
   6  -7   8    0.04    0.20
   6  -7   8    0.34    0.24
   6  -7   8   -0.06    0.22
   7  -7   8    7.31    0.70
   7  -7   8    7.98    0.64
   7  -7   8    8.65    0.81
   6   6  -8    0.44    0.26
   6   6  -8    0.68    0.29
   5   6  -8    0.10    0.20
   5   6  -8   -0.04    0.19
   5   6  -8    0.29    0.23
   4   6  -8    2.44    0.44
   4   6  -8    2.42    0.38
   4   6  -8    3.01    0.45
   3   6  -8    1.82    0.33
   3   6  -8    1.59    0.34
   3   6  -8    1.94    0.38
   2   6  -8    1.81    0.32
   2   6  -8    0.44    0.22
   2   6  -8    1.39    0.31
   1   6  -8    2.50    0.38
   1   6  -8    2.83    0.42
   1   6  -8    2.74    0.36
  -1  -6   8    3.07    0.43
  -1  -6   8    3.04    0.54
  -1  -6   8    3.27    0.43
   0   6  -8   17.97    0.82
   0   6  -8   18.04    0.77
   0   6  -8   16.41    0.78
   0  -6   8   17.01    0.79
   0  -6   8   17.41    0.79
   0  -6   8   18.23    0.82
  -1   6  -8    4.12    0.46
  -1   6  -8    4.22    0.48
  -1   6  -8    5.11    0.49
   1  -6   8    4.53    0.49
   1  -6   8    4.58    0.48
   1  -6   8    4.33    0.48
  -2   6  -8    3.29    0.44
  -2   6  -8    3.00    0.39
  -2   6  -8    3.20    0.40
   2  -6   8    3.90    0.47
   2  -6   8    3.73    0.45
   2  -6   8    3.04    0.41
  -3   6  -8    1.22    0.27
  -3   6  -8    1.27    0.30
  -3   6  -8    0.70    0.21
   3  -6   8    0.93    0.27
   3  -6   8    0.86    0.26
   3  -6   8    1.24    0.30
   4  -6   8    0.28    0.21
   4  -6   8   -0.18    0.15
   4  -6   8    0.13    0.20
   4  -6   8    0.32    0.18
   5  -6   8    0.76    0.24
   5  -6   8    0.64    0.26
   5  -6   8    0.58    0.26
   5  -6   8    0.76    0.25
   6  -6   8    2.52    0.41
   6  -6   8    3.17    0.45
   7  -6   8    0.05    0.23
   7  -6   8    0.55    0.27
   7  -6   8   -0.33    0.17
   6   5  -8   -0.02    0.19
   6   5  -8   -0.06    0.18
   6   5  -8    0.09    0.19
   5   5  -8    0.47    0.22
   5   5  -8    0.36    0.20
   5   5  -8    0.26    0.20
   4   5  -8    1.12    0.29
   4   5  -8    1.01    0.25
   4   5  -8    1.23    0.31
   3   5  -8   -0.10    0.16
   3   5  -8    0.31    0.18
   3   5  -8    0.28    0.19
   2   5  -8   20.45    0.80
   2   5  -8   19.71    0.83
   2   5  -8   19.55    0.84
   1   5  -8    1.97    0.32
   1   5  -8    2.18    0.34
   1   5  -8    2.56    0.33
  -1  -5   8    2.42    0.34
  -1  -5   8    2.63    0.38
  -1  -5   8    1.44    0.27
   0   5  -8    4.16    0.43
   0   5  -8    4.25    0.43
   0   5  -8    3.40    0.42
   0  -5   8    4.51    0.35
   0  -5   8    3.99    0.42
   0  -5   8    4.59    0.45
   0  -5   8    4.26    0.44
  -1   5  -8    3.78    0.43
  -1   5  -8    3.95    0.42
  -1   5  -8    3.30    0.39
   1  -5   8    4.22    0.45
   1  -5   8    3.32    0.40
   1  -5   8    3.32    0.38
  -2   5  -8   11.29    0.58
  -2   5  -8   11.05    0.58
  -2   5  -8   13.00    0.67
   2  -5   8   11.78    0.63
   2  -5   8   12.33    0.64
   2  -5   8   11.26    0.63
  -3   5  -8    2.04    0.33
  -3   5  -8    2.96    0.34
  -3   5  -8    2.41    0.32
   3  -5   8    2.05    0.28
   3  -5   8    2.20    0.33
   3  -5   8    3.24    0.41
   3  -5   8    2.67    0.37
   4  -5   8    0.53    0.22
   4  -5   8    0.40    0.23
   4  -5   8    0.63    0.23
   5  -5   8   -0.01    0.18
   5  -5   8    0.08    0.20
   5  -5   8    0.56    0.24
   6  -5   8    1.46    0.34
   6  -5   8    1.43    0.32
   6  -5   8    1.57    0.34
   7  -5   8    1.08    0.34
   7  -5   8    1.75    0.38
   7  -5   8    1.42    0.33
   8  -5   8    3.11    0.52
   8  -5   8    3.61    0.51
   8  -5   8    2.63    0.46
   7   4  -8    0.29    0.20
   7   4  -8    0.09    0.23
   7   4  -8    0.65    0.25
   6   4  -8    5.12    0.51
   6   4  -8    4.93    0.56
   6   4  -8    4.74    0.48
   5   4  -8    0.14    0.16
   5   4  -8    0.11    0.17
   5   4  -8    0.39    0.22
   4   4  -8    0.53    0.19
   4   4  -8    0.67    0.23
   4   4  -8    0.34    0.20
   3   4  -8    2.09    0.30
   3   4  -8    1.98    0.32
   3   4  -8    1.78    0.32
   2   4  -8    0.06    0.12
   2   4  -8    0.02    0.12
   2   4  -8   -0.22    0.11
   1   4  -8    4.34    0.43
   1   4  -8    5.90    0.44
   1   4  -8    4.47    0.40
  -1  -4   8    4.61    0.43
  -1  -4   8    4.92    0.39
  -1  -4   8    5.03    0.39
   0   4  -8    0.01    0.11
   0   4  -8   -0.06    0.11
   0   4  -8   -0.12    0.11
   0  -4   8    0.05    0.15
   0  -4   8    0.10    0.15
   0  -4   8   -0.26    0.09
   0  -4   8   -0.04    0.11
  -1   4  -8    6.76    0.47
  -1   4  -8    7.13    0.44
  -1   4  -8    6.17    0.42
   1  -4   8    6.94    0.46
   1  -4   8    6.74    0.38
   1  -4   8    6.45    0.46
   1  -4   8    6.78    0.47
  -2   4  -8    1.25    0.23
  -2   4  -8    0.94    0.21
  -2   4  -8    0.86    0.24
   2  -4   8    1.18    0.26
   2  -4   8    1.01    0.25
   2  -4   8    0.82    0.22
  -3   4  -8    0.99    0.25
  -3   4  -8    1.88    0.26
  -3   4  -8    1.81    0.28
   3  -4   8    1.55    0.30
   3  -4   8    1.96    0.33
   3  -4   8    2.07    0.33
  -4   4  -8   18.70    0.73
  -4   4  -8   19.72    0.83
   4  -4   8   17.75    0.79
   4  -4   8   18.61    0.81
   4  -4   8   18.79    0.80
   5  -4   8    3.12    0.41
   5  -4   8    2.59    0.38
   5  -4   8    4.08    0.47
   6  -4   8    7.67    0.61
   6  -4   8    7.02    0.55
   6  -4   8    6.27    0.58
   7  -4   8    4.01    0.49
   7  -4   8    4.73    0.59
   7  -4   8    4.28    0.51
   8  -4   8    5.11    0.59
   8  -4   8    4.23    0.57
   8  -4   8    4.82    0.57
   7   3  -8    1.84    0.29
   7   3  -8    2.20    0.38
   6   3  -8    0.22    0.16
   6   3  -8    0.29    0.17
   6   3  -8    0.07    0.18
   5   3  -8    0.10    0.13
   5   3  -8   -0.14    0.12
   5   3  -8   -0.03    0.17
   4   3  -8   -0.03    0.16
   4   3  -8   -0.06    0.11
   4   3  -8    0.13    0.15
   3   3  -8   16.31    0.65
   3   3  -8   16.68    0.74
   3   3  -8   15.53    0.66
   2   3  -8   26.74    0.83
   2   3  -8   23.58    0.82
   2   3  -8   24.96    0.89
   1   3  -8    3.61    0.34
   1   3  -8    4.05    0.40
   1   3  -8    4.54    0.36
  -1  -3   8    3.96    0.37
  -1  -3   8    4.19    0.34
  -1  -3   8    4.66    0.38
   0   3  -8    2.35    0.28
   0   3  -8    2.49    0.33
   0   3  -8    2.06    0.28
   0  -3   8    1.97    0.26
   0  -3   8    2.41    0.31
   0  -3   8    2.13    0.28
   0  -3   8    2.39    0.30
  -1   3  -8    1.62    0.25
  -1   3  -8    1.64    0.28
  -1   3  -8    1.67    0.25
   1  -3   8    1.43    0.26
   1  -3   8    1.55    0.23
   1  -3   8    1.48    0.26
   1  -3   8    1.65    0.27
  -2   3  -8    1.24    0.27
  -2   3  -8    0.90    0.20
  -2   3  -8    0.57    0.16
   2  -3   8    0.87    0.18
   2  -3   8    1.05    0.24
   2  -3   8    0.82    0.22
   2  -3   8    1.03    0.24
  -3   3  -8    8.71    0.42
  -3   3  -8    9.99    0.51
  -3   3  -8    8.73    0.54
   3  -3   8    9.27    0.54
   3  -3   8   10.27    0.55
   3  -3   8    8.93    0.54
  -4   3  -8    2.45    0.37
  -4   3  -8    1.95    0.28
   4  -3   8    2.10    0.33
   4  -3   8    1.89    0.31
   4  -3   8    2.19    0.33
   5  -3   8    2.72    0.39
   5  -3   8    2.92    0.39
   5  -3   8    2.86    0.40
   6  -3   8    5.15    0.55
   6  -3   8    5.52    0.57
   6  -3   8    4.66    0.51
   7  -3   8   16.58    0.85
   7  -3   8   17.82    0.90
   7  -3   8   15.87    0.81
   8  -3   8    3.17    0.50
   8  -3   8    4.72    0.56
   8  -3   8    3.02    0.45
   8   2  -8    0.26    0.17
   7   2  -8    1.46    0.24
   7   2  -8    1.29    0.30
   7   2  -8    1.26    0.25
   6   2  -8   15.07    0.60
   6   2  -8   13.63    0.60
   6   2  -8   14.13    0.74
   5   2  -8    0.70    0.24
   5   2  -8    0.66    0.18
   5   2  -8    0.42    0.17
   4   2  -8    2.28    0.28
   4   2  -8    2.60    0.31
   4   2  -8    2.01    0.32
   3   2  -8   41.49    1.05
   3   2  -8   40.91    1.18
   3   2  -8   42.44    1.07
   2   2  -8    8.07    0.43
   2   2  -8    9.17    0.47
   2   2  -8    8.60    0.50
  -2  -2   8    8.33    0.50
   1   2  -8    0.88    0.21
   1   2  -8    0.91    0.19
   1   2  -8    1.20    0.22
  -1  -2   8    1.04    0.20
  -1  -2   8    1.16    0.19
  -1  -2   8    0.75    0.19
  -1  -2   8    1.16    0.23
   0   2  -8    0.31    0.15
   0   2  -8    0.10    0.11
   0   2  -8    0.22    0.14
   0  -2   8   -0.01    0.10
   0  -2   8   -0.05    0.12
   0  -2   8    0.13    0.13
   0  -2   8    0.10    0.13
  -1   2  -8   10.07    0.48
  -1   2  -8   10.00    0.52
  -1   2  -8   10.44    0.50
   1  -2   8   10.21    0.48
   1  -2   8   10.81    0.53
   1  -2   8   10.69    0.50
   1  -2   8    9.32    0.50
  -2   2  -8   19.48    0.70
  -2   2  -8   18.76    0.73
  -2   2  -8   19.22    0.63
   2  -2   8   19.37    0.73
   2  -2   8   19.89    0.74
   2  -2   8   17.85    0.63
   2  -2   8   18.52    0.68
  -3   2  -8    8.27    0.47
  -3   2  -8    8.95    0.52
  -3   2  -8    8.51    0.39
   3  -2   8    8.78    0.52
   3  -2   8    7.88    0.48
   3  -2   8    9.52    0.53
  -4   2  -8    1.81    0.30
  -4   2  -8    1.42    0.24
   4  -2   8    2.33    0.34
   4  -2   8    1.57    0.28
   4  -2   8    1.91    0.31
   5  -2   8    0.51    0.23
   5  -2   8    0.63    0.23
   5  -2   8    0.42    0.21
   6  -2   8   14.52    0.76
   6  -2   8   15.40    0.79
   6  -2   8   14.79    0.76
   7  -2   8    5.37    0.57
   7  -2   8    4.73    0.53
   7  -2   8    5.54    0.59
   8  -2   8    1.64    0.41
   8  -2   8    2.33    0.42
   8  -2   8    1.74    0.38
   8   1  -8    0.15    0.21
  -8  -1   8   -0.02    0.19
   7   1  -8    1.18    0.22
   7   1  -8    1.22    0.30
  -7  -1   8    0.57    0.23
   6   1  -8    5.57    0.53
   6   1  -8    5.84    0.37
   6   1  -8    6.48    0.35
   5   1  -8   14.34    0.69
   5   1  -8   13.22    0.51
   5   1  -8   13.44    0.53
   4   1  -8    5.51    0.34
   4   1  -8    4.75    0.45
   4   1  -8    5.33    0.34
   3   1  -8   38.86    1.11
   3   1  -8   38.60    0.97
   3   1  -8   38.38    0.95
  -3  -1   8   38.81    1.15
   2   1  -8    6.45    0.38
   2   1  -8    5.59    0.35
   2   1  -8    5.63    0.39
  -2  -1   8    5.61    0.42
   1   1  -8    7.80    0.40
   1   1  -8    6.81    0.41
   1   1  -8    7.32    0.43
  -1  -1   8    6.66    0.36
  -1  -1   8    6.59    0.43
  -1  -1   8    7.54    0.40
  -1  -1   8    6.87    0.40
   0   1  -8   21.40    0.53
   0   1  -8   21.93    0.71
   0   1  -8   20.50    0.72
   0   1  -8   20.70    0.69
   0  -1   8   22.33    0.69
   0  -1   8   22.18    0.69
   0  -1   8   20.92    0.72
   0  -1   8   21.56    0.71
  -1   1  -8    1.84    0.25
  -1   1  -8    1.95    0.28
  -1   1  -8    1.92    0.25
   1  -1   8    2.05    0.25
   1  -1   8    2.04    0.28
   1  -1   8    1.97    0.27
   1  -1   8    1.36    0.23
  -2   1  -8    0.33    0.12
  -2   1  -8    0.24    0.15
  -2   1  -8    0.09    0.11
   2  -1   8    0.07    0.13
   2  -1   8    0.09    0.15
   2  -1   8    0.01    0.11
  -3   1  -8    1.22    0.22
  -3   1  -8    1.52    0.29
   3  -1   8    1.11    0.23
   3  -1   8    1.66    0.31
   3  -1   8    1.11    0.23
  -4   1  -8   14.45    0.68
  -4   1  -8   13.04    0.61
   4  -1   8   12.87    0.66
   4  -1   8   13.70    0.63
   4  -1   8   14.16    0.68
   5  -1   8    0.23    0.18
   5  -1   8    0.51    0.21
   5  -1   8    0.41    0.21
   6  -1   8    1.04    0.30
   6  -1   8    0.67    0.25
   6  -1   8    0.50    0.23
  -7   1  -8    5.52    0.55
   7  -1   8    6.99    0.67
   7  -1   8    5.19    0.57
   7  -1   8    7.01    0.66
  -8   1  -8    1.96    0.38
   8  -1   8    1.74    0.40
   8  -1   8    2.21    0.43
   8  -1   8    1.22    0.36
   8   0  -8    0.24    0.23
   7   0  -8    0.19    0.21
   6   0  -8    3.73    0.45
   6   0  -8    3.87    0.28
   6   0  -8    4.09    0.25
   5   0  -8    0.38    0.13
   5   0  -8    0.19    0.10
   5   0  -8    0.63    0.23
  -5   0   8    0.53    0.23
  -5   0   8    0.61    0.24
   4   0  -8    0.17    0.16
   4   0  -8    0.27    0.12
   4   0  -8    0.36    0.13
  -4   0   8    0.28    0.21
   3   0  -8    4.27    0.41
   3   0  -8    3.71    0.27
   3   0  -8    3.83    0.28
  -3   0   8    3.71    0.40
   2   0  -8    0.49    0.15
   2   0  -8    0.84    0.19
   2   0  -8    0.49    0.14
  -2   0   8    0.53    0.18
   1   0  -8    6.48    0.26
   1   0  -8    6.78    0.39
   1   0  -8    6.57    0.37
   1   0  -8    6.77    0.40
  -1   0   8    6.45    0.37
  -1   0   8    7.27    0.37
  -1   0   8    6.99    0.43
  -1   0   8    6.01    0.36
   0   0  -8   13.44    0.44
   0   0  -8   13.53    0.55
   0   0  -8   13.31    0.56
   0   0  -8   14.26    0.56
   0   0   8   14.20    0.57
   0   0   8   14.87    0.52
   0   0   8   14.01    0.54
   0   0   8   13.61    0.59
  -1   0  -8   28.46    0.85
  -1   0  -8   29.31    0.89
  -1   0  -8   28.73    0.79
  -1   0  -8   27.80    0.75
   1   0   8   26.76    0.86
   1   0   8   30.10    0.86
   1   0   8   28.23    0.87
   1   0   8   29.14    0.77
  -2   0  -8    3.87    0.28
  -2   0  -8    4.25    0.35
  -2   0  -8    4.84    0.39
   2   0   8    4.71    0.34
   2   0   8    4.05    0.38
   2   0   8    4.27    0.40
  -3   0  -8   22.37    0.84
  -3   0  -8   23.61    0.81
   3   0   8   21.49    0.74
   3   0   8   23.65    0.86
   3   0   8   22.67    0.83
  -4   0  -8    0.27    0.19
  -4   0  -8    0.36    0.17
   4   0   8    0.50    0.21
   4   0   8    0.48    0.20
   4   0   8    0.45    0.19
  -5   0  -8    6.64    0.44
   5   0   8    6.63    0.52
   5   0   8    7.60    0.52
   5   0   8    7.80    0.56
  -6   0  -8    2.81    0.37
   6   0   8    4.78    0.52
   6   0   8    3.71    0.45
   6   0   8    3.03    0.45
  -7   0  -8    1.50    0.31
   7   0   8    0.44    0.26
   7   0   8    0.76    0.29
   7   0   8    1.61    0.36
  -8   0  -8    0.38    0.24
   8   0   8    0.65    0.28
   8   0   8    0.39    0.27
   8   0   8    0.14    0.26
  -9   1   8    3.87    0.57
   8  -1  -8    4.40    0.51
  -8   1   8    6.25    0.71
   7  -1  -8   -0.04    0.18
  -7   1   8   -0.16    0.17
   6  -1  -8    0.16    0.11
   6  -1  -8    0.04    0.17
   5  -1  -8    5.76    0.31
   5  -1  -8    6.06    0.28
  -5   1   8    6.25    0.51
   4  -1  -8    3.49    0.40
   4  -1  -8    3.37    0.26
   4  -1  -8    3.34    0.24
  -4   1   8    3.43    0.42
   3  -1  -8    1.94    0.23
   3  -1  -8    1.67    0.21
   3  -1  -8    1.67    0.27
  -3   1   8    1.71    0.28
   2  -1  -8    8.46    0.33
   2  -1  -8    8.17    0.40
   2  -1  -8    8.10    0.40
   2  -1  -8    8.38    0.47
  -2   1   8    8.24    0.50
   1  -1  -8    7.38    0.42
   1  -1  -8    6.65    0.37
   1  -1  -8    7.30    0.33
   1  -1  -8    6.25    0.38
  -1   1   8    7.47    0.47
  -1   1   8    6.74    0.33
   0  -1  -8    1.44    0.23
   0  -1  -8    1.41    0.23
   0  -1  -8    1.42    0.21
   0  -1  -8    1.35    0.19
   0   1   8    1.68    0.28
   0   1   8    1.53    0.24
   0   1   8    1.62    0.19
   0   1   8    1.37    0.21
  -1  -1  -8    5.52    0.36
  -1  -1  -8    5.46    0.39
  -1  -1  -8    5.58    0.38
  -1  -1  -8    5.70    0.35
   1   1   8    6.07    0.40
   1   1   8    5.95    0.32
   1   1   8    6.02    0.42
  -2  -1  -8   26.45    0.87
  -2  -1  -8   28.46    0.93
  -2  -1  -8   28.04    0.75
  -2  -1  -8   28.82    0.87
   2   1   8   28.22    0.92
   2   1   8   28.72    0.78
   2   1   8   27.88    0.89
  -3  -1  -8   42.15    1.22
  -3  -1  -8   42.64    1.18
   3   1   8   43.27    1.23
   3   1   8   44.06    1.08
   3   1   8   43.23    1.20
  -4  -1  -8    1.51    0.27
  -4  -1  -8    1.18    0.26
   4   1   8    0.89    0.25
   4   1   8    1.20    0.24
   4   1   8    0.71    0.25
  -5  -1  -8    0.08    0.19
   5   1   8    0.03    0.17
   5   1   8    0.22    0.20
   5   1   8    0.13    0.17
   6   1   8    3.32    0.42
   6   1   8    2.99    0.43
   6   1   8    3.00    0.44
   7   1   8    0.48    0.28
   7   1   8    0.49    0.25
   7   1   8    0.46    0.26
  -9   2   8    1.61    0.41
   8  -2  -8   -0.08    0.19
  -8   2   8   -0.38    0.15
   7  -2  -8    5.03    0.52
  -7   2   8    5.25    0.61
   6  -2  -8    3.16    0.41
  -6   2   8    3.63    0.47
   5  -2  -8    0.03    0.07
   5  -2  -8   -0.01    0.07
   5  -2  -8   -0.20    0.11
  -5   2   8    0.07    0.16
   4  -2  -8    0.12    0.09
   4  -2  -8    0.23    0.16
   4  -2  -8    0.19    0.10
  -4   2   8    0.12    0.16
   3  -2  -8    0.55    0.18
   3  -2  -8    0.42    0.13
   3  -2  -8    0.34    0.12
   3  -2  -8    0.46    0.13
  -3   2   8    0.28    0.18
   2  -2  -8    0.99    0.22
   2  -2  -8    1.22    0.21
   2  -2  -8    1.07    0.17
   2  -2  -8    1.34    0.20
  -2   2   8    0.86    0.22
   1  -2  -8    1.37    0.20
   1  -2  -8    1.10    0.19
   1  -2  -8    0.84    0.20
   1  -2  -8    1.33    0.22
  -1   2   8    1.26    0.26
   0  -2  -8    0.63    0.17
   0  -2  -8    0.58    0.16
   0  -2  -8    0.83    0.20
   0  -2  -8    0.84    0.18
   0   2   8    0.66    0.17
   0   2   8    0.75    0.19
   0   2   8    0.79    0.22
  -1  -2  -8    0.63    0.16
  -1  -2  -8    0.55    0.17
  -1  -2  -8    0.48    0.18
  -1  -2  -8    0.40    0.17
   1   2   8    0.53    0.19
   1   2   8    0.54    0.18
  -2  -2  -8    0.39    0.19
  -2  -2  -8    0.61    0.18
  -2  -2  -8    0.42    0.18
  -2  -2  -8    0.62    0.16
   2   2   8    0.40    0.20
   2   2   8    0.71    0.19
  -3  -2  -8    0.52    0.20
  -3  -2  -8    0.43    0.20
  -3  -2  -8    0.66    0.20
   3   2   8    0.35    0.20
   3   2   8    0.55    0.22
  -4  -2  -8   10.15    0.61
  -4  -2  -8    8.85    0.56
  -4  -2  -8    9.13    0.60
   4   2   8    8.95    0.60
   4   2   8    8.20    0.57
  -5  -2  -8    5.48    0.59
  -5  -2  -8    6.08    0.64
   5   2   8    5.85    0.57
   5   2   8    5.24    0.54
   6   2   8    0.87    0.29
   6   2   8    1.60    0.38
   7   2   8    4.24    0.56
   7   2   8    4.44    0.58
  -9   3   8    1.75    0.41
   8  -3  -8    6.78    0.62
  -8   3   8    6.11    0.64
   7  -3  -8    9.68    0.62
  -7   3   8    8.36    0.62
   6  -3  -8    0.88    0.26
  -6   3   8    0.70    0.25
   5  -3  -8    1.72    0.31
   5  -3  -8    1.51    0.18
   5  -3  -8    1.22    0.17
  -5   3   8    1.03    0.27
   4  -3  -8   27.95    0.73
   4  -3  -8   28.12    0.68
   4  -3  -8   26.74    0.80
   4  -3  -8   28.97    0.97
  -4   3   8   29.68    1.02
   3  -3  -8    0.94    0.19
   3  -3  -8    1.21    0.24
   3  -3  -8    0.94    0.17
   3  -3  -8    0.95    0.17
  -3   3   8    1.09    0.26
   2  -3  -8    2.61    0.28
   2  -3  -8    2.59    0.34
   2  -3  -8    2.16    0.26
   2  -3  -8    1.89    0.25
  -2   3   8    1.88    0.33
   1  -3  -8   10.64    0.51
   1  -3  -8   10.87    0.51
   1  -3  -8   11.28    0.51
   1  -3  -8   10.90    0.54
  -1   3   8   11.19    0.61
   0  -3  -8   17.52    0.68
   0  -3  -8   16.66    0.65
   0  -3  -8   16.79    0.66
   0  -3  -8   16.54    0.64
  -1  -3  -8   11.75    0.57
  -1  -3  -8   12.20    0.59
  -1  -3  -8   12.15    0.60
  -1  -3  -8   11.83    0.53
   1   3   8   12.54    0.62
   1   3   8   11.51    0.55
  -2  -3  -8    3.05    0.38
  -2  -3  -8    4.26    0.46
  -2  -3  -8    2.82    0.35
  -2  -3  -8    3.85    0.35
   2   3   8    3.10    0.36
   2   3   8    3.50    0.42
  -3  -3  -8    1.31    0.30
  -3  -3  -8    1.31    0.28
  -3  -3  -8    1.04    0.24
   3   3   8    1.19    0.27
   3   3   8    0.73    0.25
  -4  -3  -8    0.30    0.19
  -4  -3  -8   -0.02    0.21
  -4  -3  -8    0.31    0.18
   4   3   8    0.30    0.21
   4   3   8    0.45    0.26
  -5  -3  -8   -0.14    0.20
   5   3   8   -0.38    0.17
   5   3   8   -0.05    0.20
  -6  -3  -8    3.77    0.55
   6   3   8    3.42    0.50
   6   3   8    3.25    0.50
  -7  -3  -8    2.79    0.52
   8  -4  -8    5.84    0.59
  -8   4   8    6.53    0.67
  -8   4   8    6.65    0.65
   7  -4  -8    0.59    0.25
  -7   4   8    1.33    0.35
   6  -4  -8    0.52    0.23
  -6   4   8    0.64    0.25
   5  -4  -8   45.61    0.99
   5  -4  -8   43.78    1.29
   5  -4  -8   46.85    1.35
  -5   4   8   47.59    1.39
   4  -4  -8    3.88    0.29
   4  -4  -8    3.48    0.37
   4  -4  -8    3.38    0.25
   4  -4  -8    3.28    0.41
  -4   4   8    3.43    0.43
   3  -4  -8    0.17    0.11
   3  -4  -8    0.03    0.14
   3  -4  -8   -0.06    0.10
   3  -4  -8    0.13    0.13
  -3   4   8   -0.12    0.16
   2  -4  -8    5.16    0.36
   2  -4  -8    4.86    0.35
   2  -4  -8    5.44    0.42
   2  -4  -8    4.07    0.39
  -2   4   8    4.80    0.51
   1  -4  -8   19.06    0.75
   1  -4  -8   19.88    0.74
   1  -4  -8   19.60    0.72
   1  -4  -8   19.83    0.72
   0  -4  -8    0.41    0.17
   0  -4  -8   -0.05    0.11
   0  -4  -8    0.16    0.14
   0  -4  -8    0.14    0.16
  -1  -4  -8    1.66    0.30
  -1  -4  -8    1.63    0.28
  -1  -4  -8    1.28    0.24
  -1  -4  -8    2.21    0.34
   1   4   8    1.04    0.38
   1   4   8    1.95    0.35
  -2  -4  -8   44.76    1.32
  -2  -4  -8   43.78    1.30
  -2  -4  -8   46.89    1.32
   2   4   8   48.18    1.37
   2   4   8   46.53    1.30
  -3  -4  -8   -0.02    0.14
  -3  -4  -8   -0.01    0.15
  -3  -4  -8    0.30    0.22
   3   4   8   -0.05    0.17
   3   4   8   -0.15    0.18
  -4  -4  -8    1.34    0.35
  -4  -4  -8    1.46    0.30
  -4  -4  -8    2.02    0.37
   4   4   8    1.70    0.37
   4   4   8    1.68    0.37
  -5  -4  -8    1.45    0.38
   5   4   8    1.93    0.42
  -6  -4  -8    3.27    0.56
   6   4   8    1.89    0.42
   6   4   8    2.68    0.46
   8  -5  -8    0.59    0.29
  -8   5   8    0.29    0.27
   7  -5  -8   -0.12    0.18
  -7   5   8    0.06    0.20
  -7   5   8    0.10    0.20
   6  -5  -8    0.72    0.25
  -6   5   8    0.73    0.27
  -6   5   8    0.58    0.27
   5  -5  -8    9.25    0.56
   5  -5  -8    8.85    0.42
   5  -5  -8    8.54    0.59
  -5   5   8    9.50    0.65
   4  -5  -8   14.45    0.65
   4  -5  -8   14.04    0.73
   4  -5  -8   13.72    0.50
   4  -5  -8   14.57    0.57
  -4   5   8   13.16    0.72
   3  -5  -8   15.57    0.74
   3  -5  -8   15.80    0.70
   3  -5  -8   17.04    0.64
   3  -5  -8   15.67    0.60
  -3   5   8   16.17    0.80
   2  -5  -8    0.05    0.14
   2  -5  -8    0.23    0.14
   2  -5  -8    0.06    0.15
   2  -5  -8    0.16    0.14
   1  -5  -8    0.08    0.14
   1  -5  -8    0.41    0.18
   1  -5  -8   -0.04    0.14
   1  -5  -8    0.07    0.13
   0  -5  -8   33.36    1.05
   0  -5  -8   31.50    1.05
   0  -5  -8   29.08    0.97
   0  -5  -8   29.43    1.00
  -1  -5  -8   71.45    1.75
  -1  -5  -8   71.19    1.73
  -1  -5  -8   71.45    1.76
  -2  -5  -8   17.18    0.83
  -2  -5  -8   17.68    0.82
  -2  -5  -8   17.41    0.83
   2   5   8   18.26    0.86
  -3  -5  -8    1.99    0.37
  -3  -5  -8    1.09    0.32
  -3  -5  -8    1.15    0.30
   3   5   8    1.92    0.37
   3   5   8    1.43    0.33
  -4  -5  -8    2.94    0.43
  -4  -5  -8    3.26    0.51
  -4  -5  -8    3.45    0.51
   4   5   8    2.99    0.46
   4   5   8    2.92    0.46
  -5  -5  -8    5.89    0.71
   5   5   8    5.40    0.61
   5   5   8    5.40    0.61
   8  -6  -8    0.54    0.28
  -8   6   8    0.57    0.28
   7  -6  -8    8.27    0.66
  -7   6   8    8.65    0.66
   6  -6  -8    0.45    0.23
   6  -6  -8    0.87    0.27
  -6   6   8    0.60    0.25
  -6   6   8    0.58    0.28
   5  -6  -8    0.34    0.20
   5  -6  -8   -0.03    0.11
   5  -6  -8   -0.05    0.09
   5  -6  -8    0.25    0.20
  -5   6   8   -0.03    0.20
  -5   6   8   -0.08    0.18
   4  -6  -8    0.18    0.12
   4  -6  -8    0.00    0.12
   4  -6  -8    0.01    0.16
   4  -6  -8   -0.05    0.16
  -4   6   8    0.10    0.19
  -4   6   8   -0.20    0.19
   3  -6  -8    1.53    0.27
   3  -6  -8    1.37    0.25
   3  -6  -8    1.74    0.33
   3  -6  -8    1.34    0.31
  -3   6   8    0.94    0.28
   2  -6  -8    6.20    0.49
   2  -6  -8    5.30    0.48
   2  -6  -8    5.13    0.51
   2  -6  -8    4.97    0.47
   1  -6  -8    0.14    0.15
   1  -6  -8    0.07    0.19
   1  -6  -8    0.23    0.16
   0  -6  -8    0.17    0.18
   0  -6  -8   -0.03    0.15
   0  -6  -8    0.11    0.17
   0   6   8    0.00    0.18
  -1  -6  -8    4.16    0.51
  -1  -6  -8    4.87    0.54
  -1  -6  -8    3.96    0.47
   1   6   8    3.95    0.42
  -2  -6  -8    3.41    0.48
  -2  -6  -8    2.79    0.44
  -2  -6  -8    2.26    0.41
  -3  -6  -8    6.06    0.66
  -3  -6  -8    4.82    0.54
  -3  -6  -8    5.89    0.62
   3   6   8    5.09    0.64
  -4  -6  -8    8.59    0.69
  -4  -6  -8    9.11    0.73
  -4  -6  -8    7.34    0.70
   4   6   8    9.26    0.72
   4   6   8    7.65    0.74
   7  -7  -8    1.29    0.38
   7  -7  -8    0.85    0.37
  -7   7   8    0.97    0.33
   6  -7  -8    6.42    0.65
   6  -7  -8    4.78    0.55
  -6   7   8    6.94    0.70
   5  -7  -8    2.17    0.41
   5  -7  -8    2.71    0.41
   5  -7  -8    2.80    0.35
   5  -7  -8    2.37    0.27
  -5   7   8    2.89    0.46
   4  -7  -8    1.20    0.32
   4  -7  -8    1.70    0.26
   4  -7  -8    2.58    0.35
   4  -7  -8    1.85    0.37
  -4   7   8    1.52    0.35
   3  -7  -8    0.09    0.20
   3  -7  -8   -0.12    0.11
   3  -7  -8   -0.01    0.14
  -3   7   8    0.02    0.21
   2  -7  -8    0.58    0.24
   2  -7  -8    0.68    0.23
   2  -7  -8    0.71    0.22
  -2   7   8    0.70    0.27
   1  -7  -8    6.39    0.61
   1  -7  -8    6.37    0.50
   1  -7  -8    6.84    0.54
  -1   7   8    5.31    0.54
   0  -7  -8   -0.04    0.16
   0  -7  -8   -0.06    0.17
   0  -7  -8    0.05    0.19
   0   7   8   -0.06    0.18
  -1  -7  -8    3.59    0.48
  -1  -7  -8    4.42    0.53
  -1  -7  -8    3.72    0.50
  -2  -7  -8    4.86    0.57
  -2  -7  -8    4.60    0.57
  -2  -7  -8    5.14    0.61
  -3  -7  -8    0.19    0.23
  -3  -7  -8   -0.21    0.18
  -3  -7  -8    0.12    0.25
  -6   8   8   13.04    0.85
   5  -8  -8    0.68    0.22
   5  -8  -8    0.83    0.29
   5  -8  -8    1.21    0.23
  -5   8   8    0.51    0.31
   4  -8  -8    0.31    0.25
   4  -8  -8    0.93    0.26
   4  -8  -8    0.61    0.19
  -4   8   8    0.94    0.34
   3  -8  -8    0.23    0.23
   3  -8  -8    0.21    0.16
   3  -8  -8    0.20    0.18
  -3   8   8   -0.16    0.21
   2  -8  -8    2.73    0.45
   2  -8  -8    3.27    0.44
   2  -8  -8    2.67    0.40
  -2   8   8    1.86    0.39
   1  -8  -8    0.49    0.23
   1  -8  -8    0.43    0.25
   1  -8  -8    0.35    0.25
  -1   8   8    0.77    0.29
   0  -8  -8    3.88    0.50
   0  -8  -8    3.27    0.48
   0  -8  -8    2.74    0.47
   0   8   8    4.28    0.52
  -1  -8  -8   -0.14    0.20
  -1  -8  -8    0.29    0.24
  -1  -8  -8   -0.02    0.16
  -2  -8  -8   -0.24    0.18
  -2  -8  -8    0.16    0.25
  -2  -8  -8   -0.13    0.18
   4  -9  -8    3.59    0.47
   4  -9  -8    2.37    0.35
   4  -9  -8    2.36    0.46
  -4   9   8    2.87    0.52
   3  -9  -8    1.77    0.41
   3  -9  -8    2.13    0.36
   3  -9  -8    1.89    0.39
  -3   9   8    2.41    0.45
   2  -9  -8    0.15    0.21
   2  -9  -8    0.42    0.22
   2  -9  -8   -0.13    0.19
  -2   9   8   -0.04    0.24
   1  -9  -8    0.34    0.21
   1  -9  -8    0.18    0.23
   1  -9  -8    0.65    0.30
  -1   9   8    0.21    0.27
   0  -9  -8   19.61    0.97
   1   9  -9    8.06    0.82
   1   9  -9    9.40    0.88
   1   9  -9    8.89    0.80
  -1  -9   9    8.22    0.79
   0   9  -9    3.48    0.54
   0   9  -9    4.61    0.61
   0  -9   9    3.97    0.58
  -1   9  -9    1.31    0.35
  -1   9  -9    1.67    0.42
  -1   9  -9    1.46    0.37
   1  -9   9    1.78    0.43
   1  -9   9    2.61    0.49
   1  -9   9    1.99    0.42
  -2   9  -9    0.58    0.27
   2  -9   9    0.65    0.32
   2  -9   9    0.58    0.28
   2  -9   9    0.36    0.30
  -3   9  -9    0.33    0.24
   3  -9   9    0.58    0.27
   3  -9   9    0.45    0.28
   3  -9   9   -0.30    0.20
   4  -9   9    0.49    0.29
   4  -9   9    0.21    0.26
   4  -9   9    0.23    0.26
   3   8  -9    7.22    0.74
   3   8  -9    7.93    0.74
   3   8  -9    7.34    0.75
   2   8  -9    1.67    0.42
   2   8  -9    0.83    0.31
  -2  -8   9    1.42    0.40
   1   8  -9    0.71    0.29
   1   8  -9    1.07    0.30
   1   8  -9    0.77    0.30
  -1  -8   9    0.13    0.28
   0   8  -9    3.70    0.52
   0   8  -9    3.23    0.45
   0   8  -9    4.02    0.54
   0  -8   9    3.79    0.55
   0  -8   9    3.97    0.55
  -1   8  -9    0.67    0.25
  -1   8  -9    0.36    0.24
  -1   8  -9    0.25    0.23
   1  -8   9    0.59    0.28
   1  -8   9    0.77    0.31
   1  -8   9    0.73    0.30
  -2   8  -9    2.60    0.43
  -2   8  -9    2.25    0.41
   2  -8   9    3.18    0.50
   2  -8   9    3.07    0.48
   2  -8   9    3.62    0.52
  -3   8  -9    0.67    0.27
   3  -8   9    0.63    0.29
   3  -8   9    0.77    0.31
   3  -8   9    0.79    0.30
   4  -8   9    0.13    0.25
   4  -8   9    0.37    0.27
   4  -8   9    0.18    0.24
   5  -8   9    3.09    0.48
   5  -8   9    2.86    0.47
   5  -8   9    3.18    0.49
   4   7  -9   -0.06    0.21
   4   7  -9    0.40    0.25
   3   7  -9    1.79    0.36
   3   7  -9    1.58    0.37
   3   7  -9    1.80    0.40
   2   7  -9    1.32    0.31
   2   7  -9    0.88    0.31
   2   7  -9    0.95    0.31
  -2  -7   9    0.78    0.31
   1   7  -9    4.69    0.55
   1   7  -9    4.94    0.59
   1   7  -9    6.30    0.62
  -1  -7   9    4.49    0.54
   0   7  -9    6.16    0.57
   0   7  -9    6.95    0.67
   0   7  -9    5.44    0.57
   0  -7   9    6.22    0.59
   0  -7   9    5.08    0.56
   0  -7   9    6.95    0.64
  -1   7  -9   12.12    0.69
  -1   7  -9   10.65    0.68
  -1   7  -9    9.98    0.69
   1  -7   9   11.66    0.71
   1  -7   9   10.54    0.71
   1  -7   9   11.52    0.71
  -2   7  -9    0.39    0.23
  -2   7  -9    0.22    0.18
  -2   7  -9    0.41    0.23
   2  -7   9    0.26    0.23
   2  -7   9    0.18    0.21
   2  -7   9    0.22    0.23
  -3   7  -9    4.14    0.49
   3  -7   9    4.52    0.54
   3  -7   9    4.46    0.54
   3  -7   9    5.58    0.60
   4  -7   9    2.07    0.39
   4  -7   9    2.76    0.45
   4  -7   9    2.96    0.47
   5  -7   9   -0.10    0.18
   5  -7   9   -0.13    0.20
   5  -7   9   -0.19    0.18
   6  -7   9    0.48    0.28
   6  -7   9    0.64    0.33
   6  -7   9    0.84    0.32
   5   6  -9   13.04    0.83
   5   6  -9   12.83    0.79
   4   6  -9    0.99    0.30
   4   6  -9    0.74    0.26
   4   6  -9    0.76    0.30
   3   6  -9    0.78    0.25
   3   6  -9    1.06    0.30
   3   6  -9    0.85    0.28
   2   6  -9    0.15    0.20
   2   6  -9    0.10    0.18
   2   6  -9    0.44    0.23
   1   6  -9    1.82    0.35
   1   6  -9    2.51    0.36
   1   6  -9    2.26    0.38
  -1  -6   9    1.82    0.34
   0   6  -9    0.05    0.15
   0   6  -9   -0.01    0.16
   0   6  -9   -0.23    0.15
   0  -6   9    0.18    0.19
   0  -6   9   -0.01    0.21
   0  -6   9    0.29    0.22
  -1   6  -9   19.14    0.88
  -1   6  -9   16.30    0.78
  -1   6  -9   19.29    0.84
   1  -6   9   19.67    0.87
   1  -6   9   17.02    0.84
   1  -6   9   19.31    0.87
  -2   6  -9   19.57    0.84
  -2   6  -9   20.73    0.92
  -2   6  -9   17.48    0.79
   2  -6   9   19.89    0.89
   2  -6   9   19.56    0.89
   2  -6   9   19.95    0.89
  -3   6  -9    2.91    0.43
  -3   6  -9    3.00    0.40
  -3   6  -9    2.54    0.35
   3  -6   9    3.08    0.43
   3  -6   9    3.65    0.47
   3  -6   9    3.44    0.46
   4  -6   9    0.27    0.22
   4  -6   9    0.74    0.29
   4  -6   9    0.24    0.23
   5  -6   9    4.33    0.54
   5  -6   9    3.87    0.50
   5  -6   9    2.50    0.43
   6  -6   9    2.10    0.40
   6  -6   9    2.61    0.45
   6  -6   9    2.05    0.38
   7  -6   9    2.91    0.48
   7  -6   9    2.62    0.45
   7  -6   9    2.69    0.48
   6   5  -9    2.09    0.39
   6   5  -9    2.11    0.43
   5   5  -9    0.11    0.18
   5   5  -9    0.36    0.23
   5   5  -9    0.19    0.21
   4   5  -9    6.85    0.55
   4   5  -9    7.42    0.55
   4   5  -9    7.28    0.68
   3   5  -9    3.32    0.44
   3   5  -9    3.09    0.40
   3   5  -9    2.83    0.41
   2   5  -9    1.23    0.28
   2   5  -9    1.19    0.27
   2   5  -9    1.21    0.28
   1   5  -9    9.66    0.61
   1   5  -9    9.52    0.58
   1   5  -9    8.84    0.59
  -1  -5   9   10.09    0.62
   0   5  -9    8.93    0.56
   0   5  -9    9.12    0.58
   0   5  -9    8.31    0.55
   0  -5   9    8.45    0.56
   0  -5   9    9.94    0.58
   0  -5   9    8.83    0.51
   0  -5   9    9.74    0.62
  -1   5  -9   14.63    0.70
  -1   5  -9   15.68    0.77
  -1   5  -9   14.12    0.69
   1  -5   9   14.31    0.73
   1  -5   9   14.50    0.72
   1  -5   9   16.16    0.76
  -2   5  -9    0.38    0.18
  -2   5  -9    0.29    0.19
  -2   5  -9    0.30    0.17
   2  -5   9    0.17    0.20
   2  -5   9    0.19    0.20
   2  -5   9    0.40    0.21
  -3   5  -9    6.25    0.43
  -3   5  -9    4.88    0.46
  -3   5  -9    5.53    0.56
   3  -5   9    6.09    0.56
   3  -5   9    5.08    0.50
   3  -5   9    5.03    0.52
   4  -5   9    3.56    0.44
   4  -5   9    3.34    0.44
   4  -5   9    4.33    0.50
   5  -5   9    0.38    0.24
   5  -5   9    0.42    0.24
   5  -5   9    0.45    0.25
   6  -5   9    1.64    0.36
   6  -5   9    1.04    0.31
   6  -5   9    0.24    0.24
   7  -5   9    4.47    0.57
   7  -5   9    5.39    0.65
   7  -5   9    4.69    0.58
   7   4  -9    1.69    0.31
   6   4  -9    0.45    0.25
   6   4  -9    0.34    0.19
   6   4  -9    0.75    0.23
   5   4  -9    9.58    0.67
   5   4  -9   10.24    0.60
   5   4  -9   10.75    0.62
   4   4  -9    3.54    0.47
   4   4  -9    3.81    0.41
   4   4  -9    3.65    0.43
   3   4  -9    5.47    0.54
   3   4  -9    4.63    0.46
   3   4  -9    5.61    0.53
   2   4  -9    0.35    0.16
   2   4  -9    0.13    0.16
   2   4  -9    0.01    0.13
   1   4  -9    1.60    0.32
   1   4  -9    1.75    0.30
   1   4  -9    1.30    0.27
  -1  -4   9    1.31    0.27
  -1  -4   9    2.28    0.34
   0   4  -9    1.89    0.34
   0   4  -9    2.37    0.32
   0   4  -9    2.11    0.33
   0  -4   9    2.55    0.35
   0  -4   9    2.27    0.31
   0  -4   9    2.07    0.31
   0  -4   9    1.77    0.32
  -1   4  -9    1.08    0.24
  -1   4  -9    0.85    0.25
  -1   4  -9    0.80    0.22
   1  -4   9    0.94    0.25
   1  -4   9    1.06    0.22
   1  -4   9    0.81    0.24
   1  -4   9    0.92    0.24
  -2   4  -9   14.16    0.66
  -2   4  -9   16.04    0.66
  -2   4  -9   14.55    0.71
   2  -4   9   14.06    0.70
   2  -4   9   15.65    0.73
   2  -4   9   15.03    0.70
  -3   4  -9    3.42    0.36
  -3   4  -9    3.65    0.45
  -3   4  -9    3.39    0.39
   3  -4   9    3.78    0.45
   3  -4   9    2.92    0.41
   3  -4   9    3.04    0.42
  -4   4  -9    3.65    0.42
  -4   4  -9    3.76    0.48
   4  -4   9    3.62    0.44
   4  -4   9    3.94    0.48
   4  -4   9    4.36    0.48
   5  -4   9    0.95    0.28
   5  -4   9    0.51    0.26
   5  -4   9    0.54    0.27
   6  -4   9    0.22    0.23
   6  -4   9    0.06    0.21
   6  -4   9    0.44    0.25
   7  -4   9    0.38    0.27
   7  -4   9    0.19    0.22
   7  -4   9    0.31    0.26
   7   3  -9    0.69    0.22
   7   3  -9    0.96    0.25
   7   3  -9    0.93    0.31
   6   3  -9    0.18    0.18
   6   3  -9    0.12    0.16
   6   3  -9    0.13    0.23
   5   3  -9    5.60    0.43
   5   3  -9    4.84    0.53
   5   3  -9    4.63    0.45
   4   3  -9    3.50    0.44
   4   3  -9    3.68    0.40
   4   3  -9    3.62    0.40
   3   3  -9    3.72    0.43
   3   3  -9    4.00    0.39
   3   3  -9    4.03    0.42
   2   3  -9   27.18    0.88
   2   3  -9   27.92    0.93
   2   3  -9   24.56    0.93
  -2  -3   9   28.43    0.97
   1   3  -9    1.21    0.23
   1   3  -9    1.27    0.26
   1   3  -9    0.88    0.23
  -1  -3   9    1.52    0.28
  -1  -3   9    0.87    0.24
   0   3  -9   32.61    0.98
   0   3  -9   32.87    1.03
   0   3  -9   33.96    1.02
   0  -3   9   32.74    1.01
   0  -3   9   33.51    0.97
   0  -3   9   32.56    1.01
   0  -3   9   34.26    1.00
  -1   3  -9    5.35    0.41
  -1   3  -9    5.28    0.40
  -1   3  -9    4.54    0.45
   1  -3   9    5.27    0.39
   1  -3   9    4.91    0.44
   1  -3   9    5.13    0.46
   1  -3   9    5.17    0.46
  -2   3  -9    1.60    0.29
  -2   3  -9    1.64    0.27
  -2   3  -9    1.59    0.26
   2  -3   9    1.82    0.30
   2  -3   9    1.70    0.29
   2  -3   9    1.58    0.30
   2  -3   9    1.79    0.26
  -3   3  -9    2.45    0.38
  -3   3  -9    1.91    0.29
   3  -3   9    2.98    0.39
   3  -3   9    2.57    0.36
   3  -3   9    2.09    0.33
  -4   3  -9   -0.10    0.11
  -4   3  -9   -0.05    0.15
   4  -3   9   -0.05    0.17
   4  -3   9    0.05    0.18
   4  -3   9    0.00    0.16
   5  -3   9    2.40    0.38
   5  -3   9    2.94    0.43
   5  -3   9    3.25    0.42
   6  -3   9    6.77    0.65
   6  -3   9    6.40    0.62
   6  -3   9    8.48    0.64
   7  -3   9    2.04    0.40
   7  -3   9    1.70    0.39
   7  -3   9    1.61    0.37
   8  -3   9    2.29    0.46
   7   2  -9    0.91    0.22
   7   2  -9    1.17    0.23
   7   2  -9    1.76    0.37
   6   2  -9    1.22    0.23
   6   2  -9    0.75    0.20
   6   2  -9    1.77    0.35
   5   2  -9   17.30    0.69
   5   2  -9   17.35    0.68
   5   2  -9   17.89    0.83
   4   2  -9    9.14    0.59
   4   2  -9    8.72    0.48
   4   2  -9   10.01    0.52
   3   2  -9    2.48    0.31
   3   2  -9    3.87    0.37
   3   2  -9    3.73    0.43
  -3  -2   9    3.40    0.42
   2   2  -9    0.91    0.24
   2   2  -9    1.27    0.22
   2   2  -9    1.34    0.25
  -2  -2   9    0.90    0.25
   1   2  -9   59.75    1.41
   1   2  -9   58.69    1.37
   1   2  -9   57.81    1.42
  -1  -2   9   57.23    1.36
  -1  -2   9   57.05    1.42
   0   2  -9   17.45    0.68
   0   2  -9   16.90    0.70
   0   2  -9   16.26    0.66
   0  -2   9   16.35    0.68
   0  -2   9   15.89    0.65
   0  -2   9   16.05    0.65
   0  -2   9   16.95    0.67
  -1   2  -9    0.02    0.14
  -1   2  -9   -0.01    0.12
  -1   2  -9   -0.10    0.10
   1  -2   9   -0.20    0.11
   1  -2   9   -0.01    0.14
   1  -2   9   -0.01    0.14
   1  -2   9   -0.06    0.12
  -2   2  -9   31.35    1.03
  -2   2  -9   33.69    0.91
  -2   2  -9   31.61    0.98
   2  -2   9   33.59    0.99
   2  -2   9   31.26    1.00
   2  -2   9   32.74    0.94
   2  -2   9   30.68    1.01
  -3   2  -9    5.01    0.50
  -3   2  -9    5.57    0.43
   3  -2   9    4.62    0.45
   3  -2   9    5.30    0.51
   3  -2   9    4.75    0.44
  -4   2  -9    1.43    0.26
  -4   2  -9    1.74    0.33
   4  -2   9    1.75    0.32
   4  -2   9    1.41    0.29
   4  -2   9    1.44    0.31
   5  -2   9   -0.20    0.17
   5  -2   9    0.58    0.22
   5  -2   9    0.05    0.18
   6  -2   9    2.70    0.44
   6  -2   9    2.77    0.44
   6  -2   9    3.47    0.47
   7  -2   9    0.10    0.23
   7  -2   9   -0.01    0.21
   7  -2   9   -0.16    0.18
  -8   2  -9   10.05    0.71
   8  -2   9    9.68    0.75
   8   1  -9    5.56    0.62
   7   1  -9    5.88    0.62
   7   1  -9    5.58    0.40
   6   1  -9    0.68    0.25
   6   1  -9    0.60    0.18
   6   1  -9    0.40    0.15
   5   1  -9    0.33    0.15
   5   1  -9    0.12    0.13
   5   1  -9    0.01    0.17
  -5  -1   9    0.30    0.23
   4   1  -9    0.25    0.13
   4   1  -9    0.04    0.16
   4   1  -9    0.14    0.13
  -4  -1   9    0.33    0.21
   3   1  -9    3.44    0.33
   3   1  -9    3.73    0.36
   3   1  -9    3.67    0.40
  -3  -1   9    4.10    0.47
   2   1  -9    0.85    0.22
   2   1  -9    1.03    0.21
   2   1  -9    0.59    0.18
  -2  -1   9    0.46    0.19
   1   1  -9    0.17    0.13
   1   1  -9    0.57    0.18
   1   1  -9    0.51    0.19
  -1  -1   9    0.42    0.17
  -1  -1   9    0.76    0.23
   0   1  -9    7.54    0.44
   0   1  -9    7.05    0.45
   0   1  -9    8.10    0.45
   0  -1   9    6.42    0.44
   0  -1   9    6.95    0.42
   0  -1   9    7.07    0.42
   0  -1   9    6.83    0.45
  -1   1  -9   20.22    0.78
  -1   1  -9   21.66    0.76
  -1   1  -9   20.39    0.62
  -1   1  -9   20.44    0.70
   1  -1   9   22.09    0.79
   1  -1   9   19.96    0.70
   1  -1   9   21.55    0.77
   1  -1   9   21.53    0.76
  -2   1  -9    7.82    0.41
  -2   1  -9    8.26    0.52
  -2   1  -9    7.74    0.47
   2  -1   9    7.79    0.47
   2  -1   9    8.38    0.50
   2  -1   9    7.58    0.50
  -3   1  -9    4.16    0.42
  -3   1  -9    3.62    0.42
   3  -1   9    4.09    0.44
   3  -1   9    4.46    0.42
   3  -1   9    4.47    0.46
  -4   1  -9    0.11    0.14
  -4   1  -9    0.23    0.17
   4  -1   9    0.10    0.18
   4  -1   9   -0.14    0.12
   4  -1   9    0.37    0.22
   5  -1   9    1.30    0.32
   5  -1   9    1.65    0.33
   5  -1   9    1.54    0.33
   6  -1   9    0.00    0.20
   6  -1   9    0.00    0.19
   6  -1   9    0.11    0.21
  -7   1  -9    0.40    0.24
   7  -1   9    0.09    0.23
   7  -1   9    0.46    0.25
   7  -1   9    0.01    0.23
   8  -1   9    5.06    0.59
   8   0  -9    2.95    0.46
  -8   0   9    2.05    0.44
   7   0  -9    2.34    0.41
  -7   0   9    2.46    0.45
   6   0  -9   20.61    0.67
   6   0  -9   20.04    0.57
   6   0  -9   21.39    0.92
  -6   0   9   21.55    0.99
   5   0  -9   14.94    0.56
   5   0  -9   14.79    0.74
   5   0  -9   14.84    0.52
  -5   0   9   13.68    0.77
   4   0  -9   12.55    0.50
   4   0  -9   12.80    0.65
   4   0  -9   12.58    0.52
  -4   0   9   13.14    0.71
   3   0  -9    0.86    0.22
   3   0  -9    1.00    0.19
   3   0  -9    0.94    0.18
  -3   0   9    0.69    0.23
   2   0  -9   13.68    0.56
   2   0  -9   15.26    0.66
   2   0  -9   14.47    0.58
  -2   0   9   13.61    0.66
   1   0  -9    9.72    0.51
   1   0  -9    9.77    0.50
   1   0  -9    9.32    0.48
  -1   0   9    9.61    0.45
  -1   0   9    8.66    0.53
   0   0  -9    0.72    0.15
   0   0  -9    0.41    0.16
   0   0  -9    0.59    0.17
   0   0  -9    0.58    0.18
   0   0   9    0.67    0.22
   0   0   9    0.61    0.19
   0   0   9    0.60    0.17
   0   0   9    0.39    0.16
  -1   0  -9   10.13    0.48
  -1   0  -9   11.57    0.56
  -1   0  -9   11.59    0.49
  -1   0  -9   11.12    0.58
   1   0   9   11.39    0.60
   1   0   9    9.70    0.54
   1   0   9   10.67    0.48
   1   0   9   10.50    0.54
  -2   0  -9    5.49    0.41
  -2   0  -9    5.81    0.40
  -2   0  -9    5.79    0.45
  -2   0  -9    5.04    0.34
   2   0   9    4.72    0.44
   2   0   9    6.04    0.40
   2   0   9    5.50    0.43
  -3   0  -9   16.29    0.72
  -3   0  -9   16.33    0.75
   3   0   9   15.46    0.73
   3   0   9   15.34    0.73
   3   0   9   16.41    0.66
  -4   0  -9    2.59    0.40
  -4   0  -9    2.21    0.34
   4   0   9    2.42    0.33
   4   0   9    2.38    0.37
   4   0   9    2.31    0.37
   5   0   9    0.61    0.23
   5   0   9    0.79    0.26
   5   0   9    1.19    0.32
   6   0   9    3.77    0.45
   6   0   9    3.32    0.46
   6   0   9    3.79    0.52
   7   0   9    3.29    0.49
   7   0   9    3.21    0.47
   7   0   9    2.61    0.46
   8  -1  -9    0.04    0.18
  -8   1   9    0.31    0.27
   7  -1  -9    3.19    0.46
  -7   1   9    2.25    0.46
   6  -1  -9    1.55    0.24
   6  -1  -9    2.04    0.36
  -6   1   9    1.69    0.37
   5  -1  -9   -0.03    0.09
   5  -1  -9   -0.01    0.15
   5  -1  -9   -0.02    0.08
  -5   1   9    0.14    0.19
   4  -1  -9    2.33    0.36
   4  -1  -9    2.05    0.25
   4  -1  -9    1.84    0.23
  -4   1   9    2.14    0.36
   3  -1  -9    2.93    0.37
   3  -1  -9    3.07    0.31
   3  -1  -9    2.51    0.27
  -3   1   9    2.49    0.38
   2  -1  -9    4.34    0.33
   2  -1  -9    3.49    0.39
   2  -1  -9    3.99    0.31
  -2   1   9    4.41    0.45
  -2   1   9    4.24    0.31
   1  -1  -9    4.86    0.37
   1  -1  -9    3.75    0.36
   1  -1  -9    4.44    0.41
   1  -1  -9    4.43    0.36
  -1   1   9    4.38    0.31
  -1   1   9    4.41    0.45
   0  -1  -9   31.14    0.92
   0  -1  -9   30.38    0.81
   0  -1  -9   30.94    0.95
   0  -1  -9   31.29    0.93
   0   1   9   30.58    1.00
   0   1   9   31.15    0.97
   0   1   9   30.30    0.78
  -1  -1  -9    9.46    0.47
  -1  -1  -9    8.02    0.49
  -1  -1  -9    9.50    0.47
  -1  -1  -9    8.38    0.51
   1   1   9    8.95    0.41
   1   1   9    9.79    0.51
   1   1   9    9.85    0.55
  -2  -1  -9   18.54    0.75
  -2  -1  -9   18.71    0.63
  -2  -1  -9   17.45    0.76
  -2  -1  -9   16.58    0.69
   2   1   9   17.63    0.62
   2   1   9   18.01    0.74
   2   1   9   18.41    0.77
  -3  -1  -9    2.44    0.35
  -3  -1  -9    2.58    0.37
  -3  -1  -9    2.87    0.37
   3   1   9    2.74    0.39
   3   1   9    2.55    0.39
   3   1   9    2.44    0.30
  -4  -1  -9   -0.07    0.13
  -4  -1  -9    0.00    0.17
   4   1   9    0.31    0.22
   4   1   9   -0.19    0.13
   4   1   9    0.01    0.18
  -5  -1  -9    1.12    0.39
   5   1   9    1.28    0.32
   5   1   9    1.11    0.26
   5   1   9    1.19    0.30
   6   1   9    0.41    0.26
   6   1   9    0.04    0.21
   6   1   9    0.27    0.23
   7   1   9    1.35    0.36
   7   1   9    1.09    0.35
   8  -2  -9    1.17    0.31
  -8   2   9    1.01    0.35
   7  -2  -9    7.53    0.59
  -7   2   9    8.59    0.68
   6  -2  -9    0.67    0.26
  -6   2   9    0.82    0.31
   5  -2  -9    0.02    0.08
   5  -2  -9    0.19    0.19
   5  -2  -9    0.05    0.09
  -5   2   9    0.17    0.20
   4  -2  -9    0.97    0.25
   4  -2  -9    1.00    0.18
   4  -2  -9    1.10    0.19
  -4   2   9    0.78    0.26
   3  -2  -9    0.02    0.13
   3  -2  -9    0.56    0.15
   3  -2  -9    0.23    0.13
  -3   2   9   -0.08    0.17
   2  -2  -9    6.92    0.39
   2  -2  -9    6.43    0.39
   2  -2  -9    6.22    0.44
  -2   2   9    5.83    0.48
   1  -2  -9   -0.08    0.10
   1  -2  -9    0.05    0.12
   1  -2  -9   -0.03    0.09
   1  -2  -9    0.06    0.12
  -1   2   9   -0.20    0.15
   0  -2  -9   14.80    0.58
   0  -2  -9   14.33    0.64
   0  -2  -9   13.93    0.61
   0  -2  -9   14.56    0.61
   0   2   9   13.21    0.69
  -1  -2  -9    7.77    0.47
  -1  -2  -9    8.37    0.48
  -1  -2  -9    8.63    0.46
  -1  -2  -9    8.54    0.52
   1   2   9    8.68    0.50
   1   2   9    8.56    0.53
  -2  -2  -9    7.21    0.50
  -2  -2  -9    6.69    0.40
  -2  -2  -9    6.71    0.48
   2   2   9    7.18    0.50
   2   2   9    6.56    0.51
  -3  -2  -9    6.67    0.49
  -3  -2  -9    5.91    0.54
  -3  -2  -9    6.85    0.52
   3   2   9    5.86    0.56
   3   2   9    7.08    0.51
  -4  -2  -9   13.47    0.75
  -4  -2  -9   13.66    0.71
  -4  -2  -9   12.32    0.72
   4   2   9   15.49    0.80
   4   2   9   13.22    0.73
  -5  -2  -9    1.38    0.36
  -5  -2  -9    1.47    0.41
   5   2   9    1.41    0.34
   5   2   9    1.30    0.33
  -6  -2  -9    0.50    0.30
   6   2   9    0.35    0.26
   6   2   9    0.38    0.28
   8  -3  -9    0.10    0.21
  -8   3   9    0.01    0.21
   7  -3  -9    0.10    0.20
  -7   3   9    0.37    0.25
   6  -3  -9    1.70    0.33
  -6   3   9    1.90    0.39
   5  -3  -9    0.06    0.08
   5  -3  -9    0.19    0.18
   5  -3  -9   -0.09    0.09
  -5   3   9    0.06    0.17
   4  -3  -9    1.94    0.22
   4  -3  -9    1.61    0.22
   4  -3  -9    2.15    0.34
  -4   3   9    1.72    0.34
   3  -3  -9    1.21    0.21
   3  -3  -9    1.25    0.21
   3  -3  -9    2.19    0.34
  -3   3   9    1.85    0.34
   2  -3  -9    0.72    0.18
   2  -3  -9    1.24    0.22
   2  -3  -9    1.10    0.21
   2  -3  -9    1.46    0.28
  -2   3   9    0.55    0.23
   1  -3  -9   -0.02    0.12
   1  -3  -9    0.19    0.13
   1  -3  -9    0.16    0.15
   1  -3  -9    0.00    0.13
  -1   3   9    0.00    0.20
   0  -3  -9    2.88    0.37
   0  -3  -9    3.42    0.38
   0  -3  -9    3.42    0.36
   0  -3  -9    3.28    0.36
  -1  -3  -9    0.17    0.15
  -1  -3  -9   -0.02    0.11
  -1  -3  -9    0.24    0.17
  -1  -3  -9   -0.11    0.12
  -2  -3  -9    0.32    0.18
  -2  -3  -9    0.87    0.25
  -2  -3  -9    0.49    0.21
   2   3   9    0.75    0.24
   2   3   9    0.63    0.24
  -3  -3  -9    0.32    0.17
  -3  -3  -9   -0.01    0.21
  -3  -3  -9    0.38    0.21
   3   3   9    0.55    0.24
   3   3   9    0.36    0.24
  -4  -3  -9    6.06    0.61
  -4  -3  -9    5.11    0.54
  -4  -3  -9    5.24    0.57
   4   3   9    5.75    0.58
   4   3   9    6.21    0.62
  -5  -3  -9    0.75    0.32
   5   3   9    1.23    0.32
   5   3   9    1.47    0.38
  -6  -3  -9    8.04    0.81
   6   3   9    8.24    0.78
   6   3   9    6.37    0.66
   8  -4  -9    1.79    0.39
  -8   4   9    1.31    0.37
  -8   4   9    1.07    0.31
   7  -4  -9    4.48    0.54
  -7   4   9    6.16    0.69
   6  -4  -9    0.69    0.26
  -6   4   9    1.36    0.33
   5  -4  -9   16.12    0.80
   5  -4  -9   15.38    0.57
  -5   4   9   16.56    0.84
   4  -4  -9   -0.02    0.16
   4  -4  -9   -0.09    0.08
   4  -4  -9   -0.13    0.09
  -4   4   9    0.01    0.18
   3  -4  -9    0.21    0.17
   3  -4  -9    0.25    0.13
   3  -4  -9    0.18    0.12
   3  -4  -9    0.24    0.16
  -3   4   9    0.29    0.21
   2  -4  -9    0.67    0.19
   2  -4  -9    0.92    0.23
   2  -4  -9    0.72    0.21
   2  -4  -9    0.69    0.19
  -2   4   9    0.69    0.28
   1  -4  -9    1.90    0.29
   1  -4  -9    2.05    0.31
   1  -4  -9    2.41    0.33
   1  -4  -9    2.25    0.34
   0  -4  -9   12.38    0.61
   0  -4  -9   12.27    0.63
   0  -4  -9   11.64    0.61
   0  -4  -9   12.22    0.62
  -1  -4  -9    4.69    0.48
  -1  -4  -9    5.81    0.52
  -1  -4  -9    4.85    0.44
  -1  -4  -9    4.98    0.50
  -2  -4  -9   11.17    0.66
  -2  -4  -9   10.52    0.64
  -2  -4  -9    9.47    0.62
   2   4   9    9.19    0.67
  -3  -4  -9    0.44    0.25
  -3  -4  -9    0.86    0.27
  -3  -4  -9    0.56    0.24
   3   4   9    0.64    0.26
   3   4   9    1.36    0.33
  -4  -4  -9    0.05    0.17
  -4  -4  -9    0.28    0.27
  -4  -4  -9    0.09    0.18
   4   4   9    0.21    0.25
   4   4   9   -0.03    0.20
  -5  -4  -9    1.11    0.38
   5   4   9    1.14    0.35
   5   4   9    1.28    0.37
  -8   5   9    0.42    0.28
   7  -5  -9   18.17    0.93
  -7   5   9   17.60    0.90
  -7   5   9   16.77    0.90
   6  -5  -9   15.46    0.84
  -6   5   9   16.48    0.87
   5  -5  -9   -0.14    0.14
   5  -5  -9    0.12    0.11
  -5   5   9   -0.17    0.19
   4  -5  -9    0.15    0.16
   4  -5  -9    0.04    0.16
   4  -5  -9    0.28    0.13
   4  -5  -9    0.03    0.12
  -4   5   9    0.26    0.24
   3  -5  -9    0.04    0.15
   3  -5  -9   -0.16    0.10
   3  -5  -9    0.04    0.16
   3  -5  -9   -0.07    0.10
  -3   5   9   -0.05    0.21
   2  -5  -9   15.36    0.71
   2  -5  -9   14.69    0.65
   2  -5  -9   14.67    0.73
   2  -5  -9   14.45    0.66
   1  -5  -9    1.18    0.26
   1  -5  -9    1.53    0.31
   1  -5  -9    1.77    0.31
   1  -5  -9    1.27    0.28
   0  -5  -9   10.36    0.61
   0  -5  -9   11.62    0.64
   0  -5  -9   10.09    0.59
   0  -5  -9   10.07    0.61
  -1  -5  -9    3.60    0.45
  -1  -5  -9    4.26    0.50
  -1  -5  -9    4.75    0.52
  -2  -5  -9    8.13    0.60
  -2  -5  -9    8.16    0.60
  -2  -5  -9    8.88    0.63
  -3  -5  -9    5.07    0.61
  -3  -5  -9    6.31    0.67
  -3  -5  -9    6.33    0.65
   3   5   9    4.65    0.59
  -4  -5  -9   -0.03    0.22
  -4  -5  -9    0.04    0.18
  -4  -5  -9    0.22    0.23
   4   5   9    0.21    0.25
   4   5   9    0.06    0.24
  -5  -5  -9    0.02    0.27
   5   5   9    0.28    0.30
   5   5   9    0.43    0.31
   7  -6  -9    1.27    0.35
  -7   6   9    1.93    0.41
  -7   6   9    0.74    0.35
   6  -6  -9    4.66    0.57
  -6   6   9    5.56    0.63
  -6   6   9    4.66    0.59
   5  -6  -9   15.01    0.83
   5  -6  -9   15.87    0.65
   5  -6  -9   16.65    0.81
  -5   6   9   17.52    0.92
  -5   6   9   15.37    0.85
   4  -6  -9    9.48    0.47
   4  -6  -9    8.36    0.62
   4  -6  -9    9.40    0.61
   4  -6  -9    8.64    0.51
  -4   6   9    9.13    0.70
   3  -6  -9   18.65    0.76
   3  -6  -9   18.04    0.82
   3  -6  -9   17.48    0.85
   3  -6  -9   17.69    0.70
   2  -6  -9    4.19    0.50
   2  -6  -9    3.56    0.42
   2  -6  -9    3.37    0.43
   2  -6  -9    3.68    0.41
   1  -6  -9    4.07    0.50
   1  -6  -9    4.52    0.50
   1  -6  -9    5.05    0.52
   1  -6  -9    5.01    0.50
   0  -6  -9    0.42    0.23
   0  -6  -9    0.77    0.26
   0  -6  -9    0.56    0.23
  -1  -6  -9    0.00    0.17
  -1  -6  -9   -0.10    0.17
  -1  -6  -9    0.09    0.18
   1   6   9    0.10    0.22
  -2  -6  -9    1.63    0.37
  -2  -6  -9    2.56    0.44
  -2  -6  -9    2.00    0.40
  -3  -6  -9    1.17    0.35
  -3  -6  -9    1.29    0.35
  -3  -6  -9    1.82    0.41
  -4  -6  -9   14.20    0.93
  -4  -6  -9   15.12    0.90
   4   6   9   16.48    1.71
   6  -7  -9    0.17    0.24
  -6   7   9    0.24    0.24
  -6   7   9   -0.15    0.25
   5  -7  -9    1.14    0.31
   5  -7  -9    0.26    0.24
   5  -7  -9    1.27    0.25
  -5   7   9    0.95    0.32
   4  -7  -9    1.06    0.24
   4  -7  -9    0.62    0.28
   4  -7  -9    0.95    0.22
   4  -7  -9    0.50    0.25
  -4   7   9    0.46    0.30
   3  -7  -9    2.06    0.39
   3  -7  -9    1.31    0.28
   3  -7  -9    1.09    0.23
  -3   7   9    1.59    0.36
   2  -7  -9    2.64    0.40
   2  -7  -9    2.13    0.35
   2  -7  -9    2.17    0.40
  -2   7   9    1.68    0.37
   1  -7  -9    5.41    0.55
   1  -7  -9    6.64    0.61
   1  -7  -9    5.86    0.63
  -1   7   9    6.22    0.60
   0  -7  -9    3.36    0.49
   0  -7  -9    3.17    0.46
   0  -7  -9    3.10    0.45
   0   7   9    4.24    0.50
  -1  -7  -9    5.06    0.59
  -1  -7  -9    4.77    0.59
  -1  -7  -9    3.94    0.51
  -2  -7  -9    2.90    0.49
  -2  -7  -9    2.94    0.48
  -2  -7  -9    2.68    0.47
  -3  -7  -9    5.57    0.66
   5  -8  -9    3.83    0.44
   5  -8  -9    3.33    0.50
  -5   8   9    3.75    0.58
   4  -8  -9    0.13    0.23
   4  -8  -9    0.21    0.16
   4  -8  -9    0.05    0.15
  -4   8   9    0.32    0.25
   3  -8  -9    0.36    0.19
   3  -8  -9   -0.07    0.17
   3  -8  -9    0.08    0.24
  -3   8   9    0.15    0.26
   2  -8  -9    0.37    0.21
   2  -8  -9    0.22    0.22
   2  -8  -9    0.46    0.26
  -2   8   9    0.65    0.32
   1  -8  -9   -0.04    0.16
   1  -8  -9    0.14    0.23
   1  -8  -9   -0.06    0.19
  -1   8   9    0.17    0.26
   0  -8  -9    2.51    0.47
   0  -8  -9    3.66    0.52
   0  -8  -9    1.91    0.39
  -1  -8  -9    3.00    0.53
  -1  -8  -9    2.38    0.44
  -1   9 -10    0.12    0.23
   1  -9  10   -0.17    0.26
   2  -9  10    0.14    0.27
   2   8 -10    0.08    0.25
   2   8 -10    0.24    0.25
   2   8 -10    0.05    0.22
  -2  -8  10    0.02    0.28
   1   8 -10    0.84    0.30
   1   8 -10    0.44    0.26
   1   8 -10    0.41    0.25
  -1  -8  10    0.90    0.35
   0   8 -10    0.57    0.29
   0   8 -10    0.23    0.21
   0   8 -10    0.08    0.23
   0  -8  10    0.61    0.33
  -1   8 -10    1.94    0.37
  -1   8 -10    2.10    0.41
  -1   8 -10    2.66    0.47
   1  -8  10    3.74    0.55
   1  -8  10    3.46    0.56
   1  -8  10    3.32    0.52
  -2   8 -10    1.26    0.37
  -2   8 -10    1.73    0.37
   2  -8  10    1.44    0.37
   2  -8  10    1.10    0.34
   2  -8  10    1.18    0.36
  -3   8 -10    4.34    0.54
   3  -8  10    4.31    0.59
   3  -8  10    2.98    0.49
   3  -8  10    3.48    0.51
   4  -8  10    0.35    0.28
   4  -8  10   -0.30    0.19
   4  -8  10    0.13    0.24
   3   7 -10    0.54    0.29
   3   7 -10    0.58    0.26
   3   7 -10    0.78    0.29
   2   7 -10    1.05    0.30
   2   7 -10    0.87    0.30
   2   7 -10    1.02    0.32
  -2  -7  10    0.91    0.35
   1   7 -10   -0.03    0.19
   1   7 -10    0.30    0.21
   1   7 -10   -0.10    0.17
  -1  -7  10    0.26    0.26
   0   7 -10   -0.12    0.17
   0   7 -10    0.63    0.29
   0   7 -10    0.16    0.19
   0  -7  10    0.35    0.26
  -1   7 -10    1.05    0.29
  -1   7 -10    0.95    0.32
  -1   7 -10    0.87    0.29
   1  -7  10    0.69    0.28
   1  -7  10    1.09    0.36
   1  -7  10    0.75    0.29
  -2   7 -10   -0.29    0.13
  -2   7 -10    0.05    0.17
  -2   7 -10   -0.31    0.17
   2  -7  10   -0.26    0.19
   2  -7  10    0.04    0.22
   2  -7  10   -0.11    0.21
  -3   7 -10    4.10    0.49
   3  -7  10    5.13    0.59
   3  -7  10    5.61    0.62
   3  -7  10    4.74    0.58
   4  -7  10    0.08    0.22
   4  -7  10   -0.12    0.20
   4  -7  10    0.23    0.25
   5  -7  10    0.24    0.26
   5  -7  10    0.51    0.27
   5  -7  10   -0.11    0.23
   4   6 -10    1.27    0.36
   4   6 -10    0.55    0.26
   4   6 -10    0.98    0.29
   3   6 -10    3.03    0.47
   3   6 -10    3.76    0.50
   3   6 -10    3.48    0.48
   2   6 -10    2.94    0.45
   2   6 -10    3.65    0.48
   2   6 -10    4.52    0.52
  -2  -6  10    3.67    0.52
   1   6 -10    1.54    0.35
   1   6 -10    1.24    0.32
   1   6 -10    2.00    0.35
  -1  -6  10    1.12    0.33
   0   6 -10    4.26    0.49
   0   6 -10    5.00    0.58
   0   6 -10    5.27    0.57
   0  -6  10    5.40    0.60
  -1   6 -10    4.99    0.53
  -1   6 -10    4.88    0.55
  -1   6 -10    4.74    0.49
   1  -6  10    5.21    0.57
   1  -6  10    4.83    0.54
   1  -6  10    5.72    0.58
  -2   6 -10    7.00    0.52
  -2   6 -10    6.88    0.54
  -2   6 -10    7.00    0.68
   2  -6  10    7.34    0.68
   2  -6  10    6.15    0.61
   2  -6  10    7.30    0.68
  -3   6 -10    0.89    0.29
  -3   6 -10    0.36    0.20
  -3   6 -10    0.61    0.23
   3  -6  10    0.90    0.29
   3  -6  10    1.04    0.31
   3  -6  10    0.76    0.29
   4  -6  10    0.28    0.24
   4  -6  10    0.28    0.24
   5  -6  10    0.19    0.23
   5  -6  10    0.23    0.23
   5  -6  10   -0.36    0.19
   6  -6  10    1.10    0.34
   6  -6  10    0.46    0.30
   6  -6  10    0.29    0.27
   5   5 -10    1.15    0.32
   5   5 -10    1.30    0.31
   5   5 -10    0.90    0.31
   4   5 -10    0.73    0.30
   4   5 -10    0.85    0.29
   4   5 -10    0.52    0.22
   3   5 -10    1.34    0.32
   3   5 -10    1.14    0.31
   3   5 -10    1.18    0.28
   2   5 -10    0.20    0.20
   2   5 -10    0.21    0.20
   2   5 -10   -0.02    0.15
  -2  -5  10    0.15    0.20
  -2  -5  10   -0.02    0.20
   1   5 -10    1.51    0.31
   1   5 -10    1.31    0.30
   1   5 -10    1.97    0.36
  -1  -5  10    1.13    0.30
  -1  -5  10    1.67    0.32
   0   5 -10    8.83    0.60
   0   5 -10    8.44    0.60
   0   5 -10    9.23    0.59
   0  -5  10    8.71    0.61
   0  -5  10    9.74    0.74
  -1   5 -10   20.94    0.87
  -1   5 -10   22.68    0.94
  -1   5 -10   21.44    0.88
   1  -5  10   21.07    0.91
   1  -5  10   22.44    0.92
   1  -5  10   21.16    0.92
  -2   5 -10    9.47    0.59
  -2   5 -10    8.97    0.62
  -2   5 -10    9.25    0.56
   2  -5  10    9.60    0.64
   2  -5  10    8.57    0.60
   2  -5  10    7.75    0.59
  -3   5 -10    3.63    0.47
  -3   5 -10    3.78    0.44
   3  -5  10    3.75    0.49
   3  -5  10    3.68    0.50
   3  -5  10    4.30    0.49
   4  -5  10    2.09    0.40
   4  -5  10    2.35    0.41
   4  -5  10    1.98    0.38
   5  -5  10    0.16    0.23
   5  -5  10    0.17    0.21
   5  -5  10    0.64    0.29
   6  -5  10    0.17    0.24
   6  -5  10    0.12    0.23
   6  -5  10   -0.20    0.18
   7  -5  10   -0.13    0.22
   6   4 -10    1.30    0.30
   6   4 -10    0.74    0.26
   6   4 -10    1.43    0.37
   5   4 -10   16.19    0.77
   5   4 -10   17.23    0.80
   5   4 -10   16.27    0.89
   4   4 -10    1.58    0.31
   4   4 -10    1.42    0.29
   4   4 -10    0.93    0.30
   3   4 -10    0.37    0.20
   3   4 -10    0.59    0.23
   3   4 -10    0.75    0.25
   2   4 -10    0.09    0.16
   2   4 -10   -0.04    0.15
   2   4 -10   -0.02    0.14
  -2  -4  10    0.10    0.19
   1   4 -10    1.42    0.30
   1   4 -10    1.19    0.25
   1   4 -10    1.29    0.28
  -1  -4  10    0.92    0.26
  -1  -4  10    1.29    0.31
   0   4 -10    5.77    0.46
   0   4 -10    5.32    0.51
   0   4 -10    6.17    0.58
   0  -4  10    5.25    0.42
   0  -4  10    6.68    0.59
   0  -4  10    6.94    0.54
  -1   4 -10    3.69    0.42
  -1   4 -10    4.55    0.50
  -1   4 -10    4.73    0.48
   1  -4  10    4.51    0.48
   1  -4  10    4.03    0.47
   1  -4  10    5.23    0.53
  -2   4 -10   11.18    0.67
  -2   4 -10   11.32    0.64
  -2   4 -10   11.86    0.60
   2  -4  10   13.32    0.70
   2  -4  10   11.91    0.67
   2  -4  10   12.12    0.69
  -3   4 -10    8.52    0.56
  -3   4 -10    9.53    0.64
   3  -4  10    9.31    0.63
   3  -4  10    9.62    0.64
   3  -4  10    9.43    0.64
  -4   4 -10    1.92    0.38
   4  -4  10    1.16    0.31
   4  -4  10    1.06    0.31
   4  -4  10    1.70    0.35
   5  -4  10    4.16    0.51
   5  -4  10    4.47    0.53
   5  -4  10    4.37    0.54
   6  -4  10    6.49    0.68
   6  -4  10    7.31    0.70
   6  -4  10    6.73    0.67
   7  -4  10    9.82    0.76
   7  -4  10   11.12    0.79
   7  -4  10   10.28    0.74
   7   3 -10    0.07    0.17
   6   3 -10    8.43    0.56
   6   3 -10    8.20    0.54
   6   3 -10    8.23    0.75
   5   3 -10    2.03    0.33
   5   3 -10    1.77    0.37
   5   3 -10    2.07    0.34
   4   3 -10   -0.01    0.15
   4   3 -10    0.13    0.19
   4   3 -10   -0.08    0.13
   3   3 -10    0.40    0.23
   3   3 -10    0.28    0.17
   3   3 -10    0.19    0.18
  -3  -3  10    0.71    0.27
   2   3 -10    0.62    0.24
   2   3 -10    0.68    0.20
   2   3 -10    0.41    0.19
  -2  -3  10    0.66    0.25
   1   3 -10   10.90    0.61
   1   3 -10   11.42    0.63
   1   3 -10   11.51    0.60
  -1  -3  10   11.76    0.63
  -1  -3  10   11.83    0.63
   0   3 -10    3.04    0.38
   0   3 -10    2.57    0.34
   0   3 -10    3.15    0.40
   0  -3  10    2.03    0.33
   0  -3  10    2.67    0.37
   0  -3  10    2.78    0.36
  -1   3 -10   26.33    0.93
  -1   3 -10   25.52    0.97
  -1   3 -10   27.01    0.91
   1  -3  10   28.37    0.97
   1  -3  10   25.77    0.87
   1  -3  10   26.79    0.94
   1  -3  10   25.53    0.95
  -2   3 -10    6.61    0.52
  -2   3 -10    6.29    0.48
  -2   3 -10    6.53    0.44
   2  -3  10    5.54    0.53
   2  -3  10    6.08    0.48
   2  -3  10    6.57    0.50
  -3   3 -10   -0.09    0.15
  -3   3 -10   -0.12    0.12
   3  -3  10    0.25    0.19
   3  -3  10    0.00    0.18
   3  -3  10   -0.03    0.17
  -4   3 -10   -0.09    0.14
  -4   3 -10    0.05    0.14
   4  -3  10    0.08    0.20
   4  -3  10    0.23    0.21
   4  -3  10    0.05    0.18
   5  -3  10    1.61    0.37
   5  -3  10    2.13    0.39
   5  -3  10    2.06    0.39
   6  -3  10    0.56    0.27
   6  -3  10    0.91    0.31
   6  -3  10    1.35    0.34
   7  -3  10    0.12    0.26
   7  -3  10    0.42    0.27
   7  -3  10    0.39    0.28
   7   2 -10    6.28    0.48
   7   2 -10    6.01    0.63
   7   2 -10    4.69    0.63
   6   2 -10    1.89    0.30
   6   2 -10    2.28    0.33
   6   2 -10    2.70    0.44
   5   2 -10   -0.03    0.13
   5   2 -10    0.27    0.16
   5   2 -10   -0.15    0.18
  -5  -2  10   -0.22    0.20
   4   2 -10   -0.06    0.14
   4   2 -10   -0.01    0.16
   4   2 -10   -0.07    0.12
  -4  -2  10    0.20    0.24
   3   2 -10    0.19    0.17
   3   2 -10    0.15    0.14
   3   2 -10    0.37    0.20
  -3  -2  10    0.41    0.25
   2   2 -10    0.56    0.18
   2   2 -10    0.43    0.18
   2   2 -10    0.76    0.23
  -2  -2  10    1.02    0.27
   1   2 -10   27.29    0.91
   1   2 -10   28.15    0.95
   1   2 -10   28.39    0.97
  -1  -2  10   27.24    0.93
  -1  -2  10   27.15    0.96
   0   2 -10   26.91    0.91
   0   2 -10   25.82    0.89
   0   2 -10   26.35    0.94
   0  -2  10   26.33    0.89
   0  -2  10   25.92    0.91
   0  -2  10   24.03    1.08
  -1   2 -10   49.30    1.37
  -1   2 -10   48.68    1.26
  -1   2 -10   49.90    1.32
   1  -2  10   49.91    1.35
   1  -2  10   49.97    1.31
   1  -2  10   49.51    1.29
   1  -2  10   51.29    1.30
  -2   2 -10    3.34    0.41
  -2   2 -10    4.41    0.41
  -2   2 -10    3.70    0.41
   2  -2  10    3.19    0.39
   2  -2  10    3.80    0.43
   2  -2  10    4.10    0.45
  -3   2 -10    0.11    0.15
  -3   2 -10    0.27    0.20
   3  -2  10    0.26    0.19
   3  -2  10    0.33    0.21
   3  -2  10    0.12    0.19
  -4   2 -10    1.47    0.29
  -4   2 -10    1.29    0.31
   4  -2  10    1.57    0.33
   4  -2  10    2.12    0.37
   4  -2  10    2.24    0.36
   5  -2  10    4.80    0.55
   5  -2  10    4.27    0.50
   5  -2  10    4.46    0.50
   6  -2  10    4.45    0.55
   6  -2  10    3.03    0.46
   6  -2  10    3.42    0.48
   7  -2  10    5.90    0.65
   7  -2  10    6.92    0.70
   7  -2  10    7.02    0.71
   7   1 -10    2.04    0.30
   7   1 -10    1.63    0.36
  -7  -1  10    2.02    0.44
   6   1 -10    7.75    0.61
   6   1 -10    7.48    0.47
   6   1 -10    7.17    0.42
  -6  -1  10    7.64    0.76
   5   1 -10   11.81    0.56
   5   1 -10   11.18    0.69
   5   1 -10   11.91    0.54
  -5  -1  10   11.05    0.75
   4   1 -10    2.62    0.39
   4   1 -10    2.08    0.29
   4   1 -10    2.26    0.30
  -4  -1  10    3.18    0.46
   3   1 -10    7.95    0.53
   3   1 -10    7.44    0.46
   3   1 -10    6.66    0.44
  -3  -1  10    7.40    0.57
   2   1 -10   -0.03    0.14
   2   1 -10   -0.06    0.13
   2   1 -10   -0.05    0.11
  -2  -1  10   -0.13    0.14
  -2  -1  10   -0.08    0.16
   1   1 -10    2.53    0.32
   1   1 -10    2.72    0.35
   1   1 -10    2.37    0.34
  -1  -1  10    3.50    0.37
  -1  -1  10    2.76    0.38
   0   1 -10    7.18    0.49
   0   1 -10    7.51    0.47
   0   1 -10    7.88    0.48
   0  -1  10    7.42    0.52
   0  -1  10    7.21    0.46
  -1   1 -10    0.68    0.21
  -1   1 -10    0.84    0.21
  -1   1 -10    0.61    0.22
   1  -1  10    1.13    0.27
   1  -1  10    0.72    0.24
   1  -1  10    0.95    0.23
   1  -1  10    0.91    0.23
  -2   1 -10    2.66    0.36
  -2   1 -10    2.56    0.38
  -2   1 -10    2.55    0.30
   2  -1  10    2.98    0.36
   2  -1  10    2.34    0.34
   2  -1  10    2.53    0.38
  -3   1 -10   -0.08    0.15
  -3   1 -10    0.02    0.15
   3  -1  10    0.10    0.15
   3  -1  10   -0.20    0.17
   3  -1  10   -0.22    0.14
  -4   1 -10    1.05    0.29
  -4   1 -10    1.16    0.28
   4  -1  10    1.01    0.26
   4  -1  10    0.96    0.28
   4  -1  10    0.77    0.25
   5  -1  10    2.17    0.35
   5  -1  10    1.26    0.33
   5  -1  10    3.13    0.45
   6  -1  10    0.34    0.27
   6  -1  10    0.96    0.31
   6  -1  10    0.94    0.31
   7  -1  10    5.23    0.61
   7  -1  10    4.38    0.57
   7  -1  10    4.66    0.56
  -8   0  10    0.16    0.30
   7   0 -10    0.54    0.26
  -7   0  10    0.64    0.34
   6   0 -10    4.11    0.52
   6   0 -10    3.99    0.42
   6   0 -10    4.26    0.38
   5   0 -10    1.48    0.31
   5   0 -10    1.51    0.24
   5   0 -10    1.47    0.22
  -5   0  10    1.39    0.36
   4   0 -10    2.29    0.28
   4   0 -10    2.52    0.39
   4   0 -10    2.11    0.28
  -4   0  10    1.99    0.37
   3   0 -10    1.05    0.21
   3   0 -10    0.98    0.26
   3   0 -10    1.09    0.22
  -3   0  10    1.24    0.31
   2   0 -10    1.22    0.27
   2   0 -10    1.62    0.26
   2   0 -10    1.33    0.23
  -2   0  10    1.11    0.28
  -2   0  10    1.38    0.25
   1   0 -10    5.48    0.42
   1   0 -10    4.44    0.41
   1   0 -10    5.07    0.41
  -1   0  10    5.45    0.53
  -1   0  10    5.55    0.39
   0   0 -10    9.07    0.53
   0   0 -10    8.31    0.50
   0   0 -10    9.37    0.52
   0   0  10    8.55    0.56
   0   0  10    8.57    0.46
  -1   0 -10   10.06    0.56
  -1   0 -10    9.86    0.50
  -1   0 -10    9.51    0.57
   1   0  10   10.09    0.58
   1   0  10   10.61    0.61
   1   0  10    9.81    0.49
   1   0  10    9.94    0.55
  -2   0 -10    0.48    0.19
  -2   0 -10    0.36    0.16
  -2   0 -10    0.27    0.17
  -2   0 -10    0.45    0.21
   2   0  10   -0.02    0.15
   2   0  10    0.73    0.24
   2   0  10    0.66    0.20
  -3   0 -10    1.10    0.29
  -3   0 -10    1.71    0.31
   3   0  10    1.29    0.29
   3   0  10    1.00    0.24
   3   0  10    0.99    0.28
  -4   0 -10    0.30    0.22
  -4   0 -10    0.51    0.21
   4   0  10    0.42    0.20
   4   0  10    0.55    0.24
   4   0  10    0.53    0.25
   5   0  10    2.65    0.44
   5   0  10    2.27    0.41
   5   0  10    2.52    0.37
   6   0  10    0.02    0.21
   6   0  10    0.16    0.23
   6   0  10   -0.23    0.20
   7   0  10    0.46    0.30
   7   0  10   -0.07    0.24
   7   0  10    0.77    0.30
   8  -1 -10    0.06    0.22
  -8   1  10    0.33    0.28
   7  -1 -10   24.26    1.05
  -7   1  10   23.03    1.11
   6  -1 -10    7.11    0.65
   6  -1 -10    6.58    0.42
  -6   1  10    7.73    0.64
   5  -1 -10    0.32    0.13
   5  -1 -10    0.61    0.15
   5  -1 -10    0.88    0.28
  -5   1  10    0.78    0.30
   4  -1 -10    2.31    0.36
   4  -1 -10    1.50    0.23
   4  -1 -10    2.18    0.27
  -4   1  10    1.30    0.32
   3  -1 -10    0.84    0.20
   3  -1 -10    0.78    0.19
   3  -1 -10    0.82    0.24
  -3   1  10    0.67    0.26
   2  -1 -10    0.45    0.17
   2  -1 -10    0.54    0.17
   2  -1 -10    0.73    0.23
  -2   1  10    0.23    0.23
   1  -1 -10    0.04    0.15
   1  -1 -10    0.05    0.14
   1  -1 -10    0.03    0.11
  -1   1  10   -0.14    0.17
   0  -1 -10   31.96    1.03
   0  -1 -10   35.06    1.02
   0  -1 -10   35.16    1.05
   0   1  10   34.06    1.13
  -1  -1 -10   15.69    0.73
  -1  -1 -10   15.92    0.71
  -1  -1 -10   17.33    0.67
  -1  -1 -10   16.24    0.64
   1   1  10   14.68    0.71
   1   1  10   15.67    0.93
  -2  -1 -10    9.02    0.58
  -2  -1 -10    8.12    0.53
  -2  -1 -10    8.99    0.53
   2   1  10    9.10    0.59
   2   1  10    9.73    0.58
  -3  -1 -10    2.08    0.36
  -3  -1 -10    2.41    0.38
  -3  -1 -10    2.39    0.36
   3   1  10    1.55    0.30
   3   1  10    2.17    0.37
  -4  -1 -10   10.44    0.66
  -4  -1 -10   11.75    0.69
  -4  -1 -10   11.64    0.71
   4   1  10   10.92    0.69
   4   1  10   11.90    0.74
  -5  -1 -10   12.33    0.76
   5   1  10   12.06    0.77
   5   1  10   13.54    0.81
   6   1  10    0.10    0.26
   6   1  10    0.42    0.27
   8  -2 -10   -0.05    0.21
  -8   2  10    0.12    0.25
   7  -2 -10    0.43    0.23
  -7   2  10    0.20    0.25
   6  -2 -10    1.47    0.32
  -6   2  10    1.66    0.38
   5  -2 -10    7.11    0.42
   5  -2 -10    8.38    0.60
   5  -2 -10    8.13    0.37
  -5   2  10    8.72    0.64
   4  -2 -10   16.34    0.62
   4  -2 -10   16.81    0.79
   4  -2 -10   14.84    0.55
  -4   2  10   14.60    0.78
   3  -2 -10    3.61    0.42
   3  -2 -10    4.24    0.34
   3  -2 -10    3.93    0.38
  -3   2  10    4.63    0.53
   2  -2 -10    0.03    0.14
   2  -2 -10    0.25    0.14
   2  -2 -10    0.09    0.13
  -2   2  10    0.11    0.21
   1  -2 -10   31.41    1.00
   1  -2 -10   28.61    0.94
   1  -2 -10   29.01    0.94
  -1   2  10   30.12    1.09
   0  -2 -10    1.79    0.29
   0  -2 -10    1.15    0.23
   0  -2 -10    1.74    0.28
   0  -2 -10    1.89    0.29
  -1  -2 -10    0.33    0.15
  -1  -2 -10    0.38    0.19
  -1  -2 -10   -0.03    0.13
  -1  -2 -10    0.34    0.19
  -2  -2 -10    3.16    0.40
  -2  -2 -10    4.11    0.48
  -2  -2 -10    3.64    0.42
   2   2  10    3.33    0.45
   2   2  10    4.36    0.46
  -3  -2 -10    0.53    0.24
  -3  -2 -10    0.60    0.21
  -3  -2 -10    0.66    0.24
   3   2  10    0.70    0.26
   3   2  10    0.75    0.25
  -4  -2 -10    0.07    0.20
  -4  -2 -10    0.19    0.23
  -4  -2 -10    0.06    0.18
   4   2  10    0.14    0.22
   4   2  10    0.41    0.24
  -5  -2 -10    0.18    0.23
   5   2  10    0.36    0.25
   5   2  10    0.12    0.24
  -6  -2 -10   24.78    1.17
   6   2  10   26.14    1.16
   6   2  10   24.64    1.15
  -8   3  10    3.74    0.57
   7  -3 -10    2.85    0.46
  -7   3  10    2.22    0.45
   6  -3 -10    0.67    0.27
  -6   3  10    1.22    0.34
   5  -3 -10   13.39    0.46
   5  -3 -10   13.30    0.55
   5  -3 -10   11.85    0.71
  -5   3  10   13.82    0.79
   4  -3 -10    4.46    0.52
   4  -3 -10    3.73    0.30
   4  -3 -10    4.48    0.35
  -4   3  10    5.55    0.60
   3  -3 -10   -0.14    0.10
   3  -3 -10   -0.15    0.13
   3  -3 -10   -0.06    0.11
  -3   3  10    0.05    0.21
   2  -3 -10    3.20    0.36
   2  -3 -10    3.26    0.41
   2  -3 -10    3.86    0.39
  -2   3  10    3.43    0.46
   1  -3 -10   13.62    0.64
   1  -3 -10   11.96    0.63
   1  -3 -10   12.98    0.59
   1  -3 -10   12.02    0.61
  -1   3  10   12.67    0.75
   0  -3 -10    5.85    0.45
   0  -3 -10    6.24    0.48
   0  -3 -10    6.12    0.44
   0  -3 -10    5.58    0.45
  -1  -3 -10    1.76    0.30
  -1  -3 -10    2.11    0.35
  -1  -3 -10    1.48    0.28
  -1  -3 -10    1.07    0.24
  -2  -3 -10   16.01    0.77
  -2  -3 -10   15.81    0.80
  -2  -3 -10   17.87    0.80
  -3  -3 -10    0.40    0.24
  -3  -3 -10    0.28    0.21
  -3  -3 -10    0.36    0.21
   3   3  10    0.70    0.28
   3   3  10    0.40    0.22
  -4  -3 -10    0.49    0.24
  -4  -3 -10    0.30    0.21
  -4  -3 -10    0.49    0.28
   4   3  10    0.15    0.24
   4   3  10    0.14    0.22
  -5  -3 -10    2.08    0.44
   5   3  10    2.10    0.42
   5   3  10    2.32    0.44
   7  -4 -10    3.89    0.54
  -7   4  10    5.03    0.61
   6  -4 -10    2.03    0.39
  -6   4  10    1.36    0.36
   5  -4 -10    0.18    0.13
   5  -4 -10    0.79    0.28
  -5   4  10    0.41    0.26
   4  -4 -10    0.31    0.20
   4  -4 -10    0.29    0.15
   4  -4 -10    0.39    0.15
  -4   4  10    0.47    0.25
   3  -4 -10    7.27    0.44
   3  -4 -10    7.30    0.46
   3  -4 -10    6.72    0.52
  -3   4  10    6.70    0.67
   2  -4 -10    2.18    0.32
   2  -4 -10    2.45    0.37
   2  -4 -10    2.46    0.34
   2  -4 -10    1.57    0.28
   1  -4 -10    0.06    0.15
   1  -4 -10   -0.13    0.15
   1  -4 -10    0.30    0.18
   1  -4 -10    0.01    0.14
   0  -4 -10    0.73    0.22
   0  -4 -10    0.99    0.26
   0  -4 -10    0.79    0.23
   0  -4 -10    0.96    0.25
  -1  -4 -10    6.50    0.59
  -1  -4 -10    6.14    0.51
  -1  -4 -10    5.81    0.44
  -1  -4 -10    5.68    0.57
  -2  -4 -10    2.72    0.40
  -2  -4 -10    3.15    0.44
  -2  -4 -10    3.07    0.43
  -3  -4 -10    0.26    0.23
  -3  -4 -10    0.29    0.22
  -3  -4 -10   -0.07    0.18
   3   4  10    0.00    0.29
  -4  -4 -10    4.32    0.54
  -4  -4 -10    4.58    0.60
  -4  -4 -10    3.22    0.50
   4   4  10    2.45    0.44
   4   4  10    4.88    0.62
  -5  -4 -10    5.38    0.67
   5   4  10    5.79    0.68
   5   4  10    4.19    0.59
   7  -5 -10    0.59    0.26
  -7   5  10    0.66    0.31
  -7   5  10    0.65    0.31
   6  -5 -10    0.28    0.24
  -6   5  10    0.48    0.28
   5  -5 -10    4.35    0.40
   5  -5 -10    3.32    0.46
  -5   5  10    4.39    0.57
   4  -5 -10    4.74    0.36
   4  -5 -10    5.01    0.56
   4  -5 -10    5.57    0.42
  -4   5  10    4.80    0.60
   3  -5 -10    0.50    0.19
   3  -5 -10    0.60    0.24
   3  -5 -10    0.65    0.24
   3  -5 -10    0.62    0.19
  -3   5  10    0.26    0.28
   2  -5 -10    4.19    0.46
   2  -5 -10    3.73    0.47
   2  -5 -10    4.40    0.45
   2  -5 -10    4.39    0.45
   1  -5 -10   12.31    0.68
   1  -5 -10   12.54    0.66
   1  -5 -10   12.84    0.68
   1  -5 -10   12.75    0.68
   0  -5 -10    3.32    0.45
   0  -5 -10    3.86    0.46
   0  -5 -10    2.67    0.39
   0  -5 -10    3.83    0.47
  -1  -5 -10    2.01    0.37
  -1  -5 -10    2.18    0.38
  -1  -5 -10    2.67    0.42
  -2  -5 -10    8.02    0.63
  -2  -5 -10    7.64    0.61
  -2  -5 -10    7.71    0.62
  -3  -5 -10    9.62    0.69
  -3  -5 -10    8.33    0.68
  -3  -5 -10    8.31    0.66
  -4  -5 -10    4.69    0.58
  -4  -5 -10    3.64    0.55
  -4  -5 -10    3.60    0.54
   4   5  10    3.48    0.80
   6  -6 -10    0.08    0.21
  -6   6  10    0.32    0.27
  -6   6  10   -0.10    0.20
   5  -6 -10    0.72    0.20
   5  -6 -10    0.56    0.26
  -5   6  10    0.92    0.34
   4  -6 -10    0.04    0.13
   4  -6 -10    0.39    0.24
   4  -6 -10   -0.02    0.13
   3  -6 -10    2.72    0.35
   3  -6 -10    2.79    0.43
   3  -6 -10    2.89    0.41
   3  -6 -10    3.27    0.41
   2  -6 -10   -0.20    0.13
   2  -6 -10    0.16    0.19
   2  -6 -10   -0.13    0.17
   2  -6 -10    0.02    0.16
   1  -6 -10    3.81    0.45
   1  -6 -10    3.67    0.48
   1  -6 -10    3.50    0.48
   1  -6 -10    3.41    0.45
   0  -6 -10    8.96    0.64
   0  -6 -10    9.23    0.66
   0  -6 -10    9.59    0.64
  -1  -6 -10    0.87    0.28
  -1  -6 -10    0.15    0.20
  -1  -6 -10   -0.09    0.20
  -2  -6 -10    2.39    0.43
  -2  -6 -10    2.26    0.44
  -2  -6 -10    2.35    0.45
  -3  -6 -10    0.37    0.27
  -3  -6 -10    0.46    0.28
  -3  -6 -10    0.00    0.21
   5  -7 -10    0.28    0.28
   5  -7 -10    0.82    0.24
  -5   7  10    0.33    0.25
   4  -7 -10    2.63    0.47
   4  -7 -10    3.47    0.50
   4  -7 -10    3.77    0.40
   4  -7 -10    4.49    0.49
  -4   7  10    4.01    0.55
   3  -7 -10    1.95    0.38
   3  -7 -10    2.12    0.42
   3  -7 -10    1.45    0.31
   3  -7 -10    1.96    0.32
  -3   7  10    1.61    0.37
   2  -7 -10    2.96    0.43
   2  -7 -10    3.05    0.46
   2  -7 -10    2.56    0.39
  -2   7  10    3.05    0.47
   1  -7 -10    0.79    0.26
   1  -7 -10    0.40    0.26
   1  -7 -10    0.85    0.27
  -1   7  10    0.53    0.29
   0  -7 -10    0.77    0.31
   0  -7 -10    1.21    0.33
   0  -7 -10    0.93    0.29
   0   7  10    1.23    0.33
  -1  -7 -10    1.34    0.34
  -1  -7 -10    1.27    0.37
  -1  -7 -10    1.17    0.35
   3  -8 -10    2.08    0.35
   3  -8 -10    2.27    0.43
  -3   8  10    2.70    0.48
   2  -8 -10    0.65    0.25
   2  -8 -10    0.86    0.33
  -2   8  10    0.91    0.36
   1  -8 -10    1.36    0.33
   1  -8 -10    0.99    0.33
   1   8 -11    5.94    0.70
   0   8 -11    4.28    0.57
   0   8 -11    3.51    0.52
   0   8 -11    3.62    0.55
   0  -8  11    4.50    0.63
  -1   8 -11    0.06    0.22
  -1   8 -11   -0.48    0.17
  -1   8 -11    0.23    0.24
   1  -8  11    0.02    0.27
  -2   8 -11    0.11    0.21
  -2   8 -11    0.12    0.22
   2  -8  11    0.71    0.33
   2  -8  11    0.17    0.29
   2  -8  11    0.56    0.30
   3  -8  11    0.89    0.36
   2   7 -11    0.04    0.21
   2   7 -11    0.26    0.23
   2   7 -11   -0.10    0.19
  -2  -7  11   -0.14    0.23
   1   7 -11    0.47    0.26
   1   7 -11   -0.06    0.20
   1   7 -11    0.33    0.23
  -1  -7  11   -0.08    0.26
   0   7 -11    6.00    0.67
   0   7 -11    6.73    0.65
   0   7 -11    6.41    0.70
   0  -7  11    6.40    0.69
  -1   7 -11    2.60    0.41
  -1   7 -11    3.86    0.56
  -1   7 -11    3.92    0.53
   1  -7  11    2.60    0.48
   1  -7  11    3.02    0.51
  -2   7 -11    4.41    0.56
  -2   7 -11    5.37    0.59
  -2   7 -11    4.83    0.57
   2  -7  11    4.94    0.61
   2  -7  11    4.76    0.60
   2  -7  11    4.96    0.61
   3  -7  11    0.42    0.28
   3  -7  11    0.41    0.30
   3  -7  11    0.25    0.26
   4  -7  11    0.72    0.31
   4  -7  11    0.50    0.29
   4  -7  11    0.54    0.31
   4   6 -11    3.83    0.56
   4   6 -11    4.26    0.56
   3   6 -11    3.89    0.54
   3   6 -11    3.33    0.49
   3   6 -11    2.80    0.43
   2   6 -11    0.87    0.30
   2   6 -11    1.65    0.37
   2   6 -11    1.27    0.31
  -2  -6  11    1.59    0.39
  -2  -6  11    1.65    0.39
   1   6 -11   -0.04    0.17
   1   6 -11    0.63    0.26
   1   6 -11   -0.43    0.14
  -1  -6  11    0.14    0.24
   0   6 -11    1.52    0.36
   0   6 -11    1.94    0.38
   0   6 -11    1.55    0.33
   0  -6  11    1.13    0.35
  -1   6 -11    0.05    0.19
  -1   6 -11    0.42    0.23
  -1   6 -11    0.03    0.19
   1  -6  11    0.08    0.22
   1  -6  11    0.00    0.23
  -2   6 -11    2.37    0.38
  -2   6 -11    2.44    0.39
  -2   6 -11    2.02    0.41
   2  -6  11    2.19    0.41
   2  -6  11    1.97    0.39
   2  -6  11    2.92    0.47
  -3   6 -11    6.21    0.66
  -3   6 -11    7.68    0.84
   3  -6  11    6.40    0.65
   3  -6  11    7.79    0.75
   3  -6  11    6.87    0.68
   4  -6  11    6.40    0.68
   4  -6  11    5.21    0.65
   4  -6  11    6.07    0.68
   5  -6  11    0.08    0.24
   5  -6  11   -0.15    0.23
   5  -6  11    0.04    0.25
   5   5 -11    0.15    0.22
   4   5 -11    0.90    0.28
   4   5 -11    1.76    0.39
   4   5 -11    1.83    0.39
   3   5 -11    0.00    0.17
   3   5 -11    0.18    0.21
   3   5 -11    0.38    0.23
  -3  -5  11    0.22    0.23
   2   5 -11    1.58    0.33
   2   5 -11    1.81    0.38
   2   5 -11    1.07    0.31
  -2  -5  11    1.45    0.37
  -2  -5  11    0.82    0.30
   1   5 -11    6.09    0.63
   1   5 -11    6.32    0.65
   1   5 -11    7.21    0.56
  -1  -5  11    6.58    0.65
  -1  -5  11    6.36    0.61
   0   5 -11    0.48    0.25
   0   5 -11    0.08    0.17
   0   5 -11    0.10    0.19
   0  -5  11    0.16    0.22
  -1   5 -11    0.08    0.17
  -1   5 -11   -0.05    0.16
  -1   5 -11    0.34    0.23
   1  -5  11   -0.12    0.22
   1  -5  11   -0.02    0.19
   1  -5  11    0.56    0.25
  -2   5 -11    1.10    0.32
  -2   5 -11    1.07    0.27
  -2   5 -11    0.84    0.26
   2  -5  11    1.32    0.34
   2  -5  11    1.10    0.31
   2  -5  11    0.78    0.28
  -3   5 -11    0.86    0.26
  -3   5 -11    1.71    0.38
   3  -5  11    1.78    0.39
   3  -5  11    1.33    0.32
   3  -5  11    0.64    0.27
   4  -5  11    1.10    0.32
   4  -5  11    1.05    0.31
   4  -5  11    1.22    0.36
   5  -5  11    1.97    0.41
   5  -5  11    3.06    0.49
   5  -5  11    1.64    0.37
   6  -5  11    5.56    0.68
   6  -5  11    5.40    0.64
   6  -5  11    5.56    0.66
   5   4 -11    2.12    0.42
   5   4 -11    3.18    0.44
   5   4 -11    2.92    0.43
   4   4 -11    1.04    0.27
   4   4 -11    1.44    0.35
   4   4 -11    1.13    0.30
  -4  -4  11    0.58    0.30
   3   4 -11    1.29    0.33
   3   4 -11    1.71    0.34
   3   4 -11    0.87    0.26
  -3  -4  11    0.63    0.29
   2   4 -11    1.73    0.32
   2   4 -11    1.15    0.31
   2   4 -11    1.73    0.34
  -2  -4  11    1.93    0.37
  -2  -4  11    1.75    0.37
   1   4 -11    6.69    0.61
   1   4 -11    5.36    0.51
   1   4 -11    7.11    0.65
  -1  -4  11    5.93    0.58
  -1  -4  11    6.21    0.59
   0   4 -11    6.00    0.60
   0   4 -11    6.63    0.61
   0   4 -11    6.26    0.57
   0  -4  11    5.55    0.57
   0  -4  11    5.90    0.48
  -1   4 -11    2.82    0.40
  -1   4 -11    2.38    0.38
  -1   4 -11    2.23    0.36
   1  -4  11    2.27    0.36
   1  -4  11    2.51    0.39
  -2   4 -11    0.73    0.26
  -2   4 -11    0.42    0.21
  -2   4 -11    0.52    0.22
   2  -4  11    0.42    0.24
   2  -4  11    0.82    0.28
   2  -4  11    0.69    0.26
  -3   4 -11    0.57    0.26
  -3   4 -11    0.44    0.21
   3  -4  11    0.89    0.30
   3  -4  11    0.88    0.28
   3  -4  11    0.92    0.31
  -4   4 -11    0.05    0.20
   4  -4  11   -0.15    0.19
   4  -4  11    0.05    0.22
   4  -4  11   -0.22    0.19
   5  -4  11    0.93    0.32
   5  -4  11    0.69    0.31
   5  -4  11    1.53    0.38
   6  -4  11    1.37    0.38
   6  -4  11    1.41    0.38
   6  -4  11    0.77    0.32
   6   3 -11    8.96    0.71
   6   3 -11    8.30    0.58
   6   3 -11    8.35    0.55
   5   3 -11    0.19    0.23
   5   3 -11    0.10    0.17
   5   3 -11    0.06    0.17
  -5  -3  11   -0.13    0.23
   4   3 -11    0.47    0.21
   4   3 -11    0.83    0.30
   4   3 -11    0.39    0.21
  -4  -3  11    0.78    0.31
   3   3 -11    1.65    0.36
   3   3 -11    1.90    0.32
   3   3 -11    1.93    0.34
  -3  -3  11    1.44    0.35
   2   3 -11   -0.09    0.14
   2   3 -11    0.23    0.17
   2   3 -11   -0.19    0.13
  -2  -3  11    0.22    0.21
  -2  -3  11    0.24    0.21
   1   3 -11    1.93    0.35
   1   3 -11    1.98    0.35
   1   3 -11    1.90    0.32
  -1  -3  11    1.73    0.34
  -1  -3  11    1.72    0.33
   0   3 -11    6.44    0.50
   0   3 -11    6.00    0.59
   0   3 -11    5.16    0.50
   0  -3  11    5.35    0.52
   0  -3  11    5.95    0.48
  -1   3 -11   15.89    0.79
  -1   3 -11   14.96    0.73
  -1   3 -11   13.84    0.68
   1  -3  11   15.70    0.76
   1  -3  11   15.66    0.76
   1  -3  11   14.85    0.70
   1  -3  11   14.67    0.76
  -2   3 -11    9.26    0.63
  -2   3 -11   10.01    0.55
  -2   3 -11   10.09    0.62
   2  -3  11   10.73    0.66
   2  -3  11    9.34    0.60
   2  -3  11    9.97    0.67
  -3   3 -11    1.35    0.32
  -3   3 -11    1.78    0.32
   3  -3  11    1.19    0.32
   3  -3  11    1.51    0.35
   3  -3  11    2.13    0.38
  -4   3 -11   -0.16    0.14
  -4   3 -11   -0.26    0.15
   4  -3  11    0.02    0.20
   4  -3  11   -0.14    0.19
   4  -3  11   -0.23    0.17
   5  -3  11    4.51    0.56
   5  -3  11    4.14    0.56
   5  -3  11    4.24    0.52
   6  -3  11    3.20    0.52
   6  -3  11    3.43    0.52
   6  -3  11    3.57    0.53
   6   2 -11    6.14    0.46
   6   2 -11    5.89    0.48
   6   2 -11    6.08    0.65
  -6  -2  11    7.07    0.76
   5   2 -11   10.41    0.59
   5   2 -11   11.28    0.72
   5   2 -11    9.27    0.56
  -5  -2  11   11.27    0.80
   4   2 -11    0.86    0.22
   4   2 -11    0.46    0.24
   4   2 -11    0.23    0.18
  -4  -2  11    0.76    0.31
   3   2 -11   14.65    0.67
   3   2 -11   14.56    0.78
   3   2 -11   14.29    0.69
  -3  -2  11   14.87    0.81
   2   2 -11    1.54    0.32
   2   2 -11    1.46    0.29
   2   2 -11    2.06    0.33
  -2  -2  11    1.73    0.36
  -2  -2  11    1.65    0.32
   1   2 -11    0.03    0.15
   1   2 -11   -0.06    0.12
   1   2 -11    0.11    0.15
  -1  -2  11    0.19    0.21
  -1  -2  11   -0.10    0.16
   0   2 -11    6.55    0.51
   0   2 -11    6.34    0.47
   0   2 -11    6.68    0.49
   0  -2  11    6.47    0.51
   0  -2  11    6.75    0.51
  -1   2 -11   10.73    0.58
  -1   2 -11   11.56    0.67
  -1   2 -11   12.27    0.65
   1  -2  11   12.21    0.67
   1  -2  11   12.55    0.88
   1  -2  11   11.69    0.63
   1  -2  11   12.83    0.66
  -2   2 -11    7.98    0.57
  -2   2 -11    6.74    0.51
  -2   2 -11    6.54    0.44
   2  -2  11    7.76    0.56
   2  -2  11    7.14    0.56
   2  -2  11    7.65    0.54
  -3   2 -11    6.84    0.52
  -3   2 -11    7.64    0.60
   3  -2  11    7.36    0.58
   3  -2  11    6.33    0.57
   3  -2  11    6.04    0.57
  -4   2 -11   17.90    0.83
  -4   2 -11   17.36    0.88
   4  -2  11   18.42    0.84
   4  -2  11   18.73    0.91
   4  -2  11   19.93    0.94
   5  -2  11    1.35    0.35
   5  -2  11    1.52    0.36
   5  -2  11    1.22    0.33
   6  -2  11    0.54    0.32
   6  -2  11    0.46    0.27
   6  -2  11    0.95    0.32
   7   1 -11    2.88    0.38
   7   1 -11    1.89    0.42
  -7  -1  11    2.63    0.53
   6   1 -11    9.65    0.55
   6   1 -11    8.68    0.67
   6   1 -11    9.18    0.48
  -6  -1  11    8.22    0.80
   5   1 -11    0.43    0.18
   5   1 -11    0.28    0.21
   5   1 -11    0.37    0.17
  -5  -1  11    0.53    0.30
   4   1 -11    0.06    0.18
   4   1 -11   -0.03    0.14
   4   1 -11    0.12    0.14
  -4  -1  11    0.09    0.21
   3   1 -11    1.00    0.24
   3   1 -11    0.66    0.21
   3   1 -11    0.66    0.24
  -3  -1  11    0.68    0.28
   2   1 -11    2.31    0.35
   2   1 -11    1.87    0.29
   2   1 -11    2.55    0.35
  -2  -1  11    2.03    0.32
  -2  -1  11    2.38    0.40
   1   1 -11    2.16    0.32
   1   1 -11    1.86    0.31
   1   1 -11    2.29    0.35
  -1  -1  11    1.95    0.30
  -1  -1  11    2.17    0.37
   0   1 -11    0.41    0.19
   0   1 -11    0.80    0.24
   0   1 -11    0.74    0.23
   0  -1  11    0.94    0.27
   0  -1  11    0.60    0.22
  -1   1 -11    0.08    0.14
  -1   1 -11    0.14    0.16
  -1   1 -11    0.05    0.13
   1  -1  11    0.15    0.20
   1  -1  11    0.02    0.15
  -2   1 -11    0.76    0.24
  -2   1 -11    1.21    0.29
   2  -1  11    1.11    0.28
   2  -1  11    0.78    0.23
   2  -1  11    1.42    0.32
  -3   1 -11   23.94    0.95
  -3   1 -11   24.43    1.01
   3  -1  11   26.01    1.02
   3  -1  11   25.50    1.03
   3  -1  11   24.95    0.92
  -4   1 -11    1.33    0.32
  -4   1 -11    0.70    0.25
   4  -1  11    0.66    0.27
   4  -1  11    1.07    0.30
   4  -1  11    1.16    0.29
   5  -1  11    1.63    0.36
   5  -1  11    2.59    0.45
   5  -1  11    1.65    0.34
   6  -1  11    1.00    0.32
   6  -1  11    1.53    0.36
   6  -1  11    1.56    0.40
   7   0 -11    2.48    0.44
  -7   0  11    2.37    0.49
   6   0 -11    2.94    0.46
   6   0 -11    3.27    0.37
  -6   0  11    3.03    0.51
   5   0 -11    4.86    0.39
   5   0 -11    4.74    0.36
   5   0 -11    4.99    0.56
  -5   0  11    4.77    0.58
   4   0 -11    6.45    0.44
   4   0 -11    5.37    0.40
   4   0 -11    4.92    0.54
  -4   0  11    5.76    0.63
   3   0 -11    5.18    0.40
   3   0 -11    6.33    0.61
   3   0 -11    5.83    0.43
  -3   0  11    6.07    0.62
   2   0 -11    3.50    0.40
   2   0 -11    3.26    0.38
   2   0 -11    3.24    0.42
  -2   0  11    3.13    0.35
  -2   0  11    3.30    0.46
   1   0 -11    0.04    0.16
   1   0 -11    0.23    0.16
   1   0 -11    0.45    0.20
  -1   0  11    0.46    0.23
  -1   0  11    0.07    0.17
   0   0 -11    1.62    0.29
   0   0 -11    1.30    0.27
   0   0 -11    1.27    0.28
   0   0  11    1.78    0.34
   0   0  11    1.32    0.28
  -1   0 -11    0.18    0.16
  -1   0 -11   -0.18    0.13
  -1   0 -11    0.16    0.15
   1   0  11   -0.16    0.18
  -2   0 -11    0.19    0.19
  -2   0 -11    0.33    0.21
   2   0  11    0.28    0.22
   2   0  11    0.62    0.24
  -3   0 -11    6.23    0.62
  -3   0 -11    6.78    0.54
  -3   0 -11    7.69    0.54
   3   0  11    6.08    0.58
   3   0  11    6.54    0.61
  -4   0 -11    0.08    0.16
  -4   0 -11   -0.09    0.18
   4   0  11   -0.02    0.22
   4   0  11   -0.04    0.20
   5   0  11    5.35    0.62
   5   0  11    4.20    0.54
   6   0  11    3.80    0.54
   6   0  11    2.97    0.51
   7  -1 -11    5.12    0.62
  -7   1  11    3.76    0.57
   6  -1 -11    1.66    0.26
   6  -1 -11    1.55    0.35
  -6   1  11    1.02    0.34
   5  -1 -11    1.68    0.36
   5  -1 -11    2.39    0.27
   5  -1 -11    2.13    0.29
  -5   1  11    3.01    0.49
   4  -1 -11    0.54    0.25
   4  -1 -11    0.31    0.16
   4  -1 -11    0.56    0.17
  -4   1  11    0.78    0.30
   3  -1 -11    0.26    0.16
   3  -1 -11   -0.11    0.14
   3  -1 -11    0.19    0.15
  -3   1  11    0.03    0.19
   2  -1 -11    1.11    0.27
   2  -1 -11    1.66    0.27
   2  -1 -11    1.59    0.28
  -2   1  11    1.52    0.36
   1  -1 -11    8.77    0.53
   1  -1 -11    9.22    0.56
   1  -1 -11    9.25    0.56
  -1   1  11    9.92    0.66
   0  -1 -11    0.94    0.24
   0  -1 -11    0.55    0.20
   0  -1 -11    0.76    0.22
   0   1  11    0.93    0.30
  -1  -1 -11    0.56    0.21
  -1  -1 -11    0.67    0.21
  -1  -1 -11    0.99    0.26
  -2  -1 -11    0.85    0.26
  -2  -1 -11    0.94    0.27
  -2  -1 -11    0.66    0.24
   2   1  11    0.83    0.27
  -3  -1 -11    2.44    0.38
  -3  -1 -11    2.21    0.38
  -3  -1 -11    2.98    0.43
   3   1  11    2.85    0.45
   3   1  11    3.04    0.43
  -4  -1 -11    3.13    0.45
  -4  -1 -11    2.70    0.45
  -4  -1 -11    2.34    0.41
   4   1  11    2.82    0.46
   4   1  11    1.71    0.36
  -5  -1 -11    0.09    0.24
   5   1  11    0.08    0.24
   5   1  11   -0.13    0.21
  -6  -1 -11    1.92    0.44
   6   1  11    1.39    0.38
   6   1  11    2.23    0.47
   7  -2 -11    6.77    0.69
  -7   2  11    6.27    0.72
   6  -2 -11    0.25    0.25
  -6   2  11    0.30    0.25
   5  -2 -11    0.97    0.22
   5  -2 -11    1.36    0.32
   5  -2 -11    1.37    0.21
  -5   2  11    1.62    0.40
   4  -2 -11   12.02    0.53
   4  -2 -11   11.84    0.70
   4  -2 -11   11.54    0.56
  -4   2  11    9.83    0.71
   3  -2 -11   -0.01    0.16
   3  -2 -11    0.01    0.13
   3  -2 -11    0.14    0.15
  -3   2  11   -0.04    0.20
   2  -2 -11    0.65    0.21
   2  -2 -11    0.50    0.22
   2  -2 -11    0.64    0.20
  -2   2  11    0.41    0.25
   1  -2 -11    6.79    0.51
   1  -2 -11    5.93    0.47
   1  -2 -11    7.10    0.49
  -1   2  11    7.22    0.69
   0  -2 -11    9.66    0.60
   0  -2 -11   10.48    0.61
   0  -2 -11   10.03    0.57
  -1  -2 -11   10.68    0.64
  -1  -2 -11   11.86    0.61
  -1  -2 -11   12.05    0.67
  -1  -2 -11   10.91    0.58
  -2  -2 -11    2.96    0.42
  -2  -2 -11    3.02    0.41
  -2  -2 -11    3.19    0.44
  -3  -2 -11    0.21    0.23
  -3  -2 -11    0.22    0.19
  -3  -2 -11    0.18    0.20
   3   2  11    0.10    0.22
   3   2  11    0.14    0.25
  -4  -2 -11    1.66    0.35
  -4  -2 -11    2.00    0.41
  -4  -2 -11    1.32    0.34
   4   2  11    1.82    0.38
   4   2  11    2.11    0.41
  -5  -2 -11    4.38    0.60
   5   2  11    6.26    0.68
   5   2  11    5.11    0.62
   7  -3 -11    1.09    0.35
  -7   3  11    1.06    0.35
   6  -3 -11    0.85    0.32
  -6   3  11    0.77    0.29
   5  -3 -11   12.48    0.62
   5  -3 -11   15.22    0.82
   5  -3 -11   15.72    0.63
  -5   3  11   13.97    0.85
   4  -3 -11    2.53    0.30
   4  -3 -11    2.12    0.30
   4  -3 -11    2.90    0.43
  -4   3  11    2.61    0.46
   3  -3 -11    5.30    0.42
   3  -3 -11    4.80    0.39
   3  -3 -11    4.52    0.52
  -3   3  11    5.29    0.62
   2  -3 -11   -0.06    0.14
   2  -3 -11    0.10    0.15
   2  -3 -11    0.02    0.13
  -2   3  11   -0.20    0.19
   1  -3 -11   -0.07    0.15
   1  -3 -11    0.45    0.22
   1  -3 -11    0.16    0.16
  -1   3  11   -0.15    0.22
   0  -3 -11    0.05    0.16
   0  -3 -11    0.51    0.21
   0  -3 -11    0.46    0.20
   0  -3 -11    0.37    0.20
  -1  -3 -11    0.45    0.22
  -1  -3 -11    0.39    0.19
  -1  -3 -11    0.28    0.21
  -1  -3 -11    0.44    0.21
  -2  -3 -11   22.17    0.96
  -2  -3 -11   20.67    0.95
  -2  -3 -11   22.33    0.92
  -3  -3 -11    1.80    0.38
  -3  -3 -11    2.08    0.39
  -3  -3 -11    1.40    0.33
  -4  -3 -11    0.71    0.27
  -4  -3 -11    0.49    0.24
  -4  -3 -11    0.74    0.29
   4   3  11    0.79    0.33
   4   3  11    0.99    0.35
  -5  -3 -11    5.32    0.67
   5   3  11    5.86    0.67
  -7   4  11    2.19    0.46
   6  -4 -11    0.79    0.32
  -6   4  11    0.39    0.29
   5  -4 -11    1.23    0.24
   5  -4 -11    1.76    0.38
  -5   4  11    1.14    0.35
   4  -4 -11    0.02    0.12
   4  -4 -11   -0.07    0.11
   4  -4 -11   -0.09    0.17
  -4   4  11   -0.25    0.18
   3  -4 -11    7.91    0.59
   3  -4 -11    7.12    0.49
   3  -4 -11    6.20    0.45
  -3   4  11    7.70    0.75
   2  -4 -11    5.30    0.54
   2  -4 -11    6.29    0.47
   2  -4 -11    5.72    0.46
  -2   4  11    6.25    0.66
   1  -4 -11    2.21    0.35
   1  -4 -11    1.69    0.34
   1  -4 -11    1.95    0.33
   0  -4 -11    1.35    0.31
   0  -4 -11    1.43    0.29
   0  -4 -11    1.53    0.32
   0  -4 -11    1.17    0.27
  -1  -4 -11   13.59    0.75
  -1  -4 -11   14.42    0.75
  -1  -4 -11   13.91    0.77
  -2  -4 -11    2.86    0.42
  -2  -4 -11    1.70    0.37
  -2  -4 -11    1.40    0.33
  -3  -4 -11    3.25    0.46
  -3  -4 -11    3.94    0.53
  -3  -4 -11    3.45    0.51
  -4  -4 -11    3.42    0.54
  -4  -4 -11    2.22    0.45
  -4  -4 -11    2.86    0.49
   6  -5 -11   -0.31    0.18
  -6   5  11    0.40    0.29
   5  -5 -11    5.77    0.44
   5  -5 -11    5.87    0.65
  -5   5  11    6.75    0.73
   4  -5 -11    5.69    0.46
   4  -5 -11    5.78    0.41
   4  -5 -11    5.32    0.60
  -4   5  11    4.69    0.62
   3  -5 -11    1.62    0.36
   3  -5 -11    1.83    0.31
   3  -5 -11    1.76    0.33
  -3   5  11    1.29    0.39
   2  -5 -11    0.84    0.24
   2  -5 -11    1.09    0.28
   2  -5 -11    0.92    0.29
   1  -5 -11   -0.06    0.15
   1  -5 -11    0.15    0.19
   1  -5 -11   -0.14    0.18
   1  -5 -11    0.06    0.18
   0  -5 -11    4.47    0.51
   0  -5 -11    5.09    0.56
   0  -5 -11    5.35    0.56
   0  -5 -11    3.85    0.51
  -1  -5 -11    0.71    0.25
  -1  -5 -11    1.19    0.33
  -1  -5 -11    0.39    0.25
  -2  -5 -11    9.46    0.70
  -2  -5 -11    9.38    0.70
  -2  -5 -11   10.35    0.71
  -3  -5 -11    1.05    0.34
  -3  -5 -11    1.35    0.36
  -3  -5 -11    0.98    0.33
   5  -6 -11    0.00    0.15
   5  -6 -11    0.08    0.21
  -5   6  11   -0.45    0.23
   4  -6 -11    2.99    0.46
   4  -6 -11    3.01    0.35
   4  -6 -11    3.21    0.40
   3  -6 -11   11.61    0.76
   3  -6 -11   13.00    0.71
   3  -6 -11   12.75    0.65
   2  -6 -11    9.50    0.60
   2  -6 -11    9.13    0.64
   2  -6 -11    9.32    0.64
   2  -6 -11    9.51    0.67
   1  -6 -11    4.90    0.56
   1  -6 -11    2.86    0.41
   1  -6 -11    4.58    0.55
   1  -6 -11    3.35    0.48
   0  -6 -11    0.23    0.25
   0  -6 -11    0.64    0.26
   0  -6 -11    0.24    0.21
  -1  -6 -11   -0.15    0.20
  -1  -6 -11    0.38    0.25
  -1  -6 -11    0.08    0.21
  -2  -6 -11    2.93    0.49
  -2  -6 -11    2.11    0.42
   3  -7 -11    0.57    0.25
   3  -7 -11   -0.24    0.18
   3  -7 -11    0.00    0.16
  -3   7  11    0.13    0.27
   2  -7 -11    4.20    0.55
   2  -7 -11    4.42    0.54
   2  -7 -11    5.14    0.55
  -2   7  11    3.30    0.52
   1  -7 -11    1.50    0.34
   1  -7 -11    1.69    0.40
   1  -7 -11    1.49    0.36
  -1   7  11    2.06    0.40
   0  -7 -11    1.90    0.40
   1   7 -12    2.92    0.47
   1   7 -12    3.69    0.57
   1   7 -12    3.34    0.54
  -1  -7  12    2.98    0.53
   0   7 -12    0.25    0.25
   0   7 -12    0.09    0.21
   0   7 -12    0.22    0.25
   0  -7  12   -0.16    0.25
  -1   7 -12    2.73    0.51
  -1   7 -12    2.50    0.46
  -1   7 -12    2.28    0.44
   1  -7  12    2.15    0.46
  -2   7 -12    2.28    0.45
  -2   7 -12    2.51    0.44
  -2   7 -12    2.14    0.41
   2  -7  12    2.58    0.50
   2  -7  12    3.50    0.57
   3  -7  12    0.61    0.33
   3  -7  12    0.60    0.32
   3   6 -12    0.10    0.24
  -3  -6  12   -0.01    0.25
  -3  -6  12   -0.34    0.24
   2   6 -12    0.26    0.22
   2   6 -12   -0.25    0.19
   2   6 -12    0.02    0.20
  -2  -6  12    0.03    0.26
   1   6 -12   13.25    0.82
   1   6 -12   13.34    0.80
   1   6 -12   12.35    0.81
  -1  -6  12   11.04    0.80
   0   6 -12    3.59    0.53
   0   6 -12    3.55    0.52
   0   6 -12    4.13    0.53
  -1   6 -12    3.72    0.51
  -1   6 -12    3.15    0.47
  -1   6 -12    2.82    0.49
   1  -6  12    4.27    0.58
  -2   6 -12    0.38    0.27
  -2   6 -12    0.52    0.25
  -2   6 -12    0.24    0.23
   2  -6  12    0.66    0.34
   2  -6  12    0.74    0.35
   2  -6  12    0.62    0.29
  -3   6 -12    0.82    0.33
   3  -6  12    0.80    0.32
   3  -6  12    0.78    0.35
   3  -6  12    0.77    0.32
   4  -6  12    2.33    0.49
   4  -6  12    1.27    0.37
   4  -6  12    1.59    0.39
   4   5 -12    1.74    0.40
   4   5 -12    1.44    0.37
  -4  -5  12    1.99    0.45
   3   5 -12    0.01    0.22
   3   5 -12    0.38    0.25
   3   5 -12    0.10    0.20
  -3  -5  12   -0.09    0.24
  -3  -5  12    0.23    0.29
   2   5 -12    2.52    0.45
   2   5 -12    2.88    0.45
   2   5 -12    2.96    0.46
  -2  -5  12    2.07    0.42
  -2  -5  12    2.76    0.45
   1   5 -12    2.19    0.42
   1   5 -12    2.97    0.42
   1   5 -12    3.02    0.46
  -1  -5  12    3.41    0.50
   0   5 -12    4.24    0.50
   0   5 -12    3.17    0.47
   0   5 -12    3.84    0.53
   0  -5  12    3.69    0.53
  -1   5 -12    2.19    0.41
  -1   5 -12    2.07    0.38
  -1   5 -12    2.57    0.41
   1  -5  12    1.59    0.39
  -2   5 -12    6.48    0.67
  -2   5 -12    7.80    0.58
  -2   5 -12    7.91    0.61
   2  -5  12    9.19    0.69
   2  -5  12    8.47    0.66
   2  -5  12    6.12    0.62
  -3   5 -12    3.59    0.48
  -3   5 -12    3.35    0.51
   3  -5  12    4.08    0.54
   3  -5  12    2.62    0.45
   3  -5  12    3.82    0.54
   4  -5  12    0.71    0.30
   4  -5  12    0.97    0.33
   4  -5  12    0.66    0.32
   5  -5  12    9.36    0.88
   5  -5  12    8.93    0.81
   5  -5  12    7.88    0.75
   5   4 -12    2.03    0.37
  -5  -4  12    2.98    0.54
   4   4 -12    0.36    0.25
   4   4 -12    0.43    0.23
   4   4 -12    0.09    0.19
  -4  -4  12    0.26    0.28
   3   4 -12    0.08    0.18
   3   4 -12   -0.01    0.19
   3   4 -12    0.07    0.20
  -3  -4  12    0.21    0.25
  -3  -4  12    0.36    0.27
   2   4 -12    3.04    0.43
   2   4 -12    3.69    0.51
   2   4 -12    3.19    0.45
  -2  -4  12    3.46    0.48
  -2  -4  12    3.75    0.50
   1   4 -12    1.10    0.30
   1   4 -12    0.86    0.29
   1   4 -12    0.79    0.25
  -1  -4  12    0.24    0.26
  -1  -4  12    0.45    0.25
   0   4 -12    4.65    0.55
   0   4 -12    4.69    0.53
   0   4 -12    4.85    0.54
   0  -4  12    5.43    0.57
  -1   4 -12    0.91    0.26
  -1   4 -12    1.06    0.30
  -1   4 -12    0.87    0.27
   1  -4  12    1.13    0.32
  -2   4 -12   -0.01    0.18
  -2   4 -12    0.08    0.17
  -2   4 -12    0.43    0.20
   2  -4  12    0.19    0.22
   2  -4  12   -0.33    0.17
   2  -4  12    0.51    0.26
  -3   4 -12    0.61    0.24
  -3   4 -12    0.15    0.21
   3  -4  12   -0.10    0.20
   3  -4  12    0.40    0.26
   3  -4  12    0.09    0.24
  -4   4 -12    0.49    0.36
   4  -4  12    0.86    0.34
   4  -4  12   -0.08    0.23
   4  -4  12    0.25    0.26
   5  -4  12   11.24    0.79
   5  -4  12   11.76    0.84
   5  -4  12   11.04    0.77
   5   3 -12    1.68    0.39
   5   3 -12    1.74    0.34
   5   3 -12    2.00    0.37
  -5  -3  12    2.07    0.48
   4   3 -12    0.20    0.23
   4   3 -12   -0.21    0.16
   4   3 -12    0.24    0.21
  -4  -3  12    0.16    0.26
   3   3 -12   -0.05    0.18
   3   3 -12   -0.20    0.15
   3   3 -12    0.10    0.17
  -3  -3  12   -0.12    0.18
   2   3 -12    0.67    0.23
   2   3 -12    0.49    0.23
   2   3 -12    0.26    0.23
  -2  -3  12    0.45    0.28
  -2  -3  12    0.17    0.22
   1   3 -12    7.35    0.54
   1   3 -12    7.88    0.60
   1   3 -12    7.02    0.56
  -1  -3  12    8.47    0.60
  -1  -3  12    6.60    0.55
   0   3 -12    0.51    0.22
   0   3 -12    0.37    0.20
   0   3 -12    0.28    0.21
   0  -3  12    0.75    0.27
   0  -3  12    0.71    0.27
  -1   3 -12    2.39    0.40
  -1   3 -12    2.61    0.39
  -1   3 -12    3.36    0.43
   1  -3  12    2.44    0.39
  -2   3 -12    0.43    0.21
  -2   3 -12    0.02    0.17
   2  -3  12    0.10    0.21
   2  -3  12    0.46    0.26
   2  -3  12   -0.02    0.22
  -3   3 -12   -0.05    0.16
  -3   3 -12    0.22    0.22
   3  -3  12   -0.14    0.17
   3  -3  12   -0.31    0.19
   3  -3  12    0.11    0.23
  -4   3 -12    0.07    0.25
  -4   3 -12    0.08    0.22
   4  -3  12    0.17    0.25
   4  -3  12    0.14    0.25
   4  -3  12    0.13    0.24
   5  -3  12    0.27    0.28
   5  -3  12    0.30    0.27
   5  -3  12   -0.25    0.22
   6   2 -12    3.13    0.39
  -6  -2  12    3.60    0.60
   5   2 -12    1.28    0.29
   5   2 -12    2.04    0.42
   5   2 -12    1.60    0.29
  -5  -2  12    1.58    0.42
   4   2 -12    0.09    0.18
   4   2 -12    0.03    0.15
   4   2 -12    0.58    0.24
  -4  -2  12    0.17    0.25
   3   2 -12    1.34    0.29
   3   2 -12    1.07    0.30
   3   2 -12    1.39    0.30
  -3  -2  12    1.43    0.33
  -3  -2  12    2.05    0.41
   2   2 -12    1.77    0.31
   2   2 -12    1.30    0.32
   2   2 -12    1.54    0.32
  -2  -2  12    2.17    0.36
  -2  -2  12    1.49    0.36
   1   2 -12    1.96    0.34
   1   2 -12    1.64    0.33
   1   2 -12    1.58    0.33
  -1  -2  12    1.69    0.33
  -1  -2  12    2.24    0.40
   0   2 -12    3.05    0.41
   0   2 -12    2.12    0.35
   0   2 -12    2.21    0.39
   0  -2  12    2.25    0.39
   0  -2  12    2.34    0.38
  -1   2 -12    5.65    0.52
  -1   2 -12    4.82    0.53
  -1   2 -12    5.38    0.55
   1  -2  12    5.31    0.51
   1  -2  12    5.57    0.55
  -2   2 -12    1.14    0.29
  -2   2 -12    1.74    0.37
   2  -2  12    1.23    0.32
   2  -2  12    1.15    0.30
  -3   2 -12   15.25    0.85
  -3   2 -12   16.17    0.81
   3  -2  12   15.79    0.85
   3  -2  12   14.64    0.78
   3  -2  12   16.95    0.89
  -4   2 -12    6.69    0.62
  -4   2 -12    5.23    0.62
   4  -2  12    6.63    0.71
   4  -2  12    5.30    0.55
   4  -2  12    5.38    0.60
   5  -2  12   -0.27    0.21
   5  -2  12    0.19    0.25
   5  -2  12    0.09    0.26
   6   1 -12    4.29    0.55
   6   1 -12    4.55    0.46
   6   1 -12    4.95    0.40
  -6  -1  12    4.46    0.65
   5   1 -12    4.74    0.44
   5   1 -12    4.65    0.47
   5   1 -12    4.07    0.56
  -5  -1  12    4.67    0.61
   4   1 -12   14.77    0.69
   4   1 -12   15.97    0.86
   4   1 -12   14.92    0.71
  -4  -1  12   15.85    0.90
   3   1 -12    4.26    0.46
   3   1 -12    5.11    0.58
   3   1 -12    3.81    0.44
  -3  -1  12    4.28    0.46
  -3  -1  12    4.42    0.55
   2   1 -12    9.38    0.59
   2   1 -12    9.73    0.64
   2   1 -12    8.97    0.57
  -2  -1  12    9.81    0.68
  -2  -1  12    9.30    0.58
   1   1 -12    5.01    0.50
   1   1 -12    4.82    0.50
   1   1 -12    5.03    0.50
  -1  -1  12    5.11    0.49
  -1  -1  12    5.33    0.56
   0   1 -12    0.68    0.24
   0   1 -12    0.37    0.20
   0   1 -12    0.34    0.19
   0  -1  12    1.38    0.35
   0  -1  12    0.57    0.23
  -1   1 -12    4.16    0.53
  -1   1 -12    4.10    0.46
  -1   1 -12    4.72    0.47
   1  -1  12    4.33    0.52
   1  -1  12    4.11    0.43
  -2   1 -12    0.75    0.26
  -2   1 -12    0.92    0.28
   2  -1  12    1.11    0.27
  -3   1 -12    0.13    0.21
  -3   1 -12    0.57    0.24
   3  -1  12    0.21    0.23
   3  -1  12    0.41    0.21
   3  -1  12    0.41    0.25
  -4   1 -12    0.76    0.29
  -4   1 -12    0.35    0.21
   4  -1  12    0.49    0.25
   4  -1  12    0.49    0.27
   4  -1  12   -0.03    0.21
   5  -1  12   10.69    0.78
   5  -1  12   10.97    0.79
   6   0 -12    0.06    0.15
   6   0 -12    0.05    0.20
  -6   0  12    0.28    0.28
   5   0 -12    0.21    0.24
   5   0 -12    0.00    0.13
   5   0 -12    0.10    0.14
  -5   0  12    0.24    0.26
   4   0 -12    2.90    0.37
   4   0 -12    1.68    0.30
   4   0 -12    3.04    0.47
  -4   0  12    2.34    0.46
   3   0 -12    1.17    0.26
   3   0 -12    1.02    0.30
   3   0 -12    1.60    0.28
  -3   0  12    1.74    0.39
   2   0 -12    3.22    0.40
   2   0 -12    3.24    0.40
   2   0 -12    2.85    0.41
  -2   0  12    2.95    0.47
   1   0 -12    4.12    0.46
   1   0 -12    4.10    0.47
   1   0 -12    4.41    0.46
  -1   0  12    3.57    0.48
   0   0 -12   11.17    0.67
   0   0 -12   11.30    0.63
   0   0 -12   11.79    0.66
   0   0  12   10.69    0.70
  -1   0 -12    1.06    0.27
  -1   0 -12    1.59    0.33
  -1   0 -12    0.69    0.24
  -2   0 -12    3.46    0.45
  -2   0 -12    3.97    0.51
  -3   0 -12    1.10    0.34
  -3   0 -12    1.05    0.29
   3   0  12    1.38    0.32
   3   0  12    1.14    0.33
  -4   0 -12    3.49    0.48
  -4   0 -12    4.28    0.55
   4   0  12    3.03    0.49
   4   0  12    3.44    0.52
  -5   0 -12    0.10    0.26
   5   0  12   -0.03    0.24
   5   0  12    0.02    0.26
   6  -1 -12    0.57    0.20
   6  -1 -12    0.48    0.26
  -6   1  12    0.33    0.30
   5  -1 -12    4.39    0.39
   5  -1 -12    4.37    0.59
   5  -1 -12    4.21    0.42
  -5   1  12    3.52    0.54
   4  -1 -12    7.27    0.47
   4  -1 -12    8.23    0.51
   4  -1 -12    6.95    0.66
  -4   1  12    8.25    0.68
   3  -1 -12    0.12    0.19
   3  -1 -12    0.27    0.16
   3  -1 -12    0.29    0.18
  -3   1  12    0.14    0.24
   2  -1 -12    0.97    0.28
   2  -1 -12    1.25    0.27
   2  -1 -12    1.23    0.28
  -2   1  12    1.97    0.43
   1  -1 -12    0.81    0.24
   1  -1 -12    0.86    0.25
   1  -1 -12    0.28    0.19
  -1   1  12    0.28    0.25
   0  -1 -12    2.20    0.34
   0  -1 -12    2.44    0.38
   0  -1 -12    1.80    0.33
   0   1  12    1.91    0.41
  -1  -1 -12    3.03    0.41
  -1  -1 -12    2.95    0.42
  -1  -1 -12    3.68    0.43
  -2  -1 -12    6.59    0.63
  -2  -1 -12    6.57    0.61
  -3  -1 -12    6.70    0.69
  -3  -1 -12    7.62    0.61
   3   1  12    7.12    0.83
  -4  -1 -12    6.25    0.66
  -4  -1 -12    6.13    0.63
  -4  -1 -12    6.09    0.62
   4   1  12    6.40    0.64
   4   1  12    7.25    0.71
  -5  -1 -12    1.56    0.40
   5   1  12    2.61    0.50
   5   1  12    2.36    0.46
   6  -2 -12    2.24    0.44
  -6   2  12    3.05    0.55
   5  -2 -12    0.28    0.22
   5  -2 -12    0.31    0.17
   5  -2 -12    0.38    0.14
  -5   2  12    0.23    0.28
   4  -2 -12    0.50    0.19
   4  -2 -12    0.53    0.18
   4  -2 -12    0.44    0.25
  -4   2  12    0.40    0.27
   3  -2 -12   11.57    0.59
   3  -2 -12   10.71    0.69
   3  -2 -12    9.92    0.58
  -3   2  12   11.92    0.79
   2  -2 -12    2.08    0.34
   2  -2 -12    2.45    0.36
   2  -2 -12    2.20    0.38
  -2   2  12    2.77    0.48
   1  -2 -12    0.52    0.21
   1  -2 -12    0.26    0.20
   1  -2 -12    0.64    0.23
  -1   2  12    0.24    0.27
   0  -2 -12    1.40    0.29
   0  -2 -12    1.35    0.29
   0  -2 -12    1.07    0.28
  -1  -2 -12    2.70    0.43
  -1  -2 -12    2.63    0.41
  -2  -2 -12    4.03    0.54
  -2  -2 -12    3.30    0.47
  -3  -2 -12   -0.17    0.20
  -3  -2 -12   -0.09    0.17
  -3  -2 -12    0.09    0.19
  -4  -2 -12    2.95    0.50
  -4  -2 -12    3.30    0.52
  -4  -2 -12    2.53    0.46
   4   2  12    1.98    0.45
   6  -3 -12    1.16    0.34
  -6   3  12    0.72    0.34
   5  -3 -12    2.66    0.47
   5  -3 -12    2.59    0.33
  -5   3  12    3.20    0.52
   4  -3 -12    3.87    0.52
   4  -3 -12    5.10    0.48
   4  -3 -12    5.15    0.39
  -4   3  12    5.16    0.66
   3  -3 -12   -0.07    0.13
   3  -3 -12   -0.07    0.13
   3  -3 -12    0.00    0.17
  -3   3  12   -0.21    0.23
   2  -3 -12    4.13    0.46
   2  -3 -12    4.13    0.46
   2  -3 -12    3.50    0.46
  -2   3  12    2.90    0.51
   1  -3 -12    8.73    0.59
   1  -3 -12    7.84    0.57
   1  -3 -12    7.47    0.55
   0  -3 -12    3.35    0.45
   0  -3 -12    2.85    0.41
   0  -3 -12    2.74    0.40
  -1  -3 -12    1.48    0.33
  -1  -3 -12    1.71    0.36
  -2  -3 -12    1.06    0.30
  -2  -3 -12    1.02    0.32
  -2  -3 -12    0.45    0.25
  -3  -3 -12    5.76    0.63
  -3  -3 -12    3.93    0.56
  -3  -3 -12    4.05    0.53
  -4  -3 -12    1.07    0.34
  -4  -3 -12    0.64    0.31
   5  -4 -12    0.45    0.24
   5  -4 -12   -0.03    0.13
  -5   4  12    0.02    0.25
   4  -4 -12    1.04    0.26
   4  -4 -12    1.08    0.24
   4  -4 -12    1.36    0.34
  -4   4  12    0.86    0.36
   3  -4 -12    0.01    0.16
   3  -4 -12    0.15    0.16
   3  -4 -12    0.10    0.18
  -3   4  12    0.40    0.32
   2  -4 -12    2.24    0.36
   2  -4 -12    1.51    0.32
   2  -4 -12    1.68    0.36
   1  -4 -12    0.40    0.20
   1  -4 -12    0.66    0.25
   1  -4 -12    0.71    0.27
   0  -4 -12    0.36    0.22
   0  -4 -12    0.80    0.27
   0  -4 -12    0.17    0.21
  -1  -4 -12    5.89    0.59
  -1  -4 -12    7.66    0.73
  -1  -4 -12    5.54    0.58
  -2  -4 -12    0.95    0.31
  -2  -4 -12    1.03    0.32
  -2  -4 -12    1.06    0.32
  -3  -4 -12    0.89    0.32
  -3  -4 -12    0.79    0.32
  -3  -4 -12    0.56    0.30
   5  -5 -12   -0.09    0.19
  -5   5  12    0.15    0.29
   4  -5 -12    0.73    0.21
   4  -5 -12    0.52    0.22
   4  -5 -12    0.61    0.26
  -4   5  12    0.34    0.34
   3  -5 -12   17.26    0.77
   3  -5 -12   17.48    0.92
   3  -5 -12   17.47    0.82
   2  -5 -12    3.66    0.46
   2  -5 -12    3.86    0.53
   2  -5 -12    3.65    0.44
   1  -5 -12    3.84    0.50
   1  -5 -12    2.95    0.43
   1  -5 -12    3.57    0.49
   0  -5 -12    0.06    0.17
   0  -5 -12    0.27    0.21
   0  -5 -12    0.41    0.25
  -1  -5 -12   -0.46    0.18
  -1  -5 -12   -0.04    0.20
  -1  -5 -12   -0.17    0.18
  -2  -5 -12    0.05    0.22
  -2  -5 -12    0.57    0.29
   3  -6 -12    0.73    0.24
   3  -6 -12    1.01    0.28
   3  -6 -12    0.81    0.31
   2  -6 -12    0.53    0.27
   2  -6 -12    1.20    0.34
   1  -6 -12   10.62    0.74
   1  -6 -12   13.04    0.77
   1  -6 -12   12.09    0.79
   0  -6 -12    0.91    0.32
   0  -6 -12    1.26    0.33
   1   6 -13   -0.10    0.23
  -1  -6  13   -0.52    0.24
   0   6 -13    3.74    0.57
   0   6 -13    2.99    0.49
   0   6 -13    2.86    0.45
   0  -6  13    4.20    0.61
  -1   6 -13    8.25    0.66
  -1   6 -13    7.37    0.77
  -1   6 -13    8.52    0.68
   1  -6  13    8.91    0.83
  -2   6 -13    0.97    0.32
  -2   6 -13    0.46    0.29
   2  -6  13    0.76    0.34
   2   5 -13    0.08    0.22
   2   5 -13   -0.14    0.18
   2   5 -13   -0.07    0.21
  -2  -5  13    0.19    0.28
  -2  -5  13    0.39    0.38
   1   5 -13    0.75    0.30
   1   5 -13    0.66    0.28
   1   5 -13    0.45    0.26
  -1  -5  13    0.40    0.32
   0   5 -13    4.71    0.55
   0   5 -13    3.82    0.53
   0   5 -13    4.46    0.57
   0  -5  13    4.09    0.57
  -1   5 -13    1.82    0.42
  -1   5 -13    1.64    0.36
  -1   5 -13    1.47    0.36
   1  -5  13    1.96    0.44
  -2   5 -13    1.88    0.38
  -2   5 -13    1.79    0.41
   2  -5  13    2.23    0.43
  -3   5 -13    0.31    0.25
  -3   5 -13    0.22    0.22
   3  -5  13    0.91    0.37
   3  -5  13    0.15    0.27
   3  -5  13    0.13    0.27
   3   4 -13    1.03    0.33
   3   4 -13    1.19    0.33
   3   4 -13    1.11    0.31
  -3  -4  13    1.24    0.36
  -3  -4  13    1.09    0.37
   2   4 -13    4.80    0.57
   2   4 -13    7.21    0.66
   2   4 -13    4.51    0.58
  -2  -4  13    5.13    0.60
  -2  -4  13    4.93    0.59
   1   4 -13    3.83    0.51
   1   4 -13    3.12    0.48
   1   4 -13    4.22    0.55
  -1  -4  13    4.12    0.54
  -1  -4  13    3.61    0.53
   0   4 -13    0.10    0.24
   0   4 -13    0.23    0.22
   0   4 -13    0.32    0.22
   0  -4  13    0.53    0.30
  -1   4 -13   14.76    0.80
  -1   4 -13   16.99    0.91
  -1   4 -13   16.86    0.88
   1  -4  13   16.94    0.88
  -2   4 -13    0.08    0.22
  -2   4 -13    0.18    0.20
   2  -4  13    0.37    0.25
  -3   4 -13    1.75    0.40
  -3   4 -13    2.22    0.41
   3  -4  13    2.44    0.46
   3  -4  13    1.69    0.38
   3  -4  13    1.92    0.47
   4  -4  13    3.03    0.49
   4  -4  13    3.08    0.53
   4  -4  13    2.97    0.51
   4   3 -13    0.85    0.27
   4   3 -13    0.73    0.28
   4   3 -13    0.66    0.29
  -4  -3  13    0.93    0.34
   3   3 -13    1.18    0.31
   3   3 -13    1.44    0.34
   3   3 -13    1.61    0.38
  -3  -3  13    1.34    0.36
  -3  -3  13    1.50    0.37
   2   3 -13   -0.05    0.19
   2   3 -13    0.27    0.20
   2   3 -13    0.16    0.22
  -2  -3  13    0.60    0.29
  -2  -3  13    0.45    0.28
   1   3 -13    0.49    0.23
   1   3 -13    0.36    0.25
   1   3 -13    0.30    0.24
  -1  -3  13    0.08    0.22
  -1  -3  13   -0.23    0.19
   0   3 -13    1.50    0.35
   0   3 -13    0.88    0.27
   0   3 -13    0.77    0.26
   0  -3  13    1.17    0.32
   0  -3  13    1.36    0.33
  -1   3 -13    5.35    0.56
  -1   3 -13    6.03    0.58
  -1   3 -13    6.29    0.68
   1  -3  13    5.49    0.57
  -2   3 -13    1.43    0.35
  -2   3 -13    2.32    0.42
   2  -3  13    1.70    0.37
  -3   3 -13    1.81    0.39
  -3   3 -13    1.14    0.33
   3  -3  13    2.66    0.48
   3  -3  13    1.65    0.37
  -4   3 -13    7.49    0.76
   4  -3  13    7.68    0.70
   4  -3  13    7.43    0.74
   4  -3  13    7.27    0.73
   5   2 -13    0.17    0.19
  -5  -2  13    0.29    0.32
   4   2 -13    2.63    0.45
   4   2 -13    2.33    0.37
   4   2 -13    2.77    0.40
  -4  -2  13    2.17    0.47
   3   2 -13    8.92    0.67
   3   2 -13   10.22    0.65
   3   2 -13   10.74    0.65
  -3  -2  13    9.25    0.65
  -3  -2  13    9.67    0.73
   2   2 -13    0.45    0.25
   2   2 -13    0.60    0.26
   2   2 -13    0.79    0.26
  -2  -2  13    0.29    0.28
  -2  -2  13    0.69    0.27
   1   2 -13    1.58    0.35
   1   2 -13    1.27    0.30
   1   2 -13    1.98    0.36
  -1  -2  13    1.95    0.38
  -1  -2  13    1.89    0.39
   0   2 -13    1.13    0.29
   0   2 -13    1.66    0.35
   0   2 -13    1.28    0.31
   0  -2  13    2.12    0.41
   0  -2  13    1.69    0.35
  -1   2 -13    2.22    0.42
  -1   2 -13    1.61    0.32
  -1   2 -13    2.27    0.40
   1  -2  13    1.96    0.39
   1  -2  13    2.56    0.40
  -2   2 -13   -0.10    0.16
  -2   2 -13   -0.12    0.18
   2  -2  13    0.16    0.20
  -3   2 -13   11.11    0.73
  -3   2 -13   11.59    0.79
   3  -2  13   12.72    0.82
   3  -2  13   11.78    0.71
  -4   2 -13    0.68    0.30
  -4   2 -13    0.14    0.22
   4  -2  13    0.76    0.32
   4  -2  13    0.20    0.27
   4  -2  13    0.93    0.33
   5   1 -13    0.80    0.25
   5   1 -13    0.66    0.22
   5   1 -13    0.50    0.27
  -5  -1  13    0.35    0.28
   4   1 -13    2.73    0.48
   4   1 -13    3.03    0.41
   4   1 -13    3.13    0.41
  -4  -1  13    3.26    0.52
   3   1 -13    0.38    0.24
   3   1 -13    0.41    0.22
   3   1 -13    0.08    0.18
  -3  -1  13    0.05    0.25
   2   1 -13    3.34    0.43
   2   1 -13    4.29    0.54
   2   1 -13    4.38    0.50
  -2  -1  13    5.12    0.63
   1   1 -13    3.13    0.45
   1   1 -13    4.45    0.53
   1   1 -13    3.50    0.45
  -1  -1  13    3.74    0.51
   0   1 -13    0.28    0.19
   0   1 -13    0.12    0.19
   0   1 -13    0.09    0.18
   0  -1  13    0.29    0.26
  -1   1 -13    0.35    0.23
  -1   1 -13    0.25    0.18
  -1   1 -13    0.48    0.23
   1  -1  13   -0.12    0.25
  -2   1 -13    1.00    0.28
  -2   1 -13    0.91    0.28
  -3   1 -13    0.62    0.26
  -3   1 -13    0.43    0.26
  -4   1 -13    2.44    0.46
  -4   1 -13    2.16    0.40
   4  -1  13    3.25    0.52
   4  -1  13    3.55    0.55
   5   0 -13    2.18    0.34
   5   0 -13    2.24    0.32
   5   0 -13    2.54    0.45
  -5   0  13    2.47    0.49
   4   0 -13    1.15    0.28
   4   0 -13    1.00    0.26
   4   0 -13    0.94    0.30
  -4   0  13    1.45    0.40
   3   0 -13    5.71    0.64
   3   0 -13    4.89    0.51
   3   0 -13    5.07    0.51
  -3   0  13    3.96    0.57
   2   0 -13    3.76    0.47
   2   0 -13    3.70    0.49
   2   0 -13    4.52    0.50
  -2   0  13    4.48    0.57
   1   0 -13    0.83    0.27
   1   0 -13    0.75    0.26
   1   0 -13    0.95    0.26
  -1   0  13    0.98    0.34
   0   0 -13    7.08    0.56
   0   0 -13    5.22    0.57
   0   0 -13    5.74    0.58
   0   0  13    5.76    0.63
  -1   0 -13    0.61    0.27
  -1   0 -13    0.93    0.27
  -2   0 -13    1.01    0.30
  -2   0 -13    0.89    0.27
  -3   0 -13   -0.03    0.17
  -3   0 -13   -0.17    0.18
  -4   0 -13    2.00    0.39
  -4   0 -13    2.22    0.44
   4   0  13    2.30    0.49
   5  -1 -13    3.26    0.41
   5  -1 -13    3.22    0.36
   5  -1 -13    3.39    0.54
  -5   1  13    3.87    0.59
   4  -1 -13    7.15    0.52
   4  -1 -13    6.36    0.67
   4  -1 -13    7.40    0.50
  -4   1  13    7.59    0.80
   3  -1 -13    1.10    0.26
   3  -1 -13    1.34    0.28
   3  -1 -13    1.50    0.36
  -3   1  13    1.22    0.36
   2  -1 -13    3.40    0.47
   2  -1 -13    3.08    0.42
   2  -1 -13    2.41    0.38
  -2   1  13    3.92    0.59
   1  -1 -13    6.18    0.60
   1  -1 -13    7.67    0.59
   1  -1 -13    6.01    0.60
  -1   1  13    7.88    0.76
   0  -1 -13    0.00    0.16
   0  -1 -13   -0.12    0.16
   0  -1 -13   -0.32    0.13
  -1  -1 -13    3.88    0.50
  -1  -1 -13    3.74    0.49
  -2  -1 -13   -0.01    0.21
  -2  -1 -13    0.06    0.19
  -3  -1 -13   -0.19    0.19
  -3  -1 -13   -0.08    0.20
  -4  -1 -13    0.07    0.23
  -4  -1 -13    0.14    0.22
   5  -2 -13   11.12    0.78
   5  -2 -13   11.27    0.60
   5  -2 -13   12.31    0.65
  -5   2  13   14.36    0.93
   4  -2 -13    0.62    0.23
   4  -2 -13    0.25    0.17
   4  -2 -13    0.66    0.30
  -4   2  13    0.46    0.31
   3  -2 -13    0.04    0.20
   3  -2 -13    0.00    0.16
   3  -2 -13    0.01    0.16
  -3   2  13    0.27    0.29
   2  -2 -13    5.21    0.59
   2  -2 -13    4.51    0.49
   2  -2 -13    3.96    0.47
  -2   2  13    4.84    0.66
   1  -2 -13   16.04    0.81
   1  -2 -13   15.30    0.78
   1  -2 -13   15.46    0.80
  -1   2  13   14.77    0.92
   0  -2 -13    1.63    0.35
   0  -2 -13    1.36    0.31
   0  -2 -13    1.48    0.35
  -1  -2 -13    0.40    0.24
  -1  -2 -13    0.48    0.24
  -2  -2 -13   12.38    0.79
  -2  -2 -13   13.97    0.83
  -3  -2 -13    7.02    0.69
  -3  -2 -13    5.91    0.69
   5  -3 -13    0.80    0.30
  -5   3  13    0.48    0.32
   4  -3 -13    1.84    0.40
   4  -3 -13    2.06    0.30
   4  -3 -13    1.52    0.31
  -4   3  13    2.32    0.49
   3  -3 -13    4.46    0.48
   3  -3 -13    5.24    0.53
   3  -3 -13    3.96    0.52
  -3   3  13    4.80    0.65
   2  -3 -13    1.38    0.30
   2  -3 -13    0.85    0.30
   2  -3 -13    1.19    0.30
  -2   3  13    0.85    0.38
   1  -3 -13   -0.24    0.15
   1  -3 -13    0.28    0.21
   1  -3 -13    0.20    0.20
   0  -3 -13    3.31    0.47
   0  -3 -13    3.21    0.47
   0  -3 -13    3.26    0.45
  -1  -3 -13    0.05    0.20
  -1  -3 -13    0.27    0.21
  -2  -3 -13    0.08    0.22
  -2  -3 -13    0.18    0.23
   4  -4 -13    0.14    0.21
   4  -4 -13   -0.13    0.16
   4  -4 -13    0.14    0.16
  -4   4  13    0.20    0.29
   3  -4 -13    0.79    0.25
   3  -4 -13    0.21    0.21
   3  -4 -13    0.33    0.24
  -3   4  13    0.53    0.39
   2  -4 -13    0.66    0.26
   2  -4 -13    0.87    0.31
   2  -4 -13    0.82    0.27
   1  -4 -13    6.66    0.64
   1  -4 -13    6.86    0.68
   1  -4 -13    5.97    0.60
   0  -4 -13    0.01    0.20
   0  -4 -13    0.10    0.19
   0  -4 -13    0.14    0.21
  -1  -4 -13    0.19    0.23
  -1  -4 -13   -0.24    0.16
   3  -5 -13    0.36    0.22
   2  -5 -13    1.23    0.30
   2  -5 -13    1.09    0.33
   1  -5 -13    4.05    0.51
   1  -5 -13    4.03    0.56
   0   5 -14    0.09    0.23
  -1   5 -14    1.92    0.42
   2   4 -14    0.25    0.23
  -2  -4  14   -0.19    0.28
  -2  -4  14    0.16    0.28
   1   4 -14    0.55    0.27
   1   4 -14   -0.05    0.22
   1   4 -14    0.21    0.24
  -1  -4  14   -0.06    0.26
   0   4 -14    0.02    0.20
   0   4 -14    0.08    0.23
   0   4 -14    0.08    0.21
   0  -4  14    0.08    0.25
  -1   4 -14    2.62    0.45
  -1   4 -14    2.80    0.48
  -1   4 -14    2.68    0.45
   1  -4  14    3.58    0.52
  -2   4 -14    0.51    0.27
  -2   4 -14   -0.12    0.18
   2  -4  14   -0.25    0.22
   3   3 -14    4.47    0.55
  -3  -3  14    3.93    0.56
  -3  -3  14    4.61    0.62
   2   3 -14    0.96    0.32
   2   3 -14    0.87    0.32
   2   3 -14    0.80    0.28
  -2  -3  14    0.87    0.34
  -2  -3  14    0.81    0.35
   1   3 -14    2.59    0.44
   1   3 -14    2.35    0.42
   1   3 -14    2.36    0.42
  -1  -3  14    2.66    0.47
  -1  -3  14    3.09    0.50
   0   3 -14    5.00    0.59
   0   3 -14    4.88    0.57
   0   3 -14    4.53    0.56
   0  -3  14    4.84    0.58
  -1   3 -14    0.11    0.24
  -1   3 -14    0.25    0.22
  -1   3 -14    0.29    0.23
   1  -3  14   -0.28    0.19
  -2   3 -14    0.90    0.32
  -2   3 -14    1.52    0.37
   2  -3  14    1.63    0.38
  -3   3 -14    0.22    0.27
   3  -3  14    0.19    0.25
   3   2 -14    0.18    0.22
   3   2 -14    0.18    0.20
   3   2 -14    0.18    0.21
  -3  -2  14    0.74    0.33
   2   2 -14   -0.16    0.18
   2   2 -14    0.04    0.21
   2   2 -14   -0.04    0.19
  -2  -2  14   -0.14    0.23
   1   2 -14    3.25    0.49
   1   2 -14    3.09    0.48
   1   2 -14    3.88    0.52
  -1  -2  14    3.70    0.54
   0   2 -14    0.47    0.24
   0   2 -14    0.62    0.24
   0   2 -14    0.22    0.21
   0  -2  14    0.41    0.29
  -1   2 -14   -0.05    0.19
  -1   2 -14   -0.23    0.18
  -2   2 -14    0.12    0.23
  -2   2 -14    0.13    0.21
  -3   2 -14    0.46    0.29
  -3   2 -14    0.04    0.19
   4   1 -14    1.94    0.42
   4   1 -14    1.70    0.33
  -4  -1  14    2.58    0.50
   3   1 -14    8.32    0.62
   3   1 -14    8.62    0.62
   3   1 -14    5.78    0.65
  -3  -1  14    9.01    0.75
   2   1 -14   13.07    0.77
   2   1 -14   14.65    0.85
   2   1 -14   16.80    0.85
  -2  -1  14   14.30    0.89
   1   1 -14    1.61    0.34
   1   1 -14    1.29    0.34
   1   1 -14    1.48    0.35
  -1  -1  14    1.75    0.41
   0   1 -14    0.75    0.30
   0   1 -14    0.08    0.18
   0   1 -14   -0.05    0.18
   0  -1  14    0.44    0.29
  -1   1 -14    0.46    0.25
  -1   1 -14   -0.18    0.17
  -2   1 -14    0.20    0.21
  -2   1 -14   -0.03    0.20
  -3   1 -14    3.80    0.52
  -3   1 -14    3.43    0.52
   4   0 -14    0.99    0.26
   4   0 -14    1.01    0.34
   4   0 -14    1.12    0.30
  -4   0  14    1.04    0.40
   3   0 -14   -0.04    0.17
   3   0 -14    0.29    0.20
   3   0 -14    0.27    0.24
  -3   0  14   -0.01    0.27
   2   0 -14    3.25    0.45
   2   0 -14    3.58    0.53
   2   0 -14    3.52    0.48
  -2   0  14    4.11    0.59
   1   0 -14    5.52    0.60
   1   0 -14    4.15    0.52
   1   0 -14    3.71    0.50
  -1   0  14    4.49    0.61
   0   0 -14    0.10    0.20
   0   0 -14   -0.05    0.18
   0   0 -14    0.36    0.23
   0   0  14   -0.12    0.29
  -1   0 -14    1.17    0.32
  -1   0 -14    1.02    0.31
  -2   0 -14    1.55    0.39
  -2   0 -14    1.35    0.35
  -3   0 -14    1.47    0.38
   4  -1 -14    0.62    0.22
   4  -1 -14    0.60    0.24
   4  -1 -14    0.95    0.33
  -4   1  14    0.96    0.39
   3  -1 -14    5.60    0.56
   3  -1 -14    4.55    0.57
   3  -1 -14    6.42    0.61
  -3   1  14    6.34    0.73
   2  -1 -14    0.39    0.23
   2  -1 -14    0.46    0.23
   2  -1 -14   -0.01    0.19
  -2   1  14   -0.14    0.26
   1  -1 -14    4.41    0.55
   1  -1 -14    4.46    0.55
   1  -1 -14    4.80    0.59
  -1   1  14    4.53    0.63
   0  -1 -14    2.01    0.39
   0  -1 -14    1.36    0.35
   0  -1 -14    1.25    0.33
  -1  -1 -14    0.37    0.24
  -1  -1 -14    0.42    0.25
  -2  -1 -14    0.34    0.24
  -2  -1 -14    0.11    0.23
  -4   2  14    0.14    0.29
   3  -2 -14    8.78    0.59
   3  -2 -14   10.23    0.67
   3  -2 -14    9.90    0.73
  -3   2  14    8.31    0.86
   2  -2 -14    0.15    0.20
   2  -2 -14    0.00    0.18
   2  -2 -14   -0.18    0.17
  -2   2  14   -0.36    0.25
   1  -2 -14    0.28    0.21
   1  -2 -14    0.34    0.23
   1  -2 -14   -0.06    0.19
   0  -2 -14    0.44    0.24
   0  -2 -14    0.02    0.19
   0  -2 -14    0.02    0.17
  -1  -2 -14    0.67    0.28
  -1  -2 -14    0.29    0.23
  -2  -2 -14    4.36    0.57
   3  -3 -14    4.41    0.49
  -3   3  14    3.89    0.63
   2  -3 -14    4.03    0.50
   2  -3 -14    3.65    0.51
   2  -3 -14    3.25    0.45
  -2   3  14    4.18    0.67
   1  -3 -14    0.70    0.29
   1  -3 -14    0.74    0.29
   1  -3 -14    0.50    0.26
   0  -3 -14    2.32    0.41
   0  -3 -14    1.92    0.38
   0   2 -15    0.37    0.26
   0  -2  15    0.36    0.33
   1   1 -15    0.24    0.24
   1   1 -15    0.63    0.28
  -1  -1  15    0.36    0.35
   0   1 -15    6.45    0.72
   0   1 -15    7.41    0.71
   0  -1  15    8.47    0.83
   1   0 -15    1.33    0.34
   1   0 -15    2.27    0.43
  -1   0  15    1.06    0.41
   0   0 -15    0.17    0.22
   0   0 -15    0.40    0.24
   0   0   0    0.00    0.00
;
_shelx_hkl_checksum              7693
loop_
_space_group_symop_operation_xyz
'x, y, z'
'-x, -y, -z'
loop_
_atom_site_type_symbol
_atom_site_label
_atom_site_fract_x
_atom_site_fract_y
_atom_site_fract_z
_atom_site_U_iso_or_equiv
_atom_site_adp_type
_atom_site_calc_flag
_atom_site_refinement_flags_adp
_atom_site_refinement_flags_occupancy
_atom_site_refinement_flags_posn
_atom_site_occupancy
_atom_site_disorder_assembly
_atom_site_disorder_group
S S11 0.04999(5) 0.82474(5) 0.25079(4) 0.01969(12) Uani d . . . 1 . .
C C1 0.1452(2) 0.77814(18) 0.12171(14) 0.0189(3) Uani d . . . 1 . .
C C10 0.1809(2) 0.62660(18) 0.09554(14) 0.0184(3) Uani d . . . 1 . .
C C5 0.2597(2) 0.60577(19) -0.01160(14) 0.0206(3) Uani d . . . 1 . .
C C6 0.2967(2) 0.4586(2) -0.04357(16) 0.0247(4) Uani d . . . 1 . .
H H6 0.347509 0.44363 -0.11537 0.03 Uiso calc U . R 1 . .
C C7 0.2602(2) 0.3385(2) 0.02769(17) 0.0284(4) Uani d . . . 1 . .
H H7 0.286164 0.240574 0.005464 0.034 Uiso calc U . R 1 . .
C C2 0.1861(2) 0.89730(19) 0.04832(15) 0.0236(4) Uani d . . . 1 . .
H H2 0.160199 0.995958 0.068132 0.028 Uiso calc U . R 1 . .
C C3 0.2662(2) 0.8742(2) -0.05603(16) 0.0278(4) Uani d . . . 1 . .
H H3 0.295228 0.957134 -0.106166 0.033 Uiso calc U . R 1 . .
C C9 0.1448(2) 0.49864(19) 0.16810(15) 0.0233(3) Uani d . . . 1 . .
H H9 0.093383 0.510314 0.240153 0.028 Uiso calc U . R 1 . .
C C4 0.3020(2) 0.7317(2) -0.08479(15) 0.0255(4) Uani d . . . 1 . .
H H4 0.356248 0.716657 -0.1552 0.031 Uiso calc U . R 1 . .
C C8 0.1840(2) 0.3586(2) 0.13417(17) 0.0275(4) Uani d . . . 1 . .
H H8 0.159512 0.273987 0.18317 0.033 Uiso calc U . R 1 . .
O O13 0.00181(15) 0.97098(14) 0.24035(11) 0.0262(3) Uani d . . . 1 . .
O O12 -0.07333(15) 0.69300(14) 0.28636(11) 0.0268(3) Uani d . . . 1 . .
O O14 0.20592(14) 0.84890(13) 0.34873(10) 0.0188(2) Uani d . . . 1 . .
C C15 0.3475(2) 0.98248(18) 0.35527(13) 0.0173(3) Uani d . . . 1 . .
C C18 0.6335(2) 1.22795(18) 0.40186(13) 0.0187(3) Uani d . . . 1 . .
C C20 0.3230(2) 1.12768(19) 0.39655(15) 0.0226(3) Uani d . . . 1 . .
H H20 0.209631 1.141953 0.408974 0.027 Uiso calc U . R 1 . .
C C17 0.6528(2) 1.08196(19) 0.35666(14) 0.0205(3) Uani d . . . 1 . .
H H17 0.7658 1.068153 0.342553 0.025 Uiso calc U . R 1 . .
C C22 0.7938(2) 1.35158(19) 0.43838(14) 0.0207(3) Uani d . . . 1 . .
C C16 0.5097(2) 0.95583(19) 0.33173(14) 0.0193(3) Uani d . . . 1 . .
C C19 0.4683(2) 1.25191(19) 0.41934(15) 0.0224(3) Uani d . . . 1 . .
H H19 0.454788 1.352722 0.446727 0.027 Uiso calc U . R 1 . .
C C21 0.5320(2) 0.7965(2) 0.28763(17) 0.0280(4) Uani d . . . 1 . .
H H21A 0.513134 0.784209 0.202496 0.042 Uiso calc U . R 1 . .
H H21B 0.447368 0.714456 0.322008 0.042 Uiso calc U . R 1 . .
H H21C 0.649906 0.787116 0.309699 0.042 Uiso calc U . R 1 . .
O O23 0.93972(15) 1.33341(14) 0.41597(11) 0.0264(3) Uani d . . . 1 . .
O O24 0.76741(17) 1.47516(14) 0.49785(12) 0.0265(3) Uani d . . . 1 . .
H H24 0.867(4) 1.539(4) 0.520(3) 0.069(9) Uiso d . . . 1 . .
loop_
_atom_site_aniso_label
_atom_site_aniso_U_11
_atom_site_aniso_U_22
_atom_site_aniso_U_33
_atom_site_aniso_U_12
_atom_site_aniso_U_13
_atom_site_aniso_U_23
S11 0.01454(19) 0.0203(2) 0.0230(2) 0.00265(15) -0.00054(15) -0.00113(15)
C1 0.0166(7) 0.0182(7) 0.0201(8) 0.0012(6) -0.0020(6) 0.0001(6)
C10 0.0156(7) 0.0172(7) 0.0203(8) 0.0007(6) -0.0045(6) -0.0001(6)
C5 0.0179(7) 0.0201(8) 0.0214(8) 0.0015(6) -0.0045(6) -0.0024(6)
C6 0.0218(8) 0.0221(8) 0.0278(9) 0.0030(7) -0.0021(7) -0.0063(7)
C7 0.0253(9) 0.0174(8) 0.0404(10) 0.0037(7) -0.0030(8) -0.0052(7)
C2 0.0244(8) 0.0175(8) 0.0283(9) 0.0037(7) -0.0003(7) 0.0018(6)
C3 0.0330(10) 0.0228(9) 0.0267(9) 0.0033(7) 0.0022(7) 0.0076(7)
C9 0.0229(8) 0.0207(8) 0.0249(8) 0.0027(6) -0.0017(7) 0.0034(6)
C4 0.0266(9) 0.0284(9) 0.0200(8) 0.0036(7) 0.0012(7) 0.0011(7)
C8 0.0278(9) 0.0181(8) 0.0351(10) 0.0019(7) -0.0035(7) 0.0062(7)
O13 0.0213(6) 0.0259(6) 0.0326(7) 0.0095(5) -0.0014(5) -0.0010(5)
O12 0.0173(6) 0.0281(6) 0.0311(7) -0.0020(5) 0.0021(5) -0.0004(5)
O14 0.0164(5) 0.0172(5) 0.0211(6) 0.0006(4) -0.0002(4) 0.0006(4)
C15 0.0148(7) 0.0167(7) 0.0177(7) -0.0012(6) -0.0008(6) 0.0002(6)
C18 0.0197(8) 0.0179(7) 0.0164(7) 0.0001(6) 0.0012(6) 0.0011(6)
C20 0.0181(8) 0.0216(8) 0.0279(9) 0.0054(6) 0.0014(7) -0.0028(6)
C17 0.0165(7) 0.0227(8) 0.0211(8) 0.0030(6) 0.0024(6) -0.0018(6)
C22 0.0224(8) 0.0183(8) 0.0196(8) 0.0009(6) 0.0033(6) 0.0009(6)
C16 0.0185(8) 0.0199(8) 0.0186(7) 0.0037(6) 0.0002(6) -0.0022(6)
C19 0.0232(8) 0.0172(8) 0.0262(8) 0.0042(6) 0.0019(7) -0.0024(6)
C21 0.0212(8) 0.0264(9) 0.0344(10) 0.0047(7) -0.0002(7) -0.0084(7)
O23 0.0196(6) 0.0252(6) 0.0300(7) -0.0022(5) 0.0056(5) -0.0053(5)
O24 0.0229(6) 0.0180(6) 0.0345(7) -0.0014(5) 0.0027(5) -0.0065(5)
loop_
_atom_type_symbol
_atom_type_description
_atom_type_scat_dispersion_real
_atom_type_scat_dispersion_imag
_atom_type_scat_source
C C 0.0033 0.0016 'International Tables Vol C Tables 4.2.6.8 and 6.1.1.4'
H H 0.0000 0.0000 'International Tables Vol C Tables 4.2.6.8 and 6.1.1.4'
O O 0.0106 0.0060 'International Tables Vol C Tables 4.2.6.8 and 6.1.1.4'
S S 0.1246 0.1234 'International Tables Vol C Tables 4.2.6.8 and 6.1.1.4'
loop_
_geom_angle_atom_site_label_1
_geom_angle_atom_site_label_2
_geom_angle_atom_site_label_3
_geom_angle_site_symmetry_1
_geom_angle_site_symmetry_3
_geom_angle
_geom_angle_publ_flag
O12 S11 O13 . . 119.71(8) ?
O12 S11 O14 . . 102.92(7) ?
O13 S11 O14 . . 108.97(7) ?
O12 S11 C1 . . 112.00(8) ?
O13 S11 C1 . . 108.38(8) ?
O14 S11 C1 . . 103.48(7) ?
C2 C1 C10 . . 121.96(15) ?
C2 C1 S11 . . 115.65(13) ?
C10 C1 S11 . . 122.38(12) ?
C9 C10 C5 . . 118.56(15) ?
C9 C10 C1 . . 125.09(15) ?
C5 C10 C1 . . 116.35(14) ?
C6 C5 C4 . . 120.37(16) ?
C6 C5 C10 . . 119.36(15) ?
C4 C5 C10 . . 120.27(15) ?
C7 C6 C5 . . 120.61(17) ?
C7 C6 H6 . . 119.7 ?
C5 C6 H6 . . 119.7 ?
C6 C7 C8 . . 120.37(16) ?
C6 C7 H7 . . 119.8 ?
C8 C7 H7 . . 119.8 ?
C1 C2 C3 . . 120.46(16) ?
C1 C2 H2 . . 119.8 ?
C3 C2 H2 . . 119.8 ?
C4 C3 C2 . . 119.63(16) ?
C4 C3 H3 . . 120.2 ?
C2 C3 H3 . . 120.2 ?
C8 C9 C10 . . 120.13(16) ?
C8 C9 H9 . . 119.9 ?
C10 C9 H9 . . 119.9 ?
C3 C4 C5 . . 121.31(16) ?
C3 C4 H4 . . 119.3 ?
C5 C4 H4 . . 119.3 ?
C9 C8 C7 . . 120.96(16) ?
C9 C8 H8 . . 119.5 ?
C7 C8 H8 . . 119.5 ?
C15 O14 S11 . . 121.47(10) ?
C20 C15 C16 . . 123.33(15) ?
C20 C15 O14 . . 119.42(14) ?
C16 C15 O14 . . 116.84(13) ?
C19 C18 C17 . . 120.10(15) ?
C19 C18 C22 . . 121.67(14) ?
C17 C18 C22 . . 118.08(15) ?
C15 C20 C19 . . 118.48(15) ?
C15 C20 H20 . . 120.8 ?
C19 C20 H20 . . 120.8 ?
C16 C17 C18 . . 121.37(15) ?
C16 C17 H17 . . 119.3 ?
C18 C17 H17 . . 119.3 ?
O23 C22 O24 . . 123.73(15) ?
O23 C22 C18 . . 121.32(15) ?
O24 C22 C18 . . 114.91(14) ?
C15 C16 C17 . . 116.78(14) ?
C15 C16 C21 . . 121.99(15) ?
C17 C16 C21 . . 121.14(15) ?
C20 C19 C18 . . 119.83(15) ?
C20 C19 H19 . . 120.1 ?
C18 C19 H19 . . 120.1 ?
C16 C21 H21A . . 109.5 ?
C16 C21 H21B . . 109.5 ?
H21A C21 H21B . . 109.5 ?
C16 C21 H21C . . 109.5 ?
H21A C21 H21C . . 109.5 ?
H21B C21 H21C . . 109.5 ?
C22 O24 H24 . . 109.8(19) ?
loop_
_geom_bond_atom_site_label_1
_geom_bond_atom_site_label_2
_geom_bond_site_symmetry_2
_geom_bond_distance
_geom_bond_publ_flag
S11 O12 . 1.4253(13) ?
S11 O13 . 1.4291(12) ?
S11 O14 . 1.6021(12) ?
S11 C1 . 1.7629(17) ?
C1 C2 . 1.374(2) ?
C1 C10 . 1.437(2) ?
C10 C9 . 1.424(2) ?
C10 C5 . 1.427(2) ?
C5 C6 . 1.417(2) ?
C5 C4 . 1.418(2) ?
C6 C7 . 1.362(3) ?
C6 H6 . 0.95 ?
C7 C8 . 1.409(3) ?
C7 H7 . 0.95 ?
C2 C3 . 1.408(3) ?
C2 H2 . 0.95 ?
C3 C4 . 1.367(2) ?
C3 H3 . 0.95 ?
C9 C8 . 1.371(2) ?
C9 H9 . 0.95 ?
C4 H4 . 0.95 ?
C8 H8 . 0.95 ?
O14 C15 . 1.4181(18) ?
C15 C20 . 1.389(2) ?
C15 C16 . 1.393(2) ?
C18 C19 . 1.393(2) ?
C18 C17 . 1.394(2) ?
C18 C22 . 1.492(2) ?
C20 C19 . 1.393(2) ?
C20 H20 . 0.95 ?
C17 C16 . 1.394(2) ?
C17 H17 . 0.95 ?
C22 O23 . 1.238(2) ?
C22 O24 . 1.307(2) ?
C16 C21 . 1.507(2) ?
C19 H19 . 0.95 ?
C21 H21A . 0.98 ?
C21 H21B . 0.98 ?
C21 H21C . 0.98 ?
O24 H24 . 0.87(3) ?
loop_
_geom_hbond_atom_site_label_D
_geom_hbond_atom_site_label_H
_geom_hbond_atom_site_label_A
_geom_hbond_site_symmetry_A
_geom_hbond_distance_DH
_geom_hbond_distance_HA
_geom_hbond_distance_DA
_geom_hbond_angle_DHA
_geom_hbond_publ_flag
O24 H24 O23 2_786 0.87(3) 1.77(3) 2.6411(17) 173.(3) ?
loop_
_geom_torsion_atom_site_label_1
_geom_torsion_atom_site_label_2
_geom_torsion_atom_site_label_3
_geom_torsion_atom_site_label_4
_geom_torsion_site_symmetry_1
_geom_torsion_site_symmetry_2
_geom_torsion_site_symmetry_3
_geom_torsion_site_symmetry_4
_geom_torsion
_geom_torsion_publ_flag
O12 S11 C1 C2 . . . . 146.24(13) ?
O13 S11 C1 C2 . . . . 12.00(15) ?
O14 S11 C1 C2 . . . . -103.59(13) ?
O12 S11 C1 C10 . . . . -34.89(15) ?
O13 S11 C1 C10 . . . . -169.12(12) ?
O14 S11 C1 C10 . . . . 75.29(14) ?
C2 C1 C10 C9 . . . . 178.95(16) ?
S11 C1 C10 C9 . . . . 0.1(2) ?
C2 C1 C10 C5 . . . . -0.6(2) ?
S11 C1 C10 C5 . . . . -179.45(11) ?
C9 C10 C5 C6 . . . . 1.1(2) ?
C1 C10 C5 C6 . . . . -179.28(14) ?
C9 C10 C5 C4 . . . . -178.31(15) ?
C1 C10 C5 C4 . . . . 1.3(2) ?
C4 C5 C6 C7 . . . . 178.44(16) ?
C10 C5 C6 C7 . . . . -1.0(2) ?
C5 C6 C7 C8 . . . . 0.3(3) ?
C10 C1 C2 C3 . . . . -0.3(3) ?
S11 C1 C2 C3 . . . . 178.60(13) ?
C1 C2 C3 C4 . . . . 0.6(3) ?
C5 C10 C9 C8 . . . . -0.6(2) ?
C1 C10 C9 C8 . . . . 179.81(15) ?
C2 C3 C4 C5 . . . . 0.1(3) ?
C6 C5 C4 C3 . . . . 179.50(16) ?
C10 C5 C4 C3 . . . . -1.1(3) ?
C10 C9 C8 C7 . . . . 0.0(3) ?
C6 C7 C8 C9 . . . . 0.2(3) ?
O12 S11 O14 C15 . . . . -171.38(11) ?
O13 S11 O14 C15 . . . . -43.31(13) ?
C1 S11 O14 C15 . . . . 71.86(12) ?
S11 O14 C15 C20 . . . . 73.47(17) ?
S11 O14 C15 C16 . . . . -113.61(14) ?
C16 C15 C20 C19 . . . . -2.2(3) ?
O14 C15 C20 C19 . . . . 170.22(15) ?
C19 C18 C17 C16 . . . . -2.2(2) ?
C22 C18 C17 C16 . . . . 173.42(15) ?
C19 C18 C22 O23 . . . . -175.36(16) ?
C17 C18 C22 O23 . . . . 9.1(2) ?
C19 C18 C22 O24 . . . . 6.7(2) ?
C17 C18 C22 O24 . . . . -168.82(15) ?
C20 C15 C16 C17 . . . . 2.9(2) ?
O14 C15 C16 C17 . . . . -169.73(14) ?
C20 C15 C16 C21 . . . . 179.64(16) ?
O14 C15 C16 C21 . . . . 7.0(2) ?
C18 C17 C16 C15 . . . . -0.6(2) ?
C18 C17 C16 C21 . . . . -177.41(16) ?
C15 C20 C19 C18 . . . . -0.8(3) ?
C17 C18 C19 C20 . . . . 2.9(2) ?
C22 C18 C19 C20 . . . . -172.55(15) ?
