#------------------------------------------------------------------------------
#$Date: 2021-04-05 18:12:26 +0300 (Mon, 05 Apr 2021) $
#$Revision: 263816 $
#$URL: file:///home/coder/svn-repositories/cod/cif/7/06/04/7060422.cif $
#------------------------------------------------------------------------------
#
# This file is available in the Crystallography Open Database (COD),
# http://www.crystallography.net/
#
# All data on this site have been placed in the public domain by the
# contributors.
#
data_7060422
loop_
_publ_author_name
'Chen, Min'
'Geng, Chun-Wen'
'Han, Ling'
'Liu, Yu'
'Yu, Yong-Kai'
'Lu, Ai-Min'
'Yang, Chun-Long'
'Li, Guo-Hua'
_publ_section_title
;
 Design, synthesis, crystal structure, and herbicidal activity of novel
 pyrrolidine-2,4-dione derivatives incorporating an alkyl ether
 pharmacophore with natural tetramic acids as lead compounds
;
_journal_issue                   12
_journal_name_full               'New Journal of Chemistry'
_journal_page_first              5621
_journal_page_last               5630
_journal_paper_doi               10.1039/D1NJ00119A
_journal_volume                  45
_journal_year                    2021
_chemical_formula_moiety         '0.67(C14 Cl N O4)'
_chemical_formula_sum            'C11 H10 Cl0 N O'
_chemical_formula_weight         172.20
_space_group_crystal_system      triclinic
_space_group_IT_number           2
_space_group_name_Hall           '-P 1'
_space_group_name_H-M_alt        'P -1'
_atom_sites_solution_primary     dual
_audit_creation_date             2019-12-09
_audit_creation_method
;
Olex2 1.2
(compiled 2018.04.26 svn.r3504 for OlexSys, GUI svn.r5492)
;
_audit_update_record
;
2020-04-04 deposited with the CCDC.	2021-02-23 downloaded from the CCDC.
;
_cell_angle_alpha                68.650(5)
_cell_angle_beta                 76.418(6)
_cell_angle_gamma                81.653(6)
_cell_formula_units_Z            6
_cell_length_a                   8.0403(7)
_cell_length_b                   13.5577(9)
_cell_length_c                   14.0775(7)
_cell_measurement_reflns_used    4371
_cell_measurement_temperature    293(2)
_cell_measurement_theta_max      73.0210
_cell_measurement_theta_min      3.4040
_cell_volume                     1386.26(18)
_computing_cell_refinement       'CrysAlisPro 1.171.38.43f (Rigaku OD, 2015)'
_computing_data_collection       'CrysAlisPro 1.171.38.43f (Rigaku OD, 2015)'
_computing_data_reduction        'CrysAlisPro 1.171.38.43f (Rigaku OD, 2015)'
_computing_molecular_graphics    'Olex2 (Dolomanov et al., 2009)'
_computing_publication_material  'Olex2 (Dolomanov et al., 2009)'
_computing_structure_refinement  'ShelXL (Sheldrick, 2015)'
_computing_structure_solution    'ShelXT (Sheldrick, 2015)'
_diffrn_ambient_temperature      293(2)
_diffrn_detector                 'CCD plate'
_diffrn_detector_area_resol_mean 5.2684
_diffrn_detector_type            AtlasS2
_diffrn_measured_fraction_theta_full 0.998
_diffrn_measured_fraction_theta_max 0.963
_diffrn_measurement_details
;
List of Runs (angles in degrees, time in seconds):

  # Type    Start    End  Width  t~exp~   \w     \q     \k     \f   Frames
#--------------------------------------------------------------------------
  1  \w    -89.00  -7.00   1.00    1.00    --  -40.98 125.00 -90.00   82
  2  \w   -115.00 -16.00   1.00    1.00    --  -40.98 -38.00   0.00   99
  3  \w    -93.00 -20.00   1.00    1.00    --  -40.98 -57.00-150.00   73
  4  \w     52.00  78.00   1.00    1.00    --   40.98-125.00-180.00   26
  5  \w     91.00 118.00   1.00    1.00    --  106.95-125.00-120.00   27
  6  \w     48.00 130.00   1.00    1.00    --  106.95 -45.00 -90.00   82
  7  \w     89.00 178.00   1.00    1.00    --  106.95  30.00 -30.00   89
  8  \w    150.00 177.00   1.00    1.00    --  106.95 125.00-120.00   27
  9  \w    127.00 173.00   1.00    1.00    --  106.95 125.00 -60.00   46
 10  \w     95.00 150.00   1.00    1.00    --  106.95 125.00 -30.00   55
 11  \w     98.00 125.00   1.00    1.00    --  106.95 125.00-120.00   27
 12  \w     95.00 173.00   1.00    1.00    --  106.95 125.00   0.00   78
 13  \w    106.00 132.00   1.00    1.00    --  106.95 125.00 150.00   26
 14  \w     83.00 164.00   1.00    1.00    --  106.95  61.00  60.00   81
 15  \w     55.00 109.00   1.00    1.00    --  106.95 -95.00  30.00   54
 16  \w     43.00 129.00   1.00    1.00    --  106.95 -45.00  30.00   86
 17  \w     35.00 103.00   1.00    1.00    --  106.95 -95.00 -60.00   68
 18  \w   -111.00 -20.00   1.00    1.00    --  -40.98 -57.00 120.00   91
;
_diffrn_measurement_device       'four-circle diffractometer'
_diffrn_measurement_device_type  'SuperNova, Dual, Cu at zero, AtlasS2'
_diffrn_measurement_method       '\w scans'
_diffrn_orient_matrix_type
'CrysAlisPro convention (1999,Acta A55,543-557)'
_diffrn_orient_matrix_UB_11      -0.0585722000
_diffrn_orient_matrix_UB_12      0.1182465000
_diffrn_orient_matrix_UB_13      -0.0447364000
_diffrn_orient_matrix_UB_21      0.1857301000
_diffrn_orient_matrix_UB_22      0.0301122000
_diffrn_orient_matrix_UB_23      -0.0197645000
_diffrn_orient_matrix_UB_31      0.0331238000
_diffrn_orient_matrix_UB_32      -0.0078277000
_diffrn_orient_matrix_UB_33      -0.1094260000
_diffrn_radiation_monochromator  mirror
_diffrn_radiation_probe          x-ray
_diffrn_radiation_type           CuK\a
_diffrn_radiation_wavelength     1.54184
_diffrn_reflns_av_R_equivalents  0.0286
_diffrn_reflns_av_unetI/netI     0.0377
_diffrn_reflns_Laue_measured_fraction_full 0.998
_diffrn_reflns_Laue_measured_fraction_max 0.963
_diffrn_reflns_limit_h_max       9
_diffrn_reflns_limit_h_min       -9
_diffrn_reflns_limit_k_max       15
_diffrn_reflns_limit_k_min       -16
_diffrn_reflns_limit_l_max       12
_diffrn_reflns_limit_l_min       -17
_diffrn_reflns_number            9377
_diffrn_reflns_point_group_measured_fraction_full 0.998
_diffrn_reflns_point_group_measured_fraction_max 0.963
_diffrn_reflns_theta_full        67.684
_diffrn_reflns_theta_max         73.813
_diffrn_reflns_theta_min         3.439
_diffrn_source                   'micro-focus sealed X-ray tube'
_diffrn_source_type              'SuperNova (Cu) X-ray Source'
_exptl_absorpt_coefficient_mu    0.637
_exptl_absorpt_correction_T_max  1.00000
_exptl_absorpt_correction_T_min  0.59634
_exptl_absorpt_correction_type   multi-scan
_exptl_absorpt_process_details
;
CrysAlisPro 1.171.38.43f (Rigaku Oxford Diffraction, 2015)
Empirical absorption correction using spherical harmonics,
 implemented in SCALE3 ABSPACK scaling algorithm.
;
_exptl_crystal_colour            colourless
_exptl_crystal_colour_primary    colourless
_exptl_crystal_density_diffrn    1.238
_exptl_crystal_description       block
_exptl_crystal_F_000             546
_exptl_crystal_size_max          0.13
_exptl_crystal_size_mid          0.11
_exptl_crystal_size_min          0.1
_refine_diff_density_max         0.539
_refine_diff_density_min         -0.303
_refine_diff_density_rms         0.083
_refine_ls_extinction_coef       0.0020(8)
_refine_ls_extinction_expression Fc^*^=kFc[1+0.001xFc^2^\l^3^/sin(2\q)]^-1/4^
_refine_ls_extinction_method     'SHELXL-2018/3 (Sheldrick 2018)'
_refine_ls_goodness_of_fit_ref   1.039
_refine_ls_hydrogen_treatment    undef
_refine_ls_matrix_type           full
_refine_ls_number_parameters     362
_refine_ls_number_reflns         5385
_refine_ls_number_restraints     0
_refine_ls_restrained_S_all      1.039
_refine_ls_R_factor_all          0.0869
_refine_ls_R_factor_gt           0.0770
_refine_ls_shift/su_max          0.000
_refine_ls_shift/su_mean         0.000
_refine_ls_structure_factor_coef Fsqd
_refine_ls_weighting_details
'w=1/[\s^2^(Fo^2^)+(0.1771P)^2^+0.4655P] where P=(Fo^2^+2Fc^2^)/3'
_refine_ls_weighting_scheme      calc
_refine_ls_wR_factor_gt          0.2478
_refine_ls_wR_factor_ref         0.2684
_reflns_Friedel_coverage         0.000
_reflns_number_gt                4286
_reflns_number_total             5385
_reflns_threshold_expression     'I > 2\s(I)'
_cod_data_source_file            d1nj00119a2.cif
_cod_data_source_block           nl1209-2
_cod_depositor_comments          'Adding full bibliography for 7060422.cif.'
_cod_database_code               7060422
_shelx_shelxl_version_number     2018/3
_shelx_space_group_comment
;
The symmetry employed for this shelxl refinement is uniquely defined
by the following loop, which should always be used as a source of
symmetry information in preference to the above space-group names.
They are only intended as comments.
;
_reflns_odcompleteness_completeness 99.88
_reflns_odcompleteness_iscentric 1
_reflns_odcompleteness_theta     66.97
_olex2_refinement_description
;
;
_shelx_res_file
;
TITL nl1209-2_a.res in P-1
    nl1209-2.res
    created by SHELXL-2018/3 at 17:32:28 on 09-Dec-2019
REM Old TITL NL1209-2 in P-1
REM SHELXT solution in P-1: R1 0.200, Rweak 0.018, Alpha 0.041
REM <I/s> 0.000 for 0 systematic absences, Orientation as input
REM Formula found by SHELXT: C28 N2 O8 Cl2
CELL 1.54184 8.0403 13.5577 14.0775 68.65 76.418 81.653
ZERR 6 0.0007 0.0009 0.0007 0.005 0.006 0.006
LATT 1
SFAC C H N O Cl
UNIT 66 60 6 6 0

L.S. 10
PLAN  20
BOND
list 4
fmap 2
ACTA
REM <olex2.extras>
REM <HklSrc "%.\\NL1209-2.hkl">
REM </olex2.extras>

WGHT    0.177100    0.465500
EXTI    0.002029
FVAR       5.82992
CL01  5    0.209043    0.397911    0.925889    11.00000    0.11021    0.07506 =
         0.05060   -0.02117   -0.01199   -0.01458
CL02  5    0.367291    0.169498    0.098910    11.00000    0.11698    0.09047 =
         0.05466   -0.02168   -0.02879   -0.00365
O003  4    0.310568    0.374112    0.727912    11.00000    0.08762    0.04765 =
         0.04792   -0.01667   -0.01195    0.00433
O004  4    0.396236    0.191101    0.287161    11.00000    0.08183    0.05611 =
         0.04788   -0.01469   -0.01485   -0.01317
O005  4    0.330029    0.089954    0.622630    11.00000    0.08933    0.07301 =
         0.05017   -0.02157   -0.01368   -0.00135
O006  4    0.316906    0.472794    0.402674    11.00000    0.10597    0.08008 =
         0.05267   -0.02749   -0.02328   -0.00156
O007  4    0.128431    0.649343    0.347266    11.00000    0.11384    0.07187 =
         0.06142   -0.03387   -0.00912   -0.00926
O008  4    0.199816   -0.092838    0.707500    11.00000    0.09924    0.06934 =
         0.07391   -0.03513   -0.03543    0.00769
O009  4    0.288147    0.593053    0.047857    11.00000    0.11453    0.07362 =
         0.04742   -0.01342   -0.01334   -0.00030
N00A  3    0.424565    0.407035    0.270487    11.00000    0.06947    0.05588 =
         0.05320   -0.01885   -0.01429   -0.00599
N00B  3    0.383007    0.155975    0.740724    11.00000    0.07861    0.04838 =
         0.05052   -0.01539   -0.01055    0.00027
O00C  4    0.232850   -0.028130    0.988491    11.00000    0.15778    0.07572 =
         0.04751   -0.01334   -0.01605   -0.02559
C00D  1    0.211927    0.466745    0.719611    11.00000    0.06451    0.04452 =
         0.05243   -0.01726   -0.00970   -0.00473
C00E  1    0.266194    0.565069    0.229993    11.00000    0.06610    0.05091 =
         0.04686   -0.01471   -0.00769   -0.01201
C00F  1    0.336968    0.479163    0.309779    11.00000    0.06922    0.05885 =
         0.05138   -0.02053   -0.01224   -0.01224
C00G  1    0.324971    0.084275    0.712674    11.00000    0.06652    0.04705 =
         0.04837   -0.01601   -0.01297    0.00724
C00H  1    0.368372    0.347750    0.634521    11.00000    0.08346    0.04953 =
         0.04896   -0.01832   -0.00301    0.00025
C00I  1    0.165448    0.646426    0.250827    11.00000    0.07411    0.05213 =
         0.05890   -0.01889   -0.00968   -0.01621
C00J  1    0.154617    0.488503    0.812887    11.00000    0.06456    0.05249 =
         0.05612   -0.02199   -0.00351   -0.01176
C00K  1    0.314620    0.102145    0.307927    11.00000    0.05796    0.04820 =
         0.05872   -0.02089   -0.01441    0.00559
C00L  1    0.254569   -0.001303    0.806431    11.00000    0.07327    0.04739 =
         0.05095   -0.01686   -0.01817    0.00460
C00M  1    0.319321    0.541589    0.133925    11.00000    0.07369    0.05591 =
         0.04652   -0.01464   -0.00593   -0.01307
C00N  1    0.168289    0.537043    0.628582    11.00000    0.07577    0.05010 =
         0.06153   -0.01515   -0.01714   -0.00203
C00O  1    0.422517    0.435427    0.158865    11.00000    0.07799    0.05955 =
         0.04636   -0.01599   -0.00498   -0.00584
C00P  1    0.478329    0.244949    0.664917    11.00000    0.07062    0.04900 =
         0.07124   -0.01709   -0.00027   -0.00361
C00Q  1    0.275605    0.022678    0.895265    11.00000    0.09145    0.05542 =
         0.05027   -0.01782   -0.01644    0.00018
C00R  1    0.293218    0.081842    0.222181    11.00000    0.06759    0.05614 =
         0.06423   -0.02204   -0.02350    0.00891
C00S  1    0.055760    0.580957    0.813199    11.00000    0.06972    0.06481 =
         0.08729   -0.03883    0.00460   -0.01266
C00T  1    0.419911    0.215398    0.374612    11.00000    0.07582    0.05841 =
         0.04956   -0.01796   -0.01621   -0.00658
C00U  1    0.365052    0.125594    0.852680    11.00000    0.09532    0.05591 =
         0.05432   -0.02029   -0.01551   -0.00456
C00V  1    0.067316    0.630345    0.629647    11.00000    0.06917    0.05437 =
         0.08892   -0.01844   -0.01779   -0.00173
C00W  1    0.196570   -0.086904    0.799588    11.00000    0.07395    0.05038 =
         0.06696   -0.01647   -0.02609    0.00577
C00X  1    0.255463    0.032855    0.406921    11.00000    0.07594    0.05080 =
         0.06091   -0.01449   -0.00739   -0.00175
C00Y  1    0.520928    0.314156    0.328227    11.00000    0.07221    0.05700 =
         0.07111   -0.01709   -0.02526   -0.00456
C00Z  1    0.211047   -0.007557    0.233847    11.00000    0.07464    0.06646 =
         0.10128   -0.04490   -0.03571    0.01201
C010  1    0.170625   -0.056641    0.420073    11.00000    0.07321    0.05511 =
         0.09447   -0.02311   -0.00828   -0.00053
C011  1    0.013753    0.651201    0.721366    11.00000    0.06790    0.05684 =
         0.10896   -0.03165   -0.01156   -0.00247
C012  1    0.150662   -0.075250    0.332189    11.00000    0.07248    0.05680 =
         0.10867   -0.03602   -0.01928    0.00045
C013  1    0.088465    0.737187    0.174184    11.00000    0.10021    0.05693 =
         0.07257   -0.01340   -0.01929   -0.00018
C014  1    0.126618   -0.178644    0.890917    11.00000    0.12487    0.05984 =
         0.08470   -0.00695   -0.03574   -0.02277
HKLF 4




REM  nl1209-2_a.res in P-1
REM wR2 = 0.2684, GooF = S = 1.039, Restrained GooF = 1.039 for all data
REM R1 = 0.0770 for 4286 Fo > 4sig(Fo) and 0.0869 for all 5385 data
REM 362 parameters refined using 0 restraints

END

WGHT      0.1767      0.4651

REM Highest difference peak  0.539,  deepest hole -0.303,  1-sigma level  0.083
Q1    1   0.3001  0.1824  0.8819  11.00000  0.05    0.54
Q2    1   0.5279  0.2230  0.6013  11.00000  0.05    0.53
Q3    1   0.2628  0.3399  0.6115  11.00000  0.05    0.51
Q4    1   0.2089  0.5220  0.5630  11.00000  0.05    0.51
Q5    1   0.5465  0.4336  0.1181  11.00000  0.05    0.50
Q6    1   0.0164  0.5881  0.8835  11.00000  0.05    0.49
Q7    1   0.3094  0.2287  0.4197  11.00000  0.05    0.48
Q8    1   0.4796  0.1586  0.4201  11.00000  0.05    0.47
Q9    1   0.2687  0.0528  0.4648  11.00000  0.05    0.47
Q10   1   0.5718  0.2513  0.6919  11.00000  0.05    0.45
Q11   1   0.0813  0.7181  0.1229  11.00000  0.05    0.45
Q12   1   0.1917 -0.0162  0.1802  11.00000  0.05    0.43
Q13   1   0.1338 -0.1043  0.4962  11.00000  0.05    0.43
Q14   1  -0.0633  0.7177  0.7180  11.00000  0.05    0.43
Q15   1   0.5463  0.3321  0.3807  11.00000  0.05    0.43
Q16   1   0.4916  0.1170  0.8656  11.00000  0.05    0.42
Q17   1   0.0250  0.6769  0.5614  11.00000  0.05    0.41
Q18   1   0.6306  0.3003  0.2806  11.00000  0.05    0.41
Q19   1   0.3737  0.3798  0.1485  11.00000  0.05    0.40
Q20   1   0.4321  0.4059  0.5890  11.00000  0.05    0.40
;
_shelx_res_checksum              99237
_shelx_hkl_file
;
   0   0   1 10663.8 263.810   2
   0   0  -1 11507.1 276.307   1
   0   0  -1 10949.0 272.253   4
   0   0  -2 574859. 12485.4   4
   0   0   2 572732. 12471.2   2
   0   0  -2 577296. 12491.1   1
   0   0   3 151717. 3410.83   2
   0   0  -3 155048. 3440.35   1
   0   0   3 152951. 3353.25  18
   0   0  -3 157804. 3431.88   4
   0   0   4 81389.8 1868.58   2
   0   0  -4 83822.6 1899.06   4
   0   0   4 79922.3 1789.32  18
   0   0  -4 81597.5 1909.05   1
   0   0   5 23055.8 545.988  18
   0   0   5 23905.7 643.582   2
   0   0  -5 24432.9 695.442   1
   0   0   6 39944.1 1040.88   2
   0   0  -6 40597.2 1114.21   1
   0   0  -7 71.7807 33.8361   1
   0   0   7 66.7944 25.7922   2
   0   0   8 1185.87 122.166   2
   0   0  -8 1237.18 148.418   1
   0   0  -9 9996.91 497.370   1
   0   0  -9 11821.8 545.229  17
   0   0 -10 8753.69 459.730   8
   0   0 -10 7812.22 450.819   1
   0   0 -10 9716.30 478.960   5
   0   0 -10 8598.86 480.296  17
   0   0 -11 10948.0 666.039  15
   0   0 -11 11185.8 573.925  17
   0   0 -12 79.0886 51.3473  15
   0   0 -12-6.56751 20.9342  17
   0   0 -13 37.4743 24.9020  15
   0   0 -13 71.4219 41.7809  17
   0   0 -14 435.847 107.820  15
   0   0 -15 34.9029 13.1771  15
   0   1 -15 576.917 90.7097  15
   0   1 -14-15.0431 26.8208  15
   0   1 -13 46.6415 30.9059  15
   0   1 -13 167.653 62.2478  17
   0   1 -12 129.396 65.2517  15
   0   1 -12 127.673 51.8156  17
   0   1 -11 12493.4 591.305  17
   0   1 -10 23433.8 881.963  17
   0   1  -9 1967.34 201.031   1
   0   1  -9 2072.99 212.050  17
   0   1  -9 2515.06 222.697   5
   0  -1   8 1463.28 143.635   2
   0   1  -8 1263.98 150.828   1
   0   1  -7 972.609 123.110   1
   0  -1   7 861.255 102.472   2
   0  -1   6 9662.63 379.623   2
   0   1  -6 9716.85 407.134   1
   0  -1   5 51.3052 21.2890   2
   0   1  -5 16.3243 19.5367   1
   0  -1   4 5795.06 234.706   2
   0   1  -4 5697.24 244.346   1
   0   1  -3 1889.04 113.359   1
   0  -1   3 1917.20 109.436   2
   0   1  -2 7208.14 224.202   1
   0  -1   2 6761.99 225.683   2
   0   1  -1 166.479 19.1342   1
   0  -1   1 142.287 20.5173   2
   0   1   0 5968.68 164.861   3
   0  -1   0 6009.52 166.511   2
   0   1   1 301.495 20.3206   3
   0  -1  -1 329.103 21.5662   2
   0  -1  -1 308.460 23.5890   1
   0  -1  -2 948.335 60.8173   1
   0  -1  -3 7057.40 244.880   1
   0   1   4 2298.64 108.574   2
   0  -1  -4 2404.34 140.043   1
   0  -1  -4 2361.36 139.402   4
   0   1   5 2337.84 122.879   2
   0  -1  -5 2281.63 153.211   1
   0   1   5 2277.04 104.754  18
   0  -1  -5 2339.22 153.059   4
   0   1   6 46998.8 1099.67  18
   0  -1  -6 47346.0 1242.43   4
   0   1   6 45409.8 1150.59   2
   0  -1  -6 47588.9 1247.86   1
   0  -1  -7 20810.6 700.064   1
   0   1   7 21183.4 617.913   2
   0  -1  -8 4927.84 299.478   1
   0  -1  -9 64349.2 1761.58   1
   0  -1 -10 10101.4 580.564  15
   0  -1 -10 10439.9 525.117   8
   0  -1 -10 10653.0 540.572  17
   0  -1 -10 10328.2 501.273   5
   0  -1 -10 9202.00 488.309   1
   0  -1 -11 13913.0 642.195   1
   0  -1 -11 14320.6 744.286  15
   0  -1 -11 15072.3 667.961   8
   0  -1 -11 15663.5 658.490   5
   0  -1 -11 14956.4 680.444  17
   0  -1 -12 4269.20 332.244  17
   0  -1 -12 4167.10 314.402   5
   0  -1 -12 3647.40 354.255  15
   0  -1 -13 1151.23 158.879  17
   0  -1 -13 1160.70 185.302  15
   0  -1 -14 3634.06 313.971  15
   0  -1 -14 3762.61 273.295  17
   0  -1 -15 718.813 115.886  15
   0  -1 -16 27.7656 23.3553  15
   0   2 -15 997.229 106.615  15
   0   2 -14 522.344 103.228  15
   0   2 -13 28.5163 36.6887  15
   0   2 -12 49.2768 43.3852  17
   0   2 -12 1.48995 36.6404  15
   0   2 -11 1055.04 150.683   6
   0   2 -11 971.890 142.967  17
   0   2 -10 1121.30 161.213   6
   0   2 -10 950.357 143.688  17
   0   2  -9 15527.3 662.446  17
   0   2  -9 16592.2 682.462   6
   0  -2   8 22168.0 761.247   2
   0   2  -8 21453.0 775.083   1
   0   2  -7 173.260 53.0654   1
   0  -2   7 131.304 42.6597   2
   0  -2   6 39.1940 26.9105   2
   0   2  -6-2.15823 22.7905   1
   0  -2   5 189953. 4276.56   2
   0   2  -5 184021. 4274.84   1
   0  -2   4 148987. 3461.46   2
   0   2  -4 153399. 3459.24   1
   0   2  -3 6936.51 258.931   1
   0  -2   3 6755.58 266.801   2
   0   2  -2 72160.6 1637.67   1
   0  -2   2 69595.9 1662.30   2
   0   2  -1 63982.7 1492.14   3
   0  -2   1 64712.8 1494.49   2
   0  -2   0 280202. 6103.96   2
   0   2   0 277580. 6102.80   3
   0   2   1 32319.6 761.073   3
   0  -2  -1 33492.3 773.996   2
   0   2   2 149426. 3268.46   3
   0  -2  -2 147893. 3287.68   1
   0  -2  -3 46163.0 1106.79   1
   0  -2  -4 57982.2 1411.83   4
   0  -2  -4 57101.1 1386.39   1
   0  -2  -5 75.5059 28.8917   4
   0  -2  -5 112.811 33.0154   1
   0  -2  -6 5511.93 270.333   1
   0  -2  -6 5475.98 280.641   4
   0   2   6 5754.93 217.139   2
   0  -2  -7 7040.11 341.872   1
   0   2   7 7837.32 281.756   2
   0  -2  -7 7168.83 358.223   4
   0   2   7 7844.20 277.230  18
   0  -2  -8 13562.4 542.490   1
   0  -2  -9 3461.69 259.560   1
   0  -2 -10 6593.88 421.043   8
   0  -2 -10 6345.37 432.638  15
   0  -2 -10 6789.97 394.455   1
   0  -2 -10 6652.59 391.173   5
   0  -2 -10 6450.74 410.373  17
   0  -2 -11 2745.36 269.009  17
   0  -2 -11 2663.36 242.037   5
   0  -2 -11 2651.40 266.601   8
   0  -2 -11 2684.12 251.926   1
   0  -2 -11 2515.25 274.355  15
   0  -2 -12 817.764 146.481  17
   0  -2 -12 918.063 140.852   5
   0  -2 -12 796.520 156.481  15
   0  -2 -12 806.538 146.837   8
   0  -2 -13 1415.00 176.040   5
   0  -2 -13 1450.98 183.838  17
   0  -2 -13 1270.98 192.727  15
   0  -2 -14 29.1197 25.8428  17
   0  -2 -14 74.9818 58.2735  15
   0  -2 -15-36.5101 40.0774  15
   0  -2 -16 338.172 61.9669  15
   0   3 -14 281.904 67.4586  15
   0   3 -13 425.094 109.667  15
   0   3 -12 1918.74 195.154   6
   0   3 -12 1125.44 196.898  15
   0   3 -11 1383.99 179.478   6
   0   3 -11 1477.24 169.609  17
   0   3 -10 261.098 74.5089   6
   0   3 -10 172.710 60.5047  17
   0   3  -9 58.8120 27.1558  17
   0   3  -9 163.722 64.8950   6
   0   3  -9 237.273 134.095  13
   0   3  -8 319.601 82.9886   6
   0   3  -8 171.043 48.0404  17
   0  -3   8 248.668 66.7133   2
   0   3  -8 128.638 83.8238  13
   0  -3   7 285.366 69.7099   2
   0   3  -6 1834.11 163.219   1
   0  -3   6 1905.34 170.380   2
   0   3  -5 764.210 93.7691   1
   0  -3   5 697.390 95.8421   2
   0   3  -4 5964.69 269.754   1
   0  -3   4 6026.67 286.293   2
   0   3  -3 4043.37 192.816   1
   0  -3   3 3840.95 206.594   2
   0  -3   2 316.774 49.7652   2
   0   3  -2 286.283 40.8865   1
   0   3  -1 16983.7 514.748   3
   0  -3   1 19134.6 522.532   2
   0  -3   0 1183.19 84.7313   2
   0   3   0 1138.57 80.7521   3
   0   3   1 5604.25 196.396   3
   0  -3  -1 5536.74 201.496   2
   0   3   2 6243.31 200.673   3
   0  -3  -2 6788.69 221.412   2
   0   3   3 245061. 5436.13   3
   0  -3  -3 252271. 5469.02   1
   0  -3  -4 232544. 4974.61   1
   0  -3  -4 234677. 5022.43   4
   0  -3  -5 148192. 3296.73   4
   0   3   5 137294. 3154.39   3
   0  -3  -5 142817. 3238.87   1
   0  -3  -6 11084.0 409.244   1
   0  -3  -6 11345.1 447.143   4
   0   3   6 10444.9 336.852   3
   0   3   7 75433.3 1777.03   3
   0  -3  -7 74499.5 1951.44   4
   0  -3  -7 77727.1 1907.33   1
   0  -3  -8 2551.72 201.534   1
   0  -3  -8 2656.60 225.896   4
   0  -3  -9 5408.35 326.520   1
   0  -3 -10 29884.8 1084.73  15
   0  -3 -10 31576.4 1131.94   8
   0  -3 -10 33244.0 1114.28   9
   0  -3 -10 32630.2 1071.14  12
   0  -3 -10 30420.5 1068.74  17
   0  -3 -10 31032.5 1028.33   1
   0  -3 -11 2979.08 293.255   8
   0  -3 -11 2580.20 257.054  17
   0  -3 -11 2384.37 254.926  15
   0  -3 -11 2641.47 242.812   5
   0  -3 -12 549.746 114.400  17
   0  -3 -12 287.076 86.7656   8
   0  -3 -12 335.623 85.5444   5
   0  -3 -12 469.158 111.396  15
   0  -3 -13 4098.70 341.238  15
   0  -3 -13 4255.89 314.362   5
   0  -3 -13 4286.61 326.895  17
   0  -3 -13 4371.22 349.918   8
   0  -3 -14 1066.24 151.359  17
   0  -3 -14 858.971 142.907  15
   0  -3 -14 917.267 132.790   5
   0  -3 -15 1879.65 190.048  15
   0  -3 -16 555.277 80.9910  15
   0   4 -14 1836.18 149.000  15
   0   4 -13 600.242 114.351  15
   0   4 -12 1828.21 239.147  15
   0   4 -12 2713.48 227.209   6
   0   4 -11 5026.57 347.143   6
   0   4 -10 9719.67 465.883  17
   0   4 -10 9741.11 521.749   6
   0   4  -9 3712.94 310.448   6
   0   4  -9 3981.29 280.656  17
   0   4  -9 3394.37 443.027  13
   0   4  -8 30.4343 24.1619  17
   0   4  -8 23.3600 27.3323  13
   0   4  -8 76.4874 38.5979   6
   0  -4   8 37.0475 21.4408   2
   0   4  -7 25618.0 1213.11  13
   0   4  -7 26514.1 910.952   6
   0  -4   7 23717.9 874.282   2
   0  -4   6 35167.6 1088.87   2
   0  -4   5 136419. 3274.56   2
   0   4  -5 136236. 3207.34   1
   0  -4   4 789.589 103.146   2
   0   4  -4 688.477 85.6994   1
   0   4  -3 102587. 2422.81   1
   0  -4   3 105515. 2487.98   2
   0   4  -2 40780.9 1032.81   1
   0  -4   2 42131.5 1093.71   2
   0   4  -1 43546.9 1132.12   3
   0  -4   1 44574.8 1130.58   2
   0   4   0 99768.1 2275.01   3
   0  -4   0 95561.7 2274.61   2
   0   4   1 7823.06 273.857   3
   0  -4  -1 7472.93 278.087   2
   0   4   2 213.377 33.7697   3
   0  -4  -2 323.453 45.6731   2
   0  -4  -3 6625.64 238.615   2
   0   4   3 5891.43 212.605   3
   0   4   4 4057.23 160.286   3
   0  -4  -5 3401.62 182.362   1
   0   4   5 3331.31 148.558   3
   0  -4  -5 3298.93 211.974   4
   0  -4  -6 11872.3 490.788   4
   0  -4  -6 12296.8 438.744   1
   0   4   6 12170.8 370.564   3
   0  -4  -7 6211.98 300.461   1
   0   4   7 5878.32 229.725   3
   0  -4  -7 5581.63 330.630   4
   0   4   8 1965.75 153.428  18
   0  -4  -8 1715.23 187.601   4
   0  -4  -8 2001.47 171.741   1
   0  -4  -9 11142.4 555.634   4
   0  -4  -9 10792.6 482.990   1
   0  -4 -10 466.284 102.066  17
   0  -4 -10 488.674 102.985  12
   0  -4 -10 382.474 95.7771   9
   0  -4 -10 698.474 131.318  15
   0  -4 -10 392.012 102.963   8
   0  -4 -11 188.785 57.4306  15
   0  -4 -11 74.8283 40.7692   8
   0  -4 -11 232.028 82.0257   9
   0  -4 -11 164.606 61.5738  17
   0  -4 -12 7162.51 434.045   5
   0  -4 -12 7967.89 518.061   8
   0  -4 -12 7276.39 448.244  17
   0  -4 -12 7776.47 462.781  15
   0  -4 -13 239.073 73.1186   5
   0  -4 -13 300.545 92.1448   8
   0  -4 -13 302.941 83.9322  17
   0  -4 -13 259.183 78.8519  15
   0  -4 -14 110.063 40.3336   5
   0  -4 -14 74.7524 33.1578  15
   0  -4 -14 196.925 59.0630  17
   0  -4 -15 78.9734 34.9102  15
   0  -4 -16 798.199 98.3301  15
   0   5 -13 57.7583 30.6370  15
   0   5 -12 192.811 73.6414  15
   0   5 -12 234.200 60.9470   6
   0   5 -11 602.079 109.324   6
   0   5 -10 873.196 145.485   6
   0   5  -9 1503.49 190.715   6
   0   5  -9 1106.71 248.555  13
   0   5  -8 4058.23 484.228  13
   0   5  -8 5199.09 309.877  17
   0  -5   8 4375.71 342.373   2
   0   5  -8 4896.99 356.343   6
   0  -5   7 2581.84 245.287   2
   0   5  -7 2837.65 215.618  17
   0   5  -7 2196.99 345.500  13
   0   5  -7 2545.93 242.044   6
   0   5  -6 4086.73 436.908  13
   0  -5   6 5041.14 337.672   2
   0   5  -6 5125.94 336.692   6
   0  -5   5 3992.08 283.775   2
   0  -5   4 2191.27 192.119   2
   0   5  -3 12821.6 438.401   1
   0  -5   3 12817.0 499.318   2
   0  -5   2 8.11631 22.3964   2
   0   5  -2-0.24097 13.0062   1
   0   5  -1 124485. 2953.71   3
   0  -5   1 127594. 2963.64   2
   0   5   0 49246.4 1239.48   3
   0  -5   0 46698.8 1234.15   2
   0  -5  -1 135911. 3141.43   2
   0   5   1 136822. 3125.62   3
   0   5   2 133608. 2795.12   3
   0  -5  -2 108530. 2800.77   2
   0  -5  -3 589.415 70.4967   2
   0   5   3 516.045 60.3971   3
   0   5   4 22874.3 621.379   3
   0   5   5 7626.53 266.146   3
   0  -5  -5 6722.62 337.575   4
   0   5   6 162133. 3533.36   3
   0  -5  -6 144360. 3725.22   4
   0   5   7 13101.4 403.627   3
   0  -5  -7 12171.1 546.595   4
   0  -5  -8 2656.63 242.956   4
   0   5   9 14949.8 556.509  18
   0  -5  -9 14481.8 674.996   4
   0  -5 -10 312.963 81.1503  15
   0  -5 -10 222.590 71.9953  12
   0  -5 -10 218.578 81.5622   8
   0  -5 -10 359.697 96.7683   9
   0  -5 -11 20961.4 832.116  12
   0  -5 -11 20451.0 862.982   9
   0  -5 -11 22042.2 818.783  17
   0  -5 -11 20063.2 789.982  15
   0  -5 -12 5027.92 364.110   5
   0  -5 -12 5475.41 438.041   8
   0  -5 -12 5839.17 378.696  15
   0  -5 -12 6390.18 392.126  17
   0  -5 -12 6432.18 441.733   9
   0  -5 -13 115.212 41.5628  17
   0  -5 -13 48.6723 40.2762   5
   0  -5 -13 145.409 78.7129   8
   0  -5 -13 92.0399 44.1122  15
   0  -5 -14 448.052 94.9136  15
   0  -5 -14 795.852 119.635  17
   0  -5 -14 571.807 104.480   5
   0  -5 -15 16.9955 31.5501   5
   0  -5 -15 3.13750 24.6935  15
   0  -5 -16 1192.17 118.858  15
   0   6 -12 385.675 69.2078   6
   0   6 -12 423.960 87.5639  15
   0   6 -11 3692.29 263.888   6
   0   6 -10 2002.25 213.276   6
   0   6  -9 9021.95 721.768  13
   0   6  -9 9665.80 515.627   6
   0   6  -8 9380.93 755.866  13
   0   6  -8 10403.5 543.284   6
   0   6  -7 119.147 50.3698   6
   0  -6   7 150.639 54.7476   2
   0   6  -7 259.529 125.556  13
   0   6  -6 2151.83 222.690   6
   0  -6   6 2530.33 248.585   2
   0   6  -6 1904.87 313.674  13
   0   6  -5 4639.26 317.351   6
   0  -6   5 4437.11 322.441   2
   0  -6   4 15219.2 628.002   2
   0  -6   3 5004.99 308.992   2
   0  -6   2 7601.56 371.701   2
   0  -6   1 1021.56 118.681   2
   0   6   0 325.238 60.5046   3
   0  -6   0 308.228 59.6485   2
   0  -6  -1 1351.53 128.483   2
   0   6   1 1255.43 117.743   3
   0   6   2 5528.72 254.772   3
   0  -6  -2 5380.66 273.099   2
   0  -6  -3 3600.07 215.425   2
   0   6   3 3491.87 190.672   3
   0   6   4 3602.43 190.773   3
   0   6   5 25.3736 14.7358   3
   0  -6  -5 32.0276 12.8121   4
   0  -6  -6 480.678 89.7682   4
   0   6   6 490.102 64.3257   3
   0  -6  -7 4649.04 327.127   4
   0   6   7 6015.81 253.011   3
   0  -6  -8 5450.68 369.275   4
   0  -6  -9 1242.74 184.365   4
   0   6   9 1281.67 147.395  18
   0  -6 -10 1500.25 171.762  15
   0  -6 -10 1889.66 232.149   9
   0  -6 -10 1540.94 216.906   8
   0  -6 -10 1672.93 201.509  12
   0  -6 -11 262.604 71.7327  15
   0  -6 -11 176.123 75.9602   9
   0  -6 -11 187.599 71.8118  12
   0  -6 -11 166.743 83.0016   8
   0  -6 -12 90.2844 50.2834   9
   0  -6 -12 8.13127 36.6070   8
   0  -6 -12 24.7351 14.5181  15
   0  -6 -13 1757.16 236.821   8
   0  -6 -13 1848.91 193.622  15
   0  -6 -13 1911.41 235.686   9
   0  -6 -13 1527.97 190.895   5
   0  -6 -14 3965.27 298.768   5
   0  -6 -14 4410.61 292.711  15
   0  -6 -15 812.604 118.102   5
   0  -6 -15 623.549 96.4629  15
   0  -6 -16 198.976 46.4217  15
   0   7 -12 161.857 43.3015  15
   0   7 -11 371.313 74.8793   6
   0   7 -10 1002.66 140.374   6
   0   7  -9 402.314 136.214  13
   0   7  -9 291.464 79.9679   6
   0   7  -8 409.430 98.0856   6
   0   7  -8 285.566 104.177  13
   0   7  -7 29.7308 21.5444   6
   0   7  -7 230.876 106.350  13
   0   7  -6-19.2182 66.8964  13
   0  -7   6 85.4595 59.9392   2
   0   7  -6 56.5752 40.5774   6
   0   7  -5 51.6033 48.3583   6
   0  -7   5 159.823 68.7923   2
   0   7  -4 17791.8 706.885   6
   0  -7   4 18494.3 752.058   2
   0  -7   3 1843.41 195.388   2
   0  -7   2 11809.6 525.478   2
   0  -7   1 116917. 2873.19   2
   0  -7   0 10006.3 440.779   2
   0   7   0 9376.85 418.642   3
   0   7   1 30767.5 907.298   3
   0  -7  -1 29639.0 924.682   2
   0   7   2 10634.2 421.016   3
   0  -7  -2 10434.3 445.463   2
   0  -7  -3 288601. 6826.05   2
   0   7   3 312844. 6772.96   3
   0  -7  -4 16133.7 553.615   4
   0   7   4 15116.1 515.937   3
   0  -7  -5 189.879 53.5239   4
   0   7   5 92.4986 30.0185   3
   0   7   6 5048.48 255.674   3
   0  -7  -6 5184.88 329.440   4
   0  -7  -7 528.470 105.685   4
   0   7   7 494.031 70.0117   3
   0  -7  -8 214.759 69.1000   4
   0  -7  -9 13761.3 695.539   9
   0  -7  -9 12423.5 604.682  12
   0  -7  -9 14609.2 579.078  15
   0  -7  -9 13438.2 671.970  10
   0  -7  -9 13894.5 662.135   8
   0  -7  -9 10869.3 616.478   4
   0   7   9 11432.1 543.834  18
   0  -7 -10 947.778 172.804   9
   0  -7 -10 826.990 126.994  15
   0  -7 -10 772.471 138.037  12
   0   7  10 983.684 138.948  18
   0  -7 -10 979.774 168.751   8
   0  -7 -11 101.632 52.1266   8
   0  -7 -11 215.166 85.2912   9
   0  -7 -11 136.753 55.5514  15
   0  -7 -11 16.5911 19.0707  12
   0  -7 -12 7201.18 404.424  15
   0  -7 -12 7153.89 490.013   9
   0  -7 -12 7325.91 463.074  12
   0  -7 -12 7612.24 519.857   8
   0  -7 -13 1273.12 202.141   8
   0  -7 -13 1176.48 187.544   9
   0  -7 -13 1195.97 150.799  15
   0  -7 -14 3028.95 229.542  15
   0  -7 -14 2666.17 243.302   5
   0  -7 -15 346.814 78.8180   5
   0  -7 -15 393.732 73.6055  15
   0  -7 -16 702.660 94.5602   5
   0   8 -11 344.420 69.2501  15
   0   8 -11 327.808 57.5598   6
   0   8 -10 13.2795 14.8299   6
   0   8  -9 82.1757 38.5678   6
   0   8  -9 51.6488 35.0093  13
   0   8  -8 103.682 50.7646   6
   0   8  -8 12.8702 64.8430  13
   0   8  -7 1396.54 261.050  13
   0   8  -7 1371.78 182.957   6
   0   8  -6 93.5446 65.0611  13
   0   8  -6 174.557 65.7067   6
   0  -8   5 1005.39 172.078   2
   0   8  -5 984.088 155.753   6
   0   8  -4 79.4354 33.6938   6
   0  -8   4 35.5061 37.4853   2
   0  -8   3 62.3003 29.7769   7
   0   8  -3 34.7498 25.1020   6
   0  -8   3 30.4204 27.3432   2
   0  -8   2 1128.19 157.384   2
   0  -8   1 219.807 64.7573   2
   0  -8   0 41.5115 12.8195   2
   0  -8  -1 919.389 129.091   2
   0   8   1 892.045 121.540   3
   0   8   2 161.433 49.1552   3
   0  -8  -2 120.171 43.9391   2
   0   8   3 348.415 69.1709   3
   0  -8  -3 389.467 84.0003   2
   0  -8  -4 6183.80 308.369   4
   0   8   4 6030.10 305.571   3
   0   8   5 25092.7 795.860   3
   0  -8  -5 26987.8 863.896   4
   0  -8  -6 5607.35 345.617   4
   0   8   6 5295.24 284.363   3
   0  -8  -7 92.3667 50.9390   4
   0   8   7-14.2121 22.9924   3
   0  -8  -8 67.8466 53.3688   9
   0  -8  -8-15.5693 33.8716  10
   0  -8  -8 4.96600 29.9402   4
   0  -8  -9 17977.2 793.275  12
   0  -8  -9 21313.6 846.403   8
   0  -8  -9 20894.6 943.147   9
   0  -8  -9 18714.2 852.532   4
   0   8   9 17605.9 750.894  18
   0  -8  -9 23690.6 786.911  15
   0  -8  -9 20576.5 914.746  10
   0   8  10 3040.11 269.202  18
   0  -8 -10 3929.99 282.837  15
   0  -8 -10 3777.60 367.854   9
   0  -8 -10 3642.82 326.679   8
   0  -8 -10 3089.80 291.766  12
   0  -8 -10 3345.03 333.448  10
   0  -8 -11 103.264 63.1696   9
   0  -8 -11 33.3409 39.1719   8
   0  -8 -11 25.2861 32.9675  12
   0  -8 -11 8.54127 21.8438  15
   0  -8 -12 5224.11 384.995  12
   0  -8 -12 5461.90 434.216   9
   0  -8 -12 5751.77 347.204  15
   0  -8 -12 5605.76 429.034   8
   0  -8 -13 1082.14 181.607   8
   0  -8 -13 1029.62 175.754   9
   0  -8 -13 850.818 122.000  15
   0  -8 -14 426.762 81.8874  15
   0  -8 -14 394.126 88.0525   5
   0  -8 -15 607.641 100.858   5
   0  -8 -16 1000.56 110.037   5
   0   9 -10 35.8271 23.7270   6
   0   9  -9 14.6384 20.3337   6
   0   9  -8 887.822 187.924  13
   0   9  -8 910.481 132.166   6
   0   9  -7 96.7054 93.8292  13
   0   9  -7 60.2874 41.3793   6
   0   9  -6 17401.4 742.806   6
   0   9  -6 20082.1 1058.33  13
   0   9  -5 4816.45 350.473   6
   0   9  -4 12.7883 34.4293   6
   0  -9   3 16086.1 742.277   2
   0  -9   3 15357.2 688.928   7
   0   9  -3 15005.7 654.253   6
   0  -9   2 17965.0 760.281   7
   0  -9   2 19162.2 806.696   2
   0   9  -2 17168.7 699.351   6
   0  -9   1 48591.5 1489.53   2
   0   9  -1 47437.6 1389.01   6
   0  -9   1 46678.2 1466.24   7
   0  -9   0 905.088 142.977   2
   0  -9   0 577.500 114.907   7
   0  -9  -1 5482.44 362.590   2
   0  -9  -2 414.783 98.6601   2
   0   9   2 477.534 92.4007   3
   0  -9  -3 33094.7 1096.68   2
   0   9   3 33182.6 1038.07   3
   0   9   4 98.4505 40.8732   3
   0  -9  -4 77.3693 51.4537   2
   0   9   5 4587.52 284.583   3
   0   9   6 742.270 107.630   3
   0  -9  -6 618.065 137.130  10
   0  -9  -7 492.356 101.639   4
   0   9   7 664.354 100.958   3
   0  -9  -7 507.749 136.386  10
   0  -9  -8 896.788 154.587  12
   0  -9  -8 1086.67 193.936  10
   0  -9  -8 1158.39 171.156   4
   0  -9  -8 1097.94 204.569   9
   0  -9  -9 1290.16 208.542  10
   0  -9  -9 1205.69 183.863   4
   0  -9  -9 1408.83 182.374   8
   0   9   9 1115.56 164.139  18
   0  -9  -9 1393.81 191.208  12
   0  -9  -9 1419.95 229.312   9
   0  -9 -10 2622.50 304.870  10
   0   9  10 2343.96 244.963  18
   0  -9 -10 3017.82 278.778   8
   0  -9 -10 2573.25 263.635  12
   0  -9 -10 2730.56 320.308   9
   0  -9 -11 3130.76 339.508   9
   0  -9 -11 4041.87 337.456   8
   0  -9 -11 3520.52 309.810  12
   0  -9 -12 404.190 107.514   8
   0  -9 -12 314.027 83.1601  12
   0  -9 -12 283.723 88.1991   9
   0  -9 -13 241.734 84.6599   9
   0  -9 -14 377.331 102.961   9
   0  -9 -14 277.965 77.5555   5
   0  -9 -15 179.677 52.9267   5
   0  -9 -16-22.4587 24.1722   5
   0  10  -9 90.9818 34.8214   6
   0  10  -8 53.7662 32.8119   6
   0  10  -8-3.36869 26.4910  13
   0  10  -7 13.4933 35.7667  13
   0  10  -7-1.71233 26.6432   6
   0  10  -6 125.577 51.7136   6
   0  10  -6 159.125 93.7304  13
   0  10  -5 254.143 78.6886   6
   0  10  -5 314.569 124.670  13
   0  10  -4 329.251 86.1010   6
   0 -10   4 326.993 87.3031   7
   0  10  -3 1440.01 183.393   6
   0 -10   3 1446.57 192.314   7
   0 -10   2 1720.33 215.190   7
   0  10  -2 2035.82 209.656   6
   0 -10   1 3636.30 319.339   7
   0  10  -1 3709.11 280.648   6
   0 -10   1 3298.99 309.718   2
   0 -10   0 1179.56 175.002   2
   0 -10   0 1464.36 195.682   7
   0 -10  -1 3182.41 293.793   2
   0 -10  -1 3282.88 297.800   7
   0 -10  -2 2268.68 243.260   2
   0 -10  -2 2148.47 240.120   7
   0 -10  -3 5051.37 371.201  16
   0 -10  -3 5772.32 391.998   2
   0  10   3 5262.60 345.371   3
   0 -10  -3 5473.06 396.102   7
   0 -10  -4 5200.20 425.968  10
   0 -10  -4 4625.48 365.778   7
   0  10   4 4473.67 312.802   3
   0 -10  -4 4359.50 339.183  16
   0  10   5 2545.50 224.370   3
   0 -10  -5 2234.17 252.756   7
   0 -10  -5 2036.84 223.343  16
   0 -10  -5 2178.58 280.017  10
   0 -10  -6 343.516 90.2532   7
   0 -10  -6 313.681 108.859  10
   0  10   6 355.597 82.5378   3
   0 -10  -7 8588.95 604.609  10
   0 -10  -8 32089.9 1395.74   9
   0 -10  -8 37106.9 1442.77  10
   0 -10  -9 6151.82 407.970  12
   0 -10  -9 5420.03 467.418  10
   0 -10  -9 5166.96 471.279   9
   0 -10 -10 13724.4 806.425   9
   0 -10 -10 15680.4 712.942  12
   0 -10 -10 14974.0 812.239  10
   0 -10 -11 1665.72 202.924  12
   0 -10 -11 1413.59 230.430   9
   0 -10 -11 1726.47 200.567   8
   0 -10 -11 1127.88 200.777  10
   0 -10 -12 4444.88 397.950   9
   0 -10 -12 5272.44 360.431  12
   0 -10 -13 1508.07 209.849   9
   0 -10 -14 2550.97 254.459   9
   0 -10 -15 133.333 37.3492   5
   0 -10 -16 10.2758 16.0981   5
   0  11  -8 696.928 84.3638   6
   0  11  -7 160.009 50.7179   6
   0  11  -7 155.304 59.5196  13
   0  11  -6 435.951 86.0379   6
   0  11  -6 503.721 123.024  13
   0  11  -5 1480.14 245.847  13
   0  11  -5 966.339 139.957   6
   0  11  -4 67.9699 50.3443   6
   0 -11   3 231.370 80.9627   7
   0  11  -3 412.879 93.9972   6
   0 -11   2 40924.7 1376.75   7
   0  11  -2 43024.2 1311.53   6
   0 -11   1 121.327 49.8779   7
   0 -11   0 8744.53 525.191   7
   0 -11  -1 3133.66 302.712   7
   0 -11  -1 3329.18 316.922   2
   0 -11  -2 3649.97 329.361   7
   0 -11  -2 3574.69 324.048   2
   0  11   3 1396.69 172.955  18
   0 -11  -3 1700.51 225.632   7
   0 -11  -3 1814.82 248.573  10
   0  11   4 134.110 45.3545  18
   0 -11  -4 43.2175 46.4633   7
   0 -11  -4 52.4394 36.1695  10
   0 -11  -5-139.712 65.4806   7
   0  11   5-19.6373 47.6225   3
   0 -11  -5 47.3624 55.9752  10
   0  11   6 1981.38 207.789   3
   0 -11  -6 1944.27 279.084  10
   0 -11  -6 1975.99 246.471   7
   0 -11  -6 1929.26 217.062  16
   0 -11  -7-12.5128 70.6433  10
   0 -11  -7-0.61996 20.7910   7
   0 -11  -8 1125.92 221.860   9
   0 -11  -8 943.038 198.864  10
   0 -11  -9 554.877 124.656  10
   0 -11  -9 847.099 184.502   9
   0 -11 -10 19.1003 41.9897  10
   0 -11 -10-12.3818 58.5132   9
   0 -11 -11 694.084 157.944   9
   0 -11 -11 772.021 157.239  10
   0 -11 -12 2168.15 202.919  12
   0 -11 -12 1292.48 208.624   9
   0 -11 -13 136.784 57.9342   9
   0 -11 -14 62.5776 37.8545   9
   0 -11 -15 221.370 52.3884   5
   0  12  -6 255.462 78.6096  13
   0  12  -6 141.766 40.4483   6
   0  12  -5 165.853 49.0271   6
   0  12  -5 287.049 97.6677  13
   0  12  -4 1170.50 143.103   6
   0  12  -4 1585.96 237.073  13
   0  12  -3 40.7111 14.1221   6
   0 -12   3 10.4477 26.4663   7
   0 -12   2 75.9107 54.6240   7
   0  12  -2 50.4684 37.7026   6
   0 -12   1 1995.67 235.029   7
   0 -12   0 3767.54 332.529   7
   0 -12  -1 181.498 71.3683   7
   0 -12  -2 9446.86 560.753   7
   0 -12  -2 10326.8 614.343  10
   0 -12  -3 1295.94 214.299  10
   0 -12  -3 1181.40 189.656   7
   0 -12  -4 405.646 116.652  10
   0 -12  -4 469.619 119.791   7
   0 -12  -5 4310.06 372.764   7
   0 -12  -5 3958.22 401.203  10
   0 -12  -6 1558.49 220.185   7
   0 -12  -6 2098.90 286.535  10
   0 -12  -7 10441.1 602.752   7
   0 -12  -7 9952.33 675.053  10
   0 -12  -8 9715.02 655.159  10
   0 -12  -8 9869.00 666.893   9
   0 -12  -9 9379.53 637.383   9
   0 -12  -9 8801.53 610.155  10
   0 -12 -10 3963.48 389.632   9
   0 -12 -10 4207.03 391.175  10
   0 -12 -11 476.990 124.624   9
   0 -12 -11 519.145 128.074  10
   0 -12 -12 26.1729 22.5055   9
   0 -12 -13 76.9284 45.1387   9
   0 -12 -14 176.017 51.9915   9
   0 -12 -15 863.010 93.2193   5
   0 -13   5 22.2328 24.2605  10
   0  13  -5 76.8474 44.6773  13
   0  13  -4 24.6506 20.3881   6
   0  13  -4-51.4029 32.0644  13
   0  13  -3 255.977 95.5313  13
   0 -13   2 340.030 86.7669   7
   0 -13   1 477.025 106.199   7
   0 -13   0 570.070 120.140   7
   0 -13  -1 1193.20 179.629   7
   0 -13  -1 1212.30 185.734  10
   0 -13  -2-23.3811 58.4414  10
   0 -13  -2-4.56134 25.4188   7
   0 -13  -3 2433.75 282.135  10
   0 -13  -3 2279.55 255.777   7
   0 -13  -4 57.6478 38.2699  10
   0 -13  -4 136.570 64.7854   7
   0 -13  -5 854.277 156.797   7
   0 -13  -5 1060.42 192.399  10
   0 -13  -6 333.499 95.6844   7
   0 -13  -6 371.186 116.960  10
   0 -13  -7 162.939 66.4919  10
   0 -13  -7 177.581 80.2835   9
   0 -13  -7 114.706 45.9489   7
   0 -13  -8 158.202 82.1125   9
   0 -13  -8 126.852 69.6686  10
   0 -13  -9 597.579 142.928  10
   0 -13  -9 562.185 140.431   9
   0 -13 -10 1490.72 220.063   9
   0 -13 -10 1376.39 202.415  10
   0 -13 -11 910.780 159.564   9
   0 -13 -12 320.242 89.7492   9
   0 -13 -13 56.7642 30.0253   9
   0 -13 -14 147.180 41.1597   5
   0 -13 -14 145.901 47.5349   9
   0  14  -3 130.710 50.7525  13
   0 -14   3 208.600 53.8325  10
   0 -14   2 179.360 56.7405  10
   0  14  -2 111.839 55.0391  13
   0 -14   1 281.650 76.7215  10
   0 -14   0 287.496 75.9291  10
   0 -14   0 252.013 68.9043   7
   0 -14  -1 356.876 91.6194  10
   0 -14  -1 219.586 69.3603   7
   0 -14  -2 3905.41 317.780   7
   0 -14  -2 4036.25 335.250  10
   0 -14  -3 5025.07 386.051  10
   0 -14  -3 4668.35 358.093   7
   0 -14  -4 2846.51 290.542  10
   0 -14  -4 2359.95 251.417   7
   0 -14  -5 7896.53 515.498  10
   0 -14  -5 7100.34 454.568   7
   0 -14  -6 412.186 104.728   7
   0 -14  -6 402.491 120.825  10
   0 -14  -7 3874.69 350.603  10
   0 -14  -7 3358.09 320.540   9
   0 -14  -8 1767.74 230.612  10
   0 -14  -8 1761.23 225.928   9
   0 -14  -9 469.224 113.570  10
   0 -14  -9 553.999 122.972   9
   0 -14 -10 1867.69 211.903  10
   0 -14 -10 1881.81 215.880   9
   0 -14 -11 198.021 60.3277   9
   0 -14 -12-27.0738 24.8653   9
   0 -14 -13 120.047 36.5130   9
   0 -15   1 10.6507 17.3350  10
   0  15  -1 11.2435 26.6994  13
   0 -15   0-8.12119 14.8194  10
   0 -15  -1 35.0729 26.2368  10
   0 -15  -2-1.43378 23.0634  10
   0 -15  -3 6.40200 31.7281  10
   0 -15  -4 391.863 91.5056  10
   0 -15  -5 75.2683 42.6894  10
   0 -15  -5 55.0402 32.7300   9
   0 -15  -6-1.89702 26.0243   9
   0 -15  -6 12.7587 34.2988  10
   0 -15  -7 499.697 104.387  10
   0 -15  -7 410.362 92.0039   9
   0 -15  -8 1441.70 175.140  10
   0 -15  -8 1244.82 158.858   9
   0 -15  -9 51.3222 37.6640  10
   0 -15  -9 50.5911 41.4406   9
   0 -15 -10 346.574 78.9125  10
   0 -15 -10 337.886 73.8876   9
   0 -15 -11 84.8994 32.0908   9
   0 -16  -2 291.655 60.9336  10
   0 -16  -3 165.567 49.6791  10
   0 -16  -4 530.242 90.9806  10
   0 -16  -5 28.4688 28.4633  10
   0 -16  -6-64.6421 32.2107  10
   0 -16  -6-39.2124 29.4327   9
   0 -16  -7 5.20796 12.1217   9
   0 -16  -7 16.7611 26.2538  10
   0 -16  -8 148.148 40.6923   9
   0 -16  -8 85.6392 30.4531  10
   0 -16  -9-0.89982 15.9300  10
   1 -16  -7 65.0127 24.8002   9
   1 -16  -6 603.891 82.2579   9
   1 -16  -5 97.3062 30.9833   9
   1 -15 -11-4.14135 16.2643   9
   1 -15 -10 1064.06 123.297   9
   1 -15  -9 1059.47 131.628   9
   1 -15  -8 54.7327 34.2227   9
   1 -15  -8 71.7475 29.6715  10
   1 -15  -7 9.43571 20.3164   9
   1 -15  -7 31.5231 26.0651  10
   1 -15  -6 126.690 50.3769  10
   1 -15  -6 38.2093 27.7763   9
   1 -15  -5 129.376 50.9768  10
   1 -15  -5 131.808 62.6665   9
   1 -15  -4 545.731 96.6004   7
   1 -15  -4 575.825 104.751  10
   1 -15  -3 110.278 42.1906  10
   1 -15  -3 126.963 47.8443   7
   1 -15  -2 109.824 45.1407   7
   1 -15  -2 174.518 53.7699  10
   1 -15  -1 33.4323 16.0310  10
   1 -15  -1 74.1389 27.8797   7
   1 -15   0 176.365 51.1762  10
   1 -14 -12 3.37514 18.2006   9
   1 -14 -11 644.954 108.825   9
   1 -14 -10 115.149 54.1998   9
   1 -14  -9 1557.30 180.274  10
   1 -14  -9 1587.51 199.750   9
   1 -14  -8 1639.86 193.760  10
   1 -14  -8 1813.28 222.631   9
   1 -14  -7-28.2258 39.2324  10
   1 -14  -7 66.2960 49.1521   9
   1 -14  -6-29.6822 51.9902  10
   1 -14  -6 28.4980 32.2689   7
   1 -14  -5 394.545 100.762  10
   1 -14  -5 354.867 89.0905   7
   1 -14  -4 279.162 78.1717   7
   1 -14  -4 365.537 96.9126  10
   1 -14  -3 833.627 136.231   7
   1 -14  -3 714.431 131.311  10
   1 -14  -2 81.6412 39.2715   7
   1 -14  -2 226.400 76.6502  10
   1 -14  -1 311.809 83.2547   7
   1 -14  -1 372.776 92.6375  10
   1 -14   0 189.585 56.8850   7
   1 -14   0 209.605 60.9451  10
   1 -14   1 86.2207 29.9480  10
   1 -14   1 22.3949 18.6404   7
  -1  14  -2 472.497 102.047  13
   1 -14   2 342.979 74.4237  10
   1 -14   2 402.990 73.5358   7
  -1  14  -3 11.0884 20.3497  13
   1 -14   3-3.74456 22.3294  10
   1 -13 -13 2005.01 178.075   9
   1 -13 -12 113.993 51.6544   9
   1 -13 -11-5.09368 41.4056   9
   1 -13 -10 3395.30 289.370  10
   1 -13 -10 3585.00 330.882   9
   1 -13  -9 204.197 70.4056  10
   1 -13  -9 156.799 72.3691   9
   1 -13  -8 1425.65 219.831   9
   1 -13  -8 1276.14 196.364  10
   1 -13  -7 926.178 151.065   7
   1 -13  -7 816.874 160.859  10
   1 -13  -6 2311.99 247.325   7
   1 -13  -6 2647.14 297.311  10
   1 -13  -5 1879.70 222.491   7
   1 -13  -5 2065.09 258.772  10
   1 -13  -4 2200.55 241.699   7
   1 -13  -4 2687.00 294.466  10
   1 -13  -3 1387.62 202.196  10
   1 -13  -3 1016.76 164.663   7
   1 -13  -2 2166.52 239.663   7
   1 -13  -2 2548.70 272.711  10
   1 -13  -1 1326.60 182.867   7
   1 -13  -1 1385.44 195.096  10
   1 -13   0 557.811 118.631  10
   1 -13   0 610.118 120.868   7
   1 -13   1 351.150 98.6678  10
   1 -13   1 306.739 79.8504   7
   1 -13   2 96.9227 55.7540   7
   1 -13   2 132.751 50.6628  10
  -1  13  -3 58.0507 58.6443  13
   1 -13   3 52.5297 37.1073   7
   1 -13   3 64.1424 34.4818  10
   1 -13   4 182.560 54.9376  10
  -1  13  -4 162.768 53.3166  13
   1 -13   5 60.0006 32.7259  10
   1 -12 -14 34.0213 19.6548   5
   1 -12 -14-3.22093 14.7259   9
   1 -12 -13 58.3600 39.6409   9
   1 -12 -12 597.452 122.578   9
   1 -12 -11 2633.11 288.855   9
   1 -12 -10 564.916 125.115  10
   1 -12 -10 674.707 155.184   9
   1 -12  -9 2030.62 286.965   9
   1 -12  -9 1997.99 254.179  10
   1 -12  -8 1210.24 224.612   9
   1 -12  -8 1089.62 191.422  10
   1 -12  -7 946.749 150.320  16
   1 -12  -7 1348.73 221.012  10
   1 -12  -6 926.482 177.205  10
   1 -12  -6 780.520 144.068  16
   1 -12  -6 998.942 165.771   7
   1 -12  -5 1143.96 175.802  16
   1 -12  -5 981.923 165.986   7
   1 -12  -5 1395.64 222.587  10
   1 -12  -4 102.717 42.8073   7
   1 -12  -4 66.5909 51.3429  10
   1 -12  -3 3427.82 341.690  10
   1 -12  -3 2774.37 280.096   7
   1 -12  -2 2687.18 294.993  10
   1 -12  -2 2321.32 254.329   7
   1 -12  -1 798.910 157.969  10
   1 -12  -1 799.365 148.317   7
   1 -12   0 2171.00 241.563   7
   1 -12   1 52.9937 49.5128   7
   1 -12   2 88.9316 49.6941   7
   1 -12   3 3.33032 28.9393   7
  -1  12  -4 1581.33 158.393   6
   1 -12   4 1529.70 166.249   7
  -1  12  -4 1786.62 240.816  13
  -1  12  -5 30.9873 35.3977  13
  -1  12  -5 134.613 45.7011   6
  -1  12  -6 1061.01 143.881  13
  -1  12  -6 902.427 98.6135   6
   1 -11 -14 63.9028 39.4669   9
   1 -11 -14 4.68689 18.6090   5
   1 -11 -13 147.577 59.6736   9
   1 -11 -12 21.4223 35.9154   9
   1 -11 -11 2510.21 296.802   9
   1 -11 -10-13.4642 45.5583  10
   1 -11 -10-45.7248 59.6531   9
   1 -11  -9 1477.57 248.616   9
   1 -11  -9 1635.15 241.183  10
   1 -11  -8 5318.13 453.521  10
   1 -11  -8 5345.25 494.160   9
   1 -11  -7 117.025 55.3238  10
   1 -11  -7 69.9813 32.8729  16
   1 -11  -6 104.133 52.7419  10
   1 -11  -6 151.191 63.2480  16
   1 -11  -6 90.6489 60.1776   7
   1 -11  -5 16.9559 30.1503  16
   1 -11  -5 37.9795 41.1312  10
   1 -11  -5-53.3341 47.3013   7
  -1  11   5 29.0061 18.4468  18
   1 -11  -4 227.063 76.6560  16
  -1  11   4 325.731 82.7343  18
   1 -11  -4 318.899 101.165  10
   1 -11  -4 296.244 86.1092   7
   1 -11  -3 261.598 96.1667  10
  -1  11   3 253.838 66.3681  18
   1 -11  -3 380.928 98.8755   7
   1 -11  -3 164.532 67.2308  16
   1 -11  -2 512.738 130.131  10
   1 -11  -2 347.392 102.371   7
   1 -11  -1 495.838 121.452   7
   1 -11   0 7605.36 475.270   7
   1 -11   1 1740.68 216.526   7
   1 -11   2 3729.98 324.145   7
  -1  11  -3 1408.42 168.546   6
   1 -11   3 1441.48 186.904   7
   1 -11   4 1053.70 152.087   7
  -1  11  -4 861.648 132.425   6
  -1  11  -5 288.355 101.328  13
  -1  11  -5 184.693 63.3894   6
  -1  11  -6 50.7759 30.3599  13
  -1  11  -6 43.2618 16.6922   6
  -1  11  -7 150.778 60.8458  13
  -1  11  -7 83.1208 35.2913   6
  -1  11  -8 33.0072 18.1450   6
   1 -10 -15 55.7875 22.7855   5
   1 -10 -14 10.4622 17.9474   9
   1 -10 -14 10.8676 17.1135   5
   1 -10 -13 450.006 111.438   9
   1 -10 -12 185.282 68.1806   8
   1 -10 -12 155.940 72.1608   9
   1 -10 -11 153.713 58.3966   9
   1 -10 -11 68.6323 32.6319   8
   1 -10 -10 631.855 157.707   9
   1 -10 -10 833.154 135.002   8
   1 -10 -10 607.228 135.241  10
   1 -10  -9 16429.9 900.143   9
   1 -10  -9 18128.3 869.116  10
   1 -10  -8 1532.28 236.161  10
   1 -10  -8 1292.96 235.339   9
   1 -10  -7 2613.25 253.459  16
  -1  10   7 3115.28 288.092  18
   1 -10  -7 2426.56 307.976  10
  -1  10   6 2430.56 246.730  18
   1 -10  -6 2134.37 238.704   7
   1 -10  -6 2216.59 235.119  16
   1 -10  -6 2260.86 287.569  10
   1 -10  -5 1057.96 186.341  10
   1 -10  -5 993.644 158.524  16
   1 -10  -5 1288.38 180.355   7
  -1  10   5 1175.72 163.684  18
   1 -10  -4 5186.07 381.799  16
  -1  10   4 4966.44 349.910  18
   1 -10  -4 5734.94 450.602  10
   1 -10  -4 5754.00 397.733   7
   1 -10  -3 30499.3 1082.11   7
   1 -10  -3 28429.2 1075.94  16
  -1  10   3 27477.0 988.367  18
   1 -10  -2 2008.43 227.909   7
   1 -10  -2 1459.92 201.901  16
  -1  10   2 1765.29 191.120  18
   1 -10  -2 1803.29 231.494   2
   1 -10  -1 1335.99 191.816  16
   1 -10  -1 1315.69 199.020   2
   1 -10  -1 1512.23 196.056   7
   1 -10   0 6457.20 424.500   7
   1 -10   0 6231.49 453.467   2
   1 -10   1 3219.73 293.306   7
   1 -10   1 3555.91 343.176   2
  -1  10  -2 18395.0 706.758   6
   1 -10   2 17548.7 772.277   7
   1 -10   3 153.487 58.1417   7
  -1  10  -3 109.972 35.1820   6
  -1  10  -4 8687.58 467.313   6
   1 -10   4 9088.06 500.714   7
  -1  10  -5 766.537 181.152  13
  -1  10  -5 580.590 112.233   6
  -1  10  -6 547.415 104.994   6
  -1  10  -6 562.998 149.566  13
  -1  10  -7 107.854 45.8922  13
  -1  10  -7 138.877 45.6650   6
  -1  10  -8 287.796 89.0288  13
  -1  10  -8 303.348 69.5856   6
  -1  10  -9 699.021 87.2759   6
   1  -9 -15-16.1306 19.9689   5
   1  -9 -14 1355.98 152.760   5
   1  -9 -14 1760.55 197.723   9
   1  -9 -13 3982.95 336.287   9
   1  -9 -13 4291.73 330.212   8
   1  -9 -12 1620.36 226.625   9
   1  -9 -12 1546.23 203.106   8
   1  -9 -11 1810.10 225.692   8
   1  -9 -11 1905.26 260.403   9
   1  -9 -10 1729.39 211.550   8
   1  -9 -10 1530.84 220.637  10
   1  -9 -10 1688.34 247.384   9
   1  -9  -9 117.012 34.0077   4
   1  -9  -9 239.564 92.9979  10
   1  -9  -9 200.960 67.6251   8
   1  -9  -8 2023.16 262.634  10
  -1   9   8 1840.89 217.946  18
   1  -9  -8 2014.98 290.203   9
   1  -9  -8 2252.46 262.179   4
   1  -9  -7 5170.35 378.802   4
   1  -9  -7 4774.74 414.362  10
  -1   9   7 4759.98 350.599  18
  -1   9   6 643.975 118.314  18
   1  -9  -6 574.454 110.790  16
   1  -9  -6 798.057 129.619   4
   1  -9  -6 597.527 133.503  10
   1  -9  -5 21.4224 18.0231  16
   1  -9  -5 61.2214 50.5638   4
  -1   9   5 33.8626 17.6085  18
   1  -9  -5 90.0938 43.5053  10
  -1   9   4 776.803 124.858  18
  -1   9   3 2075.45 200.225  18
   1  -9  -2 511.793 106.607   7
  -1   9   2 446.815 89.5531  18
   1  -9  -2 534.936 115.644   2
   1  -9  -2 448.448 101.663  16
   1  -9  -1 2536.03 243.010   7
   1  -9  -1 2119.29 232.919  16
   1  -9  -1 2430.90 254.318   2
  -1   9   1 2320.35 202.920  18
   1  -9   0 43.0930 42.3112   7
   1  -9   0-5.71634 29.5833   2
   1  -9   0 40.1397 17.3893  16
   1  -9   1 750.021 146.535   2
   1  -9   1 709.933 132.737   7
  -1   9  -2 7612.23 412.525   6
   1  -9   2 8116.66 509.762   2
   1  -9   2 8103.98 471.718   7
   1  -9   3 195.439 73.6875   7
   1  -9   3 366.858 104.230   2
  -1   9  -3 200.868 67.5987   6
   1  -9   4 5519.44 374.200   7
  -1   9  -4 4734.10 335.113   6
  -1   9  -5 4905.73 346.642   6
  -1   9  -6 3989.59 309.139   6
  -1   9  -6 4427.77 462.371  13
  -1   9  -7 341.598 86.4401   6
  -1   9  -7 389.312 127.088  13
  -1   9  -8 61.4955 53.3671  13
  -1   9  -8 27.7352 23.3035   6
  -1   9  -9 53.2615 25.4026   6
  -1   9 -10 184.239 46.5246   6
   1  -8 -15 17.0658 15.3972   5
   1  -8 -14 741.005 133.125   8
   1  -8 -14 589.880 100.364   5
   1  -8 -13 120.563 62.4398   9
   1  -8 -13 200.787 60.8539  15
   1  -8 -13 94.1925 43.9297   8
   1  -8 -13 90.1269 39.8723   5
   1  -8 -12 2809.46 298.686   8
   1  -8 -12 3078.12 254.402  15
   1  -8 -12 2718.81 294.192   9
   1  -8 -11 7352.39 493.695   8
   1  -8 -11 7455.93 421.332  15
   1  -8 -11 7220.38 434.182  12
   1  -8 -11 6150.83 476.859   9
   1  -8 -10 661.425 120.066  15
   1  -8 -10 631.198 141.268   8
  -1   8  10 498.296 106.414  18
   1  -8 -10 442.877 102.907  12
   1  -8 -10 566.393 143.214   9
  -1   8   9 677.107 131.715  18
   1  -8  -9 961.158 163.176   8
   1  -8  -9 869.620 166.097   4
   1  -8  -9 1224.86 163.734  15
   1  -8  -9 1202.39 194.570  10
   1  -8  -9 837.919 174.079   9
   1  -8  -8 245.162 78.7359  15
   1  -8  -8 224.488 87.9197   9
  -1   8   8 235.862 76.0508  18
   1  -8  -8 89.9729 48.2105  10
   1  -8  -8 103.147 59.5794   4
   1  -8  -8 277.399 87.2261   8
   1  -8  -7 8142.55 488.261   4
  -1   8   7 7679.47 438.741  18
   1  -8  -7 9165.07 546.146  10
   1  -8  -6 16058.8 687.635   4
  -1   8   6 15349.9 644.303  18
  -1   8   5 31372.6 915.145   3
  -1   8   5 27480.6 957.591  18
  -1   8   4 1338.30 140.730   3
  -1   8   4 1501.17 164.608  18
  -1   8   3 3707.75 244.967   3
  -1   8   3 3930.02 263.335  18
  -1   8   2 3472.59 242.994  18
   1  -8  -2 3227.01 272.972   2
   1  -8  -1 38.8449 32.1201   2
  -1   8   1 22.8498 13.1603  18
  -1   8   0 7118.67 349.894  18
   1  -8   0 7400.28 438.122   2
   1  -8   1 21989.3 860.114   2
   1  -8   2 307.464 77.5998   7
   1  -8   2 188.544 65.2675   2
   1  -8   3 3681.70 317.886   2
  -1   8  -3 3279.65 256.506   6
   1  -8   3 3609.04 286.980   7
   1  -8   4 3495.55 285.824   7
   1  -8   4 3471.05 317.859   2
  -1   8  -4 3068.79 259.676   6
  -1   8  -5 3572.21 290.562   6
   1  -8   5 3797.32 340.607   2
  -1   8  -6 2166.62 228.820   6
  -1   8  -6 3093.06 392.420  13
  -1   8  -7 1153.17 233.928  13
  -1   8  -7 1072.89 157.023   6
  -1   8  -8 19.0522 28.7746  13
  -1   8  -8-3.54367 29.3378   6
  -1   8  -9-10.5125 25.0671   6
  -1   8  -9-6.79693 38.0876  13
  -1   8 -10 47.6365 30.1164   6
  -1   8 -11 250.365 51.3227   6
   1  -7 -15 1089.41 122.051   5
   1  -7 -14 1051.41 137.603   5
   1  -7 -14 1115.97 136.272  15
   1  -7 -14 880.109 154.490   8
   1  -7 -13 1813.80 186.382  15
   1  -7 -13 1489.65 201.135   9
   1  -7 -13 1656.46 222.445   8
   1  -7 -13 1482.21 179.195   5
   1  -7 -12 1404.92 206.670   9
   1  -7 -12 1323.48 209.937   8
   1  -7 -12 1244.43 161.865  15
   1  -7 -11 3072.76 262.496  15
   1  -7 -11 2832.96 303.598   9
   1  -7 -11 3012.74 320.988   8
   1  -7 -10 7581.56 506.211   8
   1  -7 -10 5991.94 473.916   4
   1  -7 -10 7609.52 426.946  15
   1  -7 -10 7293.39 436.560  12
   1  -7 -10 7121.04 499.391   9
   1  -7  -9 3136.70 300.400  10
   1  -7  -9 2099.83 260.392   4
  -1   7   9 2798.41 254.544  18
   1  -7  -9 3012.73 315.714   9
   1  -7  -9 2867.18 291.594   8
   1  -7  -9 3468.46 276.072  15
   1  -7  -9 2964.01 258.179  12
   1  -7  -8 51.0834 40.5646  15
   1  -7  -8 30.3192 37.6969   4
  -1   7   8 65.6916 39.2115  18
   1  -7  -8 34.0886 45.9342   9
   1  -7  -8 32.5893 29.6389  10
   1  -7  -7 48.0571 32.1840   4
  -1   7   7 130.239 51.7752  18
  -1   7   6 758.220 116.191  18
  -1   7   5 501.808 75.7120   3
  -1   7   4 409.356 70.1865   3
  -1   7   3 1713.51 149.264   3
   1  -7  -3 1330.79 156.815   2
  -1   7   2 574.536 86.5677   3
   1  -7  -2 556.224 99.7352   2
  -1   7   1 2412.82 184.717  18
   1  -7  -1 2420.40 215.452   2
  -1   7   0 7113.95 328.804  18
   1  -7   0 7055.50 389.456   2
  -1   7  -1 25620.8 776.234  18
   1  -7   1 26377.2 908.768   2
   1  -7   2 937.998 141.235   2
   1  -7   3 56.5027 40.7916   2
   1  -7   4 2430.97 250.581   2
  -1   7  -4 2305.52 213.853   6
   1  -7   5 955.384 159.395   2
  -1   7  -5 1008.53 145.304   6
  -1   7  -6 103.601 80.5614  13
  -1   7  -6 32.3429 23.6139   6
  -1   7  -7 85.8873 39.9224   6
  -1   7  -7 104.570 71.0466  13
  -1   7  -8 709.721 131.566   6
  -1   7  -8 883.507 212.679  13
  -1   7  -9-47.3291 71.7436  13
  -1   7  -9-8.37107 33.8320   6
  -1   7 -10 2549.10 224.495   6
  -1   7 -11 406.860 78.1562   6
  -1   7 -12 670.617 78.9619   6
  -1   7 -12 586.903 88.2845  15
   1  -6 -15 2126.58 178.205  15
   1  -6 -15 2132.51 175.738   5
   1  -6 -14 3876.32 270.880   5
   1  -6 -14 3613.85 262.595  15
   1  -6 -14 3389.48 307.971   8
   1  -6 -13 157.265 75.5934   8
   1  -6 -13 117.222 46.0996   5
   1  -6 -13 232.078 71.5966  15
   1  -6 -12 2412.52 262.380   9
   1  -6 -12 2331.39 231.029  15
   1  -6 -12 1858.67 252.675   8
   1  -6 -11 139.788 61.1365  15
   1  -6 -11 127.218 60.4879   9
   1  -6 -11 325.814 112.250   8
   1  -6 -10 17207.4 697.994  15
   1  -6 -10 17369.8 722.378  12
   1  -6 -10 16335.3 771.551   9
   1  -6 -10 14405.2 762.797   4
   1  -6 -10 16228.3 799.470   8
   1  -6  -9 10723.7 513.749  15
  -1   6   9 9655.10 480.112  18
   1  -6  -9 10504.3 581.319   9
   1  -6  -9 10101.2 503.932  12
   1  -6  -8 16.4774 26.0183   4
  -1   6   8 44.7895 24.8861  18
  -1   6   7 22551.9 765.727  18
   1  -6  -7 20138.5 820.491   4
  -1   6   6 14407.4 564.748  18
  -1   6   5 464.217 63.3411   3
  -1   6   4 18061.4 564.803   3
  -1   6   3 9547.32 370.290   3
   1  -6  -2 3580.81 243.286   2
  -1   6   2 3919.87 220.323   3
   1  -6  -1 31.9126 18.2313   2
  -1   6   0 62.7568 26.7659  18
   1  -6   0 98.3239 42.9206   2
   1  -6   1 2681.55 213.178   2
  -1   6  -1 2607.75 169.248  18
   1  -6   2 687.582 108.797   2
   1  -6   3 4371.63 299.161   2
  -1   6  -3 4401.09 266.148   1
   1  -6   4 6937.73 404.520   2
   1  -6   5 3203.67 276.854   2
  -1   6  -5 3243.12 256.550   6
  -1   6  -6 49.1130 40.9956   6
   1  -6   6 8.15195 28.7291   2
   1  -6   7 2219.00 249.511   2
  -1   6  -7 1861.60 318.115  13
  -1   6  -7 2175.20 225.298   6
  -1   6  -8 1720.78 301.614  13
  -1   6  -8 1930.80 217.171   6
  -1   6  -9 123.844 58.1678   6
  -1   6  -9 60.0662 32.5413  13
  -1   6 -10 79.0805 39.5588   6
  -1   6 -11-12.7398 25.5492   6
  -1   6 -12 62.3238 35.0646   6
   1  -5 -16 746.383 89.0199  15
   1  -5 -15 144.820 44.8110  15
   1  -5 -14 46.1170 16.0399   5
   1  -5 -14 28.1619 49.4252   8
   1  -5 -14 4.76456 19.5921  15
   1  -5 -13 148.990 51.6803   5
   1  -5 -13 125.945 59.9405   8
   1  -5 -13 118.715 54.6586  15
   1  -5 -12 861.477 128.234  17
   1  -5 -12 622.897 119.608  15
   1  -5 -12 945.851 159.152   9
   1  -5 -12 589.519 113.182   5
   1  -5 -12 725.098 150.380   8
   1  -5 -11 1139.73 200.001   8
   1  -5 -11 1409.28 179.145  15
   1  -5 -11 1509.53 204.708   9
   1  -5 -10 4238.81 347.808   9
   1  -5 -10 4608.23 333.056  12
   1  -5 -10 3473.74 344.917   8
   1  -5 -10 3942.13 308.541  15
   1  -5 -10 4181.12 362.408   4
   1  -5  -9 10475.4 568.270   9
  -1   5   9 11250.1 489.073  18
   1  -5  -9 10905.0 521.677  15
   1  -5  -9 9683.61 555.551   4
  -1   5   8 21830.7 735.461  18
   1  -5  -8 19410.7 818.108   4
   1  -5  -7 10686.1 533.283   4
  -1   5   7 12043.2 488.803  18
  -1   5   6 1370.15 139.211  18
  -1   5   5 9683.21 325.455   3
  -1   5   4 62950.4 1516.04   3
  -1   5   3 14811.6 466.387   3
  -1   5   2 3563.86 189.506   3
   1  -5  -2 3071.53 202.024   2
   1  -5  -1 81.6757 30.2375   2
  -1   5   1 153.808 39.8713   3
   1  -5   0 30439.8 895.148   2
  -1   5   0 30380.0 837.122  18
  -1   5  -1 64704.3 1623.55  18
   1  -5   1 71370.0 1738.82   2
   1  -5   2 18905.4 637.540   2
  -1   5  -2 16800.7 516.696  18
   1  -5   3 29254.5 929.307   2
  -1   5  -3 30436.8 896.733   1
   1  -5   4 1210.08 145.273   2
  -1   5  -4 1301.64 138.569   1
   1  -5   5 1290.40 160.610   2
  -1   5  -5 1421.58 158.065   1
  -1   5  -6 581.854 106.626   6
   1  -5   6 757.233 125.383   2
  -1   5  -7 188.019 60.7778   6
   1  -5   7 108.745 45.8123   2
  -1   5  -7 202.812 99.0217  13
  -1   5  -8 19631.2 786.617   6
   1  -5   8 20693.9 838.099   2
  -1   5  -9 3405.46 245.149  17
  -1   5  -9 3000.65 270.722   6
  -1   5  -9 2854.01 397.886  13
  -1   5 -10 1055.36 156.571   6
  -1   5 -11 5171.89 341.769   6
  -1   5 -12 45.5044 24.9949   6
  -1   5 -13 1320.21 153.842  15
  -1   5 -13 1485.57 127.876   6
   1  -4 -16 1580.48 131.875  15
   1  -4 -15 696.849 104.864  15
   1  -4 -14 1703.15 188.563  15
   1  -4 -14 2025.04 221.178   8
   1  -4 -14 1893.73 182.285   5
   1  -4 -13 618.696 130.840   8
   1  -4 -13 515.762 107.776  15
   1  -4 -13 550.069 102.085   5
   1  -4 -12 26107.1 979.274  15
   1  -4 -12 25145.6 931.097   5
   1  -4 -12 24824.2 1050.27   8
   1  -4 -11 13957.6 654.257  15
   1  -4 -11 14567.9 681.839   9
   1  -4 -11 12418.4 692.466   8
   1  -4 -11 15656.5 640.782  17
   1  -4 -11 12448.2 595.008   5
   1  -4 -10 2835.03 240.241  17
   1  -4 -10 2527.06 269.566   4
   1  -4 -10 2596.78 251.338  15
   1  -4 -10 2197.96 267.118   8
   1  -4 -10 2744.49 265.528   9
   1  -4  -9 406.146 103.598   4
   1  -4  -9 358.660 89.7511  15
  -1   4   8 19484.9 659.294  18
   1  -4  -8 18669.5 762.673   4
  -1   4   7 479.946 78.0905  18
   1  -4  -7 408.431 86.9431   4
  -1   4   6 1692.22 144.252  18
  -1   4   5 20127.6 636.424  18
  -1   4   5 20260.9 533.996   3
  -1   4   4 4110.55 169.890   3
  -1   4   3 35642.7 891.117   3
  -1   4   2 13240.5 398.192   3
   1  -4  -2 11106.2 418.825   2
   1  -4  -1 20276.1 602.771   2
  -1   4   1 18016.7 551.366   3
   1  -4   0 33235.1 928.116   2
  -1   4   0 34750.9 891.187  18
   1  -4   1 59.2800 24.7089   2
  -1   4  -1 86.0168 26.0467  18
  -1   4  -2 11262.2 362.056  18
   1  -4   2 12843.9 454.873   2
   1  -4   3 48387.4 1267.78   2
  -1   4  -3 45017.9 1234.60   1
   1  -4   4 5118.43 286.598   2
  -1   4  -4 4827.41 274.412   1
   1  -4   5 13878.7 550.109   2
  -1   4  -5 13016.0 535.730   1
   1  -4   6 827.976 119.492   2
  -1   4  -6 582.453 104.344   1
  -1   4  -7 431.171 94.1364   6
   1  -4   7 344.537 85.9003   2
  -1   4  -7 362.513 129.554  13
  -1   4  -8 1297.35 152.185  17
  -1   4  -8 1658.35 191.453   6
   1  -4   8 1463.12 183.487   2
  -1   4  -8 1687.91 288.305  13
  -1   4  -9 640.121 195.185  13
  -1   4  -9 557.124 103.360  17
  -1   4  -9 664.156 123.574   6
  -1   4 -10 1439.59 164.062  17
  -1   4 -10 1322.58 179.424   6
  -1   4 -11 819.115 118.152  17
  -1   4 -11 672.675 124.808   6
  -1   4 -12 59.8693 31.3565   6
  -1   4 -13 59.9484 41.2134  15
  -1   4 -13 83.7972 33.9169   6
  -1   4 -14 50.3579 28.7202  15
   1  -3 -16 159.691 43.2869  15
   1  -3 -15 129.705 47.5889  15
   1  -3 -14 230.271 66.5236  15
   1  -3 -13 4824.54 361.087  15
   1  -3 -13 5019.89 327.001   5
   1  -3 -13 5082.33 375.987   8
   1  -3 -12 251.563 84.5419   8
   1  -3 -12 349.206 88.6793  17
   1  -3 -12 308.637 93.5460  15
   1  -3 -12 250.651 73.5743   5
   1  -3 -11 3031.83 292.572  15
   1  -3 -11 3468.15 287.081  17
   1  -3 -11 3327.12 321.896   8
   1  -3 -11 3293.88 269.203   5
   1  -3 -10 9284.52 550.276   8
   1  -3 -10 8282.59 449.812   5
   1  -3 -10 9594.97 514.464   9
   1  -3 -10 9851.20 497.078  17
   1  -3 -10 8723.46 507.283  15
   1  -3  -9 1463.23 182.436   4
   1  -3  -8 126.235 52.0723   4
   1  -3  -7 11398.5 504.906   4
  -1   3   7 11121.1 420.138  18
   1  -3  -6 54180.7 1453.19   4
  -1   3   6 52381.2 1353.53  18
  -1   3   5 20834.7 637.728  18
  -1   3   5 22192.4 537.230   3
  -1   3   4 34756.9 835.162   3
  -1   3   4 37007.8 939.817  18
  -1   3   3 33076.8 795.852   3
  -1   3   2 66250.6 1532.73   3
   1  -3  -1 7151.14 268.247   2
  -1   3   1 6196.92 233.343   3
   1  -3   0 187682. 4203.14   2
  -1   3   0 186009. 4164.29  18
   1  -3   1 24793.9 718.791   2
  -1   3  -1 26785.9 673.911  18
  -1   3  -2 83.7186 19.5838  18
   1  -3   2 125.989 33.1189   2
  -1   3  -3 23983.8 584.355  18
   1  -3   3 24884.6 719.049   2
  -1   3  -3 23126.1 708.858   1
  -1   3  -4 871.483 104.468   1
   1  -3   4 984.760 108.098   2
   1  -3   5 55850.9 1417.99   2
  -1   3  -5 48996.1 1408.30   1
   1  -3   6 30121.0 895.536   2
  -1   3  -6 24894.8 881.884   1
  -1   3  -7 98.1339 47.2245   1
   1  -3   7 202.348 59.5793   2
  -1   3  -8 107.701 39.3581   1
  -1   3  -8 6.73022 33.2704  17
   1  -3   8 99.8576 32.8254   2
  -1   3  -8 52.2590 37.8087   6
  -1   3  -8-18.6622 87.7275  13
  -1   3  -9 15583.7 940.177  13
  -1   3  -9 12922.8 586.844  17
  -1   3  -9 15048.2 645.690   6
  -1   3 -10 41.2014 44.2798  17
  -1   3 -10-131.545 55.0716   6
  -1   3 -11 18054.7 737.828   6
  -1   3 -11 16975.6 684.458  17
  -1   3 -12 4465.18 314.300   6
  -1   3 -12 4407.30 288.706  17
  -1   3 -13 537.453 120.832  15
  -1   3 -13 811.109 112.012   6
  -1   3 -14 1460.05 165.368  15
   1  -2 -16 839.968 91.0469  15
   1  -2 -15 2786.04 218.670  15
   1  -2 -14 1982.36 211.725  15
   1  -2 -13 591.967 117.252   8
   1  -2 -13 551.227 121.446  15
   1  -2 -12 11733.1 603.350   8
   1  -2 -12 12289.1 581.951  17
   1  -2 -12 11792.0 544.065   5
   1  -2 -12 10837.5 615.748  15
   1  -2 -11 100.419 59.4914   8
   1  -2 -11-13.0088 32.1343  15
   1  -2 -11 170.491 63.6824  17
   1  -2 -11 36.6677 24.5421   5
   1  -2 -10 11762.9 609.003   8
   1  -2 -10 11918.3 547.974   5
   1  -2 -10 12265.7 582.112  17
   1  -2 -10 11650.5 619.440  15
   1  -2  -9 8543.92 495.520  15
   1  -2  -9 8775.38 471.544   4
   1  -2  -8 10907.6 505.338   4
  -1   2   7 28696.0 776.553  18
   1  -2  -7 27610.1 895.085   4
  -1   2   7 26854.9 795.798   2
   1  -2  -6 1444.29 140.513   4
   1  -2  -6 1480.06 128.076   1
  -1   2   6 1448.72 112.315  18
  -1   2   5 5955.66 161.033   3
  -1   2   5 6163.10 248.096  18
  -1   2   4 45539.7 1027.33   3
  -1   2   4 47451.9 1137.66  18
  -1   2   3 42384.3 991.503   3
  -1   2   3 49566.9 1091.08  18
  -1   2   2 139495. 3070.96  18
  -1   2   2 135197. 3007.44   3
  -1   2   1 55415.7 1303.93  18
  -1   2   0 81089.4 1862.44  18
   1  -2   0 82382.8 1890.56   2
   1  -2   1 619.271 62.2781   2
  -1   2  -1 591.876 50.1129  18
   1  -2   2 10967.5 373.922   2
  -1   2  -2 12506.3 326.338  18
  -1   2  -3 2143.22 82.9285  18
   1  -2   3 2053.86 134.519   2
  -1   2  -3 2106.88 142.409   1
  -1   2  -4 9.12425 15.3394   1
   1  -2   4 24.1772 16.5934   2
  -1   2  -5 1086.41 124.047   1
   1  -2   5 1187.97 115.311   2
   1  -2   6-1.00712 13.6569   2
  -1   2  -6 7.61452 20.8341   1
   1  -2   7 832.586 111.147   2
  -1   2  -7 945.026 133.770   1
  -1   2  -8 6505.32 400.737   1
   1  -2   8 7843.63 385.632   2
  -1   2  -9 5064.80 365.508   1
  -1   2  -9 6226.30 545.007  13
  -1   2  -9 5713.57 357.930   6
  -1   2  -9 4793.92 330.517  17
  -1   2 -10 8778.29 473.899   6
  -1   2 -10 7763.71 445.054  17
  -1   2 -11 85.3076 44.6234  17
  -1   2 -11-8.58178 34.0796   6
  -1   2 -12 488.362 99.0684  17
  -1   2 -12 600.580 113.461   6
  -1   2 -13 74.1904 27.1667  15
  -1   2 -13 230.042 65.4070  17
  -1   2 -14 684.031 124.560  15
  -1   2 -15 891.371 105.835  15
   1  -1 -15 894.799 119.312  15
   1  -1 -14 1480.46 184.314  15
   1  -1 -13 1511.38 206.972  15
   1  -1 -12 603.797 116.067   8
   1  -1 -12 929.871 147.300  17
   1  -1 -12 766.061 151.822  15
   1  -1 -11 1876.42 212.251  17
   1  -1 -11 1843.77 217.034   8
   1  -1 -11 2179.09 212.423   5
   1  -1 -11 1684.30 233.713  15
   1  -1 -10 3048.93 277.915   8
   1  -1 -10 3068.36 308.966  15
   1  -1 -10 3274.26 278.651  17
   1  -1 -10 2805.30 240.393   5
   1  -1  -9 36707.4 1131.24   5
   1  -1  -9 35901.7 1266.45  15
   1  -1  -9 38497.3 1201.35  17
   1  -1  -8 16122.6 603.775   1
   1  -1  -8 15708.4 628.544   4
  -1   1   8 16480.8 573.040   2
  -1   1   7 2620.11 180.059   2
   1  -1  -7 2573.15 187.608   1
   1  -1  -7 2546.80 199.425   4
   1  -1  -6 24678.4 733.427   1
  -1   1   6 25268.0 671.459  18
  -1   1   6 23672.1 719.377   2
   1  -1  -6 25065.1 774.568   4
  -1   1   5 7030.07 253.774  18
   1  -1  -5 7241.79 288.925   1
   1  -1  -5 7218.57 312.765   4
  -1   1   4 4240.21 172.408  18
   1  -1  -4 4400.19 188.847   1
  -1   1   3 36250.4 885.205  18
  -1   1   2 1428.44 83.1772  18
  -1   1   1 165.667 25.3569  18
   1  -1   0 13764.8 380.975   2
  -1   1   0 13743.1 364.623  18
   1  -1   1 771.337 58.5597   2
  -1   1  -1 721.399 47.5840  18
  -1   1  -2 4684.70 148.372  18
   1  -1   2 4834.55 183.052   2
  -1   1  -3 5975.74 169.354  18
  -1   1  -3 6247.31 249.258   1
  -1   1  -4 10014.9 366.197   1
   1  -1   4 8864.91 320.543   2
  -1   1  -5 44403.1 1177.15   1
   1  -1   5 42039.6 1102.54   2
  -1   1  -6 9878.55 432.521   1
   1  -1   6 10127.5 384.515   2
  -1   1  -7 18777.0 710.072   1
   1  -1   7 20525.7 647.931   2
  -1   1  -8 19598.5 757.932   1
  -1   1  -9 8647.11 463.697  17
  -1   1  -9 8165.21 480.391   1
  -1   1 -10 11424.6 598.985   1
  -1   1 -10 12098.2 582.902  17
  -1   1 -10 13045.7 579.409   6
  -1   1 -11 3719.01 305.750  17
  -1   1 -11 4375.66 315.897   6
  -1   1 -12 14.7432 31.4524  17
  -1   1 -13 13.8759 23.1993  15
  -1   1 -13 79.5340 39.7821  17
  -1   1 -14 153.822 51.0634  17
  -1   1 -14 156.794 74.9227  15
  -1   1 -15 192.219 54.6107  15
   1   0 -15-15.0749 26.1046  15
   1   0 -14 92.2472 51.4612  15
   1   0 -13 1212.70 190.136  15
   1   0 -12 2745.49 250.202  17
   1   0 -12 2278.61 281.702  15
   1   0 -11 44.7877 48.5025  15
   1   0 -11 117.095 62.7386  17
   1   0 -10 22206.6 849.979  17
   1   0 -10 21339.0 829.246   8
   1   0 -10 23705.9 825.765   5
   1   0 -10 20759.9 947.168  15
   1   0  -9 843.170 134.956  17
   1   0  -9 954.480 127.854   5
   1   0  -8 6570.90 344.026   1
  -1   0   8 6696.90 339.771   2
  -1   0   7 16938.1 579.472   2
   1   0  -7 15527.2 564.895   1
   1   0  -7 16458.9 598.112   4
   1   0  -6 1209.27 120.976   4
  -1   0   6 1341.37 124.956   2
   1   0  -6 1234.49 119.045   1
  -1   0   5 31270.4 757.913  18
  -1   0   5 28651.5 833.629   2
   1   0  -5 29912.6 825.549   1
   1   0  -5 30208.1 845.795   4
   1   0  -4 2278.48 139.126   4
   1   0  -4 2194.43 128.453   1
  -1   0   4 1990.31 103.026  18
  -1   0   3 14319.5 395.007  18
   1   0  -3 15559.8 421.629   1
  -1   0   2 4068.66 145.911  18
  -1   0   1 2790.63 108.238  18
  -1   0   0 67837.0 1524.00  18
  -1   0  -1 6144.61 181.844  18
  -1   0  -2 66916.9 1519.50  18
  -1   0  -2 68512.1 1564.82   1
   1   0   2 67982.0 1523.53   2
  -1   0  -3 42657.1 1012.65   1
   1   0   3 39219.7 952.537   2
  -1   0  -4 50065.0 1189.51   1
   1   0   4 44174.6 1099.10   2
  -1   0  -5 31449.9 871.571   1
   1   0   5 29413.5 775.735   2
   1   0   6 9929.41 352.348   2
  -1   0  -6 10766.8 432.034   1
   1   0   7 6279.28 273.807   2
  -1   0  -7 6108.98 338.302   1
  -1   0  -8 2805.66 238.537   1
  -1   0  -9 97.3829 53.5865   1
  -1   0 -10 40132.5 1292.75  17
  -1   0 -10 35334.9 1278.61   1
  -1   0 -11 522.987 109.630  17
  -1   0 -11 335.009 99.9569   1
  -1   0 -12 6462.04 419.796  17
  -1   0 -12 6299.67 489.526  15
  -1   0 -13 3662.64 354.633  15
  -1   0 -13 4177.06 314.408  17
  -1   0 -14 24.0859 24.3580  15
  -1   0 -14 62.3808 44.1292  17
  -1   0 -15 736.875 117.174  15
   1   1 -15 306.140 57.6823  15
   1   1 -14 583.757 110.668  15
   1   1 -13 1779.92 225.126  15
   1   1 -12 37.0730 43.9294  15
   1   1 -11 18697.1 933.736  15
   1   1 -11 23016.2 840.832  17
   1   1 -10 15805.4 678.604  17
   1   1  -9 409.890 92.8707  17
  -1  -1   8 5359.53 317.752   2
   1   1  -8 5624.43 307.442   1
  -1  -1   7 374.743 76.9540   2
   1   1  -7 400.311 72.4858   1
  -1  -1   6 38992.4 1084.26   2
   1   1  -6 38380.1 1054.28   1
   1   1  -5 56513.1 1389.97   4
   1   1  -5 54760.3 1380.73   1
  -1  -1   5 54559.5 1415.67   2
  -1  -1   4 10486.9 288.894  18
   1   1  -4 9889.20 340.036   4
  -1  -1   4 9983.63 368.955   2
  -1  -1   3 328.593 33.7356  18
  -1  -1   3 383.125 53.2641   2
   1   1  -3 320.189 41.8465   4
   1   1  -3 267.690 36.6439   1
   1   1  -2 4496.77 153.105   1
  -1  -1   2 4757.16 157.727  18
  -1  -1   1 31523.2 740.824  18
   1   1  -1 31002.4 720.148   3
   1   1   0 113313. 2496.27   3
  -1  -1   0 113899. 2518.58  18
  -1  -1  -1 4110.53 142.654  18
  -1  -1  -1 4016.32 128.489   1
  -1  -1  -2 60952.4 1400.95   1
   1   1   3 3933.02 114.544   2
  -1  -1  -3 3713.22 166.936   1
  -1  -1  -4 24032.9 686.530   1
   1   1   4 24998.1 590.813   2
  -1  -1  -5 5882.73 268.445   1
   1   1   5 5694.76 194.577   2
   1   1   6 38897.6 948.642   2
  -1  -1  -6 38077.5 1070.32   1
  -1  -1  -7 18733.7 661.875   1
  -1  -1  -8 812.045 122.740   1
  -1  -1  -9 8533.29 460.834   1
  -1  -1 -10 261.008 82.7386  17
  -1  -1 -10 176.508 62.4869   8
  -1  -1 -10 189.856 58.7804   1
  -1  -1 -10 168.596 55.5394   5
  -1  -1 -11 4323.33 349.659   1
  -1  -1 -11 4753.08 358.607  17
  -1  -1 -11 4870.85 338.630   5
  -1  -1 -12 35.2330 41.5700  17
  -1  -1 -12-13.7771 25.1538   5
  -1  -1 -12-3.62736 56.5124  15
  -1  -1 -13 7.22710 34.5007  15
  -1  -1 -13 20.1519 19.5284  17
  -1  -1 -14 20.5270 38.1780  15
  -1  -1 -14 131.123 48.6284  17
  -1  -1 -15 38.4515 34.1221  15
  -1  -1 -15 0.62871 23.0975  17
  -1  -1 -16 79.0417 34.4910  15
   1   2 -14-12.1070 22.4667  15
   1   2 -13 47.7360 40.1585  15
   1   2 -12 2748.94 308.079  15
   1   2 -11 297.152 107.917  15
   1   2 -10 12930.8 586.685  17
   1   2  -9 1112.49 156.150   6
   1   2  -9 1303.54 163.116  17
   1   2  -8 1245.97 234.830  13
   1   2  -8 1221.49 152.954  17
  -1  -2   8 1255.07 152.830   2
  -1  -2   7 2900.37 226.385   2
  -1  -2   6 1433.25 145.646   2
   1   2  -6 1266.89 120.379   1
  -1  -2   5 673.401 91.0354   2
   1   2  -5 841.289 87.5219   1
   1   2  -4 1615.01 110.453   1
  -1  -2   4 1556.22 131.229   2
   1   2  -3 7983.82 266.824   1
  -1  -2   3 7990.17 315.750   2
   1   2  -3 8397.87 263.383   4
   1   2  -2 1212.16 64.9900   1
   1   2  -2 1170.38 64.0355   4
  -1  -2   2 1149.69 93.3867   2
   1   2  -2 1032.35 76.3072   3
   1   2  -1 8547.10 263.491   3
  -1  -2   1 9315.88 296.425   2
   1   2   0 240.721 25.6078   3
  -1  -2   0 228.075 31.3008   2
  -1  -2  -1 1419.16 58.3937   1
   1   2   1 1360.97 73.1113   3
  -1  -2  -1 1451.28 70.7323   2
  -1  -2  -2 33675.3 748.659   2
  -1  -2  -2 31987.3 791.721   1
  -1  -2  -3 73390.3 1702.12   1
  -1  -2  -4 36418.5 936.685   1
   1   2   5 10402.6 254.838   2
  -1  -2  -5 14520.7 429.530   1
  -1  -2  -6 480.061 74.0543   1
  -1  -2  -7 129.418 42.1759   1
  -1  -2  -8 61005.4 1661.02   1
  -1  -2  -9 17736.8 707.544   1
  -1  -2 -10 3725.84 287.155   5
  -1  -2 -10 4552.35 315.909  12
  -1  -2 -10 4174.50 318.413   1
  -1  -2 -10 3967.39 313.936  17
  -1  -2 -10 4248.08 320.006   8
  -1  -2 -10 3534.65 304.833  15
  -1  -2 -11 42888.5 1460.72  15
  -1  -2 -11 42774.7 1408.70   1
  -1  -2 -11 48561.0 1457.68   8
  -1  -2 -11 45009.2 1381.65   5
  -1  -2 -11 46377.8 1456.32  17
  -1  -2 -12 35780.0 1296.10  15
  -1  -2 -12 37493.5 1276.23  17
  -1  -2 -12 37402.7 1218.47   5
  -1  -2 -13 83.7499 41.9131   5
  -1  -2 -13 171.524 64.6515  15
  -1  -2 -13 245.899 75.5289  17
  -1  -2 -14 9582.33 533.875  15
  -1  -2 -14 10417.7 528.073  17
  -1  -2 -15 2637.12 231.990  15
  -1  -2 -15 3057.14 236.613  17
  -1  -2 -16 25.8434 12.7123  15
   1   3 -14 599.023 87.2968  15
   1   3 -13 996.323 150.067  15
   1   3 -12 126.935 58.4738  15
   1   3 -11 386.169 116.978  15
   1   3 -11 585.332 111.973   6
   1   3 -10 812.748 137.283   6
   1   3  -9 18459.9 1056.58  13
   1   3  -9 16705.3 727.972   6
   1   3  -9 17250.0 690.489  17
   1   3  -8 10855.5 543.469   6
   1   3  -8 12821.6 816.958  13
   1   3  -8 11750.6 521.178  17
  -1  -3   8 9732.14 506.612   2
  -1  -3   7 1174.29 151.358   2
  -1  -3   6 11687.1 507.426   2
  -1  -3   5 329.523 68.8983   2
  -1  -3   4 21986.5 688.325   2
   1   3  -4 21016.5 597.673   1
  -1  -3   3 7364.05 312.869   2
   1   3  -3 7082.03 242.700   1
   1   3  -2 8861.03 250.116   1
  -1  -3   2 9453.31 337.061   2
  -1  -3   1 94.9765 26.6791   2
   1   3  -1 102.575 24.4954   3
   1   3   0 42512.4 1022.26   3
  -1  -3   0 43135.7 1038.92   2
  -1  -3  -1 3971.56 153.273   2
   1   3   1 3742.32 143.345   3
  -1  -3  -2 638.330 47.0154   2
  -1  -3  -2 603.839 46.9063   1
   1   3   2 656.372 55.5642   3
  -1  -3  -3 90501.2 2107.55   1
  -1  -3  -3 90853.2 2117.93   4
  -1  -3  -3 93626.0 2029.96   2
   1   3   3 90301.5 2109.52   3
  -1  -3  -4 99916.1 2351.14   1
  -1  -3  -4 103514. 2370.38   4
  -1  -3  -5 9404.69 364.384   4
  -1  -3  -5 9253.49 352.540   1
  -1  -3  -6 4614.62 245.290   1
  -1  -3  -7 458.403 77.1943   1
  -1  -3  -8 47.2813 35.5559   1
  -1  -3  -9 1017.38 141.120   1
  -1  -3 -10 741.590 123.362  12
  -1  -3 -10 1160.36 163.432  17
  -1  -3 -10 882.710 135.653   1
  -1  -3 -10 729.828 133.364   8
  -1  -3 -10 682.422 123.924   9
  -1  -3 -11 44.1446 42.6127   5
  -1  -3 -11 196.853 49.4175   8
  -1  -3 -11 62.4639 51.4199  15
  -1  -3 -11 154.243 49.6563   1
  -1  -3 -11 60.9829 37.6220  17
  -1  -3 -11 233.835 80.2753  12
  -1  -3 -12 677.974 123.789   5
  -1  -3 -12 726.861 133.888  15
  -1  -3 -12 788.271 146.767  17
  -1  -3 -13 416.004 95.9307   5
  -1  -3 -13 402.851 98.3845  15
  -1  -3 -13 385.457 107.362  17
  -1  -3 -14 63.0948 41.5601  17
  -1  -3 -14 70.0326 26.4810  15
  -1  -3 -14 37.6313 30.6182   5
  -1  -3 -15 162.650 53.4244  15
  -1  -3 -15 117.232 45.7198  17
  -1  -3 -16 25.9604 13.4871  15
   1   4 -13 815.945 119.482  15
   1   4 -12 78.7437 43.5361  15
   1   4 -11 3677.57 287.483   6
   1   4 -11 2778.26 314.540  15
   1   4 -10 3571.46 300.094   6
   1   4  -9 5491.59 566.905  13
   1   4  -9 5649.97 393.000   6
  -1  -4   8 1843.82 208.164   2
   1   4  -8 1912.27 218.174   6
   1   4  -8 1491.92 287.012  13
   1   4  -7 755.820 195.391  13
   1   4  -7 497.510 110.802   6
  -1  -4   7 793.372 131.617   2
   1   4  -7 757.257 111.968  17
  -1  -4   6 13380.7 583.790   2
  -1  -4   5 1104.60 138.167   2
  -1  -4   4 21256.8 721.727   2
  -1  -4   3 911.243 107.196   2
  -1  -4   2 23059.6 686.773   2
   1   4  -2 21883.0 659.338   3
   1   4  -1 126744. 2868.96   3
  -1  -4   1 122694. 2884.76   2
  -1  -4   0 47091.3 1157.45   2
   1   4   0 45324.8 1133.29   3
   1   4   1 4534.72 183.223   3
  -1  -4  -1 4263.54 187.277   2
  -1  -4  -2 72.8890 17.4860   2
   1   4   2 40.7772 15.2475   3
  -1  -4  -3 24532.2 655.090   4
  -1  -4  -3 23765.2 611.226   2
  -1  -4  -3 25060.3 634.372   1
   1   4   3 25339.7 651.172   3
  -1  -4  -4 4731.58 206.269   1
  -1  -4  -4 4363.42 214.468   4
   1   4   4 4689.30 200.955   3
   1   4   5 57964.8 1417.11   3
  -1  -4  -5 58075.3 1475.74   4
  -1  -4  -5 57846.0 1436.15   1
   1   4   6 1064.49 98.2984   3
  -1  -4  -6 1149.99 112.998   1
  -1  -4  -6 1218.23 130.168   4
   1   4   7 145142. 3410.12   3
  -1  -4  -7 152630. 3490.80   1
  -1  -4  -8 52278.7 1412.52   1
   1   4   8 50528.8 1323.00   3
  -1  -4  -9 1238.72 150.848   1
   1   4   9 1331.15 125.299   3
  -1  -4 -10 72220.5 2093.30   8
  -1  -4 -10 72726.9 2010.64  12
  -1  -4 -10 72183.6 1977.97   1
  -1  -4 -10 75893.8 2065.73   9
  -1  -4 -11 9403.77 501.636  15
  -1  -4 -11 9442.22 529.505  17
  -1  -4 -11 9994.79 572.286   8
  -1  -4 -11 9831.22 522.792  12
  -1  -4 -11 10254.9 560.029   9
  -1  -4 -11 9851.78 514.236   1
  -1  -4 -12 16088.8 719.779   5
  -1  -4 -12 16929.4 728.199  15
  -1  -4 -12 19673.9 848.619   8
  -1  -4 -12 19750.2 803.010  12
  -1  -4 -12 17476.8 779.286  17
  -1  -4 -13 872.762 140.897   5
  -1  -4 -13 896.840 144.252  15
  -1  -4 -13 815.129 146.501  17
  -1  -4 -14 2039.19 210.108  15
  -1  -4 -14 2022.92 223.265  17
  -1  -4 -14 1911.96 203.288   5
  -1  -4 -15 1844.83 189.625  17
  -1  -4 -15 2217.63 204.031   5
  -1  -4 -15 1996.69 188.399  15
  -1  -4 -16 2260.89 180.580  17
   1   5 -13 90.8268 32.3972  15
   1   5 -12 260.427 75.9180  15
   1   5 -11 317.697 93.7800  15
   1   5 -11 390.102 86.4807   6
   1   5 -10 70.3330 54.2608   6
   1   5  -9 3209.92 289.516   6
   1   5  -9 2386.56 367.309  13
   1   5  -8 24.1990 24.2849   6
   1   5  -8-5.67817 50.8806  13
  -1  -5   7 1156.76 169.168   2
   1   5  -7 1105.86 238.068  13
   1   5  -7 1238.29 171.525   6
   1   5  -6 731.125 192.102  13
  -1  -5   6 863.714 136.777   2
   1   5  -6 866.402 135.354   6
  -1  -5   5 179.920 58.6998   2
  -1  -5   4 554.744 98.3467   2
  -1  -5   3 4211.33 263.989   2
  -1  -5   2 135.639 42.9254   2
   1   5  -2 50.5156 15.2566   3
   1   5  -1 30004.6 809.652   3
  -1  -5   1 25685.6 797.581   2
   1   5   0 5896.99 253.034   3
  -1  -5   0 5304.58 251.341   2
   1   5   1 21464.9 623.632   3
  -1  -5  -1 22655.8 632.760   2
  -1  -5  -2 37016.5 942.818   2
   1   5   2 36452.0 935.053   3
  -1  -5  -3 238.864 41.1998   4
   1   5   3 363.092 48.3791   3
  -1  -5  -3 320.787 44.0342   2
  -1  -5  -4 12203.6 386.376   1
   1   5   4 11946.0 387.229   3
  -1  -5  -4 13050.7 365.948   2
  -1  -5  -5 5388.27 276.785   4
   1   5   5 5878.08 246.043   3
  -1  -5  -5 5948.52 257.113   1
   1   5   6 3145.79 176.623   3
  -1  -5  -6 2703.53 206.116   4
  -1  -5  -6 3109.59 191.413   1
   1   5   7 910.485 94.0880   3
  -1  -5  -7 952.186 110.132   1
   1   5   8 3900.94 215.783   3
  -1  -5  -8 3915.34 251.819   1
  -1  -5  -9 1190.58 141.287   1
   1   5   9 1170.53 115.861   3
  -1  -5 -10 2007.59 225.608   9
  -1  -5 -10 1744.45 220.461   8
  -1  -5 -10 1873.55 207.475  12
  -1  -5 -10 1884.90 190.593   1
  -1  -5 -11 9380.94 516.128  17
  -1  -5 -11 8438.24 540.911   8
  -1  -5 -11 9901.16 549.400   9
  -1  -5 -11 10018.0 501.781   1
  -1  -5 -11 10024.8 532.871  12
  -1  -5 -11 9163.11 471.913  15
  -1  -5 -12 1592.55 196.200   5
  -1  -5 -12 2117.04 213.533  15
  -1  -5 -12 2397.53 277.369   8
  -1  -5 -12 2100.57 236.000  12
  -1  -5 -12 2133.60 247.632   9
  -1  -5 -12 2092.14 232.782  17
  -1  -5 -13 3519.72 274.744  15
  -1  -5 -13 3275.93 288.057   5
  -1  -5 -13 3349.13 298.255  17
  -1  -5 -14 26.6560 25.1460  15
  -1  -5 -14-18.3923 37.4794   5
  -1  -5 -14-17.1242 37.5742  17
  -1  -5 -15 261.513 75.7336   5
  -1  -5 -15 302.371 65.8822  15
  -1  -5 -15 304.020 72.3979  17
  -1  -5 -16 5980.23 301.752  17
   1   6 -12 91.2646 37.5688  15
   1   6 -11 463.643 87.0060   6
   1   6 -11 472.018 100.399  15
   1   6 -10 1967.85 206.134   6
   1   6  -9 2761.60 263.551   6
   1   6  -9 2439.16 360.299  13
   1   6  -8-34.7208 85.8727  13
   1   6  -8 21.5137 26.8498   6
  -1  -6   7 1131.50 175.145   2
   1   6  -7 917.555 223.933  13
   1   6  -7 1158.62 170.348   6
   1   6  -6 2126.75 338.009  13
   1   6  -6 2503.43 252.081   6
  -1  -6   6 2496.95 255.014   2
   1   6  -5 5904.64 382.080   6
  -1  -6   5 5372.68 366.792   2
  -1  -6   4 19044.7 735.003   2
  -1  -6   3 17555.0 661.941   2
  -1  -6   2 2510.56 199.769   2
   1   6  -1 5191.48 273.860   3
  -1  -6   1 4508.25 260.140   2
   1   6   0 2255.59 161.415   3
  -1  -6   0 1934.22 153.006   2
  -1  -6  -1 9670.16 377.004   2
   1   6   1 9421.61 367.791   3
  -1  -6  -2 502.085 67.4875   2
   1   6   2 473.574 67.5650   3
   1   6   3 1442.17 114.030   3
  -1  -6  -3 1421.88 113.462   2
  -1  -6  -3 1296.34 98.1024   4
   1   6   4 1881.97 128.741   3
  -1  -6  -4 1689.07 120.742   2
  -1  -6  -4 1668.66 131.555   4
  -1  -6  -5 26519.7 821.044   4
   1   6   5 28326.1 761.595   3
   1   6   6 51622.9 1264.80   3
  -1  -6  -6 46788.2 1363.24   4
  -1  -6  -7 22967.4 705.356   1
   1   6   7 21817.0 650.200   3
  -1  -6  -8 7290.46 360.101   1
   1   6   8 7715.93 321.944   3
  -1  -6  -9 18773.2 690.818   1
   1   6   9 19379.7 613.207   3
  -1  -6 -10 736.995 134.969   9
  -1  -6 -10 823.495 141.577  12
  -1  -6 -10 783.516 143.768   8
  -1  -6 -11 6987.36 452.574  12
  -1  -6 -11 8509.92 461.768  17
  -1  -6 -11 7365.75 478.083   9
  -1  -6 -11 7472.09 509.718   8
  -1  -6 -12 326.101 87.5835  17
  -1  -6 -12 418.858 116.307   8
  -1  -6 -12 237.775 81.4271  12
  -1  -6 -12 367.236 83.9404  15
  -1  -6 -12 331.074 96.1369   9
  -1  -6 -13 1719.59 199.340  17
  -1  -6 -13 1619.45 171.172  15
  -1  -6 -13 1879.33 226.604  12
  -1  -6 -13 1596.67 200.621   5
  -1  -6 -14 1871.99 196.513  17
  -1  -6 -14 1587.66 189.549   5
  -1  -6 -14 1662.20 169.518  15
  -1  -6 -15 157.704 52.8110   5
  -1  -6 -15 206.478 57.2607  17
  -1  -6 -16 119.924 42.9230   5
   1   7 -11 32.1711 24.3648   6
   1   7 -11 14.1161 13.5443  15
   1   7 -10 983.680 136.218   6
   1   7  -9 388.190 127.037  13
   1   7  -9 333.782 89.8640   6
   1   7  -8 463.547 109.425   6
   1   7  -8 423.749 128.370  13
   1   7  -7 2468.79 257.093   6
   1   7  -7 2168.81 347.441  13
   1   7  -6 675.146 181.396  13
   1   7  -6 913.641 151.333   6
   1   7  -5 3743.82 309.678   6
  -1  -7   5 3799.73 325.806   2
   1   7  -4 953.350 145.084   6
  -1  -7   4 986.233 154.219   2
  -1  -7   3 39.6649 33.8388   2
  -1  -7   2 19470.3 721.700   2
  -1  -7   1 1527.89 159.600   2
   1   7  -1 1649.94 160.616   3
  -1  -7   0 2310.83 187.357   2
   1   7   0 2528.49 193.192   3
   1   7   1 12355.1 469.693   3
  -1  -7  -1 12737.1 481.940   2
  -1  -7  -2 610.038 84.3575   2
   1   7   2 851.818 101.443   3
  -1  -7  -3 19241.3 597.745   2
   1   7   3 15875.4 564.479   3
  -1  -7  -4 3024.11 181.753   4
   1   7   4 3137.74 194.161   3
  -1  -7  -4 2923.40 187.676   2
   1   7   5 232.582 50.8630   3
  -1  -7  -5 209.225 50.6491   4
  -1  -7  -6 102.830 45.2023   4
   1   7   6 30.2972 21.8010   3
   1   7   7 1049.74 106.635   3
   1   7   8 349.934 60.9923   3
  -1  -7  -9 6224.39 430.430   9
  -1  -7  -9 6020.56 408.619  12
   1   7   9 6297.44 297.262   3
  -1  -7  -9 6321.76 440.086  10
  -1  -7 -10 232.516 83.2580   8
  -1  -7 -10 354.910 104.972   9
  -1  -7 -10 270.431 81.5767  12
  -1  -7 -10 274.407 81.2520  10
  -1  -7 -11 35.9071 34.3874  12
  -1  -7 -11 39.8211 18.4262   8
  -1  -7 -11-4.53618 36.0809   9
  -1  -7 -12 282.057 79.7864  12
  -1  -7 -12 358.817 103.473   8
  -1  -7 -12 279.227 85.2331   9
  -1  -7 -13 19936.5 839.757  12
  -1  -7 -13 19439.2 862.843   9
  -1  -7 -14 3897.20 308.310   5
  -1  -7 -15 1374.72 162.185   5
  -1  -7 -16 4331.04 265.970   5
   1   8 -10 861.648 124.256  15
   1   8 -10 1001.52 121.754   6
   1   8  -9 35.6189 19.6171   6
   1   8  -8 58.3286 26.9735   6
   1   8  -8 56.2905 40.5784  13
   1   8  -7 2576.53 257.137   6
   1   8  -7 2973.41 392.163  13
   1   8  -6 5687.72 556.321  13
   1   8  -6 4655.98 357.745   6
   1   8  -5 1618.30 202.742   6
   1   8  -4 509.390 112.293   6
  -1  -8   4 677.529 130.749   2
   1   8  -3 67.5078 61.0140   6
  -1  -8   3 35.4492 32.1392   2
   1   8  -2 11701.1 555.793   6
  -1  -8   2 12479.3 574.478   2
  -1  -8   1 21374.8 787.241   2
   1   8   0 913.695 126.311   3
  -1  -8   0 920.569 126.470   2
  -1  -8  -1 6104.36 335.960   2
   1   8   1 6661.65 344.879   3
   1   8   2 5373.13 300.900   3
  -1  -8  -2 5840.96 314.528   2
   1   8   3 23689.4 789.990   3
  -1  -8  -3 26918.0 828.748   2
  -1  -8  -4 10486.0 433.783   2
   1   8   4 8769.23 401.310   3
   1   8   5 33597.9 985.113   3
   1   8   6 2286.79 181.178   3
   1   8   7 438.890 77.9702   3
   1   8   8 58.3008 27.5887   3
  -1  -8  -8 67.7615 46.8017  10
  -1  -8  -9 9536.83 556.606  12
  -1  -8  -9 10539.1 615.186  10
  -1  -8  -9 10545.2 611.636   9
  -1  -8  -9 11454.9 565.228   8
  -1  -8 -10 1582.92 211.749  12
  -1  -8 -10 1490.37 223.493  10
  -1  -8 -10 1377.04 212.014   9
  -1  -8 -10 1751.20 219.336   8
  -1  -8 -11 24.0457 33.8143   8
  -1  -8 -11 38.5049 30.3587   9
  -1  -8 -11 22.0580 42.3328  12
  -1  -8 -12 444.097 123.693   9
  -1  -8 -12 418.694 115.126  12
  -1  -8 -13 48.5086 30.8040  12
  -1  -8 -13 50.0856 30.6946   9
  -1  -8 -14 10.8896 28.6600   5
  -1  -8 -15-3.53269 30.7670   5
  -1  -8 -16 108.363 38.8139   5
   1   9  -9 653.221 98.6969   6
   1   9  -8 218.818 66.8974   6
   1   9  -8 219.659 96.0847  13
   1   9  -7 242.724 111.031  13
   1   9  -7 212.049 68.7697   6
   1   9  -6 1415.34 190.924   6
   1   9  -6 1392.09 266.920  13
   1   9  -5 137.306 53.7755   6
   1   9  -4 12414.6 617.733   6
  -1  -9   3 34.6286 43.0816   2
   1   9  -3 33.2464 31.9584   6
  -1  -9   3-28.8512 46.1494   7
  -1  -9   2 23.6052 47.6445   7
  -1  -9   2 11.0663 20.9551   2
   1   9  -2 4.82486 34.2372   6
  -1  -9   1 7645.93 473.295   7
  -1  -9   1 8252.85 462.154   2
   1   9  -1 7889.46 441.402   6
  -1  -9   0 721.711 121.199   2
  -1  -9   0 694.852 133.278   7
  -1  -9  -1 1550.56 172.402   2
   1   9   1 1354.11 160.784   3
   1   9   2 195.675 57.6351   3
  -1  -9  -2 149.191 57.4473   2
   1   9   3 14232.1 582.919   3
  -1  -9  -3 15710.5 613.835   2
   1   9   4 382.497 79.2530   3
   1   9   5 13315.5 546.212   3
   1   9   6 856.689 119.595   3
  -1  -9  -7 198.411 76.1869  10
  -1  -9  -7 145.195 76.7720  12
   1   9   7 158.076 47.7134   3
   1   9   8 8763.44 417.939   3
  -1  -9  -8 7629.46 499.864  12
  -1  -9  -8 8710.44 572.865   9
  -1  -9  -8 9471.81 604.464  10
  -1  -9  -9 962.808 164.725  12
  -1  -9  -9 978.336 147.853   8
  -1  -9  -9 883.238 178.497  10
  -1  -9  -9 754.187 162.695   9
  -1  -9 -10 135.097 69.5090   8
  -1  -9 -10 83.0637 57.3256  12
  -1  -9 -10 11.5113 53.8656  10
  -1  -9 -10 117.900 55.4070   9
  -1  -9 -11 24003.6 1033.99   9
  -1  -9 -11 24810.6 1052.58  10
  -1  -9 -11 21874.1 942.024  12
  -1  -9 -12 3572.05 350.815   9
  -1  -9 -12 3277.36 314.806  12
  -1  -9 -13 940.832 161.201  12
  -1  -9 -13 989.566 170.878   9
  -1  -9 -14 246.435 83.9731   9
  -1  -9 -14 351.964 95.6289  12
  -1  -9 -15 1082.33 144.054   5
  -1  -9 -16 1426.80 141.826   5
   1  10  -9 160.851 40.2506   6
   1  10  -8 1.19983 17.5533   6
   1  10  -7 41.1480 31.7179  13
   1  10  -7 16.7008 32.5201   6
   1  10  -6 1079.28 154.651   6
   1  10  -6 1558.89 255.256  13
   1  10  -5 40.8891 50.1598  13
   1  10  -5 68.0568 45.3742   6
   1  10  -4 3220.26 287.856   6
  -1 -10   3 1698.95 203.961   7
   1  10  -3 1653.43 203.797   6
  -1 -10   2 354.941 105.765   7
   1  10  -2 481.926 110.922   6
  -1 -10   1 580.639 123.997   7
  -1 -10   1 710.100 133.873   2
   1  10  -1 716.346 127.794   6
   1  10   0 1540.32 185.038   6
  -1 -10   0 1257.37 193.283   7
  -1 -10   0 1339.43 180.960   2
  -1 -10  -1 15105.0 726.864   7
  -1 -10  -1 14479.0 654.251   2
  -1 -10  -2 433.109 114.386   7
  -1 -10  -2 627.819 120.283   2
   1  10   2 232.143 74.4320   3
  -1 -10  -3 1278.22 193.220   7
   1  10   3 1271.41 160.675   3
  -1 -10  -4 3663.45 337.955   7
  -1 -10  -4 3881.88 330.735  12
   1  10   4 4004.29 291.837   3
  -1 -10  -4 4208.17 384.694  10
  -1 -10  -5 230.891 78.0335  12
  -1 -10  -5 328.632 98.2684   7
   1  10   5 254.029 67.6376   3
  -1 -10  -6 623.754 137.120   7
  -1 -10  -6 621.968 155.625  10
  -1 -10  -6 613.497 137.137  12
   1  10   6 744.449 117.308   3
  -1 -10  -7 2106.01 253.293   7
   1  10   7 2762.92 233.174   3
  -1 -10  -7 2508.17 275.672  12
  -1 -10  -7 1882.35 273.680  10
  -1 -10  -8 1065.53 184.486  12
  -1 -10  -8 735.105 161.148   9
  -1 -10  -8 753.860 178.714  10
   1  10   8 1276.35 155.919   3
  -1 -10  -9-0.39990 32.8706  10
  -1 -10  -9-1.22598 26.5851  12
  -1 -10  -9 30.4061 29.5952   9
  -1 -10 -10-8.12663 26.7702  10
  -1 -10 -10 17.3802 26.1575  12
  -1 -10 -10-37.7250 30.5151   9
  -1 -10 -11 25.5764 20.5718  12
  -1 -10 -11 2.88155 42.2416   9
  -1 -10 -12 266.279 98.5241   9
  -1 -10 -12 257.975 83.8744  12
  -1 -10 -13-14.2171 30.8282   9
  -1 -10 -13-33.1486 31.5892  12
  -1 -10 -14 254.978 75.7618  12
  -1 -10 -14 190.456 76.6404   9
  -1 -10 -15 131.109 45.7102   5
  -1 -10 -16 126.368 36.9401   5
   1  11  -7 35.7740 34.4241  13
   1  11  -7 36.7718 20.3931   6
   1  11  -6 262.808 89.1814  13
   1  11  -6 315.655 78.0440   6
   1  11  -5 102.127 89.5477  13
   1  11  -5 41.3261 24.3870   6
   1  11  -4 71.1494 46.5587   6
  -1 -11   3 1598.02 198.636   7
   1  11  -3 1639.01 197.073   6
   1  11  -2 8376.58 474.747   6
  -1 -11   2 8549.43 511.327   7
   1  11  -1 1382.01 179.247   6
  -1 -11   1 1221.26 189.468   7
  -1 -11   0 2795.53 294.087   7
  -1 -11  -1 700.946 143.827   7
  -1 -11  -1 887.781 152.133   2
  -1 -11  -2 11596.1 645.437   7
  -1 -11  -3 1009.99 181.038   7
   1  11   3 1262.55 173.435   3
  -1 -11  -3 1380.49 217.366  10
   1  11   4 1518.86 189.486   3
  -1 -11  -4 1309.06 187.555  12
  -1 -11  -4 1445.21 226.483  10
  -1 -11  -4 1249.92 201.111   7
  -1 -11  -5 3516.73 348.509   7
   1  11   5 3927.49 306.075   3
  -1 -11  -5 3838.77 336.435  12
  -1 -11  -5 3999.07 401.696  10
  -1 -11  -6 4700.75 406.268   7
   1  11   6 5078.96 346.523   3
  -1 -11  -6 4503.35 437.643  10
  -1 -11  -6 4953.10 388.045  12
  -1 -11  -7-21.4122 65.0819  10
  -1 -11  -7-19.1449 54.4908   7
  -1 -11  -7-24.4595 63.4731  12
   1  11   7 24.4764 26.2039   3
  -1 -11  -7 68.5082 44.9380   9
  -1 -11  -8 24315.9 1161.78  10
  -1 -11  -8 25781.0 1151.90   9
  -1 -11  -9 413.048 122.930   9
  -1 -11  -9 208.956 83.4674  10
  -1 -11  -9 382.390 103.158  12
  -1 -11 -10 9773.08 642.208   9
  -1 -11 -10 10372.2 681.724  10
  -1 -11 -11 5852.05 472.519   9
  -1 -11 -11 6846.98 448.692  12
  -1 -11 -11 5507.45 464.420  10
  -1 -11 -12 260.243 84.8563  12
  -1 -11 -12 268.053 102.944   9
  -1 -11 -13 2939.34 297.058   9
  -1 -11 -13 4607.50 323.365  12
  -1 -11 -14 1787.64 182.212  12
  -1 -11 -14 1219.64 173.207   9
  -1 -11 -15 786.185 111.779   5
  -1 -11 -16-27.2060 17.7961   5
   1  12  -6-23.9898 37.9155  13
   1  12  -6-1.98793 12.7765   6
   1  12  -5 296.367 93.6650  13
   1  12  -5 324.280 72.6597   6
   1  12  -4 2992.77 240.471   6
   1  12  -4 3658.98 363.156  13
   1  12  -3 291.925 75.7675   6
  -1 -12   2 857.916 145.803   7
   1  12  -2 769.028 128.217   6
  -1 -12   1 2308.94 255.341   7
   1  12  -1 2432.14 229.364   6
  -1 -12   0 1447.13 207.710   7
  -1 -12  -1 1186.90 195.301   7
  -1 -12  -2 583.082 134.244   7
  -1 -12  -3 2001.55 254.973   7
  -1 -12  -3 1862.91 258.978  10
  -1 -12  -4 29.8146 44.7553   7
  -1 -12  -4 16.6835 27.0970  10
  -1 -12  -5 2.01205 48.2599  10
  -1 -12  -5 39.3753 58.7167   7
  -1 -12  -6-34.6496 32.8698  10
  -1 -12  -6-8.34487 31.8120   7
  -1 -12  -7 171.971 83.9800   9
  -1 -12  -7 198.209 87.8333  10
  -1 -12  -7 101.130 42.7982  12
  -1 -12  -8 72.1170 63.5400  10
  -1 -12  -8 15.6122 67.5747   9
  -1 -12  -8-28.5254 27.0550  12
  -1 -12  -9 1420.42 247.682  10
  -1 -12  -9 1843.52 265.040   9
  -1 -12  -9 2114.36 237.761  12
  -1 -12 -10 242.979 84.7334   9
  -1 -12 -10 243.090 75.6222  12
  -1 -12 -10 153.873 74.3311  10
  -1 -12 -11 13.6143 38.3382  12
  -1 -12 -11 35.3872 24.0215   9
  -1 -12 -11 41.3288 58.8093  10
  -1 -12 -12 372.102 104.153   9
  -1 -12 -12 634.449 110.908  12
  -1 -12 -13 130.420 48.6185  12
  -1 -12 -13 102.984 55.9609   9
  -1 -12 -14 10.3578 22.6833   9
  -1 -12 -15 670.649 92.0950   5
   1  13  -5 142.532 51.4655  13
  -1 -13   5 135.717 43.0186  10
   1  13  -4 133.684 56.6070  13
   1  13  -4 126.975 40.9200   6
   1  13  -3 360.668 71.6746   6
   1  13  -3 534.336 125.708  13
   1  13  -2 556.490 97.5271   6
  -1 -13   0 4408.47 352.955   7
  -1 -13  -1 3404.99 324.741  10
  -1 -13  -1 3069.82 302.858   7
  -1 -13  -2 40.0835 25.1644  10
  -1 -13  -2 96.8275 59.1558   7
  -1 -13  -3 1113.65 186.867   7
  -1 -13  -3 1433.98 221.151  10
  -1 -13  -4 4249.25 377.788   7
  -1 -13  -4 4279.55 395.094  10
  -1 -13  -5 5989.60 456.436   7
  -1 -13  -5 6605.05 517.855  10
  -1 -13  -6 1277.71 218.919  10
  -1 -13  -7 266.366 102.345  10
  -1 -13  -7 267.124 90.9379   9
  -1 -13  -8 2144.53 272.465   9
  -1 -13  -8 1958.51 279.141  10
  -1 -13  -9 3115.50 322.019   9
  -1 -13  -9 2918.24 335.862  10
  -1 -13 -10 8751.73 550.739   9
  -1 -13 -10 9586.62 474.916  12
  -1 -13 -10 9013.65 586.795  10
  -1 -13 -11 237.579 83.3032   9
  -1 -13 -11 153.374 50.8719  12
  -1 -13 -11 221.102 91.4126  10
  -1 -13 -12 511.309 84.7700  12
  -1 -13 -12 458.184 106.308   9
  -1 -13 -13 27.5142 18.4837   9
  -1 -13 -14 185.854 51.3483   9
  -1 -13 -15-13.9643 18.7501   5
   1  14  -3 19.2590 14.0149  13
  -1 -14   3 22.5007 18.1127  10
  -1 -14   2 697.252 112.703  10
   1  14  -2 909.177 154.655  13
  -1 -14   1 645.692 115.214  10
  -1 -14   0 268.395 78.8008  10
  -1 -14  -1 1778.40 214.696  10
  -1 -14  -2 38.8721 22.1041  10
  -1 -14  -3 864.266 154.263   7
  -1 -14  -3 964.666 165.300  10
  -1 -14  -4 929.921 170.060  10
  -1 -14  -5 2087.79 263.831  10
  -1 -14  -6 462.867 124.297  10
  -1 -14  -6 561.154 125.788   9
  -1 -14  -7 537.288 130.313  10
  -1 -14  -7 552.750 117.967   9
  -1 -14  -8 221.648 92.4321  10
  -1 -14  -8 286.853 79.2187   9
  -1 -14  -9 51.2990 20.7810   9
  -1 -14  -9 44.5419 38.7064  10
  -1 -14 -10 1182.66 169.507   9
  -1 -14 -10 1397.92 197.378  10
  -1 -14 -11 108.113 54.0154   9
  -1 -14 -11 104.333 63.3386  10
  -1 -14 -12 41.2576 27.1451   9
  -1 -14 -13 337.060 67.0748   9
  -1 -14 -14 28.0560 18.0839   5
   1  15  -1 128.775 54.5246  13
  -1 -15   1 126.475 43.4314  10
  -1 -15   0-11.9963 21.2878  10
  -1 -15  -1 342.223 82.5889  10
  -1 -15  -2 49.9160 28.7333  10
  -1 -15  -3 656.850 123.081  10
  -1 -15  -4 387.345 94.4517  10
  -1 -15  -5 801.737 144.794  10
  -1 -15  -6 317.780 91.6850  10
  -1 -15  -7 434.020 107.945  10
  -1 -15  -8 3070.62 240.232   9
  -1 -15  -8 3008.25 280.835  10
  -1 -15  -9 57.9753 34.6625  10
  -1 -15  -9 45.7022 23.2296   9
  -1 -15 -10 267.975 69.3234   9
  -1 -15 -10 230.430 71.9387  10
  -1 -15 -11 313.919 64.3461   9
  -1 -16  -1 125.591 40.2762  10
  -1 -16  -2 2.27067 24.6789  10
  -1 -16  -3-37.4922 22.4336  10
  -1 -16  -4 555.290 97.3550  10
  -1 -16  -5 32.8754 31.5250  10
  -1 -16  -6 334.141 79.0883  10
  -1 -16  -7 209.027 59.7240  10
  -1 -16  -8 238.718 62.7902  10
  -1 -16  -9 137.187 48.0166  10
  -1 -16 -10 354.941 66.2987  10
   2 -15  -9 198.471 48.9023   9
   2 -15  -8 143.316 39.6898   9
   2 -15  -7 2335.07 198.836   9
   2 -15  -6-7.01236 21.5252   9
   2 -15  -5 382.749 80.6591   9
   2 -15  -4 103.468 44.6111   7
   2 -15  -3 47.1676 29.8148   7
   2 -15  -2 603.233 92.6861   7
   2 -15  -1-9.97995 15.8408   7
   2 -15   0 695.603 89.1490   7
   2 -14 -11 41.3559 26.3951   9
   2 -14 -10 10.1317 18.4056   9
   2 -14  -9 1771.11 190.139   9
   2 -14  -8 83.2497 44.1038   9
   2 -14  -7 789.901 140.383   9
   2 -14  -6 134.225 64.6443   9
   2 -14  -6 123.630 49.7887   7
   2 -14  -5 237.927 65.2014   7
   2 -14  -4 13.8548 22.3476   7
   2 -14  -3 111.666 43.3615   7
   2 -14  -2 462.152 95.6707   7
   2 -14  -1 882.196 130.602   7
   2 -14   0 33.9994 32.5610   7
   2 -14   1 888.200 121.739   7
   2 -14   2 579.772 87.0893   7
   2 -13 -12 618.176 92.4428   9
   2 -13 -11 51.5384 38.8802   9
   2 -13 -10 938.957 149.496   9
   2 -13  -9 79.0582 63.1180   9
   2 -13  -8 2019.07 252.842   9
   2 -13  -7 36.8937 33.8501   9
   2 -13  -6 78.2453 50.4663   7
   2 -13  -5 1587.19 203.198  10
   2 -13  -5 1640.80 192.255   7
   2 -13  -4 640.142 117.478   7
   2 -13  -4 631.037 122.064  10
   2 -13  -3 2051.45 219.146   7
   2 -13  -3 2158.21 233.313  10
   2 -13  -2 184.489 60.8109   7
   2 -13  -2 273.158 81.4385  10
   2 -13  -1 52.8963 25.0216   7
   2 -13  -1 55.4509 42.6030  10
   2 -13   0 2428.75 236.030   7
   2 -13   0 2596.49 238.654  10
   2 -13   1 1392.88 172.999   7
   2 -13   1 1578.45 179.697  10
   2 -13   2 3755.93 263.781  10
   2 -13   2 3406.33 263.144   7
  -2  13  -2 4009.80 316.756  13
   2 -13   3 1921.67 177.637   7
  -2  13  -3 2009.05 200.829  13
   2 -13   3 2178.65 180.783  10
   2 -12 -13 1092.45 121.997   9
   2 -12 -12 105.702 50.4994   9
   2 -12 -11 619.175 122.355   9
   2 -12 -10 929.763 163.383   9
   2 -12  -9 36.4073 36.4916   9
   2 -12  -8 1139.96 155.376  16
   2 -12  -8 1204.67 213.142   9
   2 -12  -7 6136.02 401.614  16
   2 -12  -7 6324.70 436.126  10
   2 -12  -6 124.591 50.7224   7
   2 -12  -6 100.915 43.9229  16
   2 -12  -6 23.5795 24.3830  10
   2 -12  -5 140.435 66.6497   7
   2 -12  -5 181.600 77.7545  10
   2 -12  -5 123.002 57.2426  16
   2 -12  -4 1707.49 208.729   7
   2 -12  -4 1963.18 246.771  10
   2 -12  -4 1482.86 204.879  16
   2 -12  -3 1068.77 176.218  16
   2 -12  -3 1161.75 171.382   7
   2 -12  -3 1199.01 188.502  10
   2 -12  -2 1059.61 165.421   7
   2 -12  -2 1148.82 180.896  10
   2 -12  -1 1012.47 166.193  10
   2 -12  -1 1001.70 156.160   7
   2 -12   0 2592.03 259.131   7
   2 -12   0 2772.23 269.998  10
   2 -12   1 1323.39 178.293   7
   2 -12   1 1327.60 180.388  10
   2 -12   2 4439.27 330.167   7
   2 -12   3 65.0969 37.8103   7
  -2  12  -3 51.9744 37.1395  13
   2 -12   4 259.776 66.4891   7
  -2  12  -4 297.268 77.5013  13
  -2  12  -5 98.2090 33.2146  13
   2 -11 -13-6.34925 26.8564   9
   2 -11 -13-14.6538 14.9157   5
   2 -11 -12 1842.69 207.662   9
   2 -11 -11 266.047 90.2572   9
   2 -11 -10 1748.80 243.280   9
   2 -11  -9 128.127 76.1445   9
   2 -11  -8 103.808 54.8927  16
   2 -11  -8 111.423 56.4445  10
   2 -11  -7 332.470 92.0658  16
   2 -11  -7 444.494 119.411  10
   2 -11  -6 453.652 111.267  16
   2 -11  -6 494.073 118.069  10
   2 -11  -5 78.5790 54.6670   7
   2 -11  -5 20.9283 28.3783  16
   2 -11  -5 22.9769 34.7289  10
   2 -11  -4 3979.27 354.410  16
   2 -11  -4 4441.72 344.649   7
   2 -11  -4 4881.79 408.195  10
   2 -11  -3 1896.72 222.984   7
   2 -11  -3 2095.04 255.536  16
   2 -11  -3 2330.70 271.387  10
   2 -11  -2 682.767 131.436   7
   2 -11  -2 555.404 128.730  10
   2 -11  -2 713.313 149.030  16
   2 -11  -1 1768.27 224.325  10
   2 -11  -1 1530.25 197.689   7
   2 -11   0 181.191 68.4259   7
   2 -11   1 2533.16 261.141   7
   2 -11   2 10159.7 550.736   7
   2 -11   3 69.2902 39.3721   7
   2 -11   4-16.5235 27.2898   7
  -2  11  -4 44.7138 55.2657  13
  -2  11  -4 50.0190 29.1922   6
   2 -11   5 83.5707 48.9681   7
  -2  11  -5 48.0466 23.0007   6
  -2  11  -6 1252.68 169.846  13
  -2  11  -6 1243.88 134.780   6
  -2  11  -7 768.847 95.6538   6
   2 -10 -13 542.183 90.4108   8
   2 -10 -13 449.990 93.8374   9
   2 -10 -13 460.700 77.9128   5
   2 -10 -12 59.2656 42.9514   8
   2 -10 -12-8.17920 30.4441   9
   2 -10 -11 483.753 97.1980   8
   2 -10 -11 380.088 109.784   9
   2 -10 -10 704.046 119.958   8
   2 -10 -10 477.527 129.837   9
   2 -10  -9 1952.46 280.375   9
   2 -10  -8 9653.54 512.400  16
   2 -10  -8 8723.45 634.269   9
   2 -10  -8 9223.27 556.080  10
   2 -10  -7 36.0638 18.1496  16
   2 -10  -7 8.09081 28.4192  10
   2 -10  -6 6785.25 484.316  10
   2 -10  -6 6446.81 430.701  16
   2 -10  -5 1167.06 186.905  10
  -2  10   5 1016.78 169.051  18
   2 -10  -5 1033.17 168.208  16
   2 -10  -5 1220.06 170.431   7
  -2  10   4 774.617 137.537  18
   2 -10  -4 717.960 137.956   7
   2 -10  -4 609.834 129.821  16
   2 -10  -4 635.793 134.504  10
   2 -10  -3 6001.26 439.980  16
   2 -10  -3 5956.72 400.511   7
   2 -10  -3 6361.58 455.967  10
  -2  10   3 5848.21 400.145  18
   2 -10  -2 342.012 105.516  16
   2 -10  -2 433.513 115.267  10
  -2  10   2 356.661 92.8751  18
   2 -10  -2 418.290 108.848   7
   2 -10  -1 22933.8 887.799   7
   2 -10  -1 21064.8 922.651  16
   2 -10   0 279.322 87.2649  16
   2 -10   0 228.654 67.9896   7
   2 -10   0 152.781 64.5737   2
   2 -10   1 702.420 130.337   7
   2 -10   2 43.9396 49.9765   7
   2 -10   3 10.5659 46.4350   7
  -2  10  -3-24.6485 40.1726   6
  -2  10  -4 91.0515 45.9204   6
   2 -10   4 53.8055 25.2292   7
   2 -10   5 40.9125 24.0091   7
  -2  10  -5 7.00045 24.5248   6
  -2  10  -5 97.9485 78.7917  13
  -2  10  -6 81.4290 47.5739   6
  -2  10  -6 142.889 71.7436  13
  -2  10  -7 956.849 156.183  13
  -2  10  -7 877.912 122.657   6
  -2  10  -8 258.998 58.7707   6
  -2  10  -9 7.65931 12.8226   6
   2  -9 -13 564.689 92.5548   5
   2  -9 -13 677.214 116.700   8
   2  -9 -13 639.680 115.752   9
   2  -9 -12 261.072 87.0197   8
   2  -9 -12 195.661 75.3749   9
   2  -9 -11 66.5957 47.8204   8
   2  -9 -11 42.2329 46.5620   9
   2  -9 -10 757.764 143.114   8
   2  -9 -10 687.135 156.163   9
   2  -9  -9 3531.71 374.871   9
   2  -9  -9 3566.21 307.396   8
   2  -9  -8 13016.9 603.510  16
   2  -9  -8 12085.8 750.504   9
   2  -9  -8 13386.4 677.705  10
   2  -9  -7 1049.04 157.619  16
   2  -9  -7 1124.86 179.671   4
  -2   9   7 1189.06 182.279  18
   2  -9  -6 3116.90 283.458  16
  -2   9   6 3671.68 317.222  18
  -2   9   5 7046.53 443.772  18
   2  -9  -5 6822.00 436.558  16
   2  -9  -4 4224.92 336.498  16
  -2   9   4 3654.29 304.127  18
   2  -9  -4 3725.66 300.123   7
   2  -9  -3 23023.9 924.341  16
  -2   9   3 21947.6 862.924  18
   2  -9  -3 24750.7 894.322   7
   2  -9  -2 1818.52 222.199  16
   2  -9  -2 1908.13 212.292   7
  -2   9   2 1458.41 181.534  18
   2  -9  -1 1930.56 233.321  16
   2  -9  -1 2312.35 234.678   7
  -2   9   1 2091.25 208.926  18
   2  -9   0 95.1479 58.8149  16
   2  -9   0 59.8297 37.9789   7
   2  -9   0 13.1427 32.5177   2
   2  -9   1 40.4690 30.3573   7
   2  -9   1 41.2683 38.9619  16
   2  -9   1 24.0908 22.0945   2
   2  -9   2 24.5490 33.9751   7
   2  -9   2 77.8310 68.1824   2
   2  -9   3 12435.2 615.819   7
  -2   9  -3 12515.6 559.179   6
   2  -9   4 2225.44 237.218   7
  -2   9  -4 2566.44 232.359   6
   2  -9   5 965.055 149.910   7
  -2   9  -5 1265.27 236.323  13
  -2   9  -5 888.477 139.340   6
  -2   9  -6 2353.00 231.078   6
  -2   9  -6 2355.29 313.469  13
  -2   9  -7 114.890 51.5931   6
  -2   9  -7 152.939 58.0476  13
  -2   9  -8-51.0691 44.5402  13
  -2   9  -8 10.5863 22.2924   6
  -2   9  -9 38.7561 13.9335   6
  -2   9 -10 291.117 53.6343   6
   2  -8 -14 1262.41 157.526   8
   2  -8 -13 1674.16 167.802   5
   2  -8 -13 2056.58 227.313   8
   2  -8 -13 1904.31 208.867   9
   2  -8 -12 54.2004 51.1381   8
   2  -8 -12 77.0431 48.7223   9
   2  -8 -11 738.647 150.025   8
   2  -8 -11 839.079 135.554  15
   2  -8 -11 678.695 148.549   9
   2  -8 -10 1499.97 212.691   8
   2  -8 -10 1514.37 187.382  15
   2  -8 -10 1289.73 209.760   9
   2  -8  -9 7787.36 553.878   9
   2  -8  -8 3783.30 379.513   9
  -2   8   8 3210.37 301.522  18
   2  -8  -8 3860.64 295.020  16
   2  -8  -8 3257.70 335.733   4
   2  -8  -7 18792.3 737.421  16
   2  -8  -7 17540.4 809.102   4
  -2   8   7 16870.6 761.151  18
   2  -8  -6 836.979 136.999  16
  -2   8   6 980.478 154.272  18
   2  -8  -5 4.95867 19.6966  16
  -2   8   5-3.26440 17.6383  18
  -2   8   4 10463.8 525.027  18
  -2   8   3 12394.9 566.873  18
  -2   8   2 655.823 117.121  18
   2  -8  -1 10667.1 587.086   2
  -2   8   1 11400.0 518.337  18
  -2   8   0 2182.52 198.698  18
   2  -8   0 1957.33 237.112   2
   2  -8   1 28590.4 981.105   7
   2  -8   1 27161.3 1051.98   2
   2  -8   1 26224.3 1002.26  16
   2  -8   2 448.973 107.262  16
   2  -8   2 528.110 131.338   2
   2  -8   2 445.552 98.8558   7
   2  -8   3 25379.5 934.424   7
   2  -8   3 24738.5 1029.08   2
  -2   8  -3 24373.8 858.132   6
   2  -8   4 132.959 54.1386   7
  -2   8  -4 95.3452 42.8847   6
   2  -8   4 261.618 93.0205   2
   2  -8   5 7271.79 433.814   7
  -2   8  -5 6316.91 395.365   6
  -2   8  -6 6152.10 544.080  13
  -2   8  -6 5496.93 370.583   6
  -2   8  -7 25.4138 17.2743   6
  -2   8  -7 23.2252 52.9852  13
  -2   8  -8 529.763 107.857   6
  -2   8  -8 587.070 149.738  13
  -2   8  -9 2227.38 204.541   6
  -2   8 -10 0.74240 19.0952   6
  -2   8 -11 1018.75 103.181   6
   2  -7 -14 90.0431 43.6626   8
   2  -7 -14 59.8403 27.4007   5
   2  -7 -13 324.749 95.3030   8
   2  -7 -13 521.315 96.9131  15
   2  -7 -13 331.000 71.1678   5
   2  -7 -12 3167.99 259.134   5
   2  -7 -12 3554.13 312.118   9
   2  -7 -12 3948.21 288.240  15
   2  -7 -12 3686.19 343.678   8
   2  -7 -11 13.8612 32.3402   9
   2  -7 -11 112.567 64.4530   8
   2  -7 -11 65.6414 44.6465  15
   2  -7 -10 4052.89 310.821  15
   2  -7 -10 3519.60 343.314   9
   2  -7  -9 7227.04 504.096   9
   2  -7  -9 7908.61 444.461  15
  -2   7   9 6582.20 428.341  18
   2  -7  -8 955.870 146.219  15
   2  -7  -8 656.412 148.437   4
   2  -7  -8 974.449 141.061  16
   2  -7  -8 799.906 160.992   9
  -2   7   8 838.622 146.656  18
   2  -7  -7 6731.37 387.460  16
  -2   7   7 5750.95 393.362  18
  -2   7   6 38618.4 1240.71  18
  -2   7   5 14358.8 624.944  18
  -2   7   4 1229.19 155.388  18
  -2   7   3 1203.88 150.618  18
  -2   7   2 19900.2 729.595  18
   2  -7  -1 22500.8 893.557   2
  -2   7   1 25769.9 840.267  18
   2  -7   0 485.579 107.306   2
  -2   7   0 437.232 84.8748  18
   2  -7   1 2579.09 256.475   2
  -2   7  -1 2618.18 203.531  18
   2  -7   2 32649.9 1158.60   2
   2  -7   3 5404.45 357.821   7
   2  -7   3 5350.61 398.091   2
  -2   7  -3 6163.67 366.981   1
  -2   7  -4 6515.63 379.244   6
   2  -7   4 6994.95 415.583   7
   2  -7   4 6734.20 460.727   2
   2  -7   5 555.141 116.759   7
   2  -7   5 631.296 139.665   2
  -2   7  -5 571.089 109.317   6
  -2   7  -6 319.952 104.710  13
  -2   7  -6 324.207 81.6681   6
  -2   7  -7 6713.55 581.323  13
  -2   7  -7 6514.02 409.992   6
  -2   7  -8 1494.00 260.439  13
  -2   7  -8 1626.74 194.594   6
  -2   7  -9 588.576 112.427   6
  -2   7  -9 548.031 144.793  13
  -2   7 -10 88.1503 38.0423   6
  -2   7 -11 118.957 38.9934   6
  -2   7 -12-6.55710 13.7333  15
  -2   7 -12 68.4593 27.8362   6
   2  -6 -14 45.5890 39.0503   8
   2  -6 -14 125.545 50.4239  15
   2  -6 -14 67.5832 35.6017   5
   2  -6 -13 4325.88 296.610  15
   2  -6 -13 3535.88 326.563   8
   2  -6 -13 4031.40 267.805   5
   2  -6 -12 520.464 129.971   8
   2  -6 -12 514.228 102.308   5
   2  -6 -12 539.783 118.113   9
   2  -6 -12 719.321 127.113  15
   2  -6 -11 11874.0 685.989   8
   2  -6 -11 12763.4 594.064  15
   2  -6 -11 12778.1 650.670   9
   2  -6 -10 1881.01 236.259   9
   2  -6 -10 1609.67 193.146  15
   2  -6  -9 1278.85 169.075  15
   2  -6  -9 1511.97 208.336   9
  -2   6   9 1114.32 157.541  18
   2  -6  -9 1002.48 181.773   4
   2  -6  -8 10725.8 591.734   9
   2  -6  -8 11064.7 519.288  15
  -2   6   7 278.233 73.2582  18
  -2   6   6 1078.07 146.922  18
  -2   6   5 785.272 122.198  18
  -2   6   4 5369.34 323.659  18
  -2   6   3 12997.3 537.524  18
  -2   6   2 9319.85 429.768  18
  -2   6   1 258.855 62.8717  18
   2  -6  -1 87.1456 44.3252   2
   2  -6   0 1166.70 154.710   2
  -2   6   0 1254.07 135.039  18
   2  -6   1 7743.35 429.986   2
  -2   6  -1 7362.99 350.764  18
   2  -6   2 3091.55 268.996   2
   2  -6   3 27404.9 1016.57   2
  -2   6  -3 30614.1 973.876   1
  -2   6  -4 7302.14 410.248   1
   2  -6   4 6724.35 430.600   2
   2  -6   5 2533.54 231.801   7
  -2   6  -5 2483.90 235.915   1
  -2   6  -5 2504.18 226.902   6
   2  -6   5 2436.39 258.361   2
   2  -6   6 5591.98 415.002   2
  -2   6  -6 5089.43 491.759  13
  -2   6  -6 5320.39 353.512   6
  -2   6  -7 8677.53 673.665  13
  -2   6  -7 8848.22 484.789   6
   2  -6   7 8597.81 538.587   2
  -2   6  -8 6619.03 587.162  13
  -2   6  -8 6941.73 423.175   6
  -2   6  -9 8092.81 639.005  13
  -2   6  -9 8243.70 465.148   6
  -2   6 -10 1826.82 195.635   6
  -2   6 -11 10.7597 13.7682   6
  -2   6 -12 195.669 48.3838   6
   2  -5 -15 725.097 97.2338  15
   2  -5 -14 856.342 137.810   8
   2  -5 -14 875.180 119.923  15
   2  -5 -13 82.0618 29.0715   5
   2  -5 -13 91.7756 53.3408   8
   2  -5 -13 111.131 44.8699  15
   2  -5 -12 3458.71 285.165  15
   2  -5 -12 3554.68 266.798   5
   2  -5 -12 3006.10 318.704   8
   2  -5 -11 2145.39 277.757   8
   2  -5 -11 2578.57 234.800   5
   2  -5 -11 2647.99 252.520  15
   2  -5 -11 2785.37 269.492   9
   2  -5 -10 3914.58 308.767  15
   2  -5 -10 3638.32 317.832   9
   2  -5 -10 3831.41 358.461   4
   2  -5  -9 529.527 127.638   4
   2  -5  -9 586.405 113.632  15
   2  -5  -9 485.106 110.662   9
   2  -5  -8 19845.2 751.469  15
   2  -5  -8 19513.7 809.949   9
  -2   5   8 18800.7 719.256  18
  -2   5   7 15158.7 621.078  18
  -2   5   6 1335.70 154.853  18
  -2   5   5 8460.13 412.990  18
  -2   5   4 7538.70 374.710  18
  -2   5   3 13427.5 525.786  18
  -2   5   2 182428. 4245.68  18
   2  -5  -1 15204.0 591.373   2
  -2   5   1 14927.3 547.602  18
  -2   5   0 7939.31 356.691  18
   2  -5   0 7681.66 391.267   2
   2  -5   1 5679.19 335.244   2
  -2   5  -1 5582.44 281.895  18
  -2   5  -2 129.161 37.1990  18
   2  -5   2 242.659 71.2519   2
   2  -5   3 27511.4 935.542   2
  -2   5  -4 4049.52 286.957   1
   2  -5   4 4007.49 298.826   2
   2  -5   5 13464.4 618.459   2
  -2   5  -5 12951.8 587.476   1
   2  -5   6 1469.80 193.347   2
  -2   5  -6 1510.71 251.005  13
  -2   5  -6 1513.41 187.078   1
  -2   5  -6 1627.27 179.851   6
  -2   5  -7 51.8772 38.5594   6
  -2   5  -7 21.2696 66.7700  13
   2  -5   7-26.8979 39.1088   2
  -2   5  -8 4215.65 323.611   6
  -2   5  -8 4291.04 468.615  13
  -2   5  -9 435.953 99.3935   6
  -2   5  -9 486.203 147.646  13
  -2   5 -10 1332.31 172.242   6
  -2   5 -11 708.393 118.054   6
  -2   5 -12 438.652 86.1510   6
  -2   5 -13 930.275 123.904  15
  -2   5 -13 1096.65 110.877   6
   2  -4 -15 38.1358 28.7565  15
   2  -4 -14 19.1840 29.4331   8
   2  -4 -14-1.95456 19.4569  15
   2  -4 -13 196.087 54.3131   5
   2  -4 -13 144.316 58.8139   8
   2  -4 -13 170.559 51.3459  15
   2  -4 -12 7.84438 18.7239   5
   2  -4 -12 22.4871 24.0366   8
   2  -4 -12 59.0138 33.3468  15
   2  -4 -11 821.354 157.565   8
   2  -4 -11 1083.02 144.384   5
   2  -4 -11 1316.76 180.891   9
   2  -4 -11 822.705 140.759  15
   2  -4 -10 47.8262 40.8812  15
   2  -4 -10-3.65677 32.7831   4
   2  -4 -10 17.6937 45.9800   9
   2  -4 -10 27.7171 26.1819   5
   2  -4  -9 17699.3 800.155   4
   2  -4  -9 17765.7 759.722   9
   2  -4  -9 18875.7 761.416  15
   2  -4  -8 4628.13 357.031   4
   2  -4  -8 4945.02 336.009  15
  -2   4   8 4777.88 298.713  18
  -2   4   7 2269.60 195.792  18
  -2   4   6 3913.61 256.746  18
  -2   4   5 1896.65 170.778  18
  -2   4   4 15.7577 18.5076  18
  -2   4   3 95.1136 41.9952  18
  -2   4   2 180528. 4162.81  18
  -2   4   1 18569.0 605.238  18
  -2   4   0 35.8062 24.5156  18
   2  -4   0 184.862 56.9004   2
  -2   4  -1 8327.77 338.293  18
   2  -4   1 8277.65 387.046   2
   2  -4   2 140461. 3386.95   2
  -2   4  -2 142572. 3264.58  18
  -2   4  -3 365.022 54.4463  18
   2  -4   3 390.211 80.4940   2
   2  -4   4 4477.67 291.936   2
  -2   4  -4 4507.43 293.232   1
  -2   4  -5 100558. 2598.90   1
   2  -4   5 102901. 2600.14   2
  -2   4  -6 8252.90 461.724   1
   2  -4   6 8658.06 459.172   2
   2  -4   7 5357.99 369.488   2
  -2   4  -7 5390.60 383.484   1
  -2   4  -7 5958.72 366.362   6
  -2   4  -8 385.299 92.2189   6
  -2   4  -8 418.816 148.671  13
  -2   4  -8 346.792 94.1299   1
  -2   4  -9 2445.98 218.000  17
  -2   4  -9 2382.82 347.457  13
  -2   4  -9 2548.94 246.494   6
  -2   4 -10 111.494 42.4502  17
  -2   4 -10 111.644 55.4164   6
  -2   4 -11 1300.08 147.322  17
  -2   4 -11 1256.70 165.717   6
  -2   4 -12 1096.58 142.104   6
  -2   4 -12 1044.22 118.470  17
  -2   4 -13 392.074 96.1675  15
  -2   4 -13 346.180 71.6553   6
   2  -3 -15 17.8109 22.8544  15
   2  -3 -14 319.935 77.2130  15
   2  -3 -13 947.614 153.141   8
   2  -3 -13 770.606 129.527  15
   2  -3 -12 1021.16 172.324   8
   2  -3 -12 968.358 156.045  15
   2  -3 -12 1141.24 140.416   5
   2  -3 -11 4691.01 363.348  15
   2  -3 -11 4996.62 401.754   8
   2  -3 -11 5161.67 324.043   5
   2  -3 -10 1762.07 222.391   4
   2  -3 -10 1730.19 211.828  15
   2  -3 -10 1458.37 165.820   5
   2  -3 -10 2001.45 218.172   9
   2  -3  -9 942.670 129.917   5
   2  -3  -9 1125.02 170.633   4
   2  -3  -9 1441.91 161.319  17
   2  -3  -9 1090.15 157.545   9
   2  -3  -9 1155.99 171.340  15
   2  -3  -8 9008.01 496.012   4
   2  -3  -7 5325.94 349.600   4
  -2   3   7 5667.82 301.974  18
  -2   3   6 2146.61 171.921  18
  -2   3   5 60758.6 1564.83  18
  -2   3   4 6736.24 313.625  18
  -2   3   3 2967.36 189.790  18
  -2   3   2 2152.03 153.850  18
  -2   3   1 78419.6 1905.01  18
   2  -3   0 154245. 3628.91   2
  -2   3   0 159071. 3591.90  18
  -2   3  -1 9339.63 341.356  18
   2  -3   1 8873.17 372.624   2
   2  -3   2 104590. 2559.68   2
  -2   3  -2 107571. 2472.86  18
  -2   3  -3 6562.69 256.162  18
   2  -3   3 6100.22 314.867   2
   2  -3   4 2832.72 208.440   2
  -2   3  -4 2862.36 217.960   1
  -2   3  -5 987.906 134.365   1
   2  -3   5 1089.63 133.771   2
  -2   3  -6 4821.37 331.358   1
   2  -3   6 5215.45 320.346   2
  -2   3  -7 54.6771 33.6643   1
   2  -3   7 222.394 68.0592   2
  -2   3  -8-43.1872 59.2579  13
  -2   3  -8 33.3868 20.0348   6
  -2   3  -8-0.52434 34.2249   1
  -2   3  -8-42.0456 39.7049  17
  -2   3  -9 5523.34 353.514  17
  -2   3  -9 6400.16 565.512  13
  -2   3  -9 5805.41 376.209   6
  -2   3  -9 4938.15 384.386   1
  -2   3 -10 4915.89 335.420  17
  -2   3 -10 5506.12 371.878   6
  -2   3 -11 17232.0 716.401   6
  -2   3 -11 15906.1 660.950  17
  -2   3 -12 2187.74 214.367   6
  -2   3 -12 1981.67 188.541  17
  -2   3 -13 436.014 78.0255  17
  -2   3 -13 501.115 88.9584   6
  -2   3 -14 535.949 95.5605  15
   2  -2 -15 218.598 55.3665  15
   2  -2 -14 47.2565 32.1035  15
   2  -2 -13 1084.16 159.106  15
   2  -2 -13 1234.17 158.996   8
   2  -2 -12 562.080 120.290   8
   2  -2 -12 472.302 110.466  15
   2  -2 -11 271.167 66.8472   5
   2  -2 -11 139.000 64.2786  15
   2  -2 -11 224.206 75.9840   8
   2  -2 -10 20430.3 874.857  15
   2  -2 -10 21847.2 772.141   5
   2  -2  -9 3476.39 255.324   5
   2  -2  -9 3894.97 309.632   4
   2  -2  -9 3726.45 317.216  15
   2  -2  -9 4241.95 301.528  17
   2  -2  -8 142.692 50.9440   4
  -2   2   8 132.866 47.6593   2
   2  -2  -7 5033.61 326.612   4
  -2   2   7 5428.04 277.793  18
  -2   2   6 5560.15 275.006  18
  -2   2   5 94210.6 2256.93  18
  -2   2   4 74864.0 1822.96  18
  -2   2   3 12857.6 435.735  18
  -2   2   2 41910.3 1079.88  18
  -2   2   1 5325.14 235.777  18
  -2   2   0 953915. 20770.3  18
  -2   2  -1 170809. 3841.31  18
   2  -2   1 170051. 3885.27   2
   2  -2   2 1178.20 109.552   2
  -2   2  -2 1251.23 93.9941  18
   2  -2   3 16896.8 563.823   2
  -2   2  -3 17941.7 502.692  18
   2  -2   4 31123.5 924.603   2
  -2   2  -4 30903.0 961.201   1
  -2   2  -5 5111.71 306.491   1
   2  -2   5 5477.62 286.974   2
  -2   2  -6 27567.7 948.586   1
   2  -2   6 29567.0 898.768   2
   2  -2   7 5421.19 313.444   2
  -2   2  -7 4806.21 344.374   1
  -2   2  -8 10823.5 564.831   1
  -2   2  -9 202.690 69.5043  17
  -2   2  -9 182.835 61.2475   6
  -2   2  -9 208.596 81.4517   1
  -2   2 -10 10428.6 604.539   1
  -2   2 -10 11255.2 553.894  17
  -2   2 -10 12277.6 578.433   6
  -2   2 -11-3.36066 39.5339  17
  -2   2 -11-28.6109 40.6968   6
  -2   2 -12-7.24155 34.2983   6
  -2   2 -12-4.09993 32.7196  17
  -2   2 -13 204.570 75.5070  15
  -2   2 -13 387.832 79.8837  17
  -2   2 -13 405.429 86.6178   6
  -2   2 -14 101.774 30.5773  15
  -2   2 -14 178.433 46.3434  17
   2  -1 -15 537.477 78.0479  15
   2  -1 -14 195.277 54.2165  15
   2  -1 -13 1546.93 190.280  15
   2  -1 -12 169.980 53.0497   8
   2  -1 -12 227.392 80.9734  15
   2  -1 -11 6077.71 445.957  15
   2  -1 -11 6715.64 427.237   8
   2  -1 -10 3356.13 302.683   8
   2  -1 -10 4075.85 275.475   5
   2  -1 -10 3152.52 316.459  15
   2  -1  -9 3314.28 307.330  15
   2  -1  -9 3083.23 234.138   5
   2  -1  -9 3550.46 278.790  17
   2  -1  -9 3312.62 277.578   4
   2  -1  -8 2123.70 207.410   4
  -2   1   8 2294.87 202.686   2
   2  -1  -7 1495.11 162.929   4
  -2   1   7 1413.49 151.605   2
   2  -1  -6 1725.45 163.352   4
  -2   1   6 1785.82 138.005  18
  -2   1   5 14578.6 478.889  18
  -2   1   4 5360.73 240.276  18
  -2   1   3 192.607 39.8097  18
  -2   1   2 146873. 3331.17  18
  -2   1   1 34080.5 875.694  18
  -2   1   0 858826. 18690.8  18
  -2   1  -1 3284.14 156.635  18
  -2   1  -2 215135. 4792.89  18
   2  -1   2 216669. 4826.41   2
  -2   1  -3 12314.3 370.039  18
   2  -1   3 11849.8 401.675   2
  -2   1  -4 117993. 2656.61  18
  -2   1  -4 117940. 2794.24   1
   2  -1   4 115512. 2724.50   2
  -2   1  -5 12003.7 485.037   1
   2  -1   5 12003.6 429.935   2
   2  -1   6 20350.2 637.013   2
  -2   1  -6 19066.4 711.655   1
   2  -1   7 25548.8 781.373   2
  -2   1  -7 24100.2 885.945   1
  -2   1  -8 33424.7 1139.01   1
  -2   1  -9 2034.92 204.982   6
  -2   1  -9 1857.24 224.474   1
  -2   1  -9 1899.06 201.617  17
  -2   1 -10 18072.2 745.217  17
  -2   1 -10 19277.1 746.932   6
  -2   1 -11 11776.9 559.982   6
  -2   1 -11 10200.6 545.714  17
  -2   1 -12 4307.99 311.893   6
  -2   1 -12 3606.59 298.120  17
  -2   1 -13 915.463 135.696  17
  -2   1 -13 866.365 160.139  15
  -2   1 -14 951.799 152.042  15
  -2   1 -14 1335.94 145.245  17
  -2   1 -15 2012.89 169.913  15
   2   0 -15 124.891 32.6664  15
   2   0 -14 1414.64 154.279  15
   2   0 -13 450.289 103.381  15
   2   0 -12 310.383 88.1912  15
   2   0 -11 2409.79 278.002  15
   2   0 -10 949.856 171.933  15
   2   0 -10 929.558 143.704   8
   2   0  -9 22807.7 769.566   5
   2   0  -9 22388.5 833.248  17
   2   0  -8 745.709 118.075   4
   2   0  -8 831.276 149.185  15
  -2   0   8 888.113 126.623   2
   2   0  -8 932.255 134.933  17
  -2   0   7 1592.06 165.487   2
   2   0  -7 1535.20 158.297   4
   2   0  -6 51293.1 1385.37   4
  -2   0   6 50943.0 1403.58   2
  -2   0   5 8478.55 322.998  18
  -2   0   4 31989.1 846.826  18
  -2   0   3 43101.1 1077.90  18
  -2   0   2 81846.9 1907.81  18
  -2   0   1 130855. 2959.71  18
  -2   0   0 421758. 9237.76  18
  -2   0  -1 47.3299 17.2197  18
  -2   0  -2 89317.4 2052.50  18
  -2   0  -3 26690.5 730.845   1
  -2   0  -3 25125.8 671.804  18
   2   0   4 530.113 58.2917   2
  -2   0  -4 529.075 75.1661   1
  -2   0  -5 1285.89 128.784   1
   2   0   5 1225.92 97.0667   2
  -2   0  -6 24841.4 850.865   1
   2   0   6 28552.4 761.415   2
  -2   0  -7 273.746 71.4816   1
  -2   0  -8 178.498 66.3201   1
  -2   0  -9 19258.7 805.490   1
  -2   0 -10 11738.1 584.415  17
  -2   0 -10 12730.6 575.301   6
  -2   0 -10 11080.1 622.142   1
  -2   0 -11 10119.0 602.668   1
  -2   0 -11 10795.7 567.230  17
  -2   0 -12 201.348 78.4228  17
  -2   0 -13 662.955 140.641  15
  -2   0 -13 730.993 133.842  17
  -2   0 -14 42.5756 34.2334  15
  -2   0 -14 12.1585 24.0765  17
  -2   0 -15-17.0108 30.5407  15
  -2   0 -15 70.2798 34.6445  17
   2   1 -14 2.31443 11.6934  15
   2   1 -13 521.184 105.701  15
   2   1 -12 980.302 167.874  15
   2   1 -11 41.3683 37.6230  15
   2   1 -10 13451.1 734.205  15
   2   1  -9 2251.49 276.571  15
   2   1  -8 26170.8 889.987  17
  -2  -1   8 22804.5 849.010   2
  -2  -1   7 3765.97 272.697   2
   2   1  -6 5072.92 274.989   4
  -2  -1   6 5246.23 313.003   2
   2   1  -5 18539.2 606.974   4
  -2  -1   5 20270.9 572.147  18
  -2  -1   5 18131.2 655.146   2
  -2  -1   4 13009.7 417.741  18
  -2  -1   3 57317.7 1385.58  18
  -2  -1   2 21466.9 562.853  18
   2   1  -2 19222.2 482.260   3
   2   1  -1 158652. 3452.37   3
  -2  -1   1 154494. 3533.52  18
  -2  -1   0 286173. 6308.10  18
  -2  -1  -1 194511. 4326.19  18
  -2  -1  -2 14853.1 435.411  18
  -2  -1  -3 622.653 63.3013  18
  -2  -1  -3 703.296 72.5002   1
  -2  -1  -4 59493.0 1476.79   1
  -2  -1  -5 90361.7 2191.87   1
  -2  -1  -6 73582.0 1972.61   1
   2   1   6 79816.9 1800.18   2
  -2  -1  -7 251.717 63.3562   1
  -2  -1  -8 3520.14 271.446   1
  -2  -1  -9 16427.2 710.281   1
  -2  -1 -10 7251.21 437.955  17
  -2  -1 -10 7628.86 415.401   5
  -2  -1 -10 6896.94 458.833   1
  -2  -1 -11 17967.8 837.892   1
  -2  -1 -11 19416.7 814.399  17
  -2  -1 -11 20862.4 787.173   5
  -2  -1 -12 3486.95 332.099  15
  -2  -1 -12 3617.61 315.206  17
  -2  -1 -12 4096.80 318.703   5
  -2  -1 -13 1406.08 204.121  15
  -2  -1 -13 992.028 155.061  17
  -2  -1 -14 339.339 88.2485  17
  -2  -1 -14 184.174 60.4381  15
  -2  -1 -15 260.491 64.5142  15
  -2  -1 -15 403.311 81.4041  17
  -2  -1 -16 1847.04 147.278  17
   2   2 -14 93.7885 32.1975  15
   2   2 -13 195.426 60.2081  15
   2   2 -12 301.134 94.7347  15
   2   2 -11 1858.15 248.792  15
   2   2 -10 2593.77 304.364  15
  -2  -2   9 410.397 96.8844   2
   2   2  -9 287.373 95.3308  15
  -2  -2   8 3701.73 292.494   2
  -2  -2   7 5143.87 338.945   2
   2   2  -7 5991.49 349.103  17
  -2  -2   6 19804.8 733.789   2
   2   2  -5 99134.3 2338.78   4
  -2  -2   5 97145.0 2461.35   2
   2   2  -4 13135.1 435.528   4
  -2  -2   4 13721.4 525.631   2
  -2  -2   4 13948.1 435.535  18
  -2  -2   3 63.1269 22.9575  18
  -2  -2   3 67.3604 27.7379   2
   2   2  -2 532.215 50.7092   3
  -2  -2   2 559.985 62.7161  18
   2   2  -1 93825.8 2093.52   3
  -2  -2   1 91716.9 2152.56  18
  -2  -2   0 123400. 2838.91  18
   2   2   0 125877. 2783.52   3
  -2  -2  -1 736053. 16076.2  18
  -2  -2  -1 738554. 16006.7   1
  -2  -2  -2 117953. 2683.37   1
  -2  -2  -2 121794. 2725.37  18
  -2  -2  -3 177469. 3973.97   1
  -2  -2  -4 1439.39 114.262   1
  -2  -2  -5 38325.3 1041.44   1
  -2  -2  -6 505.490 82.2390   1
  -2  -2  -7 29156.4 909.790   1
  -2  -2  -8 1341.59 158.103   1
  -2  -2  -9 146.867 51.1670   1
  -2  -2 -10 197.134 67.4135  17
  -2  -2 -10 388.843 86.6229   5
  -2  -2 -10 251.961 67.1494  12
  -2  -2 -10 227.335 74.0292   1
  -2  -2 -11 3957.51 347.635   1
  -2  -2 -11 4524.76 331.400  12
  -2  -2 -11 4084.05 337.126  17
  -2  -2 -11 4325.73 315.129   5
  -2  -2 -12 3872.62 303.723   5
  -2  -2 -12 3731.60 326.435  15
  -2  -2 -12 3829.55 332.173  17
  -2  -2 -13 88.9344 52.1443   5
  -2  -2 -13 82.9764 56.4087  15
  -2  -2 -13 44.9138 33.4102  17
  -2  -2 -14 1622.98 193.039  15
  -2  -2 -14 1916.09 214.359  17
  -2  -2 -15 281.174 73.2083  17
  -2  -2 -16 841.785 105.514  17
   2   3 -13-1.09647 12.1723  15
   2   3 -12 78.0608 33.9768  15
   2   3 -11 176.938 72.2873  15
   2   3 -10 2031.60 270.028  15
   2   3  -9 1971.96 223.709   6
   2   3  -8-54.2998 38.4152  13
  -2  -3   8 56.3274 37.8704   2
   2   3  -8 17.6740 37.8606   6
   2   3  -7-39.5684 37.9232  13
  -2  -3   7 4.79463 15.6618   2
  -2  -3   6 1230.49 157.144   2
  -2  -3   5 521.844 95.2112   2
  -2  -3   4 16283.9 609.525   2
  -2  -3   3 89386.6 2218.32   2
  -2  -3   2 37064.9 1018.63   2
   2   3  -2 36762.9 864.867   4
   2   3  -2 35320.3 924.445   3
   2   3  -1 48946.9 1224.91   3
  -2  -3   1 55705.5 1319.41   2
   2   3   0 70085.9 1587.85   3
  -2  -3   0 66840.4 1653.94   2
   2   3   1 991468. 21534.3   3
  -2  -3  -1 989179. 21464.1   1
  -2  -3  -1 999999. 21553.1   2
   2   3   2 241717. 5250.66   3
  -2  -3  -2 236094. 5206.49   2
  -2  -3  -2 233477. 5197.00   1
  -2  -3  -3 1389.53 70.9196   2
  -2  -3  -3 1374.55 95.4639   1
  -2  -3  -4 106090. 2458.11   1
  -2  -3  -5 1185.07 109.753   1
  -2  -3  -6 20767.3 664.997   1
  -2  -3  -7 70578.0 1817.89   1
  -2  -3  -8 13010.2 548.661   1
  -2  -3  -9 95.7241 36.1698   1
  -2  -3 -10 14998.5 664.438   1
  -2  -3 -10 14388.0 661.202  17
  -2  -3 -10 13601.0 597.951   5
  -2  -3 -10 14453.2 627.021  12
  -2  -3 -11 120.556 64.1622  12
  -2  -3 -11 106.085 48.0952   1
  -2  -3 -11 76.9555 27.2470  17
  -2  -3 -11 47.9402 24.4600   5
  -2  -3 -12 13050.2 610.468   5
  -2  -3 -12 13297.5 670.655  17
  -2  -3 -13 431.907 93.7895   5
  -2  -3 -13 312.228 98.5091  17
  -2  -3 -14 312.046 93.8420  17
  -2  -3 -14 315.213 84.5565   5
  -2  -3 -15 484.525 99.8664  17
  -2  -3 -16 79.1215 37.7619  17
   2   4 -13 1183.96 113.851  15
   2   4 -12-6.64429 30.0681  15
   2   4 -11 428.052 108.706  15
   2   4 -10 1587.00 190.743   6
   2   4 -10 991.047 185.834  15
   2   4  -9 4598.86 355.108   6
  -2  -4   8 13574.2 658.789   2
   2   4  -8 14547.9 909.104  13
   2   4  -8 12992.5 648.034   6
  -2  -4   7 10072.9 544.441   2
   2   4  -7 10472.7 735.050  13
   2   4  -7 9692.55 532.017   6
   2   4  -6 566.631 147.316  13
  -2  -4   6 459.640 101.250   2
   2   4  -6 595.324 113.281   6
  -2  -4   5 1473.91 175.591   2
  -2  -4   4 4689.75 300.057   2
  -2  -4   3 41646.8 1190.71   2
   2   4  -2 884.097 90.3283   3
  -2  -4   2 868.003 106.594   2
  -2  -4   1 67602.1 1675.17   2
   2   4  -1 66658.6 1611.20   3
   2   4   0 842.110 76.4851   3
  -2  -4   0 961.636 93.1394   2
  -2  -4  -1 44793.5 1179.80   2
   2   4   1 50578.1 1161.84   3
  -2  -4  -2 1637.32 78.0517   1
   2   4   2 1606.35 108.195   3
  -2  -4  -2 1620.33 100.830   2
  -2  -4  -3 3970.39 154.232   2
   2   4   3 3978.54 192.620   3
  -2  -4  -3 4067.98 172.840   1
  -2  -4  -4 23.5729 13.2437   1
  -2  -4  -4 42.0560 9.11878   2
  -2  -4  -5 1762.44 133.421   1
  -2  -4  -6 20348.1 652.741   1
  -2  -4  -7 26836.6 839.445   1
  -2  -4  -8 505.685 91.0800   1
  -2  -4  -9 2439.62 221.816   1
  -2  -4 -10 27895.4 972.506   1
  -2  -4 -10 29554.6 1013.91   9
  -2  -4 -10 26657.0 968.396  12
  -2  -4 -10 26423.2 989.804  17
  -2  -4 -11 2970.33 285.746  17
  -2  -4 -11 3255.95 287.683   1
  -2  -4 -11 2741.90 260.669  12
  -2  -4 -11 2476.96 237.332   5
  -2  -4 -12 1606.17 206.594   1
  -2  -4 -12 1650.55 201.966  12
  -2  -4 -12 1258.08 192.457  17
  -2  -4 -12 1039.22 151.876   5
  -2  -4 -13 18.6459 25.3851   5
  -2  -4 -13-21.4321 47.9720  17
  -2  -4 -14 4044.96 335.218  17
  -2  -4 -14 4410.34 313.907   5
  -2  -4 -15 3458.12 260.244   5
  -2  -4 -15 2967.64 259.343  17
  -2  -4 -16 2658.12 208.172  17
   2   5 -12 745.211 102.170  15
   2   5 -11 130.586 60.5440  15
   2   5 -11 109.194 45.0407   6
   2   5 -10 2498.01 280.006  15
   2   5 -10 3610.66 287.192   6
   2   5  -9 956.494 163.330   6
   2   5  -8 785.603 212.998  13
   2   5  -8 892.378 157.693   6
   2   5  -7 5835.98 566.511  13
   2   5  -7 6497.87 438.452   6
  -2  -5   7 6829.58 449.651   2
   2   5  -6 5827.74 539.349  13
   2   5  -6 6141.50 417.202   6
  -2  -5   6 6457.54 426.212   2
  -2  -5   5 15237.1 669.465   2
   2   5  -5 15378.0 861.844  13
   2   5  -5 14460.7 660.965   6
  -2  -5   4 16645.5 678.529   2
  -2  -5   3 15689.5 619.887   2
   2   5  -2 610.753 82.8896   3
  -2  -5   2 581.398 93.9465   2
   2   5  -1 202408. 4576.47   3
  -2  -5   1 200962. 4632.88   2
   2   5   0 18441.5 579.003   3
  -2  -5   0 20449.7 618.681   2
   2   5   1 26381.2 718.837   3
  -2  -5  -1 25686.1 731.149   2
   2   5   2 58414.3 1431.94   3
  -2  -5  -2 60385.0 1441.61   2
  -2  -5  -3 58513.8 1428.04   2
   2   5   3 60989.5 1476.35   3
  -2  -5  -3 61406.6 1401.42   1
   2   5   4 26331.3 741.662   3
  -2  -5  -4 25738.3 703.508   1
  -2  -5  -4 26074.3 650.573   2
  -2  -5  -5 46657.2 1216.90   1
   2   5   5 48506.0 1239.41   3
  -2  -5  -6 51907.9 1386.45   1
   2   5   6 55814.8 1403.86   3
  -2  -5  -7 8194.43 376.492   1
   2   5   7 8616.42 370.445   3
  -2  -5  -8 4303.85 270.563   1
   2   5   8 4457.99 261.436   3
   2   5   9 8543.64 396.688   3
  -2  -5  -9 8810.61 432.981   1
  -2  -5 -10 17.2083 17.1205   1
  -2  -5 -10 38.5418 50.0615  17
  -2  -5 -10 1.44179 41.5222  12
  -2  -5 -10 77.6939 44.8799   9
  -2  -5 -11 4411.21 345.130  12
  -2  -5 -11 4554.19 334.299   1
  -2  -5 -11 4688.40 363.405  17
  -2  -5 -11 4512.18 352.100   9
  -2  -5 -12 3053.18 273.042   5
  -2  -5 -12 3289.29 296.953  12
  -2  -5 -12 3342.01 310.419  17
  -2  -5 -13 2533.12 271.927  17
  -2  -5 -13 2460.86 254.867  12
  -2  -5 -13 2061.55 223.938   5
  -2  -5 -14 215.053 67.4111   5
  -2  -5 -14 226.148 70.7061  17
  -2  -5 -15 106.084 47.9951   5
  -2  -5 -15 32.5902 36.9883  17
  -2  -5 -16 861.358 116.116  17
   2   6 -11 909.554 125.490  15
   2   6 -11 997.802 113.623   6
   2   6 -10 1991.79 201.897   6
   2   6 -10 1548.71 200.655  15
   2   6  -9 282.727 86.2008   6
   2   6  -8-9.64578 36.4669  13
   2   6  -8-32.4890 35.5393   6
   2   6  -7 506.295 114.802   6
   2   6  -7 366.641 136.356  13
   2   6  -6 120.256 110.828  13
  -2  -6   6 378.234 104.555   2
   2   6  -6 359.553 99.7473   6
   2   6  -5 64.7885 71.3266  13
  -2  -6   5 104.657 51.8381   2
   2   6  -5 59.7454 48.8472   6
  -2  -6   4 12615.8 599.015   2
   2   6  -4 11735.7 583.450   6
  -2  -6   3 1819.15 193.628   2
   2   6  -2 5690.57 303.459   3
  -2  -6   2 5581.81 331.392   2
  -2  -6   1 3931.07 254.827   2
   2   6  -1 4405.41 249.254   3
  -2  -6   0 17341.6 597.816   2
   2   6   0 17911.6 584.164   3
  -2  -6  -1 26400.8 774.965   2
   2   6   1 26073.6 765.091   3
  -2  -6  -2 918.425 93.0965   2
   2   6   2 890.134 93.5474   3
   2   6   3 105265. 2500.56   3
  -2  -6  -3 108344. 2483.84   2
   2   6   4 769.160 86.4589   3
   2   6   5 94541.8 2268.66   3
  -2  -6  -5 94553.4 2226.15   1
   2   6   6 42221.6 1146.08   3
  -2  -6  -6 42296.9 1129.89   1
   2   6   7 485.444 78.4937   3
  -2  -6  -7 504.421 81.4126   1
  -2  -6  -8 284.435 66.8129   1
   2   6   8 12.6203 15.9751   3
   2   6   9 3370.32 229.783   3
  -2  -6  -9 3125.47 239.475   1
  -2  -6 -10 6823.16 434.113   9
   2   6  10 7307.11 362.944   3
  -2  -6 -10 7024.33 427.738  17
  -2  -6 -10 6479.88 430.663  12
  -2  -6 -10 6661.28 382.767   1
  -2  -6 -11 16839.3 693.925   1
  -2  -6 -11 17742.9 757.857  17
  -2  -6 -11 16908.4 759.903   9
  -2  -6 -11 16799.2 761.514  12
  -2  -6 -12 477.417 116.854  12
  -2  -6 -12 537.357 123.218   9
  -2  -6 -12 649.014 131.238  17
  -2  -6 -13 2348.14 241.644   5
  -2  -6 -13 2689.98 270.534  12
  -2  -6 -13 3031.06 285.980  17
  -2  -6 -14 6531.70 414.855  17
  -2  -6 -14 5700.59 375.179   5
  -2  -6 -15 139.710 56.7599   5
  -2  -6 -15 58.3930 39.4238  17
  -2  -6 -16 759.002 102.437  17
  -2  -6 -16 845.392 115.630   5
   2   7 -10 1890.84 177.988   6
   2   7 -10 1664.79 176.568  15
   2   7  -9 14.5971 26.4788   6
   2   7  -8 48.5841 47.9785  13
   2   7  -8 134.854 57.0810   6
   2   7  -7 665.765 194.244  13
   2   7  -7 821.339 149.074   6
   2   7  -6 11004.1 594.902   6
   2   7  -6 9611.23 748.143  13
  -2  -7   5 9716.26 554.738   2
   2   7  -5 7804.37 655.673  13
   2   7  -5 9015.31 532.681   6
  -2  -7   4 11594.1 591.314   2
   2   7  -4 10410.6 568.218   6
  -2  -7   3 14756.7 654.159   2
   2   7  -3 14073.7 653.669   6
  -2  -7   2 1557.86 180.215   2
  -2  -7   1 393.331 82.9369   2
   2   7  -1 461.383 83.8616   3
  -2  -7   0 8269.47 397.201   2
   2   7   0 9384.92 403.781   3
  -2  -7  -1 1015.50 114.567   2
   2   7   1 896.852 109.989   3
  -2  -7  -2 2039.63 155.711   2
   2   7   2 1948.89 158.203   3
  -2  -7  -3 89075.1 2080.95   2
   2   7   3 82384.2 2094.06   3
   2   7   4 994.858 107.161   3
   2   7   5 352.545 62.1580   3
   2   7   6 378.637 66.9961   3
   2   7   7 5608.73 291.900   3
   2   7   8 2289.93 180.808   3
  -2  -7  -8 2280.92 185.666   1
  -2  -7  -9 3679.32 256.474   1
   2   7   9 3785.02 246.590   3
  -2  -7  -9 3830.49 329.568  12
  -2  -7  -9 3303.82 308.921  10
  -2  -7 -10 500.565 116.926  12
  -2  -7 -10 505.696 97.4055   1
   2   7  10 549.135 90.0631   3
  -2  -7 -10 481.048 111.893  10
  -2  -7 -10 402.199 101.270   9
  -2  -7 -11 1121.93 178.310  12
  -2  -7 -11 1176.01 183.137   9
  -2  -7 -12 4898.14 386.295  12
  -2  -7 -12 4903.08 388.598   9
  -2  -7 -12 5198.51 365.103  17
  -2  -7 -13 167.331 71.1871  12
  -2  -7 -13 188.228 60.5117  17
  -2  -7 -14 499.070 109.386   5
  -2  -7 -14 597.792 128.253  12
  -2  -7 -14 567.631 109.438  17
  -2  -7 -15 51.8093 37.5679   5
  -2  -7 -15 107.539 29.7610  17
  -2  -7 -16 37.0419 32.8565   5
   2   8 -10 52.0518 21.4085  15
   2   8 -10 110.072 32.7119   6
   2   8  -9 298.788 77.0660  15
   2   8  -9 327.871 77.2469   6
   2   8  -8 66.6955 56.9466  13
   2   8  -8 33.6107 30.0219   6
   2   8  -7 630.709 177.661  13
   2   8  -7 691.234 132.786   6
   2   8  -6 803.833 207.096  13
   2   8  -6 925.938 160.785   6
   2   8  -5 251.974 90.7366  13
   2   8  -5 438.996 109.870   6
  -2  -8   4 2973.59 297.900   2
   2   8  -4 2373.62 258.050   6
  -2  -8   3 7890.92 479.744   2
   2   8  -3 7813.80 478.521   6
  -2  -8   2 23698.4 887.499   2
   2   8  -2 22891.0 896.170   6
  -2  -8   1 28020.0 971.283   2
   2   8  -1 29375.5 950.775   3
  -2  -8   0 15965.8 633.628   2
   2   8   0 16936.4 634.981   3
   2   8   1 3785.82 251.370   3
  -2  -8  -1 3387.44 241.366   2
  -2  -8  -2 21418.3 705.002   2
   2   8   2 20517.3 715.098   3
  -2  -8  -3 39500.0 1052.42   2
   2   8   3 33077.8 1048.62   3
   2   8   4 691.832 99.3470   3
   2   8   5 4995.29 283.933   3
   2   8   6 206.436 54.7811   3
   2   8   7 11061.1 458.033   3
   2   8   8 16714.4 603.054   3
  -2  -8  -8 15440.3 757.803  12
  -2  -8  -8 17383.8 806.483  10
  -2  -8  -9 21534.4 896.495   9
   2   8   9 21494.4 719.303   3
  -2  -8  -9 20691.5 906.488  12
  -2  -8  -9 20992.1 929.229  10
  -2  -8 -10 1166.94 183.590   9
   2   8  10 1069.37 127.895   3
  -2  -8 -10 1233.00 192.242  12
  -2  -8 -10 1012.91 177.373  10
  -2  -8 -11 471.473 121.316  12
  -2  -8 -11 556.758 127.149   9
  -2  -8 -12 648.467 136.528  12
  -2  -8 -12 685.921 141.665   9
  -2  -8 -13 2595.33 276.179  12
  -2  -8 -13 2687.33 284.973   9
  -2  -8 -14 2156.16 225.388   5
  -2  -8 -14 2382.41 250.816  12
  -2  -8 -15 1218.84 153.618   5
  -2  -8 -16 350.735 73.1547   5
   2   9  -9 183.730 52.2159   6
   2   9  -8 1679.30 176.373   6
   2   9  -7 3615.34 384.667  13
   2   9  -7 3546.93 286.949   6
   2   9  -6 1724.01 213.058   6
   2   9  -6 1942.65 304.256  13
   2   9  -5 49.5555 85.0401  13
   2   9  -5-7.93462 32.6318   6
   2   9  -4 259.829 86.8264   6
   2   9  -3 1516.44 203.755   6
  -2  -9   2 26530.8 1036.40   7
   2   9  -2 26639.7 1025.40   6
  -2  -9   1 136.538 60.6275   7
  -2  -9   1 316.807 86.6886   2
   2   9  -1 128.767 57.6391   6
  -2  -9   0 346.277 110.188   7
   2   9   0 427.673 98.1161   6
   2   9   0 366.016 87.2084   3
  -2  -9   0 378.999 94.7301   2
  -2  -9  -1-1.74531 24.8941   7
   2   9   1 16.7358 28.5141   3
  -2  -9  -1 18.3817 18.2226   2
   2   9   2 129.753 43.2774   3
  -2  -9  -2-4.23298 19.2110   2
   2   9   3 8391.88 425.185   3
   2   9   4 13224.4 557.192   3
   2   9   5 263.211 70.2821   3
   2   9   6 396.419 84.2859   3
  -2  -9  -7 171.727 65.7074  10
  -2  -9  -7 71.3614 23.2959  12
   2   9   7 138.537 47.6591   3
  -2  -9  -8 8086.28 547.340  12
   2   9   8 10212.6 462.689   3
  -2  -9  -8 9615.37 614.251  10
  -2  -9  -8 9847.17 577.592   9
  -2  -9  -9 63.5983 50.0442   9
  -2  -9  -9 39.1333 28.7923  10
  -2  -9  -9 72.3652 39.9779  12
   2   9   9 147.286 50.0327   3
  -2  -9 -10 5188.13 426.910  12
   2   9  10 6245.04 350.903   3
  -2  -9 -10 5311.31 423.085   9
  -2  -9 -10 5838.78 463.309  10
  -2  -9 -11 1068.73 184.142  12
  -2  -9 -11 1324.80 212.751  10
  -2  -9 -11 1129.21 185.651   9
  -2  -9 -12 1725.75 232.207   9
  -2  -9 -12 1815.08 237.959  12
  -2  -9 -13 726.558 143.986  12
  -2  -9 -13 753.766 150.190   9
  -2  -9 -14 118.539 50.2875   5
  -2  -9 -14 83.5636 49.4382  12
  -2  -9 -15 416.470 90.6933   5
  -2  -9 -16 403.928 76.5094   5
  -2  -9 -17 123.981 33.7247   5
  -2 -10   8 89.3040 33.9112  14
   2  10  -8 61.2893 30.0967   6
   2  10  -7 565.648 128.154  13
   2  10  -7 761.388 117.605   6
   2  10  -6 666.957 117.529   6
   2  10  -6 759.971 170.361  13
   2  10  -5 95.3008 91.1449  13
   2  10  -5 85.5284 49.5368   6
   2  10  -4 991.061 160.042   6
   2  10  -3 379.204 103.581   6
   2  10  -2 4019.05 337.549   6
  -2 -10   1 5837.14 435.352   7
   2  10  -1 6591.64 432.127   6
  -2 -10   1 6572.27 429.268   2
  -2 -10   0 20644.9 914.054   7
  -2 -10   0 22041.4 840.132   2
   2  10   0 20023.6 832.315   6
  -2 -10  -1 1259.23 165.455   2
  -2 -10  -1 1255.68 198.036   7
   2  10   1 1407.51 182.943   6
   2  10   1 1262.05 170.240   3
  -2 -10  -2 1109.32 150.247   2
   2  10   2 1261.94 164.679   3
  -2 -10  -2 1178.72 195.903   7
  -2 -10  -3 12586.3 705.824   7
   2  10   3 14012.9 610.131   3
  -2 -10  -4 9705.48 611.001   7
   2  10   4 10492.9 514.184   3
  -2 -10  -4 11942.5 639.667  12
  -2 -10  -4 11554.2 667.293  10
   2  10   5 23877.3 858.830   3
  -2 -10  -5 24663.6 1002.78  12
  -2 -10  -5 21351.7 973.208   7
  -2 -10  -5 21662.7 1010.31  10
  -2 -10  -6 1940.15 249.052  12
   2  10   6 1788.81 191.319   3
  -2 -10  -6 1188.21 205.589  10
   2  10   7 9618.91 482.935   3
  -2 -10  -7 9358.21 587.191  12
  -2 -10  -7 8004.66 588.306  10
  -2 -10  -8 15817.0 802.968  12
  -2 -10  -8 14103.5 824.917  10
  -2 -10  -8 14317.4 758.575   9
  -2 -10  -9 126.531 69.4429   9
  -2 -10  -9 22.6698 59.8153  10
  -2 -10  -9 30.2058 46.2924  12
   2  10   9-8.31005 25.0724   3
  -2 -10 -10 16330.6 815.934  12
  -2 -10 -10 17494.0 890.146  10
  -2 -10 -10 16352.0 815.277   9
  -2 -10 -11 3270.59 330.371  12
  -2 -10 -11 3272.17 332.857   9
  -2 -10 -11 3837.42 379.029  10
  -2 -10 -12 2510.67 280.208  12
  -2 -10 -12 2410.45 277.139   9
  -2 -10 -13 781.549 148.789  12
  -2 -10 -13 962.608 165.873   9
  -2 -10 -14 762.079 131.467  12
  -2 -10 -15 795.561 118.290   5
  -2 -10 -16 659.838 93.7026   5
   2  11  -7 94.9528 37.8176   6
  -2 -11   6 259.718 55.7731  14
   2  11  -6 362.590 102.306  13
   2  11  -6 210.421 63.8419   6
   2  11  -5 304.249 102.794  13
   2  11  -5 319.362 81.9300   6
   2  11  -4 602.435 162.432  13
   2  11  -4 381.619 93.5256   6
   2  11  -3 101.832 62.1244   6
   2  11  -2 7496.02 463.544   6
   2  11  -1-37.2622 50.2673   6
  -2 -11   0 9744.01 590.627   7
   2  11   0 10050.2 541.096   6
  -2 -11  -1 22.1738 42.9278   7
   2  11   1 20.5887 38.1165   6
  -2 -11  -2 8150.42 555.369   7
   2  11   2 8593.57 489.862   3
  -2 -11  -3 925.046 176.165   7
  -2 -11  -3 1227.85 192.599  12
   2  11   3 1491.21 192.125   3
  -2 -11  -3 1408.81 224.010  10
  -2 -11  -4 2762.11 314.905   7
   2  11   4 2736.03 259.677   3
  -2 -11  -4 2694.53 319.307  10
  -2 -11  -4 2785.45 298.319  12
  -2 -11  -5 197.937 101.594   7
  -2 -11  -5 348.403 115.884  10
  -2 -11  -5 101.141 80.3923  12
   2  11   5 290.507 82.5750   3
  -2 -11  -6 4835.86 409.035  12
   2  11   6 4624.72 338.971   3
  -2 -11  -6 4423.65 436.391  10
  -2 -11  -7 687.188 171.565  10
   2  11   7 920.892 146.323   3
  -2 -11  -7 871.656 172.503  12
  -2 -11  -8 805.036 188.434  10
  -2 -11  -8 991.156 186.037   9
  -2 -11  -8 1133.58 198.241  12
  -2 -11  -9 3245.88 336.762   9
  -2 -11  -9 3372.74 341.639  12
  -2 -11  -9 2331.02 312.239  10
  -2 -11 -10 6071.50 460.319  12
  -2 -11 -10 5363.98 475.220  10
  -2 -11 -10 4971.42 421.234   9
  -2 -11 -11 82.6334 66.5081  12
  -2 -11 -11 35.1234 48.3619  10
  -2 -11 -11 26.6603 36.8217   9
  -2 -11 -12 809.014 150.493  12
  -2 -11 -12 708.118 144.813   9
  -2 -11 -13 2735.92 274.358   9
  -2 -11 -13 3122.32 285.287  12
  -2 -11 -14 1143.82 155.605  12
  -2 -11 -15 6.92744 27.5333   5
  -2 -11 -16 118.404 36.3238   5
   2  12  -6 79.7936 26.4306   6
   2  12  -5 1803.19 212.972  13
   2  12  -5 1691.00 159.490   6
   2  12  -4 569.285 137.928  13
   2  12  -4 530.349 98.5243   6
   2  12  -3 242.700 104.318  13
   2  12  -3 168.315 61.7398   6
   2  12  -2 3990.88 309.013   6
   2  12  -1 475.437 104.614   6
   2  12   0 3661.01 300.976   6
  -2 -12  -1 301.072 89.8636   7
  -2 -12  -2 5720.39 412.062  12
  -2 -12  -2 4745.27 414.985   7
  -2 -12  -3 2115.69 274.577   7
  -2 -12  -3 1782.83 227.643  12
  -2 -12  -3 2153.57 278.096  10
  -2 -12  -4 57.0789 33.1540   7
  -2 -12  -4 152.006 70.4167  10
  -2 -12  -4 146.367 57.5405  12
  -2 -12  -5 67.4384 58.7199  10
  -2 -12  -5-0.94129 20.5705  12
  -2 -12  -6 147.517 84.0367  10
  -2 -12  -6 234.043 89.7530  12
  -2 -12  -7 6528.65 477.104  12
  -2 -12  -7 6692.78 552.993  10
  -2 -12  -8-21.0292 55.8758  10
  -2 -12  -8 49.6014 35.7373   9
  -2 -12  -8-29.2305 39.4020  12
  -2 -12  -9 12994.0 699.598   9
  -2 -12  -9 13437.9 698.554  12
  -2 -12  -9 11499.1 740.002  10
  -2 -12 -10 377.973 127.257  10
  -2 -12 -10 522.603 126.711  12
  -2 -12 -10 434.817 110.895   9
  -2 -12 -11 1649.62 214.437  12
  -2 -12 -11 1199.56 205.884  10
  -2 -12 -11 1348.92 198.797   9
  -2 -12 -12 1696.36 206.842  12
  -2 -12 -12 1539.87 201.392   9
  -2 -12 -13 34.0635 30.3374  12
  -2 -12 -13 56.4134 34.4473   9
  -2 -12 -14 29.1651 26.7614  12
  -2 -12 -15 543.126 84.3016   5
   2  13  -4 288.525 76.7798  13
  -2 -13   4 339.828 69.3318  10
   2  13  -3 122.590 68.0924  13
   2  13  -3 40.3449 20.8309   6
   2  13  -2 1011.75 128.360   6
   2  13  -1 753.507 113.939   6
  -2 -13   0 501.998 101.414  12
  -2 -13  -1 123.752 48.9845  12
  -2 -13  -1 162.386 72.7908  10
  -2 -13  -2 90.8364 44.1772  12
  -2 -13  -2 62.3756 32.5231  10
  -2 -13  -3 2202.89 241.096  12
  -2 -13  -3 2068.84 263.861  10
  -2 -13  -4 1837.44 222.523  12
  -2 -13  -4 2028.53 270.435  10
  -2 -13  -5 5299.77 394.458  12
  -2 -13  -5 5561.43 470.547  10
  -2 -13  -6 773.377 174.882  10
  -2 -13  -6 672.619 135.820  12
  -2 -13  -7-52.2504 77.5290  10
  -2 -13  -7 80.7570 54.5980  12
  -2 -13  -8 122.828 69.6610  10
  -2 -13  -8 208.815 68.7447  12
  -2 -13  -9 8743.31 517.269   9
  -2 -13  -9 7835.66 486.471  12
  -2 -13  -9 7808.09 572.483  10
  -2 -13 -10 5347.50 389.582   9
  -2 -13 -10 5230.92 372.785  12
  -2 -13 -10 4854.91 424.292  10
  -2 -13 -11 322.483 83.6733  12
  -2 -13 -11 235.203 78.5913   9
  -2 -13 -11 195.555 78.1121  10
  -2 -13 -12 2.35960 20.5991   9
  -2 -13 -12 14.7982 20.2244  12
  -2 -13 -13 25.8491 23.3348  12
  -2 -13 -13 7.22328 31.7674   9
  -2 -13 -14 794.298 99.6215  12
  -2 -13 -15 94.1233 30.8875   5
   2  14  -3 295.048 69.2955  13
  -2 -14   3 253.690 53.1064  10
  -2 -14   2 68.8348 31.4963  10
   2  14  -2 176.736 74.2143  13
  -2 -14   1 1504.58 169.487  10
  -2 -14   0 831.022 133.539  10
  -2 -14  -1 63.4903 49.9578  10
  -2 -14  -2 1619.86 210.074  10
  -2 -14  -3-40.2120 21.0816  10
  -2 -14  -4 3221.57 267.050  12
  -2 -14  -4 3597.00 335.969  10
  -2 -14  -5 371.670 108.060  10
  -2 -14  -5 365.047 89.2021  12
  -2 -14  -6 24.7312 33.8072  12
  -2 -14  -6 104.403 59.2944  10
  -2 -14  -7 1734.46 195.164  12
  -2 -14  -7 1946.62 262.072  10
  -2 -14  -8 325.596 80.9420  12
  -2 -14  -8 268.057 97.9867  10
  -2 -14  -9 3736.01 351.773  10
  -2 -14  -9 2970.99 250.976  12
  -2 -14 -10 737.834 117.744  12
  -2 -14 -10 556.122 128.749  10
  -2 -14 -11 1819.45 173.433  12
  -2 -14 -11 2138.20 237.052  10
  -2 -14 -12-15.0431 19.6381   9
  -2 -14 -12 63.7894 35.8155  12
  -2 -14 -13 3.56877 17.9817  12
  -2 -14 -14 7.98748 13.9323   5
   2  15  -1 166.459 52.8339  13
  -2 -15   1 107.368 40.3537  10
  -2 -15   0 171.094 52.2489  10
  -2 -15  -1 425.003 87.6828  10
  -2 -15  -2 1577.21 180.743  10
  -2 -15  -3 276.537 78.0391  10
  -2 -15  -4 1603.85 196.815  10
  -2 -15  -5 1031.67 160.869  10
  -2 -15  -6 1.61706 25.3538  10
  -2 -15  -7 75.6506 46.0625  10
  -2 -15  -8 2030.00 231.782  10
  -2 -15  -9 176.086 66.0834  10
  -2 -15 -10-11.9888 27.2686  10
  -2 -15 -11 9.59569 18.1425  10
  -2 -16  -2-46.3388 21.7480  10
  -2 -16  -3 22.6913 26.8850  10
  -2 -16  -4 1156.95 138.113  10
  -2 -16  -5 9.78509 17.3997  10
  -2 -16  -6 1881.66 186.370  10
  -2 -16  -7-24.7775 16.6217  10
  -2 -16  -8 435.802 86.5561  10
  -2 -16  -9 142.394 50.3197  10
  -2 -16 -10 14.9859 12.0095  10
   3 -15  -6 342.781 62.4838   9
   3 -15  -5 423.113 73.0265   9
   3 -15  -4 80.5140 32.3971   9
   3 -15  -3 20.7251 24.6813   9
   3 -14  -9 443.127 74.3378   9
   3 -14  -8 370.053 75.2823   9
   3 -14  -7-9.90601 15.3398   9
   3 -14  -6 81.4973 43.8887   9
   3 -14  -5 3.72497 18.4888   7
   3 -14  -5 130.592 58.0117   9
   3 -14  -4-50.0957 30.9929   7
   3 -14  -3 68.7303 34.2093   7
   3 -14  -2 674.420 99.3633   7
   3 -14  -1 791.568 109.118   7
   3 -14   0 64.6962 32.6722   7
   3 -14   1 148.638 43.6674   7
   3 -13 -10 217.743 60.9033   9
   3 -13  -9 12.6821 27.4476   9
   3 -13  -8 1157.71 163.904   9
   3 -13  -7 308.766 72.1475  16
   3 -13  -7 349.392 93.4228   9
   3 -13  -6-25.7998 50.3858   9
   3 -13  -6 26.9562 28.2507  16
   3 -13  -5-25.7164 23.5491   7
   3 -13  -4 232.331 62.5387   7
   3 -13  -3 101.660 45.3391   7
   3 -13  -2 211.778 66.6658   7
   3 -13  -1 1.38732 23.7501   7
   3 -13   0 147.181 50.9387   7
   3 -13   1 47.7841 23.8807   7
   3 -13   2 69.0264 40.5756   7
   3 -13   3 90.4771 32.7625   7
   3 -12 -11 421.373 81.7606   9
   3 -12 -10 52.6564 41.3666   9
   3 -12  -9 2499.43 257.538   9
   3 -12  -9 2339.92 193.511  16
   3 -12  -8 30.7872 41.1471   9
   3 -12  -8 5.33482 21.3596  16
   3 -12  -7 111.792 55.2298  16
   3 -12  -7 263.199 96.7174   9
   3 -12  -6 437.818 105.274  16
   3 -12  -5 724.439 136.178  16
   3 -12  -5 810.379 126.583   7
   3 -12  -4 58.9820 29.5200  16
   3 -12  -4 31.3349 39.5839   7
   3 -12  -3 3916.73 304.110   7
   3 -12  -3 4172.48 352.639  16
   3 -12  -2 643.378 119.331   7
   3 -12  -1 302.769 81.7786   7
   3 -12   0 58.0645 43.7987   7
   3 -12   1 1.12662 19.3724   7
   3 -12   2 53.0515 43.0924   7
   3 -12   3 680.005 110.561   7
   3 -12   4 547.163 92.1812   7
   3 -11 -12 407.693 76.5260   9
   3 -11 -11 108.996 45.4014   9
   3 -11 -10 809.878 144.406   9
   3 -11  -9 41.3689 40.3175   9
   3 -11  -9 47.8506 27.5045  16
   3 -11  -8 40.0223 26.9183  16
   3 -11  -8 146.946 74.8236   9
   3 -11  -7 1422.83 191.495  16
   3 -11  -7 1870.87 267.003   9
   3 -11  -6-9.49116 22.0762  16
   3 -11  -5 623.195 117.296   7
   3 -11  -5 561.281 125.247  16
   3 -11  -4 65.6331 41.2195   7
   3 -11  -4 101.528 61.9576  16
   3 -11  -3 123.402 69.5451  16
   3 -11  -3 156.506 68.1292   7
   3 -11  -2 72.1773 46.5060   7
   3 -11  -2 0.32426 54.0482  16
   3 -11  -1 246.949 89.5066  16
   3 -11  -1 202.416 71.4845   7
   3 -11   0 5.51465 39.5738   7
   3 -11   1 1397.58 188.955   7
   3 -11   2 271.895 80.4919   7
   3 -11   3 240.268 73.4883   7
   3 -11   4 33.2094 18.8599   7
   3 -11   5 75.8006 33.2201   7
  -3  11  -6 805.833 93.8011   6
   3 -10 -12 273.761 60.0442   8
   3 -10 -12 197.215 60.6305   9
   3 -10 -11 560.336 95.7201   8
   3 -10 -11 436.519 95.8361   9
   3 -10 -10 1555.07 169.972   8
   3 -10 -10 1392.48 203.211   9
   3 -10  -9 1151.81 205.384   9
   3 -10  -9 1543.97 173.437   8
   3 -10  -9 1470.81 175.711  16
   3 -10  -8 70.4029 50.7379  16
   3 -10  -8 26.4915 20.9615   9
   3 -10  -7 70.4369 44.6463  16
   3 -10  -7 71.9685 44.6653   9
   3 -10  -6 1582.38 210.568  16
   3 -10  -5 2802.30 288.131  16
   3 -10  -4 1162.26 163.981   7
   3 -10  -4 1277.22 197.779  16
   3 -10  -3 6573.08 474.663  16
   3 -10  -3 6346.48 409.416   7
   3 -10  -2 285.001 100.447  16
   3 -10  -2 135.387 55.5010   7
   3 -10  -1 98.3754 48.6939   7
   3 -10  -1 122.839 52.8810  16
   3 -10   0 562.330 132.446  16
   3 -10   0 654.516 128.250   7
   3 -10   1 7346.53 461.030   7
   3 -10   2 359.584 96.2307   7
   3 -10   3 238.187 72.9057   7
   3 -10   4 52.3598 41.7145   7
  -3  10  -4 64.9516 44.8006   6
   3 -10   5 263.886 72.5479   7
  -3  10  -5 266.700 69.4747   6
  -3  10  -6 272.555 66.7067   6
   3 -10   6 266.370 70.5452   7
  -3  10  -7 252.212 60.1739   6
  -3  10  -8 465.794 70.1683   6
   3  -9 -13 340.220 72.1212   8
   3  -9 -12 471.988 94.0022   8
   3  -9 -12 363.019 81.6050   9
   3  -9 -11 284.225 80.5880   8
   3  -9 -11 351.392 88.5165   9
   3  -9 -10 129.573 62.9527   8
   3  -9 -10 102.991 57.7719   9
   3  -9  -9 2411.94 231.902  16
   3  -9  -9 2382.11 242.748   8
   3  -9  -9 2293.33 284.839   9
   3  -9  -8 1007.59 154.293  16
   3  -9  -8 977.367 191.011   9
   3  -9  -7 572.238 117.776  16
   3  -9  -7 724.329 170.546   9
   3  -9  -6 2999.40 288.814  16
   3  -9  -5 100.268 56.5847  16
  -3   9   5 133.557 60.1872  18
   3  -9  -4 5389.61 408.803  16
   3  -9  -4 6433.90 399.295   7
  -3   9   4 5121.09 393.550  18
   3  -9  -3 239.515 75.9299   7
   3  -9  -3 381.063 107.672  16
  -3   9   3 295.627 85.6209  18
   3  -9  -2 5269.09 362.658   7
   3  -9  -2 5005.25 401.582  16
  -3   9   2 4765.71 362.291  18
   3  -9  -1 809.804 155.237  16
   3  -9  -1 918.938 150.704   7
  -3   9   1 832.534 143.090  18
   3  -9   0 2196.89 236.348   7
   3  -9   0 2204.27 262.443  16
   3  -9   1 5314.19 381.757   7
   3  -9   1 4977.85 397.029  16
   3  -9   2 995.580 161.286   7
   3  -9   3 1779.99 217.844   7
  -3   9  -3 1742.02 179.483   6
  -3   9  -4 401.799 90.1215   6
   3  -9   4 311.519 90.1055   7
   3  -9   5 2079.21 224.617   7
  -3   9  -5 1836.15 197.443   6
   3  -9   6 242.603 72.0999   7
  -3   9  -6 238.729 70.1455   6
  -3   9  -7 88.5288 44.7044   6
  -3   9  -8 394.089 78.6724   6
  -3   9  -9 28.8596 24.0784   6
   3  -8 -14 1458.88 141.614   8
   3  -8 -13 97.6472 44.9798   8
   3  -8 -12 6.18792 18.8568   8
   3  -8 -12 20.8352 24.0789   9
   3  -8 -11 981.703 159.958   8
   3  -8 -11 932.526 151.619   9
   3  -8 -10 562.938 126.368   8
   3  -8 -10 663.207 139.582   9
   3  -8  -9 63.8168 64.0834   9
   3  -8  -9 102.367 48.1581  16
   3  -8  -8 1294.72 172.724  16
   3  -8  -8 1433.48 230.356   9
   3  -8  -7 13649.7 762.227   9
  -3   8   7 12049.7 655.749  18
   3  -8  -7 13706.1 634.793  16
   3  -8  -6 183.291 62.4328  16
  -3   8   6 206.698 79.7693  18
   3  -8  -5 1062.40 168.294  16
  -3   8   5 890.372 160.139  18
   3  -8  -4 1966.95 231.458  16
  -3   8   4 1880.42 224.029  18
   3  -8  -3 254.904 87.9576  16
   3  -8  -3 128.822 44.2882   7
  -3   8   3 188.713 72.6692  18
   3  -8  -2 1974.18 208.278   7
  -3   8   2 1716.10 206.372  18
   3  -8  -2 2014.30 237.775  16
   3  -8  -1 1729.95 219.522  16
   3  -8  -1 1710.24 195.468   7
  -3   8   1 1556.23 191.036  18
   3  -8   0 335.662 89.6111   7
   3  -8   0 338.393 95.4514  16
  -3   8   0 309.931 80.2501  18
   3  -8   1 2183.58 231.323   7
   3  -8   1 2100.36 242.124  16
   3  -8   2 578.743 124.560  16
   3  -8   2 696.857 132.894   7
   3  -8   3 14820.7 690.114   7
   3  -8   3 14105.9 774.745   2
  -3   8  -3 14269.5 603.185   6
  -3   8  -4 3537.59 280.950   6
   3  -8   4 3646.58 315.445   7
  -3   8  -5 2196.51 221.500   6
   3  -8   5 2470.57 252.445   7
   3  -8   6 32.0778 29.8162   7
  -3   8  -6 57.2678 38.8240   6
  -3   8  -7 383.907 91.3188   6
  -3   8  -8 234.975 68.8069   6
  -3   8  -9 27.3120 27.7131   6
  -3   8 -10 1453.01 141.494   6
   3  -7 -14-1.43348 12.2599   8
   3  -7 -13 91.7364 44.9197   8
   3  -7 -12 413.889 105.268   8
   3  -7 -12 528.205 103.316   9
   3  -7 -11 152.239 69.4225   8
   3  -7 -11 83.9842 35.2056  15
   3  -7 -11 38.3319 33.6477   9
   3  -7 -10 42.7109 22.1220  15
   3  -7 -10 7.11378 36.6946   9
   3  -7  -9 1395.54 181.789  15
   3  -7  -9 1157.77 189.834   9
   3  -7  -9 1401.68 173.192  16
   3  -7  -8 10567.3 624.762   9
   3  -7  -8 11969.5 581.304  15
   3  -7  -8 11157.2 543.969  16
   3  -7  -7 403.320 91.9090  16
  -3   7   7 178.686 70.0090  18
   3  -7  -7 355.588 116.167   9
   3  -7  -6 2362.68 236.106  16
  -3   7   6 1994.43 230.806  18
   3  -7  -5 6362.28 401.131  16
  -3   7   5 5189.14 382.552  18
   3  -7  -4 309.450 87.5559  16
  -3   7   4 195.890 69.6213  18
  -3   7   3 464.854 100.913  18
  -3   7   2 5997.24 386.219  18
  -3   7   1 685.664 120.180  18
  -3   7   0 3053.80 257.675  18
   3  -7   1 22775.2 891.301  16
   3  -7   1 22810.5 856.452   7
  -3   7  -1 23012.9 819.649  18
   3  -7   2 1697.12 197.963   7
   3  -7   2 1536.17 222.470   2
   3  -7   2 1262.75 178.255  16
   3  -7   3 13096.4 714.440   2
  -3   7  -3 14180.5 590.696   6
   3  -7   3 14252.1 655.869   7
  -3   7  -3 15088.0 670.233   1
   3  -7   3 12518.2 623.754  16
   3  -7   4-11.9624 36.0477   7
  -3   7  -4 35.6324 31.1361   1
   3  -7   4 55.2399 51.8613   2
  -3   7  -4-0.82582 26.2857   6
   3  -7   5 2808.67 272.832   7
   3  -7   5 2604.72 301.272   2
  -3   7  -5 2907.49 258.168   6
   3  -7   6 475.596 108.023   7
  -3   7  -6 418.214 94.0140   6
  -3   7  -7 3594.99 296.290   6
  -3   7  -8 1171.42 165.410   6
  -3   7  -9 359.610 86.4151   6
  -3   7 -10 69.1894 39.6686   6
  -3   7 -11 1159.55 123.118   6
   3  -6 -14 23.7961 20.3234   8
   3  -6 -13 34.3176 47.4975   8
   3  -6 -13 70.4328 43.2063  15
   3  -6 -12 1020.00 169.341   8
   3  -6 -12 1391.83 164.729  15
   3  -6 -11 10411.9 512.043  15
   3  -6 -11 9948.26 519.827   9
   3  -6 -11 9592.70 595.346   8
   3  -6 -10 7746.28 443.913  15
   3  -6 -10 7007.08 448.887   9
   3  -6  -9 1429.57 177.249  16
   3  -6  -9 1650.34 194.588  15
   3  -6  -9 1284.90 188.279   9
   3  -6  -8 1256.64 165.057  16
   3  -6  -8 1478.15 183.893  15
   3  -6  -8 961.347 179.372   4
  -3   6   8 1001.07 160.024  18
   3  -6  -8 1318.78 194.603   9
   3  -6  -7 5234.81 349.153  15
   3  -6  -7 4918.25 340.073  16
  -3   6   7 4176.46 339.541  18
   3  -6  -7 4995.44 395.900   9
   3  -6  -6 381.528 94.3022  16
   3  -6  -6 265.601 76.5714  15
  -3   6   6 204.514 78.3289  18
  -3   6   5 3514.67 292.673  18
  -3   6   4 9.95936 18.9695  18
  -3   6   3 1012.78 146.828  18
  -3   6   2 2828.89 246.414  18
  -3   6   1 4665.28 318.888  18
  -3   6   0 364.097 83.8941  18
  -3   6  -1 4518.81 297.601  18
   3  -6   2-32.4925 46.8015   2
   3  -6   3 4756.48 379.332   2
   3  -6   4 116.376 43.6973   7
  -3   6  -4 141.721 61.8247   1
   3  -6   4 193.338 74.3300   2
  -3   6  -4 124.972 54.4948   6
  -3   6  -5 6204.91 421.646   1
   3  -6   5 6532.88 415.551   7
   3  -6   5 5944.24 449.193   2
  -3   6  -5 5874.74 377.470   6
   3  -6   6 43.5022 43.2611   7
  -3   6  -6 10.5037 21.0837   6
   3  -6   6-66.4869 56.2782   2
  -3   6  -6-0.28582 71.9603   1
  -3   6  -7-19.7995 37.5720   6
  -3   6  -8-18.2044 28.1881   6
  -3   6  -9 1326.64 172.099   6
  -3   6 -10 10.3784 34.5082   6
  -3   6 -11 251.335 63.1230   6
  -3   6 -12 189.599 47.3953   6
   3  -5 -14 181.619 56.6654   8
   3  -5 -14 261.110 59.3106  15
   3  -5 -13 1590.05 196.446   8
   3  -5 -13 2172.25 193.560  15
   3  -5 -12 26.0350 26.8962   8
   3  -5 -12 168.201 60.3365  15
   3  -5 -11 533.487 132.560   8
   3  -5 -11 588.729 115.731  15
   3  -5 -10 6111.18 396.107  15
   3  -5  -9 770.689 126.827  16
   3  -5  -9 892.344 140.893  15
   3  -5  -9 658.729 125.243   9
   3  -5  -8 3265.95 273.313  15
   3  -5  -8 2334.09 279.658   4
   3  -5  -8 3332.34 270.623  16
   3  -5  -8 3459.31 303.707   9
  -3   5   8 3168.59 279.365  18
   3  -5  -7 5784.89 363.170  16
   3  -5  -7 6175.18 376.311  15
  -3   5   7 5069.01 358.848  18
   3  -5  -7 5878.59 405.594   9
  -3   5   6 2300.64 226.678  18
  -3   5   5 713.674 121.607  18
  -3   5   4 24695.8 877.810  18
  -3   5   3 8032.42 424.905  18
  -3   5   2 10377.3 486.813  18
  -3   5   1 3543.40 258.583  18
  -3   5   0-7.99689 16.3208  18
  -3   5  -1 2218.92 194.868  18
  -3   5  -2 22994.4 766.657  18
   3  -5   2 22805.8 880.015   2
   3  -5   3 866.256 143.409   2
   3  -5   4 2048.64 233.516   2
  -3   5  -4 2274.74 231.517   1
   3  -5   5 224.502 75.9205   7
  -3   5  -5 280.837 91.2711   1
   3  -5   5 88.6638 46.5062   2
   3  -5   6 11101.5 552.071   7
  -3   5  -6 10767.7 587.912   1
   3  -5   6 10120.2 589.274   2
  -3   5  -6 10772.6 534.649   6
  -3   5  -7 1786.36 232.293   1
   3  -5   7 1510.97 212.814   2
  -3   5  -7 1550.55 191.452   6
  -3   5  -8 1617.92 198.155   6
  -3   5  -9 1189.72 165.125   6
  -3   5 -10 490.687 101.544   6
  -3   5 -11 62.6625 36.1783   6
  -3   5 -12 1062.45 127.526   6
  -3   5 -13 673.854 82.6498   6
   3  -4 -14 1468.08 142.678  15
   3  -4 -14 1396.73 144.929   8
   3  -4 -13 284.002 82.2682   8
   3  -4 -13 302.658 70.6100  15
   3  -4 -12 3535.83 277.838  15
   3  -4 -12 2856.89 287.683   8
   3  -4 -11 1345.56 210.832   8
   3  -4 -11 1693.94 197.076  15
   3  -4 -10 950.394 150.964  15
   3  -4  -9 237.976 72.0527  16
   3  -4  -9 169.897 59.9152  15
   3  -4  -9 233.731 88.3243   4
   3  -4  -8 3164.62 266.549  15
   3  -4  -8 2984.30 302.014   4
   3  -4  -8 3132.63 262.604  16
   3  -4  -7 196.443 63.0262  16
   3  -4  -7 281.658 79.5635  15
  -3   4   7 256.356 69.9958  18
  -3   4   6 904.513 132.230  18
  -3   4   5 2173.26 205.211  18
  -3   4   4 59.5455 38.8986  18
  -3   4   3 1493.44 158.731  18
  -3   4   2 50179.6 1404.21  18
  -3   4   1 11464.1 486.350  18
  -3   4   0 88796.2 2231.56  18
  -3   4  -1 585.542 94.3089  18
   3  -4   2 18174.0 709.301   2
  -3   4  -2 17772.2 624.245  18
  -3   4  -3 4733.54 265.085  18
   3  -4   3 4329.40 312.551   2
  -3   4  -4 434.090 95.2700   1
   3  -4   4 410.114 93.0412   2
  -3   4  -5 7446.10 448.326   1
   3  -4   5 6862.79 429.084   2
  -3   4  -6 30.5543 45.6755   1
   3  -4   6-52.1519 38.2134   2
  -3   4  -7 2388.43 266.211   1
   3  -4   7 2205.45 243.928   2
  -3   4  -7 2322.10 230.503   6
  -3   4  -8 4496.72 383.050   1
  -3   4  -8 4642.87 343.487   6
  -3   4  -9 2342.85 241.014   6
  -3   4 -10 2533.98 243.497   6
  -3   4 -11 6877.95 403.912   6
  -3   4 -12 141.259 51.5076   6
  -3   4 -13 31.6593 23.8849  15
  -3   4 -13 99.6132 36.3326   6
   3  -3 -14 511.012 82.5262  15
   3  -3 -13 1376.13 165.560   8
   3  -3 -13 1570.85 169.683  15
   3  -3 -12 196.772 73.3096   8
   3  -3 -12 194.290 60.7732  15
   3  -3 -11 712.280 147.733   8
   3  -3 -11 654.289 119.346  15
   3  -3 -10 1358.87 182.922  15
   3  -3  -9 560.554 106.907  16
   3  -3  -9 744.117 131.635  15
   3  -3  -9 794.561 152.546   4
   3  -3  -8 4039.28 308.802  15
   3  -3  -8 3461.09 312.604   4
   3  -3  -8 3601.52 282.897  16
   3  -3  -7 7154.25 410.794  15
  -3   3   7 7313.37 391.869  18
  -3   3   6 7352.01 386.947  18
  -3   3   5 5189.91 311.083  18
  -3   3   4 10473.2 457.066  18
  -3   3   3 30919.5 944.221  18
  -3   3   2 2254.46 184.649  18
  -3   3   1 4737.92 269.951  18
  -3   3   0 29546.7 887.264  18
  -3   3  -1 8.69407 11.5287  18
  -3   3  -2 19779.6 649.696  18
   3  -3   3 423.612 86.9244   2
  -3   3  -3 491.015 76.8778  18
   3  -3   4 22140.7 782.828   2
  -3   3  -4 20537.5 782.103   1
   3  -3   5 13197.7 577.579   2
  -3   3  -5 12108.8 583.306   1
  -3   3  -6 6410.40 421.654   1
   3  -3   6 7260.24 419.085   2
  -3   3  -7 1945.17 236.434   1
   3  -3   7 2362.01 236.224   2
  -3   3  -8 1757.59 235.775   1
  -3   3  -8 2216.05 225.612   6
  -3   3  -8 2020.02 199.199  17
  -3   3  -9 11754.8 667.963   1
  -3   3  -9 13834.4 632.744   6
  -3   3  -9 13033.8 585.060  17
  -3   3 -10 1572.78 194.285   6
  -3   3 -10 1264.17 162.977  17
  -3   3 -11 161.000 51.7755   6
  -3   3 -11 51.1227 32.9072  17
  -3   3 -12 5167.04 332.619   6
  -3   3 -12 4858.29 297.345  17
  -3   3 -13 78.5405 42.3426  15
  -3   3 -13 222.024 63.0285   6
  -3   3 -13 209.715 48.0924  17
  -3   3 -14 573.695 76.6367   6
   3  -2 -14 34.9117 24.4832  15
   3  -2 -13 17.4889 21.6887  15
   3  -2 -13 5.42689 27.3660   8
   3  -2 -12 232.888 67.9575   8
   3  -2 -12 281.183 78.6176  15
   3  -2 -11 733.825 141.699   8
   3  -2 -11 624.014 120.777  15
   3  -2 -10 1904.44 224.108  15
   3  -2 -10 1839.79 204.169  16
   3  -2  -9-25.0805 40.4436  16
   3  -2  -9 56.9636 52.9972  15
   3  -2  -9-13.3520 19.7763   4
   3  -2  -8 98.2132 52.0047  16
   3  -2  -8 194.454 70.7493  15
   3  -2  -8 64.2458 38.4807   4
  -3   2   8 213.749 65.3700   2
   3  -2  -7 237.688 74.3206   4
  -3   2   6 15.7115 18.9387  18
  -3   2   5 3718.56 245.564  18
  -3   2   4 2034.10 172.889  18
  -3   2   3 1584.23 146.196  18
  -3   2   2 153.429 42.7401  18
  -3   2   1 420.647 71.2778  18
  -3   2   0 26330.3 786.199  18
  -3   2  -1 3448.92 206.965  18
  -3   2  -2 3811.71 218.652  18
  -3   2  -3 31460.6 890.316  18
   3  -2   4 24765.4 809.372   2
  -3   2  -4 26579.9 741.772  18
  -3   2  -5 8284.25 450.781   1
   3  -2   5 9493.33 432.966   2
  -3   2  -6 772.830 134.505   1
   3  -2   6 986.221 132.358   2
  -3   2  -7 1159.03 173.594   1
  -3   2  -8 2391.57 271.608   1
  -3   2  -8 2584.27 228.939  17
  -3   2  -9 193.637 88.5811   1
  -3   2  -9 120.592 64.9747   6
  -3   2  -9 26.3523 26.3488  17
  -3   2 -10 7090.92 433.866   6
  -3   2 -10 7056.93 424.221  17
  -3   2 -11 357.752 88.1828   6
  -3   2 -11 346.054 89.2323  17
  -3   2 -12 97.5835 41.0177   6
  -3   2 -12 63.6446 36.3212  17
  -3   2 -13 790.804 139.115  15
  -3   2 -13 1030.12 136.415   6
  -3   2 -13 870.518 120.492  17
  -3   2 -14 200.577 48.7546   6
  -3   2 -14 229.252 51.3361  17
   3  -1 -14-8.99614 17.3737  15
   3  -1 -13 75.8838 37.9823  15
   3  -1 -12 355.072 86.8469   8
   3  -1 -12 320.184 78.5273  15
   3  -1 -11 16263.4 705.677   8
   3  -1 -11 15596.1 719.397  15
   3  -1 -10 554.134 110.348  16
   3  -1 -10 577.618 122.742  15
   3  -1  -9 833.992 138.549  16
   3  -1  -9 1041.70 169.522  15
   3  -1  -8 4747.81 358.648  15
   3  -1  -8 5086.38 351.809   4
  -3   1   8 5153.58 352.815   2
   3  -1  -7 17.4509 32.5804   4
  -3   1   7-10.6233 27.4649   2
   3  -1  -7 1.89078 42.4652  15
  -3   1   6 561.049 90.2098  18
  -3   1   5 25536.0 798.224  18
  -3   1   4 6649.11 320.840  18
  -3   1   3 87.4296 31.5546  18
  -3   1   2 3550.16 209.424  18
  -3   1   1 848.896 94.8846  18
  -3   1   0 4535.25 234.258  18
  -3   1  -1 13736.0 473.569  18
  -3   1  -2 2115.30 149.852  18
  -3   1  -3 1926.08 143.234  18
  -3   1  -4 4629.91 284.226   1
  -3   1  -4 4438.77 230.947  18
  -3   1  -5 594.281 104.020   1
  -3   1  -5 651.338 80.1681  18
  -3   1  -6 25628.2 931.295   1
   3  -1   6 28155.3 850.688   2
  -3   1  -7 11463.7 578.340   1
  -3   1  -8 361.486 93.6274   1
  -3   1  -9 4110.08 307.976  17
  -3   1  -9 3514.68 334.443   1
  -3   1 -10 107.639 51.0747   1
  -3   1 -10 91.8408 26.1990   6
  -3   1 -10 114.828 58.0535  17
  -3   1 -11 46.3179 33.9889   6
  -3   1 -11 84.5129 48.8705  17
  -3   1 -12 1788.94 200.290   6
  -3   1 -12 1687.23 199.944  17
  -3   1 -13 2221.22 206.612   6
  -3   1 -13 1790.63 190.654  17
  -3   1 -14 43.9238 20.8666  17
  -3   1 -15 50.5157 24.1997  17
   3   0 -14-14.7413 11.7700  15
   3   0 -13 57.2240 32.2636  15
   3   0 -12-2.91965 41.3282  15
   3   0 -11 17.9504 26.3760  15
   3   0 -10 1688.11 221.832  15
   3   0 -10 1836.71 207.524   8
   3   0 -10 1548.25 191.994  16
   3   0  -9 5841.74 424.076  15
   3   0  -8 4763.90 373.945  15
  -3   0   8 5014.02 353.086   2
   3   0  -7 9359.11 519.461  15
   3   0  -7 9919.78 476.598   4
  -3   0   7 9701.12 504.892   2
   3   0  -6 21401.2 745.258   4
  -3   0   6 21153.3 786.503   2
  -3   0   5 3552.35 224.312  18
  -3   0   4 16439.3 563.986  18
  -3   0   3 40.3719 22.7280  18
  -3   0   2 3549.02 205.678  18
  -3   0   1 22691.0 677.221  18
  -3   0   0 8341.52 330.744  18
  -3   0  -1 10011.8 376.795  18
  -3   0  -2 24691.7 719.479  18
  -3   0  -3 2597.68 165.373  18
  -3   0  -4 57572.5 1465.09  18
  -3   0  -4 59394.8 1543.65   1
  -3   0  -5 5387.09 314.388   1
  -3   0  -6 970.069 133.621   1
  -3   0  -7 10754.9 537.288   1
  -3   0  -8 7057.61 449.887   1
  -3   0  -9 1658.89 191.104  17
  -3   0  -9 1727.54 179.636   5
  -3   0  -9 1517.02 208.055   1
  -3   0 -10 31246.6 1074.49  17
  -3   0 -10 28452.7 1143.41   1
  -3   0 -11 1577.78 190.624   6
  -3   0 -11 1597.91 200.980  17
  -3   0 -12 17619.3 775.174  17
  -3   0 -12 19898.2 771.717   6
  -3   0 -13-6.48065 31.0094   6
  -3   0 -13-26.4417 28.8502  17
  -3   0 -14 2148.38 201.637  17
  -3   0 -15 3861.47 237.863  17
   3   1 -13 994.485 119.484  15
   3   1 -12 1282.71 163.926  15
   3   1 -11 4399.38 349.581  15
   3   1 -10 1147.18 167.201  16
   3   1 -10 1185.06 185.979  15
   3   1  -9 3165.74 316.802  15
   3   1  -8 13213.0 682.545  15
  -3  -1   8 14051.3 650.179   2
   3   1  -7 5779.20 411.540  15
  -3  -1   7 6137.32 395.323   2
  -3  -1   6 1004.94 148.039   2
   3   1  -5 3243.52 216.607   4
  -3  -1   5 3359.93 214.494  18
  -3  -1   5 2994.79 246.987   2
  -3  -1   4 2637.29 180.626  18
  -3  -1   3 2859.36 184.580  18
  -3  -1   2 6275.18 283.858  18
   3   1  -1 11562.0 312.531   3
  -3  -1   1 10991.3 403.919  18
  -3  -1   0 596.131 74.5931  18
  -3  -1  -1 47.0775 19.0747  18
  -3  -1  -2 66.6116 27.0429  18
  -3  -1  -3 29419.1 836.699  18
  -3  -1  -3 30357.5 846.486   1
  -3  -1  -4 41236.3 1078.13  18
  -3  -1  -4 39556.1 1108.16   1
  -3  -1  -5 201.496 51.4235   1
  -3  -1  -6 2960.15 228.910   1
  -3  -1  -7 44296.5 1336.76   1
  -3  -1  -8 9672.91 512.618   1
  -3  -1  -9 10532.9 563.541   1
  -3  -1  -9 9574.82 501.999  17
  -3  -1 -10 4313.86 336.608  17
  -3  -1 -10 4257.68 368.923   1
  -3  -1 -10 4921.88 318.822   5
  -3  -1 -11 57.7905 44.8647   5
  -3  -1 -11 102.281 59.1392   1
  -3  -1 -11-3.61227 34.5687   6
  -3  -1 -11 76.8732 30.5392  17
  -3  -1 -12 149.826 64.7267  17
  -3  -1 -13 313.556 84.0733  17
  -3  -1 -14 184.505 60.7849  17
  -3  -1 -15 447.101 84.8825  17
  -3  -1 -16 1559.11 131.351  17
   3   2 -13 54.3778 29.6305  15
   3   2 -12 43.5917 15.8066  15
   3   2 -11 4225.94 338.370  15
   3   2 -10 31.6654 34.5624  15
   3   2  -9 1473.55 219.714  15
   3   2  -8 14.3876 44.6642  15
  -3  -2   8 16.7149 33.9304   2
   3   2  -7 3730.82 335.115  15
  -3  -2   7 4125.23 325.879   2
  -3  -2   6 264.037 81.9500   2
  -3  -2   5 943.760 142.529   2
  -3  -2   4 2827.73 235.433   2
  -3  -2   4 2945.84 196.968  18
  -3  -2   3 70.3870 27.3353  18
  -3  -2   2 2902.63 185.302  18
   3   2  -1 40061.4 948.034   3
  -3  -2   1 38768.1 1056.27  18
  -3  -2   0 38735.8 1029.87  18
   3   2   0 38506.2 938.030   3
  -3  -2  -1 1580.62 126.842  18
  -3  -2  -2 30.8173 15.8614   1
  -3  -2  -2 26.2131 21.1378  18
  -3  -2  -3 1513.32 116.715   1
  -3  -2  -3 1563.09 126.998  18
  -3  -2  -4 20171.3 625.196   1
  -3  -2  -5 16041.6 562.490   1
  -3  -2  -6 36915.1 1084.12   1
  -3  -2  -7 1608.00 173.030   1
  -3  -2  -8 6676.14 396.974   1
  -3  -2  -9 717.070 133.049   1
  -3  -2 -10 19306.4 742.435  12
  -3  -2 -10 19124.0 830.306   1
  -3  -2 -10 18854.2 793.412  17
  -3  -2 -10 18755.1 714.993   5
  -3  -2 -11 34779.2 1295.07   1
  -3  -2 -11 37783.3 1177.42  12
  -3  -2 -11 34201.3 1221.57  17
  -3  -2 -11 34639.0 1130.56   5
  -3  -2 -12 8194.69 508.930  17
  -3  -2 -12 8589.69 461.661   5
  -3  -2 -13 586.640 125.183  17
  -3  -2 -14 915.841 148.312  17
  -3  -2 -15 69.0834 33.4491  17
  -3  -2 -16 43.3110 21.7672  17
   3   3 -12 979.642 123.391  15
  -3  -3  12 964.939 107.407  14
   3   3 -11 5.50729 30.0390  15
   3   3 -10 676.471 140.672  15
   3   3  -9 4809.59 403.860  15
   3   3  -8 3239.23 329.210  15
   3   3  -8 3503.14 304.519   6
   3   3  -7 566.702 132.982  15
  -3  -3   7 774.870 138.331   2
   3   3  -7 738.520 139.019   6
   3   3  -6 297.862 105.985  13
   3   3  -6 179.974 63.2463   6
  -3  -3   5 3489.46 290.195   2
  -3  -3   4 2948.53 251.822   2
  -3  -3   3 4240.85 288.323   2
  -3  -3   2 25114.1 810.072   2
  -3  -3   2 23683.5 732.294  18
   3   3  -1 25439.8 660.836   3
  -3  -3   1 23308.5 729.589  18
   3   3   0 18483.2 506.012   3
  -3  -3   0 18469.3 589.505  18
  -3  -3  -1 2867.68 180.641  18
   3   3   1 2864.33 151.299   3
  -3  -3  -1 3007.77 126.546   1
  -3  -3  -2 13915.7 407.014   1
   3   3   2 14059.0 448.244   3
  -3  -3  -3 622.637 67.9622   1
  -3  -3  -4 27.6417 15.4936   1
  -3  -3  -5 1374.15 127.911   1
  -3  -3  -6 6569.53 329.374   1
  -3  -3  -7 30276.2 950.005   1
  -3  -3  -8 5266.49 335.005   1
  -3  -3  -9 89.0035 42.4000   1
  -3  -3 -10 1614.70 176.347   5
  -3  -3 -10 2006.14 207.824  12
  -3  -3 -10 1825.81 215.045  17
  -3  -3 -10 1999.25 232.274   1
  -3  -3 -11 29948.1 1110.67   1
  -3  -3 -11 26905.9 958.790   5
  -3  -3 -11 28811.5 1006.74  12
  -3  -3 -11 29371.7 1086.41  17
  -3  -3 -12 694.939 135.213  17
  -3  -3 -12 802.099 139.941  12
  -3  -3 -12 693.229 120.911   5
  -3  -3 -13 4602.82 323.740   5
  -3  -3 -13 4706.79 376.130  17
  -3  -3 -14 6127.14 414.548  17
  -3  -3 -15 183.441 61.7999  17
  -3  -3 -16 361.925 73.7483  17
  -3  -3 -17 1142.66 101.194  17
   3   4 -12 147.424 41.3788  15
  -3  -4  12 147.427 37.9086  14
   3   4 -11 460.787 93.1044  15
   3   4 -10 704.118 132.107  15
   3   4  -9 5402.48 425.284  15
   3   4  -9 7001.39 433.177   6
   3   4  -8 512.484 127.735  15
   3   4  -8 665.326 132.962   6
   3   4  -7 417.839 150.509  13
  -3  -4   7 451.452 117.237   2
   3   4  -7 330.369 94.5455   6
   3   4  -6 245.014 93.9660  13
  -3  -4   6 374.467 103.673   2
   3   4  -6 290.223 87.3982   6
   3   4  -5 5837.28 396.348   6
  -3  -4   5 6329.15 411.494   2
  -3  -4   4 16857.9 706.701   2
  -3  -4   3 6169.78 366.920   2
  -3  -4   2 163.944 53.5874   2
   3   4  -2 296.649 50.2934   3
  -3  -4   1 3019.66 216.026   2
   3   4  -1 2905.80 164.867   3
   3   4   0 4405.47 200.282   3
  -3  -4   0 4688.86 256.012   2
   3   4   1 354.064 49.2550   3
  -3  -4  -1 320.928 55.8256   2
   3   4   2 719.046 78.7479   3
  -3  -4  -2 655.803 53.8910   1
  -3  -4  -2 594.606 70.3130   2
   3   4   3 7179.16 304.666   3
  -3  -4  -3 7368.27 266.682   1
  -3  -4  -3 7306.36 265.459   2
   3   4   4 15138.3 505.959   3
  -3  -4  -4 13805.7 457.912   1
  -3  -4  -5 876.052 95.9184   1
  -3  -4  -6 28853.5 861.426   1
  -3  -4  -7 7472.60 367.550   1
  -3  -4  -8 4129.57 282.402   1
  -3  -4  -9 26970.4 947.580   1
  -3  -4 -10 7470.90 408.724   5
  -3  -4 -10 8314.62 476.851   1
  -3  -4 -10 8162.42 457.272  12
  -3  -4 -10 7942.09 479.330  17
  -3  -4 -11 985.254 141.151   5
  -3  -4 -11 1507.81 188.789  12
  -3  -4 -11 1335.12 194.529  17
  -3  -4 -11 1441.82 196.653   1
  -3  -4 -12 1160.39 157.246   5
  -3  -4 -12 980.535 154.821  12
  -3  -4 -12 1309.02 197.616  17
  -3  -4 -13 2294.46 236.001  12
  -3  -4 -13 2335.33 261.671  17
  -3  -4 -13 1992.66 208.233   5
  -3  -4 -14 47.9715 26.4597   5
  -3  -4 -14-32.6554 43.0710  17
  -3  -4 -15 1335.44 175.083  17
  -3  -4 -16 23.3907 24.0868  17
  -3  -4 -17 85.7953 32.6218  17
   3   5 -11 87.0916 34.1659  15
   3   5 -10-2.35792 17.5476  15
   3   5 -10 48.8487 28.2446   6
   3   5  -9 845.085 154.106  15
   3   5  -9 1030.70 155.639   6
   3   5  -8-63.2070 47.6825  15
   3   5  -8 76.1150 56.7552   6
   3   5  -7 1042.51 219.105  13
   3   5  -7 988.838 165.436   6
   3   5  -6 1209.50 229.878  13
   3   5  -6 1255.31 189.823   6
  -3  -5   6 1452.81 210.040   2
   3   5  -5 143.435 113.540  13
  -3  -5   5 175.540 67.0316   2
   3   5  -5 113.307 51.1412   6
   3   5  -4 1981.76 228.805   6
  -3  -5   4 2469.54 247.526   2
  -3  -5   3 5503.00 358.972   2
   3   5  -2 9608.89 390.215   3
  -3  -5   2 9431.24 462.266   2
   3   5  -1 9871.10 378.623   3
  -3  -5   1 9790.03 443.774   2
  -3  -5   0 134.338 39.5420   2
   3   5   0 87.0497 17.5203   3
   3   5   1 6968.11 285.225   3
  -3  -5  -1 7114.33 316.522   2
  -3  -5  -2 215.642 44.6634   2
   3   5   2 233.236 47.2778   3
   3   5   3 20161.3 625.480   3
  -3  -5  -3 20397.1 579.635   2
  -3  -5  -4 141.476 29.6459   1
   3   5   4 178.211 43.2951   3
   3   5   5 10708.7 423.958   3
  -3  -5  -5 9817.49 381.056   1
  -3  -5  -6 78.7761 35.2068   1
   3   5   6 94.5287 32.5072   3
  -3  -5  -7 1344.48 140.988   1
   3   5   7 1195.09 134.375   3
   3   5   8 11834.6 502.963   3
  -3  -5  -8 11663.2 509.825   1
  -3  -5  -9 7265.03 405.483   1
   3   5   9 7131.19 383.599   3
  -3  -5 -10 14360.9 635.430   1
   3   5  10 14446.8 600.233   3
  -3  -5 -10 13274.7 655.904  17
  -3  -5 -10 13827.6 651.601  12
   3   5  11 10268.0 494.836   3
  -3  -5 -11 10341.5 543.532   1
  -3  -5 -11 10251.3 546.955  12
  -3  -5 -11 8719.25 474.786   5
  -3  -5 -11 9897.26 566.611  17
  -3  -5 -12 0.30109 22.6710  17
  -3  -5 -12-13.9954 28.2279   5
  -3  -5 -12-33.6793 47.1824  12
  -3  -5 -13 13031.3 609.117   5
  -3  -5 -13 15308.5 681.813  12
  -3  -5 -13 13650.1 696.865  17
  -3  -5 -14 1635.04 212.995  17
  -3  -5 -14 1677.37 186.232   5
  -3  -5 -15 2793.91 257.202  17
  -3  -5 -15 3174.48 241.690   5
  -3  -5 -16 5931.89 337.615  17
  -3  -5 -17 204.578 44.8701  17
  -3  -6  11-34.4720 22.4319  14
   3   6 -10 449.263 83.3656  15
   3   6 -10 739.233 106.203   6
   3   6  -9 308.518 81.2225  15
   3   6  -9 369.703 88.8806   6
   3   6  -8 1874.15 231.044  15
   3   6  -8 2456.62 257.808   6
   3   6  -7 832.057 203.815  13
   3   6  -7 985.822 171.068   6
   3   6  -6 1682.34 288.992  13
   3   6  -6 1939.47 241.407   6
   3   6  -5 6749.65 584.123  13
   3   6  -5 7608.24 500.272   6
   3   6  -4 7108.10 570.570  13
   3   6  -4 7077.60 471.842   6
  -3  -6   4 8736.67 512.060   2
  -3  -6   3 225.656 74.6313   2
   3   6  -3 143.192 60.2786   6
  -3  -6   2 5104.44 341.586   2
   3   6  -2 5260.74 292.871   3
   3   6  -1 6322.82 311.347   3
  -3  -6   1 6045.72 350.884   2
   3   6   0 7897.58 352.151   3
  -3  -6   0 8465.64 395.046   2
  -3  -6  -1 48.8876 23.7889   2
   3   6   1 24.7957 10.0740   3
  -3  -6  -2 75.7416 29.4212   2
   3   6   2 86.8739 33.5560   3
   3   6   3 20824.7 650.885   3
  -3  -6  -3 21911.4 639.838   2
   3   6   4 21091.3 667.973   3
   3   6   5 13339.2 499.835   3
  -3  -6  -5 13251.6 444.562   1
   3   6   6 34432.1 1025.23   3
  -3  -6  -6 35777.2 987.394   1
   3   6   7 2176.83 185.070   3
  -3  -6  -7 1846.55 162.556   1
   3   6   8 5559.95 322.997   3
  -3  -6  -8 5450.29 314.282   1
  -3  -6  -9 72.1285 53.1946  12
   3   6   9 76.7387 38.2969   3
  -3  -6  -9 83.4662 31.6035   1
   3   6  10 1799.44 184.297   3
  -3  -6 -10 1972.51 218.107   9
  -3  -6 -10 1827.11 220.279  12
  -3  -6 -10 1589.64 182.875   1
  -3  -6 -10 1430.54 189.410  17
  -3  -6 -11 481.411 106.418   1
  -3  -6 -11 435.724 102.997  12
   3   6  11 413.328 83.3498   3
  -3  -6 -11 524.975 124.926  17
  -3  -6 -12 3035.16 266.492   5
  -3  -6 -12 3275.05 302.711  12
  -3  -6 -12 3280.41 314.067  17
  -3  -6 -13 417.173 90.6662   5
  -3  -6 -13 494.897 109.191  12
  -3  -6 -13 506.779 122.408  17
  -3  -6 -14 71.9867 50.4874  12
  -3  -6 -14 30.0460 25.8826   5
  -3  -6 -14-12.8053 44.8445  17
  -3  -6 -15 16.7833 15.6518   5
  -3  -6 -15-3.13838 17.9743  17
  -3  -6 -16 96.5369 42.2363  17
  -3  -6 -17 26.3086 14.6298  17
  -3  -7  10 547.255 80.3068  14
   3   7  -9 26.7120 22.9025  15
   3   7  -9 29.8884 27.6876   6
   3   7  -8 865.514 137.334  15
   3   7  -8 915.632 145.842   6
   3   7  -7-53.5735 46.9256  13
   3   7  -7 20.7990 44.7694   6
   3   7  -6 161.721 88.7571  13
   3   7  -6 169.985 66.0292   6
   3   7  -5 953.622 218.669  13
   3   7  -5 976.210 168.411   6
  -3  -7   4 2762.76 288.164   2
   3   7  -4 2226.19 261.531   6
  -3  -7   3 2805.77 279.478   2
   3   7  -3 3014.42 295.573   6
  -3  -7   2 69.2703 51.5865   2
   3   7  -2 102.480 60.8740   6
  -3  -7   1 174.033 57.2430   2
   3   7  -1 234.224 59.4144   3
  -3  -7   0 1198.93 144.467   2
   3   7   0 1310.75 137.548   3
  -3  -7  -1 1596.70 155.813   2
   3   7   1 1588.64 149.089   3
  -3  -7  -2 783.987 99.0544   2
   3   7   2 810.243 104.250   3
  -3  -7  -3 5262.15 264.775   2
   3   7   3 5889.86 295.752   3
   3   7   4 131.876 39.0398   3
   3   7   5 37.1424 24.7785   3
   3   7   6 9171.76 413.277   3
   3   7   7 4505.01 280.088   3
  -3  -7  -7 4464.47 252.992   1
   3   7   8 9261.64 436.814   3
  -3  -7  -8 9084.66 410.154   1
   3   7   9 14657.1 595.826   3
  -3  -7  -9 14561.8 580.158   1
  -3  -7  -9 14717.1 721.186  12
  -3  -7  -9 15540.5 713.231  10
  -3  -7 -10 83.1823 59.7544  12
   3   7  10 219.014 73.8738   3
  -3  -7 -10 260.196 88.1951  10
  -3  -7 -10 136.950 53.7893   9
  -3  -7 -10 110.878 44.7065  17
  -3  -7 -10 159.315 58.6815   1
  -3  -7 -11 16573.0 680.250   1
   3   7  11 17477.3 672.295   3
  -3  -7 -11 16267.0 781.199  12
  -3  -7 -11 17328.9 761.904   9
  -3  -7 -11 16822.1 756.178  17
  -3  -7 -12 4274.24 348.541  17
  -3  -7 -12 3751.51 340.991  12
  -3  -7 -13 15147.8 713.139  12
  -3  -7 -13 16649.8 729.530  17
  -3  -7 -14 2944.68 269.467  17
  -3  -7 -14 2624.18 261.119  12
  -3  -7 -14 2470.96 235.129   5
  -3  -7 -15 66.4463 37.3503   5
  -3  -7 -15 20.9362 29.2909  17
  -3  -7 -16-1.44433 17.7250   5
  -3  -7 -16 63.6011 29.8055  17
  -3  -8   9 402.895 75.2450  14
   3   8  -9 403.324 74.0368   6
   3   8  -8 2146.66 208.633   6
   3   8  -7 420.688 132.137  13
   3   8  -7 381.053 95.9557   6
   3   8  -6 1456.52 262.240  13
   3   8  -6 1801.90 226.287   6
   3   8  -5 73.1873 82.6833  13
   3   8  -5 56.5855 25.9805   6
   3   8  -4 6569.90 580.706  13
   3   8  -4 7578.07 501.174   6
  -3  -8   3 3612.43 325.053   2
   3   8  -3 3276.89 323.670   6
  -3  -8   2 10041.4 543.206   2
   3   8  -2 9428.46 558.925   6
  -3  -8   1 2598.77 246.232   2
   3   8  -1 2452.29 263.263   6
   3   8  -1 2851.50 235.363   3
  -3  -8   0 421.801 90.7109   2
   3   8   0 285.596 71.0036   6
   3   8   0 447.561 88.7972   3
  -3  -8  -1 1193.39 142.513   2
   3   8   1 1297.40 145.496   3
  -3  -8  -2 4867.65 282.352   2
   3   8   2 4792.23 293.626   3
   3   8   3 15678.9 598.204   3
   3   8   4 9165.81 420.964   3
   3   8   5 31.7960 24.7105   3
   3   8   6 887.876 115.697   3
   3   8   7 1440.62 152.635   3
  -3  -8  -7 1154.30 192.404  12
   3   8   8 597.776 101.853   3
  -3  -8  -8 471.880 111.544  12
  -3  -8  -8 569.700 124.517  10
  -3  -8  -9-17.3525 45.3260  12
   3   8   9 19.9006 22.7718   3
  -3  -8  -9-60.4268 55.0307  10
   3   8  10 5969.26 341.500   3
  -3  -8 -10 5475.52 435.607  12
  -3  -8 -10 5493.05 423.540  10
  -3  -8 -10 5744.05 402.733   9
  -3  -8 -11 1791.30 225.326   9
  -3  -8 -11 1841.35 245.220  12
  -3  -8 -12 721.826 147.437  12
  -3  -8 -12 910.259 160.991   9
  -3  -8 -13 4075.16 350.667  12
  -3  -8 -13 4836.19 343.121  17
  -3  -8 -14-7.71373 22.9157   5
  -3  -8 -14-10.7934 33.5810  12
  -3  -8 -14 1.85880 34.2650  17
  -3  -8 -15 106.834 46.1666   5
  -3  -8 -15 111.068 58.4434  12
  -3  -8 -16 314.387 67.9125   5
  -3  -9   8 5.44261 16.2551  14
   3   9  -8 43.5893 29.7174   6
   3   9  -7 782.435 125.006   6
   3   9  -6 20.5533 24.8737  13
   3   9  -6-2.48202 22.9020   6
   3   9  -5 127.263 89.6132  13
   3   9  -5 81.6684 58.1131   6
   3   9  -4 1588.37 278.123  13
   3   9  -4 1543.15 213.840   6
   3   9  -3 1508.84 212.091   6
   3   9  -2 8523.17 536.122   6
   3   9  -1-43.4369 30.6494   6
  -3  -9   1 56.6549 58.0890   2
  -3  -9   0 2632.32 243.800   2
   3   9   0 2685.79 276.312   6
   3   9   0 2918.82 249.312   3
  -3  -9  -1 4721.06 317.973   2
   3   9   1 4228.68 346.681   6
   3   9   1 5031.12 325.046   3
   3   9   2 10456.9 489.823   3
  -3  -9  -2 10988.5 482.520   2
   3   9   3 2039.16 200.482   3
   3   9   4 55.5363 32.9003   3
   3   9   5 2954.16 240.514   3
  -3  -9  -5 2610.56 292.525  12
  -3  -9  -5 2229.08 270.953  10
   3   9   6 5319.65 327.896   3
  -3  -9  -6 4389.04 395.814  12
  -3  -9  -6 4291.08 391.675  10
  -3  -9  -7 5.25259 28.9294  12
   3   9   7 55.6673 36.7621   3
  -3  -9  -7 9.72561 55.6504  10
   3   9   8 14735.8 591.087   3
  -3  -9  -8 13576.2 736.338  10
  -3  -9  -9 7472.06 544.185  12
  -3  -9  -9 8578.90 569.366  10
  -3  -9 -10 49.4551 56.1561  12
   3   9  10 104.354 52.3906   3
  -3  -9 -10 21.7207 33.1641  10
  -3  -9 -11 2291.86 281.073  12
  -3  -9 -11 2661.94 300.048  10
  -3  -9 -11 2693.07 277.222   9
  -3  -9 -12 1939.52 250.435  12
  -3  -9 -12 2037.88 240.292   9
  -3  -9 -13 73.9095 58.9419  12
  -3  -9 -14 3541.10 283.597   5
  -3  -9 -14 4179.97 333.995  12
  -3  -9 -15 1599.05 169.411   5
  -3  -9 -15 1938.17 204.889  12
  -3  -9 -16 139.138 44.0266   5
  -3 -10   7 69.6028 31.6409  14
   3  10  -7 91.5415 39.9148   6
  -3 -10   6 13.9554 23.2695  14
   3  10  -6-15.2911 35.6356  13
   3  10  -6-7.04693 29.3754   6
   3  10  -5 128.577 87.8965  13
   3  10  -5 170.406 66.1281   6
   3  10  -4 30.7002 30.8524  13
   3  10  -4-41.5128 40.2001   6
   3  10  -3 39.0941 38.5877   6
   3  10  -2 174.532 59.7599   6
   3  10  -1 922.050 158.659   6
  -3 -10   0 2556.15 251.299   2
  -3 -10   0 2685.75 249.953  14
   3  10   0 2124.75 252.911   6
  -3 -10  -1 6949.17 412.113   2
   3  10   1 6520.49 448.350   6
   3  10   1 7737.55 437.313   3
   3  10   2 1093.12 155.204   3
   3  10   2 949.065 160.412   6
   3  10   3 4746.74 336.747   3
  -3 -10  -3 5004.42 423.903  10
  -3 -10  -4 1239.85 209.792  10
   3  10   4 1456.32 181.328   3
  -3 -10  -4 1605.54 235.373  12
   3  10   5 4984.60 347.057   3
  -3 -10  -5 5281.82 438.533  12
  -3 -10  -5 4362.25 410.659  10
  -3 -10  -6 362.061 112.738  12
   3  10   6 504.390 99.1904   3
  -3 -10  -6 279.660 98.3120  10
   3  10   7 5685.36 364.218   3
  -3 -10  -7 5034.09 439.749  12
   3  10   8 5520.65 360.619   3
  -3 -10  -8 4300.32 415.071  12
  -3 -10  -8 5016.47 448.962  10
  -3 -10  -9 321.517 108.082  12
  -3 -10  -9 214.874 83.4452  10
  -3 -10 -10 11167.8 679.923  12
  -3 -10 -10 13574.6 748.695  10
  -3 -10 -11 494.113 130.619  12
  -3 -10 -11 540.654 134.778  10
  -3 -10 -11 486.462 115.092   9
  -3 -10 -12 448.928 120.599  12
  -3 -10 -12 509.528 119.757   9
  -3 -10 -13 895.574 161.447  12
  -3 -10 -14 277.896 79.1791   5
  -3 -10 -14 391.455 102.191  12
  -3 -10 -15 733.947 110.032   5
  -3 -10 -15 735.135 120.728  12
  -3 -10 -16 776.140 97.0325   5
  -3 -11   6 889.525 98.0513  14
   3  11  -6 993.144 119.147   6
  -3 -11   5 475.878 81.1261  14
   3  11  -5 553.629 123.264  13
   3  11  -5 473.314 92.5598   6
  -3 -11   4 913.762 123.502  14
   3  11  -4 925.586 175.365  13
   3  11  -4 875.130 141.250   6
  -3 -11   3 179.219 61.0279  14
   3  11  -3 225.398 87.8617  13
   3  11  -3 208.444 69.0748   6
  -3 -11   2 36.0682 29.7769  14
   3  11  -2 62.4874 36.8069   6
  -3 -11   1 746.404 122.282  14
   3  11  -1 605.896 128.040   6
   3  11   0 4609.36 368.022   6
   3  11   1 48.8882 29.8889   6
   3  11   2-45.0171 20.9742   6
  -3 -11  -3 1463.36 231.782  10
  -3 -11  -4 623.719 142.796  12
   3  11   4 745.556 138.683   3
  -3 -11  -4 662.206 148.744  10
   3  11   5 4846.52 359.321   3
  -3 -11  -5 4856.47 421.653  12
  -3 -11  -5 4589.25 432.533  10
  -3 -11  -6 7958.51 556.119  12
  -3 -11  -6 6705.63 540.295  10
  -3 -11  -7 6638.13 508.963  12
  -3 -11  -7 5372.12 486.823  10
  -3 -11  -8 5820.23 473.729  12
  -3 -11  -8 4092.14 421.513  10
  -3 -11  -9 3955.21 383.341  12
  -3 -11  -9 3238.50 368.185  10
  -3 -11 -10 4125.88 388.469  12
  -3 -11 -10 3623.16 377.135  10
  -3 -11 -11 215.737 85.7478  12
  -3 -11 -11 202.457 83.5490  10
  -3 -11 -12 1106.41 183.847  12
  -3 -11 -12 1538.19 192.423   9
  -3 -11 -13 847.511 150.833  12
  -3 -11 -14 63.5926 21.8161   5
  -3 -11 -14 84.5203 35.5614  12
  -3 -11 -15 138.298 47.5473   5
  -3 -11 -15 120.330 49.5182  12
  -3 -11 -16 5.58835 11.7046   5
   3  12  -5-15.6193 32.6856  13
  -3 -12   5-2.46593 17.7629  10
   3  12  -4 214.860 70.5368  13
   3  12  -4 209.857 55.6168   6
   3  12  -3-5.32397 31.4934  13
   3  12  -3 0.97764 29.8275   6
   3  12  -2 131.690 69.0640  13
   3  12  -2 92.6301 47.4744   6
   3  12  -1 667.795 125.008   6
   3  12   0 465.960 290.825   6
   3  12   1 185.409 64.8164   6
  -3 -12  -2 217.659 81.1833  12
  -3 -12  -2 368.909 118.384  10
  -3 -12  -3 787.782 169.480  10
  -3 -12  -3 746.803 160.391  12
  -3 -12  -4 255.435 99.2503  10
  -3 -12  -4 241.214 87.1653  12
  -3 -12  -5 1123.98 195.169  12
  -3 -12  -5 1085.35 209.571  10
  -3 -12  -6 46.1608 41.4022  12
  -3 -12  -6 2.50487 31.7432  10
  -3 -12  -7 108.616 76.8066  12
  -3 -12  -7 93.3056 57.1158  10
  -3 -12  -8 1314.56 213.485  12
  -3 -12  -8 1342.23 235.086  10
  -3 -12  -9 227.910 84.2414  12
  -3 -12  -9 295.249 93.5825  10
  -3 -12 -10 53.6274 51.5527  12
  -3 -12 -10 21.8825 34.7566  10
  -3 -12 -11 2007.26 246.132  12
  -3 -12 -11 1396.28 215.876  10
  -3 -12 -12 1496.10 200.648  12
  -3 -12 -13 2518.01 245.786  12
  -3 -12 -14 474.129 87.4780   5
  -3 -12 -14 867.859 128.585  12
  -3 -12 -15 451.691 72.9280   5
  -3 -12 -15 928.232 113.800  12
   3  13  -3 200.852 62.6629  13
  -3 -13   3 304.264 62.7885  12
  -3 -13   3 221.591 57.9241  10
   3  13  -2 306.666 90.8998  13
  -3 -13   2 439.531 83.3641  12
  -3 -13   2 500.596 92.9482  10
  -3 -13   1 1201.24 155.744  12
  -3 -13   1 1267.80 163.684  10
  -3 -13   0 62.9910 47.3937  12
  -3 -13   0-7.10418 25.2841  10
  -3 -13  -1 65.4500 39.0519  12
  -3 -13  -1 27.8001 40.6536  10
  -3 -13  -2 609.736 140.901  10
  -3 -13  -2 528.877 118.257  12
  -3 -13  -3 4650.45 366.986  12
  -3 -13  -3 4974.78 410.059  10
  -3 -13  -4 953.756 164.721  12
  -3 -13  -4 831.148 172.183  10
  -3 -13  -5 143.766 73.6708  12
  -3 -13  -5 252.401 96.3755  10
  -3 -13  -6 1221.37 194.681  12
  -3 -13  -6 1276.29 223.876  10
  -3 -13  -7 12.8246 42.1739  12
  -3 -13  -7 16.5427 45.3229  10
  -3 -13  -8 1231.56 194.632  12
  -3 -13  -8 1273.11 220.027  10
  -3 -13  -9 3371.84 320.026  12
  -3 -13  -9 3105.79 341.226  10
  -3 -13 -10 429.314 107.313  12
  -3 -13 -10 464.280 125.759  10
  -3 -13 -11 333.568 90.6221  12
  -3 -13 -11 104.136 44.0555  10
  -3 -13 -12 870.839 136.504  12
  -3 -13 -13 57.4967 30.1112  12
  -3 -13 -14 74.8948 25.9533   5
  -3 -13 -14 58.9772 28.3864  12
   3  14  -2-16.8858 24.6656  13
  -3 -14   2-24.7665 23.2015  10
   3  14  -1 2196.11 216.758  13
  -3 -14   1 1768.29 151.142  12
  -3 -14   1 2062.36 179.356  10
  -3 -14   0 122.759 45.5212  10
  -3 -14   0 3.45480 12.8162  12
  -3 -14  -1 1058.77 138.258  12
  -3 -14  -1 1293.20 168.042  10
  -3 -14  -2 22.1736 18.9673  12
  -3 -14  -2-1.22953 19.5925  10
  -3 -14  -3 6.75811 19.4902  12
  -3 -14  -3 4.33878 22.7560  10
  -3 -14  -4 540.583 125.158  10
  -3 -14  -4 427.657 96.4624  12
  -3 -14  -5 1205.12 171.374  12
  -3 -14  -5 1268.89 198.003  10
  -3 -14  -6 674.419 144.557  10
  -3 -14  -6 542.114 113.832  12
  -3 -14  -7 139.404 53.9939  12
  -3 -14  -7 231.167 81.2328  10
  -3 -14  -8 833.883 158.516  10
  -3 -14  -8 714.121 129.412  12
  -3 -14  -9 3770.61 301.584  12
  -3 -14  -9 3653.50 341.485  10
  -3 -14 -10 2469.79 230.240  12
  -3 -14 -10 2401.13 259.442  10
  -3 -14 -11 911.889 130.531  12
  -3 -14 -11 965.469 154.743  10
  -3 -14 -12 157.343 49.3994  12
  -3 -14 -13 152.221 44.3262  12
   3  15   0 309.579 68.8963  13
  -3 -15   0 418.965 69.1390  10
  -3 -15  -1 959.143 118.308  10
  -3 -15  -2 7.03571 15.3568  10
  -3 -15  -3-46.6266 30.0739  12
  -3 -15  -3-26.9578 30.0954  10
  -3 -15  -4-39.3463 43.8829  10
  -3 -15  -4 19.1237 20.7766  12
  -3 -15  -5 17.0713 25.7455  12
  -3 -15  -5 48.6089 43.2810  10
  -3 -15  -6 804.608 137.683  10
  -3 -15  -6 708.990 109.000  12
  -3 -15  -7 276.977 65.1330  12
  -3 -15  -7 367.983 96.9988  10
  -3 -15  -8 7.08972 25.3280  12
  -3 -15  -8 6.75339 25.0310  10
  -3 -15  -9 422.976 79.4743  12
  -3 -15  -9 515.515 111.151  10
  -3 -15 -10 68.2558 31.4171  12
  -3 -15 -10 110.252 51.6536  10
  -3 -15 -11 146.681 40.5219  12
  -3 -15 -12-23.4387 19.6800  12
  -3 -16  -3 80.8933 32.3918  10
  -3 -16  -4 399.444 72.8066  10
  -3 -16  -5 278.516 64.1763  10
  -3 -16  -6 372.157 75.4678  10
  -3 -16  -7 231.339 60.0584  10
  -3 -16  -8 131.440 45.2436  10
  -3 -16  -9 79.7546 36.9536  10
   4 -14  -5 84.9185 32.5532   9
   4 -14  -4 7.52964 14.7157   9
   4 -14  -2 69.9317 30.8478   7
   4 -13  -8 90.4659 28.4195   9
   4 -13  -7 507.999 87.9714   9
   4 -13  -6 283.075 72.4906   9
   4 -13  -5 80.0768 42.4228   9
   4 -13  -4-6.20287 12.2696   7
   4 -13  -3 439.524 78.8392   7
   4 -13  -2 12.7389 15.8465   7
   4 -13  -1 127.620 41.9592   7
   4 -13   0 626.056 96.2971   7
   4 -13   1 493.252 82.9227   7
   4 -13   2 1284.83 127.515   7
   4 -12  -9 86.1758 34.8259  16
   4 -12  -9 4.27628 26.1292   9
   4 -12  -8 546.111 101.390   9
   4 -12  -8 512.662 86.7826  16
   4 -12  -7 209.555 60.6408  16
   4 -12  -7 131.899 54.3007   9
   4 -12  -6-9.27201 19.3462  16
   4 -12  -6 73.5770 52.8620   9
   4 -12  -5 46.4142 35.8928  16
   4 -12  -4 81.3545 55.9866  16
   4 -12  -4 17.9986 20.2218   7
   4 -12  -3 54.0188 42.4857  16
   4 -12  -3 51.3670 31.4211   7
   4 -12  -2 64.8270 33.2048   7
   4 -12  -1 246.077 74.8540   7
   4 -12   0 209.187 61.7377   7
   4 -12   1 80.7935 36.4312   7
   4 -12   2 903.213 125.726   7
   4 -12   3 129.472 44.3067   7
   4 -12   4 427.862 72.2308   7
   4 -11 -10-2.13428 19.0843   9
   4 -11  -9 23.1427 21.7558  16
   4 -11  -9-9.68726 16.8605   9
   4 -11  -8 33.1417 23.9781   9
   4 -11  -8 6.00912 25.1776  16
   4 -11  -7 550.043 108.857  16
   4 -11  -7 615.553 130.429   9
   4 -11  -6 46.0520 46.9529   9
   4 -11  -6 54.0742 38.4397  16
   4 -11  -5 330.927 95.5546  16
   4 -11  -4 743.674 142.748  16
   4 -11  -4 717.618 118.207   7
   4 -11  -3 2732.46 241.605   7
   4 -11  -3 3090.75 307.878  16
   4 -11  -2 2523.12 235.207   7
   4 -11  -2 2314.83 267.935  16
   4 -11  -1 791.919 158.918  16
   4 -11  -1 797.747 131.068   7
   4 -11   0 220.990 68.9045   7
   4 -11   1 908.728 143.866   7
   4 -11   2 163.388 56.8535   7
   4 -11   3 64.2380 33.0532   7
   4 -11   4 630.271 108.900   7
   4 -11   5 215.286 55.2528   7
   4 -10 -11 148.320 41.7009   8
   4 -10 -10 133.557 41.3228  16
   4 -10 -10 183.756 49.2802   8
   4 -10 -10 98.2750 34.1175   9
   4 -10  -9 32.1484 40.7210   9
   4 -10  -9 1.09844 18.2652  16
   4 -10  -9-1.23552 15.7624   8
   4 -10  -8 101.133 45.4284   9
   4 -10  -8 122.013 56.2978  16
   4 -10  -7-3.19073 32.1322  16
   4 -10  -7 29.9507 29.2566   9
   4 -10  -6 498.626 117.538  16
   4 -10  -5 477.659 116.033  16
   4 -10  -4 419.915 92.3240   7
   4 -10  -4 507.122 127.138  16
   4 -10  -3 1829.37 243.325  16
   4 -10  -3 1471.28 182.999   7
   4 -10  -2 1687.76 235.370  16
   4 -10  -2 1658.50 196.104   7
   4 -10  -1 1772.93 205.431   7
   4 -10  -1 1871.05 247.849  16
   4 -10   0 202.851 77.0316  16
   4 -10   0 333.639 92.9614   7
   4 -10   1 712.078 139.458  16
   4 -10   1 976.350 155.946   7
   4 -10   2 595.723 123.390   7
   4 -10   3-87.7252 47.4086   7
   4 -10   4 271.439 76.0323   7
   4 -10   5 450.684 94.2965   7
   4 -10   6 300.404 64.8957   7
  -4  10  -6 312.094 63.3157   6
  -4  10  -7 1691.90 131.329   6
   4  -9 -12 438.182 75.1272   8
   4  -9 -11 1237.84 141.999   8
   4  -9 -10 2587.70 211.491  16
   4  -9 -10 2302.08 213.840   8
   4  -9 -10 2223.63 211.087   9
   4  -9  -9-20.0849 16.4833  16
   4  -9  -9 26.7386 33.2242   8
   4  -9  -9-40.7651 38.9252   9
   4  -9  -8 18.9359 17.5619  16
   4  -9  -8 13.6182 23.7966   9
   4  -9  -7 345.422 96.4877  16
   4  -9  -7 419.257 119.782   9
   4  -9  -6 7766.81 488.695  16
   4  -9  -5 1078.66 178.401  16
   4  -9  -4 1962.99 245.946  16
   4  -9  -3 3714.80 351.179  16
   4  -9  -3 3271.42 279.320   7
   4  -9  -2 4825.24 409.613  16
   4  -9  -2 5039.06 358.998   7
   4  -9  -1 377.401 111.709  16
   4  -9  -1 262.522 79.4136   7
   4  -9   0 1677.46 231.828  16
   4  -9   0 1837.17 214.723   7
   4  -9   1 2091.62 235.697   7
   4  -9   1 1733.06 232.202  16
   4  -9   2 2822.26 278.959   7
   4  -9   2 2442.23 268.369  16
   4  -9   3 84.2159 45.1850   7
   4  -9   4-5.49659 30.1622   7
  -4   9  -4 38.3318 40.0828   6
  -4   9  -5 19.8638 20.1667   6
   4  -9   5 5.99379 21.7051   7
   4  -9   6 144.602 55.7139   7
  -4   9  -6 152.395 61.1235   6
   4  -9   7 45.0025 32.5310   7
  -4   9  -7 11.1668 13.4698   6
  -4   9  -8 68.1527 32.3388   6
  -4   9  -9 69.4131 23.6790   6
   4  -8 -13 380.592 67.0620   8
   4  -8 -12 94.2388 34.6703   8
   4  -8 -11 15.8455 22.4357   8
   4  -8 -10 158.352 52.0388  16
   4  -8 -10 116.876 45.4335   8
   4  -8  -9 45.1988 47.8302  16
   4  -8  -9-16.9751 20.2744   9
   4  -8  -8 0.47414 22.9322  16
   4  -8  -8 101.581 68.9088   9
   4  -8  -7 2882.16 276.925  16
   4  -8  -7 2737.41 305.430   9
   4  -8  -6-4.63745 38.1914  16
   4  -8  -5 2752.55 282.020  16
   4  -8  -4 345.708 98.8773  16
  -4   8   4 312.430 104.821  18
   4  -8  -3 1031.21 177.753  16
   4  -8  -3 1010.67 149.103   7
  -4   8   3 821.927 162.259  18
   4  -8  -2 6834.02 479.802  16
   4  -8  -2 6727.61 412.501   7
  -4   8   2 5877.46 431.351  18
   4  -8  -1 3628.58 340.144  16
   4  -8  -1 3439.91 293.282   7
  -4   8   1 3006.23 294.547  18
   4  -8   0 4819.78 396.127  16
   4  -8   0 4854.00 358.869   7
   4  -8   1 195.569 83.6875  16
   4  -8   1 148.442 62.6984   7
   4  -8   2 171.772 66.0625  16
   4  -8   2 167.548 63.4540   7
   4  -8   3 6253.47 428.637   7
   4  -8   3 5263.52 386.709  16
   4  -8   4 4176.58 350.967   7
  -4   8  -4 4410.45 310.794   6
   4  -8   5 183.590 69.6095   7
  -4   8  -5 211.462 71.5350   6
  -4   8  -6 19.2499 21.2334   6
   4  -8   6 17.1007 18.6561   7
   4  -8   7 7.67050 18.3590   7
  -4   8  -7 76.0275 41.5706   6
  -4   8  -8 1605.55 168.006   6
  -4   8  -9 2533.79 194.000   6
  -4   8 -10 474.907 69.1435   6
   4  -7 -13 220.968 59.2474   8
   4  -7 -12 1170.55 155.274   8
   4  -7 -11 768.241 141.529   8
   4  -7 -10 1079.40 143.265  16
   4  -7  -9 1547.10 184.612  16
   4  -7  -8 197.216 70.8912  16
   4  -7  -7 28248.9 1031.43  16
   4  -7  -7 27605.7 1092.25   9
   4  -7  -6 3069.84 286.261  16
   4  -7  -6 2567.58 292.914   9
   4  -7  -5 3407.90 307.642  16
  -4   7   5 2489.33 283.219  18
   4  -7  -4 448.464 109.131  16
   4  -7  -4 593.821 116.425  11
  -4   7   4 359.035 110.731  18
   4  -7  -3 6259.64 433.260  16
   4  -7  -3 6204.04 380.903   7
  -4   7   3 5300.35 409.071  18
   4  -7  -2 4065.96 345.938  16
   4  -7  -2 3225.51 275.676   7
  -4   7   2 3311.15 310.921  18
  -4   7   1 378.134 98.3792  18
   4  -7  -1 512.830 104.596   7
   4  -7  -1 718.557 143.705  16
   4  -7   0 5495.04 403.595  16
   4  -7   0 5164.94 363.580   7
  -4   7   0 4911.64 371.536  18
   4  -7   1 1105.50 177.579  16
   4  -7   1 1248.88 177.493   7
   4  -7   2 5083.40 381.081  16
   4  -7   2 5451.03 391.691   7
   4  -7   3 85.6476 55.4667  16
  -4   7  -3 191.727 80.9132   1
   4  -7   3 139.100 62.7296   7
  -4   7  -3 108.334 53.7420   6
   4  -7   4 11319.4 610.081   7
  -4   7  -4 10951.5 539.063   6
   4  -7   5 3798.54 334.683   7
  -4   7  -5 3531.77 291.313   6
   4  -7   6 1126.77 172.757   7
  -4   7  -6 1095.98 159.530   6
   4  -7   7 408.444 95.1813   7
  -4   7  -7 375.436 89.4618   6
  -4   7  -8 169.130 59.6585   6
  -4   7  -9 40.2166 31.6662   6
  -4   7 -10 244.040 58.7504   6
  -4   7 -11 374.200 60.7145   6
   4  -6 -13 261.945 62.5621   8
   4  -6 -12 431.937 98.2683   8
   4  -6 -11-13.3163 28.3540   8
   4  -6 -10 1439.93 172.105  16
   4  -6  -9 13.2965 19.9588  16
   4  -6  -9 44.8281 35.1923  15
   4  -6  -8 2685.33 255.706  16
   4  -6  -7 7497.35 453.494  16
   4  -6  -6 23.5143 37.3667  16
  -4   6   6 14.9879 48.1047  18
   4  -6  -5 33.8895 45.2268  16
   4  -6  -5 93.1916 52.6587  11
  -4   6   5 34.3613 34.8129  18
   4  -6  -4 2539.32 257.219  16
   4  -6  -4 2125.19 234.763  11
  -4   6   4 1999.39 239.525  18
   4  -6  -3 2799.19 261.164  11
  -4   6   3 2836.32 285.536  18
   4  -6  -2 448.111 108.061  16
  -4   6   2 3346.15 294.078  18
   4  -6  -1 486.869 114.195  16
   4  -6  -1 417.166 96.0336   7
  -4   6   1 355.089 97.5946  18
   4  -6   0 9242.45 506.187  16
   4  -6   0 8395.88 457.853   7
   4  -6   1 91.2667 53.7629  16
   4  -6   1 18.8003 21.4502   7
  -4   6  -1 44.7777 51.2730  18
   4  -6   2 827.857 136.714  16
   4  -6   2 546.833 114.181   7
   4  -6   3 11987.4 606.174   7
   4  -6   3 11213.6 564.748  16
   4  -6   4 3878.89 332.389   7
  -4   6  -4 3871.38 346.069   1
  -4   6  -5 10115.1 593.713   1
   4  -6   5 10064.4 567.228   7
  -4   6  -5 9792.60 519.918   6
   4  -6   6 6619.13 444.381   7
  -4   6  -6 6293.70 408.742   6
   4  -6   7 8895.05 507.014   7
  -4   6  -7 8704.13 489.106   6
  -4   6  -8 249.637 77.9413   6
  -4   6  -9 133.695 57.1392   6
  -4   6 -10 83.1856 42.0968   6
  -4   6 -11 135.252 44.4070   6
  -4   6 -12 89.9754 30.6670   6
   4  -5 -13-30.6572 27.6829   8
   4  -5 -12 258.912 71.1618   8
   4  -5 -12 564.376 94.2072  15
   4  -5 -11 4575.37 374.477   8
   4  -5 -11 5694.07 342.354  15
   4  -5 -10 300.728 83.4331  16
   4  -5 -10 312.851 80.6445  15
   4  -5  -9 3346.27 280.944  16
   4  -5  -9 3403.22 281.928  15
   4  -5  -8 3075.93 274.447  16
   4  -5  -8 3427.97 282.628  15
   4  -5  -7 2091.28 216.999  15
  -4   5   7 1868.86 230.971  18
   4  -5  -7 2060.29 223.855  16
   4  -5  -6 611.858 124.189  16
   4  -5  -6 873.520 137.059  15
   4  -5  -6 877.964 169.479  11
  -4   5   6 629.500 129.341  18
   4  -5  -5 9825.50 521.103  16
   4  -5  -5 9985.90 580.252  11
  -4   5   5 8768.59 522.692  18
   4  -5  -4 2076.95 224.587  16
   4  -5  -4 2188.07 244.289  11
  -4   5   4 2013.04 229.878  18
  -4   5   3 8097.62 479.216  18
  -4   5   2 1416.39 189.872  18
  -4   5   1 14552.9 659.125  18
  -4   5   0 3380.09 283.847  18
  -4   5  -1 2200.19 223.712  18
  -4   5  -2 6468.84 389.797  18
   4  -5   3 177.536 65.6138   7
   4  -5   4 6541.38 428.649   7
  -4   5  -4 6738.08 454.547   1
  -4   5  -5 5729.80 431.352   1
   4  -5   5 5785.57 406.960   7
  -4   5  -6 2379.00 275.169   1
   4  -5   6 2251.82 251.006   7
   4  -5   7 2683.24 265.519   7
  -4   5  -7 2371.32 243.773   6
   4  -5   8 278.383 77.6203   7
  -4   5  -8 271.015 84.3152   6
  -4   5  -9 3925.22 307.740   6
  -4   5 -10 716.068 124.517   6
  -4   5 -11 1147.35 141.915   6
  -4   5 -12 295.591 64.8829   6
   4  -4 -13-101.765 40.1829   8
   4  -4 -12 335.712 85.7457   8
   4  -4 -12 473.137 87.0298  15
   4  -4 -11 473.393 88.6602  16
   4  -4 -11 327.417 99.3678   8
   4  -4 -11 504.302 99.4052  15
   4  -4 -10 325.025 83.9238  16
   4  -4 -10 335.166 89.1985  15
   4  -4  -9 2315.08 234.326  16
   4  -4  -9 2412.96 235.243  15
   4  -4  -8 9518.37 511.049  16
   4  -4  -8 9802.41 504.397  15
   4  -4  -7 122.371 53.7859  16
   4  -4  -7 85.0658 46.7247  15
  -4   4   7 161.507 68.9699  18
   4  -4  -6 635.411 123.488  16
   4  -4  -6 621.361 113.628  15
   4  -4  -6 870.330 173.659  11
  -4   4   6 772.860 138.304  18
   4  -4  -5 3456.36 288.450  16
   4  -4  -5 3798.18 274.411  15
   4  -4  -5 3475.79 331.164  11
  -4   4   5 3360.72 291.895  18
  -4   4   4 12432.1 596.046  18
  -4   4   3 1809.82 205.269  18
  -4   4   2 36807.0 1193.12  18
  -4   4   1 10314.0 517.663  18
  -4   4   0 120853. 3039.62  18
  -4   4  -1 12499.9 566.656  18
  -4   4  -2 5603.79 349.782  18
  -4   4  -3 16007.6 642.529  18
  -4   4  -4 15917.8 730.339   1
   4  -4   5 383.596 98.7068   7
  -4   4  -5 457.277 118.955   1
   4  -4   6 117.310 68.1635   7
  -4   4  -6 96.7403 52.1602   1
   4  -4   7 90.4696 41.6629   7
  -4   4  -7-12.2450 46.8233   1
   4  -4   8 3287.94 284.636   7
  -4   4  -8 2960.69 276.029   6
  -4   4  -9 3332.21 291.129   6
  -4   4 -10 406.593 100.481   6
  -4   4 -11 1327.28 164.525   6
  -4   4 -12 324.209 73.8556   6
  -4   4 -13 147.857 42.0069   6
   4  -3 -13 38.8293 21.5905   8
   4  -3 -13 37.9629 27.1931  15
   4  -3 -12 1343.18 166.282   8
   4  -3 -12 1246.24 145.358  15
   4  -3 -11 148.096 40.6825  16
   4  -3 -11 206.027 71.7786   8
   4  -3 -11 155.649 59.2933  15
   4  -3 -10 4527.11 325.324  16
   4  -3 -10 4128.00 311.345  15
   4  -3  -9 75.7302 58.2602  16
   4  -3  -9 29.9735 35.7074  15
   4  -3  -8-0.24093 37.4973  16
   4  -3  -8 16.9226 31.0558  15
   4  -3  -7 8552.29 489.412  16
   4  -3  -7 9256.92 482.565  15
  -4   3   7 9618.14 505.827  18
  -4   3   6 229.282 70.7976  18
   4  -3  -6 133.826 57.2109  16
   4  -3  -6 234.860 63.8378  15
   4  -3  -6 106.051 61.9637  11
   4  -3  -5 6.04614 27.5165  16
  -4   3   5 9.46476 34.4446  18
   4  -3  -5 49.8136 43.9558  11
  -4   3   4 28.4851 34.1722  18
  -4   3   3 9712.95 488.838  18
  -4   3   2 209.295 68.4012  18
  -4   3   1 57299.8 1613.08  18
  -4   3   0 97923.1 2504.69  18
  -4   3  -1 20599.3 752.555  18
  -4   3  -2 73260.9 1949.59  18
  -4   3  -3 6.36821 17.5264  18
  -4   3  -4 1947.26 181.046  18
  -4   3  -5 3191.27 300.095   1
  -4   3  -6 2703.22 289.440   1
   4  -3   6 3658.35 298.873   7
   4  -3   7 5.98351 48.8850   7
  -4   3  -7-6.92586 35.3773   1
   4  -3   8 1515.61 190.539   7
  -4   3  -8 988.033 189.172   1
  -4   3  -9 1688.07 204.681   6
  -4   3 -10 18095.3 767.833   6
  -4   3 -10 19623.2 741.775  17
  -4   3 -11 4251.96 312.207   6
  -4   3 -11 3855.23 270.922  17
  -4   3 -12 32.7540 26.4249   6
  -4   3 -13 51.6441 28.3710   6
  -4   3 -14 1029.93 96.0801   6
   4  -2 -13 36.7308 25.2759  15
   4  -2 -12 89.4274 45.0643   8
   4  -2 -12 110.172 42.1747  15
   4  -2 -11 3406.39 259.107  16
   4  -2 -11 3131.64 279.105   8
   4  -2 -11 3039.81 252.166  15
   4  -2 -10 1496.67 181.634  16
   4  -2 -10 1228.93 165.516  15
   4  -2  -9 638.420 123.727  16
   4  -2  -9 544.995 113.136  15
   4  -2  -8 2559.37 245.703  15
  -4   2   8 2638.43 265.963   2
   4  -2  -8 2482.48 247.034  16
   4  -2  -7 2063.97 224.418  16
   4  -2  -7 2722.40 240.722  15
   4  -2  -7 2921.33 280.213   4
   4  -2  -6 8035.51 463.318  16
   4  -2  -6 9089.71 458.385  15
   4  -2  -6 7522.17 520.111  11
  -4   2   6 9208.01 469.362  18
  -4   2   5 2901.35 247.386  18
  -4   2   4 4890.73 319.778  18
  -4   2   3 49.6906 39.4948  18
  -4   2   2 5009.28 311.826  18
  -4   2   1 43301.9 1267.00  18
  -4   2   0 162690. 3872.48  18
  -4   2  -1 17247.1 645.060  18
  -4   2  -2 43.2622 31.6828  18
  -4   2  -3 10165.8 457.016  18
  -4   2  -4 6990.08 361.180  18
  -4   2  -5 238.750 73.8901   1
  -4   2  -6 2336.17 259.900   1
   4  -2   7-7.59162 37.3882   7
  -4   2  -7 8.46699 37.1527   1
  -4   2  -8 25.0419 23.0597   1
  -4   2  -8 94.9996 34.5378  17
  -4   2  -9 162.946 64.1088   1
  -4   2  -9 250.844 75.3148  17
  -4   2 -10 3761.75 307.714   6
  -4   2 -10 3649.60 293.289  17
  -4   2 -11 451.333 105.072   6
  -4   2 -11 274.061 72.9342  17
  -4   2 -12 2062.34 207.529   6
  -4   2 -12 2100.62 197.735  17
  -4   2 -13 166.758 48.9621   6
  -4   2 -13 207.413 55.7830  17
  -4   2 -14 79.3363 30.0135   6
  -4   2 -14 192.054 42.5999  17
   4  -1 -13-22.2066 18.5406  15
   4  -1 -12 118.409 42.7663  15
   4  -1 -11 56.9363 39.2236  16
   4  -1 -11-17.4253 28.4379   8
   4  -1 -11 43.2453 32.7850  15
   4  -1 -10 695.928 124.849  15
   4  -1 -10 809.700 136.094  16
   4  -1  -9 391.500 101.077  16
   4  -1  -9 401.019 98.6876  15
   4  -1  -8-17.0379 36.1076  16
   4  -1  -8 10.7576 33.3424  15
   4  -1  -7 694.483 129.627  16
   4  -1  -7 691.153 127.292  15
   4  -1  -7 613.391 116.654   4
  -4   1   7 799.366 144.141   2
   4  -1  -6-8.64212 23.6810  16
   4  -1  -6 1.84720 32.9619  15
   4  -1  -6-1.24679 36.0947  11
  -4   1   5 13473.2 576.525  18
  -4   1   4 936.752 129.047  18
  -4   1   3 6823.70 366.908  18
  -4   1   2 3539.62 248.657  18
  -4   1   1 24897.1 816.008  18
  -4   1   0 43.8371 21.5275  18
  -4   1  -1 1076.03 128.128  18
  -4   1  -2 46576.3 1300.56  18
  -4   1  -3 10619.8 456.182  18
  -4   1  -4 213.816 67.9874   1
  -4   1  -4 14.0645 26.1817  18
  -4   1  -5 4600.77 338.947   1
  -4   1  -5 5262.86 299.909  18
  -4   1  -6 24086.1 932.708   1
  -4   1  -7 2817.53 289.951   1
  -4   1  -8 3994.22 299.217  17
  -4   1  -8 3437.17 340.725   1
  -4   1  -9 6235.05 491.738   1
  -4   1  -9 7473.81 435.293  17
  -4   1 -10 3136.61 281.652  17
  -4   1 -11 3143.44 278.709   6
  -4   1 -11 3306.07 285.131  17
  -4   1 -12 4640.92 326.805   6
  -4   1 -12 3961.13 305.671  17
  -4   1 -13 1634.60 173.609   6
  -4   1 -13 1399.71 163.723  17
  -4   1 -14 1101.30 120.736   6
  -4   1 -14 1011.13 115.444  17
  -4   1 -15 15.0482 14.8152  17
   4   0 -13 42.9192 18.4439  15
   4   0 -12 489.277 83.4733  15
   4   0 -11 1148.22 146.378  16
   4   0 -11 996.255 136.395  15
   4   0 -10 1114.42 158.455  16
   4   0 -10 1417.26 172.265   8
   4   0 -10 1028.45 152.083  15
   4   0  -9 1435.24 189.187  15
   4   0  -9 1058.47 163.558  16
   4   0  -8 6109.60 415.052  16
   4   0  -8 6220.21 409.723  15
   4   0  -7 1039.45 158.534  15
  -4   0   7 1006.72 163.663   2
   4   0  -6 42.7423 21.8213  15
  -4   0   6 14.5347 30.8864   2
   4   0  -6 82.7733 50.5058  11
  -4   0   5 5404.56 326.032  18
  -4   0   4 25983.4 860.622  18
  -4   0   3 6350.87 345.124  18
  -4   0   2 21537.5 733.167  18
  -4   0   1 2515.90 196.858  18
  -4   0   0 5047.15 284.710  18
  -4   0  -1 1230.04 130.857  18
  -4   0  -2 2371.99 185.384  18
  -4   0  -3 9921.49 428.576  18
  -4   0  -4 7173.12 357.893  18
  -4   0  -4 7420.59 395.730   1
  -4   0  -5 4819.54 328.063   1
  -4   0  -5 4979.14 288.865  18
  -4   0  -6 2562.29 246.008   1
  -4   0  -7 12507.9 630.100   1
  -4   0  -8 832.062 160.215   1
  -4   0  -8 787.101 125.029  17
  -4   0  -9 13896.2 635.031  17
  -4   0  -9 13576.6 729.390   1
  -4   0 -10 2194.31 278.736   1
  -4   0 -10 2514.75 253.737  17
  -4   0 -11 4916.74 364.961  17
  -4   0 -12 4445.06 326.255   6
  -4   0 -12 4215.02 331.609  17
  -4   0 -13 101.297 42.8717   6
  -4   0 -13 95.0448 45.3971  17
  -4   0 -14 483.775 92.1608  17
  -4   0 -15 1072.77 110.620  17
   4   1 -12 235.445 55.2153  15
   4   1 -11 4.21221 30.8303  16
   4   1 -11 18.1654 27.7783  15
   4   1 -10 10.9318 26.4726  16
   4   1 -10 2.95370 19.3362  15
   4   1  -9 1810.36 213.366  15
   4   1  -9 1644.12 209.534  16
   4   1  -8 194.592 70.2566  15
   4   1  -7 326.980 89.7292  15
  -4  -1   7 454.270 106.110   2
   4   1  -6 3848.06 305.952  15
  -4  -1   6 4496.89 355.307   2
  -4  -1   5 4605.69 346.643   2
  -4  -1   4 15814.6 610.125  18
  -4  -1   3 64843.3 1714.88  18
  -4  -1   2 1717.06 161.436  18
  -4  -1   1 26.2841 18.2009  18
   4   1   0 42.0548 7.83874   3
  -4  -1   0-10.0569 19.1255  18
  -4  -1  -1 2244.80 176.940  18
  -4  -1  -2 20566.0 682.628  18
  -4  -1  -3 70424.2 1812.92  18
  -4  -1  -4 8700.31 409.808   1
  -4  -1  -4 8792.78 399.948  18
  -4  -1  -5 45740.0 1332.40   1
  -4  -1  -6 11154.9 530.891   1
  -4  -1  -7 22718.0 877.250   1
  -4  -1  -8 4602.62 368.112   1
  -4  -1  -9 12764.1 673.892   1
  -4  -1  -9 12267.9 590.875  17
  -4  -1 -10 1860.96 252.444   1
  -4  -1 -10 1563.48 204.159  17
  -4  -1 -11 2062.91 236.369  17
  -4  -1 -12 619.338 118.744   6
  -4  -1 -12 638.609 127.620  17
  -4  -1 -13 45.0928 43.4818  17
  -4  -1 -13 65.1406 35.2252   6
  -4  -1 -14 1007.84 143.360  17
  -4  -1 -15 184.493 51.3562  17
  -4  -1 -16 81.9973 25.8034  17
   4   2 -12 835.170 87.2674  15
   4   2 -11 106.152 41.3771  15
   4   2 -10 4.47781 28.5241  16
   4   2 -10 0.83990 38.4646  15
  -4  -2  10 4.96571 15.8919  14
   4   2  -9 425.389 105.774  15
   4   2  -8 9927.57 550.567  15
   4   2  -7 539.973 116.692  15
  -4  -2   6 7.01629 17.9765   2
  -4  -2   5 7815.84 480.657   2
  -4  -2   4 3411.63 293.092   2
  -4  -2   4 3664.59 257.655  18
  -4  -2   3 965.590 125.184  18
  -4  -2   2 125.102 37.0685  18
  -4  -2   1 4655.60 276.415  18
   4   2   0 14885.8 436.541   3
  -4  -2   0 14412.1 545.658  18
   4   2   1 2461.49 147.481   3
  -4  -2  -1 2378.08 186.710  18
  -4  -2  -2 5641.82 299.914  18
  -4  -2  -3 585.803 82.7825   1
  -4  -2  -3 450.214 78.8016  18
  -4  -2  -4 8724.57 384.784   1
  -4  -2  -5 7846.77 384.979   1
  -4  -2  -6 28950.6 950.324   1
  -4  -2  -7 109.892 48.1376   1
  -4  -2  -8-17.7122 49.9497   1
  -4  -2  -9 2951.60 286.883   1
  -4  -2  -9 2487.50 245.911  17
  -4  -2 -10 1677.87 210.800  17
  -4  -2 -10 2097.99 257.448   1
  -4  -2 -10 1998.29 189.253   5
  -4  -2 -11 1161.38 179.545  17
  -4  -2 -12 15088.0 655.671   6
  -4  -2 -12 13353.1 676.990  17
  -4  -2 -13 491.693 106.917  17
  -4  -2 -14 625.726 119.641  17
  -4  -2 -15 703.441 112.055  17
  -4  -2 -16 2417.70 173.170  17
   4   3 -11 140.809 38.9545  15
   4   3 -10 242.406 69.3013  16
   4   3 -10 144.182 40.1958  15
  -4  -3  10 300.213 73.8052  14
   4   3  -9-4.98507 30.8468  15
   4   3  -8 659.315 131.584  15
   4   3  -7 683.132 133.257  15
   4   3  -6 1893.65 227.662   6
  -4  -3   6 2312.49 262.563   2
   4   3  -5 13731.3 666.832   6
  -4  -3   5 15279.6 716.904   2
  -4  -3   4 495.967 111.916   2
  -4  -3   3 6013.00 389.603   2
  -4  -3   2 629.116 112.830   2
  -4  -3   2 609.315 99.7389  18
  -4  -3   1 23904.9 786.742  18
   4   3   0 26484.9 698.675   3
  -4  -3   0 26164.4 835.335  18
   4   3   1 153485. 3475.90   3
  -4  -3  -1 151540. 3602.05  18
  -4  -3  -2 22280.9 624.659   1
   4   3   2 20961.9 645.065   3
  -4  -3  -2 21336.8 712.777  18
  -4  -3  -3 30598.6 848.633   1
  -4  -3  -4 450.307 71.1105   1
  -4  -3  -5 1197.91 130.076   1
  -4  -3  -6 16900.8 633.147   1
  -4  -3  -7 8212.14 430.372   1
  -4  -3  -8 999.835 147.582   1
  -4  -3  -9 250.238 84.6339  14
  -4  -3  -9 203.920 76.2418   1
  -4  -3  -9 35.1502 21.1836  17
  -4  -3 -10 261.741 66.5346  12
  -4  -3 -10 204.375 69.7679   1
  -4  -3 -10 258.497 85.7943  17
  -4  -3 -11 1221.63 191.238  17
  -4  -3 -11 1348.94 173.344  12
  -4  -3 -11 1558.34 225.378   1
  -4  -3 -11 1307.40 157.750   5
  -4  -3 -12 4719.05 325.400  12
  -4  -3 -12 3891.14 345.287  17
  -4  -3 -12 4513.99 306.337   5
  -4  -3 -13 172.412 75.0921  17
  -4  -3 -14 922.089 148.897  17
  -4  -3 -15 16.7237 29.4041  17
  -4  -3 -16 305.782 65.0153  17
  -4  -4  11 174.784 42.0487  14
   4   4 -10 53.6349 29.5378  16
   4   4 -10 125.726 38.7841  15
  -4  -4  10 171.205 52.5777  14
   4   4  -9 2259.76 217.464  15
   4   4  -8 4250.01 335.015  15
   4   4  -8 5297.22 373.140   6
   4   4  -7 537.312 124.762   6
   4   4  -6 4.74576 37.8456   6
  -4  -4   5 306.934 92.8913   2
   4   4  -5 373.726 108.597   6
  -4  -4   4 202.635 79.0290   2
   4   4  -4 130.458 63.4955   6
  -4  -4   3 17.3648 30.6175   2
  -4  -4   2 2652.84 244.586   2
  -4  -4   1 53759.9 1530.81   2
   4   4   0 30241.5 813.801   3
  -4  -4   0 29276.4 939.659   2
   4   4   1 124718. 2894.25   3
  -4  -4  -1 127792. 3013.46   2
   4   4   2 71755.2 1740.35   3
  -4  -4  -2 70103.5 1770.25   2
   4   4   3 797.498 97.5741   3
  -4  -4  -3 819.893 89.3404   2
   4   4   4 28300.7 860.973   3
  -4  -4  -4 28894.0 820.530   1
  -4  -4  -5 10839.1 431.328   1
  -4  -4  -6 2617.82 201.217   1
  -4  -4  -7 2998.84 230.890   1
  -4  -4  -8 5283.72 339.926   1
  -4  -4  -9 8639.30 483.567  14
  -4  -4  -9 7740.09 439.056  12
  -4  -4  -9 7732.87 450.204   1
  -4  -4 -10 1203.82 168.362  12
  -4  -4 -10 1191.58 180.318  17
  -4  -4 -10 1044.93 162.578   1
  -4  -4 -11 1554.78 216.130   1
  -4  -4 -11 1591.16 190.385  12
  -4  -4 -11 1445.18 208.374  17
  -4  -4 -11 1327.51 158.114   5
  -4  -4 -12 401.841 87.2190   5
  -4  -4 -12 450.164 99.3870  12
  -4  -4 -12 412.668 117.076  17
  -4  -4 -13 4616.03 327.259  12
  -4  -4 -13 4588.50 376.077  17
  -4  -4 -13 4857.95 314.837   5
  -4  -4 -14 3279.61 297.119  17
  -4  -4 -15 865.280 134.984  17
  -4  -4 -16 189.705 54.5912  17
  -4  -4 -17 526.773 67.7561  17
   4   5 -10 74.5095 28.3958  16
  -4  -5  10 178.201 48.9073  14
  -4  -5   9 1830.17 194.483  14
   4   5  -8 747.135 132.687   6
   4   5  -7 409.560 112.259   6
   4   5  -6 1655.61 224.387   6
   4   5  -5 3092.76 317.099   6
  -4  -5   5 4298.37 370.477   2
  -4  -5   4 514.612 120.101   2
   4   5  -4 509.691 123.601   6
   4   5  -3 11646.0 640.331   6
  -4  -5   3 15328.4 688.244   2
  -4  -5   2 11154.9 558.347   2
  -4  -5   1 12879.8 575.525   2
   4   5   0 4970.13 253.765   3
  -4  -5   0 5391.11 322.537   2
   4   5   1 142224. 3284.99   3
  -4  -5  -1 141986. 3390.63   2
   4   5   2 37150.5 1019.46   3
  -4  -5  -2 39242.8 1073.34   2
  -4  -5  -3 167501. 3757.67   2
   4   5   3 158861. 3776.02   3
   4   5   4 64.5054 33.2518   3
   4   5   5 21.2048 18.1312   3
   4   5   6 824.021 114.477   3
  -4  -5  -6 843.759 105.626   1
  -4  -5  -7 214.043 57.8701   1
   4   5   7 286.287 68.2708   3
   4   5   8 2129.10 200.898   3
  -4  -5  -8 2069.09 197.281   1
  -4  -5  -9 1676.90 199.392  14
  -4  -5  -9 1487.56 189.204  12
  -4  -5  -9 1365.80 174.544   1
  -4  -5 -10 6474.33 408.156   1
   4   5  10 5982.31 379.343   3
  -4  -5 -10 6021.13 403.898  12
  -4  -5 -10 5832.60 420.545  17
  -4  -5 -11-25.5545 35.1675   1
  -4  -5 -11 61.3095 21.7340  12
   4   5  11-29.2947 47.5604   3
  -4  -5 -11-61.4562 22.2730  17
  -4  -5 -12 1220.33 156.822   5
  -4  -5 -12 1126.66 168.154  12
  -4  -5 -12 1009.80 175.547  17
  -4  -5 -13 894.220 145.962  12
  -4  -5 -13 987.718 172.491  17
  -4  -5 -13 816.291 126.277   5
  -4  -5 -14 391.833 86.2997   5
  -4  -5 -14 301.541 92.9763  17
  -4  -5 -15 213.090 65.2588  17
  -4  -5 -16 279.143 68.4314  17
  -4  -5 -17-10.8945 16.0559  17
  -4  -6  10 161.529 42.5816  14
  -4  -6   9 49.5782 19.5272  14
   4   6  -8 119.404 50.7990   6
   4   6  -7 47.1086 36.7276   6
   4   6  -6 919.834 166.706   6
   4   6  -5 43.7874 48.8516   6
   4   6  -4 3983.49 372.855   6
  -4  -6   4 5394.11 415.498   2
   4   6  -3 1829.59 241.344   6
  -4  -6   3 2447.09 264.550   2
   4   6  -2 5123.88 402.922   6
  -4  -6   2 6107.20 406.020   2
   4   6  -1 8437.99 518.123   6
  -4  -6   1 10120.7 504.584   2
   4   6   0 5333.80 287.004   3
  -4  -6   0 5529.80 337.027   2
   4   6   1 6715.03 323.282   3
  -4  -6  -1 7065.43 359.056   2
   4   6   2 39686.7 1096.75   3
  -4  -6  -2 40506.7 1129.69   2
   4   6   3 9861.43 398.139   3
   4   6   4 2125.69 174.602   3
   4   6   5 28589.1 887.686   3
   4   6   6 3166.55 232.212   3
   4   6   7 251.618 70.0876   3
  -4  -6  -8 13654.9 557.101   1
   4   6   8 13391.4 576.930   3
  -4  -6  -8 13447.7 659.107  12
  -4  -6  -9 16226.7 655.496   1
   4   6   9 16675.5 670.894   3
  -4  -6  -9 16103.6 740.942  12
  -4  -6 -10 194.946 64.7212   1
  -4  -6 -10 205.183 78.3350  12
   4   6  10 235.373 77.4819   3
  -4  -6 -10 103.255 51.2598  17
   4   6  11 4046.49 304.027   3
  -4  -6 -11 3987.58 288.996   5
  -4  -6 -11 4077.28 316.231   1
  -4  -6 -11 3855.18 330.792  12
  -4  -6 -11 3628.84 337.111  17
  -4  -6 -12 4857.06 326.553   5
  -4  -6 -12 4856.78 366.676  12
  -4  -6 -12 4425.33 378.567  17
  -4  -6 -13 131.010 49.9492   5
  -4  -6 -13 167.583 61.6127  12
  -4  -6 -13 147.805 76.0125  17
  -4  -6 -14 553.150 110.919  12
  -4  -6 -14 417.677 85.5244   5
  -4  -6 -14 248.813 85.9875  17
  -4  -6 -15 724.275 127.395  17
  -4  -6 -16 1027.67 129.406  17
  -4  -7   9 405.503 70.9927  14
  -4  -7   8 131.108 51.7364  14
   4   7  -7 41.2332 44.4711   6
   4   7  -6 4290.49 363.210   6
   4   7  -5 1294.63 234.510  13
   4   7  -5 1294.10 204.900   6
   4   7  -4 4783.51 409.507   6
  -4  -7   3 2311.13 263.085   2
   4   7  -3 2142.33 267.534   6
   4   7  -2 27579.7 1128.89   6
  -4  -7   2 31630.5 1121.05   2
   4   7  -1 2034.19 249.484   6
  -4  -7   1 2541.51 248.997   2
  -4  -7   0 849.867 148.672  14
   4   7   0 844.747 113.776   3
   4   7   0 697.034 139.396   6
  -4  -7   0 853.971 133.522   2
   4   7   1 2004.80 174.770   3
  -4  -7  -1 1914.07 186.476   2
  -4  -7  -2 69.0266 28.2282   2
   4   7   2 101.790 36.3114   3
   4   7   3 1201.58 130.783   3
   4   7   4 556.063 88.7012   3
   4   7   5 584.377 93.2070   3
   4   7   6 76.1959 37.5760   3
  -4  -7  -7 365.934 102.428  12
   4   7   7 449.060 91.1087   3
  -4  -7  -8 679.869 141.239  12
   4   7   8 530.504 101.654   3
   4   7   9 5885.24 359.107   3
  -4  -7  -9 5519.69 422.378  12
   4   7  10 1207.64 158.529   3
  -4  -7 -10 1065.95 171.395  17
  -4  -7 -10 904.149 161.346  12
  -4  -7 -11 5647.50 422.585  12
  -4  -7 -11 5760.77 422.496  17
  -4  -7 -12 3829.56 292.143   5
  -4  -7 -12 3575.85 324.626  12
  -4  -7 -12 3728.23 337.969  17
  -4  -7 -13-3.26185 24.0584   5
  -4  -7 -13 0.52301 21.2356  12
  -4  -7 -13-21.0668 21.9486  17
  -4  -7 -14 3565.90 289.868  12
  -4  -7 -14 3282.66 293.521  17
  -4  -7 -14 3339.01 253.230   5
  -4  -7 -15 190.232 55.4844   5
  -4  -7 -15 119.215 49.4633  17
  -4  -7 -16 728.274 103.373  17
  -4  -8   8 194.704 51.3146  14
  -4  -8   7 306.819 76.1573  14
   4   8  -7 263.107 74.9719   6
  -4  -8   6 1237.29 169.968  14
   4   8  -6 901.276 153.354   6
   4   8  -5 1566.71 250.403  13
   4   8  -5 1846.13 234.592   6
   4   8  -4 1108.37 217.678  13
   4   8  -4 1301.73 206.297   6
   4   8  -3 892.868 196.424  13
   4   8  -3 1084.81 187.577   6
   4   8  -2 3365.68 340.198   6
  -4  -8   1 564.148 134.541  14
  -4  -8   1 405.152 104.343   2
   4   8  -1 399.775 113.700   6
  -4  -8   0 21197.9 825.069   2
   4   8   0 19570.4 899.574   6
  -4  -8  -1 3292.90 260.468   2
  -4  -8  -1 3910.97 328.552  14
   4   8   1 2741.98 285.681   6
   4   8   1 3473.41 253.563   3
  -4  -8  -2 783.702 137.364  14
   4   8   2 680.288 112.366   3
   4   8   3 6941.55 373.962   3
   4   8   4 4936.45 305.906   3
   4   8   5 2255.46 199.027   3
  -4  -8  -5 1936.07 253.983  12
   4   8   6 6924.13 360.197   3
  -4  -8  -6 5032.73 431.329  12
   4   8   7 17959.0 667.643   3
  -4  -8  -7 15129.0 800.087  12
  -4  -8  -8 33835.4 1341.31  12
  -4  -8  -8 36850.3 1288.51  10
  -4  -8  -9 152.753 87.4781  12
   4   8   9 213.664 75.7422   3
  -4  -8  -9 94.1859 63.1870  10
   4   8  10 5659.41 348.308   3
  -4  -8 -10 5042.34 422.234  12
  -4  -8 -10 5007.09 372.239  17
  -4  -8 -11 1403.22 210.759  12
  -4  -8 -11 1843.88 220.992  17
  -4  -8 -12 697.780 117.935   5
  -4  -8 -12 729.252 143.567  12
  -4  -8 -13 9.15579 34.0120   5
  -4  -8 -13 9.02500 27.3861  12
  -4  -8 -13-11.9983 23.5990  17
  -4  -8 -14 257.344 70.1992   5
  -4  -8 -14 228.398 82.3728  12
  -4  -8 -14 267.962 81.1651  17
  -4  -8 -15 88.4074 29.3470   5
  -4  -8 -15 49.9586 45.3403  12
  -4  -8 -15 41.4154 26.7765  17
  -4  -8 -16 252.104 51.0301  17
  -4  -9   8 167.669 38.9219  14
  -4  -9   7 57.8495 33.1359  14
  -4  -9   6 38.0071 25.0927  14
   4   9  -6 12.1506 19.2462   6
  -4  -9   5 18.6267 28.2305  14
   4   9  -5 136.476 76.6157  13
   4   9  -5 165.711 70.9652   6
  -4  -9   4 74.1523 45.0853  14
   4   9  -4 59.9287 41.2622   6
  -4  -9   3 1861.19 224.696  14
   4   9  -3 1703.22 266.255  13
   4   9  -3 1804.67 238.917   6
  -4  -9   2 6856.25 454.230  14
   4   9  -2 5692.50 450.179   6
  -4  -9   1 515.375 122.991  14
   4   9  -1 357.578 111.739   6
  -4  -9   0 864.428 152.454  14
   4   9   0 805.088 160.572   6
  -4  -9   0 861.480 141.156   2
  -4  -9  -1 1020.67 167.708  14
   4   9   1 894.670 166.596   6
   4   9   1 781.115 128.154   3
  -4  -9  -2 2953.82 280.527  14
   4   9   2 2418.86 224.020   3
  -4  -9  -3 21.2033 20.4818  14
   4   9   3 147.940 56.2880   3
   4   9   4 26.7086 19.2585   3
   4   9   5 5013.45 332.149   3
  -4  -9  -5 4537.16 418.071  12
   4   9   6 6577.91 378.146   3
  -4  -9  -6 4930.85 442.504  12
   4   9   7 965.241 137.788   3
  -4  -9  -7 666.933 158.538  12
  -4  -9  -7 849.840 164.285  10
   4   9   8 8338.24 427.214   3
  -4  -9  -8 7083.50 493.721  10
   4   9   9 1973.37 199.023   3
  -4  -9  -9 1658.33 250.791  12
  -4  -9  -9 1955.49 246.611  10
  -4  -9 -10 3726.77 371.586  12
  -4  -9 -10 4578.93 380.650  10
  -4  -9 -11 15.2824 44.9828  12
  -4  -9 -12 4049.32 360.588  12
  -4  -9 -13 296.907 72.8983   5
  -4  -9 -13 318.185 92.7972  12
  -4  -9 -14 22.4708 21.1015   5
  -4  -9 -14 87.9641 47.3116  12
  -4  -9 -15 2221.42 210.129  12
  -4  -9 -15 2053.05 172.926   5
  -4 -10   6 255.879 58.6823  14
  -4 -10   5 384.702 83.2761  14
   4  10  -5 387.409 93.0692  13
  -4 -10   4 194.597 58.8219  14
   4  10  -4 176.561 74.2755  13
   4  10  -4 218.602 69.8516   6
  -4 -10   3 1590.52 191.471  14
   4  10  -3 1683.18 248.572  13
   4  10  -3 1564.67 210.962   6
  -4 -10   2 62.5144 44.0861  14
   4  10  -2 11.6366 51.1215  13
   4  10  -2 35.7040 42.4323   6
  -4 -10   1 161.584 62.7284  14
   4  10  -1 264.114 98.8012   6
  -4 -10   0 5859.79 404.210  14
   4  10   0 5381.82 426.849   6
  -4 -10  -1 150.733 65.4567  14
   4  10   1 382.012 115.535   6
  -4 -10  -2 2847.37 272.455  14
  -4 -10  -2 3344.17 331.077  10
   4  10   3 3190.80 273.947   3
  -4 -10  -3 3668.22 355.436  10
   4  10   4 8835.57 484.452   3
  -4 -10  -4 9479.88 615.303  12
  -4 -10  -5 90.4883 67.7740  12
   4  10   5 142.874 60.8527   3
  -4 -10  -5 100.649 45.8573  10
  -4 -10  -6 22.1820 25.6807  12
   4  10   6 20.9615 30.8521   3
  -4 -10  -6-30.2838 43.5456  10
   4  10   7 8527.88 466.431   3
  -4 -10  -7 7833.16 573.245  12
  -4 -10  -8 15.0770 54.4969  12
  -4 -10  -8 6.42551 24.4736  10
  -4 -10  -9 4504.25 423.921  12
  -4 -10  -9 5370.35 436.212  10
  -4 -10 -10 69.6697 58.8855  12
  -4 -10 -10 112.571 70.6092  10
  -4 -10 -11 294.897 109.677  12
  -4 -10 -12 556.007 137.501  12
  -4 -10 -13 318.668 71.0427   5
  -4 -10 -13 234.122 75.5730  12
  -4 -10 -14 261.499 63.3573   5
  -4 -10 -14 317.365 86.6956  12
  -4 -10 -15 360.349 68.7131   5
  -4 -10 -15 228.817 66.8022  12
  -4 -11   5 7.99328 17.3707  14
  -4 -11   4 296.632 65.5929  14
   4  11  -4 416.120 94.5734  13
  -4 -11   3 309.740 73.0042  14
   4  11  -3 347.244 105.492  13
  -4 -11   2 249.434 67.7855  14
   4  11  -2 259.775 95.1695  13
   4  11  -2 237.975 77.9640   6
  -4 -11   1 424.612 94.0784  14
   4  11  -1 315.857 93.8402   6
  -4 -11   0 984.134 148.506  14
  -4 -11  -1 1080.61 184.093  10
  -4 -11  -2 3139.87 325.844  10
  -4 -11  -3 1907.48 265.335  10
  -4 -11  -4 16735.5 848.780  12
  -4 -11  -4 15358.6 817.531  10
  -4 -11  -5 4668.04 422.761  12
  -4 -11  -5 3574.50 370.150  10
  -4 -11  -6 59.2462 59.3717  12
  -4 -11  -6 61.7060 52.5577  10
  -4 -11  -7 419.501 125.196  12
  -4 -11  -7 403.939 123.624  10
  -4 -11  -8 204.428 84.5459  12
  -4 -11  -8 38.4656 60.7670  10
  -4 -11  -9 19.9749 65.5529  12
  -4 -11  -9-35.5730 39.5652  10
  -4 -11 -10 4353.89 401.744  12
  -4 -11 -10 4211.85 380.205  10
  -4 -11 -11 1035.05 188.334  12
  -4 -11 -11 990.940 173.682  10
  -4 -11 -12 555.245 124.639  12
  -4 -11 -13 320.945 73.5616   5
  -4 -11 -13 221.392 68.4037  12
  -4 -11 -14 563.264 89.4736   5
  -4 -11 -14 445.523 96.3515  12
  -4 -11 -15 119.400 37.3256   5
  -4 -11 -15 119.214 46.5985  12
  -4 -12   3-18.3307 17.1317  14
   4  12  -3-44.9265 38.9601  13
  -4 -12   2 250.320 57.5658  14
   4  12  -2 370.282 98.6040  13
  -4 -12   2 345.091 77.6677  10
   4  12  -1 559.241 130.495  13
  -4 -12   1 607.786 113.318  10
  -4 -12   0 1120.07 165.545  10
  -4 -12  -1 831.215 148.657  10
  -4 -12  -2 42.5775 27.6161  12
  -4 -12  -2 14.1712 26.8429  10
  -4 -12  -3 1975.35 252.937  12
  -4 -12  -3 2131.24 270.620  10
  -4 -12  -4 1143.82 192.568  12
  -4 -12  -4 1088.42 193.978  10
  -4 -12  -5 1877.82 253.795  12
  -4 -12  -5 1860.78 259.157  10
  -4 -12  -6 397.731 129.996  12
  -4 -12  -6 572.312 147.043  10
  -4 -12  -7 10.2919 29.9261  12
  -4 -12  -7 111.361 79.3305  10
  -4 -12  -8 342.812 112.459  12
  -4 -12  -8 216.323 94.1445  10
  -4 -12  -9 138.177 70.0278  12
  -4 -12  -9 185.659 76.9693  10
  -4 -12 -10 34.8867 21.7497  12
  -4 -12 -10 41.1435 31.0385  10
  -4 -12 -11 2359.17 265.935  12
  -4 -12 -11 1314.34 192.205  10
  -4 -12 -12 383.198 100.737  12
  -4 -12 -13 488.052 80.5142   5
  -4 -12 -13 701.497 124.669  12
  -4 -12 -14 17.7043 12.5146  12
  -4 -12 -15 105.901 33.8137  12
  -4 -13   2 35.8433 21.0411  12
   4  13  -1 656.418 118.770  13
  -4 -13   1 567.500 101.245  12
  -4 -13   1 547.018 89.6398  10
   4  13   0 86.3712 50.1768  13
  -4 -13   0 56.7957 42.0684  12
  -4 -13   0 85.6495 42.3441  10
  -4 -13  -1 53.1917 33.3992  12
  -4 -13  -1 78.4044 40.7718  10
  -4 -13  -2-13.4402 39.5898  12
  -4 -13  -2 15.3465 26.8954  10
  -4 -13  -3 57.7044 34.5245  12
  -4 -13  -3-33.5126 34.8876  10
  -4 -13  -4 2585.98 277.615  12
  -4 -13  -4 2537.37 282.422  10
  -4 -13  -5 148.893 74.0595  10
  -4 -13  -5 215.218 79.3183  12
  -4 -13  -6 758.760 153.783  12
  -4 -13  -6 838.119 167.894  10
  -4 -13  -7 806.223 160.234  12
  -4 -13  -7 784.778 161.314  10
  -4 -13  -8 3940.57 356.999  12
  -4 -13  -8 3554.40 349.462  10
  -4 -13  -9 875.543 157.045  12
  -4 -13  -9 653.917 145.590  10
  -4 -13 -10 1146.45 177.461  12
  -4 -13 -10 1000.47 167.312  10
  -4 -13 -11 415.207 102.079  12
  -4 -13 -12 1397.73 177.035  12
  -4 -13 -13 198.547 59.8351  12
  -4 -13 -14 1186.21 129.270  12
  -4 -14   0 1242.94 132.306  12
   4  14   1 1535.57 176.361  13
  -4 -14  -1 1578.51 163.591  12
  -4 -14  -1 1509.34 154.544  10
  -4 -14  -2 542.564 99.1669  12
  -4 -14  -2 504.928 95.0736  10
  -4 -14  -3-13.3793 15.0180  12
  -4 -14  -3-16.5273 35.5008  10
  -4 -14  -4 61.8326 41.7625  12
  -4 -14  -4 40.4595 21.6836  10
  -4 -14  -5 316.422 89.9970  12
  -4 -14  -5 289.261 81.1763  10
  -4 -14  -6 14.5128 38.5497  12
  -4 -14  -6-27.8278 39.8557  10
  -4 -14  -7-18.2884 28.1898  12
  -4 -14  -7 49.8598 43.0030  10
  -4 -14  -8 48.7300 22.4334  12
  -4 -14  -8 32.4772 20.4480  10
  -4 -14  -9 703.296 125.807  12
  -4 -14  -9 777.049 137.461  10
  -4 -14 -10 199.899 67.7402  12
  -4 -14 -10 260.718 75.1122  10
  -4 -14 -11 2159.63 207.315  12
  -4 -14 -12 53.0268 28.5663  12
  -4 -14 -13 434.780 73.8844  12
  -4 -15  -2 49.2346 27.3831  12
  -4 -15  -3 492.646 78.0316  12
  -4 -15  -3 434.195 77.7307  10
  -4 -15  -4 193.128 52.3943  12
  -4 -15  -4 234.026 58.5761  10
  -4 -15  -5-25.9081 34.4675  12
  -4 -15  -5-7.61175 21.2284  10
  -4 -15  -6 580.394 96.9871  12
  -4 -15  -6 702.169 112.679  10
  -4 -15  -7 42.3753 26.8601  12
  -4 -15  -7 14.9279 26.8968  10
  -4 -15  -8 83.9129 30.1787  12
  -4 -15  -8 139.920 49.1342  10
  -4 -15  -9 769.323 108.797  12
  -4 -15  -9 601.360 101.523  10
  -4 -15 -10 1336.28 136.720  12
  -4 -15 -11 1741.15 146.006  12
  -4 -15 -12 57.6258 23.1315  12
   5 -12  -7 28.3901 20.7498  16
   5 -12  -6-11.5379 27.5392   9
   5 -12  -6-6.05992 14.5574  16
   5 -12  -5 10.7894 13.3376   9
   5 -12  -5-24.1115 15.4950  16
   5 -12  -4-3.71135 21.3608   9
   5 -12  -4 43.2405 32.7869  16
   5 -12  -3 601.300 82.2585   7
   5 -12  -2 186.714 47.2981   7
   5 -12  -1 137.363 41.4905   7
   5 -12   0 64.5241 29.3819   7
   5 -12   1 779.674 102.008   7
   5 -12   2 41.0710 20.2129   7
   5 -11  -8-11.0079 21.9224  16
   5 -11  -7 91.6195 37.8954  16
   5 -11  -6 198.620 63.6708   9
   5 -11  -6 314.514 77.5700  16
   5 -11  -5 156.158 65.3407   9
   5 -11  -5 46.3950 38.2184  16
   5 -11  -4 393.454 96.9886  16
   5 -11  -3-16.5601 24.3676  16
   5 -11  -3 6.70820 19.5757   7
   5 -11  -2-15.4338 25.9138  16
   5 -11  -2-57.9981 32.1451   7
   5 -11  -1 149.413 61.8375  16
   5 -11  -1 88.1470 40.3889   7
   5 -11   0 124.878 45.2207   7
   5 -11   1 25.7534 31.1495   7
   5 -11   2 94.2771 38.3517   7
   5 -11   3 30.9657 26.7475   7
   5 -11   4 31.4071 24.2547   7
   5 -10  -9 11.7725 19.3167  16
   5 -10  -8 26.2775 21.1240  16
   5 -10  -7 111.282 49.2778  16
   5 -10  -6 1516.77 185.350  16
   5 -10  -6 1452.55 182.353   9
   5 -10  -5 188.126 69.0197   9
   5 -10  -5 47.9547 32.2087  16
   5 -10  -4 41.8451 38.4715  16
   5 -10  -3 217.496 75.2297  16
   5 -10  -3 196.653 59.4190   7
   5 -10  -2-18.4054 41.1463  16
   5 -10  -2-28.8277 40.9819   7
   5 -10  -1 263.787 90.8126  16
   5 -10  -1 315.334 83.8329   7
   5 -10   0 211.579 71.2410  16
   5 -10   0 234.532 70.5895   7
   5 -10   1-20.0975 18.3572   7
   5 -10   2 46.5974 39.5421   7
   5 -10   3-13.4831 25.1190   7
   5 -10   4 555.251 102.163   7
   5 -10   5 50.1306 31.4021   7
   5 -10   6 32.3216 20.1939   7
   5  -9 -10 149.025 38.3241  16
   5  -9 -10 264.802 54.4925   8
   5  -9  -9-11.0760 16.4245  16
   5  -9  -9-7.82579 24.9017   8
   5  -9  -8 912.534 131.289  16
   5  -9  -7 395.919 91.8614  16
   5  -9  -6 262.808 79.4509  16
   5  -9  -5 817.131 149.346   9
   5  -9  -5 772.972 146.357  16
   5  -9  -4 5.07581 37.5919  16
   5  -9  -3 344.567 102.428  16
   5  -9  -3 335.042 82.5069   7
   5  -9  -2 1223.65 196.203  16
   5  -9  -2 1164.93 158.696   7
   5  -9  -1 5.96695 32.5572  16
   5  -9  -1-10.7160 33.3165   7
   5  -9   0 13.5185 32.8134  16
   5  -9   0 38.1878 40.6629   7
   5  -9   1 848.236 152.948  16
   5  -9   1 1169.79 170.465   7
   5  -9   2 31.6114 24.7914   7
   5  -9   3 255.012 82.6511   7
   5  -9   4 8.95564 25.0086   7
   5  -9   5 1.46389 24.8962   7
   5  -9   6 19.6390 22.9207   7
  -5   9  -6 10.5561 13.4116   6
   5  -9   7 544.810 78.3879   7
  -5   9  -7 612.505 77.4182   6
   5  -8 -11 631.500 89.8559   8
   5  -8 -10 132.841 42.1039  16
   5  -8 -10 109.146 43.4255   8
   5  -8  -9 64.2101 22.0867  16
   5  -8  -8 21.7342 26.9614  16
   5  -8  -7 44.3349 38.3690  16
   5  -8  -6 1238.83 181.743  16
   5  -8  -5-7.68196 22.4221  16
   5  -8  -4 10.6008 39.9206  16
   5  -8  -3 80.1856 40.2895  16
   5  -8  -3 92.3306 37.8450   7
   5  -8  -2 88.6461 58.6796  16
   5  -8  -2 188.873 66.4092   7
   5  -8  -1 30.3106 36.3386  16
   5  -8  -1-0.23895 25.1939   7
   5  -8   0 283.257 91.6197  16
   5  -8   0 172.953 61.7825   7
   5  -8   1 217.210 83.1402  16
   5  -8   1 210.191 73.8598   7
   5  -8   2-10.5617 34.3104  16
   5  -8   2 112.824 58.3581   7
   5  -8   3 51.3935 29.5069   7
   5  -8   4 23.6245 43.4090   7
   5  -8   5 72.4519 33.9154   7
  -5   8  -5 51.9210 36.4724   6
   5  -8   6 22.0261 16.9355   7
  -5   8  -6 30.2495 22.4819   6
   5  -8   7 20.1317 15.8917   7
  -5   8  -7-18.8629 27.5264   6
  -5   8  -8 154.866 47.6810   6
  -5   8  -9 0.86464 15.1287   6
   5  -7 -12 138.452 38.6832   8
   5  -7 -11 640.976 104.531   8
   5  -7 -10 78.9367 35.4738  16
   5  -7 -10 99.7997 49.1022   8
   5  -7  -9 93.0727 45.6928  16
   5  -7  -8 3354.13 278.157  16
   5  -7  -7 466.813 110.525  16
   5  -7  -6 669.929 132.017  16
   5  -7  -5 1068.63 170.728  16
   5  -7  -4 57.8160 52.4973  16
   5  -7  -4 47.9608 24.1300  11
   5  -7  -3 4178.68 360.996  16
   5  -7  -3 3922.16 318.256  11
   5  -7  -2 8322.44 530.228  16
   5  -7  -2 7834.41 450.098   7
   5  -7  -1 290.478 92.3397  16
   5  -7  -1 265.332 73.8630   7
   5  -7   0 302.272 91.9266  16
   5  -7   0 326.257 92.4058   7
   5  -7   1 2769.32 283.297  16
   5  -7   1 2671.87 269.032   7
   5  -7   2 2774.07 275.930  16
   5  -7   2 3443.66 313.910   7
   5  -7   3 2756.17 284.063   7
   5  -7   3 2633.42 256.890  16
   5  -7   4-8.52328 29.1801   7
  -5   7  -4 37.5925 20.1916   6
   5  -7   5 16.8980 59.1382   7
  -5   7  -5 49.7239 47.1232   6
   5  -7   6 20.9996 29.8679   7
  -5   7  -6-40.4583 25.3877   6
   5  -7   7 108.661 49.8000   7
  -5   7  -7 135.877 57.3084   6
   5  -7   8 176.861 52.9604   7
  -5   7  -8 156.889 51.5219   6
  -5   7  -9 1649.54 154.850   6
  -5   7 -10 619.304 81.1588   6
   5  -6 -12 120.475 39.3403   8
   5  -6 -11 1334.06 130.646  16
   5  -6 -11 1199.42 152.457   8
   5  -6 -10 138.592 57.2129  16
   5  -6  -9 18.9656 17.1708  16
   5  -6  -8 563.167 114.520  16
   5  -6  -7 719.072 133.220  16
   5  -6  -6 828.128 149.815  16
   5  -6  -5 542.433 121.890  16
   5  -6  -5 387.672 109.911  11
   5  -6  -4 979.367 167.963  16
   5  -6  -4 864.426 167.671  11
   5  -6  -3 3057.62 294.257  11
  -5   6   3 3100.32 326.288  18
   5  -6  -2 650.774 143.534  16
   5  -6  -2 591.488 116.322   7
   5  -6  -2 598.100 120.997  11
  -5   6   2 584.803 139.659  18
   5  -6  -1 7698.65 490.164  16
   5  -6  -1 6329.94 405.511   7
   5  -6  -1 7132.79 426.599  11
  -5   6   1 6570.36 474.783  18
   5  -6   0 5867.69 417.890  16
   5  -6   0 5307.56 374.209   7
  -5   6   0 5401.24 418.302  18
   5  -6   1 2947.12 286.334  16
   5  -6   1 3091.39 285.321   7
  -5   6  -1 2750.68 286.141  18
   5  -6   2 4280.45 339.853  16
   5  -6   2 4592.86 362.148   7
   5  -6   3 1401.57 202.716   7
   5  -6   4 4976.25 396.512   7
   5  -6   5 335.157 103.651   7
  -5   6  -5 281.709 81.2540   6
   5  -6   6 3882.41 343.514   7
  -5   6  -6 3549.01 300.293   6
   5  -6   7 201.060 68.2642   7
  -5   6  -7 184.277 70.9427   6
   5  -6   8 632.081 113.344   7
  -5   6  -8 455.847 97.6346   6
  -5   6  -9 3.45303 32.1249   6
  -5   6 -10 55.9178 36.5976   6
  -5   6 -11 126.223 39.9910   6
   5  -5 -12-2.61443 20.6371   8
   5  -5 -11 56.7852 21.0575  16
   5  -5 -11 83.1185 43.0807   8
   5  -5 -10 828.570 121.905  16
   5  -5  -9 486.203 101.498  16
   5  -5  -8 1157.35 164.414  16
   5  -5  -7 415.502 100.496  16
   5  -5  -6 6170.41 422.643  16
   5  -5  -6 6200.68 484.729  11
   5  -5  -5 79.6856 62.7339  16
   5  -5  -5 53.9056 46.6824  11
   5  -5  -4 1142.45 177.775  16
   5  -5  -4 935.009 170.031  11
  -5   5   4 763.777 154.937  18
   5  -5  -3 36.0261 35.2750  16
   5  -5  -3 20.9692 17.7636  11
  -5   5   3-2.88727 43.1855  18
   5  -5  -2 7701.61 475.092  16
   5  -5  -2 6782.58 442.555  11
   5  -5  -1 2555.06 263.321  16
   5  -5  -1 1889.08 206.241   7
  -5   5   1 2026.05 252.356  18
   5  -5   0 17187.5 724.317   7
  -5   5   0 15533.9 772.716  18
   5  -5   1 315.999 87.3033  16
   5  -5   1 384.723 96.1898   7
  -5   5  -1 356.800 101.372  18
   5  -5   2 3478.68 292.328  16
   5  -5   2 4129.85 329.774   7
  -5   5  -2 3229.11 300.406  18
   5  -5   3 5183.91 388.969   7
   5  -5   4 10254.6 579.786   7
  -5   5  -4 9706.30 600.880   1
   5  -5   5 10649.7 606.287   7
   5  -5   6 81.1921 44.9760   7
   5  -5   7-37.3345 66.2344   7
  -5   5  -7-5.26917 23.6601   6
   5  -5   8 44.2892 29.1225   7
  -5   5  -8-24.0764 17.7329   6
  -5   5  -9 157.508 56.7967   6
  -5   5 -10 240.877 64.8239   6
  -5   5 -11 411.393 78.0912   6
  -5   5 -12 628.735 79.3358   6
   5  -4 -12 112.602 42.6786   8
   5  -4 -11 426.455 76.7206  16
   5  -4 -11 347.752 85.5708   8
   5  -4 -10 887.108 126.629  16
   5  -4  -9 1451.61 179.734  16
   5  -4  -8 896.090 146.371  16
   5  -4  -8 722.485 123.769  15
   5  -4  -7 114.443 49.5480  16
   5  -4  -7 197.458 70.0989  15
   5  -4  -6 333.579 92.8777  16
   5  -4  -6 325.874 105.804  11
   5  -4  -5 168.362 72.8265  16
   5  -4  -5 150.196 68.7279  11
  -5   4   5 45.6850 32.1920  18
   5  -4  -4 283.498 89.3605  16
   5  -4  -4 248.503 91.4749  11
  -5   4   4 261.371 80.7848  18
   5  -4  -3 875.789 150.236  16
   5  -4  -3 773.650 157.005  11
  -5   4   3 789.833 152.234  18
   5  -4  -2 215.030 75.5360  16
   5  -4  -2 201.521 74.1015  11
  -5   4   2 215.683 71.1553  18
   5  -4  -1 284.690 83.7441  16
   5  -4  -1 222.357 66.6247   7
  -5   4   1 144.484 56.9425  18
   5  -4   0-1.66530 25.2563   7
  -5   4   0 68.7452 49.4721  18
   5  -4   1 1206.27 161.685  16
   5  -4   1 1172.86 160.431   7
  -5   4  -1 978.798 163.399  18
   5  -4   2 94.7352 41.7468   7
  -5   4  -2 93.9647 58.2007  18
   5  -4   3 1310.61 180.509   7
  -5   4  -3 1006.13 159.285  18
   5  -4   4 1395.66 193.056   7
  -5   4  -4 1598.56 228.851   1
  -5   4  -5 2367.80 285.431   1
   5  -4   5 2254.11 253.771   7
   5  -4   6 1714.40 228.793   7
   5  -4   7 20.5840 24.8811   7
   5  -4   8 2342.05 251.446   7
  -5   4  -8 2429.31 251.283   6
   5  -4   9 567.230 114.779   7
  -5   4  -9 415.091 97.8417   6
  -5   4 -10 15.9639 20.1955   6
  -5   4 -11 36.0963 34.7657   6
  -5   4 -12 21.3206 16.7784   6
  -5   4 -13 309.333 51.2642   6
   5  -3 -12 8.64171 17.7393   8
   5  -3 -11 884.534 112.317  16
   5  -3 -11 736.953 120.632   8
   5  -3 -10 146.208 49.6206  16
   5  -3 -10 80.7323 38.5836  15
   5  -3  -9 1434.76 181.816  16
   5  -3  -9 1188.57 152.010  15
   5  -3  -8 773.741 140.015  16
   5  -3  -8 868.494 135.218  15
   5  -3  -7 126.975 57.1702  16
   5  -3  -7 170.364 58.7617  15
   5  -3  -6 2229.53 211.380  15
   5  -3  -6 2035.73 231.905  16
   5  -3  -6 1615.76 247.790  11
   5  -3  -5 989.550 161.758  16
   5  -3  -5 1071.48 142.619  15
   5  -3  -5 941.335 184.664  11
  -5   3   5 1185.83 181.783  18
   5  -3  -4 1052.90 164.197  16
   5  -3  -4 1128.80 195.383  11
  -5   3   4 1258.31 184.778  18
   5  -3  -3 1086.31 165.203  16
   5  -3  -3 1552.46 216.494  11
  -5   3   3 1596.97 209.070  18
   5  -3  -2 3846.76 308.677  16
  -5   3   2 3335.78 304.793  18
  -5   3   1 1300.07 187.703  18
  -5   3   0 3634.15 311.997  18
  -5   3  -1 2108.24 232.982  18
  -5   3  -2 2876.18 272.999  18
  -5   3  -3 11212.8 565.059  18
  -5   3  -4 1186.84 164.189  14
   5  -3   4 1202.84 173.001   7
  -5   3  -4 783.506 157.037   1
  -5   3  -5 67.6777 68.3272   1
   5  -3   5 36.6099 38.1392   7
   5  -3   6 64.0066 29.1625   7
  -5   3  -6 45.9989 37.6748   1
   5  -3   7 1092.23 170.688   7
   5  -3   8 234.328 83.4481   7
   5  -3   9 5394.33 374.984   7
  -5   3 -10 408.955 98.8526   6
  -5   3 -11 656.085 115.114   6
  -5   3 -12 2606.46 209.386   6
  -5   3 -13 130.240 41.0808   6
   5  -2 -11 367.290 69.9336  16
   5  -2 -11 415.124 82.0368   8
   5  -2 -11 377.368 71.7947  15
   5  -2 -10 154.573 52.9152  16
   5  -2 -10 152.422 51.4608  15
   5  -2  -9 2638.31 247.309  16
   5  -2  -9 2617.99 229.730  15
   5  -2  -8 287.530 87.6769  16
   5  -2  -8 311.914 78.7421  15
   5  -2  -7 808.780 145.261  16
   5  -2  -7 915.105 134.855  15
   5  -2  -6 1647.28 207.386  16
   5  -2  -6 1745.33 185.383  15
   5  -2  -6 1568.87 239.604  11
   5  -2  -5 5690.45 396.295  16
   5  -2  -5 5446.91 449.902  11
  -5   2   5 6179.34 414.362  18
   5  -2  -4 1019.72 159.275  16
   5  -2  -4 942.450 174.465  11
  -5   2   4 914.751 151.560  18
   5  -2  -3 6113.64 402.890  16
   5  -2  -3 6372.07 459.719  11
  -5   2   3 6666.78 425.296  18
  -5   2   2 35.5174 38.5652  18
  -5   2   1 883.152 147.788  18
  -5   2   0 1014.19 155.235  18
  -5   2  -1 2450.62 241.958  18
  -5   2  -2 19.8116 31.7371  18
  -5   2  -3 5842.55 380.239  18
  -5   2  -4 4992.97 348.436  18
  -5   2  -4 4201.13 356.541   1
  -5   2  -5 1826.31 241.558   1
  -5   2  -5 2582.97 246.716  14
  -5   2  -6 3711.38 359.636   1
   5  -2   7 189.052 73.5427   7
  -5   2  -7 112.017 72.1808   1
   5  -2   8 5469.96 397.039   7
   5  -2   9 2997.75 276.684   7
  -5   2  -9 2536.52 238.691  17
  -5   2 -10 3572.39 279.717  17
  -5   2 -11 77.1290 38.5598   6
  -5   2 -11 91.5542 43.3648  17
  -5   2 -12 251.483 61.4651  17
  -5   2 -12 373.926 83.2278   6
  -5   2 -13 252.967 57.7589   6
  -5   2 -14 212.353 42.5997   6
   5  -1 -11 2005.98 169.769  16
   5  -1 -11 1711.19 152.504   8
   5  -1 -11 1799.22 150.752  15
   5  -1 -10 127.505 51.4058  16
   5  -1 -10 117.726 47.8960   8
   5  -1 -10 39.3052 24.1592  15
   5  -1  -9 249.531 74.6474  16
   5  -1  -9 388.118 94.7677  15
   5  -1  -8 115.269 51.4064  16
   5  -1  -8 131.011 53.3592  15
   5  -1  -7-23.3094 34.8366  16
   5  -1  -7 19.6251 15.0291  15
   5  -1  -6 593.994 119.656  16
   5  -1  -6 754.487 161.523  11
   5  -1  -5 2063.36 231.732  16
   5  -1  -5 2299.17 279.108  11
  -5   1   5 2655.69 252.176  18
   5  -1  -4 143.007 62.5114  16
   5  -1  -4 77.3104 42.9025  11
  -5   1   4 68.9924 55.6848  18
   5  -1  -3 1320.80 174.771  16
   5  -1  -3 1625.33 222.855  11
  -5   1   3 1587.78 191.735  18
  -5   1   2 1224.01 166.485  18
  -5   1   1 8017.06 449.348  18
  -5   1   0 674.938 119.775  18
  -5   1  -1 343.862 86.0332  18
  -5   1  -2 1997.03 207.880  18
  -5   1  -3 707.324 122.707  18
  -5   1  -4 3046.71 263.416  18
  -5   1  -4 2603.54 268.145   1
  -5   1  -5 2177.68 251.796   1
  -5   1  -5 2457.55 231.976  18
  -5   1  -6 23.9780 33.0192  14
  -5   1  -6-37.9357 52.8508   1
  -5   1  -7 1632.46 237.571   1
  -5   1  -7 1796.96 193.141  17
  -5   1  -8-30.0419 31.8853  17
  -5   1  -8-15.4481 48.8305   1
   5  -1   9 12.2259 50.3004   7
  -5   1  -9 37.8485 41.7834  17
  -5   1 -10 2250.60 228.747  17
  -5   1 -11 8.42072 23.1321   6
  -5   1 -11 57.6461 44.9002  17
  -5   1 -12 5454.44 345.500   6
  -5   1 -12 4877.91 319.306  17
  -5   1 -13 282.195 65.9445   6
  -5   1 -13 300.880 67.3468  17
  -5   1 -14 9.17165 12.3915   6
  -5   1 -14 12.8909 15.4518  17
   5   0 -11 1151.89 122.981  16
   5   0 -11 1069.45 106.770  15
   5   0 -10 426.531 90.9692  16
   5   0 -10 564.604 90.1222  15
   5   0  -9 31.4400 37.4771  16
   5   0  -9 6.78823 24.7960  15
   5   0  -8 1103.23 169.926  16
   5   0  -8 1354.53 163.938  15
   5   0  -7 275.605 77.5896  16
   5   0  -6 413.391 99.6295  16
   5   0  -6 626.274 138.011  11
   5   0  -5 414.617 99.6207  16
   5   0  -5 357.912 101.365  11
   5   0  -4 349.428 95.1246  16
   5   0  -4 469.458 112.349  11
  -5   0   4 504.395 105.843  18
   5   0  -3 2302.91 234.225  16
   5   0  -3 2546.73 270.165  11
  -5   0   3 2634.68 241.898  18
  -5   0   2 1110.43 154.751  18
  -5   0   1 486.118 100.806  18
  -5   0   0 3203.69 258.871  18
  -5   0  -1 6553.42 382.562  18
  -5   0  -2 76.3450 42.6284  18
  -5   0  -3 3320.22 267.738  18
  -5   0  -4 25086.2 899.862  18
  -5   0  -4 24494.1 923.005   1
  -5   0  -5 7354.81 458.773   1
  -5   0  -5 7387.83 424.789  18
  -5   0  -6 17655.5 805.435   1
  -5   0  -6 19557.2 765.258  14
  -5   0  -7 1455.49 188.644  14
  -5   0  -7 1512.54 219.807   1
  -5   0  -8 4754.06 414.386   1
  -5   0  -8 4690.22 336.408  17
  -5   0  -9 11960.4 711.266   1
  -5   0  -9 11662.1 583.042  17
  -5   0 -10 2564.53 254.901  17
  -5   0 -11 5929.10 395.862  17
  -5   0 -12 1319.10 171.399   6
  -5   0 -12 1089.36 156.640  17
  -5   0 -13 3405.08 253.574   6
  -5   0 -13 2765.06 233.322  17
  -5   0 -14 728.398 95.1838   6
  -5   0 -14 777.963 101.417  17
  -5   0 -15-11.1364 13.3706  17
   5   1 -11 342.130 66.7137  16
   5   1 -10 9.28197 18.0280  16
   5   1  -9 415.841 97.3111  16
   5   1  -8 2134.19 238.822  16
   5   1  -7 94.3895 56.8034  16
  -5  -1   6 454.539 100.982  14
  -5  -1   5 47.6900 46.9326  14
  -5  -1   5 34.5608 47.2790   2
   5   1  -5 154.870 60.0283  11
  -5  -1   4 551.013 108.183  14
   5   1  -4 439.626 108.319  11
  -5  -1   4 631.290 116.505  18
  -5  -1   3 923.436 136.796  14
   5   1  -3 833.169 154.605  11
  -5  -1   3 867.302 137.426  18
  -5  -1   2 4476.55 315.613  18
  -5  -1   1 5675.35 355.052  18
  -5  -1   0 3009.28 248.405  18
  -5  -1  -1 4391.06 303.256  18
  -5  -1  -2 2963.90 247.349  18
  -5  -1  -3 204.839 66.3258   1
  -5  -1  -3 335.095 82.5947  18
  -5  -1  -4 843.044 130.241   1
  -5  -1  -4 796.837 125.210  18
  -5  -1  -5 2448.99 238.141   1
  -5  -1  -6 3336.43 294.977   1
  -5  -1  -7 4835.25 346.182  14
  -5  -1  -7 4370.05 362.389   1
  -5  -1  -8 4388.77 343.708  14
  -5  -1  -8 4242.81 377.113   1
  -5  -1  -9 153.718 72.6024   1
  -5  -1  -9 88.6737 47.0257  17
  -5  -1 -10 5246.05 382.863  17
  -5  -1 -11 1884.55 222.575  17
  -5  -1 -12 66.9912 49.7271  17
  -5  -1 -13 97.4150 32.0390   6
  -5  -1 -13 91.4508 49.5956  17
  -5  -1 -14 588.098 90.7710   6
  -5  -1 -14 561.769 98.0416  17
  -5  -1 -15 533.429 79.2005  17
   5   2 -10 1114.25 138.468  16
   5   2  -9 887.491 140.272  16
   5   2  -8 1445.52 194.162  16
  -5  -2   8 1565.34 179.256  14
  -5  -2   7 59.7016 34.8660  14
  -5  -2   6 1170.10 167.198  14
  -5  -2   5 1201.70 170.295  14
   5   2  -5 1200.82 175.625  11
  -5  -2   5 1214.44 197.583   2
  -5  -2   4 1949.92 217.894  14
   5   2  -4 2300.29 250.667  11
  -5  -2   4 2230.75 254.853   2
  -5  -2   3 2739.32 254.644  14
   5   2  -3 3052.28 283.417  11
  -5  -2   3 2932.64 257.111  18
  -5  -2   2 146.717 52.9367  18
  -5  -2   1 3888.06 288.718  18
  -5  -2   0 743.619 119.005  18
  -5  -2  -1 1813.93 188.276  18
  -5  -2  -2 38.8089 22.8757   1
   5   2   2 54.5389 25.7081   3
  -5  -2  -2 15.0952 24.0333  18
  -5  -2  -3 7680.80 375.764   1
  -5  -2  -3 7296.94 404.005  18
  -5  -2  -4 1700.20 173.456   1
  -5  -2  -5 2023.00 201.221   1
  -5  -2  -6 1206.73 165.856   1
  -5  -2  -7 3339.07 282.235  14
  -5  -2  -7 3101.02 286.396   1
  -5  -2  -8 5257.90 373.874  14
  -5  -2  -8 4810.11 386.110   1
  -5  -2  -9 3614.23 317.138  14
  -5  -2  -9 3078.29 314.891   1
  -5  -2  -9 2857.18 273.541  17
  -5  -2 -10 1050.69 167.131  17
  -5  -2 -11 1291.02 189.132  17
  -5  -2 -12 1281.47 184.864  17
  -5  -2 -13-12.6920 28.5867   6
  -5  -2 -13 14.7646 17.9211  17
  -5  -2 -14 457.822 94.8646  17
  -5  -2 -15 47.0350 25.8162  17
  -5  -2 -16-13.9091 10.1600  17
   5   3 -10 164.626 47.0024  16
   5   3  -9 523.409 103.794  16
  -5  -3   9 366.992 75.4806  14
  -5  -3   8 426.059 100.059  14
  -5  -3   7 735.927 135.080  14
  -5  -3   6 774.998 141.081  14
  -5  -3   5 1814.92 223.957  14
  -5  -3   4 560.689 123.880  14
  -5  -3   4 535.559 130.138   2
  -5  -3   3 275.653 82.4155  14
  -5  -3   3 197.734 82.1738   2
  -5  -3   2 288.340 79.6039  14
  -5  -3   2 338.585 90.9378   2
  -5  -3   2 369.250 88.8827  18
  -5  -3   1 1211.94 158.302  18
  -5  -3   0 275.343 72.0619  18
  -5  -3  -1 2675.10 230.681  18
   5   3   2 243.280 52.4958   3
  -5  -3  -2 219.767 58.6820  18
   5   3   3 537.235 80.7857   3
  -5  -3  -4 363.450 68.1524   1
  -5  -3  -5 4920.63 303.233   1
  -5  -3  -6 14266.7 605.599   1
  -5  -3  -7 292.419 80.4673   1
  -5  -3  -7 274.497 84.3963  14
  -5  -3  -8 1809.40 209.833  14
  -5  -3  -8 1572.58 198.555   1
  -5  -3  -9-18.3269 26.2413  14
  -5  -3  -9 10.6823 24.6225   1
  -5  -3 -10 263.647 86.1020   1
  -5  -3 -10 200.119 72.8155  17
  -5  -3 -11 13939.4 694.107  17
  -5  -3 -12 1639.45 217.592  17
  -5  -3 -13 2168.75 239.910  17
  -5  -3 -14 22.7027 33.1162  17
  -5  -3 -15 1.55802 14.8418  17
  -5  -3 -16 2351.70 167.724  17
   5   4 -10 569.970 79.0630  16
   5   4  -9 1044.85 140.500  16
  -5  -4   9 1474.48 150.095  14
  -5  -4   8 148.394 52.8034  14
  -5  -4   7 220.442 71.3942  14
  -5  -4   6 4152.48 345.321  14
  -5  -4   5 1246.41 187.436  14
  -5  -4   4 182.369 65.5011  14
  -5  -4   4 142.417 62.3824   2
  -5  -4   3 5355.60 402.373  14
  -5  -4   3 6092.94 434.532   2
  -5  -4   2 80.2042 49.7260  14
  -5  -4   2 61.2972 48.1338   2
  -5  -4   1 5431.67 386.191  14
  -5  -4   1 5891.99 388.920   2
  -5  -4   0 5068.51 337.890   2
  -5  -4  -1 1162.56 145.096   2
   5   4   2 157.596 41.9997   3
   5   4   3 3936.97 237.444   3
   5   4   4 755.477 105.467   3
   5   4   5 776.821 111.691   3
  -5  -4  -6 2984.17 229.344   1
  -5  -4  -7 2100.46 222.701  14
  -5  -4  -7 2031.71 200.326   1
  -5  -4  -8 10654.0 554.704  14
  -5  -4  -8 10054.4 517.130   1
  -5  -4  -9 22.5313 39.2768  14
  -5  -4  -9-3.28271 27.6926   1
  -5  -4 -10 45.7442 57.3611   1
  -5  -4 -10 17.1452 20.7030  17
  -5  -4 -11 351.373 97.2863  17
  -5  -4 -12 6948.94 474.526  17
  -5  -4 -13 46.1522 52.1470  17
  -5  -4 -14 1468.57 188.192  17
  -5  -4 -15 39.5440 28.6410  17
  -5  -4 -16 263.374 62.0437  17
   5   5  -9 436.811 79.1089  16
  -5  -5   9 598.069 86.8315  14
  -5  -5   8 171.595 58.1918  14
  -5  -5   7 165.051 64.3726  14
  -5  -5   6 201.956 80.9526  14
  -5  -5   5 597.076 132.674  14
  -5  -5   4 2856.23 298.440  14
  -5  -5   3 17.6973 29.7871  14
  -5  -5   3 29.4194 49.9951   2
  -5  -5   2 2688.50 286.743  14
  -5  -5   2 2715.28 277.161   2
  -5  -5   1 975.301 166.045  14
  -5  -5   1 992.795 156.653   2
  -5  -5   0 896.339 150.901  14
  -5  -5   0 975.940 146.651   2
  -5  -5  -1 423.370 100.068  14
  -5  -5  -1 556.159 99.9323   2
   5   5   2 680.694 87.0245   3
  -5  -5  -2 655.867 104.619   2
   5   5   3 3476.67 223.069   3
   5   5   4 2278.34 186.703   3
   5   5   5 788.404 112.295   3
  -5  -5  -6 171.978 57.3390  14
   5   5   6 235.535 68.2682   3
  -5  -5  -7 3383.41 290.589  14
   5   5   7 3321.79 261.596   3
  -5  -5  -8 3201.46 290.898  14
   5   5   8 3027.94 260.487   3
  -5  -5  -8 3447.29 292.502  12
  -5  -5  -9 7082.90 453.337  14
   5   5   9 6585.24 408.639   3
  -5  -5  -9 6361.36 410.431  12
  -5  -5  -9 6483.22 405.172   1
  -5  -5 -10 1116.88 168.789   1
  -5  -5 -10 1070.29 173.798  14
  -5  -5 -10 1088.47 158.455  12
   5   5  10 856.613 141.038   3
  -5  -5 -11 273.718 80.4621  12
  -5  -5 -11 377.657 105.973  17
  -5  -5 -12 6725.54 395.596  12
  -5  -5 -12 6467.29 460.845  17
  -5  -5 -13 5561.73 341.547  12
  -5  -5 -13 5378.36 406.095  17
  -5  -5 -14 205.362 69.3656  17
  -5  -5 -15 1400.59 169.649  17
  -5  -5 -16 253.822 60.9803  17
   5   6  -9 11.9702 11.9506  16
  -5  -6   9 48.8501 21.4439  14
  -5  -6   8 1268.44 143.004  14
  -5  -6   7 863.302 135.872  14
  -5  -6   6 6.79160 23.6433  14
  -5  -6   5 32.2545 32.5132  14
  -5  -6   4 1799.58 235.678  14
  -5  -6   3 412.619 119.018  14
  -5  -6   2 5491.38 428.209  14
  -5  -6   2 6395.29 438.627   2
  -5  -6   1 48.0809 39.2879  14
  -5  -6   1 8.32861 19.2420   2
  -5  -6   0 241.020 76.5766  14
  -5  -6   0 283.398 82.7031   2
  -5  -6  -1 522.784 125.190  14
  -5  -6  -1 396.902 89.2177   2
  -5  -6  -2 1158.64 178.815  14
   5   6   2 1523.12 145.084   3
  -5  -6  -2 1505.91 158.673   2
  -5  -6  -3 5870.98 402.104  14
   5   6   3 5677.43 296.955   3
  -5  -6  -4 3195.11 286.121  14
   5   6   4 3337.48 229.562   3
   5   6   5 573.101 98.3243   3
  -5  -6  -5 410.959 99.9152  14
  -5  -6  -6 2670.44 258.857  14
   5   6   6 2502.40 214.708   3
  -5  -6  -6 2745.99 279.766  12
   5   6   7 1268.57 154.767   3
  -5  -6  -7 992.086 157.368  14
  -5  -6  -7 1022.79 167.347  12
  -5  -6  -8 664.032 131.368  14
  -5  -6  -8 602.995 127.491  12
   5   6   8 552.358 105.473   3
  -5  -6  -9 9.77698 23.6663  12
   5   6   9 4.23779 27.0686   3
  -5  -6 -10 638.672 136.278  14
  -5  -6 -10 615.343 128.168  12
  -5  -6 -11 1107.47 165.619  12
  -5  -6 -11 819.599 158.421  17
  -5  -6 -12 2572.03 244.824  12
  -5  -6 -12 2009.15 251.822  17
  -5  -6 -13-14.5048 20.1550  12
  -5  -6 -13 99.2252 73.2220  17
  -5  -6 -14 1222.44 146.403  12
  -5  -6 -14 1017.78 159.415  17
  -5  -6 -15 1276.44 162.213  17
  -5  -6 -16 191.611 53.5054  17
   5   7  -8 172.265 47.7565  16
  -5  -7   8 215.179 51.4777  14
  -5  -7   7 377.615 80.5978  14
  -5  -7   6 327.538 84.6170  14
  -5  -7   5 180.643 70.9185  14
  -5  -7   4 2341.46 265.353  14
  -5  -7   3 1679.47 230.649  14
  -5  -7   2 478.978 118.215  14
  -5  -7   1 486.888 115.744  14
  -5  -7   1 786.807 144.080   2
  -5  -7   0 204.913 83.6994  14
  -5  -7   0 169.929 73.9599   2
  -5  -7  -1 704.474 144.731  14
  -5  -7  -1 1085.36 146.859   2
  -5  -7  -2 1066.47 174.647  14
   5   7   2 1156.36 139.052   3
  -5  -7  -3 33.5126 26.2437  14
   5   7   3-13.9640 19.8639   3
  -5  -7  -4 320.794 93.4504  14
   5   7   4 319.835 69.2137   3
  -5  -7  -5 3397.48 304.397  14
   5   7   5 3929.17 261.476   3
  -5  -7  -5 3317.57 333.229  12
  -5  -7  -6 54.0069 35.7678  14
  -5  -7  -6 31.6090 20.0057  12
   5   7   6 48.1488 40.4855   3
  -5  -7  -7 143.531 65.1092  14
  -5  -7  -7 171.887 80.9267  12
   5   7   7 58.6200 30.9241   3
  -5  -7  -8 1737.84 214.239  14
   5   7   8 2002.87 205.064   3
  -5  -7  -8 1858.60 240.342  12
  -5  -7  -9 208.442 58.8551  14
  -5  -7  -9 316.858 107.528  12
   5   7   9 430.768 97.7555   3
  -5  -7 -10 378.710 101.047  12
  -5  -7 -11 6564.87 442.811  12
  -5  -7 -11 6066.25 445.690  17
  -5  -7 -12 13361.9 642.145  12
  -5  -7 -12 12977.0 678.321  17
  -5  -7 -13 297.996 84.6731  12
  -5  -7 -13 186.708 79.7133  17
  -5  -7 -14 2420.47 215.166  12
  -5  -7 -14 2241.27 235.248  17
  -5  -7 -15 355.741 83.2615  17
  -5  -7 -16 464.758 76.4082  17
  -5  -8   7 74.6376 33.6745  14
  -5  -8   6 175.361 51.2987  14
  -5  -8   5 17.2464 23.5950  14
  -5  -8   4-16.7264 47.1753  14
  -5  -8   3 895.625 165.046  14
  -5  -8   2 480.190 124.106  14
  -5  -8   1 728.463 151.636  14
  -5  -8   0 424.900 110.529  14
  -5  -8  -1 6989.38 484.620  14
  -5  -8  -2 33.9872 36.4620  14
  -5  -8  -3 724.601 142.457  14
   5   8   3 686.404 114.437   3
  -5  -8  -4 1854.37 226.885  14
   5   8   4 2312.13 210.084   3
  -5  -8  -4 2151.90 283.388  12
  -5  -8  -5 582.863 125.923  14
  -5  -8  -5 549.625 141.394  12
   5   8   5 686.854 110.636   3
  -5  -8  -6 1477.86 199.593  14
   5   8   6 1829.52 182.692   3
  -5  -8  -6 1489.41 231.655  12
   5   8   7 7200.14 387.442   3
  -5  -8  -7 6541.89 496.881  12
   5   8   8 1009.38 142.106   3
  -5  -8  -8 954.425 180.197  12
  -5  -8  -9 6968.67 498.278  12
  -5  -8 -10 9787.44 594.207  12
  -5  -8 -11 786.712 157.360  12
  -5  -8 -11 823.064 154.262  17
  -5  -8 -12-1.90105 43.9825  12
  -5  -8 -12 23.2765 30.2902  17
  -5  -8 -13 1633.79 200.776  12
  -5  -8 -13 2212.49 235.918  17
  -5  -8 -14 55.4940 28.5269  12
  -5  -8 -14 62.6227 38.4510  17
  -5  -8 -15 76.4881 37.1071  17
  -5  -8 -16 326.467 58.8976  17
  -5  -9   6 958.033 113.704  14
  -5  -9   5 11.2635 12.8310  14
  -5  -9   4 312.411 79.6086  14
  -5  -9   3 2381.03 248.745  14
  -5  -9   2 55.9823 47.1644  14
  -5  -9   1 753.647 145.095  14
  -5  -9   0 450.059 119.554  14
  -5  -9  -1 186.080 75.5806  14
  -5  -9  -2 2035.77 245.587  14
  -5  -9  -3 8379.72 518.179  14
   5   9   3 8475.87 454.748   3
  -5  -9  -4 26.1026 36.1243  14
  -5  -9  -4-21.2094 44.2084  12
   5   9   4-26.2378 27.7293   3
  -5  -9  -5 6004.15 418.225  14
   5   9   5 6289.99 386.944   3
  -5  -9  -5 5911.96 491.916  12
  -5  -9  -6 517.763 142.311  12
   5   9   6 692.722 121.338   3
  -5  -9  -7 2628.67 317.930  12
  -5  -9  -8 10669.6 672.181  12
  -5  -9  -9 1314.87 219.870  12
  -5  -9 -10 1846.03 254.099  12
  -5  -9 -10 1921.68 220.267  17
  -5  -9 -11 1455.98 212.887  12
  -5  -9 -11 1752.98 210.667  17
  -5  -9 -12 34.6049 34.6421  12
  -5  -9 -12 38.7584 37.7197  17
  -5  -9 -13 158.738 64.4430  12
  -5  -9 -13 434.289 97.6564  17
  -5  -9 -14 1267.31 161.938  12
  -5  -9 -14 1825.18 177.571  17
  -5  -9 -15 371.457 75.8953  12
  -5 -10   5 29.6647 21.8916  14
  -5 -10   4 63.6396 32.4085  14
  -5 -10   3 14.7486 30.2321  14
  -5 -10   2 20.7824 26.1773  14
  -5 -10   1 1237.69 176.882  14
  -5 -10   0 34.9557 28.5739  14
  -5 -10  -1 523.535 119.582  14
  -5 -10  -2 216.410 79.6487  14
  -5 -10  -3 527.268 126.061  14
  -5 -10  -4 152.788 65.8637  14
  -5 -10  -4 170.264 85.5247  12
  -5 -10  -5 257.883 114.585  12
  -5 -10  -6 65.9837 67.6453  12
  -5 -10  -7 1.60054 33.5508  12
  -5 -10  -8 510.418 144.697  12
  -5 -10  -9 174.302 84.4750  12
  -5 -10 -10 1633.25 241.201  12
  -5 -10 -11 212.016 90.8280  12
  -5 -10 -12 74.3339 43.8924  12
  -5 -10 -13 22.4679 42.6952  12
  -5 -10 -14 2539.50 225.070  12
  -5 -10 -15 967.662 118.104  12
  -5 -11   4 7.00973 18.6826  14
  -5 -11   3 151.441 47.3529  14
  -5 -11   2 684.429 108.243  14
  -5 -11   1 1361.61 163.394  14
  -5 -11   0 226.281 63.5500  14
  -5 -11  -1 140.756 56.7291  14
  -5 -11  -2 1.15697 28.5417  14
  -5 -11  -3 1332.28 218.256  12
  -5 -11  -4 1777.71 257.228  12
  -5 -11  -5-1.13700 70.9446  12
  -5 -11  -6 3349.45 363.384  12
  -5 -11  -7 1923.64 273.667  12
  -5 -11  -8 1302.31 224.345  12
  -5 -11  -9 261.773 101.262  12
  -5 -11 -10 116.116 66.3212  12
  -5 -11 -11 1546.56 217.508  12
  -5 -11 -12 14.8433 37.0656  12
  -5 -11 -13 67.6810 36.6905  12
  -5 -11 -14 281.193 66.5806  12
  -5 -11 -15 2.23086 10.7091  12
  -5 -12   3 49.7696 24.6076  12
  -5 -12   2 147.145 35.8170  14
  -5 -12   2 108.211 41.3618  12
  -5 -12   1 797.667 101.471  14
  -5 -12   0 48.9783 30.0663  14
  -5 -12   0-5.83528 27.8010  12
  -5 -12  -1 645.289 130.652  12
  -5 -12  -2 50.6095 28.2081  12
  -5 -12  -3 129.349 67.3739  12
  -5 -12  -4 20.7146 32.4761  12
  -5 -12  -5 1776.15 246.441  12
  -5 -12  -6 301.201 105.875  12
  -5 -12  -7-20.0894 58.4120  12
  -5 -12  -8 281.570 105.829  12
  -5 -12  -9 151.277 72.3865  12
  -5 -12 -10 511.409 126.107  12
  -5 -12 -11 447.029 106.880  12
  -5 -12 -12 60.2532 41.4743  12
  -5 -12 -13 309.368 79.4890  12
  -5 -12 -14 278.541 66.2755  12
  -5 -12 -15 249.662 50.8231  12
  -5 -13   1 57.2153 29.4472  12
  -5 -13   0 3.59814 24.1079  12
  -5 -13  -1 305.618 79.5519  12
  -5 -13  -2 403.367 93.9363  12
  -5 -13  -3 168.667 64.2877  12
  -5 -13  -4-47.8324 36.9154  12
  -5 -13  -5 7.53609 33.9083  12
  -5 -13  -6 6.07577 40.6006  12
  -5 -13  -7 141.111 62.4375  12
  -5 -13  -8 1467.00 205.251  12
  -5 -13  -9 329.118 92.0344  12
  -5 -13 -10 486.090 113.918  12
  -5 -13 -11 78.6976 46.3370  12
  -5 -13 -12 615.476 109.116  12
  -5 -13 -13 87.6436 40.4544  12
  -5 -13 -14 437.721 69.2138  12
  -5 -14  -1 520.008 81.7008  12
  -5 -14  -2 283.389 66.7314  12
  -5 -14  -3 121.296 47.1392  12
  -5 -14  -4 60.4779 40.2926  12
  -5 -14  -5 6.28200 25.2997  12
  -5 -14  -6-0.21875 36.6006  12
  -5 -14  -7 149.800 60.8089  12
  -5 -14  -8 1188.65 157.811  12
  -5 -14  -9 1090.99 146.347  12
  -5 -14 -10 88.9392 45.4357  12
  -5 -14 -11 524.275 92.7866  12
  -5 -14 -12 327.553 65.7351  12
  -5 -14 -13 48.0651 24.4893  12
  -5 -15  -4 215.987 51.3160  12
  -5 -15  -5 7.78591 10.9866  12
  -5 -15  -6 77.6604 33.6065  12
  -5 -15  -7 25.4229 27.9532  12
  -5 -15  -8 28.7851 15.1174  12
  -5 -15  -9 532.743 82.7905  12
  -5 -15 -10 281.319 57.5190  12
  -5 -15 -11-30.3672 24.0545  12
   6 -11  -6 14.2454 14.9850  16
   6 -11  -5 100.702 34.9995  16
   6 -11  -4 38.8914 24.5709  16
   6 -11  -3 53.7750 32.1399  16
   6 -11  -1 100.314 34.4372   7
   6 -11   0 25.2650 23.2637   7
   6 -11   1 55.4621 27.7779   7
   6 -11   2 649.735 84.2121   7
   6 -10  -7 73.2487 29.4616  16
   6 -10  -6 248.178 62.4722  16
   6 -10  -5 4.05103 19.4563  16
   6 -10  -4 252.332 67.8515  16
   6 -10  -3 31.0730 36.8895  16
   6 -10  -2 250.698 73.8953  16
   6 -10  -2 204.498 54.0633   7
   6 -10  -1-24.2538 35.8059  16
   6 -10  -1-2.78864 11.5181   7
   6 -10   0 37.4368 21.3306   7
   6 -10   1 215.134 61.1419   7
   6 -10   2 8.85507 24.6966   7
   6 -10   3-15.8673 17.3662   7
   6 -10   4 617.630 86.6713   7
   6  -9  -8 15.2789 11.3640  16
   6  -9  -7 188.764 55.7365  16
   6  -9  -6 737.285 117.007  16
   6  -9  -5 53.3070 36.3819  16
   6  -9  -4 19.8435 34.7776  16
   6  -9  -3 31.8644 41.6470  16
   6  -9  -2 272.068 83.0091  16
   6  -9  -2 189.075 52.8071   7
   6  -9  -1 780.983 135.442  16
   6  -9  -1 838.030 121.603   7
   6  -9   0-32.2265 28.5320  16
   6  -9   0-21.7237 34.7515   7
   6  -9   1 80.2315 39.7435  16
   6  -9   1 177.345 61.4053   7
   6  -9   2 1004.77 141.461   7
   6  -9   3 82.1508 46.1138   7
   6  -9   4 420.604 84.0689   7
   6  -9   5 212.155 58.2413   7
   6  -9   6 176.210 44.3008   7
   6  -8  -9 310.426 57.9594  16
   6  -8  -9 484.716 74.0237   8
   6  -8  -8 12.1108 28.3491  16
   6  -8  -7 105.276 49.6342  16
   6  -8  -6 251.270 74.5121  16
   6  -8  -5 43.6861 24.5265  16
   6  -8  -4 53.2164 53.5331  16
   6  -8  -3 1109.42 171.682  16
   6  -8  -2 849.420 155.166  16
   6  -8  -2 1031.40 139.718   7
   6  -8  -1 657.887 133.529  16
   6  -8  -1 843.795 131.970   7
   6  -8   0 848.028 147.971  16
   6  -8   0 806.844 134.554   7
   6  -8   1 186.507 64.5172  16
   6  -8   1 255.111 79.9681   7
   6  -8   2-9.26619 22.4563  16
   6  -8   2 34.2354 21.2349   7
   6  -8   3 1254.29 170.597   7
   6  -8   4 2158.83 221.173   7
   6  -8   5 1306.47 163.192   7
   6  -8   6 865.501 120.967   7
   6  -8   7 65.3205 30.8846   7
   6  -7 -10 278.887 57.4053   8
   6  -7  -9 59.4628 33.0311  16
   6  -7  -8 67.3715 37.1103  16
   6  -7  -7 65.0653 38.4934  16
   6  -7  -6 379.675 93.7935  16
   6  -7  -5 1218.98 176.166  16
   6  -7  -4 1134.08 174.841  16
   6  -7  -3 959.800 164.383  16
   6  -7  -3 766.401 131.228  11
   6  -7  -2 107.348 56.5140  16
   6  -7  -2 18.9681 40.8437   7
   6  -7  -2 16.7659 40.2354  11
   6  -7  -1 298.449 88.7075  16
   6  -7  -1 373.268 89.3913   7
   6  -7   0 843.299 153.893  16
   6  -7   0 834.076 140.788   7
   6  -7   1 259.364 83.7217  16
   6  -7   1 93.7364 46.8833   7
   6  -7   2 128.203 62.9331  16
   6  -7   2 95.3116 58.6443   7
   6  -7   3 222.327 79.3529   7
   6  -7   4 81.7194 50.1052   7
   6  -7   5 409.477 100.586   7
  -6   7  -5 553.127 94.9691   6
   6  -7   6 21.1068 23.5954   7
  -6   7  -6 58.0255 32.8885   6
   6  -7   7 99.2149 31.7967   7
  -6   7  -7 70.9276 34.9111   6
   6  -7   8 1018.00 110.056   7
  -6   7  -8 1134.17 116.428   6
  -6   7  -9 941.114 91.2686   6
   6  -6 -10 70.4242 27.9160  16
   6  -6 -10 97.8381 41.4196   8
   6  -6  -9 1395.42 146.606  16
   6  -6  -8 602.923 104.490  16
   6  -6  -7 664.157 118.739  16
   6  -6  -6 324.488 90.5613  16
   6  -6  -5 1231.25 177.176  16
   6  -6  -4 224.212 75.7415  16
   6  -6  -4 109.453 57.8814  11
   6  -6  -3 218.661 79.8593  16
   6  -6  -3 71.9440 34.9393  11
   6  -6  -2 195.050 80.0637  16
   6  -6  -2 96.4370 50.2661  11
   6  -6  -1 12094.9 636.647  16
   6  -6  -1 11393.4 565.897   7
   6  -6  -1 11504.5 587.518  11
   6  -6   0 176.667 73.0249  16
   6  -6   0 313.549 85.1859   7
   6  -6   0 350.229 100.608  11
   6  -6   1 5032.40 376.174  16
   6  -6   1 4892.97 367.230   7
   6  -6   2 410.791 96.6254  16
   6  -6   2 531.371 110.556   7
   6  -6   3 111.714 49.3099   7
   6  -6   4 1067.71 174.138   7
  -6   6  -4 989.293 143.344   6
   6  -6   5 517.221 124.473   7
  -6   6  -5 381.018 87.7910   6
   6  -6   6 345.040 92.7609   7
  -6   6  -6 143.301 60.0050   6
   6  -6   7 43.3583 17.9709   7
  -6   6  -7 44.2434 35.0901   6
   6  -6   8 55.3930 33.2403   7
  -6   6  -8 50.0876 31.1348   6
  -6   6  -9 732.918 99.5193   6
  -6   6 -10 25.1010 17.7947   6
   6  -5 -10-5.65554 21.5840  16
   6  -5 -10 24.2527 29.6971   8
   6  -5  -9 21.4184 23.9993  16
   6  -5  -8 327.567 79.9740  16
   6  -5  -7 187.018 67.8866  16
   6  -5  -6 2852.36 269.073  16
   6  -5  -5 689.502 134.118  16
   6  -5  -5 672.151 153.654  11
   6  -5  -4 997.803 165.078  16
   6  -5  -4 847.875 165.929  11
   6  -5  -3 1834.95 230.242  16
   6  -5  -3 1432.12 211.166  11
   6  -5  -2 2004.40 240.260  16
   6  -5  -2 1525.67 215.449  11
   6  -5  -1 3683.40 326.393  16
   6  -5  -1 3447.82 290.252   7
   6  -5  -1 3169.77 303.538  11
   6  -5   0 24725.6 956.353  16
   6  -5   0 22478.5 893.356   7
   6  -5   0 24426.9 942.035  11
   6  -5   1 1043.72 166.808  16
   6  -5   1 1139.80 178.028   7
   6  -5   2 2675.61 255.793  16
   6  -5   2 3191.33 297.906   7
   6  -5   3 73.4182 57.9549   7
   6  -5   4 2385.00 268.915   7
   6  -5   5-28.8363 44.6739   7
   6  -5   6 1600.66 217.577   7
   6  -5   7 679.568 131.187   7
  -6   5  -7 629.555 120.297   6
   6  -5   8 5.70079 41.0243   7
  -6   5  -8 21.8038 33.6615   6
   6  -5   9 157.943 51.0604   7
  -6   5  -9 49.2815 28.0944   6
  -6   5 -10 2064.78 173.696   6
  -6   5 -11 1094.04 105.893   6
   6  -4 -10 157.104 43.8724  16
   6  -4 -10 169.279 57.5185   8
   6  -4  -9 66.6496 37.0353  16
   6  -4  -8 883.488 133.881  16
   6  -4  -7 471.030 106.043  16
   6  -4  -6 9411.84 518.259  16
   6  -4  -5 3356.84 302.311  16
   6  -4  -5 3060.82 331.502  11
   6  -4  -4 372.728 98.6209  16
   6  -4  -4 418.507 122.354  11
   6  -4  -3 488.675 113.287  16
   6  -4  -3 630.887 140.821  11
   6  -4  -2 17.3624 32.0985  16
   6  -4  -2 3.76262 22.7337  11
   6  -4  -1 107.380 67.2967  16
   6  -4  -1-5.64432 28.2995   7
   6  -4  -1 165.484 88.5348  11
   6  -4   0 12572.9 617.243  16
   6  -4   0 11332.3 569.639   7
  -6   4   0 11719.7 677.191  18
   6  -4   1 11962.8 581.707  16
   6  -4   1 11262.3 575.265   7
  -6   4  -1 10215.3 625.851  18
   6  -4   2 5129.05 377.968   7
  -6   4  -2 4240.90 379.159  18
   6  -4   3 49.8094 52.2356   7
   6  -4   4 2532.69 275.388   7
   6  -4   5 923.507 172.583   7
   6  -4   6 108.133 63.7176   7
   6  -4   7 102.653 73.9766   7
   6  -4   8 552.337 119.139   7
  -6   4  -8 748.187 135.001   6
   6  -4   9-0.80432 17.5309   7
  -6   4  -9-32.0831 31.2664   6
  -6   4 -10 1787.86 177.861   6
  -6   4 -11 106.446 39.6538   6
  -6   4 -12 794.059 85.9841   6
   6  -3 -10 1783.92 157.387  16
   6  -3 -10 1447.83 155.186   8
   6  -3  -9 124.425 44.4985  16
   6  -3  -8 2984.01 256.961  16
   6  -3  -7 344.552 88.4962  16
   6  -3  -6 1570.51 200.189  16
   6  -3  -6 1653.07 246.502  11
   6  -3  -5 1134.88 175.231  16
   6  -3  -5 1285.86 212.894  11
   6  -3  -4 985.277 162.372  16
   6  -3  -4 777.416 168.009  11
   6  -3  -3-16.2094 53.9422  16
   6  -3  -3 80.4309 36.1961  11
   6  -3  -2 622.147 127.763  16
   6  -3  -2 711.721 150.127  11
  -6   3   2 622.955 142.427  18
   6  -3  -1 2651.72 263.667  16
   6  -3  -1 2540.17 235.147   7
  -6   3   1 2315.09 280.987  18
   6  -3   0 1681.34 204.375  16
   6  -3   0 1501.58 182.829   7
  -6   3   0 1554.01 225.581  18
   6  -3   1 438.801 104.580  16
   6  -3   1 452.537 101.100   7
  -6   3  -1 543.645 136.988  18
   6  -3   2 1527.42 196.682   7
  -6   3  -2 1381.52 206.516  18
   6  -3   3 7341.67 457.367   7
  -6   3  -3 6149.80 454.500  18
   6  -3   4 5010.73 383.765   7
  -6   3  -4 3998.66 390.843   1
   6  -3   5 3199.84 311.007   7
   6  -3   6 105.221 60.2756   7
   6  -3   7 252.905 86.8576   7
   6  -3   8 3094.27 299.552   7
   6  -3   9 1739.90 200.880   7
  -6   3 -10 3345.07 265.570   6
  -6   3 -11 357.189 77.0662   6
  -6   3 -12 674.651 91.3847   6
   6  -2 -10 146.827 42.9197  16
   6  -2 -10 168.798 52.5716   8
   6  -2  -9 232.947 64.6766  16
   6  -2  -8 328.116 83.5986  16
   6  -2  -7 1270.44 173.507  16
   6  -2  -6 625.608 128.206  16
   6  -2  -6 352.216 109.187  11
   6  -2  -5 263.805 84.4413  16
   6  -2  -5 251.853 96.1653  11
   6  -2  -4 1859.68 225.393  16
   6  -2  -4 1469.75 232.178  11
   6  -2  -3 13.5242 17.2800  16
  -6   2   3 28.2826 26.3754  18
   6  -2  -2 3658.37 314.474  16
   6  -2  -2 4173.77 384.413  11
  -6   2   2 3728.12 345.711  18
   6  -2  -1 5426.88 379.727  16
  -6   2   1 5614.55 428.937  18
   6  -2   0-57.8873 41.4600  16
  -6   2   0-12.6895 33.3069  18
   6  -2   1 60.7062 53.9238  16
  -6   2  -1 483.624 124.071  18
  -6   2  -2 1219.40 190.218  18
  -6   2  -3 601.297 120.923  14
  -6   2  -3 666.912 139.744  18
  -6   2  -4 54.3792 48.2596  14
  -6   2  -4 71.5691 22.5617   1
  -6   2  -4 38.9768 43.5014  18
  -6   2  -5 52.8017 34.5927  14
  -6   2  -5 51.7338 33.0025   1
   6  -2   6 1440.03 209.395   7
   6  -2   7 2803.81 291.217   7
   6  -2   8 1645.71 217.129   7
   6  -2   9 1750.07 212.412   7
   6  -2  10 110.190 40.6670   7
  -6   2 -11 647.389 112.420   6
  -6   2 -12 72.7780 45.3123   6
  -6   2 -13 23.1654 18.7384   6
   6  -1 -10 1369.31 136.195  16
   6  -1 -10 1189.82 117.298   8
   6  -1  -9 66.0809 39.9229  16
   6  -1  -8 25.7387 26.8374  16
   6  -1  -7 1666.00 202.861  16
   6  -1  -6-18.7112 30.3613  16
   6  -1  -5 739.855 139.635  16
   6  -1  -5 756.740 162.955  11
   6  -1  -4 62.5516 44.7060  16
   6  -1  -4 124.049 60.2663  11
   6  -1  -3 2653.36 267.579  16
   6  -1  -3 3328.34 342.068  11
  -6   1   3 2964.47 295.223  18
   6  -1  -2 279.497 83.7232  16
  -6   1   2 110.545 63.0509  18
   6  -1  -1 8575.42 484.809  16
  -6   1   1 8673.20 527.739  18
   6  -1   0 1118.28 159.475  16
  -6   1   0 1145.69 182.466  18
   6  -1   1 770.890 127.327  16
  -6   1  -1 871.064 136.792  14
  -6   1  -1 711.338 141.069  18
  -6   1  -2 428.271 95.9391  14
  -6   1  -2 482.788 119.777  18
  -6   1  -3 3577.70 294.061  14
  -6   1  -3 3860.45 345.721  18
  -6   1  -3 4457.49 375.297   1
  -6   1  -4 4715.64 402.195   1
  -6   1  -4 4782.73 349.071  14
  -6   1  -4 4836.15 386.549  18
  -6   1  -5 5811.47 463.513   1
  -6   1  -5 6903.01 430.180  14
  -6   1  -6 1621.16 241.664   1
  -6   1  -6 1762.27 219.106  14
  -6   1  -7 1423.69 176.617  17
   6  -1   8 43.2680 56.2676   7
  -6   1  -8 0.45217 39.1224  17
   6  -1   9 312.428 92.8549   7
  -6   1  -9 372.597 93.7217  17
   6  -1  10 881.589 137.756   7
  -6   1 -10 654.533 113.999  17
  -6   1 -11 630.090 112.628   6
  -6   1 -11 691.257 110.605  17
  -6   1 -12-21.6902 23.4831   6
  -6   1 -12-35.6053 16.0796  17
  -6   1 -13 393.918 70.7567   6
   6   0 -10 207.180 51.7542  16
   6   0  -9 49.3062 31.9598  16
   6   0  -9 6.03844 18.1163   8
   6   0  -8 302.455 80.5186  16
   6   0  -7-42.5005 44.2411  16
   6   0  -6 658.293 127.402  16
   6   0  -5 1986.14 232.424  16
   6   0  -5 2510.78 291.893  11
   6   0  -4 570.978 125.053  16
   6   0  -4 553.276 136.463  11
   6   0  -3 2014.74 231.484  16
   6   0  -3 2460.57 288.811  11
  -6   0   3 2426.90 265.578  18
   6   0  -2 52.0551 25.6152  16
  -6   0   2 79.0204 53.5508  18
   6   0  -1 9652.66 520.492  16
  -6   0   1 9620.10 494.563  14
  -6   0   1 10717.8 585.167  18
   6   0   0 3057.23 265.443  16
  -6   0   0 2956.55 256.070  14
  -6   0   0 3590.59 319.744  18
  -6   0  -1 650.441 121.442  14
  -6   0  -1 655.421 136.653  18
  -6   0  -2 2066.54 213.421  14
  -6   0  -2 2297.65 254.467  18
  -6   0  -3 1991.50 213.476  14
  -6   0  -3 1968.15 237.896  18
  -6   0  -3 1932.72 228.658   1
  -6   0  -4 923.005 146.328  14
  -6   0  -4 882.814 166.048   1
  -6   0  -4 825.423 151.617  18
  -6   0  -5 800.448 138.027  14
  -6   0  -5 849.986 161.659   1
  -6   0  -6 4270.86 384.640   1
  -6   0  -6 4082.06 331.374  14
  -6   0  -7 2587.55 268.387  14
  -6   0  -7 2583.06 305.415   1
  -6   0  -8 461.320 109.002  17
  -6   0  -9 478.999 103.240  17
   6   0  10 232.692 83.8589   7
  -6   0 -10 121.300 60.9521  17
  -6   0 -11 1633.30 186.587  17
  -6   0 -12 1623.67 178.127   6
  -6   0 -12 1378.43 159.036  17
  -6   0 -13 1159.79 131.875   6
  -6   0 -13 1013.73 118.295  17
  -6   0 -14 140.331 37.7151   6
  -6   0 -14 133.998 34.5195  17
   6   1 -10-3.33163 25.9737  16
   6   1  -9 311.173 72.3088  16
   6   1  -8 496.303 103.746  16
   6   1  -7 45.3970 29.8910  16
   6   1  -6 350.863 94.8511  16
   6   1  -5 1346.84 192.093  16
   6   1  -5 1523.21 214.576  11
   6   1  -4 2219.61 251.259  16
  -6  -1   4 2976.23 261.640  14
   6   1  -4 2877.43 304.402  11
   6   1  -3 1300.52 188.811  16
  -6  -1   3 2073.76 218.187  14
   6   1  -3 1864.14 246.081  11
  -6  -1   3 1847.74 225.381  18
   6   1  -2 695.297 131.246  16
  -6  -1   2 816.442 135.341  14
  -6  -1   2 994.278 164.951  18
   6   1  -1 1232.18 170.138  16
  -6  -1   1 1184.53 164.767  14
  -6  -1   1 1268.39 182.990  18
   6   1   0 2886.54 258.408  16
  -6  -1   0 2983.72 260.485  14
  -6  -1   0 3213.02 297.770  18
  -6  -1  -1 3297.70 276.160  14
  -6  -1  -1 3157.87 295.065  18
  -6  -1  -2 11827.9 573.399  14
  -6  -1  -2 13195.1 644.026  18
  -6  -1  -3 5393.79 366.300   1
  -6  -1  -3 4741.56 342.463  14
  -6  -1  -3 5035.36 381.383  18
  -6  -1  -4 263.099 74.5940  14
  -6  -1  -4 315.645 91.3559   1
  -6  -1  -4 362.129 94.9388  18
  -6  -1  -5 5.30314 29.0531  14
  -6  -1  -5-27.4951 33.0524   1
  -6  -1  -6 963.401 155.103  14
  -6  -1  -6 745.110 148.204   1
  -6  -1  -7 2664.09 266.815  14
  -6  -1  -7 2780.18 305.320   1
  -6  -1  -8 1468.74 204.211  14
  -6  -1  -9 146.852 45.9873  17
  -6  -1 -10 126.092 49.4181  17
  -6  -1 -11 24.0263 26.3861  17
  -6  -1 -12 733.958 125.449  17
  -6  -1 -13 166.291 52.2170   6
  -6  -1 -13 155.667 52.5407  17
  -6  -1 -14 145.398 37.3011   6
  -6  -1 -14 98.3404 36.4894  17
   6   2  -9-16.5735 21.4520  16
   6   2  -8 333.138 81.4961  16
   6   2  -7 632.390 119.945  16
   6   2  -6 37.4093 27.5910  16
  -6  -2   6 13.4158 23.5539  14
   6   2  -5-8.18813 24.7420  16
  -6  -2   5 26.7558 24.1397  14
   6   2  -4 2280.17 253.559  16
  -6  -2   4 2518.88 252.382  14
   6   2  -4 2586.80 272.202  11
  -6  -2   3 279.554 84.3037  14
   6   2  -3 291.841 88.5841  11
  -6  -2   2 1562.44 197.913  14
   6   2  -2 1948.46 240.971  11
  -6  -2   2 1847.26 220.769  18
   6   2  -1 2441.20 246.142  16
  -6  -2   1 3395.02 291.982  14
  -6  -2   1 3229.57 293.905  18
   6   2   0 1974.88 211.066  16
  -6  -2   0 2537.26 247.512  14
  -6  -2   0 2648.23 263.327  18
  -6  -2  -1 105.857 67.4917  14
  -6  -2  -1 52.9155 48.3984  18
  -6  -2  -2 1920.79 211.201  14
  -6  -2  -2 1877.94 223.970  18
  -6  -2  -3 12294.6 598.613  14
  -6  -2  -3 13968.5 654.315  18
  -6  -2  -4 466.694 99.9734  14
  -6  -2  -5 172.486 65.7578  14
  -6  -2  -5 147.050 53.2017   1
  -6  -2  -6 615.342 125.410  14
  -6  -2  -6 662.556 135.523   1
  -6  -2  -7 925.758 156.742   1
  -6  -2  -7 1164.26 173.832  14
  -6  -2  -8 2389.02 256.126  14
  -6  -2  -8 2332.49 275.526   1
  -6  -2  -9 5951.01 429.008  14
  -6  -2 -10 82.8968 53.9742  17
  -6  -2 -11 13.6909 26.9522  17
  -6  -2 -12 3882.67 310.259  17
  -6  -2 -13 918.520 127.606   6
  -6  -2 -13 863.549 135.676  17
  -6  -2 -14 1565.06 157.089  17
  -6  -2 -15 349.666 59.6706  17
   6   3  -9 9.49140 10.6210  16
   6   3  -8 64.3764 38.3798  16
   6   3  -7 468.242 104.219  16
  -6  -3   7 396.514 84.2193  14
   6   3  -6-8.83522 28.9866  16
  -6  -3   6 50.0941 32.2847  14
  -6  -3   5 316.355 89.2220  14
  -6  -3   4 2874.57 283.568  14
  -6  -3   3 1866.25 226.603  14
   6   3  -3 2085.74 237.256  11
  -6  -3   2 7120.55 463.966  14
   6   3  -2 8442.48 497.550  11
  -6  -3   2 7670.71 497.479   2
  -6  -3   1 4669.51 362.990  14
  -6  -3   1 4911.69 371.198   2
  -6  -3   0 285.206 91.5126  14
  -6  -3  -1 292.136 84.3281  14
  -6  -3  -2 4037.10 324.972  14
  -6  -3  -3 7655.40 458.118  14
  -6  -3  -4 12449.8 602.824  14
   6   3   4 11713.9 504.050   3
  -6  -3  -5 1863.32 216.378  14
   6   3   5 1810.48 185.712   3
  -6  -3  -6 121.153 58.9104  14
  -6  -3  -7 2213.82 243.565  14
  -6  -3  -7 2439.48 254.084   1
  -6  -3  -8 21.2306 36.4387  14
  -6  -3  -8 79.0173 53.0088   1
  -6  -3  -9 125.330 60.1127  14
  -6  -3 -10 1047.29 169.704  17
  -6  -3 -11 92.0187 56.0493  17
  -6  -3 -12 824.523 146.403  17
  -6  -3 -13-13.4298 32.6508   6
  -6  -3 -13 86.8501 43.3481  17
  -6  -3 -14 41.1568 29.2639  17
  -6  -3 -15-19.1519 20.8021  17
   6   4  -9-13.1045 9.61586  16
   6   4  -8 137.961 46.9262  16
  -6  -4   8 86.4076 28.6063  14
   6   4  -7 501.970 106.230  16
  -6  -4   7 505.414 92.8694  14
  -6  -4   6 571.445 112.230  14
  -6  -4   5 1954.98 227.681  14
  -6  -4   4 542.936 125.921  14
  -6  -4   3 400.171 100.435  14
  -6  -4   2 2091.75 252.025  14
  -6  -4   1 9649.60 564.908  14
  -6  -4   1 10697.3 581.135   2
  -6  -4   0 2719.94 282.537  14
  -6  -4   0 2821.88 266.927   2
  -6  -4  -1 678.242 134.592  14
  -6  -4  -1 731.974 128.765   2
  -6  -4  -2 2330.43 251.460  14
  -6  -4  -3 1501.27 197.359  14
  -6  -4  -4 1197.74 174.158  14
   6   4   4 557.935 93.9804   3
  -6  -4  -5 1379.96 191.863  14
   6   4   5 1413.65 160.178   3
  -6  -4  -6 5951.01 408.376  14
   6   4   6 5410.08 347.163   3
  -6  -4  -7 6146.10 418.686  14
   6   4   7 5381.76 358.222   3
  -6  -4  -8 164.195 68.7412  14
   6   4   8 57.2649 44.4040   3
  -6  -4  -9 361.740 100.376  14
  -6  -4 -10 3563.37 330.768  14
  -6  -4 -10 2962.63 298.393  17
  -6  -4 -11 902.528 161.978  17
  -6  -4 -12-12.7003 50.2887  17
  -6  -4 -13 1821.24 211.630  17
  -6  -4 -14 220.485 76.5890  17
  -6  -4 -15 181.453 50.7588  17
   6   5  -8-18.8298 21.3333  16
  -6  -5   8-6.48468 20.3702  14
   6   5  -7 680.555 112.902  16
  -6  -5   7 879.776 119.927  14
  -6  -5   6 329.024 83.4710  14
  -6  -5   5-19.8021 22.8452  14
  -6  -5   4 261.919 81.6715  14
  -6  -5   3 4544.33 382.871  14
  -6  -5   2 1029.27 182.182  14
  -6  -5   1 2146.45 262.144  14
  -6  -5   0 4165.05 362.073  14
  -6  -5   0 3932.00 322.698   2
  -6  -5  -1 220.891 79.3936  14
  -6  -5  -1 118.655 67.1024   2
  -6  -5  -2 5430.53 406.490  14
  -6  -5  -3 1244.52 187.683  14
  -6  -5  -4 194.991 64.7559  14
   6   5   4 263.451 64.8378   3
  -6  -5  -5 571.134 119.350  14
   6   5   5 554.803 99.4298   3
  -6  -5  -6 25.9378 39.1273  14
   6   5   6 43.2522 34.3012   3
  -6  -5  -7 117.319 57.5961  14
   6   5   7 29.0913 26.6716   3
  -6  -5  -8 1352.10 194.697  14
  -6  -5  -9 3556.01 326.279  14
  -6  -5 -10 1264.93 192.046  14
  -6  -5 -11 1520.88 217.122  17
  -6  -5 -12 1023.28 170.018  17
  -6  -5 -13 86.4015 58.4737  17
  -6  -5 -14 903.589 139.452  17
  -6  -5 -15 228.303 61.4361  17
  -6  -5 -16 33.3740 20.8111  17
   6   6  -7 415.371 80.8408  16
  -6  -6   7 449.795 77.7371  14
  -6  -6   6 23.6030 17.0402  14
  -6  -6   5 37.8941 39.0104  14
  -6  -6   4 175.613 68.3572  14
  -6  -6   3 114.845 64.9663  14
  -6  -6   2 6323.22 466.318  14
  -6  -6   1 111.974 65.8258  14
  -6  -6   0 405.881 116.869  14
  -6  -6  -1 203.219 93.1556  14
  -6  -6  -2 41222.9 1423.96  14
  -6  -6  -3 4349.85 369.927  14
  -6  -6  -3 4360.90 378.526  12
  -6  -6  -4 1005.64 174.626  14
   6   6   4 863.311 114.763   3
  -6  -6  -4 1066.74 178.569  12
  -6  -6  -5 112.836 61.0252  14
   6   6   5 32.8490 35.9179   3
  -6  -6  -6 232.847 83.3664  14
   6   6   6 258.834 69.5692   3
  -6  -6  -7 486.101 120.000  14
   6   6   7 488.371 97.7059   3
  -6  -6  -8 11968.0 631.537  14
  -6  -6  -9 4319.73 359.829  14
  -6  -6 -10 1937.42 240.019  14
  -6  -6 -11 61.4147 38.7849  17
  -6  -6 -12 491.615 115.594  17
  -6  -6 -13 144.146 60.6501  17
  -6  -6 -14 1175.14 158.528  17
  -6  -6 -15 80.4259 35.0833  17
  -6  -6 -16 58.0567 24.9831  17
   6   7  -7 595.349 81.2459  16
  -6  -7   7 730.408 86.0131  14
  -6  -7   6 6.42028 18.4244  14
  -6  -7   5 27.7170 19.6716  14
  -6  -7   4 20.4510 27.7983  14
  -6  -7   3-28.7986 25.3443  14
  -6  -7   2 2613.67 288.323  14
  -6  -7   1 1440.27 219.026  14
  -6  -7   0 12521.3 689.856  14
  -6  -7  -1 85.9125 80.2810  14
  -6  -7  -2 31559.9 1208.13  14
  -6  -7  -3 477.761 137.844  14
  -6  -7  -4 7243.67 489.279  14
  -6  -7  -4 7334.09 516.909  12
  -6  -7  -5 3211.40 316.591  14
   6   7   5 3931.57 265.467   3
  -6  -7  -5 4075.22 370.064  12
  -6  -7  -6 395.330 109.171  14
  -6  -7  -6 553.423 139.500  12
   6   7   6 685.200 110.562   3
  -6  -7  -7-82.6926 57.6273  14
  -6  -7  -7-2.18370 32.3418  12
  -6  -7  -8 4210.43 359.084  14
  -6  -7  -8 4951.71 387.016  12
  -6  -7  -9 371.716 101.025  14
  -6  -7  -9 407.123 109.463  12
  -6  -7 -10 2402.09 263.340  14
  -6  -7 -10 2343.89 243.620  12
  -6  -7 -11 2406.50 234.711  12
  -6  -7 -11 1863.63 234.588  17
  -6  -7 -12-51.9457 49.3452  12
  -6  -7 -12 32.9118 24.6021  17
  -6  -7 -13 819.570 142.427  17
  -6  -7 -14-13.9177 30.1472  17
  -6  -7 -15 236.464 61.5331  17
   6   8  -6 558.360 81.2852  16
  -6  -8   6 797.904 95.4512  14
  -6  -8   5-26.8665 28.7442  14
  -6  -8   4 7.97611 28.8131  14
  -6  -8   3 236.793 77.9496  14
  -6  -8   2 163.012 74.4753  14
  -6  -8   1 344.480 107.796  14
  -6  -8   0 371.400 108.615  14
  -6  -8  -1 921.206 174.498  14
  -6  -8  -2 3474.54 345.993  14
  -6  -8  -3 801.728 164.096  14
  -6  -8  -3 857.375 185.252  12
  -6  -8  -4 4629.63 388.996  14
  -6  -8  -4 4248.95 401.652  12
  -6  -8  -5 481.230 122.453  14
  -6  -8  -5 444.316 122.350  12
  -6  -8  -6 26.6356 50.3682  14
  -6  -8  -6 28.1161 59.3185  12
  -6  -8  -7 2630.60 278.882  14
  -6  -8  -7 2860.35 314.728  12
  -6  -8  -8 3563.10 323.303  14
  -6  -8  -8 4018.27 365.417  12
  -6  -8  -9 2720.22 276.115  14
  -6  -8  -9 3216.16 312.512  12
  -6  -8 -10 1789.01 213.250  14
  -6  -8 -10 1449.89 201.675  12
  -6  -8 -11 5.47840 32.0382  12
  -6  -8 -11 1.12572 43.1389  17
  -6  -8 -12-9.10712 29.7316  12
  -6  -8 -12 1.05762 34.9860  17
  -6  -8 -13 7.07998 23.5294  12
  -6  -8 -13 28.9428 38.5563  17
  -6  -8 -14 25.0594 22.3277  12
  -6  -8 -14 51.3736 36.1854  17
  -6  -8 -15 224.040 54.3034  17
  -6  -9   5 97.2877 35.1221  14
  -6  -9   4 139.562 44.3073  14
  -6  -9   3 715.295 119.711  14
  -6  -9   2 156.258 61.2976  14
  -6  -9   1-4.06490 33.0126  14
  -6  -9   0 22.7050 40.2801  14
  -6  -9  -1 127.829 68.8202  14
  -6  -9  -2 2147.80 256.536  14
  -6  -9  -3 2181.08 261.254  14
  -6  -9  -3 2642.72 323.045  12
  -6  -9  -4 812.377 151.193  14
  -6  -9  -4 784.071 172.749  12
  -6  -9  -5 3385.21 320.203  14
  -6  -9  -5 3552.12 376.372  12
  -6  -9  -6 1155.33 179.483  14
  -6  -9  -6 878.598 183.483  12
  -6  -9  -7-25.7867 58.4527  14
  -6  -9  -7-21.2716 55.6208  12
  -6  -9  -8 104.424 60.8243  14
  -6  -9  -8 81.6385 35.4725  12
  -6  -9  -9 38.8732 53.0707  12
  -6  -9 -10 781.555 153.628  12
  -6  -9 -11 109.682 64.1151  12
  -6  -9 -11 1.71906 26.3239  17
  -6  -9 -12 1314.12 171.356  12
  -6  -9 -12 1799.33 199.933  17
  -6  -9 -13 172.357 56.5658  12
  -6  -9 -13 418.190 87.5992  17
  -6  -9 -14 77.3643 36.1286  12
  -6  -9 -14 71.2287 33.2538  17
  -6 -10   4 55.8480 21.5864  14
  -6 -10   3 708.091 100.679  14
  -6 -10   2 83.9318 43.4845  14
  -6 -10   1 665.418 119.014  14
  -6 -10   0-11.2825 26.5295  14
  -6 -10  -1-14.1408 40.4123  14
  -6 -10  -2 1308.51 186.757  14
  -6 -10  -2 1500.58 229.573  12
  -6 -10  -3 1554.83 201.261  14
  -6 -10  -3 1554.35 242.053  12
  -6 -10  -4 167.083 64.8438  14
  -6 -10  -4 118.875 64.0600  12
  -6 -10  -5 307.060 86.3206  14
  -6 -10  -5 374.826 119.689  12
  -6 -10  -6 839.366 144.002  14
  -6 -10  -6 752.909 169.789  12
  -6 -10  -7 152.178 85.9429  12
  -6 -10  -8 67.7530 34.9865  12
  -6 -10  -9 640.708 141.842  12
  -6 -10 -10 123.383 59.1626  12
  -6 -10 -10 222.476 67.3095  17
  -6 -10 -11 120.710 59.4239  12
  -6 -10 -11 398.871 88.3652  17
  -6 -10 -12-17.3266 36.5404  12
  -6 -10 -12 93.3245 46.8913  17
  -6 -10 -13 281.263 70.1013  12
  -6 -10 -14 40.3360 24.7395  12
  -6 -11   3 678.626 88.1992  12
  -6 -11   2 11.9643 13.6746  14
  -6 -11   2 56.9029 40.7112  12
  -6 -11   1 81.5442 34.6436  14
  -6 -11   1 114.842 51.0685  12
  -6 -11   0 561.972 99.0523  14
  -6 -11   0 504.072 109.560  12
  -6 -11  -1 129.539 49.8488  14
  -6 -11  -1 161.968 74.6427  12
  -6 -11  -2 440.710 93.2863  14
  -6 -11  -2 638.164 132.519  12
  -6 -11  -3 25.5923 30.3680  14
  -6 -11  -3 12.9251 32.8751  12
  -6 -11  -4 946.502 143.481  14
  -6 -11  -4 945.100 176.091  12
  -6 -11  -5 196.346 61.7079  12
  -6 -11  -6 164.723 75.9920  12
  -6 -11  -7 124.725 57.2157  12
  -6 -11  -8 3924.30 366.227  12
  -6 -11  -9 429.351 110.605  12
  -6 -11 -10 29.0216 32.3749  12
  -6 -11 -11 983.824 158.660  12
  -6 -11 -12 16.1498 31.2071  12
  -6 -11 -13 560.937 95.4971  12
  -6 -11 -14 554.692 81.6636  12
  -6 -12   1 37.3561 19.8648  12
  -6 -12   0 272.639 53.0271  14
  -6 -12   0 263.472 70.7473  12
  -6 -12  -1 34.7362 18.6023  14
  -6 -12  -1 21.4845 22.4188  12
  -6 -12  -2 86.1151 35.7821  14
  -6 -12  -2 102.407 60.6068  12
  -6 -12  -3 242.022 85.8859  12
  -6 -12  -4 14.7208 24.8059  12
  -6 -12  -5 225.922 87.2295  12
  -6 -12  -6 34.5730 53.0289  12
  -6 -12  -7 25.0732 29.7189  12
  -6 -12  -8 32.0020 27.8413  12
  -6 -12  -9-94.3081 51.5480  12
  -6 -12 -10 53.4816 40.2066  12
  -6 -12 -11-11.0367 30.6128  12
  -6 -12 -12 34.7303 26.0860  12
  -6 -12 -13 141.963 42.6367  12
  -6 -13   0 131.321 40.0272  12
  -6 -13  -1 341.245 69.2408  12
  -6 -13  -2 29.3218 29.4447  12
  -6 -13  -3 75.6418 41.7815  12
  -6 -13  -4 74.1397 50.9647  12
  -6 -13  -5 1630.67 195.743  12
  -6 -13  -6 889.494 143.963  12
  -6 -13  -7 131.519 61.8926  12
  -6 -13  -8 25.8633 31.2235  12
  -6 -13  -9-20.4329 39.2420  12
  -6 -13 -10 25.3347 30.3092  12
  -6 -13 -11 218.001 68.4166  12
  -6 -13 -12 28.3099 22.3588  12
  -6 -14  -3 272.016 56.7091  12
  -6 -14  -4 272.888 61.3857  12
  -6 -14  -5 990.686 123.797  12
  -6 -14  -6 47.7003 36.1384  12
  -6 -14  -7 261.191 66.5141  12
  -6 -14  -8 135.405 48.4824  12
  -6 -14  -9-24.1983 26.6983  12
  -6 -14 -10 76.1214 28.7945  12
  -6 -14 -11 117.444 36.3334  12
   7  -9  -5 49.5264 26.7142  16
   7  -9  -4 20.1698 19.6022  16
   7  -9  -3 17.7025 23.8447  16
   7  -9  -2 273.823 64.6419  16
   7  -9  -1 34.5883 16.4148  16
   7  -9   0-12.4516 10.4286   7
   7  -9   1 83.1761 32.7542   7
   7  -9   2 181.359 47.3093   7
   7  -9   3-20.7672 18.6999   7
   7  -9   4 27.2209 20.7988   7
   7  -8  -7 22.4675 13.2785  16
   7  -8  -6 43.1151 29.8350  16
   7  -8  -5-2.29826 20.8225  16
   7  -8  -4 1.89656 15.5619  16
   7  -8  -3 88.9501 42.1227  16
   7  -8  -2 45.5632 34.9156  16
   7  -8  -1 392.861 84.5274  16
   7  -8  -1 417.946 73.0644   7
   7  -8   0 578.845 100.762  16
   7  -8   0 802.024 107.170   7
   7  -8   1 1.74230 24.0508  16
   7  -8   1 9.15279 11.1886   7
   7  -8   2 120.249 41.8398   7
   7  -8   3 126.216 48.0157   7
   7  -8   4-25.3225 22.6135   7
   7  -8   5 25.6569 17.0009   7
   7  -7  -7 2.94590 17.1016  16
   7  -7  -6 0.31112 24.4123  16
   7  -7  -5 115.593 48.6718  16
   7  -7  -4 362.539 86.2520  16
   7  -7  -3 217.742 70.2423  16
   7  -7  -2 1073.36 153.545  16
   7  -7  -1 694.240 122.140  16
   7  -7  -1 707.903 105.010   7
   7  -7   0 2484.27 226.438  16
   7  -7   0 2371.23 208.679   7
   7  -7   1 167.305 55.2462  16
   7  -7   1 178.056 56.4039   7
   7  -7   2 8.70385 22.2252   7
   7  -7   3 144.815 57.1588   7
   7  -7   4 110.304 49.6717   7
   7  -7   5 211.207 63.4229   7
   7  -7   6 280.616 62.8332   7
   7  -7   7 26.0697 20.3492   7
   7  -6  -8-4.33217 14.2679  16
   7  -6  -7 65.8827 31.8411  16
   7  -6  -6 257.904 68.5032  16
   7  -6  -5 89.0447 41.2807  16
   7  -6  -4 241.569 72.6977  16
   7  -6  -3 499.980 107.585  16
   7  -6  -3 453.504 102.534  11
   7  -6  -2 86.7701 38.7574  16
   7  -6  -2 43.6320 37.6028  11
   7  -6  -1 1370.86 181.736  16
   7  -6  -1 1586.21 172.359   7
   7  -6  -1 1639.00 190.370  11
   7  -6   0 358.162 87.8604  16
   7  -6   0 415.081 93.7667   7
   7  -6   0 402.469 94.1857  11
   7  -6   1 123.744 48.5316  16
   7  -6   1 31.0413 32.1261   7
   7  -6   2 37.5022 33.5835   7
   7  -6   3-30.2091 35.5913   7
   7  -6   4 100.089 46.2886   7
   7  -6   5 22.0032 33.2823   7
   7  -6   6 148.482 51.2687   7
  -7   6  -6 134.813 38.7071   6
   7  -6   7 25.3609 12.1647   7
  -7   6  -7 2.59787 22.0770   6
   7  -6   8 311.495 56.7093   7
  -7   6  -8 292.497 52.1588   6
   7  -5  -8 89.2000 33.2061  16
   7  -5  -7 500.569 87.5361  16
   7  -5  -6 167.417 55.1864  16
   7  -5  -5 228.128 69.4526  16
   7  -5  -4 49.3744 36.7665  16
   7  -5  -4-14.4085 35.3894  11
   7  -5  -3 156.680 62.1464  16
   7  -5  -3 58.3933 39.2159  11
   7  -5  -2 258.393 81.6701  16
   7  -5  -2 273.052 85.4150  11
   7  -5  -1 499.648 110.478  16
   7  -5  -1 657.745 116.110   7
   7  -5  -1 579.277 123.811  11
   7  -5   0 411.729 103.138  16
   7  -5   0 305.048 79.0615   7
   7  -5   0 265.501 84.3556  11
   7  -5   1 72.1322 52.3999  16
   7  -5   1 56.6044 45.6548   7
   7  -5   1 24.8645 26.1557  11
   7  -5   2 1996.27 223.668   7
   7  -5   2 1778.25 198.945  11
   7  -5   3 742.738 135.285   7
   7  -5   4 1154.56 172.654   7
   7  -5   5 139.420 60.1622   7
   7  -5   6-8.20413 18.7775   7
  -7   5  -6-40.1825 28.5045   6
   7  -5   7-27.3092 26.8748   7
  -7   5  -7-0.63595 17.6522   6
   7  -5   8-7.05164 18.6770   7
  -7   5  -8 40.9232 18.6109   6
   7  -5   9 129.042 37.5326   7
  -7   5  -9 119.575 37.9787   6
   7  -4  -9 147.198 44.7478   8
   7  -4  -8 249.744 57.5387  16
   7  -4  -7 165.674 54.7855  16
   7  -4  -6 92.8005 53.5548  16
   7  -4  -5-14.6852 18.4114  16
   7  -4  -4 409.181 101.670  16
   7  -4  -4 417.712 113.384  11
   7  -4  -3 73.1041 50.1527  16
   7  -4  -3 45.8443 33.5892  11
   7  -4  -2 27.5936 26.2351  16
   7  -4  -2 169.098 74.4937  11
   7  -4  -1 2011.34 224.798  16
   7  -4  -1 1999.10 248.415  11
   7  -4   0 255.168 74.2196   7
   7  -4   0 304.278 98.4240  11
   7  -4   1 6.36479 34.6671  16
   7  -4   1 22.8273 21.3451   7
   7  -4   2 734.715 138.837   7
   7  -4   3 62.6399 60.5120   7
   7  -4   4 4058.66 345.816   7
   7  -4   5 143.840 68.2960   7
   7  -4   6 170.693 68.9237   7
   7  -4   7 181.425 69.3152   7
   7  -4   8 44.6670 33.1125   7
  -7   4  -8-1.57139 27.1200   6
   7  -4   9 29.3528 22.8241   7
  -7   4  -9 54.2966 31.3440   6
  -7   4 -10 760.462 93.0232   6
   7  -3  -9 20.3950 14.4516  16
   7  -3  -9 12.8458 18.1025   8
   7  -3  -8 206.346 55.5157  16
   7  -3  -7 860.114 122.619  16
   7  -3  -6-12.7040 22.8976  16
   7  -3  -5 3032.99 265.087  16
   7  -3  -5 2969.50 311.261  11
   7  -3  -4 52.0253 46.6309  16
   7  -3  -4-4.23784 45.7619  11
   7  -3  -3 532.376 114.550  16
   7  -3  -3 499.867 129.855  11
   7  -3  -2 216.869 72.4088  16
   7  -3  -2 199.519 72.3202  11
   7  -3  -1-17.8713 20.1114  16
   7  -3  -1 7.95711 51.5082  11
   7  -3   0 73.2465 37.0513  16
   7  -3   0 12.8141 15.9764   7
   7  -3   1 48.4860 29.9782  16
   7  -3   1-38.0264 39.0925   7
   7  -3   2 351.859 97.2998   7
   7  -3   3 448.589 116.292   7
   7  -3   4 1991.27 237.907   7
   7  -3   5 1258.54 194.230   7
   7  -3   6 3423.18 315.242   7
   7  -3   7 167.849 74.2274   7
   7  -3   8 409.020 100.089   7
   7  -3   9 23.1841 20.1649   7
  -7   3  -9-23.7783 35.7414   6
   7  -3  10 332.797 63.0794   7
  -7   3 -10 466.419 83.6943   6
  -7   3 -11 191.111 46.9619   6
   7  -2  -9 89.2543 33.8894  16
   7  -2  -8 6.71935 27.1409  16
   7  -2  -7-17.2792 20.3771  16
   7  -2  -6 12.2487 31.3916  16
   7  -2  -5 19.1660 24.2334  16
   7  -2  -5 15.7793 41.7212  11
   7  -2  -4 143.782 65.4101  16
   7  -2  -4 98.2243 54.5452  11
   7  -2  -3 192.657 59.7288  16
   7  -2  -3 372.999 117.115  11
   7  -2  -2 122.809 57.7751  16
   7  -2  -2 119.089 63.8739  11
   7  -2  -1 232.421 74.9276  16
   7  -2  -1 235.910 92.6567  11
   7  -2   0 195.068 68.6200  16
   7  -2   0 89.2842 34.0864   7
   7  -2   1 272.107 73.9106  16
   7  -2   1 199.513 66.6994   7
   7  -2   2 282.612 76.4442   7
  -7   2  -3 1120.66 162.622  14
   7  -2   3 968.114 158.127   7
  -7   2  -4 5615.30 381.078  14
   7  -2   4 5024.80 382.811   7
   7  -2   5 90.7232 50.8985   7
   7  -2   6 5093.85 389.867   7
   7  -2   7 417.627 107.112   7
   7  -2   8 147.003 55.8147   7
   7  -2   9 2985.72 256.522   7
   7  -2  10 36.7862 28.2598   7
  -7   2 -10-31.8107 35.0086   6
  -7   2 -11 116.725 37.2691   6
  -7   2 -12 92.2987 28.5637   6
   7  -1  -9 18.4252 23.5069  16
   7  -1  -8 1157.31 132.578  16
   7  -1  -7-25.4764 36.6280  16
   7  -1  -6 271.983 75.9604  16
   7  -1  -5 76.0804 53.8154  16
   7  -1  -5-10.7512 18.4862  11
   7  -1  -4 680.315 131.040  16
   7  -1  -4 620.666 142.840  11
   7  -1  -3 54.1142 17.0121  16
   7  -1  -3 36.6094 34.0098  11
   7  -1  -2 1261.07 179.243  16
   7  -1  -2 1406.05 224.859  11
   7  -1  -1 16.6917 18.0339  16
   7  -1  -1 54.6321 45.5035  11
   7  -1   0 542.620 110.930  16
  -7   1  -1 248.457 80.1950  14
  -7   1  -2 146.572 50.3951  14
  -7   1  -3 1231.57 169.660  14
  -7   1  -4 362.184 82.2886  14
  -7   1  -5 123.319 58.7473  14
  -7   1  -6 62.9152 44.0270  14
   7  -1   7 1656.68 213.129   7
   7  -1   8 56.4122 46.7100   7
   7  -1   9 225.268 73.5662   7
   7  -1  10 157.977 47.9739   7
  -7   1 -11 13.9655 13.6569   6
  -7   1 -12 376.450 66.0547   6
   7   0  -8 97.7872 42.4988  16
   7   0  -7 37.3111 31.4483  16
   7   0  -6 71.8850 47.0166  16
   7   0  -5 435.723 104.557  16
   7   0  -4-11.2493 19.5451  16
   7   0  -4 18.4466 26.0808  11
   7   0  -3 26.7853 23.2075  16
   7   0  -3 15.5437 33.0573  11
   7   0  -2 10.1548 30.3388  16
   7   0  -2-35.2350 69.6373  11
   7   0  -1 2295.47 239.883  16
   7   0   0 58.7566 25.3088  16
  -7   0   0 101.740 40.6366  14
  -7   0  -1 174.964 63.1205  14
  -7   0  -2 965.745 151.972  14
  -7   0  -3 147.791 61.9109  14
  -7   0  -4 1983.73 226.102  14
  -7   0  -5 470.710 114.791  14
  -7   0  -6 163.963 74.5363  14
  -7   0  -7 204.371 68.8750  14
  -7   0  -8 256.514 70.3283  17
   7   0   9 202.308 69.9944   7
  -7   0  -9 164.726 62.7633  17
   7   0  10 2846.59 248.618   7
  -7   0 -10 2756.19 232.437  17
   7   0  11 53.4032 33.7709   7
  -7   0 -11 41.1320 25.3725  17
  -7   0 -12 77.1391 30.5689   6
  -7   0 -12 34.6820 17.5963  17
  -7   0 -13 538.094 77.2682   6
   7   1  -8 37.0787 15.8528  16
   7   1  -7 39.4865 38.9954  16
   7   1  -6 30.1089 27.5907  16
   7   1  -5 11.6641 18.2774  16
   7   1  -4 381.764 97.5459  16
   7   1  -4 396.368 109.407  11
   7   1  -3 0.25720 34.8381  16
  -7  -1   3-44.6749 32.9053  14
   7   1  -3-49.1618 67.1787  11
   7   1  -2 541.911 118.172  16
  -7  -1   2 405.367 96.7336  14
   7   1  -2 362.462 110.343  11
   7   1  -1 149.670 56.8948  16
  -7  -1   1 250.132 68.9435  14
   7   1   0 81.9618 35.7652  16
  -7  -1   0 46.8260 39.0070  14
  -7  -1  -1 1092.48 164.745  14
  -7  -1  -2-10.9111 39.1922  14
  -7  -1  -3 1496.83 195.548  14
  -7  -1  -4 84.0036 47.0107  14
  -7  -1  -5 977.888 161.952  14
  -7  -1  -6 1015.98 166.783  14
  -7  -1  -7 953.794 161.294  14
  -7  -1  -8 227.446 83.1370  14
  -7  -1  -9 36.0212 30.4769  17
   7   1  10 842.966 135.126   7
  -7  -1 -10 877.103 137.974  17
   7   1  11 905.444 123.542   7
  -7  -1 -11 918.165 130.739  17
  -7  -1 -12 35.7216 19.6760  17
  -7  -1 -13 266.364 56.0424   6
  -7  -1 -13 250.545 54.8771  17
   7   2  -8 0.24380 10.9283  16
   7   2  -7 27.2272 22.2315  16
   7   2  -6 116.272 47.7055  16
   7   2  -5 217.021 75.5021  16
   7   2  -4 128.122 59.2879  16
  -7  -2   4 93.5659 24.2114  14
   7   2  -3 1299.59 184.433  16
  -7  -2   3 1357.45 178.535  14
   7   2  -3 1094.37 176.956  11
   7   2  -2 318.087 90.6556  16
  -7  -2   2 356.494 95.0343  14
   7   2  -2 435.426 117.729  11
   7   2  -1 657.016 125.474  16
  -7  -2   1 720.389 135.061  14
   7   2  -1 826.328 162.237  11
   7   2   0 305.461 78.3728  16
  -7  -2   0 421.951 96.8209  14
  -7  -2  -1-15.2466 41.0481  14
  -7  -2  -2 720.961 140.778  14
  -7  -2  -3 218.712 71.2701  14
  -7  -2  -4 18.2108 47.5541  14
  -7  -2  -5 1407.40 194.103  14
  -7  -2  -6 806.519 150.005  14
  -7  -2  -7 1405.69 198.328  14
  -7  -2  -8 360.620 107.572  14
  -7  -2  -9 37.3636 46.8569  17
  -7  -2 -10 1208.01 169.017  17
   7   2  11 87.6377 42.9194   7
  -7  -2 -11 78.3701 49.6281  17
  -7  -2 -12 1441.38 162.363  17
  -7  -2 -13 477.946 80.0838   6
  -7  -2 -13 376.767 71.6522  17
  -7  -2 -14-7.14417 13.4683  17
   7   3  -8-23.9774 20.6982  16
   7   3  -7 44.8465 29.0441  16
   7   3  -6 55.3716 45.1650  16
   7   3  -5-18.3613 34.7181  16
  -7  -3   5-27.2150 40.4283  14
   7   3  -4 21.6270 19.3968  16
  -7  -3   4 30.5227 30.8406  14
   7   3  -3 166.164 70.4595  16
  -7  -3   3 310.265 87.2359  14
   7   3  -3 232.553 81.9260  11
   7   3  -2 486.704 116.965  16
  -7  -3   2 689.782 134.982  14
   7   3  -2 665.982 130.601  11
   7   3  -1 17.5003 41.5116  16
  -7  -3   1 56.2089 43.6854  14
   7   3  -1 92.8063 51.5700  11
   7   3   0 36.8194 40.3694  16
  -7  -3   0 55.6286 43.8019  14
  -7  -3  -1 224.559 89.8562  14
  -7  -3  -2 1775.47 221.307  14
  -7  -3  -3 999.451 165.544  14
  -7  -3  -4 104.588 50.4343  14
  -7  -3  -5 3055.09 292.410  14
  -7  -3  -6 365.305 101.126  14
  -7  -3  -7 3304.33 309.526  14
  -7  -3  -8 216.106 78.3875  14
  -7  -3  -9 335.581 95.7363  14
  -7  -3 -10 1502.67 194.645  17
  -7  -3 -11 251.388 81.8985  17
  -7  -3 -12 19.6841 27.5819  17
  -7  -3 -13 675.259 99.2468   6
  -7  -3 -13 530.074 97.1328  17
  -7  -3 -14 850.505 102.013  17
   7   4  -7 372.133 68.0016  16
   7   4  -6 24.2190 29.3931  16
  -7  -4   6 35.8931 24.6932  14
   7   4  -5 579.576 111.242  16
  -7  -4   5 498.143 88.6594  14
   7   4  -4 1238.23 171.647  16
  -7  -4   4 1394.78 175.595  14
   7   4  -3 129.362 59.7749  16
  -7  -4   3 202.438 73.8919  14
   7   4  -2 2241.48 246.207  16
  -7  -4   2 2567.07 268.229  14
   7   4  -1 24.8713 25.2486  16
  -7  -4   1 1.14789 26.8142  14
   7   4  -1-27.9098 24.0408  11
   7   4   0-5.59749 21.5366  16
  -7  -4   0-0.87621 33.3236  14
  -7  -4  -1 99.2761 54.3011  14
  -7  -4  -2 140.218 62.2863  14
  -7  -4  -3 636.628 133.162  14
  -7  -4  -4 1337.58 197.015  14
  -7  -4  -5 129.116 47.3256  14
  -7  -4  -6 398.203 105.731  14
  -7  -4  -7 891.007 166.777  14
  -7  -4  -8 96.5761 48.4079  14
  -7  -4  -9 1083.78 178.227  14
  -7  -4 -10-4.84967 29.8325  17
  -7  -4 -11 1455.59 191.590  17
  -7  -4 -12 103.714 53.3185  17
  -7  -4 -13-21.9999 35.7972  17
  -7  -4 -14 64.0883 36.6662  17
   7   5  -6 95.8210 35.9479  16
  -7  -5   6 106.909 35.2275  14
   7   5  -5 4.03356 21.7986  16
  -7  -5   5 131.849 50.6767  14
   7   5  -4 178.686 62.4553  16
  -7  -5   4 236.780 69.1772  14
   7   5  -3-26.0951 41.6819  16
  -7  -5   3-38.1742 47.8593  14
   7   5  -2 34.3727 30.1142  16
  -7  -5   2 13.4819 39.5801  14
   7   5  -1 274.286 81.8253  16
  -7  -5   1 350.561 104.509  14
   7   5   0 128.819 56.0667  16
  -7  -5   0 217.978 86.9078  14
  -7  -5  -1 573.807 134.282  14
  -7  -5  -2 54.5582 32.5492  14
  -7  -5  -3 99.2702 55.3698  14
  -7  -5  -4 8.75248 21.4032  14
  -7  -5  -5 341.736 100.487  14
  -7  -5  -6 122.903 62.5626  14
  -7  -5  -7 4003.70 349.535  14
  -7  -5  -8 854.862 154.620  14
  -7  -5  -9 1422.97 203.753  14
  -7  -5 -10 161.089 75.2267  14
  -7  -5 -11 77.2273 53.8435  17
  -7  -5 -12 4350.21 332.375  17
  -7  -5 -13 847.961 130.391  17
  -7  -5 -14 83.5212 37.2713  17
  -7  -5 -15 83.4984 33.3951  17
   7   6  -6 26.2196 17.4822  16
   7   6  -5 192.297 56.7689  16
  -7  -6   5 200.054 58.1636  14
   7   6  -4-2.19644 23.8663  16
  -7  -6   4-2.20149 23.3745  14
   7   6  -3 81.4407 49.1811  16
  -7  -6   3 94.4431 42.1173  14
  -7  -6   2-27.7184 24.1914  14
  -7  -6   1 178.317 75.5115  14
  -7  -6   0 91.4263 49.1433  14
  -7  -6  -1 1609.10 226.471  14
  -7  -6  -2 119.102 71.9563  14
  -7  -6  -3 32.1248 50.3906  14
  -7  -6  -4-71.0261 49.5633  14
  -7  -6  -5 0.30953 40.5196  14
  -7  -6  -6 1465.50 206.562  14
  -7  -6  -7 39.0974 27.6565  14
  -7  -6  -8 906.960 165.227  14
  -7  -6  -9 443.801 109.261  14
  -7  -6 -10 3046.10 297.174  14
  -7  -6 -11-6.51835 32.5895  17
  -7  -6 -12 7.87502 32.0644  17
  -7  -6 -13 75.1769 45.2623  17
  -7  -6 -14 20.2586 17.3152  17
  -7  -6 -15 216.722 48.7941  17
   7   7  -5 146.569 41.1653  16
  -7  -7   5 188.070 47.3881  14
   7   7  -4 223.282 61.8165  16
  -7  -7   4 321.785 74.9837  14
   7   7  -3-24.9851 25.8348  16
  -7  -7   3 39.4716 19.8978  14
  -7  -7   2 323.104 86.7145  14
  -7  -7   1 263.269 88.2283  14
  -7  -7   0 387.151 102.731  14
  -7  -7  -1 67.2403 36.7605  14
  -7  -7  -1 184.857 70.8860  12
  -7  -7  -2 591.258 139.669  14
  -7  -7  -3 3513.97 338.753  14
  -7  -7  -4 68.5359 66.7921  14
  -7  -7  -5 325.264 98.5379  14
  -7  -7  -6-109.933 58.9832  14
  -7  -7  -7 90.7348 56.3464  14
  -7  -7  -8 1609.09 217.385  14
  -7  -7  -9 1586.27 211.543  14
  -7  -7 -10 736.666 138.761  14
  -7  -7 -11 548.717 120.336  17
  -7  -7 -12 1165.29 166.495  17
  -7  -7 -13 1185.55 155.576  17
  -7  -7 -14 528.404 91.2893  17
   7   8  -4 91.1219 31.2704  16
  -7  -8   4 86.0140 32.6375  14
   7   8  -3 141.624 46.6956  16
  -7  -8   3 126.144 45.4482  14
  -7  -8   2 90.9045 45.4471  14
  -7  -8   1 42.1881 22.2151  14
  -7  -8   0 87.6190 43.9166  14
  -7  -8  -1 1078.27 179.390  14
  -7  -8  -1 977.018 177.526  12
  -7  -8  -2 49.8134 44.6317  14
  -7  -8  -2 140.966 74.0939  12
  -7  -8  -3 809.990 158.432  14
  -7  -8  -3 777.759 159.934  12
  -7  -8  -4 1.85587 31.5979  14
  -7  -8  -4 61.8590 69.9197  12
  -7  -8  -5 644.242 136.514  14
  -7  -8  -5 399.556 110.992  12
  -7  -8  -6 27.3503 32.2725  14
  -7  -8  -6-136.711 64.5656  12
  -7  -8  -7-14.9501 58.1366  14
  -7  -8  -7-2.48595 54.1447  12
  -7  -8  -8 390.350 106.310  14
  -7  -8  -9 486.652 108.515  14
  -7  -8 -10 2207.45 232.508  14
  -7  -8 -11 663.540 126.013  17
  -7  -8 -12 769.235 133.532  17
  -7  -8 -13 687.131 115.594  17
  -7  -8 -14 848.504 107.345  17
   7   9  -3 22.9768 13.9005  16
  -7  -9   3 76.4782 28.7941  14
   7   9  -2 194.638 54.2006  16
  -7  -9   2 269.586 64.7512  14
  -7  -9   2 345.888 75.9473  12
  -7  -9   1 71.8663 36.2003  14
  -7  -9   1 277.172 77.9189  12
  -7  -9   0 70.8095 35.0737  14
  -7  -9   0 201.699 72.5887  12
  -7  -9  -1 132.709 59.2167  14
  -7  -9  -1 49.8408 43.5550  12
  -7  -9  -2 18.9210 32.8480  14
  -7  -9  -2 40.9561 43.2685  12
  -7  -9  -3 69.1258 58.0275  14
  -7  -9  -3 78.6235 62.8383  12
  -7  -9  -4 286.702 94.3791  14
  -7  -9  -4 373.266 110.559  12
  -7  -9  -5 6.11269 23.5056  14
  -7  -9  -5 40.0332 50.0251  12
  -7  -9  -6 1373.19 193.440  14
  -7  -9  -6 1011.91 178.481  12
  -7  -9  -7 2237.10 239.875  14
  -7  -9  -7 1542.55 213.980  12
  -7  -9  -8 682.773 128.267  14
  -7  -9  -8 363.286 97.9505  12
  -7  -9  -9 102.050 39.8495  14
  -7  -9  -9 15.9247 39.3674  12
  -7  -9 -10 151.688 55.8034  12
  -7  -9 -10 61.9626 36.9075  17
  -7  -9 -11 24.3215 25.6711  17
  -7  -9 -12 44.0739 30.7458  17
  -7  -9 -13 563.043 90.7748  17
  -7 -10   2 179.705 43.6123  14
   7  10  -1 80.5014 32.1214  16
  -7 -10   1 106.958 41.5886  14
  -7 -10   1 108.767 37.9277  12
  -7 -10   0 20.7420 13.8990  14
  -7 -10   0 15.1941 25.2001  12
  -7 -10  -1 107.338 48.4595  14
  -7 -10  -1 91.8477 65.7713  12
  -7 -10  -2-9.79588 17.3327  14
  -7 -10  -2-6.22643 20.3461  12
  -7 -10  -3 76.7026 43.7170  14
  -7 -10  -3 68.8937 53.7005  12
  -7 -10  -4 87.7691 49.4004  14
  -7 -10  -4 55.3176 49.2677  12
  -7 -10  -5 1295.35 171.426  14
  -7 -10  -5 1040.73 178.122  12
  -7 -10  -6 83.9123 48.2361  14
  -7 -10  -6 157.876 71.2564  12
  -7 -10  -7 32.7134 30.9146  14
  -7 -10  -7 6.50674 25.1100  12
  -7 -10  -8 477.424 100.845  14
  -7 -10  -8 157.485 77.5671  12
  -7 -10  -9 59.8295 34.4874  12
  -7 -10 -10 126.706 61.9805  12
  -7 -10 -10 130.467 50.1129  17
  -7 -10 -11 66.4498 30.0527  12
  -7 -10 -11 142.674 48.8260  17
  -7 -10 -12 75.8504 26.2259  12
  -7 -10 -12 214.568 52.8730  17
  -7 -11   0 57.5878 25.3798  14
  -7 -11   0 26.2349 35.9341  12
  -7 -11  -1 3.26987 12.0507  14
  -7 -11  -1 38.9386 27.5271  12
  -7 -11  -2 29.4221 21.2412  14
  -7 -11  -2 50.9456 38.5714  12
  -7 -11  -3 183.447 53.6934  14
  -7 -11  -3 232.726 72.3303  12
  -7 -11  -4 144.784 49.0521  14
  -7 -11  -4 239.061 75.5319  12
  -7 -11  -5 92.5352 42.1249  14
  -7 -11  -5 154.218 63.4020  12
  -7 -11  -6-20.6489 23.9975  14
  -7 -11  -6-21.2776 31.4172  12
  -7 -11  -7 136.265 65.7988  12
  -7 -11  -8 374.260 90.8181  12
  -7 -11  -9 387.392 91.9276  12
  -7 -11 -10 596.715 104.895  12
  -7 -11 -11-15.1073 24.1690  12
  -7 -11 -12 145.675 35.4928  12
  -7 -12  -2 74.5610 40.7475  12
  -7 -12  -3 69.7052 37.6300  12
  -7 -12  -4 389.306 87.1286  12
  -7 -12  -5 68.9900 39.5729  12
  -7 -12  -6-24.4486 35.1185  12
  -7 -12  -7 33.6339 27.1719  12
  -7 -12  -8 88.4394 37.7714  12
  -7 -12  -9 436.609 88.9409  12
  -7 -12 -10 119.309 45.2536  12
  -7 -12 -11-6.89147 15.2281  12
  -7 -13  -4-8.82899 10.6388  12
  -7 -13  -5 62.9165 28.0920  12
  -7 -13  -6 30.2168 12.0491  12
  -7 -13  -7-11.6713 17.7045  12
  -7 -13  -8 12.7473 22.6711  12
  -7 -13  -9 83.5347 28.7446  12
   8  -7  -3 25.2469 11.6733  16
   8  -7  -2 62.4241 24.2614  16
   8  -7  -1 265.992 52.8300  16
   8  -7   1 670.579 78.8803   7
   8  -7   2 53.1019 21.3833   7
   8  -7   3 40.3701 24.6987   7
   8  -7   4 0.78381 14.2527   7
   8  -6  -5 252.208 49.9142  16
   8  -6  -4 25.0749 20.0471  16
   8  -6  -3 99.7782 29.9105  16
   8  -6  -2 381.116 72.2770  16
   8  -6  -1 933.178 112.553  16
   8  -6   0 1674.21 147.577  11
   8  -6   1 1155.58 124.566   7
   8  -6   2 338.133 69.8734   7
   8  -6   3 33.7732 31.4628   7
   8  -6   4-23.0998 23.6382   7
   8  -6   5 120.300 40.2619   7
   8  -6   6 4.37978 12.9362   7
   8  -5  -6 16.2692 14.9292  16
   8  -5  -5 57.0704 29.1306  16
   8  -5  -4 49.2539 28.1074  16
   8  -5  -3 139.680 46.7860  16
   8  -5  -2 25.9074 15.7598  16
   8  -5  -2 47.8121 22.0399  11
   8  -5  -1 167.797 53.4686  16
   8  -5  -1 214.632 62.2357  11
   8  -5   0 92.3223 39.7196  16
   8  -5   0 108.207 44.1051  11
   8  -5   1 92.0525 40.9825   7
   8  -5   1 28.0325 29.4405  11
   8  -5   2 394.533 81.8124   7
   8  -5   2 349.006 75.1931  11
   8  -5   3 432.181 87.3548   7
   8  -5   4 86.7441 36.3613   7
   8  -5   5 1.63749 19.2770   7
   8  -5   6 18.0062 12.6811   7
   8  -5   7 10.8402 11.4552   7
   8  -4  -6 147.621 41.2919  16
   8  -4  -5 31.4874 20.5391  16
   8  -4  -4 516.271 88.5657  16
   8  -4  -3 22.5729 14.6609  16
   8  -4  -3-7.07945 17.4352  11
   8  -4  -2 17.5777 20.3602  16
   8  -4  -2-40.7798 52.3575  11
   8  -4  -1 223.026 63.3439  16
   8  -4  -1 228.902 71.8035  11
   8  -4   0 163.778 54.0472  16
   8  -4   0 350.524 95.4349  11
   8  -4   1 1194.82 147.539   7
   8  -4   1 1093.31 155.785  11
   8  -4   2 178.326 59.2815   7
   8  -4   2 176.936 57.7793  11
   8  -4   3-2.22009 34.4773   7
   8  -4   3 41.0000 37.6950  11
   8  -4   4-27.0119 37.2470   7
   8  -4   4 38.1312 25.2334  11
   8  -4   5 106.162 42.4277   7
   8  -4   6 183.055 60.4576   7
  -8   4  -6 207.586 53.0595   6
   8  -4   7 256.075 62.1593   7
  -8   4  -7 224.393 48.9265   6
   8  -4   8 1.63714 11.7783   7
  -8   4  -8 66.0694 24.7737   6
   8  -3  -6 639.717 88.0218  16
   8  -3  -5 7.23469 19.5232  16
   8  -3  -4 220.682 57.1141  16
   8  -3  -3 108.781 42.6616  16
   8  -3  -3 131.123 57.6461  11
   8  -3  -2 5.81580 23.5016  16
   8  -3  -2 7.16582 21.0859  11
   8  -3  -1 30.2547 29.9861  16
   8  -3  -1 88.3063 55.5281  11
   8  -3   0 175.960 55.8579  16
   8  -3   0 225.661 75.0847  11
   8  -3   1 1045.17 140.636   7
   8  -3   1 1092.77 168.713  11
   8  -3   2 1.47370 21.2777   7
   8  -3   2 39.4094 39.0962  11
   8  -3   3 13.8344 25.1022   7
   8  -3   4-50.3549 42.3441   7
   8  -3   5 1078.55 156.901   7
   8  -3   6 205.728 66.9350   7
   8  -3   7 56.9145 26.1478   7
   8  -3   8-6.61757 16.8930   7
  -8   3  -8 33.4796 21.2267   6
   8  -3   9 224.381 49.8018   7
  -8   3  -9 196.886 46.4648   6
   8  -2  -6 635.867 90.0391  16
   8  -2  -5 1039.28 127.701  16
   8  -2  -4 432.428 85.7526  16
   8  -2  -3 431.115 90.0726  16
   8  -2  -3 448.570 111.434  11
   8  -2  -2 279.960 74.6351  16
   8  -2  -2 279.447 93.5380  11
   8  -2  -1 42.6484 39.6359  16
   8  -2  -1 33.9573 34.9652  11
   8  -2   0 228.770 63.9590  16
   8  -2   0 281.637 90.2664  11
   8  -2   1 89.5709 37.8306   7
   8  -2   1 132.514 65.0871  11
   8  -2   2 12.9108 41.0654   7
   8  -2   3 257.752 76.3612   7
   8  -2   4 360.360 92.7069   7
   8  -2   5 112.967 57.9198   7
   8  -2   6 9.80922 23.1512   7
   8  -2   7 970.842 146.219   7
   8  -2   8 266.398 69.7879   7
   8  -2   9-0.43166 21.7709   7
  -8   2  -9-16.2814 25.9507   6
   8  -2  10 42.1364 18.3965   7
  -8   2 -10 4.83448 13.8544   6
   8  -1  -6 219.456 52.2958  16
   8  -1  -5 358.532 76.2988  16
   8  -1  -4 555.898 100.078  16
   8  -1  -3 605.553 108.544  16
   8  -1  -3 492.899 114.462  11
   8  -1  -2 805.006 126.721  16
   8  -1  -2 967.269 167.026  11
   8  -1  -1 412.192 91.3570  16
   8  -1  -1 367.160 105.766  11
   8  -1   0 129.786 50.0739  16
   8  -1   0 175.198 77.3796  11
   8  -1   1 3.31253 19.9372   7
   8  -1   2 1662.07 194.273   7
  -8   1  -3 77.8842 44.6135  14
   8  -1   3 101.662 62.8706   7
  -8   1  -4 143.635 57.8186  14
   8  -1   4 134.940 69.3164   7
   8  -1   5 1648.52 199.877   7
   8  -1   6 510.574 115.147   7
   8  -1   7 105.196 54.1421   7
   8  -1   8 21.5742 20.0842   7
   8  -1   9 316.506 71.6866   7
   8  -1  10-1.49332 15.3367   7
  -8   1 -10-19.9938 26.0778   6
  -8   1 -11 6.37266 12.4436   6
   8   0  -6 16.0986 12.3979  16
   8   0  -5 18.2261 18.1182  16
   8   0  -4 189.058 58.7664  16
   8   0  -3 6.64039 28.3087  16
   8   0  -3-11.1179 31.7078  11
   8   0  -2 21.5871 28.3158  16
   8   0  -2 39.1040 23.8613  11
   8   0  -1 1020.42 142.897  16
   8   0  -1 926.587 169.038  11
   8   0   0 649.377 110.524  16
   8   0   0 519.957 135.993  11
  -8   0  -1 416.433 88.0615  14
   8   0   1 526.534 101.829   7
  -8   0  -2 1277.15 162.007  14
  -8   0  -3 38.9908 28.5715  14
  -8   0  -4 1255.54 169.167  14
  -8   0  -5 491.642 107.535  14
  -8   0  -6 18.9266 28.6584  14
   8   0   6 34.5118 33.3043   7
   8   0   7 113.736 52.4486   7
  -8   0  -7 135.742 47.7631  17
   8   0   8 1.50472 15.5447   7
   8   0   9 704.135 115.820   7
   8   0  10 35.6093 19.3121   7
   8   0  11 62.8536 22.1624   7
  -8   0 -11 82.4305 30.4488   6
   8   1  -6 171.078 44.2669  16
   8   1  -5 63.0296 31.5529  16
   8   1  -4 227.932 58.0882  16
   8   1  -3 25.7445 26.2483  16
   8   1  -3-34.0120 20.6681  11
   8   1  -2-13.0273 33.4356  16
   8   1  -2-41.9290 40.0937  11
   8   1  -1 153.332 58.1423  16
  -8  -1   1 65.2261 21.4987  14
   8   1   0 684.115 114.335  16
  -8  -1   0 771.482 123.994  14
   8   1   0 698.400 147.265  11
  -8  -1  -1 612.235 115.134  14
  -8  -1  -2 470.350 103.800  14
  -8  -1  -3 283.767 81.1146  14
  -8  -1  -4 398.215 98.4064  14
  -8  -1  -5-28.3884 30.9021  14
  -8  -1  -6 46.7721 27.9633  14
  -8  -1  -7-1.67518 35.1313  14
   8   1   8-31.9197 32.0047   7
  -8  -1  -8-25.9933 29.5702  17
   8   1   9 74.2436 33.5163   7
  -8  -1  -9 91.9246 41.2401  17
   8   1  10 72.4159 40.6086   7
  -8  -1 -10 77.2777 34.5211  17
   8   1  11 83.2881 32.0314   7
  -8  -1 -11 45.5794 24.1928  17
  -8  -1 -12 81.8390 28.8082   6
   8   2  -6 250.317 52.8472  16
   8   2  -5 202.553 52.2998  16
   8   2  -4 483.794 91.7342  16
   8   2  -3 26.6800 28.5837  16
   8   2  -3 30.6547 22.8467  11
   8   2  -2 266.293 72.4250  16
  -8  -2   2 218.838 66.3151  14
   8   2  -2 301.740 87.8799  11
   8   2  -1 345.035 84.4158  16
  -8  -2   1 531.146 102.028  14
   8   2  -1 373.952 107.143  11
   8   2   0 1987.40 198.157  16
  -8  -2   0 2076.40 215.434  14
   8   2   0 2329.88 258.992  11
  -8  -2  -1 8.33155 39.5897  14
  -8  -2  -2 343.214 95.2245  14
  -8  -2  -3 1131.16 165.215  14
  -8  -2  -4 39.3431 16.9496  14
  -8  -2  -5 461.177 110.141  14
  -8  -2  -6 402.460 96.9513  14
  -8  -2  -7 836.689 149.249  14
  -8  -2  -8-23.3412 19.7059  14
  -8  -2  -9 21.8907 20.8206  17
   8   2  10 68.8796 36.2750   7
  -8  -2 -10 26.7897 24.0058  17
   8   2  11-8.93955 16.0410   7
  -8  -2 -11-27.5384 29.2423  17
  -8  -2 -12 134.868 39.2140   6
  -8  -2 -12 178.108 42.6191  17
   8   3  -5 47.8581 28.1807  16
   8   3  -4 41.5576 19.9197  16
   8   3  -3 1564.98 173.207  16
  -8  -3   3 1645.36 163.534  14
   8   3  -2 76.8117 37.4117  16
  -8  -3   2 112.081 52.3136  14
   8   3  -2 59.7671 31.6337  11
   8   3  -1 690.759 116.801  16
  -8  -3   1 525.633 110.342  14
   8   3  -1 605.614 116.772  11
  -8  -3   0 942.995 147.452  14
   8   3   0 958.078 156.236  11
  -8  -3  -1 13.7439 21.8221  14
  -8  -3  -2 75.1384 44.5277  14
  -8  -3  -3 24.5105 31.4256  14
  -8  -3  -4 1117.47 167.833  14
  -8  -3  -5 120.876 60.1008  14
  -8  -3  -6 214.835 72.7628  14
  -8  -3  -7 70.2432 46.0594  14
  -8  -3  -8 203.742 77.1001  14
  -8  -3  -9 394.398 94.3821  17
  -8  -3 -10 30.2742 23.6698  17
   8   3  11 44.0559 36.6241   7
  -8  -3 -11 9.26058 13.7684  17
  -8  -3 -12 98.3707 34.8720  17
   8   4  -5 34.3847 25.2586  16
   8   4  -4 14.7362 16.5337  16
  -8  -4   4 17.3696 15.0942  14
   8   4  -3 14.5185 13.7594  16
  -8  -4   3 1.60725 16.0154  14
   8   4  -2 1148.71 145.097  16
  -8  -4   2 1288.41 161.015  14
   8   4  -1 275.918 72.9761  16
  -8  -4   1 562.412 111.806  14
  -8  -4   0 144.348 61.8324  14
   8   4   0 24.6605 40.8820  11
  -8  -4  -1 14.1007 19.2711  14
   8   4   1-22.1701 19.5217  11
  -8  -4  -2 502.040 120.700  14
  -8  -4  -3 491.508 118.047  14
  -8  -4  -4 1054.99 168.799  14
  -8  -4  -5 26.7262 35.8956  14
  -8  -4  -6 20.6321 47.0714  14
  -8  -4  -7 460.295 117.014  14
  -8  -4  -8 1884.85 222.534  14
  -8  -4  -9 2702.42 262.478  14
  -8  -4 -10-10.4414 17.6408  17
  -8  -4 -11 593.079 104.452  17
   8   4  12 123.391 36.9294   7
  -8  -4 -12 112.980 42.7208  17
  -8  -4 -13 180.424 45.0110  17
   8   5  -4-1.45656 18.7247  16
  -8  -5   4-2.12255 11.6163  14
   8   5  -3 706.529 101.417  16
  -8  -5   3 742.071 107.491  14
   8   5  -2 148.814 51.6806  16
  -8  -5   2 145.855 56.6867  14
   8   5  -1 351.282 77.0180  16
  -8  -5   1 458.750 105.683  14
  -8  -5   0 208.762 77.5914  14
  -8  -5  -1 159.966 59.0131  14
  -8  -5  -2 64.7871 37.9489  14
  -8  -5  -3 64.0191 39.5097  14
  -8  -5  -4-29.6012 43.7601  14
  -8  -5  -5 30.5665 44.3533  14
  -8  -5  -6 48.2053 63.5378  14
  -8  -5  -7 41.9276 22.5086  14
  -8  -5  -8 2102.41 236.962  14
  -8  -5  -9 58.0619 52.6103  14
  -8  -5 -10 2742.45 252.441  17
  -8  -5 -11 8.64549 28.1262  17
   8   5  12 155.946 39.8033   7
  -8  -5 -12 58.0320 30.4908  17
  -8  -5 -13 233.312 53.9378  17
   8   6  -3 134.332 38.0032  16
  -8  -6   3 148.343 43.8687  14
   8   6  -2 81.6489 30.9361  16
  -8  -6   2 110.473 47.8227  14
   8   6  -1 6.67789 25.9691  16
  -8  -6   1 21.5449 19.4483  14
  -8  -6   0 1425.86 183.662  14
  -8  -6  -1 1016.50 161.887  14
  -8  -6  -2 41.7664 22.9391  14
  -8  -6  -3-21.1650 21.5393  14
  -8  -6  -4-14.3144 25.3860  14
  -8  -6  -5 459.635 107.274  14
  -8  -6  -6 158.779 53.9022  14
  -8  -6  -7 166.774 73.5565  14
  -8  -6  -8 3324.68 295.630  14
  -8  -6  -9 60.2846 46.4661  14
  -8  -6 -10 161.393 63.0705  17
  -8  -6 -11 565.352 107.548  17
  -8  -6 -12 208.856 58.8617  17
  -8  -6 -13 472.267 79.8753  17
  -8  -7   3 31.7617 16.5206  14
   8   7  -2-63.7335 33.2936  16
  -8  -7   2-11.7191 23.7760  14
  -8  -7   1 28.8687 24.3447  14
  -8  -7   0 72.2298 41.5631  14
  -8  -7  -1 502.254 109.942  14
  -8  -7  -2 840.837 148.692  14
  -8  -7  -3 28.4343 38.1172  14
  -8  -7  -4 47.7468 20.7306  14
  -8  -7  -5 212.064 65.6647  14
  -8  -7  -6-16.0824 43.5876  14
  -8  -7  -7 87.1214 33.7735  14
  -8  -7  -8 93.1944 46.3561  14
  -8  -7  -9 208.141 71.4533  14
  -8  -7 -10 59.9531 32.8057  17
  -8  -7 -11 16.1907 25.7575  17
  -8  -7 -12 162.497 53.3778  17
  -8  -7 -13 26.5600 12.3173  17
  -8  -8   2 39.3601 21.3586  14
  -8  -8   1-12.1332 13.1544  14
  -8  -8   0 78.3887 36.2819  14
  -8  -8  -1 957.446 142.899  14
  -8  -8  -2 628.425 117.195  14
  -8  -8  -3 5358.43 371.407  14
  -8  -8  -4 750.887 134.454  14
  -8  -8  -5 1333.24 182.789  14
  -8  -8  -6 32.9423 17.3495  14
  -8  -8  -7 68.2029 36.3065  14
  -8  -8  -8-24.8314 17.6621  14
  -8  -8  -9 24.1047 17.1456  14
  -8  -8 -10 12.7037 14.8388  17
  -8  -8 -11 118.652 50.0670  17
  -8  -8 -12-3.45037 19.2690  17
  -8  -9   1-9.58374 13.4241  14
  -8  -9   0 47.0894 22.4773  14
  -8  -9  -1 968.125 126.014  14
  -8  -9  -2 889.532 129.357  14
  -8  -9  -3 2018.39 207.915  14
  -8  -9  -4 1704.61 189.519  14
  -8  -9  -5 12.0105 21.4148  14
  -8  -9  -6 28.1613 20.5190  14
  -8  -9  -7 55.9167 39.6615  14
  -8  -9  -8 239.463 67.0549  14
  -8  -9  -9 97.0031 41.0608  14
  -8  -9 -10 158.657 51.5610  17
  -8  -9 -11 88.3825 31.9746  17
  -8  -9 -12 127.540 39.1823  17
  -8 -10  -1 292.937 55.3471  14
  -8 -10  -2 380.818 70.2342  14
  -8 -10  -3 1604.30 155.871  14
  -8 -10  -4 212.675 59.4499  14
  -8 -10  -5 361.892 74.1148  14
  -8 -10  -6-1.77517 21.4876  14
  -8 -10  -7-7.47964 16.5820  14
  -8 -10  -8 18.0757 22.3106  14
  -8 -10  -9 73.0767 29.7437  17
  -8 -10 -10 64.0668 34.2803  17
  -8 -11  -5 134.838 37.5164  14
   9  -4   0 33.8034 21.0885  11
   9  -4   1-4.29567 17.3693  11
   9  -4   2-21.0910 19.0684  11
   9  -4   3 2.35006 15.5553   7
   9  -4   4 30.2684 21.1667   7
   9  -4   5 122.783 34.5171   7
   9  -3  -1 28.4250 24.1995  11
   9  -3   0 37.0022 22.6835  11
   9  -3   1 34.1281 33.5451  11
   9  -3   2 104.519 32.4704   7
   9  -3   2 85.5288 36.0666  11
   9  -3   3 218.571 50.9342   7
   9  -3   3 242.622 62.1879  11
   9  -3   4 15.9478 15.4689   7
   9  -3   4-45.5009 16.7472  11
   9  -3   5 215.745 52.1379   7
   9  -3   6 118.340 38.3210   7
   9  -2  -1 132.039 53.1106  11
   9  -2   0 281.597 73.6885  11
   9  -2   1 10.6856 19.9474  11
   9  -2   2-14.0303 28.5434   7
   9  -2   2-2.94939 27.3340  11
   9  -2   3 135.099 43.3283   7
   9  -2   3 160.013 54.9527  11
   9  -2   4-7.31478 18.4618   7
   9  -2   4 36.8810 32.6320  11
   9  -2   5 614.408 95.1490   7
   9  -2   5 590.708 93.8155  11
   9  -2   6 78.2630 33.7328   7
   9  -2   6 124.449 41.1234  11
   9  -2   7 241.266 54.8981   7
  -9   2  -7 174.879 36.6772   6
   9  -1  -2 18.5481 13.8891  11
   9  -1  -1-2.64876 18.6192  11
   9  -1   0 102.022 46.8859  11
   9  -1   1-5.03341 20.1659  11
   9  -1   2-16.4051 15.3487   7
   9  -1   2-0.20957 14.7913  11
   9  -1   3 513.138 90.6650   7
   9  -1   3 422.420 97.5362  11
   9  -1   4 96.9499 41.7737   7
   9  -1   5 896.307 121.921   7
   9  -1   6 184.150 54.9955   7
   9  -1   7 194.320 55.5010   7
   9  -1   8-14.3864 11.9021   7
   9   0  -2 5.42898 17.0753  11
   9   0  -1 28.4239 22.5665  11
   9   0   0 43.6480 32.4547  11
   9   0   1 223.772 72.0712  11
   9   0   2-8.36223 16.8970   7
   9   0   2 15.7960 33.1072  11
   9   0   3 34.9346 28.2199   7
   9   0   3 62.4772 45.8318  11
   9   0   4 60.4182 36.4956   7
   9   0   5 1092.67 138.394   7
   9   0   6 4.59701 20.5543   7
   9   0   7 648.330 100.585   7
   9   0   8 7.30207 12.7965   7
   9   0   9-5.50215 13.2570   7
   9   1  -1-22.3779 22.8682  11
   9   1   0-49.5090 28.3948  11
   9   1   1 33.8190 29.7366  11
  -9  -1  -2 82.2686 38.7816  14
   9   1   2 46.8643 33.9775   7
   9   1   2 50.8343 39.2076  11
  -9  -1  -3 115.491 42.9185  14
   9   1   3 77.6225 23.2857   7
  -9  -1  -4 269.463 67.1260  14
   9   1   4 223.403 63.9681   7
  -9  -1  -5 249.166 63.8347  14
   9   1   5 265.253 68.9133   7
   9   1   6 164.012 53.7518   7
   9   1   7 98.3173 38.1552   7
   9   1   8 62.8430 30.5983   7
   9   1   9 34.4250 16.8967   7
   9   2  -1 41.2644 29.4023  11
  -9  -2   0 18.4768 15.7141  14
   9   2   0 58.5794 39.8992  11
  -9  -2  -1 122.720 45.5245  14
   9   2   1 115.356 46.8630  11
  -9  -2  -2 288.283 68.1193  14
   9   2   2 352.170 90.3997  11
  -9  -2  -3 23.6714 20.3974  14
   9   2   3 49.4599 36.0493   7
  -9  -2  -4 193.151 60.3797  14
   9   2   4 203.617 59.0495   7
  -9  -2  -5 19.2777 33.4459  14
  -9  -2  -6 72.3187 31.7978  14
   9   2   6 104.591 50.0143   7
   9   2   7 13.3176 29.2992   7
  -9  -2  -7 42.2530 29.3342  17
   9   2   8 28.1507 22.5835   7
  -9  -2  -8 31.7536 18.1965  17
   9   2   9 6.11662 10.7498   7
  -9  -2  -9-16.1549 28.1488  17
   9   2  10 31.8568 19.3970   7
  -9  -3   1 19.3539 21.6646  14
  -9  -3   0 143.026 47.4844  14
   9   3   0 69.7368 27.9656  11
  -9  -3  -1 74.7179 31.3875  14
   9   3   1 54.3602 31.0188  11
  -9  -3  -2 92.4814 37.3011  14
   9   3   2 85.5206 42.1375  11
  -9  -3  -3-23.5723 19.0683  14
  -9  -3  -4 565.555 104.571  14
  -9  -3  -5 61.7635 34.9097  14
  -9  -3  -6-5.61101 20.3514  14
  -9  -3  -7 134.289 49.2914  14
   9   3   8 444.785 86.2695   7
  -9  -3  -8 349.060 76.1112  17
   9   3   9 62.7852 35.3717   7
  -9  -3  -9 59.9785 26.4630  17
   9   3  10 174.638 46.3847   7
  -9  -3 -10 196.712 46.2643  17
  -9  -4   1 41.2442 26.2596  14
  -9  -4   0-5.90191 21.6673  14
  -9  -4  -1 33.0791 24.1214  14
   9   4   1 0.29799 13.0560  11
  -9  -4  -2 12.4629 24.4711  14
   9   4   2 54.0114 30.1151  11
  -9  -4  -3 1.92344 22.6389  14
   9   4   3-31.0694 19.1486  11
  -9  -4  -4 53.8657 38.7037  14
  -9  -4  -5 113.845 50.5818  14
  -9  -4  -6 716.003 118.226  14
  -9  -4  -7 70.7568 45.0096  14
  -9  -4  -8 16.6663 29.3590  17
  -9  -4  -9 518.464 88.9015  17
   9   4  10 78.6439 31.7074   7
  -9  -4 -10 55.9738 25.1962  17
  -9  -5   1 3.63475 15.6561  14
  -9  -5   0 1.36927 13.1099  14
  -9  -5  -1 192.375 55.8141  14
  -9  -5  -2 37.5418 26.9814  14
  -9  -5  -3 1005.24 138.950  14
   9   5   3 874.671 116.992  11
  -9  -5  -4 33.0316 24.4631  14
  -9  -5  -5 248.996 72.6467  14
  -9  -5  -6 81.3200 45.1242  14
  -9  -5  -7 839.139 127.857  14
  -9  -5  -8 957.932 133.829  14
  -9  -5  -9 505.497 92.2908  17
   9   5  10 672.795 91.6760   7
  -9  -5 -10 643.873 95.6179  17
  -9  -5 -11 134.874 40.9943  17
  -9  -6   0 1.60511 14.1325  14
  -9  -6  -1 27.4700 19.3353  14
  -9  -6  -2 23.3907 29.1252  14
  -9  -6  -3 151.909 54.2970  14
  -9  -6  -4 41.5853 28.2419  14
  -9  -6  -5 10.9734 21.7963  14
  -9  -6  -6 209.295 63.4908  14
  -9  -6  -7 178.607 64.5019  14
  -9  -6  -8 69.1107 43.9114  14
  -9  -6  -9 37.1171 23.4523  17
  -9  -6 -10 95.3870 39.3388  17
  -9  -6 -11 48.9399 29.4901  17
  -9  -7  -1 51.9500 26.8588  14
  -9  -7  -2-5.18265 13.6067  14
  -9  -7  -3 150.908 53.8377  14
  -9  -7  -4-30.2138 29.2044  14
  -9  -7  -5-1.47689 24.8509  14
  -9  -7  -6 5.71386 17.3843  14
  -9  -7  -7 127.358 47.9424  14
  -9  -7  -8 92.7681 38.2072  14
  -9  -7  -9 81.4383 39.7768  17
  -9  -7 -10 88.0520 36.1151  17
  -9  -8  -2-11.2302 18.1552  14
  -9  -8  -3 0.41740 17.6768  14
  -9  -8  -4-46.7929 27.4793  14
  -9  -8  -5 33.9617 30.8883  14
  -9  -8  -6 94.7085 39.4787  14
  -9  -8  -7 139.314 46.6601  14
  -9  -8  -8 398.265 73.1343  14
  -9  -8  -9 233.829 55.7567  17
  -9  -9  -4 153.274 41.1421  14
  -9  -9  -5-0.94119 13.3962  14
  -9  -9  -6-14.3182 22.0176  14
   0   0   0    0.00    0.00   0

TITL NL1209-2 in P-1
REM P-1 (#2 in standard setting)
CELL 1.54184   8.040390  13.557524  14.077510  68.6488  76.4195  81.6523
ZERR    6.00   0.000687   0.000861   0.000678   0.0053   0.0057   0.0061
LATT  1
SFAC C H N O
UNIT 66.00 60.00 6.00 6.00
TREF
HKLF 4
END
;
_shelx_hkl_checksum              16552
_olex2_date_sample_data_collection 2019-12-09
_olex2_submission_special_instructions 'No special instructions were received'
_oxdiff_exptl_absorpt_empirical_details
;
Empirical correction (ABSPACK) includes:
- Absorption correction using spherical harmonics
- Frame scaling
;
_oxdiff_exptl_absorpt_empirical_full_max 1.915
_oxdiff_exptl_absorpt_empirical_full_min 0.604
loop_
_space_group_symop_operation_xyz
'x, y, z'
'-x, -y, -z'
loop_
_atom_site_label
_atom_site_type_symbol
_atom_site_fract_x
_atom_site_fract_y
_atom_site_fract_z
_atom_site_U_iso_or_equiv
_atom_site_adp_type
_atom_site_occupancy
_atom_site_site_symmetry_order
_atom_site_calc_flag
_atom_site_refinement_flags_posn
_atom_site_refinement_flags_adp
_atom_site_refinement_flags_occupancy
_atom_site_disorder_assembly
_atom_site_disorder_group
Cl01 Cl 0.20904(15) 0.39791(8) 0.92589(7) 0.0785(4) Uani 1 1 d . . . . .
Cl02 Cl 0.36729(16) 0.16950(9) 0.09891(7) 0.0865(4) Uani 1 1 d . . . . .
O003 O 0.3106(3) 0.37411(16) 0.72791(16) 0.0622(6) Uani 1 1 d . . . . .
O004 O 0.3962(3) 0.19110(17) 0.28716(17) 0.0616(6) Uani 1 1 d . . . . .
O005 O 0.3300(4) 0.0900(2) 0.62263(19) 0.0712(7) Uani 1 1 d . . . . .
O006 O 0.3169(4) 0.4728(2) 0.40267(19) 0.0774(7) Uani 1 1 d . . . . .
O007 O 0.1284(4) 0.6493(2) 0.3473(2) 0.0803(8) Uani 1 1 d . . . . .
O008 O 0.1998(4) -0.0928(2) 0.7075(2) 0.0760(7) Uani 1 1 d . . . . .
O009 O 0.2881(4) 0.5931(2) 0.04786(19) 0.0817(8) Uani 1 1 d . . . . .
N00A N 0.4246(4) 0.4070(2) 0.2705(2) 0.0589(6) Uani 1 1 d . . . . .
N00B N 0.3830(4) 0.1560(2) 0.7407(2) 0.0605(7) Uani 1 1 d . . . . .
O00C O 0.2329(5) -0.0281(2) 0.9885(2) 0.0947(10) Uani 1 1 d . . . . .
C00D C 0.2119(4) 0.4667(2) 0.7196(2) 0.0538(7) Uani 1 1 d . . . . .
C00E C 0.2662(4) 0.5651(2) 0.2300(2) 0.0549(7) Uani 1 1 d . . . . .
C00F C 0.3370(4) 0.4792(3) 0.3098(3) 0.0584(7) Uani 1 1 d . . . . .
C00G C 0.3250(4) 0.0843(2) 0.7127(2) 0.0550(7) Uani 1 1 d . . . . .
C00H C 0.3684(5) 0.3478(2) 0.6345(2) 0.0625(8) Uani 1 1 d . . . . .
C00I C 0.1654(5) 0.6464(3) 0.2508(3) 0.0611(8) Uani 1 1 d . . . . .
C00J C 0.1546(4) 0.4885(2) 0.8129(3) 0.0574(7) Uani 1 1 d . . . . .
C00K C 0.3146(4) 0.1021(2) 0.3079(3) 0.0547(7) Uani 1 1 d . . . . .
C00L C 0.2546(4) -0.0013(2) 0.8064(2) 0.0571(7) Uani 1 1 d . . . . .
C00M C 0.3193(5) 0.5416(3) 0.1339(2) 0.0597(8) Uani 1 1 d . . . . .
C00N C 0.1683(5) 0.5370(3) 0.6286(3) 0.0632(8) Uani 1 1 d . . . . .
C00O C 0.4225(5) 0.4354(3) 0.1589(2) 0.0631(8) Uani 1 1 d . . . . .
C00P C 0.4783(5) 0.2449(3) 0.6649(3) 0.0671(9) Uani 1 1 d . . . . .
C00Q C 0.2756(5) 0.0227(3) 0.8953(3) 0.0659(9) Uani 1 1 d . . . . .
C00R C 0.2932(4) 0.0818(3) 0.2222(3) 0.0618(8) Uani 1 1 d . . . . .
C00S C 0.0558(5) 0.5810(3) 0.8132(3) 0.0730(10) Uani 1 1 d . . . . .
C00T C 0.4199(5) 0.2154(3) 0.3746(2) 0.0605(8) Uani 1 1 d . . . . .
C00U C 0.3651(5) 0.1256(3) 0.8527(3) 0.0680(9) Uani 1 1 d . . . . .
C00V C 0.0673(5) 0.6303(3) 0.6296(3) 0.0724(10) Uani 1 1 d . . . . .
C00W C 0.1966(5) -0.0869(3) 0.7996(3) 0.0637(8) Uani 1 1 d . . . . .
C00X C 0.2555(5) 0.0329(3) 0.4069(3) 0.0652(8) Uani 1 1 d . . . . .
C00Y C 0.5209(5) 0.3142(3) 0.3282(3) 0.0662(8) Uani 1 1 d . . . . .
C00Z C 0.2110(5) -0.0076(3) 0.2338(4) 0.0747(10) Uani 1 1 d . . . . .
C010 C 0.1706(5) -0.0566(3) 0.4201(4) 0.0769(10) Uani 1 1 d . . . . .
C011 C 0.0138(5) 0.6512(3) 0.7214(4) 0.0782(11) Uani 1 1 d . . . . .
C012 C 0.1507(5) -0.0753(3) 0.3322(4) 0.0774(11) Uani 1 1 d . . . . .
C013 C 0.0885(6) 0.7372(3) 0.1742(3) 0.0792(11) Uani 1 1 d . . . . .
C014 C 0.1266(7) -0.1786(3) 0.8909(4) 0.0905(13) Uani 1 1 d . . . . .
loop_
_atom_site_aniso_label
_atom_site_aniso_U_11
_atom_site_aniso_U_22
_atom_site_aniso_U_33
_atom_site_aniso_U_23
_atom_site_aniso_U_13
_atom_site_aniso_U_12
Cl01 0.1102(8) 0.0751(6) 0.0506(5) -0.0212(4) -0.0120(4) -0.0146(5)
Cl02 0.1170(9) 0.0905(7) 0.0547(5) -0.0217(5) -0.0288(5) -0.0037(6)
O003 0.0876(15) 0.0477(11) 0.0479(11) -0.0167(9) -0.0119(11) 0.0043(10)
O004 0.0818(15) 0.0561(12) 0.0479(11) -0.0147(9) -0.0149(10) -0.0132(11)
O005 0.0893(17) 0.0730(15) 0.0502(12) -0.0216(11) -0.0137(11) -0.0013(13)
O006 0.106(2) 0.0801(17) 0.0527(13) -0.0275(12) -0.0233(13) -0.0016(15)
O007 0.114(2) 0.0719(16) 0.0614(15) -0.0339(13) -0.0091(14) -0.0093(15)
O008 0.0992(19) 0.0693(15) 0.0739(16) -0.0351(13) -0.0354(14) 0.0077(13)
O009 0.115(2) 0.0736(16) 0.0474(13) -0.0134(11) -0.0133(13) -0.0003(15)
N00A 0.0695(16) 0.0559(14) 0.0532(14) -0.0189(11) -0.0143(12) -0.0060(12)
N00B 0.0786(17) 0.0484(13) 0.0505(14) -0.0154(11) -0.0106(12) 0.0003(12)
O00C 0.158(3) 0.0757(17) 0.0475(13) -0.0133(12) -0.0160(16) -0.0256(18)
C00D 0.0645(17) 0.0445(14) 0.0524(16) -0.0173(12) -0.0097(13) -0.0047(12)
C00E 0.0661(17) 0.0509(15) 0.0469(15) -0.0147(12) -0.0077(13) -0.0120(13)
C00F 0.0692(18) 0.0589(17) 0.0514(16) -0.0205(13) -0.0122(14) -0.0122(14)
C00G 0.0665(17) 0.0470(15) 0.0484(15) -0.0160(12) -0.0130(13) 0.0072(13)
C00H 0.083(2) 0.0495(16) 0.0490(16) -0.0183(13) -0.0030(15) 0.0003(15)
C00I 0.074(2) 0.0521(16) 0.0589(18) -0.0189(14) -0.0097(15) -0.0162(14)
C00J 0.0646(17) 0.0525(16) 0.0561(17) -0.0220(13) -0.0035(14) -0.0118(13)
C00K 0.0580(16) 0.0482(15) 0.0587(17) -0.0209(13) -0.0144(13) 0.0056(12)
C00L 0.0733(19) 0.0474(15) 0.0510(16) -0.0169(12) -0.0182(14) 0.0046(13)
C00M 0.0737(19) 0.0559(17) 0.0465(16) -0.0146(13) -0.0059(14) -0.0131(14)
C00N 0.076(2) 0.0501(16) 0.0615(19) -0.0152(14) -0.0171(16) -0.0020(14)
C00O 0.078(2) 0.0596(18) 0.0464(16) -0.0160(13) -0.0050(14) -0.0058(15)
C00P 0.071(2) 0.0490(16) 0.071(2) -0.0171(15) -0.0003(16) -0.0036(14)
C00Q 0.091(2) 0.0554(18) 0.0503(17) -0.0178(14) -0.0164(16) 0.0002(16)
C00R 0.0676(18) 0.0561(17) 0.0642(19) -0.0220(14) -0.0235(15) 0.0089(14)
C00S 0.070(2) 0.065(2) 0.087(3) -0.0388(19) 0.0046(18) -0.0127(16)
C00T 0.076(2) 0.0584(18) 0.0496(16) -0.0180(14) -0.0162(14) -0.0066(15)
C00U 0.095(2) 0.0559(18) 0.0543(18) -0.0203(14) -0.0155(17) -0.0046(17)
C00V 0.069(2) 0.0544(18) 0.089(3) -0.0184(17) -0.0178(18) -0.0017(15)
C00W 0.074(2) 0.0504(16) 0.067(2) -0.0165(14) -0.0261(16) 0.0058(14)
C00X 0.076(2) 0.0508(17) 0.0609(19) -0.0145(14) -0.0074(16) -0.0018(15)
C00Y 0.072(2) 0.0570(18) 0.071(2) -0.0171(16) -0.0253(17) -0.0046(15)
C00Z 0.075(2) 0.066(2) 0.101(3) -0.045(2) -0.036(2) 0.0120(17)
C010 0.073(2) 0.0551(19) 0.094(3) -0.0231(18) -0.008(2) -0.0005(16)
C011 0.068(2) 0.0568(19) 0.109(3) -0.032(2) -0.012(2) -0.0025(16)
C012 0.072(2) 0.057(2) 0.109(3) -0.036(2) -0.019(2) 0.0004(16)
C013 0.100(3) 0.0569(19) 0.073(2) -0.0134(17) -0.019(2) -0.0002(19)
C014 0.125(4) 0.060(2) 0.085(3) -0.007(2) -0.036(3) -0.023(2)
loop_
_atom_type_symbol
_atom_type_description
_atom_type_scat_dispersion_real
_atom_type_scat_dispersion_imag
_atom_type_scat_source
C C 0.0181 0.0091 'International Tables Vol C Tables 4.2.6.8 and 6.1.1.4'
H H 0.0000 0.0000 'International Tables Vol C Tables 4.2.6.8 and 6.1.1.4'
N N 0.0311 0.0180 'International Tables Vol C Tables 4.2.6.8 and 6.1.1.4'
O O 0.0492 0.0322 'International Tables Vol C Tables 4.2.6.8 and 6.1.1.4'
Cl Cl 0.3639 0.7018 'International Tables Vol C Tables 4.2.6.8 and 6.1.1.4'
loop_
_geom_angle_atom_site_label_1
_geom_angle_atom_site_label_2
_geom_angle_atom_site_label_3
_geom_angle
_geom_angle_site_symmetry_1
_geom_angle_site_symmetry_3
_geom_angle_publ_flag
C00D O003 C00H 116.9(2) . . ?
C00K O004 C00T 117.6(2) . . ?
C00F N00A C00O 112.3(3) . . ?
C00F N00A C00Y 124.2(3) . . ?
C00Y N00A C00O 123.4(3) . . ?
C00G N00B C00P 122.2(3) . . ?
C00G N00B C00U 113.0(3) . . ?
C00U N00B C00P 124.1(3) . . ?
O003 C00D C00J 115.2(3) . . ?
O003 C00D C00N 124.7(3) . . ?
C00N C00D C00J 120.0(3) . . ?
C00F C00E C00M 107.4(3) . . ?
C00I C00E C00F 122.0(3) . . ?
C00I C00E C00M 130.6(3) . . ?
O006 C00F N00A 124.8(3) . . ?
O006 C00F C00E 125.0(3) . . ?
N00A C00F C00E 110.2(3) . . ?
O005 C00G N00B 125.7(3) . . ?
O005 C00G C00L 125.5(3) . . ?
N00B C00G C00L 108.9(3) . . ?
O003 C00H C00P 105.7(3) . . ?
O007 C00I C00E 120.0(3) . . ?
O007 C00I C013 114.5(3) . . ?
C00E C00I C013 125.5(3) . . ?
C00D C00J Cl01 118.8(2) . . ?
C00S C00J Cl01 121.0(3) . . ?
C00S C00J C00D 120.1(3) . . ?
O004 C00K C00R 115.9(3) . . ?
O004 C00K C00X 124.4(3) . . ?
C00R C00K C00X 119.6(3) . . ?
C00Q C00L C00G 107.5(3) . . ?
C00W C00L C00G 120.7(3) . . ?
C00W C00L C00Q 131.7(3) . . ?
O009 C00M C00E 129.0(3) . . ?
O009 C00M C00O 123.9(3) . . ?
C00E C00M C00O 107.1(3) . . ?
C00D C00N C00V 119.5(3) . . ?
N00A C00O C00M 103.0(3) . . ?
N00B C00P C00H 113.4(3) . . ?
O00C C00Q C00L 128.8(4) . . ?
O00C C00Q C00U 124.2(3) . . ?
C00L C00Q C00U 107.0(3) . . ?
C00K C00R Cl02 119.1(3) . . ?
C00K C00R C00Z 121.1(3) . . ?
C00Z C00R Cl02 119.8(3) . . ?
C011 C00S C00J 119.4(4) . . ?
O004 C00T C00Y 105.7(3) . . ?
N00B C00U C00Q 103.6(3) . . ?
C011 C00V C00N 119.8(4) . . ?
O008 C00W C00L 120.2(3) . . ?
O008 C00W C014 115.6(3) . . ?
C00L C00W C014 124.2(3) . . ?
C00K C00X C010 120.0(4) . . ?
N00A C00Y C00T 112.7(3) . . ?
C012 C00Z C00R 119.0(4) . . ?
C012 C010 C00X 119.2(4) . . ?
C00V C011 C00S 121.1(3) . . ?
C00Z C012 C010 121.1(4) . . ?
loop_
_geom_bond_atom_site_label_1
_geom_bond_atom_site_label_2
_geom_bond_distance
_geom_bond_site_symmetry_2
_geom_bond_publ_flag
Cl01 C00J 1.726(4) . ?
Cl02 C00R 1.731(4) . ?
O003 C00D 1.367(4) . ?
O003 C00H 1.442(4) . ?
O004 C00K 1.361(4) . ?
O004 C00T 1.444(4) . ?
O005 C00G 1.233(4) . ?
O006 C00F 1.252(4) . ?
O007 C00I 1.334(4) . ?
O008 C00W 1.322(4) . ?
O009 C00M 1.222(4) . ?
N00A C00F 1.330(4) . ?
N00A C00O 1.479(4) . ?
N00A C00Y 1.454(4) . ?
N00B C00G 1.348(4) . ?
N00B C00P 1.459(4) . ?
N00B C00U 1.453(4) . ?
O00C C00Q 1.230(4) . ?
C00D C00J 1.408(4) . ?
C00D C00N 1.378(5) . ?
C00E C00F 1.448(5) . ?
C00E C00I 1.350(5) . ?
C00E C00M 1.454(4) . ?
C00G C00L 1.461(4) . ?
C00H C00P 1.514(5) . ?
C00I C013 1.479(5) . ?
C00J C00S 1.384(5) . ?
C00K C00R 1.384(5) . ?
C00K C00X 1.384(5) . ?
C00L C00Q 1.452(5) . ?
C00L C00W 1.354(5) . ?
C00M C00O 1.518(5) . ?
C00N C00V 1.403(5) . ?
C00Q C00U 1.518(5) . ?
C00R C00Z 1.403(5) . ?
C00S C011 1.381(6) . ?
C00T C00Y 1.519(5) . ?
C00V C011 1.379(6) . ?
C00W C014 1.488(5) . ?
C00X C010 1.410(5) . ?
C00Z C012 1.372(6) . ?
C010 C012 1.397(6) . ?
