#------------------------------------------------------------------------------
#$Date: 2021-09-06 15:01:07 +0300 (Mon, 06 Sep 2021) $
#$Revision: 268857 $
#$URL: file:///home/coder/svn-repositories/cod/cif/7/06/07/7060767.cif $
#------------------------------------------------------------------------------
#
# This file is available in the Crystallography Open Database (COD),
# http://www.crystallography.net/
#
# All data on this site have been placed in the public domain by the
# contributors.
#
data_7060767
loop_
_publ_author_name
'Ol'shevskaya, Valentina A.'
'Alpatova, Victoria M.'
'Makarenkov, Anton V.'
'Kononova, Elena G.'
'Smol&#x2019;yakov, Alexander F.'
'Peregudov, Alexander S.'
'Rys, Evgeny G.'
_publ_section_title
;
 Synthesis of maleimide-functionalized carboranes and their utility in
 Michael addition reactions
;
_journal_issue                   27
_journal_name_full               'New Journal of Chemistry'
_journal_page_first              12159
_journal_page_last               12167
_journal_paper_doi               10.1039/D1NJ02499J
_journal_volume                  45
_journal_year                    2021
_chemical_absolute_configuration unk
_chemical_formula_moiety         'C8 H23 B20 N O2 S'
_chemical_formula_sum            'C8 H23 B20 N O2 S'
_chemical_formula_weight         413.828
_space_group_crystal_system      triclinic
_space_group_IT_number           1
_space_group_name_Hall           'P 1'
_space_group_name_H-M_alt        'P 1'
_symmetry_Int_Tables_number      1
_audit_creation_date             2021-06-09
_audit_creation_method
;
Olex2 1.5-dev
(compiled 2021.06.01 svn.r985b505f for OlexSys, GUI svn.r6225)
;
_audit_update_record
;
2021-06-10 deposited with the CCDC.	2021-06-18 downloaded from the CCDC.
;
_cell_angle_alpha                105.946(4)
_cell_angle_beta                 91.131(4)
_cell_angle_gamma                95.610(4)
_cell_formula_units_Z            1
_cell_length_a                   6.9661(17)
_cell_length_b                   7.0272(17)
_cell_length_c                   11.414(3)
_cell_measurement_reflns_used    1824
_cell_measurement_temperature    120
_cell_measurement_theta_max      29.43
_cell_measurement_theta_min      2.94
_cell_volume                     534.0(2)
_computing_cell_refinement       'SAINT v8.34A (Bruker, 2013)'
_computing_data_reduction        'SAINT v8.34A (Bruker, 2013)'
_computing_molecular_graphics    'Olex2 1.5-dev (Dolomanov et al., 2009)'
_computing_publication_material  'Olex2 1.5-dev (Dolomanov et al., 2009)'
_computing_structure_refinement  'olex2.refine 1.5-dev (Bourhis et al., 2015)'
_computing_structure_solution    'ShelXT (Sheldrick, 2015)'
_diffrn_ambient_temperature      120.00
_diffrn_detector_area_resol_mean 8
_diffrn_measured_fraction_theta_full 0.9969
_diffrn_measured_fraction_theta_max 0.9972
_diffrn_measurement_device_type  'Bruker APEX-II CCD'
_diffrn_measurement_method       '\f and \w scans'
_diffrn_radiation_type           'Mo K\a'
_diffrn_radiation_wavelength     0.71073
_diffrn_reflns_av_R_equivalents  0.0250
_diffrn_reflns_av_unetI/netI     0.0795
_diffrn_reflns_Laue_measured_fraction_full 0.9969
_diffrn_reflns_Laue_measured_fraction_max 0.9972
_diffrn_reflns_limit_h_max       9
_diffrn_reflns_limit_h_min       -9
_diffrn_reflns_limit_k_max       9
_diffrn_reflns_limit_k_min       -9
_diffrn_reflns_limit_l_max       15
_diffrn_reflns_limit_l_min       -15
_diffrn_reflns_number            6236
_diffrn_reflns_point_group_measured_fraction_full 0.9553
_diffrn_reflns_point_group_measured_fraction_max 0.9550
_diffrn_reflns_theta_full        25.2417
_diffrn_reflns_theta_max         25.99
_diffrn_reflns_theta_min         1.86
_exptl_absorpt_coefficient_mu    0.160
_exptl_absorpt_correction_T_max  0.7459
_exptl_absorpt_correction_T_min  0.6145
_exptl_absorpt_correction_type   multi-scan
_exptl_absorpt_process_details
'SADABS-2008/1 (Bruker,2008) was used for absorption correction. wR2(int) was 0.0588 before and 0.0451 after correction. The Ratio of minimum to maximum transmission is 0.8238. The \l/2 correction factor is 0.0015.'
_exptl_crystal_colour            colourless
_exptl_crystal_colour_primary    colourless
_exptl_crystal_density_diffrn    1.287
_exptl_crystal_description       plate
_exptl_crystal_F_000             210.168
_exptl_crystal_size_max          0.28
_exptl_crystal_size_mid          0.14
_exptl_crystal_size_min          0.05
_refine_diff_density_max         0.3043
_refine_diff_density_min         -0.2585
_refine_diff_density_rms         0.0573
_refine_ls_abs_structure_details
'Hooft, R.W.W., Straver, L.H., Spek, A.L. (2010). J. Appl. Cryst., 43, 665-668.'
_refine_ls_abs_structure_Flack   -0.01(6)
_refine_ls_d_res_high            0.8109
_refine_ls_d_res_low             10.9614
_refine_ls_goodness_of_fit_ref   1.0748
_refine_ls_hydrogen_treatment    mixed
_refine_ls_matrix_type           full
_refine_ls_number_constraints    45
_refine_ls_number_parameters     401
_refine_ls_number_reflns         4032
_refine_ls_number_restraints     316
_refine_ls_restrained_S_all      1.0313
_refine_ls_R_factor_all          0.0576
_refine_ls_R_factor_gt           0.0470
_refine_ls_shift/su_max          -0.0005
_refine_ls_shift/su_mean         0.0000
_refine_ls_structure_factor_coef Fsqd
_refine_ls_weighting_details
'w=1/[\s^2^(Fo^2^)+(0.0657P)^2^] where P=(Fo^2^+2Fc^2^)/3'
_refine_ls_weighting_scheme      calc
_refine_ls_wR_factor_gt          0.1136
_refine_ls_wR_factor_ref         0.1200
_reflns_Friedel_coverage         0.913
_reflns_limit_h_max              8
_reflns_limit_h_min              -8
_reflns_limit_k_max              8
_reflns_limit_k_min              -8
_reflns_limit_l_max              14
_reflns_limit_l_min              -14
_reflns_number_gt                3552
_reflns_number_total             4032
_reflns_threshold_expression     I>=2u(I)
_iucr_refine_instructions_details
;
TITL a_a.res in P1
REM Old TITL a in P1
REM SHELXT solution in P1
REM R1 0.109, Rweak 0.043, Alpha 0.000, Orientation as input
REM Flack x = 0.031 ( 0.053 ) from Parsons' quotients
REM Formula found by SHELXT: C6 B22 N O2 S
CELL 0.71073 6.9661 7.0272 11.4136 105.946 91.131 95.61
ZERR 1 0.0017 0.0017 0.0027 0.004 0.004 0.004
LATT -1
SFAC C H B N O S
UNIT 8 23 20 1 2 1
SADI S1R C3 S1S C3A
SADI 0.04 B9B H10B B9C H10C
SADI S1R B9B S1S B9C
SADI 0.04 H4B B8B H4C B8C
SADI O6 C2 O6A C1
SADI 0.04 B7B B10B C7C B10C
SADI O7 C5 O7A C5A
SADI 0.04 C3B H8B B3C H8C
SADI N1 C2 N1A C1
SADI 0.04 C6B H10B B6C H10C
SADI N1 C5 N1A C5A
SADI 0.04 H11B B12B H11C B12C
SADI N1 B3A N1A B3A
SADI 0.04 H7B B8B H7C B8C
SADI B1B H1B C1C H1C
SADI 0.04 H2B C3B H2C B3C
SADI 0.04 B4B H5B B4C H5C
SADI 0.04 B5B B11B B5C B11C
SADI 0.04 B8B B10B B8C B10C
SADI 0.04 B10B H12B B10C H12C
SADI 0.04 B7B C6B C7C B6C
SADI C2 C3 C1 C3A
SADI 0.04 B7B H12B C7C H12C
SADI C3 C4 C3A C4A
SADI C4 C5 C4A C5A
SADI 0.04 C3B H4B B3C H4C
SADI B7B H7B C7C H7C
SADI 0.04 B5B B8B B5C B8C
SADI 0.04 H5B B9B H5C B9C
SADI 0.04 B7B H3B C7C H3C
SADI B2B H2B B2C H2C
SADI 0.04 B7B H8B C7C H8C
SADI B2B C3B B2C B3C
SADI 0.04 B7B H11B C7C H11C
SADI B2B C6B B2C B6C
SADI 0.04 H7B B2B H7C B2C
SADI B2B B11B B2C B11C
SADI 0.04 H7B B12B H7C B12C
SADI C3B H3B B3C H3C
SADI 0.04 B2B B4B B2C B4C
SADI 0.04 B2B B8B B2C B8C
SADI 0.04 B2B B12B B2C B12C
SADI B4B H4B B4C H4C
SADI 0.04 H2B B11B H2C B11C
SADI 0.04 C3B C6B B3C B6C
SADI 0.04 C3B B11B B3C B11C
SADI B4B B9B B4C B9C
SADI 0.04 H3B B8B H3C B8C
SADI B5B H5B B5C H5C
SADI 0.04 B4B B8B B4C B8C
SADI 0.04 B4B B12B B4C B12C
SADI 0.04 B5B C6B B5C B6C
SADI 0.04 B5B B10B B5C B10C
SADI C6B H6B B6C H6C
SADI 0.04 C6B B9B B6C B9C
SADI 0.04 C6B H11B B6C H11C
SADI B8B H8B B8C H8C
SADI 0.04 H6B B11B H6C B11C
SADI B8B B12B B8C B12C
SADI 0.04 H8B B12B H8C B12C
SADI B9B B12B B9C B12C
SADI 0.04 B10B H11B B10C H11C
SADI B10B H10B B10C H10C
SADI 0.04 H10B B11B H10C B11C
SADI 0.04 B11B H12B B11C H12C
SADI 0.04 B7B B4B C7C B4C
SADI B11B H11B B11C H11C
SADI 0.04 B7B B8B C7C B8C
SADI 0.04 B7B B9B C7C B9C
SADI 0.04 B7B B11B C7C B11C
SADI B12B H12B B12C H12C
SADI 0.04 B7B B12B C7C B12C
SADI 0.04 S1R C2 S1S C1
SADI 0.04 H7B C3B H7C B3C
SADI 0.04 S1R C4 S1S C4A
SADI 0.04 H7B B11B H7C B11C
SADI 0.04 S1R B4B S1S B4C
SADI 0.04 S1R B5B S1S B5C
SADI 0.04 B2B H3B B2C H3C
SADI 0.04 S1R B8B S1S B8C
SADI 0.04 B2B B5B B2C B5C
SADI 0.04 S1R B10B S1S B10C
SADI 0.04 B2B H6B B2C H6C
SADI 0.04 S1R B12B S1S B12C
SADI 0.04 B2B B10B B2C B10C
SADI 0.04 O6 N1 O6A N1A
SADI 0.04 B2B H11B B2C H11C
SADI 0.04 O6 C3 O6A C3A
SADI 0.04 O7 N1 O7A N1A
SADI 0.04 H2B C6B H2C B6C
SADI 0.04 O7 C4 O7A C4A
SADI 0.04 C3B B4B B3C B4C
SADI 0.04 N1 C3 N1A C3A
SADI 0.04 C3B B5B B3C B5C
SADI 0.04 N1 C4 N1A C4A
SADI 0.04 C3B B8B B3C B8C
SADI 0.04 B1B B7B C1C C7C
SADI 0.04 C3B B9B B3C B9C
SADI 0.04 B1B B2B C1C B2C
SADI 0.04 C3B B12B B3C B12C
SADI 0.04 B1B H2B C1C H2C
SADI 0.04 H3B B4B H3C B4C
SADI 0.04 B1B C3B C1C B3C
SADI 0.04 B4B B5B B4C B5C
SADI 0.04 B1B H3B C1C H3C
SADI 0.04 B4B C6B B4C B6C
SADI 0.04 B1B B4B C1C B4C
SADI 0.04 B4B H8B B4C H8C
SADI 0.04 B1B H4B C1C H4C
SADI 0.04 B4B B10B B4C B10C
SADI 0.04 B1B B5B C1C B5C
SADI 0.04 H4B B5B H4C B5C
SADI 0.04 B1B H5B C1C H5C
SADI 0.04 H4B B9B H4C B9C
SADI 0.04 B1B C6B C1C B6C
SADI 0.04 B5B H6B B5C H6C
SADI 0.04 B1B H6B C1C H6C
SADI 0.04 B5B B9B B5C B9C
SADI 0.04 B1B B8B C1C B8C
SADI 0.04 B5B H10B B5C H10C
SADI 0.04 B1B B9B C1C B9C
SADI 0.04 B5B B12B B5C B12C
SADI 0.04 B1B B10B C1C B10C
SADI 0.04 H5B C6B H5C B6C
SADI 0.04 B1B B11B C1C B11C
SADI 0.04 H5B B10B H5C B10C
SADI 0.04 H1B B2B H1C B2C
SADI 0.04 C6B B10B B6C B10C
SADI 0.04 H1B C3B H1C B3C
SADI 0.04 C6B B11B B6C B11C
SADI 0.04 H1B B4B H1C B4C
SADI 0.04 C6B B12B B6C B12C
SADI 0.04 H1B B5B H1C B5C
SADI 0.04 H6B B10B H6C B10C
SADI 0.04 H1B C6B H1C B6C
SADI 0.04 B8B B9B B8C B9C
SADI 0.04 C2 C4 C1 C4A
SADI 0.04 B8B B11B B8C B11C
SADI 0.04 C2 C5 C1 C5A
SADI 0.04 B8B H12B B8C H12C
SADI 0.04 C2 B3A C1 B3A
SADI 0.04 H8B B9B H8C B9C
SADI 0.04 B9B B10B B9C B10C
SADI 0.04 C3 C5 C3A C5A
SADI 0.04 B9B B11B B9C B11C
SADI 0.04 C3 B9B C3A B9C
SADI 0.04 B9B H12B B9C H12C
SADI 0.04 B10B B11B B10C B11C
SADI 0.04 B10B B12B B10C B12C
SADI 0.04 H10B B12B H10C B12C
SADI 0.04 C5 B3A C5A B3A
SADI 0.04 B11B B12B B11C B12C
SADI 0.04 B7B B2B C7C B2C
SADI 0.04 B7B H2B C7C H2C
SADI 0.04 B7B C3B C7C B3C
EADP B8A C8A
EADP B4A C6
EADP C2A B2A
EADP C1A B1A
EXYZ C2A B2A
EXYZ C1A B1A
EXYZ B4A C6
EXYZ B8A C8A

L.S. 24 0 0
PLAN  5
SIZE 0.28 0.14 0.05
TEMP -153.15
CONF
BOND $H
list 4
fmap 2 53
acta 
OMIT -2 52
WGHT 0.065681 0
FVAR 1.271447 0.8817
REM <olex2.extras>
REM <HklSrc "%.\\a_CCDC1.hkl">
REM </olex2.extras>

PART 1
S1R   6     0.39983  0.60851  0.33120  21.00000  0.01776  0.01979  0.02219 =
 0.01045 -0.00190 -0.00449 
O6    5     0.17922  0.38088  0.48671  21.00000  0.01757  0.01734  0.02555 =
 0.00567 -0.00408 -0.00398 
O7    5     0.75746  0.49789  0.70323  21.00000  0.02004  0.03193  0.03245 =
 0.01752 -0.00629 -0.00246 
N1    4     0.44169  0.41151  0.62062  21.00000  0.01440  0.01532  0.02091 =
 0.00585  0.00022 -0.00045 
PART 2
C1A   1     0.40834  0.03770  0.67566 -21.00000  0.02210  0.01543  0.02911 =
 0.00622  0.00689  0.00543 
AFIX 153
H1A   2     0.51363 -0.03079  0.60792 -21.00000 -1.20000 
AFIX 0
PART 1
B1B   3     0.68830  1.09003  0.18237  21.00000  0.02386  0.01599  0.02417 =
 0.00854 -0.00007 -0.00101 
AFIX 153
H1B   2     0.63625  1.21772  0.15444  21.00000  10.03000 
AFIX 0
C2    1     0.34595  0.43783  0.51990  21.00000  0.02122  0.00904  0.01530 =
 -0.00047  0.00130  0.00281 
PART 2
C2A   1     0.48452  0.21883  0.81694 -21.00000  0.02100  0.01885  0.02469 =
 0.00839  0.00052  0.00103 
AFIX 153
H2A   2     0.64053  0.26975  0.84397 -21.00000 -1.20000 
AFIX 0
PART 1
C3    1     0.49002  0.55035  0.45844  21.00000  0.01939  0.01312  0.01949 =
 0.00464  0.00681  0.00596 
C4    1     0.65873  0.57975  0.52127  21.00000  0.01770  0.01532  0.02461 =
 0.00615  0.00355  0.00183 
AFIX 43
H4    2     0.77467  0.64444  0.50139  21.00000  10.03000 
AFIX 0
C5    1     0.63832  0.49723  0.62561  21.00000  0.01280  0.01352  0.03331 =
 0.00911 -0.00157 -0.00030 
B7B   3     0.99643  0.93466  0.28652  21.00000  0.01594  0.01553  0.02067 =
 0.00457  0.00025 -0.00063 
AFIX 153
H7B   2     1.14638  0.96110  0.32912  21.00000  10.03000 
AFIX 0
B2B   3     0.93348  1.03635  0.16719  21.00000  0.01991  0.01674  0.01977 =
 0.00482 -0.00032 -0.00277 
AFIX 153
H2B   2     1.04243  1.12865  0.12930  21.00000  10.03000 
AFIX 0
PART 0
B3A   3     0.36395  0.29080  0.70021  11.00000  0.01703  0.01571  0.02077 =
 0.00397  0.00272  0.00216 
PART 1
C3B   1     0.83570  1.10974  0.30411  21.00000  0.01812  0.01242  0.01880 =
 0.00325  0.00026 -0.00022 
AFIX 153
H3B   2     0.88501  1.26384  0.36224  21.00000  10.03000 
AFIX 0
PART 2
B4A   3     0.18877  0.09532  0.63893 -21.00000  0.01908  0.01429  0.01563 =
 0.00183  0.00238  0.00145 
AFIX 153
H4A   2     0.14555  0.06469  0.53992 -21.00000 -1.20000 
AFIX 0
PART 1
B4B   3     0.60086  1.02195  0.30956  21.00000  0.01339  0.01524  0.02401 =
 0.00682  0.00085  0.00109 
AFIX 153
H4B   2     0.49152  1.10562  0.36728  21.00000  10.03000 
AFIX 0
PART 0
B5A   3     0.19151 -0.10205  0.69777  11.00000  0.02563  0.01448  0.02497 =
 0.00557  0.00575 -0.00082 
AFIX 153
H5A   2     0.15170 -0.23981  0.64034  11.00000  10.03000 
AFIX 0
PART 1
B5B   3     0.53977  0.86134  0.16138  21.00000  0.01964  0.02403  0.01585 =
 0.00914 -0.00206 -0.00191 
AFIX 153
H5B   2     0.39006  0.83593  0.11850  21.00000  10.03000 
AFIX 0
PART 0
B6A   3     0.37665 -0.02435  0.81483  11.00000  0.02177  0.02230  0.03035 =
 0.01411  0.00214  0.00213 
AFIX 153
H6A   2     0.45694 -0.14275  0.83840  11.00000  10.03000 
AFIX 0
PART 1
C6B   1     0.74862  0.87543  0.08598  21.00000  0.02712  0.01932  0.01617 =
 0.00589  0.00260 -0.00509 
AFIX 153
H6B   2     0.73444  0.85957 -0.01426  21.00000  10.03000 
AFIX 0
PART 0
B7A   3     0.29971  0.38364  0.85507  11.00000  0.01949  0.01958  0.01686 =
 0.00263  0.00215 -0.00083 
AFIX 153
H7A   2     0.32760  0.54714  0.89770  11.00000  10.03000 
AFIX 0
PART 2
B8A   3     0.12766  0.29422  0.74141 -21.00000  0.01672  0.01768  0.01928 =
 0.00436  0.00272  0.00409 
AFIX 153
H8A   2     0.04228  0.40398  0.71461 -21.00000  10.03000 
AFIX 0
PART 1
B8B   3     0.79029  0.92740  0.37509  21.00000  0.01972  0.01338  0.01972 =
 0.00534  0.00323 -0.00134 
AFIX 153
H8B   2     0.80513  0.94959  0.47597  21.00000  10.03000 
AFIX 0
PART 0
B9A   3     0.00970  0.06364  0.73521  11.00000  0.02052  0.02313  0.01940 =
 0.00676  0.00041  0.00259 
AFIX 153
H9A   2    -0.12996  0.02769  0.69593  11.00000  10.03000 
AFIX 0
PART 1
B9B   3     0.60342  0.75936  0.28142  21.00000  0.01646  0.01195  0.01812 =
 0.00519  0.00284  0.00319 
PART 0
B10A  3     0.12854 -0.00929  0.85139  11.00000  0.02160  0.02045  0.02544 =
 0.01000  0.00112 -0.00272 
AFIX 153
H10A  2     0.05132 -0.10834  0.90126  11.00000  10.03000 
AFIX 0
PART 1
B10B  3     0.69424  0.66861  0.13476  21.00000  0.01806  0.01864  0.01618 =
 0.00315  0.00107 -0.00138 
AFIX 153
H10B  2     0.64462  0.51650  0.07394  21.00000  10.03000 
AFIX 0
PART 0
B11A  3     0.30893  0.18868  0.92486  11.00000  0.01935  0.02531  0.01886 =
 0.00719  0.00105  0.00000 
AFIX 153
H11A  2     0.36317  0.22611  1.02601  11.00000  10.03000 
AFIX 0
PART 1
B11B  3     0.93717  0.77462  0.13732  21.00000  0.02024  0.02131  0.01822 =
 0.00490  0.00302 -0.00284 
AFIX 153
H11B  2     1.04653  0.69295  0.07850  21.00000  10.03000 
AFIX 0
PART 0
B12A  3     0.08299  0.24227  0.87647  11.00000  0.02086  0.02135  0.01899 =
 0.00437  0.00332 -0.00081 
AFIX 153
H12A  2    -0.02989  0.30650  0.92732  11.00000  10.03000 
AFIX 0
PART 1
B12B  3     0.85011  0.70598  0.26646  21.00000  0.01968  0.01307  0.02108 =
 0.00362 -0.00201  0.00015 
AFIX 153
H12B  2     0.90363  0.57917  0.29464  21.00000  10.03000 
AFIX 0
PART 2
S1S   6     0.81590  0.66035  0.44797 -21.00000  10.03050  10.02904 =
 10.03606  10.01418  10.00405  10.00265 
O6A   5     0.73834  0.45768  0.65118 -21.00000  10.03000 
O7A   5     0.12142  0.37783  0.48764 -21.00000  10.03000 
N1A   4     0.40435  0.41034  0.60836 -21.00000  10.03000 
C1C   1     0.95128  0.90337  0.13718 -21.00000  10.03000 
H1C   2     1.08561  0.89630  0.07732 -21.00000  10.03000 
C1    1     0.59477  0.47534  0.59541 -21.00000  10.03000 
C3A   1     0.59509  0.56283  0.48610 -21.00000  10.03000 
C4A   1     0.41297  0.54939  0.44357 -21.00000  10.03000 
AFIX 43
H4Aa  2     0.37210  0.60028  0.37932 -21.00000 -1.20000 
AFIX 0
C5A   1     0.28392  0.44228  0.51246 -21.00000  10.03000 
C7C   1     0.54562  0.88295  0.14059 -21.00000  10.03000 
H7C   2     0.40121  0.87900  0.09556 -21.00000  10.03000 
B2C   3     0.74848  1.01238  0.10793 -21.00000  10.03000 
B3C   3     0.73884  0.76854  0.07848 -21.00000  10.03000 
H3C   2     0.73203  0.66716 -0.01408 -21.00000  10.03000 
B4C   3     0.87690  0.69909  0.18271 -21.00000  10.03000 
H4C   2     0.94191  0.55362  0.14998 -21.00000  10.03000 
B5C   3     0.98433  0.91151  0.28834 -21.00000  10.03000 
H5C   2     1.12379  0.93500  0.34221 -21.00000  10.03000 
B6C   3     0.89910  1.10125  0.23565 -21.00000  10.03000 
H6C   2     0.98992  1.24434  0.25414 -21.00000  10.03000 
B8C   3     0.61495  0.68556  0.19273 -21.00000  10.03000 
H8C   2     0.53325  0.53503  0.17009 -21.00000  10.03000 
B9C   3     0.77176  0.78437  0.32408 -21.00000  10.03000 
B10C  3     0.79002  1.04145  0.36033 -21.00000  10.03000 
H10C  2     0.81697  1.14124  0.45656 -21.00000  10.03000 
B11C  3     0.65510  1.10361  0.25128 -21.00000  10.03000 
H11C  2     0.58380  1.24763  0.27334 -21.00000  10.03000 
B12C  3     0.56780  0.90562  0.30118 -21.00000  10.03000 
H12C  2     0.43659  0.91162  0.35987 -21.00000  10.03000 
H2C   2     0.75172  1.10056  0.03576 -21.00000  10.03000 
PART 1
B2A   3     0.48452  0.21883  0.81694  21.00000  0.02100  0.01885  0.02469 =
 0.00839  0.00052  0.00103 
AFIX 153
H2Aa  2     0.64053  0.26975  0.84397  21.00000 -1.20000 
AFIX 0
B1A   3     0.40834  0.03770  0.67566  21.00000  0.02210  0.01543  0.02911 =
 0.00622  0.00689  0.00543 
AFIX 153
H1Aa  2     0.51363 -0.03079  0.60792  21.00000 -1.20000 
AFIX 0
C6    1     0.18877  0.09532  0.63893  21.00000  0.01908  0.01429  0.01563 =
 0.00183  0.00238  0.00145 
AFIX 153
H6    2     0.14555  0.06469  0.53992  21.00000 -1.20000 
AFIX 0
C8A   1     0.12766  0.29422  0.74141  21.00000  0.01672  0.01768  0.01928 =
 0.00436  0.00272  0.00409 
AFIX 153
H8Aa  2     0.04228  0.40398  0.71461  21.00000 -1.20000 
AFIX 0
HKLF 4

END
Q2 1 0.541667 0.5 0.333333 11 0.05 0.26
Q5 1 0.708333 0.666667 0.222222 11 0.05 0.22
Q1 1 0.291667 0.708333 0.361111 11 0.05 0.3
Q3 1 0.916667 0.791667 0.222222 11 0.05 0.24
Q4 1 0.916667 1 0.305556 11 0.05 0.23

  REM The information below was added by Olex2.
  REM
  REM R1 = 0.0470 for 3552 Fo > 4sig(Fo) and 0.0576 for all 4032 data
  REM 401 parameters refined using 316 restraints
  REM Highest difference peak 0.3043, deepest hole -0.2585
  REM Mean Shift 0.0000, Max Shift -0.0005.

  REM +++ Tabular Listing of Refinement Information +++
  REM R1_all = 0.0576
  REM R1_gt = 0.0470
  REM wR_ref = 0.1200
  REM GOOF = 1.0748
  REM Shift_max = -0.0005
  REM Shift_mean = 0.0000
  REM Reflections_all = 4032
  REM Reflections_gt = 3552
  REM Parameters = 401
  REM Hole = -0.2585
  REM Peak = 0.3043
  REM Flack = -0.01(6)

  
;
_cod_data_source_file            d1nj02499j2.cif
_cod_data_source_block           4
_cod_depositor_comments
'Adding full bibliography for 7060766--7060768.cif.'
_cod_original_sg_symbol_Hall     ' P 1'
_cod_database_code               7060767
_olex2_refinement_description
;
1. Fixed Uiso
 At 1.2 times of:
  All B(H) groups, All C(H) groups
2. Shared sites
{C2A, B2A}
{C1A, B1A}
{B4A, C6}
{B8A, C8A}
3. Restrained distances
 S1R-C3 \\sim S1S-C3A
 with sigma of 0.02
 B9B-H10B \\sim B9C-H10C
 with sigma of 0.04
 S1R-B9B \\sim S1S-B9C
 with sigma of 0.02
 H4B-B8B \\sim H4C-B8C
 with sigma of 0.04
 O6-C2 \\sim O6A-C1
 with sigma of 0.02
 B7B-B10B \\sim C7C-B10C
 with sigma of 0.04
 O7-C5 \\sim O7A-C5A
 with sigma of 0.02
 C3B-H8B \\sim B3C-H8C
 with sigma of 0.04
 N1-C2 \\sim N1A-C1
 with sigma of 0.02
 C6B-H10B \\sim B6C-H10C
 with sigma of 0.04
 N1-C5 \\sim N1A-C5A
 with sigma of 0.02
 H11B-B12B \\sim H11C-B12C
 with sigma of 0.04
 N1-B3A \\sim N1A-B3A
 with sigma of 0.02
 H7B-B8B \\sim H7C-B8C
 with sigma of 0.04
 B1B-H1B \\sim C1C-H1C
 with sigma of 0.02
 H2B-C3B \\sim H2C-B3C
 with sigma of 0.04
 B4B-H5B \\sim B4C-H5C
 with sigma of 0.04
 B5B-B11B \\sim B5C-B11C
 with sigma of 0.04
 B8B-B10B \\sim B8C-B10C
 with sigma of 0.04
 B10B-H12B \\sim B10C-H12C
 with sigma of 0.04
 B7B-C6B \\sim C7C-B6C
 with sigma of 0.04
 C2-C3 \\sim C1-C3A
 with sigma of 0.02
 B7B-H12B \\sim C7C-H12C
 with sigma of 0.04
 C3-C4 \\sim C3A-C4A
 with sigma of 0.02
 C4-H4
 with sigma of 0.02
 C4-C5 \\sim C4A-C5A
 with sigma of 0.02
 C3B-H4B \\sim B3C-H4C
 with sigma of 0.04
 B7B-H7B \\sim C7C-H7C
 with sigma of 0.02
 B5B-B8B \\sim B5C-B8C
 with sigma of 0.04
 H5B-B9B \\sim H5C-B9C
 with sigma of 0.04
 B7B-H3B \\sim C7C-H3C
 with sigma of 0.04
 B2B-H2B \\sim B2C-H2C
 with sigma of 0.02
 B7B-H8B \\sim C7C-H8C
 with sigma of 0.04
 B2B-C3B \\sim B2C-B3C
 with sigma of 0.02
 B7B-H11B \\sim C7C-H11C
 with sigma of 0.04
 B2B-C6B \\sim B2C-B6C
 with sigma of 0.02
 H7B-B2B \\sim H7C-B2C
 with sigma of 0.04
 B2B-B11B \\sim B2C-B11C
 with sigma of 0.02
 H7B-B12B \\sim H7C-B12C
 with sigma of 0.04
 C3B-H3B \\sim B3C-H3C
 with sigma of 0.02
 B2B-B4B \\sim B2C-B4C
 with sigma of 0.04
 B2B-B8B \\sim B2C-B8C
 with sigma of 0.04
 B2B-B12B \\sim B2C-B12C
 with sigma of 0.04
 B4B-H4B \\sim B4C-H4C
 with sigma of 0.02
 H2B-B11B \\sim H2C-B11C
 with sigma of 0.04
 C3B-C6B \\sim B3C-B6C
 with sigma of 0.04
 C3B-B11B \\sim B3C-B11C
 with sigma of 0.04
 B4B-B9B \\sim B4C-B9C
 with sigma of 0.02
 H3B-B8B \\sim H3C-B8C
 with sigma of 0.04
 B5B-H5B \\sim B5C-H5C
 with sigma of 0.02
 B4B-B8B \\sim B4C-B8C
 with sigma of 0.04
 B4B-B12B \\sim B4C-B12C
 with sigma of 0.04
 B5B-C6B \\sim B5C-B6C
 with sigma of 0.04
 B5B-B10B \\sim B5C-B10C
 with sigma of 0.04
 C6B-H6B \\sim B6C-H6C
 with sigma of 0.02
 C6B-B9B \\sim B6C-B9C
 with sigma of 0.04
 C6B-H11B \\sim B6C-H11C
 with sigma of 0.04
 B8B-H8B \\sim B8C-H8C
 with sigma of 0.02
 H6B-B11B \\sim H6C-B11C
 with sigma of 0.04
 B8B-B12B \\sim B8C-B12C
 with sigma of 0.02
 H8B-B12B \\sim H8C-B12C
 with sigma of 0.04
 B9B-B12B \\sim B9C-B12C
 with sigma of 0.02
 B10B-H11B \\sim B10C-H11C
 with sigma of 0.04
 B10B-H10B \\sim B10C-H10C
 with sigma of 0.02
 H10B-B11B \\sim H10C-B11C
 with sigma of 0.04
 B11B-H12B \\sim B11C-H12C
 with sigma of 0.04
 B7B-B4B \\sim C7C-B4C
 with sigma of 0.04
 B11B-H11B \\sim B11C-H11C
 with sigma of 0.02
 B7B-B8B \\sim C7C-B8C
 with sigma of 0.04
 B7B-B9B \\sim C7C-B9C
 with sigma of 0.04
 B7B-B11B \\sim C7C-B11C
 with sigma of 0.04
 B12B-H12B \\sim B12C-H12C
 with sigma of 0.02
 B7B-B12B \\sim C7C-B12C
 with sigma of 0.04
 S1R-C2 \\sim S1S-C1
 with sigma of 0.04
 H7B-C3B \\sim H7C-B3C
 with sigma of 0.04
 S1R-C4 \\sim S1S-C4A
 with sigma of 0.04
 H7B-B11B \\sim H7C-B11C
 with sigma of 0.04
 S1R-B4B \\sim S1S-B4C
 with sigma of 0.04
 S1R-B5B \\sim S1S-B5C
 with sigma of 0.04
 B2B-H3B \\sim B2C-H3C
 with sigma of 0.04
 S1R-B8B \\sim S1S-B8C
 with sigma of 0.04
 B2B-B5B \\sim B2C-B5C
 with sigma of 0.04
 S1R-B10B \\sim S1S-B10C
 with sigma of 0.04
 B2B-H6B \\sim B2C-H6C
 with sigma of 0.04
 S1R-B12B \\sim S1S-B12C
 with sigma of 0.04
 B2B-B10B \\sim B2C-B10C
 with sigma of 0.04
 O6-N1 \\sim O6A-N1A
 with sigma of 0.04
 B2B-H11B \\sim B2C-H11C
 with sigma of 0.04
 O6-C3 \\sim O6A-C3A
 with sigma of 0.04
 O7-N1 \\sim O7A-N1A
 with sigma of 0.04
 H2B-C6B \\sim H2C-B6C
 with sigma of 0.04
 O7-C4 \\sim O7A-C4A
 with sigma of 0.04
 C3B-B4B \\sim B3C-B4C
 with sigma of 0.04
 N1-C3 \\sim N1A-C3A
 with sigma of 0.04
 C3B-B5B \\sim B3C-B5C
 with sigma of 0.04
 N1-C4 \\sim N1A-C4A
 with sigma of 0.04
 C3B-B8B \\sim B3C-B8C
 with sigma of 0.04
 B1B-B7B \\sim C1C-C7C
 with sigma of 0.04
 C3B-B9B \\sim B3C-B9C
 with sigma of 0.04
 B1B-B2B \\sim C1C-B2C
 with sigma of 0.04
 C3B-B12B \\sim B3C-B12C
 with sigma of 0.04
 B1B-H2B \\sim C1C-H2C
 with sigma of 0.04
 H3B-B4B \\sim H3C-B4C
 with sigma of 0.04
 B1B-C3B \\sim C1C-B3C
 with sigma of 0.04
 B4B-B5B \\sim B4C-B5C
 with sigma of 0.04
 B1B-H3B \\sim C1C-H3C
 with sigma of 0.04
 B4B-C6B \\sim B4C-B6C
 with sigma of 0.04
 B1B-B4B \\sim C1C-B4C
 with sigma of 0.04
 B4B-H8B \\sim B4C-H8C
 with sigma of 0.04
 B1B-H4B \\sim C1C-H4C
 with sigma of 0.04
 B4B-B10B \\sim B4C-B10C
 with sigma of 0.04
 B1B-B5B \\sim C1C-B5C
 with sigma of 0.04
 H4B-B5B \\sim H4C-B5C
 with sigma of 0.04
 B1B-H5B \\sim C1C-H5C
 with sigma of 0.04
 H4B-B9B \\sim H4C-B9C
 with sigma of 0.04
 B1B-C6B \\sim C1C-B6C
 with sigma of 0.04
 B5B-H6B \\sim B5C-H6C
 with sigma of 0.04
 B1B-H6B \\sim C1C-H6C
 with sigma of 0.04
 B5B-B9B \\sim B5C-B9C
 with sigma of 0.04
 B1B-B8B \\sim C1C-B8C
 with sigma of 0.04
 B5B-H10B \\sim B5C-H10C
 with sigma of 0.04
 B1B-B9B \\sim C1C-B9C
 with sigma of 0.04
 B5B-B12B \\sim B5C-B12C
 with sigma of 0.04
 B1B-B10B \\sim C1C-B10C
 with sigma of 0.04
 H5B-C6B \\sim H5C-B6C
 with sigma of 0.04
 B1B-B11B \\sim C1C-B11C
 with sigma of 0.04
 H5B-B10B \\sim H5C-B10C
 with sigma of 0.04
 H1B-B2B \\sim H1C-B2C
 with sigma of 0.04
 C6B-B10B \\sim B6C-B10C
 with sigma of 0.04
 H1B-C3B \\sim H1C-B3C
 with sigma of 0.04
 C6B-B11B \\sim B6C-B11C
 with sigma of 0.04
 H1B-B4B \\sim H1C-B4C
 with sigma of 0.04
 C6B-B12B \\sim B6C-B12C
 with sigma of 0.04
 H1B-B5B \\sim H1C-B5C
 with sigma of 0.04
 H6B-B10B \\sim H6C-B10C
 with sigma of 0.04
 H1B-C6B \\sim H1C-B6C
 with sigma of 0.04
 B8B-B9B \\sim B8C-B9C
 with sigma of 0.04
 C2-C4 \\sim C1-C4A
 with sigma of 0.04
 B8B-B11B \\sim B8C-B11C
 with sigma of 0.04
 C2-C5 \\sim C1-C5A
 with sigma of 0.04
 B8B-H12B \\sim B8C-H12C
 with sigma of 0.04
 C2-B3A \\sim C1-B3A
 with sigma of 0.04
 H8B-B9B \\sim H8C-B9C
 with sigma of 0.04
 C3-H4
 with sigma of 0.04
 B9B-B10B \\sim B9C-B10C
 with sigma of 0.04
 C3-C5 \\sim C3A-C5A
 with sigma of 0.04
 B9B-B11B \\sim B9C-B11C
 with sigma of 0.04
 C3-B9B \\sim C3A-B9C
 with sigma of 0.04
 B9B-H12B \\sim B9C-H12C
 with sigma of 0.04
 B10B-B11B \\sim B10C-B11C
 with sigma of 0.04
 B10B-B12B \\sim B10C-B12C
 with sigma of 0.04
 H4-C5
 with sigma of 0.04
 H10B-B12B \\sim H10C-B12C
 with sigma of 0.04
 C5-B3A \\sim C5A-B3A
 with sigma of 0.04
 B11B-B12B \\sim B11C-B12C
 with sigma of 0.04
 B7B-B2B \\sim C7C-B2C
 with sigma of 0.04
 B7B-H2B \\sim C7C-H2C
 with sigma of 0.04
 B7B-C3B \\sim C7C-B3C
 with sigma of 0.04
4. Uiso/Uaniso restraints and constraints
Uanis(C2A) = Uanis(B2A)
Uanis(C1A) = Uanis(B1A)
Uanis(B4A) = Uanis(C6)
Uanis(B8A) = Uanis(C8A)
5. Others
 Sof(S1S)=Sof(O6A)=Sof(O7A)=Sof(N1A)=Sof(C1C)=Sof(H1C)=Sof(C1)=Sof(C3A)=
 Sof(C4A)=Sof(H4Aa)=Sof(C5A)=Sof(C7C)=Sof(H7C)=Sof(B2C)=Sof(B3C)=Sof(H3C)=
 Sof(B4C)=Sof(H4C)=Sof(B5C)=Sof(H5C)=Sof(B6C)=Sof(H6C)=Sof(B8C)=Sof(H8C)=
 Sof(B9C)=Sof(B10C)=Sof(H10C)=Sof(B11C)=Sof(H11C)=Sof(B12C)=Sof(H12C)=Sof(H2C)=
 Sof(H4Aa)=Sof(H2A)=Sof(C2A)=Sof(C1A)=Sof(B4A)=Sof(B8A)=Sof(H8A)=Sof(H1A)=
 Sof(H2A)=Sof(H4A)=1-FVAR(1)
 Sof(S1R)=Sof(O6)=Sof(O7)=Sof(N1)=Sof(B1B)=Sof(H1B)=Sof(C2)=Sof(C3)=Sof(C4)=
 Sof(H4)=Sof(C5)=Sof(B7B)=Sof(H7B)=Sof(B2B)=Sof(H2B)=Sof(C3B)=Sof(H3B)=Sof(B4B)=
 Sof(H4B)=Sof(B5B)=Sof(H5B)=Sof(C6B)=Sof(H6B)=Sof(B8B)=Sof(H8B)=Sof(B9B)=
 Sof(B10B)=Sof(H10B)=Sof(B11B)=Sof(H11B)=Sof(B12B)=Sof(H12B)=Sof(B2A)=Sof(B1A)=
 Sof(C6)=Sof(C8A)=Sof(H6)=Sof(H8Aa)=Sof(H2Aa)=Sof(H1Aa)=FVAR(1)
 Fixed U11: S1S(0.030528)
 Fixed U12: S1S(-0.001165)
 Fixed U13: S1S(0.001882)
 Fixed U22: S1S(0.025951)
 Fixed U23: S1S(0.004324)
 Fixed U33: S1S(0.036061)
 Fixed Uiso: H1A(0.03) H1B(0.03) H2A(0.03) H4(0.03) H7B(0.03) H2B(0.03)
 H3B(0.03) H4A(0.03) H4B(0.03) H5A(0.03) H5B(0.03) H6A(0.03) H6B(0.03)
 H7A(0.03) H8A(0.03) H8B(0.03) H9A(0.03) H10A(0.03) H10B(0.03) H11A(0.03)
 H11B(0.03) H12A(0.03) H12B(0.03) B4C(0.03) B9C(0.03) O6A(0.03) B6C(0.03)
 O7A(0.03) H11C(0.03) N1A(0.03) B5C(0.03) C1C(0.03) B8C(0.03) H1C(0.03)
 H10C(0.03) C1(0.03) H12C(0.03) C3A(0.03) H4C(0.03) C4A(0.03) H5C(0.03)
 H4Aa(0.03) H6C(0.03) C5A(0.03) H8C(0.03) C7C(0.03) B10C(0.03) H7C(0.03)
 B11C(0.03) B2C(0.03) B12C(0.03) B3C(0.03) H2C(0.03) H3C(0.03)
6.a Aromatic/amide H refined with riding coordinates:
 C4(H4), C4A(H4Aa)
6.b Boron cage BH refined with riding coordinates:
 B1B(H1B), B7B(H7B), B2B(H2B), C3B(H3B), B4B(H4B), B5A(H5A), B5B(H5B),
 B6A(H6A), C6B(H6B), B7A(H7A), B8A(H8A), B8B(H8B), B9A(H9A), B10A(H10A),
 B10B(H10B), B11A(H11A), B11B(H11B), B12A(H12A), B12B(H12B), C1A(H1A), C2A(H2A),
  C6(H6), C8A(H8Aa), B4A(H4A), B2A(H2Aa), B1A(H1Aa)
;
_iucr_refine_fcf_details
;
data_a_CCDC1
_computing_structure_refinement   'olex2.refine 1.5-dev (Bourhis et al., 2015)'
_shelx_refln_list_code            4
loop_
  _space_group_symop_id
  _space_group_symop_operation_xyz
  1  x,y,z

_space_group_crystal_system       triclinic
_space_group_IT_number            1
_space_group_name_H-M_alt         'P 1'
_space_group_name_Hall            ' P 1'
_symmetry_space_group_name_H-M    'P 1'
_symmetry_space_group_name_Hall   ' P 1'
_symmetry_Int_Tables_number       1
_cell_length_a                    6.9661(17)
_cell_length_b                    7.0272(17)
_cell_length_c                    11.414(3)
_cell_angle_alpha                 105.946(4)
_cell_angle_beta                  91.131(4)
_cell_angle_gamma                 95.610(4)
_cell_volume                      534.0(2)
loop_
  _refln_index_h
  _refln_index_k
  _refln_index_l
  _refln_F_squared_calc
  _refln_F_squared_meas
  _refln_F_squared_sigma
  _refln_F_squared_weight
  _refln_observed_status
-8 -2 0 23.391 15.465 5.938 64.607 o
-8 -2 1 4.320 -3.959 4.825 102.862 o
-8 -2 2 2.426 -2.351 4.578 114.396 o
-8 -2 3 24.784 30.923 6.557 52.025 o
-8 -1 -2 49.806 56.409 7.980 31.832 o
-8 -1 -1 31.528 34.140 7.052 44.203 o
-8 -1 0 19.972 29.383 6.371 55.907 o
-8 -1 1 21.716 15.836 5.753 68.960 o
-8 -1 2 69.404 75.091 8.722 24.472 o
-8 -1 3 40.625 30.985 6.743 46.569 o
-8 -1 4 114.475 130.943 10.640 13.682 o
-8 -1 5 21.402 22.455 6.186 59.503 o
-8 0 -4 34.363 28.331 6.557 50.481 o
-8 0 -3 30.639 42.305 7.114 43.021 o
-8 0 -2 35.118 37.666 6.866 45.486 o
-8 0 -1 23.238 26.909 6.186 58.716 o
-8 0 0 9.838 8.351 5.258 85.585 o
-8 0 1 1.425 0.062 4.763 105.694 o
-8 0 2 39.203 30.373 6.495 50.113 o
-8 0 3 38.894 39.769 7.114 41.907 o
-8 0 4 100.613 91.793 9.464 18.346 o
-8 0 5 39.572 36.367 6.866 44.794 o
-8 1 -4 50.670 51.399 7.485 35.687 o
-8 1 -3 12.370 21.465 6.310 58.734 o
-8 1 -2 7.993 9.774 5.505 78.306 o
-8 1 -1 11.121 6.248 5.196 87.567 o
-8 1 0 17.485 9.897 5.320 81.951 o
-8 1 1 13.606 12.681 5.444 78.905 o
-8 1 2 24.011 23.321 6.186 58.921 o
-8 1 3 60.460 48.615 7.423 34.820 o
-8 1 4 18.422 3.835 4.701 104.754 o
-8 1 5 32.993 37.295 6.743 47.421 o
-8 2 -4 1.879 -6.062 3.773 168.362 o
-8 2 -3 13.151 4.021 4.392 121.558 o
-8 2 -2 32.766 26.723 6.495 51.837 o
-8 2 -1 4.515 1.670 4.578 114.159 o
-8 2 0 35.702 33.274 6.681 48.078 o
-8 2 1 15.145 15.217 5.320 81.873 o
-8 2 2 9.684 2.660 4.578 113.202 o
-8 2 3 4.820 0.495 4.454 120.606 o
-8 2 4 15.272 8.227 4.887 97.487 o
-8 3 -4 34.425 36.120 6.619 48.855 o
-8 3 -3 10.661 14.042 5.258 84.909 o
-8 3 -2 2.483 0.000 4.206 135.457 o
-8 3 -1 124.438 115.912 9.464 15.639 o
-8 3 0 57.311 50.780 7.238 36.619 o
-8 3 1 45.581 41.378 6.928 42.509 o
-8 3 2 10.326 12.867 5.196 87.091 o
-7 -4 0 4.059 8.104 4.887 99.901 o
-7 -4 1 17.833 11.939 5.011 91.568 o
-7 -4 2 47.593 49.790 7.114 39.525 o
-7 -4 3 50.477 42.491 6.557 45.374 o
-7 -4 4 76.577 85.297 8.598 23.702 o
-7 -4 5 109.299 107.499 9.279 17.498 o
-7 -3 -3 3.495 3.155 4.701 108.272 o
-7 -3 -2 22.206 23.754 5.753 67.898 o
-7 -3 -1 36.707 26.909 5.753 63.248 o
-7 -3 0 7.675 8.846 4.763 104.421 o
-7 -3 1 6.481 4.454 4.330 126.929 o
-7 -3 2 6.091 4.516 4.268 130.689 o
-7 -3 3 34.703 33.088 6.124 56.380 o
-7 -3 4 17.467 14.784 5.134 87.068 o
-7 -3 5 19.723 17.568 5.072 87.892 o
-7 -3 6 1.123 3.217 4.083 143.764 o
-7 -3 7 38.899 38.841 6.495 49.239 o
-7 -2 -5 22.337 19.609 5.691 69.784 o
-7 -2 -4 42.147 35.501 6.371 50.519 o
-7 -2 -3 18.520 18.743 5.505 75.417 o
-7 -2 -2 58.224 57.956 7.176 36.301 o
-7 -2 -1 5.378 1.794 4.330 127.400 o
-7 -2 0 48.727 51.584 6.990 40.303 o
-7 -2 1 24.966 32.470 5.938 62.263 o
-7 -2 2 5.147 6.000 4.392 123.520 o
-7 -2 3 68.966 63.956 7.361 32.532 o
-7 -2 4 62.473 77.874 8.227 27.440 o
-7 -2 5 174.093 181.909 10.887 9.471 o
-7 -2 6 91.204 96.117 8.660 21.379 o
-7 -2 7 10.801 8.537 4.392 121.591 o
-7 -2 8 65.585 64.822 7.980 29.216 o
-7 -1 -6 16.309 14.475 5.134 87.455 o
-7 -1 -5 7.562 3.773 4.825 102.268 o
-7 -1 -4 26.876 22.640 5.567 70.974 o
-7 -1 -3 27.912 45.275 6.681 48.421 o
-7 -1 -2 15.556 15.341 5.072 89.612 o
-7 -1 -1 25.428 28.826 5.815 65.076 o
-7 -1 0 10.464 11.320 5.011 93.670 o
-7 -1 1 8.627 11.568 4.887 98.781 o
-7 -1 2 6.561 2.660 4.145 138.660 o
-7 -1 3 45.082 43.357 6.495 47.274 o
-7 -1 4 107.154 92.714 8.413 20.683 o
-7 -1 5 158.046 147.583 9.897 11.931 o
-7 -1 6 69.420 76.885 7.980 27.893 o
-7 -1 7 55.576 63.894 7.671 32.620 o
-7 -1 8 19.628 15.465 4.887 94.735 o
-7 0 -7 34.450 35.501 5.938 59.234 o
-7 0 -6 59.200 70.884 7.423 33.184 o
-7 0 -5 85.205 104.715 8.908 20.742 o
-7 0 -4 64.065 65.070 7.547 32.044 o
-7 0 -3 31.859 28.517 5.753 64.518 o
-7 0 -2 68.476 74.534 7.732 29.526 o
-7 0 -1 84.648 95.251 8.598 22.315 o
-7 0 0 1.236 6.371 4.330 127.658 o
-7 0 1 38.050 30.064 6.000 57.923 o
-7 0 2 42.621 53.564 6.866 42.538 o
-7 0 3 26.160 22.084 5.196 80.880 o
-7 0 4 1.372 5.134 4.206 135.320 o
-7 0 5 18.864 18.372 5.011 90.115 o
-7 0 6 24.993 31.480 5.938 62.382 o
-7 0 7 34.412 39.645 6.433 50.999 o
-7 0 8 5.251 7.671 4.516 116.709 o
-7 1 -7 0.937 -3.835 3.588 186.293 o
-7 1 -6 28.526 25.672 5.505 71.401 o
-7 1 -5 27.451 30.064 5.629 68.237 o
-7 1 -4 23.655 24.744 5.691 68.768 o
-7 1 -3 23.186 27.218 5.567 71.400 o
-7 1 -2 49.823 50.347 6.928 40.800 o
-7 1 -1 92.374 80.596 7.980 24.617 o
-7 1 0 40.005 37.480 6.186 53.437 o
-7 1 1 1.669 1.423 4.021 148.249 o
-7 1 2 1.785 0.866 3.835 162.948 o
-7 1 3 66.902 60.554 6.928 36.280 o
-7 1 4 51.112 53.873 6.866 40.770 o
-7 1 5 36.134 34.449 5.938 58.893 o
-7 1 6 16.802 15.341 4.701 103.154 o
-7 1 7 5.975 4.701 4.825 102.435 o
-7 2 -7 2.251 -6.186 3.526 192.762 o
-7 2 -6 7.500 7.238 4.268 129.956 o
-7 2 -5 6.414 8.970 4.454 119.533 o
-7 2 -4 8.556 3.464 3.959 151.065 o
-7 2 -3 7.265 7.671 4.206 133.762 o
-7 2 -2 49.607 51.646 6.866 41.312 o
-7 2 -1 169.346 161.867 10.145 10.754 o
-7 2 0 48.877 53.255 6.743 42.529 o
-7 2 1 22.600 30.985 5.877 64.271 o
-7 2 2 4.892 -0.804 3.650 179.437 o
-7 2 3 2.549 7.485 4.206 134.969 o
-7 2 4 20.451 19.547 5.134 85.313 o
-7 2 5 38.363 30.002 5.691 63.369 o
-7 2 6 24.366 20.166 5.320 78.438 o
-7 2 7 62.244 60.059 7.238 34.908 o
-7 3 -7 21.747 18.434 4.949 91.096 o
-7 3 -6 47.172 47.996 6.990 40.947 o
-7 3 -5 2.331 -4.516 3.464 199.690 o
-7 3 -4 59.499 53.131 6.743 40.197 o
-7 3 -3 43.773 51.956 6.619 45.135 o
-7 3 -2 21.238 30.435 5.382 76.112 o
-7 3 -1 188.061 195.023 10.516 8.984 o
-7 3 0 244.170 234.112 11.630 6.223 o
-7 3 1 7.394 5.072 4.206 134.115 o
-7 3 2 23.618 21.589 5.196 81.938 o
-7 3 3 0.156 -1.361 3.712 174.103 o
-7 3 4 12.274 5.691 4.206 132.271 o
-7 3 5 51.950 34.264 5.753 56.772 o
-7 3 6 4.039 0.062 3.712 173.703 o
-7 4 -7 7.352 2.041 4.206 134.526 o
-7 4 -6 4.750 -1.485 3.773 167.932 o
-7 4 -5 14.064 14.784 4.825 99.257 o
-7 4 -4 4.474 1.546 3.712 173.439 o
-7 4 -3 52.505 52.265 6.928 40.069 o
-7 4 -2 18.696 22.455 5.196 83.518 o
-7 4 -1 114.255 108.117 8.598 18.701 o
-7 4 0 74.601 77.070 7.732 28.440 o
-7 4 1 103.086 89.504 7.856 23.145 o
-7 4 2 2.709 0.124 3.279 222.825 o
-7 4 3 15.142 10.269 4.021 141.452 o
-7 4 4 23.467 25.981 5.072 84.814 o
-7 5 -5 6.322 0.742 3.526 191.589 o
-7 5 -4 33.766 26.723 5.753 64.207 o
-7 5 -3 128.821 124.324 9.464 15.036 o
-7 5 -2 11.276 11.382 4.454 117.632 o
-7 5 -1 14.751 16.516 4.701 103.748 o
-7 5 0 2.348 3.650 3.773 168.048 o
-7 5 1 63.432 55.234 7.052 36.547 o
-7 5 2 1.468 1.794 3.588 186.163 o
-6 -5 -1 84.837 88.823 7.671 26.395 o
-6 -5 0 127.014 121.231 8.598 16.958 o
-6 -5 1 30.063 29.692 5.444 71.594 o
-6 -5 2 34.141 41.316 6.124 55.439 o
-6 -5 3 11.687 17.630 4.763 102.087 o
-6 -5 4 87.146 88.019 8.104 24.312 o
-6 -5 5 2.730 7.856 4.083 143.157 o
-6 -5 6 41.369 47.873 6.928 42.693 o
-6 -4 -3 3.198 6.433 4.021 147.628 o
-6 -4 -2 19.003 26.909 5.196 82.646 o
-6 -4 -1 86.517 79.359 7.423 28.006 o
-6 -4 0 136.373 123.335 8.537 16.198 o
-6 -4 1 51.436 50.656 6.248 47.650 o
-6 -4 2 42.011 41.625 5.877 56.966 o
-6 -4 3 29.021 24.063 4.825 90.464 o
-6 -4 4 14.097 15.712 4.516 112.517 o
-6 -4 5 113.860 107.746 8.413 19.230 o
-6 -4 6 23.438 22.207 5.196 81.890 o
-6 -4 7 24.986 31.851 5.877 63.544 o
-6 -4 8 40.788 39.460 6.310 51.211 o
-6 -3 -5 8.821 -1.052 4.701 107.786 o
-6 -3 -4 18.828 15.094 4.578 107.609 o
-6 -3 -3 32.775 32.532 5.505 68.680 o
-6 -3 -2 3.983 0.619 3.712 173.658 o
-6 -3 -1 3.103 2.227 3.835 162.675 o
-6 -3 0 24.053 26.476 5.134 82.625 o
-6 -3 1 26.205 28.270 5.134 81.353 o
-6 -3 2 42.781 44.223 6.000 54.412 o
-6 -3 3 7.919 11.939 4.083 140.764 o
-6 -3 4 15.981 19.362 4.516 110.758 o
-6 -3 5 66.133 69.709 7.052 34.617 o
-6 -3 6 2.885 -0.866 3.155 240.588 o
-6 -3 7 112.723 100.323 7.980 20.938 o
-6 -3 8 25.556 19.362 5.072 85.320 o
-6 -3 9 3.693 2.474 3.959 152.567 o
-6 -2 -6 32.619 29.136 5.382 72.170 o
-6 -2 -5 22.403 30.064 5.320 77.397 o
-6 -2 -4 43.886 41.378 5.938 55.440 o
-6 -2 -3 104.249 98.777 7.732 22.831 o
-6 -2 -2 17.417 15.341 4.578 108.226 o
-6 -2 -1 30.442 34.511 5.567 67.833 o
-6 -2 0 26.283 25.486 5.258 78.463 o
-6 -2 1 48.392 50.409 6.186 49.298 o
-6 -2 2 128.576 132.675 8.537 16.459 o
-6 -2 3 67.654 75.091 7.052 33.804 o
-6 -2 4 52.498 55.729 6.371 45.271 o
-6 -2 5 4.276 5.567 3.526 191.441 o
-6 -2 6 126.135 134.098 8.598 16.485 o
-6 -2 7 0.787 0.247 3.340 214.912 o
-6 -2 8 36.328 35.006 5.567 65.617 o
-6 -2 9 13.215 10.578 4.268 127.068 o
-6 -2 10 29.271 24.434 5.196 79.153 o
-6 -1 -7 7.768 -0.062 3.402 205.147 o
-6 -1 -6 11.418 12.372 4.268 127.490 o
-6 -1 -5 19.549 25.362 5.011 88.508 o
-6 -1 -4 24.154 16.145 4.639 101.991 o
-6 -1 -3 54.908 60.616 6.681 40.959 o
-6 -1 -2 297.271 300.914 12.001 4.539 o
-6 -1 -1 68.365 67.606 7.238 33.129 o
-6 -1 0 79.302 61.605 6.619 35.768 o
-6 -1 1 8.473 7.423 4.083 141.471 o
-6 -1 2 40.624 41.439 5.691 60.561 o
-6 -1 3 128.169 124.201 8.227 17.494 o
-6 -1 4 35.684 31.542 5.134 76.290 o
-6 -1 5 53.443 58.018 6.619 42.192 o
-6 -1 6 16.580 11.444 4.206 128.616 o
-6 -1 7 88.186 87.277 7.423 27.125 o
-6 -1 8 18.407 16.826 4.578 107.390 o
-6 -1 9 8.319 8.165 3.897 154.909 o
-6 -1 10 22.896 23.568 4.825 93.735 o
-6 0 -9 82.313 101.437 7.918 24.821 o
-6 0 -8 7.761 3.897 3.526 190.148 o
-6 0 -7 13.525 13.362 4.206 129.805 o
-6 0 -6 14.497 15.094 4.145 132.441 o
-6 0 -5 16.978 18.125 4.701 102.485 o
-6 0 -4 83.043 72.060 7.238 30.143 o
-6 0 -3 113.401 112.447 8.042 20.014 o
-6 0 -2 8.426 11.320 4.330 125.369 o
-6 0 -1 81.635 75.524 7.176 30.427 o
-6 0 0 3.824 3.217 3.650 179.294 o
-6 0 1 10.128 2.598 3.835 160.323 o
-6 0 2 73.427 70.513 6.804 34.785 o
-6 0 3 47.291 44.594 5.815 55.652 o
-6 0 4 84.352 91.236 7.423 27.413 o
-6 0 5 40.547 44.223 5.629 61.160 o
-6 0 6 48.833 52.450 6.186 48.880 o
-6 0 7 2.408 -1.175 3.217 231.546 o
-6 0 8 62.100 66.369 6.804 37.646 o
-6 0 9 20.703 26.785 5.072 85.783 o
-6 0 10 0.311 -0.309 3.402 207.194 o
-6 1 -9 6.075 6.712 5.660 74.467 o
-6 1 -8 31.039 30.373 5.134 78.744 o
-6 1 -7 27.880 33.583 5.258 76.205 o
-6 1 -6 12.598 18.867 4.516 112.482 o
-6 1 -5 103.500 105.705 7.423 23.520 o
-6 1 -4 63.696 71.812 7.114 34.446 o
-6 1 -3 147.029 149.006 8.784 14.005 o
-6 1 -2 232.411 219.142 10.207 7.303 o
-6 1 -1 52.655 67.235 6.681 40.717 o
-6 1 0 23.143 23.754 4.887 91.426 o
-6 1 1 185.953 199.106 9.712 9.570 o
-6 1 2 11.100 18.929 4.330 122.611 o
-6 1 3 64.770 71.255 6.866 36.080 o
-6 1 4 52.765 64.142 6.681 41.046 o
-6 1 5 101.916 99.086 7.423 24.205 o
-6 1 6 24.629 18.372 4.330 114.522 o
-6 1 7 1.575 7.856 3.773 167.758 o
-6 1 8 17.142 14.970 4.206 127.189 o
-6 1 9 1.607 2.227 3.526 192.693 o
-6 2 -9 15.570 18.620 4.454 114.080 o
-6 2 -8 113.286 128.407 8.227 18.724 o
-6 2 -7 10.435 10.949 4.145 135.788 o
-6 2 -6 19.052 19.980 4.578 106.258 o
-6 2 -5 38.143 40.078 5.629 62.821 o
-6 2 -4 150.811 169.228 8.846 12.998 o
-6 2 -3 2.732 5.196 3.712 173.418 o
-6 2 -2 76.419 71.317 7.052 32.492 o
-6 2 -1 13.299 14.475 4.206 129.624 o
-6 2 0 14.767 14.599 4.330 121.846 o
-6 2 1 22.596 32.222 5.134 82.041 o
-6 2 2 41.173 51.151 6.062 52.953 o
-6 2 3 17.738 23.135 4.701 100.989 o
-6 2 4 4.558 4.206 3.650 178.913 o
-6 2 5 26.993 30.002 5.134 80.639 o
-6 2 6 28.140 21.465 4.701 95.938 o
-6 2 7 32.885 33.088 5.134 77.253 o
-6 2 8 61.060 62.533 6.804 38.285 o
-6 3 -9 145.268 163.846 9.403 12.800 o
-6 3 -8 14.004 14.290 4.268 125.729 o
-6 3 -7 66.660 59.440 6.681 38.409 o
-6 3 -6 4.686 6.743 3.712 172.545 o
-6 3 -5 23.353 24.001 4.949 89.204 o
-6 3 -4 102.300 107.066 7.671 22.756 o
-6 3 -3 56.408 64.142 6.495 41.931 o
-6 3 -2 11.087 5.444 3.464 193.955 o
-6 3 -1 33.873 30.744 4.825 85.870 o
-6 3 0 6.268 4.639 3.650 178.164 o
-6 3 1 14.540 11.753 4.083 137.304 o
-6 3 2 64.792 72.616 6.804 36.395 o
-6 3 3 34.212 35.439 5.382 70.264 o
-6 3 4 23.826 23.259 3.039 205.997 o
-6 3 5 9.723 12.695 3.000 252.563 o
-6 3 6 134.414 147.736 9.616 13.655 o
-6 3 7 48.473 47.007 6.124 50.559 o
-6 3 8 76.745 78.307 7.671 28.352 o
-6 4 -9 0.859 0.186 3.279 223.094 o
-6 4 -8 66.339 84.246 7.547 30.165 o
-6 4 -7 4.645 5.258 3.773 167.250 o
-6 4 -6 3.160 -2.041 2.907 283.095 o
-6 4 -5 9.869 5.938 3.712 170.199 o
-6 4 -4 99.055 96.612 7.671 23.871 o
-6 4 -3 63.654 65.379 6.804 37.417 o
-6 4 -2 22.248 25.053 4.825 93.689 o
-6 4 -1 8.105 9.526 3.712 170.181 o
-6 4 0 22.256 19.547 4.392 112.830 o
-6 4 1 4.814 8.289 3.464 197.333 o
-6 4 2 20.829 14.784 3.897 143.490 o
-6 4 3 18.406 15.094 4.206 126.328 o
-6 4 4 12.170 13.113 2.907 262.831 o
-6 4 5 46.884 47.556 8.134 31.665 o
-6 4 6 1.645 1.247 2.245 475.059 o
-6 5 -8 27.185 24.496 5.196 79.995 o
-6 5 -7 117.210 108.736 8.475 18.699 o
-6 5 -6 43.271 41.872 6.124 52.818 o
-6 5 -5 7.000 6.371 3.712 171.625 o
-6 5 -4 13.352 15.960 4.392 118.954 o
-6 5 -3 120.732 125.252 8.475 17.599 o
-6 5 -2 115.706 140.099 8.846 16.609 o
-6 5 -1 51.045 52.389 6.433 45.401 o
-6 5 0 5.553 6.248 3.588 184.251 o
-6 5 1 20.722 25.053 4.825 94.423 o
-6 5 2 5.880 1.237 3.155 239.029 o
-6 5 3 31.456 35.068 5.258 74.372 o
-6 5 4 21.904 17.387 4.485 109.473 o
-6 6 -6 33.816 34.697 5.938 59.536 o
-6 6 -5 2.946 -1.670 3.093 250.274 o
-6 6 -4 14.019 12.372 4.330 122.787 o
-6 6 -3 1.696 4.021 3.155 240.338 o
-6 6 -2 13.886 10.887 4.083 137.958 o
-6 6 -1 16.943 9.774 3.897 148.956 o
-6 6 0 18.366 18.248 4.578 107.055 o
-6 6 1 13.273 16.393 4.392 118.888 o
-6 6 2 13.199 15.774 4.392 119.073 o
-5 -6 -1 21.679 23.135 4.330 114.923 o
-5 -6 0 92.207 88.143 7.052 28.105 o
-5 -6 1 10.484 13.547 4.268 127.647 o
-5 -6 2 157.977 164.650 9.155 12.329 o
-5 -6 3 16.286 30.002 5.011 88.885 o
-5 -6 4 60.880 71.627 7.114 34.996 o
-5 -6 5 16.525 23.630 4.763 98.994 o
-5 -6 6 23.919 25.115 5.320 77.738 o
-5 -6 7 25.489 36.181 6.062 59.378 o
-5 -5 -2 12.300 16.021 3.897 150.100 o
-5 -5 -1 69.012 83.504 6.557 36.056 o
-5 -5 0 1.753 6.619 3.526 192.153 o
-5 -5 1 315.507 307.533 12.186 4.202 o
-5 -5 2 11.070 15.465 4.021 142.379 o
-5 -5 3 80.605 81.833 6.928 31.428 o
-5 -5 4 15.582 23.445 4.454 112.778 o
-5 -5 5 45.098 41.811 5.753 57.864 o
-5 -5 6 83.023 92.411 7.732 26.124 o
-5 -5 7 55.718 57.523 6.866 39.427 o
-5 -5 8 92.111 92.288 7.980 23.906 o
-5 -5 9 58.291 46.264 6.248 46.349 o
-5 -4 -6 7.605 8.784 4.083 141.544 o
-5 -4 -4 49.013 61.420 6.681 42.211 o
-5 -4 -3 3.210 2.289 3.279 222.378 o
-5 -4 -2 90.389 87.030 6.495 31.325 o
-5 -4 -1 38.475 47.687 5.258 68.344 o
-5 -4 0 20.280 29.259 4.639 100.515 o
-5 -4 1 42.907 36.305 5.072 72.948 o
-5 -4 2 64.202 64.142 6.310 41.651 o
-5 -4 3 29.954 29.878 4.825 88.355 o
-5 -4 4 6.247 7.485 3.402 203.829 o
-5 -4 5 73.154 61.977 6.310 39.573 o
-5 -4 6 79.783 77.256 6.866 32.397 o
-5 -4 7 44.692 43.605 5.938 54.829 o
-5 -4 8 11.616 6.433 3.712 168.931 o
-5 -4 9 43.974 41.501 6.000 54.464 o
-5 -4 10 10.299 16.393 4.639 108.132 o
-5 -3 -7 9.589 3.279 3.526 189.233 o
-5 -3 -5 60.560 53.688 5.753 50.235 o
-5 -3 -4 70.500 73.421 6.310 38.778 o
-5 -3 -3 20.955 17.568 4.268 120.438 o
-5 -3 -2 8.355 10.516 3.897 154.307 o
-5 -3 -1 13.075 16.145 4.021 140.877 o
-5 -3 0 12.834 15.032 3.835 154.701 o
-5 -3 1 117.256 109.911 7.114 22.317 o
-5 -3 2 324.168 323.059 11.815 4.052 o
-5 -3 3 26.810 24.249 4.516 102.943 o
-5 -3 4 19.717 23.321 4.392 113.252 o
-5 -3 5 2.487 3.217 2.969 271.048 o
-5 -3 6 63.609 64.451 6.248 42.342 o
-5 -3 7 74.056 66.554 6.433 37.784 o
-5 -3 8 5.262 3.959 3.093 248.102 o
-5 -3 9 34.925 36.924 5.567 65.781 o
-5 -3 10 11.152 13.423 4.206 131.017 o
-5 -3 11 21.996 24.558 4.949 89.685 o
-5 -2 -8 22.011 26.723 5.011 87.198 o
-5 -2 -6 0.458 -2.846 3.155 240.964 o
-5 -2 -5 67.737 67.049 6.062 42.517 o
-5 -2 -4 139.052 132.428 7.609 17.295 o
-5 -2 -3 121.635 120.922 7.423 20.209 o
-5 -2 -2 35.902 30.497 4.701 88.441 o
-5 -2 -1 130.042 120.860 7.299 19.524 o
-5 -2 0 1.081 3.340 3.217 231.470 o
-5 -2 1 19.017 19.424 3.959 138.988 o
-5 -2 2 19.579 14.784 3.650 162.989 o
-5 -2 3 312.209 276.238 10.640 4.777 o
-5 -2 4 37.755 31.789 4.578 90.597 o
-5 -2 5 0.407 3.340 2.969 271.782 o
-5 -2 6 24.660 20.723 4.392 110.824 o
-5 -2 7 57.093 62.100 6.186 45.115 o
-5 -2 8 9.656 6.743 3.650 175.762 o
-5 -2 9 62.401 46.141 5.877 49.409 o
-5 -2 10 171.654 193.910 9.897 10.150 o
-5 -2 11 25.927 29.631 5.320 76.178 o
-5 -1 -9 26.968 30.497 4.949 85.942 o
-5 -1 -8 30.409 29.321 4.701 92.257 o
-5 -1 -7 52.145 51.089 5.320 60.150 o
-5 -1 -6 37.877 39.707 4.763 82.481 o
-5 -1 -5 12.075 9.959 3.773 162.094 o
-5 -1 -4 299.084 271.166 10.454 5.086 o
-5 -1 -3 13.820 17.197 3.959 144.158 o
-5 -1 -2 84.764 76.142 6.371 34.496 o
-5 -1 -1 113.521 102.364 6.743 24.605 o
-5 -1 0 137.663 134.036 7.299 17.951 o
-5 -1 1 89.599 90.061 6.433 31.500 o
-5 -1 2 53.658 57.028 5.505 55.446 o
-5 -1 3 51.240 44.842 4.949 68.735 o
-5 -1 4 177.609 161.434 8.104 12.387 o
-5 -1 5 112.614 117.953 7.052 22.587 o
-5 -1 6 11.963 17.321 3.897 149.870 o
-5 -1 7 62.227 65.812 6.062 44.331 o
-5 -1 8 19.291 14.475 3.835 149.351 o
-5 -1 9 1.410 5.134 3.217 231.117 o
-5 -1 10 20.708 20.599 4.330 116.463 o
-5 -1 11 114.256 123.582 7.856 19.798 o
-5 0 -10 11.905 8.104 3.340 205.932 o
-5 0 -9 24.905 32.096 3.388 163.218 o
-5 0 -8 28.749 31.840 3.193 171.051 o
-5 0 -7 31.051 23.073 4.021 122.088 o
-5 0 -6 152.489 147.212 7.485 15.570 o
-5 0 -5 174.858 169.042 8.289 12.131 o
-5 0 -4 39.293 34.016 4.825 81.693 o
-5 0 -3 829.793 772.299 20.475 0.737 o
-5 0 -2 21.635 23.012 4.206 121.131 o
-5 0 -1 294.074 272.960 10.331 5.190 o
-5 0 0 152.319 153.831 7.794 14.850 o
-5 0 1 242.089 237.267 9.526 7.049 o
-5 0 2 142.345 117.334 6.928 19.115 o
-5 0 3 161.599 139.418 7.547 15.033 o
-5 0 4 94.867 96.797 6.619 28.839 o
-5 0 5 35.173 30.558 4.639 90.832 o
-5 0 6 0.959 -1.608 2.722 323.669 o
-5 0 7 13.847 8.351 3.402 196.619 o
-5 0 8 19.383 17.073 3.959 139.699 o
-5 0 9 6.220 7.114 3.217 227.760 o
-5 0 10 31.810 28.826 4.639 93.611 o
-5 0 11 4.569 7.547 3.402 204.836 o
-5 1 -11 4.033 7.856 3.093 247.565 o
-5 1 -10 1.067 0.367 3.897 157.886 o
-5 1 -9 3.138 4.122 1.943 626.587 o
-5 1 -8 19.382 19.640 2.600 285.672 o
-5 1 -7 22.224 24.187 4.268 117.130 o
-5 1 -6 74.182 68.967 6.124 39.877 o
-5 1 -5 35.182 35.192 4.516 93.205 o
-5 1 -4 115.869 104.344 6.866 23.679 o
-5 1 -3 69.471 62.471 5.938 43.838 o
-5 1 -2 119.442 107.004 6.681 23.518 o
-5 1 -1 22.481 21.465 3.897 138.614 o
-5 1 0 15.520 14.723 3.588 172.840 o
-5 1 1 15.123 14.846 3.464 184.850 o
-5 1 2 413.656 375.943 12.495 2.821 o
-5 1 3 6.877 7.671 3.279 218.654 o
-5 1 4 33.197 31.356 4.454 98.226 o
-5 1 5 136.484 133.913 7.423 17.838 o
-5 1 6 55.597 41.192 4.949 67.331 o
-5 1 7 60.690 59.069 5.567 51.464 o
-5 1 8 66.364 71.172 4.109 65.154 o
-5 1 9 12.548 15.700 3.526 181.281 o
-5 1 10 22.058 17.754 4.145 126.149 o
-5 2 -11 19.235 18.310 3.835 147.551 o
-5 2 -10 61.960 62.286 5.815 47.557 o
-5 2 -9 60.130 61.977 5.753 48.932 o
-5 2 -8 34.231 43.295 5.258 71.309 o
-5 2 -7 12.486 10.083 3.340 204.165 o
-5 2 -6 108.285 108.055 7.052 23.926 o
-5 2 -5 85.170 83.689 6.248 34.279 o
-5 2 -4 140.214 147.336 7.671 16.366 o
-5 2 -3 0.947 2.784 2.969 271.713 o
-5 2 -2 257.149 259.536 10.207 6.131 o
-5 2 0 392.073 368.705 12.557 3.018 o
-5 2 2 62.927 62.595 5.629 49.238 o
-5 2 3 63.307 66.495 3.581 78.133 o
-5 2 4 53.889 45.858 3.225 110.452 o
-5 2 5 114.050 110.184 4.544 31.765 o
-5 2 6 34.964 36.403 3.311 146.431 o
-5 2 7 2.159 1.592 2.031 579.202 o
-5 2 8 4.405 4.551 2.186 493.188 o
-5 2 9 34.871 36.349 3.768 122.399 o
-5 2 10 4.505 1.485 3.340 213.931 o
-5 3 -11 75.129 97.045 7.114 30.009 o
-5 3 -10 8.129 5.938 3.217 226.623 o
-5 3 -9 42.052 42.677 5.444 64.236 o
-5 3 -8 98.191 98.900 6.866 26.966 o
-5 3 -7 25.390 29.816 4.639 97.345 o
-5 3 -6 46.844 43.852 5.258 65.325 o
-5 3 -5 43.083 43.605 5.258 67.146 o
-5 3 -4 3.152 7.671 3.340 213.155 o
-5 3 -3 99.258 116.778 7.176 24.192 o
-5 3 -2 114.972 109.849 6.928 23.208 o
-5 3 -1 182.085 179.991 8.289 11.386 o
-5 3 0 65.412 65.008 5.691 47.240 o
-5 3 1 92.860 93.828 6.619 29.512 o
-5 3 2 50.204 54.615 5.629 55.509 o
-5 3 3 139.037 125.696 4.981 23.295 o
-5 3 4 14.568 15.277 2.492 335.158 o
-5 3 5 70.266 72.368 4.242 60.378 o
-5 3 6 42.072 44.421 3.740 109.476 o
-5 3 7 18.334 21.086 3.804 149.229 o
-5 3 8 49.547 55.172 6.619 43.435 o
-5 3 9 7.518 12.310 4.454 118.759 o
-5 4 -10 128.478 157.104 9.031 14.647 o
-5 4 -9 22.320 22.764 4.578 103.682 o
-5 4 -8 81.158 82.019 6.866 31.657 o
-5 4 -7 97.425 90.741 6.866 27.810 o
-5 4 -6 0.327 6.310 3.217 231.275 o
-5 4 -5 56.231 54.801 5.691 52.368 o
-5 4 -4 45.086 50.038 5.691 57.362 o
-5 4 -3 82.454 83.751 6.495 33.392 o
-5 4 -2 49.682 52.760 5.629 56.063 o
-5 4 -1 20.886 26.352 4.330 114.347 o
-5 4 0 50.301 57.152 5.567 55.876 o
-5 4 1 38.128 39.584 5.072 74.573 o
-5 4 2 39.015 43.578 3.631 118.327 o
-5 4 3 14.346 17.525 2.708 287.039 o
-5 4 4 9.026 15.028 2.519 349.134 o
-5 4 5 16.826 18.861 5.784 68.970 o
-5 4 6 24.769 27.004 4.946 87.957 o
-5 4 7 18.144 19.671 4.825 96.780 o
-5 4 8 5.854 1.485 3.712 173.055 o
-5 5 -10 44.174 49.976 6.495 46.698 o
-5 5 -9 22.993 22.455 4.701 98.507 o
-5 5 -8 23.769 20.970 4.516 105.929 o
-5 5 -7 59.208 53.626 6.248 45.064 o
-5 5 -6 19.729 19.114 4.454 111.650 o
-5 5 -5 16.740 10.578 3.526 179.480 o
-5 5 -4 25.474 16.702 3.897 137.987 o
-5 5 -3 1.895 3.402 2.969 271.274 o
-5 5 -2 74.537 81.338 6.495 35.461 o
-5 5 -1 42.652 41.811 5.134 70.321 o
-5 5 0 0.691 2.474 2.660 338.638 o
-5 5 1 24.683 32.037 4.578 99.392 o
-5 5 2 3.176 4.210 2.243 471.636 o
-5 5 3 16.493 17.598 4.887 95.523 o
-5 5 4 9.359 11.134 2.569 341.346 o
-5 5 5 8.258 8.279 5.382 81.974 o
-5 5 6 14.521 25.486 5.691 70.930 o
-5 6 -9 12.411 9.155 3.897 152.366 o
-5 6 -8 6.141 2.722 3.279 220.913 o
-5 6 -7 37.687 27.404 5.011 79.497 o
-5 6 -6 43.835 39.955 5.815 57.627 o
-5 6 -5 33.902 40.326 5.629 64.314 o
-5 6 -4 34.900 34.264 5.011 79.163 o
-5 6 -3 17.325 17.939 4.268 122.718 o
-5 6 -2 26.830 19.733 4.268 115.306 o
-5 6 -1 77.618 78.679 6.433 35.471 o
-5 6 0 5.866 9.155 3.279 218.872 o
-5 6 1 56.295 63.028 5.815 49.355 o
-5 6 2 13.010 18.547 3.076 230.279 o
-5 6 3 34.604 41.965 5.227 72.139 o
-5 6 4 34.034 37.160 8.011 34.519 o
-5 7 -6 42.423 40.264 6.062 54.197 o
-5 7 -5 18.614 16.826 4.392 115.919 o
-5 7 -4 21.368 19.176 4.639 102.663 o
-5 7 -3 10.661 8.598 3.650 174.436 o
-5 7 -2 18.086 13.423 3.897 146.541 o
-5 7 -1 17.734 14.104 5.134 87.090 o
-5 7 0 85.483 84.865 6.928 30.217 o
-5 7 1 12.204 11.382 3.712 166.675 o
-4 -7 1 1.224 3.464 2.722 323.016 o
-4 -7 2 48.457 44.904 5.753 56.120 o
-4 -7 3 55.156 58.574 6.495 42.936 o
-4 -7 4 61.206 59.131 6.866 38.103 o
-4 -6 -1 10.153 14.723 3.402 197.179 o
-4 -6 0 125.731 127.603 7.361 19.489 o
-4 -6 1 61.280 68.163 5.938 45.509 o
-4 -6 2 49.902 55.296 5.691 54.610 o
-4 -6 3 10.249 14.871 2.289 410.867 o
-4 -6 4 59.057 68.967 6.433 41.235 o
-4 -5 -5 37.946 32.903 5.382 69.244 o
-4 -5 -3 37.352 43.357 5.567 63.658 o
-4 -5 -2 70.531 70.884 5.444 46.876 o
-4 -5 -1 111.137 105.457 6.495 25.604 o
-4 -5 0 43.874 52.945 5.382 62.374 o
-4 -5 1 153.606 165.331 7.980 14.049 o
-4 -5 2 35.366 34.944 4.701 87.356 o
-4 -5 3 11.905 10.021 3.340 204.870 o
-4 -5 4 42.553 45.893 5.505 62.238 o
-4 -5 5 122.235 112.447 7.485 20.484 o
-4 -5 11 42.056 62.781 7.485 36.138 o
-4 -4 -7 59.120 64.698 6.866 37.956 o
-4 -4 -6 25.302 24.372 4.887 90.246 o
-4 -4 -4 9.279 13.918 3.402 198.526 o
-4 -4 -3 16.184 16.083 3.279 201.985 o
-4 -4 -2 7.503 9.279 3.093 243.513 o
-4 -4 -1 35.585 40.759 4.578 88.963 o
-4 -4 0 14.632 24.249 3.835 149.135 o
-4 -4 1 161.531 151.357 7.423 14.715 o
-4 -4 2 114.435 105.457 6.557 24.835 o
-4 -4 3 1.136 2.907 2.660 338.365 o
-4 -4 4 23.028 23.197 4.083 126.448 o
-4 -4 5 52.251 48.615 5.134 63.788 o
-4 -4 6 50.931 51.584 5.753 54.039 o
-4 -4 7 64.593 56.409 5.877 46.985 o
-4 -4 8 84.612 82.390 6.743 31.637 o
-4 -4 9 38.438 37.109 5.382 68.153 o
-4 -4 10 14.380 13.671 3.959 145.035 o
-4 -4 11 33.658 34.697 5.382 70.642 o
-4 -3 -9 15.481 17.815 4.701 103.189 o
-4 -3 -8 276.386 302.831 12.372 4.759 o
-4 -3 -7 52.283 52.327 6.062 49.401 o
-4 -3 -6 121.275 137.933 8.042 17.890 o
-4 -3 -5 125.250 129.335 6.557 21.386 o
-4 -3 -4 191.536 178.816 7.794 11.309 o
-4 -3 -3 75.334 78.060 5.691 41.737 o
-4 -3 -2 226.324 204.735 8.165 8.759 o
-4 -3 -1 77.329 75.771 5.258 45.169 o
-4 -3 0 109.192 103.849 5.938 28.204 o
-4 -3 1 34.797 35.872 4.206 104.162 o
-4 -3 2 302.180 297.078 10.454 4.808 o
-4 -3 3 129.402 129.521 6.804 20.225 o
-4 -3 4 108.533 97.787 6.248 27.710 o
-4 -3 5 108.863 97.106 6.310 27.466 o
-4 -3 6 19.062 15.588 3.650 163.120 o
-4 -3 7 19.060 18.063 3.897 143.611 o
-4 -3 8 57.683 53.935 5.505 54.448 o
-4 -3 9 83.927 79.297 6.495 33.559 o
-4 -3 10 27.079 29.259 5.011 84.327 o
-4 -3 11 20.264 22.517 4.454 110.311 o
-4 -3 12 33.292 35.810 5.444 69.200 o
-4 -2 -10 51.163 48.986 6.124 49.473 o
-4 -2 -9 19.133 28.455 4.887 92.191 o
-4 -2 -8 38.965 37.357 5.072 74.715 o
-4 -2 -7 103.844 119.499 8.413 19.645 o
-4 -2 -6 6.827 0.928 2.846 292.524 o
-4 -2 -5 2.065 5.196 2.969 270.756 o
-4 -2 -4 14.713 18.681 3.402 189.077 o
-4 -2 -3 50.632 61.234 4.949 64.565 o
-4 -2 -2 169.878 165.949 7.114 13.848 o
-4 -2 -1 143.284 128.716 6.248 19.707 o
-4 -2 0 216.534 189.270 7.671 9.810 o
-4 -2 1 112.487 93.209 5.505 30.422 o
-4 -2 2 53.717 48.182 4.578 73.656 o
-4 -2 3 417.208 413.609 12.743 2.639 o
-4 -2 4 176.566 175.228 7.794 12.327 o
-4 -2 5 169.069 142.140 7.176 14.800 o
-4 -2 6 165.677 157.970 7.732 13.740 o
-4 -2 7 1.296 -0.557 2.474 391.527 o
-4 -2 8 24.712 23.197 4.145 121.713 o
-4 -2 9 30.672 30.923 4.639 93.669 o
-4 -2 10 26.032 25.758 5.011 85.629 o
-4 -2 11 64.846 64.383 4.756 58.964 o
-4 -2 12 61.635 65.998 6.310 42.090 o
-4 -1 -11 51.922 48.677 5.691 55.087 o
-4 -1 -10 43.257 47.625 5.567 60.535 o
-4 -1 -9 44.762 52.512 5.505 59.989 o
-4 -1 -8 51.577 49.419 5.382 59.779 o
-4 -1 -7 169.813 167.647 5.239 15.906 o
-4 -1 -6 32.878 34.078 3.897 120.129 o
-4 -1 -5 96.139 99.519 5.815 32.139 o
-4 -1 -4 68.303 60.183 4.825 57.318 o
-4 -1 -3 79.027 72.555 5.072 46.825 o
-4 -1 -2 270.413 279.325 9.403 5.838 o
-4 -1 -1 417.809 419.300 12.248 2.651 o
-4 -1 0 17.116 18.805 3.217 205.071 o
-4 -1 1 251.243 234.483 8.475 7.221 o
-4 -1 2 109.859 99.581 5.505 30.291 o
-4 -1 3 71.377 78.617 5.134 48.111 o
-4 -1 4 315.108 296.893 10.083 4.669 o
-4 -1 5 7.405 6.928 2.660 328.464 o
-4 -1 6 191.507 178.198 8.042 11.122 o
-4 -1 7 117.939 118.819 6.743 22.676 o
-4 -1 8 15.726 15.712 3.588 172.065 o
-4 -1 9 48.931 51.947 6.557 44.619 o
-4 -1 10 55.351 56.413 4.037 80.789 o
-4 -1 11 56.928 61.380 4.324 71.765 o
-4 -1 12 2.922 0.682 3.000 265.854 o
-4 0 -11 13.105 15.774 3.650 169.316 o
-4 0 -10 31.939 38.223 4.887 83.051 o
-4 0 -9 5.224 5.200 1.928 625.162 o
-4 0 -8 6.466 8.321 1.977 581.601 o
-4 0 -7 19.962 16.516 3.217 201.988 o
-4 0 -6 272.738 292.563 9.650 5.581 o
-4 0 -5 9.701 8.846 2.784 294.958 o
-4 0 -4 27.794 31.109 3.897 127.638 o
-4 0 -3 69.300 77.998 5.134 49.098 o
-4 0 -2 416.438 443.239 12.743 2.543 o
-4 0 -1 76.645 85.731 5.382 42.564 o
-4 0 0 243.902 256.691 8.908 6.951 o
-4 0 1 185.782 163.413 6.990 12.891 o
-4 0 2 121.706 115.602 6.000 24.527 o
-4 0 3 157.078 139.666 6.495 17.021 o
-4 0 4 196.293 195.085 7.856 10.554 o
-4 0 5 61.748 59.935 4.763 61.789 o
-4 0 6 95.783 86.844 5.567 35.193 o
-4 0 7 80.950 73.597 3.667 59.912 o
-4 0 8 3.520 3.650 1.856 685.696 o
-4 0 9 47.693 49.980 3.653 102.187 o
-4 0 10 49.815 50.403 3.833 94.129 o
-4 0 11 78.157 76.385 4.518 51.723 o
-4 0 12 0.140 -6.495 3.464 199.863 o
-4 1 -12 36.112 43.419 5.011 76.100 o
-4 1 -11 57.526 74.410 5.753 47.680 o
-4 1 -10 92.275 102.002 4.276 41.608 o
-4 1 -9 31.192 35.376 2.865 187.550 o
-4 1 -8 38.674 44.762 3.215 137.193 o
-4 1 -7 77.317 68.781 5.196 47.096 o
-4 1 -6 8.106 5.505 2.784 300.743 o
-4 1 -5 367.473 345.570 11.073 3.515 o
-4 1 -4 115.798 113.252 6.000 25.788 o
-4 1 -3 3.150 -1.794 2.289 456.176 o
-4 1 -2 16.140 18.310 3.402 187.342 o
-4 1 -1 10.325 9.650 2.660 319.130 o
-4 1 0 97.242 93.457 5.382 34.909 o
-4 1 1 175.837 163.166 6.990 13.634 o
-4 1 2 94.919 95.498 5.505 34.591 o
-4 1 3 88.680 83.751 5.258 39.756 o
-4 1 4 68.669 64.884 4.825 55.929 o
-4 1 5 255.513 237.125 5.961 7.894 o
-4 1 6 52.156 49.705 4.145 84.013 o
-4 1 7 40.895 43.390 3.341 128.447 o
-4 1 8 24.563 20.029 2.597 265.367 o
-4 1 9 11.594 11.318 3.990 145.444 o
-4 1 10 20.720 18.286 5.475 75.705 o
-4 1 11 10.556 8.970 4.516 115.166 o
-4 2 -11 15.885 15.032 3.340 196.458 o
-4 2 -10 33.799 40.388 4.578 90.356 o
-4 2 -9 96.830 93.209 6.000 31.788 o
-4 2 -8 45.102 45.275 4.701 77.618 o
-4 2 -7 65.590 62.781 5.134 54.025 o
-4 2 -6 226.890 242.710 9.155 7.582 o
-4 2 -5 3.309 1.052 2.474 389.937 o
-4 2 -4 259.937 241.906 8.970 6.688 o
-4 2 -3 162.491 145.047 6.743 15.845 o
-4 2 -2 13.796 16.269 3.093 228.667 o
-4 2 -1 269.398 253.288 9.031 6.274 o
-4 2 0 6.646 7.176 2.722 315.202 o
-4 2 1 156.161 155.495 6.866 15.774 o
-4 2 2 57.176 53.372 4.423 72.576 o
-4 2 3 50.481 47.020 2.966 124.319 o
-4 2 4 537.721 526.240 10.495 1.790 o
-4 2 5 225.379 221.717 6.076 9.454 o
-4 2 6 250.116 236.275 18.774 3.916 o
-4 2 7 33.422 30.821 2.985 177.926 o
-4 2 8 2.472 1.405 1.946 630.048 o
-4 2 9 23.860 20.042 4.454 108.830 o
-4 2 10 59.238 71.379 7.609 31.906 o
-4 2 11 57.581 60.925 7.794 31.719 o
-4 3 -12 26.434 22.084 4.083 123.876 o
-4 3 -11 71.382 74.472 5.877 41.963 o
-4 3 -10 96.239 104.406 6.681 27.605 o
-4 3 -9 82.806 81.895 5.938 37.110 o
-4 3 -8 13.876 18.063 3.526 178.470 o
-4 3 -7 83.782 80.720 5.753 38.286 o
-4 3 -6 45.840 50.904 5.011 68.818 o
-4 3 -5 236.331 212.406 8.722 7.967 o
-4 3 -4 235.394 228.607 9.093 7.562 o
-4 3 -3 80.283 86.102 5.567 39.867 o
-4 3 -2 14.067 16.702 3.217 212.047 o
-4 3 -1 38.401 39.831 4.392 92.924 o
-4 3 0 206.887 182.837 7.547 10.539 o
-4 3 1 57.554 59.225 3.281 94.685 o
-4 3 2 76.522 85.929 3.849 56.847 o
-4 3 3 3.328 5.149 1.815 713.697 o
-4 3 4 84.531 74.546 3.818 55.745 o
-4 3 5 110.970 118.482 4.720 30.816 o
-4 3 6 92.428 86.235 4.763 41.413 o
-4 3 7 34.303 42.909 3.491 132.161 o
-4 3 8 10.907 14.970 4.268 127.122 o
-4 3 9 1.678 5.258 3.712 173.655 o
-4 3 10 16.120 16.269 4.949 93.621 o
-4 4 -12 15.974 11.877 3.773 158.212 o
-4 4 -11 32.854 31.666 5.011 80.887 o
-4 4 -10 93.421 93.519 6.743 28.848 o
-4 4 -9 65.736 68.967 5.877 44.586 o
-4 4 -8 52.192 46.512 5.382 60.144 o
-4 4 -7 4.025 3.031 2.598 352.242 o
-4 4 -6 11.473 11.444 3.155 227.988 o
-4 4 -5 159.405 150.553 7.485 14.839 o
-4 4 -4 12.193 16.826 3.340 200.327 o
-4 4 -3 290.519 291.449 10.516 5.044 o
-4 4 -2 40.169 39.151 4.639 84.546 o
-4 4 -1 48.004 48.677 4.825 71.991 o
-4 4 0 205.815 221.431 8.908 8.836 o
-4 4 1 74.342 71.211 3.842 63.212 o
-4 4 2 16.889 23.229 4.701 101.369 o
-4 4 3 56.567 64.649 3.745 82.212 o
-4 4 4 34.123 31.637 3.041 170.983 o
-4 4 5 13.755 14.896 2.330 381.152 o
-4 4 6 26.206 25.873 2.892 212.213 o
-4 4 7 26.128 38.408 6.000 60.043 o
-4 4 8 23.582 29.754 5.815 65.445 o
-4 4 9 10.800 9.526 4.578 111.977 o
-4 5 -11 0.160 -0.619 2.969 272.035 o
-4 5 -10 5.920 5.815 3.340 212.102 o
-4 5 -9 8.217 5.011 3.155 235.753 o
-4 5 -8 13.070 9.341 3.279 211.270 o
-4 5 -7 1.074 3.588 2.660 338.225 o
-4 5 -6 118.903 108.674 7.114 22.177 o
-4 5 -5 11.517 19.114 3.835 154.130 o
-4 5 -4 191.336 178.816 8.537 10.707 o
-4 5 -3 17.470 21.898 3.897 143.306 o
-4 5 -2 43.986 50.595 4.949 71.183 o
-4 5 -1 20.251 21.279 3.650 158.311 o
-4 5 0 42.517 57.708 5.011 68.776 o
-4 5 1 44.068 49.587 3.900 98.692 o
-4 5 2 17.175 26.396 2.972 226.254 o
-4 5 3 56.184 58.490 3.864 82.931 o
-4 5 4 3.002 5.336 1.980 602.468 o
-4 5 5 26.296 29.367 3.239 174.937 o
-4 5 6 5.379 4.268 3.712 172.746 o
-4 5 7 2.705 -0.495 3.773 168.276 o
-4 6 -10 25.048 24.125 4.887 90.430 o
-4 6 -9 17.682 21.032 4.578 106.695 o
-4 6 -8 29.051 20.104 4.392 107.931 o
-4 6 -7 0.257 4.763 2.907 283.289 o
-4 6 -6 15.977 12.743 3.526 179.116 o
-4 6 -5 66.064 67.606 6.000 43.507 o
-4 6 -4 15.260 15.403 3.712 162.201 o
-4 6 -3 76.603 63.337 5.691 43.715 o
-4 6 -2 51.809 59.440 5.320 58.432 o
-4 6 -1 7.953 7.114 2.907 275.458 o
-4 6 0 12.009 21.341 3.773 157.531 o
-4 6 1 70.297 78.243 4.429 56.339 o
-4 6 2 41.075 40.284 6.866 44.143 o
-4 6 3 45.400 49.565 3.819 99.806 o
-4 6 4 41.135 46.574 6.866 43.525 o
-4 6 5 31.036 38.408 6.619 49.299 o
-4 7 -8 6.628 6.186 3.464 196.891 o
-4 7 -7 115.824 105.086 7.856 20.663 o
-4 7 -6 1.797 3.897 2.907 282.836 o
-4 7 -5 85.764 86.287 7.052 29.395 o
-4 7 -4 20.913 23.321 4.516 106.946 o
-4 7 -3 2.494 -2.227 2.227 482.461 o
-4 7 -2 50.808 59.688 5.691 53.464 o
-4 7 -1 20.499 28.579 4.701 98.203 o
-4 7 0 74.202 67.358 5.691 43.844 o
-4 7 1 53.037 52.563 4.199 80.758 o
-4 7 2 137.233 135.963 6.028 20.484 o
-4 7 3 17.615 24.434 6.062 62.366 o
-4 8 -4 28.517 27.898 5.196 78.745 o
-4 8 -3 4.804 8.104 3.279 220.052 o
-3 -7 -2 26.875 27.960 5.011 84.730 o
-3 -7 -1 53.624 58.327 6.124 47.357 o
-3 -7 0 48.819 45.770 4.701 75.043 o
-3 -7 3 104.064 108.550 6.928 24.965 o
-3 -7 4 24.313 25.115 3.959 131.203 o
-3 -7 5 49.876 50.347 4.949 67.964 o
-3 -7 6 41.517 45.831 5.011 72.533 o
-3 -7 7 22.806 23.568 3.897 137.194 o
-3 -7 8 8.975 11.815 3.588 180.367 o
-3 -6 -4 4.600 12.743 3.588 183.036 o
-3 -6 -3 11.364 8.908 3.526 185.745 o
-3 -6 -2 47.471 53.007 5.134 65.079 o
-3 -6 -1 41.819 43.666 4.330 90.442 o
-3 -6 0 77.375 88.514 5.444 41.352 o
-3 -6 3 69.929 80.596 5.629 43.620 o
-3 -6 4 65.398 73.915 5.196 50.935 o
-3 -6 5 16.677 17.073 3.093 222.375 o
-3 -6 6 65.937 71.874 5.382 49.085 o
-3 -6 7 62.824 68.163 5.815 46.286 o
-3 -6 8 22.265 27.713 4.330 112.855 o
-3 -6 9 34.051 38.903 5.382 69.616 o
-3 -6 10 46.333 53.255 6.990 40.604 o
-3 -5 -7 31.429 32.284 5.567 67.877 o
-3 -5 -6 37.724 39.584 5.629 63.065 o
-3 -5 -5 18.866 23.073 4.578 105.533 o
-3 -5 -4 5.871 4.145 3.093 247.579 o
-3 -5 -3 31.629 37.233 3.959 116.914 o
-3 -5 -2 11.914 17.568 3.093 230.885 o
-3 -5 -1 29.738 36.120 4.021 116.723 o
-3 -5 0 29.368 34.449 4.021 117.976 o
-3 -5 3 31.902 33.769 3.712 130.780 o
-3 -5 4 60.688 57.523 4.330 70.352 o
-3 -5 5 45.484 50.966 4.392 82.858 o
-3 -5 6 37.752 43.543 4.639 84.696 o
-3 -5 7 73.781 75.091 5.815 41.658 o
-3 -5 8 88.319 85.792 6.310 32.935 o
-3 -5 9 36.906 46.636 5.629 62.067 o
-3 -5 10 31.429 33.336 5.320 73.263 o
-3 -5 11 10.898 8.537 4.516 115.126 o
-3 -5 12 12.114 5.691 5.938 67.192 o
-3 -4 -8 51.216 54.554 6.557 43.760 o
-3 -4 -7 35.716 32.841 5.011 79.108 o
-3 -4 -6 102.455 101.313 7.114 25.100 o
-3 -4 -5 29.113 24.682 4.330 108.795 o
-3 -4 -4 22.810 28.641 3.526 159.089 o
-3 -4 -3 61.854 82.390 4.887 54.211 o
-3 -4 -2 26.148 45.460 4.083 112.869 o
-3 -4 -1 109.333 107.313 5.382 30.018 o
-3 -4 0 20.860 38.161 3.712 142.470 o
-3 -4 1 395.864 375.448 11.630 3.043 o
-3 -4 3 24.017 53.564 3.526 137.995 o
-3 -4 4 217.054 209.065 7.299 9.534 o
-3 -4 6 324.383 306.481 9.959 4.470 o
-3 -4 7 133.869 132.675 6.804 19.475 o
-3 -4 8 40.162 48.244 5.134 69.956 o
-3 -4 9 45.291 49.914 5.505 60.304 o
-3 -4 10 13.650 13.423 4.268 126.143 o
-3 -4 11 0.367 -3.402 3.773 168.439 o
-3 -4 12 23.875 23.012 5.753 67.568 o
-3 -3 -9 3.153 2.041 3.340 214.301 o
-3 -3 -8 10.002 11.258 3.712 168.378 o
-3 -3 -7 50.728 55.605 5.753 53.392 o
-3 -3 -6 16.452 17.259 3.712 160.087 o
-3 -3 -5 0.767 1.670 2.413 411.731 o
-3 -3 -4 24.130 27.589 3.340 172.348 o
-3 -3 -2 298.180 317.863 9.403 4.904 o
-3 -3 -1 210.991 208.694 7.361 9.796 o
-3 -3 0 141.210 152.470 6.248 18.493 o
-3 -3 1 39.904 52.698 3.959 99.561 o
-3 -3 2 222.127 226.380 8.104 8.528 o
-3 -3 7 43.604 39.955 4.021 100.274 o
-3 -3 8 119.048 107.437 6.495 24.125 o
-3 -3 9 82.540 74.658 6.557 33.998 o
-3 -3 10 58.775 57.770 6.681 40.400 o
-3 -3 11 12.415 6.000 4.021 144.282 o
-3 -3 12 43.909 41.642 4.213 93.032 o
-3 -3 13 36.849 36.712 4.071 106.984 o
-3 -2 -11 57.239 58.018 6.248 45.000 o
-3 -2 -10 3.897 6.495 3.526 191.406 o
-3 -2 -9 243.699 254.154 10.825 6.299 o
-3 -2 -8 64.352 56.409 5.691 49.134 o
-3 -2 -7 62.714 50.595 5.196 57.307 o
-3 -2 -6 131.251 129.273 6.990 19.589 o
-3 -2 -5 213.278 197.250 6.619 10.413 o
-3 -2 -4 166.953 156.918 6.062 15.756 o
-3 -2 -3 84.272 86.658 4.639 45.474 o
-3 -2 -2 57.632 64.327 4.083 74.650 o
-3 -2 -1 140.535 133.170 5.629 21.050 o
-3 -2 0 141.188 136.449 5.753 20.468 o
-3 -2 1 38.270 38.346 3.650 122.074 o
-3 -2 2 121.086 114.551 5.567 26.072 o
-3 -2 3 14.306 15.650 2.907 255.367 o
-3 -2 4 25.590 29.940 3.526 153.874 o
-3 -2 5 70.823 67.111 4.639 56.548 o
-3 -2 6 79.030 72.183 5.072 46.898 o
-3 -2 7 46.714 48.395 4.330 84.476 o
-3 -2 8 34.231 32.840 2.909 179.272 o
-3 -2 9 22.334 23.534 2.752 244.722 o
-3 -2 10 35.003 37.599 3.443 137.822 o
-3 -2 11 77.145 78.990 4.651 50.263 o
-3 -2 12 33.213 37.112 3.856 119.871 o
-3 -2 13 14.944 17.140 4.268 124.408 o
-3 -1 -11 43.653 42.553 5.196 68.362 o
-3 -1 -10 67.294 75.709 6.310 39.311 o
-3 -1 -9 2.582 3.340 2.846 294.944 o
-3 -1 -8 65.567 58.946 5.444 51.083 o
-3 -1 -7 53.362 53.605 2.872 116.610 o
-3 -1 -6 339.400 312.871 6.790 4.635 o
-3 -1 -5 110.936 106.262 4.949 31.516 o
-3 -1 -4 152.224 129.149 5.382 20.141 o
-3 -1 -3 16.569 18.372 2.846 255.997 o
-3 -1 -2 52.636 58.946 4.206 78.327 o
-3 -1 -1 628.358 667.021 16.269 1.177 o
-3 -1 0 170.394 172.878 6.433 14.288 o
-3 -1 1 32.636 29.074 3.155 168.670 o
-3 -1 2 328.058 320.399 9.712 4.350 o
-3 -1 3 360.891 364.066 10.578 3.542 o
-3 -1 4 1.263 0.124 1.918 651.612 o
-3 -1 5 152.358 140.532 6.124 18.097 o
-3 -1 6 36.545 27.032 3.340 150.244 o
-3 -1 7 298.665 293.029 6.866 5.615 o
-3 -1 8 95.294 86.339 3.974 45.639 o
-3 -1 9 66.865 70.052 5.258 50.437 o
-3 -1 10 101.312 109.114 4.829 34.314 o
-3 -1 11 53.122 56.805 3.939 84.882 o
-3 -1 12 166.785 179.140 6.449 14.310 o
-3 -1 13 6.889 3.031 4.330 126.995 o
-3 0 -12 26.831 31.666 4.949 85.718 o
-3 0 -11 14.674 15.403 3.650 167.952 o
-3 0 -10 44.369 43.295 4.701 78.743 o
-3 0 -9 14.163 10.485 2.784 283.137 o
-3 0 -8 93.164 95.651 3.685 46.400 o
-3 0 -7 33.055 30.469 2.431 231.061 o
-3 0 -6 119.070 114.984 5.196 27.640 o
-3 0 -5 248.682 221.245 7.361 7.949 o
-3 0 -4 51.550 50.966 3.897 90.284 o
-3 0 -3 173.220 211.107 7.176 11.962 o
-3 0 -2 12.944 15.341 2.598 317.043 o
-3 0 -1 554.805 629.973 15.588 1.416 o
-3 0 0 414.731 415.897 11.320 2.752 o
-3 0 1 56.395 52.512 3.897 84.793 o
-3 0 2 110.219 94.941 4.763 34.086 o
-3 0 3 409.227 383.984 10.640 2.975 o
-3 0 4 103.999 96.055 4.763 35.796 o
-3 0 5 63.799 66.769 2.839 91.650 o
-3 0 6 54.353 56.864 2.883 111.806 o
-3 0 7 6.400 4.217 1.558 934.236 o
-3 0 8 211.383 197.362 5.636 11.099 o
-3 0 9 104.024 109.835 4.459 35.106 o
-3 0 10 46.271 49.851 3.444 111.127 o
-3 0 11 51.719 54.373 3.998 85.903 o
-3 0 12 6.633 0.742 4.021 147.490 o
-3 1 -12 4.464 4.825 3.031 258.496 o
-3 1 -11 29.494 34.821 4.206 109.454 o
-3 1 -10 64.563 64.929 3.320 82.490 o
-3 1 -9 27.832 28.540 2.483 250.788 o
-3 1 -8 122.741 128.480 4.198 28.330 o
-3 1 -7 260.835 250.325 6.310 7.369 o
-3 1 -6 70.525 71.441 4.392 58.594 o
-3 1 -5 116.489 104.591 5.258 29.153 o
-3 1 -4 185.492 187.229 6.866 12.205 o
-3 1 -3 225.668 237.267 7.918 8.271 o
-3 1 -2 240.231 243.515 7.980 7.616 o
-3 1 -1 54.467 60.368 4.021 80.196 o
-3 1 0 79.325 77.070 4.454 51.611 o
-3 1 1 56.417 50.966 3.897 85.509 o
-3 1 2 105.055 124.854 3.558 36.098 o
-3 1 3 237.114 216.726 5.089 9.415 o
-3 1 4 795.875 847.799 14.287 0.785 o
-3 1 5 65.110 63.710 2.950 89.721 o
-3 1 6 169.589 154.825 4.580 17.386 o
-3 1 7 83.277 83.807 3.686 54.969 o
-3 1 8 10.853 10.788 2.037 515.204 o
-3 1 9 92.223 91.135 4.118 44.948 o
-3 1 10 64.780 67.915 7.052 35.053 o
-3 1 11 134.821 134.840 9.464 14.276 o
-3 1 12 34.352 35.377 6.433 51.489 o
-3 2 -12 41.549 45.398 5.815 57.480 o
-3 2 -11 19.803 25.362 3.712 151.808 o
-3 2 -10 24.066 27.404 3.712 145.264 o
-3 2 -9 5.834 3.897 2.351 425.118 o
-3 2 -8 45.530 42.491 4.206 91.391 o
-3 2 -7 223.262 205.910 7.980 8.959 o
-3 2 -6 208.095 199.910 7.547 10.039 o
-3 2 -5 254.948 253.288 8.475 6.833 o
-3 2 -4 72.102 74.163 4.639 54.041 o
-3 2 -3 49.290 42.986 3.835 98.636 o
-3 2 -2 204.416 214.323 7.485 9.904 o
-3 2 -1 26.644 27.404 3.155 183.448 o
-3 2 0 41.708 41.006 3.897 106.085 o
-3 2 1 119.538 117.339 3.782 31.896 o
-3 2 2 186.294 215.370 5.226 12.426 o
-3 2 3 70.778 89.665 3.380 64.737 o
-3 2 4 148.747 155.492 4.533 20.170 o
-3 2 5 116.151 110.859 4.114 32.690 o
-3 2 6 18.253 21.205 2.325 342.488 o
-3 2 7 41.156 43.695 3.149 136.836 o
-3 2 8 14.999 15.695 2.323 374.996 o
-3 2 9 15.969 18.310 4.701 102.880 o
-3 2 10 25.736 26.847 5.691 67.889 o
-3 2 11 28.499 24.620 5.753 66.091 o
-3 3 -13 16.273 19.919 3.835 149.631 o
-3 3 -12 2.831 2.227 2.474 389.833 o
-3 3 -11 13.526 19.176 3.588 172.584 o
-3 3 -10 6.089 10.392 2.969 264.705 o
-3 3 -9 43.949 37.852 4.516 85.744 o
-3 3 -8 93.878 87.463 5.629 35.273 o
-3 3 -7 138.474 123.582 6.495 20.140 o
-3 3 -6 124.406 104.158 5.815 25.643 o
-3 3 -5 35.780 35.192 3.712 124.669 o
-3 3 -4 166.979 168.300 6.990 14.127 o
-3 3 -3 220.657 254.464 8.660 7.811 o
-3 3 -2 171.112 146.532 6.371 15.464 o
-3 3 -1 187.906 200.591 7.361 11.237 o
-3 3 0 163.953 166.957 4.806 17.073 o
-3 3 1 18.327 20.305 2.162 384.962 o
-3 3 2 107.915 101.288 3.697 38.765 o
-3 3 3 102.445 100.462 3.700 41.079 o
-3 3 4 38.302 40.688 2.698 172.853 o
-3 3 5 35.560 27.549 2.471 222.609 o
-3 3 6 46.280 45.587 2.932 135.163 o
-3 3 7 14.331 11.444 3.835 154.931 o
-3 3 8 5.259 8.660 3.712 171.904 o
-3 3 9 0.539 -1.052 3.402 207.188 o
-3 3 10 46.491 49.543 7.114 39.746 o
-3 4 -12 33.801 32.779 4.763 87.158 o
-3 4 -11 30.501 39.336 5.320 72.400 o
-3 4 -10 37.042 37.233 4.887 80.425 o
-3 4 -9 0.796 1.361 2.351 433.725 o
-3 4 -8 55.804 53.626 5.011 62.797 o
-3 4 -7 66.946 54.492 4.825 59.526 o
-3 4 -6 25.270 24.311 3.712 145.699 o
-3 4 -5 177.266 156.052 7.176 13.592 o
-3 4 -4 183.532 191.497 7.794 11.405 o
-3 4 -3 90.309 83.256 5.134 40.149 o
-3 4 -2 41.745 38.037 3.835 110.076 o
-3 4 -1 83.736 73.297 4.825 46.965 o
-3 4 0 28.160 28.509 2.669 226.899 o
-3 4 1 396.708 376.571 9.434 3.219 o
-3 4 2 0.909 1.509 1.407 1208.300 o
-3 4 3 133.641 136.693 4.856 23.559 o
-3 4 4 52.730 49.391 3.052 115.250 o
-3 4 5 3.416 1.388 1.395 1212.440 o
-3 4 6 3.011 1.175 2.907 282.905 o
-3 4 7 16.829 17.444 4.330 119.908 o
-3 4 8 4.019 8.908 3.712 172.381 o
-3 4 9 1.055 -0.990 3.464 199.828 o
-3 5 -12 21.442 23.939 4.639 101.348 o
-3 5 -11 7.566 9.526 3.526 188.494 o
-3 5 -10 46.325 48.862 5.877 54.344 o
-3 5 -9 38.059 40.078 5.196 71.654 o
-3 5 -8 0.389 0.680 2.351 433.973 o
-3 5 -7 30.258 25.486 4.083 118.651 o
-3 5 -6 61.640 62.348 5.134 55.935 o
-3 5 -5 215.674 185.311 8.351 9.517 o
-3 5 -4 110.592 116.901 6.433 24.937 o
-3 5 -3 263.889 229.782 9.031 6.725 o
-3 5 -2 44.204 39.089 4.145 96.054 o
-3 5 -1 2.008 6.371 2.289 453.356 o
-3 5 0 103.631 101.502 4.353 37.099 o
-3 5 1 1.928 5.420 1.679 838.365 o
-3 5 2 40.920 40.071 3.101 143.262 o
-3 5 3 45.016 45.819 6.588 45.904 o
-3 5 4 115.328 108.330 4.359 32.375 o
-3 5 5 51.640 56.224 6.557 43.457 o
-3 5 6 19.721 26.785 5.382 77.204 o
-3 5 7 0.906 -2.227 3.155 240.936 o
-3 5 8 18.345 17.073 5.320 80.790 o
-3 6 -11 35.647 35.501 5.320 71.025 o
-3 6 -10 33.334 36.181 5.320 71.869 o
-3 6 -9 66.351 77.936 6.681 36.394 o
-3 6 -8 8.916 13.300 3.588 179.828 o
-3 6 -7 30.928 30.682 4.701 91.517 o
-3 6 -6 26.864 34.388 4.949 85.014 o
-3 6 -5 19.834 15.155 3.526 172.879 o
-3 6 -4 27.650 25.300 4.145 118.197 o
-3 6 -3 36.830 36.367 4.516 91.561 o
-3 6 -2 50.562 47.811 4.701 73.268 o
-3 6 -1 62.666 61.234 5.011 57.391 o
-3 6 0 38.535 41.256 3.656 119.462 o
-3 6 1 14.119 14.620 2.392 363.356 o
-3 6 2 88.779 101.042 4.583 41.201 o
-3 6 3 66.299 66.744 3.896 70.074 o
-3 6 4 127.147 122.902 9.341 15.429 o
-3 6 5 138.049 131.500 9.774 13.693 o
-3 6 6 93.655 95.684 9.155 19.626 o
-3 7 -10 12.006 8.104 3.464 191.956 o
-3 7 -9 63.524 73.792 6.866 36.076 o
-3 7 -8 12.157 12.929 3.897 151.294 o
-3 7 -7 41.585 59.750 6.062 51.533 o
-3 7 -6 35.649 35.501 5.444 68.330 o
-3 7 -5 27.871 31.294 4.763 91.128 o
-3 7 -4 2.353 3.526 2.660 337.430 o
-3 7 -3 9.491 7.918 3.093 241.937 o
-3 7 -2 19.864 18.063 3.835 147.049 o
-3 7 -1 16.495 19.238 3.897 145.400 o
-3 7 0 17.677 26.205 3.374 181.719 o
-3 7 1 157.176 150.677 6.018 17.147 o
-3 7 2 59.855 48.852 4.052 79.850 o
-3 7 3 54.375 76.328 8.104 29.218 o
-3 7 4 20.316 23.012 5.877 65.752 o
-3 8 -7 49.928 44.594 6.371 47.401 o
-3 8 -6 109.278 97.292 7.609 22.688 o
-3 8 -5 95.421 91.360 7.238 26.486 o
-3 8 -4 13.125 12.124 3.650 170.994 o
-3 8 -3 3.234 1.732 2.722 322.344 o
-3 8 -2 56.302 50.223 5.444 56.644 o
-3 8 -1 18.770 23.321 4.392 113.856 o
-3 8 0 16.018 16.021 3.588 171.563 o
-2 -8 1 0.264 4.021 2.474 391.099 o
-2 -8 2 93.861 92.350 7.671 24.870 o
-2 -8 3 94.601 100.076 7.609 24.473 o
-2 -8 4 165.076 164.156 9.217 11.869 o
-2 -8 5 147.607 140.160 8.413 14.838 o
-2 -8 6 31.497 41.068 5.629 65.035 o
-2 -7 -3 2.809 4.330 2.907 282.152 o
-2 -7 -2 36.568 34.326 4.825 83.231 o
-2 -7 -1 59.265 51.956 5.320 56.789 o
-2 -7 0 25.140 28.455 4.330 110.415 o
-2 -7 3 24.959 26.290 4.578 101.035 o
-2 -7 4 67.452 64.637 5.815 45.341 o
-2 -7 5 60.996 53.626 5.505 53.187 o
-2 -7 6 89.961 86.968 6.681 30.446 o
-2 -7 7 15.123 15.774 3.773 157.232 o
-2 -7 8 12.806 19.300 4.392 118.401 o
-2 -7 9 8.595 14.228 4.021 144.130 o
-2 -7 10 39.995 48.924 6.619 46.322 o
-2 -6 -5 140.365 128.407 8.165 16.326 o
-2 -6 -4 67.834 65.998 6.124 42.078 o
-2 -6 -3 16.502 21.032 3.959 140.476 o
-2 -6 -2 2.934 6.133 3.062 253.930 o
-2 -6 -1 56.828 52.822 5.134 60.496 o
-2 -6 3 32.517 30.806 4.516 96.730 o
-2 -6 4 5.157 2.722 2.536 368.195 o
-2 -6 5 34.349 32.655 4.454 96.862 o
-2 -6 6 72.923 70.142 5.938 41.619 o
-2 -6 7 43.837 43.543 5.320 65.612 o
-2 -6 8 35.458 36.553 5.011 78.271 o
-2 -6 9 53.087 59.564 6.310 45.271 o
-2 -6 10 20.640 24.372 5.258 80.719 o
-2 -6 11 55.121 49.543 6.743 41.566 o
-2 -5 -7 2.676 4.268 3.340 214.091 o
-2 -5 -6 1.239 -0.433 2.907 283.637 o
-2 -5 -5 17.340 26.290 4.330 116.812 o
-2 -5 -4 31.159 35.254 4.578 93.990 o
-2 -5 -3 76.653 76.998 3.433 64.463 o
-2 -5 -2 51.883 54.244 3.650 94.843 o
-2 -5 3 120.502 111.829 6.186 24.489 o
-2 -5 4 54.362 58.389 4.639 68.701 o
-2 -5 5 9.414 11.444 2.846 280.964 o
-2 -5 6 215.149 189.641 8.413 9.406 o
-2 -5 7 93.507 90.184 6.371 30.976 o
-2 -5 8 26.574 31.604 4.701 93.888 o
-2 -5 9 44.020 42.862 5.567 61.170 o
-2 -5 10 28.165 25.424 5.320 76.127 o
-2 -5 11 38.752 33.460 5.877 59.312 o
-2 -5 12 15.227 10.949 5.196 86.205 o
-2 -4 -9 82.992 79.421 7.299 29.196 o
-2 -4 -8 9.527 12.434 4.021 144.112 o
-2 -4 -7 21.673 27.775 4.639 100.146 o
-2 -4 -6 20.290 22.888 4.206 122.212 o
-2 -4 -5 4.500 4.887 2.846 292.863 o
-2 -4 -4 160.318 148.449 7.485 14.851 o
-2 -4 -3 136.002 142.264 5.320 21.692 o
-2 -4 -2 170.344 162.918 5.815 15.436 o
-2 -4 3 31.397 28.084 3.093 177.329 o
-2 -4 4 35.452 35.810 3.340 144.336 o
-2 -4 5 222.308 202.199 7.732 9.213 o
-2 -4 6 35.875 38.285 4.145 104.364 o
-2 -4 7 233.525 216.853 8.846 7.930 o
-2 -4 8 158.277 152.718 8.165 13.925 o
-2 -4 9 14.775 21.032 4.454 113.865 o
-2 -4 10 32.161 43.852 5.938 58.677 o
-2 -4 11 61.941 63.523 7.176 35.103 o
-2 -4 12 11.771 10.145 5.258 85.077 o
-2 -4 13 12.807 10.825 5.505 77.501 o
-2 -3 -10 1.293 3.402 3.526 192.646 o
-2 -3 -9 63.229 55.791 5.938 46.856 o
-2 -3 -8 76.725 74.534 6.433 36.174 o
-2 -3 -7 34.046 35.254 4.763 86.251 o
-2 -3 -6 88.472 82.205 5.877 35.944 o
-2 -3 -5 10.862 10.145 2.907 268.285 o
-2 -3 -4 22.118 22.702 3.464 169.522 o
-2 -3 -2 314.335 335.617 8.908 4.568 o
-2 -3 -1 119.897 123.830 4.763 27.867 o
-2 -3 3 147.464 160.073 5.815 18.027 o
-2 -3 4 72.125 72.616 4.083 61.165 o
-2 -3 5 230.396 274.753 8.598 7.197 o
-2 -3 6 453.116 433.651 12.619 2.352 o
-2 -3 7 41.527 38.841 4.268 94.647 o
-2 -3 8 3.919 5.444 2.969 269.453 o
-2 -3 9 34.923 37.666 4.887 81.516 o
-2 -3 10 46.986 56.224 6.371 46.653 o
-2 -3 11 24.251 21.156 5.072 85.487 o
-2 -3 12 30.143 32.470 6.186 56.580 o
-2 -3 13 34.685 33.274 6.495 50.772 o
-2 -2 -11 4.062 10.145 4.083 142.519 o
-2 -2 -10 5.579 8.598 3.526 190.053 o
-2 -2 -9 16.916 14.228 4.516 111.559 o
-2 -2 -8 34.718 30.558 4.330 101.873 o
-2 -2 -7 121.788 112.447 6.557 23.117 o
-2 -2 -6 75.034 97.972 5.815 37.888 o
-2 -2 -5 200.230 202.508 7.856 10.163 o
-2 -2 -4 36.793 41.068 2.784 170.705 o
-2 -2 -3 17.970 16.393 2.289 366.093 o
-2 -2 -2 61.080 70.823 3.464 80.344 o
-2 -2 -1 204.277 275.372 7.609 8.502 o
-2 -2 4 112.127 118.510 4.763 30.358 o
-2 -2 5 31.397 39.522 3.650 130.786 o
-2 -2 6 158.886 151.357 6.248 16.595 o
-2 -2 7 369.244 355.158 11.197 3.433 o
-2 -2 8 439.892 430.063 13.609 2.380 o
-2 -2 9 56.703 57.647 6.124 46.545 o
-2 -2 10 14.975 12.557 4.206 129.222 o
-2 -2 11 15.048 10.825 4.330 122.662 o
-2 -2 12 111.975 108.303 9.217 17.396 o
-2 -2 13 25.172 31.214 5.224 78.691 o
-2 -1 -12 26.313 34.140 5.134 80.027 o
-2 -1 -11 10.874 8.289 3.712 168.804 o
-2 -1 -10 2.055 10.949 3.340 212.869 o
-2 -1 -9 56.737 54.182 5.320 57.413 o
-2 -1 -8 58.860 50.718 5.072 60.982 o
-2 -1 -7 119.621 122.840 6.371 23.187 o
-2 -1 -6 27.368 40.635 3.959 119.719 o
-2 -1 -5 33.392 34.463 3.678 130.079 o
-2 -1 -4 145.138 136.820 4.639 22.012 o
-2 -1 -3 55.826 69.338 3.526 85.248 o
-2 -1 -1 178.991 187.043 5.753 13.667 o
-2 -1 1 207.172 203.189 6.310 10.774 o
-2 -1 2 484.254 510.969 12.557 1.987 o
-2 -1 3 254.743 274.320 7.918 6.715 o
-2 -1 4 313.461 334.627 9.031 4.571 o
-2 -1 5 57.287 62.966 4.021 76.685 o
-2 -1 6 106.438 98.034 5.196 32.705 o
-2 -1 7 312.468 280.253 9.712 4.924 o
-2 -1 8 213.005 213.828 8.970 8.668 o
-2 -1 9 223.236 233.025 6.450 9.122 o
-2 -1 10 81.287 86.182 4.165 51.017 o
-2 -1 11 86.884 87.122 5.413 38.733 o
-2 -1 12 9.106 10.751 2.426 381.515 o
-2 -1 13 62.394 73.297 8.537 26.160 o
-2 0 -12 54.951 63.399 6.619 41.205 o
-2 0 -11 20.835 25.857 4.206 120.644 o
-2 0 -10 4.952 5.938 2.969 268.374 o
-2 0 -9 77.875 75.338 5.320 44.498 o
-2 0 -8 156.146 149.672 4.132 20.093 o
-2 0 -7 113.093 113.345 3.448 35.718 o
-2 0 -6 199.529 212.616 4.764 11.871 o
-2 0 -5 8.998 10.101 1.409 1014.660 o
-2 0 -4 139.108 141.831 4.887 22.114 o
-2 0 -3 329.735 347.240 8.846 4.252 o
-2 0 -2 545.361 500.886 11.877 1.770 o
-2 0 -1 297.944 267.268 7.238 5.857 o
-2 0 0 64.158 59.255 3.217 88.140 o
-2 0 1 100.729 109.107 4.145 37.824 o
-2 0 2 176.561 176.280 5.444 14.627 o
-2 0 3 134.129 128.956 3.297 27.728 o
-2 0 4 82.972 76.931 2.752 66.908 o
-2 0 5 215.762 230.127 5.248 10.104 o
-2 0 6 13.704 10.867 1.670 686.874 o
-2 0 7 114.316 110.237 3.743 34.733 o
-2 0 8 72.705 74.265 3.804 63.780 o
-2 0 9 81.442 81.237 5.227 42.914 o
-2 0 10 72.432 70.958 5.258 47.993 o
-2 0 11 41.578 37.913 5.877 57.708 o
-2 0 12 2.941 0.990 3.835 162.802 o
-2 0 13 6.552 7.485 4.763 104.775 o
-2 1 -13 145.780 173.991 8.722 13.327 o
-2 1 -12 3.237 7.052 3.031 258.578 o
-2 1 -11 22.079 23.321 3.835 141.985 o
-2 1 -10 90.979 83.615 3.522 51.897 o
-2 1 -9 41.755 35.633 2.508 183.164 o
-2 1 -8 86.057 79.530 3.125 59.778 o
-2 1 -7 87.413 76.820 2.927 61.624 o
-2 1 -6 156.110 167.619 4.132 18.820 o
-2 1 -5 172.446 194.925 4.456 15.034 o
-2 1 -4 45.377 54.182 3.526 106.587 o
-2 1 -3 170.663 165.269 5.691 15.433 o
-2 1 -2 124.159 134.222 4.825 25.672 o
-2 1 -1 276.690 260.835 7.176 6.495 o
-2 1 0 188.860 195.827 5.877 12.478 o
-2 1 1 182.798 184.842 4.002 14.874 o
-2 1 2 446.315 479.920 8.346 2.466 o
-2 1 3 497.925 533.438 9.380 1.984 o
-2 1 4 130.968 129.743 3.636 27.645 o
-2 1 5 103.014 90.531 3.104 46.308 o
-2 1 6 49.697 41.027 2.378 158.767 o
-2 1 7 238.535 229.263 5.551 8.884 o
-2 1 8 18.589 16.632 1.965 456.766 o
-2 1 9 42.918 51.151 6.124 51.579 o
-2 1 10 22.225 15.465 4.392 114.152 o
-2 1 11 26.793 29.136 5.629 68.589 o
-2 1 12 70.690 82.514 8.660 24.219 o
-2 2 -13 2.384 -0.495 2.969 271.701 o
-2 2 -12 38.845 41.425 3.072 147.680 o
-2 2 -11 19.084 19.609 3.217 200.750 o
-2 2 -10 41.640 28.270 3.464 133.507 o
-2 2 -9 94.887 81.957 5.011 39.644 o
-2 2 -8 45.968 44.099 3.835 101.715 o
-2 2 -7 0.688 1.608 1.732 798.319 o
-2 2 -6 49.658 44.965 3.588 104.958 o
-2 2 -5 207.752 218.895 7.299 9.742 o
-2 2 -4 80.325 79.668 4.268 52.252 o
-2 2 -3 65.725 77.565 4.083 63.771 o
-2 2 -2 253.577 251.371 7.547 7.208 o
-2 2 -1 8.798 11.444 2.041 524.653 o
-2 2 0 154.717 148.148 4.578 19.770 o
-2 2 1 90.265 105.464 6.371 30.054 o
-2 2 2 548.069 603.317 10.532 1.604 o
-2 2 3 574.334 654.112 11.379 1.421 o
-2 2 4 31.523 40.888 2.277 231.435 o
-2 2 5 87.463 97.715 4.639 41.963 o
-2 2 6 212.811 237.019 9.588 7.931 o
-2 2 7 19.012 19.795 4.021 134.971 o
-2 2 8 158.308 159.825 8.846 12.822 o
-2 2 9 8.067 9.526 3.959 150.000 o
-2 2 10 9.848 10.083 4.083 140.309 o
-2 2 11 11.485 12.990 4.887 97.888 o
-2 2 12 37.684 38.965 6.866 44.903 o
-2 3 -13 33.895 29.445 4.145 110.477 o
-2 3 -12 49.642 61.729 5.134 61.833 o
-2 3 -11 34.955 39.769 4.639 87.883 o
-2 3 -10 23.712 25.362 3.712 147.005 o
-2 3 -9 59.179 56.904 4.701 65.128 o
-2 3 -8 182.436 173.806 7.423 12.351 o
-2 3 -7 218.126 182.837 7.485 10.004 o
-2 3 -6 69.060 60.368 4.206 65.568 o
-2 3 -5 183.039 178.445 6.990 12.558 o
-2 3 -4 115.397 125.933 5.567 26.072 o
-2 3 -3 1007.230 1038.880 24.187 0.475 o
-2 3 -2 37.306 45.398 3.526 124.037 o
-2 3 -1 102.074 112.695 4.949 33.031 o
-2 3 0 23.124 25.031 2.078 355.186 o
-2 3 1 14.309 18.483 1.902 512.257 o
-2 3 2 423.299 414.431 8.244 2.889 o
-2 3 3 405.382 422.501 8.233 3.010 o
-2 3 4 29.487 25.080 1.965 330.838 o
-2 3 5 2.378 1.724 1.088 1990.940 o
-2 3 6 26.820 20.042 4.021 127.781 o
-2 3 7 12.201 14.042 3.959 146.403 o
-2 3 8 80.093 77.380 6.990 31.594 o
-2 3 9 3.684 4.825 3.712 173.208 o
-2 3 10 26.405 23.878 5.629 69.505 o
-2 3 11 77.106 72.369 8.722 23.821 o
-2 4 -13 34.926 39.151 5.072 76.321 o
-2 4 -12 3.226 5.011 2.784 307.022 o
-2 4 -11 72.150 78.802 6.000 40.065 o
-2 4 -10 23.640 19.671 3.650 155.046 o
-2 4 -9 64.915 63.956 5.382 51.069 o
-2 4 -8 119.453 108.303 6.371 24.378 o
-2 4 -7 207.600 215.251 8.598 9.069 o
-2 4 -6 14.569 11.444 2.784 280.900 o
-2 4 -5 71.768 63.647 4.516 58.544 o
-2 4 -4 245.621 241.844 8.660 7.211 o
-2 4 -3 101.585 100.076 5.134 34.049 o
-2 4 -2 424.563 434.641 12.248 2.552 o
-2 4 -1 38.214 38.701 5.289 69.870 o
-2 4 0 92.140 86.240 3.478 50.842 o
-2 4 1 6.312 8.177 1.613 853.572 o
-2 4 2 33.317 37.452 2.449 214.339 o
-2 4 3 671.422 683.161 12.691 1.127 o
-2 4 4 550.799 558.050 11.970 1.639 o
-2 4 5 29.399 27.589 4.639 95.547 o
-2 4 6 29.916 28.022 4.763 90.892 o
-2 4 7 15.574 13.485 3.835 153.112 o
-2 4 8 13.131 8.289 3.773 161.934 o
-2 4 9 264.562 269.990 13.795 4.832 o
-2 4 10 8.649 10.516 5.011 94.140 o
-2 5 -12 193.135 207.148 10.083 8.868 o
-2 5 -11 16.101 17.011 3.959 142.469 o
-2 5 -10 139.183 137.686 7.856 16.576 o
-2 5 -9 2.219 4.701 2.722 322.006 o
-2 5 -8 30.546 27.898 4.268 108.947 o
-2 5 -7 211.651 219.018 9.279 8.449 o
-2 5 -6 67.022 58.265 5.011 55.994 o
-2 5 -5 67.815 69.771 5.072 52.193 o
-2 5 -4 190.567 176.527 7.732 11.483 o
-2 5 -3 30.913 38.718 4.392 99.372 o
-2 5 -2 193.568 199.786 7.794 10.618 o
-2 5 -1 13.659 12.631 3.279 208.305 o
-2 5 0 125.663 117.324 4.382 28.436 o
-2 5 1 120.039 116.399 4.345 30.060 o
-2 5 2 106.231 102.077 7.327 23.720 o
-2 5 3 64.191 64.778 3.619 77.418 o
-2 5 4 145.427 142.111 4.654 21.508 o
-2 5 5 126.260 129.521 8.908 16.063 o
-2 5 6 10.959 11.939 3.897 152.403 o
-2 5 7 18.832 21.898 5.196 83.565 o
-2 5 8 1.581 8.227 4.145 139.121 o
-2 6 -12 1.417 3.835 3.279 222.689 o
-2 6 -11 122.909 123.149 8.227 18.041 o
-2 6 -10 0.984 -2.165 2.413 411.948 o
-2 6 -9 24.344 21.465 4.268 116.555 o
-2 6 -8 7.039 5.134 2.722 316.195 o
-2 6 -7 71.543 63.276 5.629 46.034 o
-2 6 -6 180.713 169.785 8.413 11.641 o
-2 6 -5 83.662 82.699 5.877 37.185 o
-2 6 -4 75.593 75.091 5.567 43.185 o
-2 6 -3 59.962 49.605 4.639 67.942 o
-2 6 -2 43.817 44.409 4.887 74.394 o
-2 6 -1 172.768 175.685 5.944 14.488 o
-2 6 0 1.964 2.297 2.010 590.679 o
-2 6 1 28.480 30.790 2.972 191.474 o
-2 6 2 10.037 8.549 1.863 620.617 o
-2 6 3 10.334 9.060 1.795 657.582 o
-2 6 4 113.324 123.273 8.784 17.655 o
-2 6 5 26.545 20.228 4.949 88.610 o
-2 6 6 49.680 36.862 6.310 49.242 o
-2 7 -10 16.985 17.444 4.454 113.646 o
-2 7 -9 39.081 38.965 5.815 59.385 o
-2 7 -8 5.086 6.495 3.031 257.317 o
-2 7 -7 32.573 32.099 4.949 82.638 o
-2 7 -6 115.359 114.118 7.238 21.927 o
-2 7 -5 59.347 59.255 5.444 53.522 o
-2 7 -4 8.364 5.691 2.722 313.550 o
-2 7 -3 13.164 13.856 3.402 194.211 o
-2 7 -2 37.263 43.233 5.011 75.533 o
-2 7 -1 1.326 5.096 3.990 150.386 o
-2 7 0 23.093 28.001 3.099 195.959 o
-2 7 1 35.513 34.173 3.311 147.424 o
-2 7 2 19.677 17.995 2.506 305.303 o
-2 7 3 18.436 18.558 5.072 88.168 o
-2 7 4 5.424 -0.433 3.650 179.296 o
-2 8 -8 13.287 15.650 4.268 125.749 o
-2 8 -7 7.818 5.877 3.402 203.301 o
-2 8 -6 7.301 8.846 3.464 195.568 o
-2 8 -5 82.919 80.349 6.619 32.917 o
-2 8 -4 59.710 59.997 5.815 48.707 o
-2 8 -3 26.590 31.604 4.825 89.739 o
-2 8 -2 38.483 44.532 5.444 65.336 o
-2 8 -1 60.869 60.925 5.444 52.566 o
-2 8 0 6.745 7.013 2.228 464.374 o
-2 8 1 34.725 40.883 7.299 40.571 o
-1 -8 0 6.963 9.959 3.031 253.501 o
-1 -8 3 55.967 60.306 6.433 43.130 o
-1 -8 4 8.280 11.135 3.588 181.144 o
-1 -8 5 26.347 21.836 4.454 106.597 o
-1 -8 6 123.238 126.056 8.475 17.337 o
-1 -8 7 0.661 8.722 3.588 185.620 o
-1 -8 8 3.922 4.639 3.464 198.627 o
-1 -7 -4 17.104 25.115 4.578 105.930 o
-1 -7 -3 117.795 121.170 7.609 20.172 o
-1 -7 -2 19.881 23.939 4.021 132.418 o
-1 -7 -1 99.161 93.209 6.124 30.653 o
-1 -7 0 24.056 26.290 3.897 134.430 o
-1 -7 1 45.674 43.295 4.206 90.904 o
-1 -7 3 25.751 35.687 5.505 70.636 o
-1 -7 4 132.158 130.387 7.980 17.335 o
-1 -7 5 27.419 31.789 4.949 85.391 o
-1 -7 6 5.562 8.351 3.402 203.993 o
-1 -7 7 66.825 69.152 6.557 38.246 o
-1 -7 8 22.302 20.970 4.578 104.208 o
-1 -7 9 12.590 12.062 4.083 138.368 o
-1 -7 10 9.901 6.681 3.959 149.808 o
-1 -6 -6 9.303 10.516 3.835 158.667 o
-1 -6 -5 23.656 30.620 4.825 91.569 o
-1 -6 -4 86.287 71.750 6.186 35.861 o
-1 -6 -3 9.179 7.609 3.031 252.175 o
-1 -6 -2 15.923 20.352 3.588 169.156 o
-1 -6 -1 95.275 92.411 5.691 33.891 o
-1 -6 0 24.865 31.542 3.959 127.306 o
-1 -6 3 7.293 3.712 2.536 363.781 o
-1 -6 4 47.374 50.595 5.196 64.602 o
-1 -6 5 45.739 43.976 5.134 68.222 o
-1 -6 6 81.858 81.957 6.557 33.346 o
-1 -6 7 50.876 49.790 5.815 53.512 o
-1 -6 8 19.555 26.538 4.949 90.315 o
-1 -6 9 9.524 5.196 3.712 170.614 o
-1 -6 10 38.327 38.470 6.000 56.623 o
-1 -6 11 83.432 89.937 8.908 21.615 o
-1 -6 12 70.854 78.617 8.784 23.882 o
-1 -5 -8 20.869 17.073 4.639 103.458 o
-1 -5 -7 2.972 0.371 3.155 240.512 o
-1 -5 -6 4.745 6.619 3.093 247.491 o
-1 -5 -5 9.742 9.341 3.279 215.158 o
-1 -5 -4 123.776 111.396 6.681 22.543 o
-1 -5 -3 107.866 105.024 6.186 27.385 o
-1 -5 -2 285.748 277.228 9.464 5.515 o
-1 -5 -1 48.182 40.697 4.083 93.420 o
-1 -5 3 329.822 307.285 10.949 4.222 o
-1 -5 4 116.373 104.839 6.000 26.463 o
-1 -5 5 116.598 108.798 6.310 25.016 o
-1 -5 6 2.451 0.495 2.413 411.093 o
-1 -5 7 90.539 71.998 6.371 33.640 o
-1 -5 8 31.197 31.109 4.949 83.624 o
-1 -5 9 30.028 34.759 5.505 69.279 o
-1 -5 10 41.982 35.625 5.629 62.226 o
-1 -5 11 0.583 -0.495 4.083 143.882 o
-1 -5 12 2.958 2.969 4.701 108.328 o
-1 -5 13 49.312 51.213 7.980 32.219 o
-1 -4 -9 40.839 52.512 6.310 49.510 o
-1 -4 -8 12.411 13.362 3.835 155.657 o
-1 -4 -7 19.169 22.331 4.083 130.115 o
-1 -4 -6 14.094 13.485 3.526 180.806 o
-1 -4 -5 12.598 14.970 3.402 194.222 o
-1 -4 -4 26.309 25.857 3.650 147.392 o
-1 -4 -3 382.965 350.951 10.887 3.348 o
-1 -4 -2 4.181 4.516 2.227 475.990 o
-1 -4 3 82.220 81.586 4.763 46.389 o
-1 -4 4 49.631 37.542 3.650 107.593 o
-1 -4 5 603.676 597.868 16.578 1.306 o
-1 -4 6 322.823 324.420 11.011 4.191 o
-1 -4 7 73.416 67.296 5.567 45.276 o
-1 -4 8 41.927 50.966 5.505 61.461 o
-1 -4 9 23.375 24.558 4.763 95.458 o
-1 -4 10 18.589 13.733 4.578 108.052 o
-1 -4 11 122.353 113.252 9.031 16.774 o
-1 -4 12 10.781 11.382 5.134 89.221 o
-1 -4 13 43.344 42.491 7.732 35.380 o
-1 -3 -11 32.109 25.981 5.382 72.981 o
-1 -3 -10 38.260 33.893 5.382 68.906 o
-1 -3 -9 29.144 30.435 4.763 90.639 o
-1 -3 -8 43.144 38.161 4.763 79.651 o
-1 -3 -7 42.880 47.996 5.196 67.416 o
-1 -3 -6 90.496 74.967 5.691 37.597 o
-1 -3 -5 64.456 77.380 5.196 50.600 o
-1 -3 -3 133.211 148.140 6.310 19.628 o
-1 -3 3 230.919 267.392 8.537 7.317 o
-1 -3 4 146.887 175.290 6.619 16.067 o
-1 -3 5 24.733 21.094 3.217 188.354 o
-1 -3 6 278.928 270.733 9.403 5.745 o
-1 -3 7 295.119 286.500 10.392 5.034 o
-1 -3 8 441.089 436.806 14.166 2.318 o
-1 -3 9 1.503 0.371 3.155 240.841 o
-1 -3 10 14.943 13.795 4.516 112.567 o
-1 -3 11 0.659 1.918 4.021 148.303 o
-1 -3 12 50.904 54.182 7.238 37.448 o
-1 -3 13 30.463 35.192 6.928 45.746 o
-1 -2 -12 11.340 12.434 4.392 120.639 o
-1 -2 -11 16.191 16.145 4.516 111.446 o
-1 -2 -10 54.009 61.544 6.433 43.473 o
-1 -2 -9 60.353 57.152 5.877 48.260 o
-1 -2 -8 74.162 63.894 5.444 46.825 o
-1 -2 -7 220.058 218.771 8.598 8.504 o
-1 -2 -6 80.059 77.565 5.196 44.349 o
-1 -2 -5 244.469 243.638 8.351 7.335 o
-1 -2 -4 172.691 171.950 6.557 14.003 o
-1 -2 -3 216.500 225.266 7.423 9.126 o
-1 -2 -2 247.635 344.518 8.104 5.941 o
-1 -2 2 8.768 8.660 1.546 881.590 o
-1 -2 3 1153.260 1277.570 29.012 0.343 o
-1 -2 4 692.991 809.965 19.486 0.891 o
-1 -2 5 161.990 198.178 7.238 13.101 o
-1 -2 6 67.145 80.040 5.072 50.229 o
-1 -2 7 139.181 146.470 6.928 17.830 o
-1 -2 8 54.240 54.987 5.444 56.511 o
-1 -2 9 321.892 334.008 12.434 3.913 o
-1 -2 10 10.369 13.733 4.268 127.657 o
-1 -2 11 3.443 5.877 4.083 143.216 o
-1 -2 12 22.460 25.300 5.753 67.637 o
-1 -2 13 7.683 10.145 5.258 85.783 o
-1 -2 14 31.076 25.300 6.743 48.818 o
-1 -1 -12 1.848 6.495 3.712 173.477 o
-1 -1 -11 15.690 13.547 4.021 139.972 o
-1 -1 -10 17.861 18.867 3.959 140.240 o
-1 -1 -9 29.433 27.775 4.083 118.342 o
-1 -1 -8 41.425 37.047 4.021 104.017 o
-1 -1 -7 164.715 167.681 6.866 14.483 o
-1 -1 -6 19.759 17.135 2.846 248.912 o
-1 -1 -5 78.412 76.513 4.454 52.213 o
-1 -1 -4 90.216 82.143 4.206 47.267 o
-1 -1 -3 187.130 214.385 6.557 11.471 o
-1 -1 -2 333.717 391.222 8.660 3.918 o
-1 -1 -1 105.647 122.840 3.526 36.368 o
-1 -1 3 480.369 486.163 11.939 2.093 o
-1 -1 4 429.846 418.062 11.011 2.654 o
-1 -1 5 23.474 30.620 3.217 181.270 o
-1 -1 6 95.933 100.076 5.505 33.703 o
-1 -1 7 63.335 58.389 5.072 56.908 o
-1 -1 8 61.822 67.668 5.629 48.717 o
-1 -1 9 95.515 97.478 7.052 26.759 o
-1 -1 10 109.749 110.654 8.165 20.168 o
-1 -1 11 37.802 49.852 6.743 45.246 o
-1 -1 12 8.578 3.031 4.268 130.251 o
-1 -1 13 34.774 37.109 6.743 47.105 o
-1 0 -13 45.213 58.513 6.371 46.817 o
-1 0 -12 8.658 17.135 4.021 143.306 o
-1 0 -11 4.031 2.103 2.784 307.552 o
-1 0 -10 157.246 146.717 7.547 15.092 o
-1 0 -9 14.607 13.980 3.279 205.991 o
-1 0 -8 258.320 246.484 8.537 6.813 o
-1 0 -7 71.113 71.785 2.505 84.970 o
-1 0 -6 469.914 459.328 8.255 2.383 o
-1 0 -5 121.329 135.790 3.269 30.229 o
-1 0 -4 209.878 226.825 4.446 10.894 o
-1 0 -3 16.384 14.104 1.794 561.518 o
-1 0 -2 234.286 244.133 6.371 8.443 o
-1 0 -1 3453.120 3294.160 66.740 0.044 o
-1 0 0 399.779 365.921 8.351 3.327 o
-1 0 1 746.778 793.201 16.393 0.864 o
-1 0 2 592.166 604.553 10.423 1.460 o
-1 0 3 165.728 147.412 3.266 19.890 o
-1 0 4 188.792 173.434 6.186 13.049 o
-1 0 5 7.972 7.671 2.351 414.025 o
-1 0 6 68.152 75.215 5.134 50.169 o
-1 0 7 175.972 173.063 7.794 12.435 o
-1 0 8 13.734 16.284 1.719 619.513 o
-1 0 9 45.515 42.592 2.578 157.741 o
-1 0 10 32.099 28.765 5.011 82.000 o
-1 0 11 109.345 117.273 8.846 18.121 o
-1 0 12 40.076 44.161 6.743 45.363 o
-1 0 13 1.033 -0.742 4.145 139.607 o
-1 1 -13 37.032 45.584 5.444 65.719 o
-1 1 -12 50.189 58.203 5.877 51.480 o
-1 1 -11 11.951 13.444 2.907 262.940 o
-1 1 -10 90.939 81.996 3.373 53.590 o
-1 1 -9 258.711 238.230 5.586 7.866 o
-1 1 -8 52.222 49.142 2.553 134.553 o
-1 1 -7 457.920 446.338 8.069 2.513 o
-1 1 -6 104.088 98.805 2.996 44.294 o
-1 1 -5 951.359 959.143 41.010 0.428 o
-1 1 -4 128.709 118.200 4.392 27.594 o
-1 1 -2 198.639 233.060 6.000 10.591 o
-1 1 -1 702.758 730.358 15.588 0.987 o
-1 1 0 3501.990 3540.230 155.869 0.031 o
-1 1 1 3034.520 3131.070 46.501 0.056 o
-1 1 2 1062.440 1023.620 21.060 0.462 o
-1 1 3 111.042 112.342 2.814 38.981 o
-1 1 4 190.692 210.740 4.370 12.815 o
-1 1 5 53.619 51.399 4.330 77.837 o
-1 1 7 247.645 229.163 9.341 7.079 o
-1 1 8 244.257 238.133 10.331 6.666 o
-1 1 9 10.942 8.970 3.526 186.083 o
-1 1 10 3.909 2.227 3.217 230.716 o
-1 1 11 20.285 20.723 5.011 89.136 o
-1 1 12 58.779 57.894 7.485 33.885 o
-1 2 -13 3.008 4.763 3.340 213.875 o
-1 2 -12 23.196 24.269 2.607 260.982 o
-1 2 -11 21.873 22.944 2.395 304.827 o
-1 2 -10 30.806 29.928 2.657 216.550 o
-1 2 -9 101.625 94.508 5.134 34.831 o
-1 2 -8 23.953 23.197 2.907 220.516 o
-1 2 -7 62.797 59.935 3.959 74.548 o
-1 2 -6 151.721 135.335 5.567 19.455 o
-1 2 -5 199.643 192.240 6.557 11.382 o
-1 2 -4 585.736 593.847 14.475 1.408 o
-1 2 -3 338.823 380.396 9.836 3.787 o
-1 2 -2 197.021 201.457 6.124 11.559 o
-1 2 -1 3.998 5.691 1.423 1134.500 o
-1 2 0 481.942 535.124 9.247 2.063 o
-1 2 1 1330.920 1368.850 21.282 0.291 o
-1 2 2 803.234 797.487 12.936 0.817 o
-1 2 3 292.275 308.089 9.836 5.011 o
-1 2 4 3.642 1.608 2.103 537.584 o
-1 2 5 30.370 29.631 3.959 122.441 o
-1 2 6 124.047 115.355 6.743 22.048 o
-1 2 7 21.017 11.939 3.279 197.477 o
-1 2 8 61.404 69.338 6.310 41.705 o
-1 2 9 43.517 38.408 5.753 59.017 o
-1 2 10 4.309 3.279 3.217 230.285 o
-1 2 11 59.851 55.048 7.238 35.786 o
-1 2 12 36.328 35.377 6.495 50.194 o
-1 3 -13 4.934 4.454 2.536 367.243 o
-1 3 -12 30.792 38.718 4.578 93.045 o
-1 3 -11 37.398 36.553 4.268 99.265 o
-1 3 -10 9.112 7.732 2.598 339.091 o
-1 3 -9 95.926 99.766 5.691 32.787 o
-1 3 -8 343.949 336.668 10.887 3.858 o
-1 3 -7 34.222 38.285 3.650 127.708 o
-1 3 -6 123.387 110.221 5.382 26.634 o
-1 3 -5 70.863 76.575 4.516 55.474 o
-1 3 -4 59.049 55.420 3.712 85.027 o
-1 3 -3 477.157 488.637 12.743 2.067 o
-1 3 -2 390.272 421.341 11.197 2.933 o
-1 3 -1 165.481 176.718 4.526 16.653 o
-1 3 0 37.334 37.191 2.182 222.937 o
-1 3 1 574.135 613.857 15.960 1.376 o
-1 3 2 829.106 869.136 14.605 0.732 o
-1 3 3 485.896 435.542 10.238 2.275 o
-1 3 4 31.202 24.744 3.588 145.242 o
-1 3 5 240.222 232.380 9.712 7.098 o
-1 3 6 11.229 12.001 3.464 190.814 o
-1 3 7 91.078 72.493 6.619 32.024 o
-1 3 8 73.619 71.812 6.866 34.191 o
-1 3 9 187.291 190.446 10.825 8.876 o
-1 3 10 118.388 124.386 9.464 15.769 o
-1 3 11 49.492 58.451 8.227 30.142 o
-1 4 -13 36.237 43.110 5.258 70.436 o
-1 4 -12 2.584 4.639 2.846 294.529 o
-1 4 -11 41.950 41.192 5.011 73.555 o
-1 4 -10 3.783 3.464 2.536 369.507 o
-1 4 -9 94.488 99.890 6.186 30.645 o
-1 4 -8 146.110 129.335 6.681 18.476 o
-1 4 -7 169.640 141.026 6.743 15.370 o
-1 4 -6 3.480 1.113 1.918 646.715 o
-1 4 -5 113.840 112.386 5.753 27.092 o
-1 4 -4 184.644 187.476 7.361 11.828 o
-1 4 -3 23.559 28.393 3.340 172.653 o
-1 4 -2 10.519 9.774 2.227 442.973 o
-1 4 -1 225.295 230.932 5.795 9.361 o
-1 4 0 46.613 45.245 2.595 150.601 o
-1 4 1 145.459 154.055 4.472 20.873 o
-1 4 2 180.333 197.455 5.067 13.706 o
-1 4 3 101.767 106.118 3.419 41.604 o
-1 4 4 98.697 87.586 6.371 30.159 o
-1 4 5 30.065 24.558 4.454 103.047 o
-1 4 6 26.405 20.475 4.206 118.331 o
-1 4 7 3.879 6.866 3.279 221.022 o
-1 4 8 47.222 37.975 5.753 57.791 o
-1 4 9 32.478 29.754 5.877 61.760 o
-1 4 10 181.943 183.765 11.753 8.508 o
-1 5 -13 6.972 9.774 3.526 188.817 o
-1 5 -12 79.950 80.101 6.681 33.199 o
-1 5 -11 28.400 28.146 4.516 100.559 o
-1 5 -10 18.366 15.403 3.588 169.193 o
-1 5 -9 13.601 10.207 3.155 225.759 o
-1 5 -8 73.489 71.070 5.505 45.167 o
-1 5 -7 60.130 50.904 4.701 66.354 o
-1 5 -6 352.936 315.327 10.949 3.870 o
-1 5 -5 15.523 11.011 2.846 268.130 o
-1 5 -4 255.202 239.370 8.970 6.854 o
-1 5 -3 6.224 7.423 2.413 399.100 o
-1 5 -2 70.727 64.822 4.454 59.614 o
-1 5 -1 78.755 77.391 3.596 60.904 o
-1 5 0 377.589 379.443 8.565 3.474 o
-1 5 1 73.647 73.738 3.364 69.045 o
-1 5 2 57.475 56.379 3.464 91.997 o
-1 5 3 60.763 56.739 2.848 102.732 o
-1 5 4 54.155 38.223 5.196 64.313 o
-1 5 5 5.551 8.289 3.464 196.906 o
-1 5 6 17.722 19.114 4.268 122.086 o
-1 5 7 1.719 0.247 3.031 260.862 o
-1 5 8 23.388 24.867 5.444 74.732 o
-1 6 -12 9.766 10.516 3.773 163.473 o
-1 6 -11 180.290 192.858 9.959 9.749 o
-1 6 -10 40.011 40.450 5.505 64.357 o
-1 6 -9 4.313 2.227 2.536 369.613 o
-1 6 -8 57.271 52.945 5.444 55.674 o
-1 6 -7 13.300 11.630 3.217 217.096 o
-1 6 -6 42.496 44.409 5.382 64.840 o
-1 6 -5 93.007 78.988 5.629 36.701 o
-1 6 -4 2.267 3.959 2.227 480.272 o
-1 6 -3 120.878 118.015 6.371 23.367 o
-1 6 -2 92.942 92.411 5.567 35.209 o
-1 6 -1 51.422 54.020 3.681 94.643 o
-1 6 0 20.284 19.633 2.467 306.521 o
-1 6 1 41.363 44.444 11.351 17.558 o
-1 6 2 23.259 22.148 2.505 281.084 o
-1 6 3 13.974 9.650 3.464 189.182 o
-1 6 4 4.922 0.124 2.598 352.823 o
-1 6 5 6.770 7.114 3.773 166.057 o
-1 6 6 9.238 4.887 3.526 188.936 o
-1 6 7 10.189 10.207 4.516 115.085 o
-1 7 -11 13.119 12.990 4.454 116.571 o
-1 7 -10 28.340 35.501 5.629 67.067 o
-1 7 -9 53.650 62.224 6.248 45.415 o
-1 7 -8 26.897 28.703 4.949 86.422 o
-1 7 -7 8.107 4.145 2.784 301.780 o
-1 7 -6 57.244 53.440 5.505 54.724 o
-1 7 -5 110.894 103.416 6.928 24.301 o
-1 7 -4 7.477 7.547 2.846 287.587 o
-1 7 -3 102.110 96.983 6.371 28.524 o
-1 7 -2 65.199 68.163 5.258 51.528 o
-1 7 -1 6.835 7.491 2.150 495.996 o
-1 7 0 59.181 59.605 3.776 81.463 o
-1 7 1 50.228 51.604 3.596 99.885 o
-1 7 2 62.086 64.822 7.980 29.683 o
-1 7 3 52.048 44.904 6.990 40.307 o
-1 7 4 9.990 3.650 3.588 182.522 o
-1 8 -8 26.556 18.001 4.516 105.120 o
-1 8 -7 6.958 3.773 3.093 246.839 o
-1 8 -6 47.142 53.131 6.371 47.016 o
-1 8 -5 96.811 105.024 7.423 24.510 o
-1 8 -4 115.326 112.571 7.423 21.497 o
-1 8 -3 8.209 10.825 3.279 215.982 o
-1 8 -2 95.660 100.199 6.681 28.095 o
-1 8 -1 76.958 81.894 7.884 27.006 o
-1 8 0 2.876 3.838 2.753 314.681 o
-1 8 1 17.008 15.527 5.072 89.138 o
0 -8 -1 14.738 17.444 3.588 172.201 o
0 -8 2 14.807 17.692 4.268 124.327 o
0 -8 3 44.591 52.698 6.681 44.184 o
0 -8 4 186.132 170.527 9.897 10.027 o
0 -8 5 44.111 37.666 5.629 61.052 o
0 -8 6 37.581 53.873 6.866 43.506 o
0 -8 7 4.307 9.279 4.021 146.954 o
0 -8 8 60.810 57.585 7.176 35.859 o
0 -7 -4 10.821 15.650 3.897 151.277 o
0 -7 -3 70.768 67.791 6.000 42.071 o
0 -7 -2 8.810 5.072 2.784 299.962 o
0 -7 -1 19.277 25.610 3.835 143.765 o
0 -7 3 122.628 118.015 7.794 19.341 o
0 -7 4 32.072 27.094 4.701 91.919 o
0 -7 5 198.011 182.157 9.526 9.556 o
0 -7 6 10.605 12.248 3.712 167.576 o
0 -7 7 0.398 2.103 3.155 240.876 o
0 -7 8 37.662 36.491 5.815 60.254 o
0 -7 9 52.124 65.874 7.609 33.420 o
0 -7 10 4.969 7.918 4.516 116.740 o
0 -7 11 25.285 24.620 6.062 60.780 o
0 -6 -6 9.837 9.712 3.959 149.084 o
0 -6 -5 5.063 9.403 3.402 203.976 o
0 -6 -4 33.751 32.532 4.392 99.575 o
0 -6 -3 37.521 36.676 4.454 92.891 o
0 -6 -2 44.262 47.069 4.701 77.580 o
0 -6 -1 86.672 76.885 5.258 41.595 o
0 -6 3 177.296 156.671 8.351 12.297 o
0 -6 4 120.258 116.159 7.176 21.325 o
0 -6 5 125.281 110.035 7.114 21.237 o
0 -6 6 24.075 26.599 4.763 94.552 o
0 -6 7 21.084 18.867 4.330 116.790 o
0 -6 8 6.542 6.619 3.835 161.015 o
0 -6 9 93.857 97.849 7.980 23.338 o
0 -6 10 75.457 80.287 8.042 26.563 o
0 -6 11 1.163 2.474 4.578 114.398 o
0 -6 12 7.867 2.474 5.134 90.436 o
0 -5 -8 11.219 10.083 4.145 135.621 o
0 -5 -7 32.478 26.228 4.825 87.962 o
0 -5 -6 20.951 17.754 4.206 123.629 o
0 -5 -5 17.340 18.620 3.773 153.739 o
0 -5 -4 29.270 29.878 4.083 117.477 o
0 -5 -3 84.668 69.957 5.320 43.022 o
0 -5 -2 252.388 231.266 8.351 7.281 o
0 -5 -1 29.507 29.445 3.464 152.270 o
0 -5 0 30.086 33.150 3.340 156.422 o
0 -5 3 87.157 85.978 5.567 37.787 o
0 -5 4 401.871 386.830 12.990 2.828 o
0 -5 5 43.301 46.388 4.825 75.520 o
0 -5 6 357.180 363.076 12.805 3.329 o
0 -5 7 32.222 26.105 4.392 103.291 o
0 -5 8 10.604 16.083 4.145 134.408 o
0 -5 9 10.377 9.526 3.897 153.476 o
0 -5 10 73.018 58.265 7.052 34.392 o
0 -5 11 188.021 184.507 11.444 8.518 o
0 -5 12 59.047 77.256 8.846 24.843 o
0 -5 13 7.098 11.753 6.000 66.022 o
0 -4 -10 21.055 16.764 4.887 93.896 o
0 -4 -9 41.190 36.058 5.629 62.439 o
0 -4 -8 7.763 8.722 3.897 155.040 o
0 -4 -7 14.020 10.825 3.773 160.291 o
0 -4 -6 71.985 62.100 5.753 44.871 o
0 -4 -5 63.779 55.543 5.072 57.378 o
0 -4 -4 34.120 26.414 3.588 139.709 o
0 -4 -3 70.399 61.667 4.516 59.899 o
0 -4 -2 104.705 103.849 5.134 32.676 o
0 -4 -1 275.814 263.804 8.165 6.223 o
0 -4 0 30.654 32.532 3.031 178.870 o
0 -4 3 51.622 45.213 4.021 89.721 o
0 -4 4 79.199 77.627 5.072 45.743 o
0 -4 5 158.281 145.109 7.114 15.699 o
0 -4 6 15.943 15.712 3.402 189.427 o
0 -4 7 433.979 423.135 14.042 2.408 o
0 -4 8 84.105 75.647 6.557 33.544 o
0 -4 9 93.057 82.019 7.423 26.779 o
0 -4 10 6.371 8.289 4.392 122.983 o
0 -4 11 14.743 15.898 4.949 94.138 o
0 -4 12 89.266 106.138 9.712 18.011 o
0 -4 13 25.706 24.001 6.619 51.538 o
0 -3 -11 43.874 41.254 6.000 54.532 o
0 -3 -10 3.855 4.083 3.773 167.657 o
0 -3 -9 71.032 70.946 7.052 33.554 o
0 -3 -8 35.630 35.996 4.949 79.935 o
0 -3 -7 13.528 8.165 3.217 219.197 o
0 -3 -6 119.357 113.808 6.371 23.945 o
0 -3 -5 70.776 64.018 4.639 57.405 o
0 -3 -4 103.929 90.927 5.011 35.324 o
0 -3 -3 55.379 62.100 4.206 74.911 o
0 -3 -2 728.195 788.994 18.372 0.871 o
0 -3 -1 6.771 10.516 2.103 510.192 o
0 -3 0 46.926 50.966 3.031 124.656 o
0 -3 2 375.538 378.788 11.073 3.265 o
0 -3 3 214.799 243.267 8.104 8.484 o
0 -3 4 31.997 31.604 3.712 132.098 o
0 -3 5 85.710 102.364 5.753 34.746 o
0 -3 6 2.650 4.330 2.598 352.988 o
0 -3 7 19.998 27.837 4.206 120.525 o
0 -3 8 272.283 262.134 10.578 5.659 o
0 -3 9 70.148 70.637 6.681 36.361 o
0 -3 10 36.927 39.893 5.938 57.838 o
0 -3 11 5.153 4.083 4.206 134.792 o
0 -3 12 14.905 23.135 6.000 64.218 o
0 -3 13 18.613 10.269 5.444 78.087 o
0 -3 14 31.639 24.929 6.743 48.755 o
0 -2 -12 17.425 24.434 5.382 78.256 o
0 -2 -11 2.275 9.093 3.773 167.393 o
0 -2 -10 35.979 37.975 5.196 73.137 o
0 -2 -9 18.206 19.919 3.959 139.484 o
0 -2 -8 120.353 120.860 7.052 21.339 o
0 -2 -7 109.561 98.900 6.062 28.140 o
0 -2 -6 215.987 192.549 7.547 9.833 o
0 -2 -5 40.370 42.924 3.835 108.821 o
0 -2 -4 27.782 27.342 3.031 192.144 o
0 -2 -3 244.402 259.536 7.732 7.307 o
0 -2 -2 102.312 102.859 4.268 37.748 o
0 -2 -1 1930.700 2063.660 41.996 0.129 o
0 -2 2 427.051 428.950 11.320 2.615 o
0 -2 3 170.166 184.940 6.310 13.939 o
0 -2 4 3.302 5.134 2.041 566.570 o
0 -2 5 145.863 148.697 6.310 18.062 o
0 -2 6 88.080 104.901 5.938 32.796 o
0 -2 7 50.763 49.976 5.011 66.423 o
0 -2 8 33.516 33.150 4.454 97.307 o
0 -2 9 289.383 281.985 11.382 4.948 o
0 -2 10 174.466 170.032 9.774 10.678 o
0 -2 11 4.802 7.609 4.206 134.468 o
0 -2 12 14.609 14.351 5.134 87.946 o
0 -2 13 68.341 71.132 8.784 24.509 o
0 -2 14 43.948 57.523 8.846 27.136 o
0 -1 -12 14.153 15.341 4.330 121.973 o
0 -1 -11 58.182 75.833 6.681 38.473 o
0 -1 -10 21.865 25.795 4.145 123.030 o
0 -1 -9 34.054 26.661 3.897 123.041 o
0 -1 -8 128.816 138.923 6.990 19.305 o
0 -1 -7 106.607 103.540 5.567 30.326 o
0 -1 -6 88.227 88.081 4.887 41.766 o
0 -1 -5 10.658 9.464 2.289 421.307 o
0 -1 -4 16.247 13.485 2.103 441.135 o
0 -1 -2 456.528 484.802 11.135 2.261 o
0 -1 -1 5808.390 6140.880 121.231 0.014 o
0 -1 1 296.462 351.261 8.660 4.775 o
0 -1 2 1220.850 1304.480 31.542 0.311 o
0 -1 3 63.530 70.018 3.650 75.096 o
0 -1 4 442.549 469.585 12.434 2.319 o
0 -1 5 219.173 209.869 7.609 9.250 o
0 -1 6 23.893 22.269 3.588 157.530 o
0 -1 7 110.724 120.798 6.619 23.995 o
0 -1 8 95.852 97.663 6.495 29.134 o
0 -1 9 75.383 65.564 6.557 36.657 o
0 -1 10 127.391 135.088 8.784 15.988 o
0 -1 11 131.338 142.264 9.650 13.967 o
0 -1 12 5.677 4.516 4.454 120.174 o
0 -1 13 12.056 15.341 5.567 75.561 o
0 0 -13 17.888 16.578 4.701 102.425 o
0 0 -12 0.240 -1.113 3.155 240.971 o
0 0 -11 23.824 17.197 3.773 147.555 o
0 0 -10 30.156 35.315 4.330 103.676 o
0 0 -9 77.683 65.688 5.134 48.176 o
0 0 -8 17.778 19.550 1.704 550.162 o
0 0 -7 108.172 112.537 5.598 28.832 o
0 0 -6 579.161 630.764 12.279 1.423 o
0 0 -5 989.955 1028.000 15.502 0.524 o
0 0 -4 152.698 160.393 4.330 19.540 o
0 0 -3 7.661 5.134 1.299 1270.270 o
0 0 -2 1241.170 1272.380 18.326 0.338 o
0 0 -1 678.970 614.199 11.382 1.203 o
0 0 1 689.337 517.031 11.506 1.293 o
0 0 2 1227.470 1326.690 28.950 0.312 o
0 0 4 155.806 171.764 6.186 15.961 o
0 0 5 981.999 1022.430 25.115 0.489 o
0 0 6 578.100 629.788 17.321 1.311 o
0 0 7 105.330 108.922 6.557 26.084 o
0 0 8 18.497 13.918 3.773 154.923 o
0 0 9 76.685 64.698 6.619 36.010 o
0 0 10 29.519 25.610 5.072 82.237 o
0 0 11 24.967 19.671 5.011 87.442 o
0 0 12 0.364 0.742 3.712 174.090 o
0 0 13 17.007 15.155 5.691 71.493 o
0 1 -13 11.319 10.207 3.835 157.515 o
0 1 -12 5.177 8.413 3.526 190.328 o
0 1 -11 130.371 126.788 4.413 26.224 o
0 1 -10 125.461 120.326 5.227 25.682 o
0 1 -9 74.258 65.734 3.091 75.995 o
0 1 -8 93.271 98.791 3.285 48.146 o
0 1 -7 106.916 119.338 3.448 36.844 o
0 1 -6 25.474 24.929 1.771 406.745 o
0 1 -5 222.576 213.217 4.394 10.562 o
0 1 -4 449.560 472.954 7.709 2.494 o
0 1 -2 1215.210 1521.580 29.321 0.287 o
0 1 -1 302.675 355.591 8.104 4.719 o
0 1 0 37.118 42.182 2.103 219.633 o
0 1 1 5821.100 6185.290 137.253 0.014 o
0 1 2 464.706 499.277 12.557 2.111 o
0 1 3 58.066 84.926 4.268 63.795 o
0 1 4 17.496 22.826 2.969 230.198 o
0 1 5 10.263 8.475 2.660 320.706 o
0 1 6 87.067 86.225 5.753 36.567 o
0 1 7 104.203 99.581 6.495 27.362 o
0 1 8 130.318 130.572 7.918 17.628 o
0 1 9 35.303 31.171 5.196 75.031 o
0 1 10 20.754 22.331 4.701 99.701 o
0 1 11 57.828 63.090 7.794 31.531 o
0 1 12 14.909 15.836 5.505 76.603 o
0 2 -14 44.561 48.244 5.815 55.964 o
0 2 -13 67.942 71.936 6.743 36.248 o
0 2 -12 15.434 17.644 2.481 329.342 o
0 2 -11 4.157 4.442 1.840 692.340 o
0 2 -10 174.554 163.937 5.008 15.857 o
0 2 -9 290.876 276.466 8.286 5.687 o
0 2 -8 34.932 33.627 3.183 157.136 o
0 2 -7 49.792 43.357 3.464 110.049 o
0 2 -6 85.456 93.395 4.578 44.056 o
0 2 -5 145.933 137.253 5.444 20.343 o
0 2 -4 3.361 2.784 1.546 984.997 o
0 2 -3 171.018 189.085 5.938 14.069 o
0 2 -2 432.951 432.166 10.578 2.608 o
0 2 -1 65.341 64.245 2.271 102.622 o
0 2 0 576.870 604.149 10.067 1.516 o
0 2 1 1927.640 2113.240 31.746 0.133 o
0 2 2 103.845 100.818 4.887 34.508 o
0 2 3 240.927 262.876 8.908 6.948 o
0 2 4 27.734 26.847 3.526 152.955 o
0 2 5 42.316 39.398 4.268 93.716 o
0 2 6 212.411 208.261 8.908 8.835 o
0 2 7 109.089 101.313 6.743 25.409 o
0 2 8 117.101 122.469 7.856 19.547 o
0 2 9 18.443 16.702 4.083 132.911 o
0 2 10 36.272 29.259 5.258 73.537 o
0 2 11 2.345 0.062 3.835 162.932 o
0 2 12 17.266 22.269 6.124 61.417 o
0 3 -13 18.772 17.197 3.588 167.615 o
0 3 -12 15.419 17.135 3.402 189.169 o
0 3 -11 4.620 3.712 2.474 386.655 o
0 3 -10 36.788 41.811 4.268 97.495 o
0 3 -9 67.235 61.172 4.701 59.294 o
0 3 -8 270.848 248.525 9.093 6.278 o
0 3 -7 21.410 20.970 3.031 215.333 o
0 3 -6 2.330 3.464 1.732 791.112 o
0 3 -5 85.325 104.097 5.072 38.739 o
0 3 -4 33.696 29.878 3.031 174.776 o
0 3 -3 208.878 231.638 7.547 9.257 o
0 3 -2 373.435 372.169 10.145 3.411 o
0 3 -1 147.041 130.329 7.299 17.178 o
0 3 0 48.349 54.145 2.389 144.379 o
0 3 1 7.179 16.205 2.505 356.676 o
0 3 2 731.022 811.896 17.630 0.860 o
0 3 3 57.338 64.575 4.763 62.968 o
0 3 4 103.611 94.323 5.877 30.701 o
0 3 5 70.488 69.709 5.567 45.883 o
0 3 6 122.883 120.427 7.361 20.246 o
0 3 7 13.174 12.805 3.835 155.295 o
0 3 8 34.963 33.893 5.134 76.073 o
0 3 9 71.680 71.627 7.238 32.178 o
0 3 10 3.975 1.670 3.650 179.458 o
0 3 11 43.684 42.800 7.176 40.233 o
0 4 -13 26.327 23.012 4.206 117.348 o
0 4 -12 89.144 102.983 6.990 27.637 o
0 4 -11 15.208 17.197 3.588 171.814 o
0 4 -10 5.540 3.526 2.474 385.298 o
0 4 -9 93.216 88.638 5.877 33.874 o
0 4 -8 82.179 83.009 5.444 40.676 o
0 4 -7 431.967 436.187 13.300 2.430 o
0 4 -6 15.833 15.960 2.846 261.143 o
0 4 -5 157.036 154.939 6.743 15.894 o
0 4 -4 82.615 93.704 5.011 41.898 o
0 4 -3 49.093 45.522 3.712 101.306 o
0 4 -2 72.384 72.862 3.232 72.351 o
0 4 -1 212.148 212.429 5.452 10.705 o
0 4 0 30.140 28.169 2.162 284.697 o
0 4 1 276.349 279.745 6.287 6.453 o
0 4 2 105.652 109.422 3.443 39.214 o
0 4 3 70.743 66.802 5.258 49.510 o
0 4 4 35.955 33.088 4.578 91.406 o
0 4 5 63.312 57.275 5.691 49.351 o
0 4 6 71.908 68.286 6.433 38.099 o
0 4 7 13.734 7.176 3.402 197.388 o
0 4 8 7.481 5.691 3.526 189.791 o
0 4 9 39.843 32.532 5.753 61.290 o
0 4 10 21.122 11.753 4.392 115.935 o
0 5 -13 7.655 8.846 3.897 155.061 o
0 5 -12 59.812 72.183 6.619 39.033 o
0 5 -11 190.836 209.189 9.836 9.082 o
0 5 -10 73.114 65.317 5.877 42.840 o
0 5 -9 10.954 8.227 3.217 222.437 o
0 5 -8 10.310 11.506 3.155 229.563 o
0 5 -7 31.206 28.703 4.268 108.047 o
0 5 -6 357.792 346.003 12.001 3.505 o
0 5 -5 44.379 47.378 4.392 85.130 o
0 5 -4 401.029 405.196 12.557 2.801 o
0 5 -3 90.572 90.308 5.258 38.090 o
0 5 -2 393.186 400.828 8.979 3.172 o
0 5 -1 28.930 31.032 2.763 210.013 o
0 5 0 31.509 33.640 2.907 185.475 o
0 5 1 27.886 27.498 4.206 114.113 o
0 5 2 253.256 231.911 5.949 8.082 o
0 5 3 84.109 72.432 3.037 64.857 o
0 5 4 28.717 19.671 4.021 126.119 o
0 5 5 18.510 23.630 4.639 102.990 o
0 5 6 21.101 27.094 5.258 80.083 o
0 5 7 33.265 32.779 5.815 62.233 o
0 5 8 11.100 6.433 3.650 174.895 o
0 6 -12 8.211 11.939 4.206 132.657 o
0 6 -11 1.453 3.279 2.969 271.472 o
0 6 -10 77.804 84.308 6.804 32.458 o
0 6 -9 95.885 101.127 7.238 25.650 o
0 6 -8 7.062 7.609 3.093 244.913 o
0 6 -7 20.271 24.434 4.268 118.486 o
0 6 -6 23.160 21.836 3.959 133.986 o
0 6 -5 125.140 118.262 6.866 21.366 o
0 6 -4 122.473 120.551 6.743 21.904 o
0 6 -3 178.959 159.702 7.547 12.938 o
0 6 -2 36.745 35.936 3.311 143.623 o
0 6 -1 87.865 83.413 4.161 48.452 o
0 6 0 104.003 95.332 4.274 38.455 o
0 6 1 86.894 76.556 3.776 54.140 o
0 6 2 43.922 43.063 5.382 64.512 o
0 6 3 37.636 26.352 4.701 88.657 o
0 6 4 33.229 23.506 4.763 90.276 o
0 6 5 5.491 1.113 2.907 281.401 o
0 6 6 9.779 10.516 4.206 132.306 o
0 7 -11 24.250 27.960 5.382 75.503 o
0 7 -10 5.125 8.227 3.588 183.979 o
0 7 -9 51.209 42.244 5.938 52.949 o
0 7 -8 38.799 37.419 5.567 64.238 o
0 7 -7 0.269 3.340 2.784 309.230 o
0 7 -6 9.686 9.959 3.650 174.648 o
0 7 -5 198.045 192.487 9.341 9.469 o
0 7 -4 32.357 33.274 4.825 86.016 o
0 7 -3 122.666 121.541 7.176 20.675 o
0 7 -2 39.117 44.842 5.134 71.334 o
0 7 -1 10.265 7.487 3.897 154.099 o
0 7 0 5.878 5.444 1.827 689.542 o
0 7 1 19.049 17.983 2.548 299.896 o
0 7 2 8.481 8.908 3.959 149.952 o
0 7 3 71.811 77.751 7.918 27.828 o
0 7 4 10.563 8.042 4.145 136.386 o
0 8 -8 61.589 55.914 7.114 36.350 o
0 8 -7 3.940 8.413 3.526 190.958 o
0 8 -6 38.312 35.501 5.444 67.259 o
0 8 -5 44.241 41.934 5.815 57.153 o
0 8 -4 186.683 187.353 9.464 9.982 o
0 8 -3 46.440 48.615 5.258 64.397 o
0 8 -2 14.376 14.351 3.588 174.262 o
0 8 -1 3.873 7.063 2.332 432.796 o
0 8 0 8.164 8.681 2.567 348.091 o
0 8 1 14.042 10.454 4.825 99.963 o
1 -8 2 93.942 85.421 7.609 25.598 o
1 -8 3 7.937 15.155 4.145 135.971 o
1 -8 4 114.829 115.540 8.227 19.217 o
1 -8 5 99.251 113.994 8.351 20.579 o
1 -8 6 45.605 58.018 7.299 37.501 o
1 -8 7 6.764 9.403 4.145 137.605 o
1 -8 8 26.708 25.919 5.382 74.996 o
1 -7 -4 10.495 12.557 3.959 147.929 o
1 -7 -3 52.575 64.327 6.186 46.093 o
1 -7 -2 62.880 59.007 5.629 49.913 o
1 -7 2 64.132 59.440 6.062 44.714 o
1 -7 3 101.859 88.947 7.176 25.916 o
1 -7 4 8.026 9.959 3.402 201.550 o
1 -7 5 111.287 122.902 8.042 19.678 o
1 -7 6 59.367 60.616 6.619 40.494 o
1 -7 7 8.107 10.640 4.392 122.146 o
1 -7 8 25.403 26.352 5.320 76.983 o
1 -7 9 53.342 48.553 6.619 43.322 o
1 -7 10 27.317 35.748 6.495 52.022 o
1 -7 11 12.738 9.588 5.011 93.339 o
1 -6 -7 10.166 7.485 4.021 145.021 o
1 -6 -6 9.181 14.042 4.083 139.670 o
1 -6 -5 6.482 10.640 3.650 176.516 o
1 -6 -4 4.505 3.897 3.155 239.056 o
1 -6 -3 13.494 18.929 3.835 152.570 o
1 -6 -2 24.303 21.960 3.650 152.695 o
1 -6 -1 39.900 39.212 4.268 95.907 o
1 -6 3 120.213 109.849 7.176 21.744 o
1 -6 4 1.901 1.485 2.660 338.338 o
1 -6 5 91.050 77.256 6.495 32.223 o
1 -6 6 44.613 45.089 5.691 58.447 o
1 -6 7 13.712 15.403 4.083 136.678 o
1 -6 8 59.513 68.781 7.176 35.066 o
1 -6 9 4.413 9.650 4.268 130.475 o
1 -6 10 38.649 39.769 6.186 53.494 o
1 -6 11 181.014 160.877 11.320 9.253 o
1 -6 12 9.398 10.207 5.629 74.737 o
1 -5 -8 24.108 22.888 4.949 89.115 o
1 -5 -7 1.913 0.557 3.279 222.939 o
1 -5 -6 18.090 23.197 4.454 111.414 o
1 -5 -5 5.713 1.052 3.031 258.943 o
1 -5 -4 53.617 54.925 5.444 56.784 o
1 -5 -3 62.467 73.359 5.444 49.472 o
1 -5 -2 58.886 59.935 4.701 64.405 o
1 -5 -1 73.542 73.421 4.578 54.188 o
1 -5 3 5.603 5.505 2.413 402.816 o
1 -5 4 255.789 240.298 9.774 6.544 o
1 -5 5 14.629 9.403 3.155 224.794 o
1 -5 6 348.754 312.048 12.001 3.792 o
1 -5 7 62.102 61.296 6.310 42.596 o
1 -5 8 73.744 65.750 6.681 36.105 o
1 -5 9 14.702 15.217 4.639 106.695 o
1 -5 10 18.418 21.774 5.444 76.676 o
1 -5 11 27.004 35.130 6.433 53.066 o
1 -5 12 80.521 82.143 9.341 20.748 o
1 -5 13 6.318 3.031 5.567 77.087 o
1 -4 -10 179.060 172.940 10.454 9.810 o
1 -4 -9 33.223 27.589 5.072 80.031 o
1 -4 -8 46.244 47.687 5.815 55.480 o
1 -4 -7 4.023 3.959 3.464 198.720 o
1 -4 -6 25.613 27.032 4.454 105.319 o
1 -4 -5 28.622 25.981 4.021 123.074 o
1 -4 -4 95.907 91.669 5.691 33.824 o
1 -4 -3 99.978 88.576 5.320 35.164 o
1 -4 -2 184.541 192.054 6.928 12.056 o
1 -4 -1 149.149 160.877 5.753 17.877 o
1 -4 2 9.845 9.155 2.536 351.090 o
1 -4 3 24.251 20.166 3.340 178.739 o
1 -4 4 189.189 202.384 8.227 10.457 o
1 -4 5 116.339 108.612 6.310 25.076 o
1 -4 6 3.788 1.485 2.846 294.774 o
1 -4 7 165.825 158.279 8.165 13.198 o
1 -4 8 150.334 132.614 8.104 15.408 o
1 -4 9 96.827 93.581 7.856 23.684 o
1 -4 10 4.184 0.928 4.206 135.231 o
1 -4 11 41.911 45.893 6.804 44.115 o
1 -4 12 2.196 2.907 4.825 102.907 o
1 -4 13 35.943 40.697 7.732 36.413 o
1 -3 -11 49.539 66.183 7.238 36.632 o
1 -3 -10 120.491 122.778 8.660 17.326 o
1 -3 -9 184.819 200.900 9.774 9.534 o
1 -3 -8 74.504 81.772 6.619 34.589 o
1 -3 -7 92.871 89.195 6.371 31.217 o
1 -3 -6 12.004 9.155 3.155 228.853 o
1 -3 -5 241.103 228.359 8.598 7.591 o
1 -3 -4 29.582 29.569 3.402 156.253 o
1 -3 -3 480.478 414.413 11.382 2.314 o
1 -3 -2 829.442 865.755 19.486 0.698 o
1 -3 -1 582.906 604.302 13.980 1.413 o
1 -3 2 383.792 424.743 12.372 2.874 o
1 -3 3 470.895 489.071 13.856 2.044 o
1 -3 4 57.232 43.110 4.392 76.893 o
1 -3 5 73.429 78.555 5.444 44.424 o
1 -3 6 123.550 107.251 6.310 23.984 o
1 -3 7 32.533 38.099 4.578 92.048 o
1 -3 8 338.137 345.941 12.681 3.625 o
1 -3 9 98.178 91.916 7.547 24.780 o
1 -3 10 9.877 5.567 4.330 125.850 o
1 -3 11 36.044 42.677 6.371 51.128 o
1 -3 12 31.079 30.806 6.433 52.676 o
1 -3 13 5.263 -2.351 4.701 108.253 o
1 -2 -12 35.781 38.841 6.371 51.646 o
1 -2 -11 61.370 63.152 6.743 38.667 o
1 -2 -10 3.878 0.928 3.340 214.249 o
1 -2 -9 42.938 37.790 4.825 78.350 o
1 -2 -8 61.639 54.059 5.444 53.647 o
1 -2 -7 20.215 20.228 3.464 174.253 o
1 -2 -6 127.148 112.881 5.938 24.011 o
1 -2 -5 30.959 34.449 3.650 134.956 o
1 -2 -4 3.701 -0.495 1.979 608.007 o
1 -2 -3 285.351 298.749 8.537 5.511 o
1 -2 -2 797.291 768.649 17.321 0.806 o
1 -2 -1 1338.230 1359.030 27.898 0.279 o
1 -2 2 200.571 205.663 6.681 10.846 o
1 -2 3 333.000 368.272 10.640 3.832 o
1 -2 4 583.304 596.074 15.836 1.378 o
1 -2 5 199.818 189.518 7.547 10.739 o
1 -2 6 154.047 139.727 6.928 16.641 o
1 -2 7 65.790 65.255 5.567 48.388 o
1 -2 8 22.362 26.228 4.392 110.510 o
1 -2 9 103.693 97.045 7.609 23.441 o
1 -2 10 31.961 25.857 5.072 81.045 o
1 -2 11 22.742 18.620 5.196 82.789 o
1 -2 12 22.644 18.310 5.753 68.457 o
1 -2 13 3.291 2.722 5.072 93.064 o
1 -1 -12 57.877 62.038 6.619 40.677 o
1 -1 -11 20.330 20.785 4.701 100.301 o
1 -1 -10 4.347 6.557 3.402 205.221 o
1 -1 -9 11.808 11.444 3.464 190.510 o
1 -1 -8 240.654 242.710 9.093 7.182 o
1 -1 -7 249.163 227.926 8.227 7.483 o
1 -1 -6 3.789 4.516 2.165 504.112 o
1 -1 -5 54.574 48.058 4.083 84.111 o
1 -1 -4 193.823 202.570 6.619 11.378 o
1 -1 -3 109.326 110.097 4.330 33.994 o
1 -1 -2 1049.760 955.197 20.846 0.489 o
1 -1 -1 3033.100 3101.310 61.111 0.054 o
1 -1 1 696.311 705.559 16.764 1.003 o
1 -1 2 199.806 205.787 6.743 10.845 o
1 -1 3 3.056 1.856 1.670 850.491 o
1 -1 4 124.639 117.334 5.382 25.682 o
1 -1 5 951.674 967.934 23.939 0.530 o
1 -1 6 102.479 107.437 6.186 28.202 o
1 -1 7 454.718 442.868 14.042 2.234 o
1 -1 8 53.129 64.575 5.938 48.694 o
1 -1 9 254.297 243.020 10.887 6.161 o
1 -1 10 93.478 79.174 7.609 26.115 o
1 -1 11 11.247 5.072 4.454 118.725 o
1 -1 12 48.501 48.924 7.361 37.245 o
1 -1 13 36.529 39.584 7.238 41.024 o
1 0 -13 0.877 2.784 4.083 143.802 o
1 0 -12 38.910 29.878 4.825 83.160 o
1 0 -11 109.142 122.716 7.732 20.760 o
1 0 -10 32.261 27.218 4.206 110.381 o
1 0 -9 44.379 39.336 4.392 88.324 o
1 0 -8 14.638 14.413 2.969 246.461 o
1 0 -7 172.926 173.249 6.866 13.603 o
1 0 -6 69.803 79.916 4.578 54.443 o
1 0 -5 7.244 5.629 2.165 491.318 o
1 0 -4 190.743 171.146 5.815 13.310 o
1 0 -3 170.926 148.078 4.763 17.412 o
1 0 -2 582.613 612.343 13.052 1.423 o
1 0 -1 750.121 758.442 15.898 0.889 o
1 0 0 402.466 385.840 8.104 3.218 o
1 0 1 3475.600 3360.340 74.225 0.042 o
1 0 2 235.119 275.458 4.870 8.263 o
1 0 3 15.383 21.836 2.474 321.982 o
1 0 4 215.017 241.597 7.980 8.569 o
1 0 5 121.355 132.119 6.371 22.220 o
1 0 6 469.915 456.972 13.918 2.124 o
1 0 7 72.801 82.452 5.938 39.844 o
1 0 8 257.404 243.700 10.578 6.187 o
1 0 9 15.074 15.712 4.206 128.241 o
1 0 10 155.906 155.186 9.774 11.988 o
1 0 11 4.485 -1.608 3.402 206.510 o
1 0 12 8.859 4.145 4.268 130.012 o
1 0 13 43.938 51.151 8.351 30.358 o
1 1 -13 35.561 42.058 5.567 64.585 o
1 1 -12 8.292 2.598 3.340 211.598 o
1 1 -11 37.171 39.262 3.171 147.689 o
1 1 -10 110.534 111.676 4.277 33.608 o
1 1 -9 97.588 95.303 4.203 41.271 o
1 1 -8 61.098 60.607 2.956 96.882 o
1 1 -7 64.711 67.479 2.906 88.731 o
1 1 -6 95.657 102.155 6.588 28.322 o
1 1 -5 21.593 25.356 1.859 420.303 o
1 1 -4 423.678 416.658 7.234 2.931 o
1 1 -3 484.546 488.648 9.619 2.159 o
1 1 -2 4.704 12.286 2.443 387.088 o
1 1 -1 1752.810 1865.240 26.685 0.165 o
1 1 1 102.138 110.914 2.842 43.062 o
1 1 2 332.400 390.779 7.060 4.107 o
1 1 3 187.443 219.266 7.361 10.736 o
1 1 4 88.471 78.864 4.763 44.370 o
1 1 5 80.727 82.205 5.196 43.247 o
1 1 6 19.390 26.971 3.959 135.153 o
1 1 7 162.653 170.280 8.289 12.864 o
1 1 8 40.850 52.203 5.877 55.610 o
1 1 9 28.923 31.171 5.072 81.224 o
1 1 10 18.559 16.207 4.516 110.247 o
1 1 11 16.260 15.217 4.763 100.857 o
1 1 12 1.810 0.495 3.712 174.001 o
1 2 -14 32.083 28.950 5.072 80.252 o
1 2 -13 7.924 4.658 2.942 270.816 o
1 2 -12 22.692 23.005 2.846 231.978 o
1 2 -11 3.034 5.326 1.901 652.531 o
1 2 -10 9.568 12.905 2.201 449.501 o
1 2 -9 319.423 337.810 7.434 4.680 o
1 2 -8 56.037 53.919 2.927 110.153 o
1 2 -7 136.323 141.968 4.105 24.164 o
1 2 -6 69.031 79.252 3.010 75.673 o
1 2 -5 167.289 196.538 4.518 15.411 o
1 2 -4 682.125 788.926 12.677 1.006 o
1 2 -3 1147.690 1246.940 24.679 0.362 o
1 2 -1 99.487 103.679 2.267 48.902 o
1 2 0 136.523 145.334 2.787 26.163 o
1 2 2 253.915 346.759 6.947 6.021 o
1 2 3 218.009 230.586 8.289 8.514 o
1 2 4 171.492 187.105 7.609 12.454 o
1 2 5 248.197 251.433 9.588 6.662 o
1 2 6 81.885 75.338 5.753 39.642 o
1 2 7 221.454 227.864 10.145 7.528 o
1 2 8 75.363 68.101 6.557 36.368 o
1 2 9 60.054 67.791 6.866 37.434 o
1 2 10 53.494 45.089 6.186 48.598 o
1 2 11 16.050 12.805 4.639 106.638 o
1 2 12 10.641 7.918 4.578 112.268 o
1 3 -13 30.734 41.402 3.607 132.641 o
1 3 -12 51.761 62.726 3.934 83.502 o
1 3 -11 0.838 2.289 2.413 411.547 o
1 3 -10 15.184 14.213 4.114 134.178 o
1 3 -9 1.796 3.650 2.413 410.307 o
1 3 -8 440.733 444.662 13.423 2.344 o
1 3 -7 295.314 293.367 9.959 5.062 o
1 3 -6 281.604 277.290 9.217 5.662 o
1 3 -5 25.034 30.125 3.217 178.591 o
1 3 -4 151.535 173.929 6.557 15.773 o
1 3 -3 224.769 284.150 8.598 7.225 o
1 3 -2 243.773 279.284 6.078 7.523 o
1 3 -1 166.000 167.089 5.620 15.885 o
1 3 0 481.587 528.274 7.698 2.131 o
1 3 1 125.226 154.014 3.964 25.481 o
1 3 2 252.932 267.379 7.268 7.066 o
1 3 3 137.735 165.702 7.238 16.464 o
1 3 4 5.817 14.475 3.155 233.314 o
1 3 5 63.196 68.905 5.629 47.997 o
1 3 6 91.846 74.781 6.310 33.388 o
1 3 7 41.817 50.656 6.310 49.496 o
1 3 8 43.139 48.244 6.619 45.697 o
1 3 9 30.298 34.821 6.062 58.335 o
1 3 10 38.923 31.542 5.938 58.495 o
1 3 11 32.890 27.218 6.000 59.736 o
1 4 -13 44.506 52.574 6.248 49.305 o
1 4 -12 10.691 16.083 3.959 146.722 o
1 4 -11 123.675 134.964 7.856 18.200 o
1 4 -10 19.802 21.156 4.021 133.713 o
1 4 -9 22.392 20.475 3.897 139.206 o
1 4 -8 41.201 41.501 4.825 78.278 o
1 4 -7 76.207 70.946 5.258 46.516 o
1 4 -6 322.198 310.316 10.640 4.360 o
1 4 -5 610.280 565.460 15.898 1.346 o
1 4 -4 51.569 45.708 3.773 96.483 o
1 4 -3 78.944 78.246 4.578 50.300 o
1 4 -2 109.410 106.422 3.505 38.075 o
1 4 -1 74.659 78.231 2.538 76.718 o
1 4 0 98.298 92.691 2.833 49.824 o
1 4 1 481.450 491.690 9.581 2.169 o
1 4 2 4.347 4.392 2.351 427.700 o
1 4 3 376.440 354.539 12.619 3.210 o
1 4 4 28.027 21.651 3.835 136.244 o
1 4 5 12.271 12.867 3.526 183.037 o
1 4 6 14.657 12.186 3.464 186.999 o
1 4 7 19.254 17.630 4.268 121.567 o
1 4 8 11.901 8.846 3.959 148.190 o
1 4 9 40.819 30.497 5.815 60.202 o
1 5 -13 47.419 57.090 6.804 41.809 o
1 5 -12 2.587 2.722 3.217 231.127 o
1 5 -11 0.559 2.041 3.031 260.911 o
1 5 -10 43.810 43.481 5.691 59.035 o
1 5 -9 31.541 29.383 4.578 95.735 o
1 5 -8 29.392 18.805 3.773 140.058 o
1 5 -7 88.125 82.266 5.938 35.638 o
1 5 -6 3.039 0.186 2.165 509.606 o
1 5 -5 119.783 112.386 6.371 23.991 o
1 5 -4 119.700 109.045 6.062 25.260 o
1 5 -3 333.987 302.769 10.392 4.285 o
1 5 -2 42.709 49.519 4.609 80.037 o
1 5 -1 119.357 125.281 3.576 31.434 o
1 5 0 209.039 193.341 5.646 11.363 o
1 5 1 50.671 45.034 2.895 128.584 o
1 5 2 285.270 255.392 6.519 6.491 o
1 5 3 109.286 90.865 6.928 25.543 o
1 5 4 121.750 101.498 7.485 21.210 o
1 5 5 9.969 5.258 4.083 141.308 o
1 5 6 5.211 1.546 2.784 306.799 o
1 5 7 2.641 1.485 3.155 240.444 o
1 5 8 20.272 17.939 4.887 93.977 o
1 6 -12 69.896 67.235 7.918 28.813 o
1 6 -11 81.301 101.251 8.165 23.973 o
1 6 -10 36.969 28.455 5.134 76.414 o
1 6 -9 9.822 8.722 3.526 187.108 o
1 6 -8 19.390 21.094 4.268 120.301 o
1 6 -7 49.309 59.626 6.557 43.608 o
1 6 -6 80.110 86.535 6.433 33.984 o
1 6 -5 45.007 40.511 5.196 68.201 o
1 6 -4 49.289 53.131 5.320 60.976 o
1 6 -3 6.513 1.794 2.413 404.758 o
1 6 -2 61.700 67.755 4.050 70.704 o
1 6 -1 18.456 18.169 3.588 167.405 o
1 6 0 23.419 29.054 2.972 206.831 o
1 6 1 95.953 91.149 4.120 43.311 o
1 6 2 17.139 16.236 2.186 399.698 o
1 6 3 8.821 10.516 3.897 154.062 o
1 6 4 84.439 73.111 7.423 28.837 o
1 6 5 24.807 22.702 5.072 84.939 o
1 6 6 9.490 10.269 4.454 118.457 o
1 7 -10 9.626 12.495 4.206 131.945 o
1 7 -9 13.441 13.052 4.454 116.419 o
1 7 -8 23.531 20.042 4.701 98.859 o
1 7 -7 66.688 59.812 6.433 40.460 o
1 7 -6 5.761 6.000 3.217 228.544 o
1 7 -5 27.507 29.012 5.011 84.183 o
1 7 -4 135.604 154.388 8.413 15.218 o
1 7 -3 26.816 29.321 4.639 96.620 o
1 7 -2 72.056 60.306 5.382 48.953 o
1 7 -1 45.501 46.634 3.995 95.781 o
1 7 0 23.229 29.565 3.202 184.201 o
1 7 1 98.618 88.640 4.416 40.877 o
1 7 2 21.115 18.372 4.949 91.366 o
1 7 3 116.897 132.675 9.650 15.228 o
1 7 4 17.642 32.532 6.371 56.036 o
1 8 -8 3.400 3.897 3.340 213.891 o
1 8 -7 0.624 0.990 2.907 283.655 o
1 8 -6 120.994 131.933 8.970 16.263 o
1 8 -5 25.003 28.208 5.382 75.195 o
1 8 -4 7.563 6.681 3.526 189.439 o
1 8 -3 56.777 57.832 6.557 42.022 o
1 8 -2 1.711 1.608 2.474 390.959 o
1 8 -1 22.461 28.394 3.627 152.478 o
1 8 0 7.373 8.114 2.454 382.294 o
2 -8 2 39.635 47.811 6.928 43.027 o
2 -8 3 26.195 27.651 5.196 79.757 o
2 -8 4 59.198 60.863 6.681 39.949 o
2 -8 5 84.141 86.164 7.794 26.131 o
2 -8 6 6.580 12.929 4.392 122.267 o
2 -8 7 7.215 11.939 4.701 106.901 o
2 -8 8 12.472 12.990 4.578 110.811 o
2 -7 -4 5.340 9.526 3.773 166.158 o
2 -7 -3 18.991 21.403 4.206 123.727 o
2 -7 2 36.704 34.697 5.196 73.566 o
2 -7 3 13.540 11.815 3.526 182.281 o
2 -7 4 8.172 8.413 3.340 209.429 o
2 -7 5 58.006 57.523 6.557 41.762 o
2 -7 6 116.758 105.705 8.227 19.524 o
2 -7 7 33.535 30.497 5.382 71.538 o
2 -7 8 4.575 1.918 3.588 185.472 o
2 -7 9 38.265 39.707 6.495 49.284 o
2 -7 10 17.027 10.392 4.825 98.993 o
2 -6 -6 48.151 54.368 6.310 47.312 o
2 -6 -5 26.172 20.785 4.578 101.982 o
2 -6 -4 113.892 97.725 7.176 23.450 o
2 -6 -3 10.854 12.619 3.588 178.486 o
2 -6 2 45.377 37.109 5.134 70.133 o
2 -6 3 61.150 56.904 5.567 51.702 o
2 -6 4 76.498 68.410 6.000 40.308 o
2 -6 5 82.775 65.998 6.433 35.750 o
2 -6 6 178.302 161.681 9.279 11.163 o
2 -6 7 71.980 75.462 6.928 33.743 o
2 -6 8 7.722 9.464 4.083 141.365 o
2 -6 9 23.854 21.156 5.320 78.445 o
2 -6 10 0.840 2.103 4.083 143.828 o
2 -6 11 121.376 133.047 10.702 13.162 o
2 -6 12 1.088 -4.330 4.578 114.446 o
2 -5 -8 1.584 1.918 4.083 143.780 o
2 -5 -7 18.588 19.486 4.763 98.998 o
2 -5 -6 10.328 6.866 3.526 187.438 o
2 -5 -5 123.552 144.367 7.918 17.616 o
2 -5 -4 143.710 140.655 7.485 16.672 o
2 -5 -3 64.856 69.833 5.567 47.890 o
2 -5 -2 108.640 108.179 5.815 28.355 o
2 -5 2 192.083 195.333 8.846 10.026 o
2 -5 3 32.761 40.450 4.825 83.673 o
2 -5 4 195.740 187.043 8.660 10.187 o
2 -5 5 70.731 67.296 6.062 41.610 o
2 -5 6 67.435 58.327 5.815 46.388 o
2 -5 7 211.957 209.808 10.392 7.981 o
2 -5 8 31.775 31.666 5.567 67.864 o
2 -5 9 1.964 3.093 3.897 157.672 o
2 -5 10 139.951 143.996 10.021 12.856 o
2 -5 11 17.281 16.393 5.629 72.828 o
2 -5 12 191.632 205.292 12.681 7.338 o
2 -4 -10 8.791 7.052 4.825 101.748 o
2 -4 -9 265.619 279.510 12.434 5.107 o
2 -4 -8 13.667 13.485 4.268 126.119 o
2 -4 -7 16.006 16.331 4.206 127.477 o
2 -4 -6 30.645 25.238 4.392 104.831 o
2 -4 -5 30.963 37.233 4.701 89.441 o
2 -4 -4 546.021 543.315 15.094 1.589 o
2 -4 -3 672.513 677.227 17.011 1.066 o
2 -4 -2 32.826 41.811 3.835 118.470 o
2 -4 2 420.321 429.259 13.547 2.507 o
2 -4 3 98.937 98.220 5.753 31.927 o
2 -4 4 240.440 257.000 9.712 6.750 o
2 -4 5 75.057 70.080 5.444 45.361 o
2 -4 6 15.310 19.857 4.021 137.929 o
2 -4 7 204.080 202.570 9.712 8.782 o
2 -4 8 120.654 112.014 7.918 19.573 o
2 -4 9 63.448 63.461 7.609 31.868 o
2 -4 10 22.334 21.589 5.567 72.460 o
2 -4 11 72.924 72.555 8.227 26.486 o
2 -4 12 3.730 6.557 5.320 84.464 o
2 -4 13 34.387 31.851 7.176 42.567 o
2 -3 -11 76.094 67.606 7.856 28.258 o
2 -3 -10 27.379 22.826 5.196 80.253 o
2 -3 -9 3.781 5.629 3.959 152.211 o
2 -3 -8 81.561 78.369 6.990 31.223 o
2 -3 -7 11.963 7.609 3.588 179.665 o
2 -3 -6 28.021 29.198 4.206 113.256 o
2 -3 -5 2.858 1.052 2.474 390.333 o
2 -3 -4 30.048 28.331 3.402 156.517 o
2 -3 -3 401.687 389.490 11.197 2.970 o
2 -3 -2 427.323 413.670 10.887 2.696 o
2 -3 -1 15.481 21.774 2.660 285.238 o
2 -3 2 38.620 51.584 3.959 101.504 o
2 -3 3 1004.160 1052.980 26.228 0.463 o
2 -3 4 116.142 119.994 6.186 24.536 o
2 -3 5 183.165 187.476 8.042 11.330 o
2 -3 6 70.856 59.626 5.196 51.655 o
2 -3 7 221.378 199.044 8.970 8.631 o
2 -3 8 181.302 167.063 9.093 11.044 o
2 -3 9 60.452 57.214 6.743 39.531 o
2 -3 10 22.319 22.022 5.320 78.813 o
2 -3 11 34.760 30.620 5.877 60.963 o
2 -3 12 49.591 43.976 7.114 39.689 o
2 -3 13 33.651 34.016 7.547 38.762 o
2 -2 -12 37.905 39.212 6.371 51.097 o
2 -2 -11 11.445 14.723 4.825 100.104 o
2 -2 -10 9.229 8.846 3.959 149.610 o
2 -2 -9 7.787 2.598 3.402 204.402 o
2 -2 -8 159.192 156.238 8.289 13.574 o
2 -2 -7 18.461 8.970 3.340 197.110 o
2 -2 -6 209.842 221.431 8.598 8.852 o
2 -2 -5 88.876 98.158 5.505 35.904 o
2 -2 -4 33.361 38.037 4.021 111.929 o
2 -2 -3 568.424 637.025 15.527 1.371 o
2 -2 -2 547.911 585.255 13.980 1.547 o
2 -2 -1 88.382 87.277 4.083 47.885 o
2 -2 1 7.744 7.361 1.979 575.340 o
2 -2 2 254.862 237.081 7.856 7.289 o
2 -2 3 68.394 83.318 4.639 53.600 o
2 -2 4 77.489 75.833 5.011 47.360 o
2 -2 5 204.094 209.808 8.351 9.487 o
2 -2 6 51.848 46.821 4.949 67.848 o
2 -2 7 0.462 -0.371 2.598 355.292 o
2 -2 8 47.127 46.017 5.444 61.396 o
2 -2 9 97.180 87.401 7.671 24.753 o
2 -2 10 40.123 35.810 6.000 56.486 o
2 -2 11 18.330 17.630 5.072 88.362 o
2 -2 12 38.618 41.130 6.619 47.468 o
2 -2 13 2.422 -1.794 5.134 90.943 o
2 -1 -12 69.495 79.545 8.104 27.082 o
2 -1 -11 27.178 30.002 5.072 82.303 o
2 -1 -10 21.298 25.115 4.578 103.594 o
2 -1 -9 44.553 55.667 5.629 57.468 o
2 -1 -8 19.598 21.960 3.712 154.055 o
2 -1 -7 242.258 238.071 8.722 7.349 o
2 -1 -6 48.735 43.357 4.268 86.508 o
2 -1 -5 102.144 85.297 4.887 37.429 o
2 -1 -4 131.820 126.613 5.629 22.910 o
2 -1 -3 505.145 537.624 12.929 1.823 o
2 -1 -2 445.493 456.230 11.197 2.410 o
2 -1 -1 186.326 177.517 5.320 13.832 o
2 -1 0 186.519 186.947 3.837 14.533 o
2 -1 1 278.385 244.504 7.114 6.693 o
2 -1 2 121.093 125.005 4.825 27.283 o
2 -1 3 171.894 167.248 6.186 14.674 o
2 -1 4 47.753 55.543 4.516 76.557 o
2 -1 5 168.913 194.961 7.980 12.008 o
2 -1 6 156.215 160.506 7.671 14.444 o
2 -1 7 84.888 70.637 6.000 37.646 o
2 -1 8 87.817 79.916 6.928 30.243 o
2 -1 9 40.638 41.996 5.753 59.396 o
2 -1 10 92.475 81.277 7.980 24.561 o
2 -1 11 21.113 27.032 5.753 67.760 o
2 -1 12 2.840 3.773 4.949 97.762 o
2 -1 13 145.219 151.728 12.062 10.026 o
2 0 -13 6.407 -0.186 3.959 152.256 o
2 0 -12 2.661 2.598 3.897 157.605 o
2 0 -11 40.985 39.769 5.196 70.326 o
2 0 -10 73.144 79.545 6.619 35.138 o
2 0 -9 78.886 75.338 6.062 38.193 o
2 0 -8 74.294 75.647 5.629 42.990 o
2 0 -7 116.683 109.849 5.877 26.356 o
2 0 -6 14.627 15.279 2.969 245.559 o
2 0 -5 212.061 230.215 7.609 9.115 o
2 0 -4 83.270 83.194 4.330 49.304 o
2 0 -3 131.584 127.850 4.949 24.529 o
2 0 -2 179.233 169.785 5.320 14.800 o
2 0 -1 103.644 114.613 4.083 36.155 o
2 0 0 61.720 57.647 2.969 97.755 o
2 0 1 296.207 265.956 4.898 6.359 o
2 0 2 546.943 498.669 8.477 1.863 o
2 0 3 326.375 334.140 6.500 4.711 o
2 0 4 140.859 137.126 4.023 23.919 o
2 0 5 9.500 10.825 2.907 270.110 o
2 0 6 198.515 204.797 8.784 9.564 o
2 0 7 115.109 111.520 7.052 22.689 o
2 0 8 153.249 142.944 8.598 14.046 o
2 0 9 80.252 72.616 7.485 29.222 o
2 0 10 4.941 1.361 3.959 152.431 o
2 0 11 21.134 19.609 5.382 77.874 o
2 0 12 55.213 52.760 7.671 33.496 o
2 1 -13 62.144 68.101 6.928 36.482 o
2 1 -12 9.738 7.671 3.773 164.365 o
2 1 -11 84.765 89.566 6.990 29.596 o
2 1 -10 79.935 79.730 6.433 34.807 o
2 1 -9 225.026 235.473 9.155 7.760 o
2 1 -8 209.127 208.570 8.165 9.405 o
2 1 -7 313.909 294.418 9.217 4.869 o
2 1 -6 107.911 106.509 5.196 31.228 o
2 1 -5 54.769 62.100 4.145 76.630 o
2 1 -4 309.829 339.019 9.093 4.584 o
2 1 -3 251.626 268.815 7.609 6.980 o
2 1 -2 480.784 516.845 12.062 2.010 o
2 1 -1 211.963 213.086 6.186 10.304 o
2 1 0 22.365 19.547 2.165 359.691 o
2 1 1 181.967 201.759 7.392 11.529 o
2 1 3 54.874 78.602 9.217 23.523 o
2 1 4 144.890 139.065 4.270 22.544 o
2 1 5 34.114 29.816 3.835 124.160 o
2 1 6 27.069 27.960 4.021 123.641 o
2 1 7 122.833 127.974 7.609 19.216 o
2 1 8 60.457 68.101 6.433 40.989 o
2 1 9 56.258 60.801 6.804 39.512 o
2 1 10 2.347 -1.856 3.279 222.911 o
2 1 11 10.618 6.371 4.701 106.749 o
2 1 12 26.369 23.197 6.000 61.865 o
2 2 -13 26.326 30.187 5.196 79.182 o
2 2 -12 112.038 112.633 7.547 21.549 o
2 2 -11 15.951 17.122 2.688 286.354 o
2 2 -10 13.844 16.381 2.492 335.842 o
2 2 -9 55.935 58.639 4.609 68.186 o
2 2 -8 444.751 444.535 13.423 2.321 o
2 2 -7 370.144 363.700 7.641 3.732 o
2 2 -6 161.912 154.970 4.407 18.548 o
2 2 -5 32.895 34.571 2.489 217.613 o
2 2 -4 115.407 132.410 3.787 30.916 o
2 2 -3 523.620 622.487 10.671 1.654 o
2 2 -2 657.756 743.061 13.702 1.081 o
2 2 -1 503.826 556.429 13.176 1.782 o
2 2 1 201.739 261.887 5.641 9.829 o
2 2 2 62.010 74.226 3.018 85.818 o
2 2 3 18.433 15.498 1.946 470.113 o
2 2 4 34.794 39.398 4.083 107.252 o
2 2 5 198.302 201.642 8.660 9.728 o
2 2 6 72.618 87.463 6.371 36.038 o
2 2 7 119.338 113.128 7.547 20.626 o
2 2 8 36.274 26.538 4.639 91.435 o
2 2 9 17.750 13.918 4.083 134.446 o
2 2 10 6.084 7.238 4.083 142.346 o
2 2 11 3.641 -1.361 3.650 179.712 o
2 3 -13 34.386 36.316 4.145 106.733 o
2 3 -12 30.676 34.908 3.448 146.863 o
2 3 -11 24.593 23.463 2.863 223.617 o
2 3 -10 44.841 47.521 3.630 108.045 o
2 3 -9 32.782 36.872 3.681 129.107 o
2 3 -8 4.630 2.551 1.596 917.375 o
2 3 -7 40.550 41.137 4.114 99.584 o
2 3 -6 456.819 444.595 14.197 2.209 o
2 3 -5 228.963 262.689 8.413 7.502 o
2 3 -4 71.454 69.626 2.967 78.746 o
2 3 -3 149.773 172.514 4.448 18.945 o
2 3 -2 44.383 80.232 2.432 122.348 o
2 3 -1 391.846 421.359 6.586 3.244 o
2 3 0 88.759 98.015 2.723 54.750 o
2 3 1 117.672 124.283 3.980 30.816 o
2 3 2 314.191 327.242 7.373 4.874 o
2 3 3 44.248 73.032 3.607 93.996 o
2 3 4 22.491 29.383 4.145 120.958 o
2 3 5 10.197 13.485 3.526 184.737 o
2 3 6 87.699 80.101 6.681 31.590 o
2 3 7 33.929 29.754 4.949 82.540 o
2 3 8 75.798 79.174 8.042 26.591 o
2 3 9 64.284 65.070 7.423 32.821 o
2 3 10 1.588 5.567 4.083 143.572 o
2 4 -13 13.460 14.041 2.922 256.747 o
2 4 -12 11.833 10.454 3.712 167.325 o
2 4 -11 62.849 62.670 4.138 70.267 o
2 4 -10 32.605 33.522 4.949 82.242 o
2 4 -9 14.399 18.062 2.497 329.216 o
2 4 -8 154.221 149.872 7.856 14.768 o
2 4 -7 236.872 225.328 9.279 7.487 o
2 4 -6 33.842 42.924 4.516 91.346 o
2 4 -5 223.815 208.415 5.392 10.190 o
2 4 -4 33.979 34.559 2.481 214.296 o
2 4 -3 32.995 41.557 5.722 62.645 o
2 4 -2 211.883 213.045 4.403 11.220 o
2 4 -1 167.297 160.326 3.756 18.236 o
2 4 0 120.217 117.299 3.264 33.313 o
2 4 2 171.744 165.165 5.352 15.711 o
2 4 3 136.449 151.604 7.856 16.195 o
2 4 4 161.074 143.439 8.165 14.060 o
2 4 5 4.107 5.382 2.969 269.330 o
2 4 6 19.133 22.207 4.701 100.540 o
2 4 7 20.816 17.444 4.454 111.502 o
2 4 8 9.410 11.815 4.701 106.349 o
2 4 9 81.558 56.904 7.609 29.575 o
2 5 -12 14.759 20.599 4.887 95.608 o
2 5 -11 37.980 43.357 5.938 56.983 o
2 5 -10 27.222 35.130 5.382 73.101 o
2 5 -9 42.667 46.264 5.815 56.952 o
2 5 -8 27.573 25.733 4.516 101.941 o
2 5 -7 90.885 95.312 6.619 29.753 o
2 5 -6 218.210 200.467 9.155 8.620 o
2 5 -5 9.002 9.031 2.969 261.639 o
2 5 -4 51.994 54.502 3.309 104.310 o
2 5 -3 121.427 118.453 4.216 29.849 o
2 5 -2 140.354 140.328 3.876 23.985 o
2 5 -1 106.769 103.365 4.124 36.817 o
2 5 0 145.074 145.842 4.052 22.303 o
2 5 1 42.458 47.166 5.357 64.711 o
2 5 2 49.809 47.316 5.567 58.011 o
2 5 3 78.295 81.710 6.743 32.998 o
2 5 4 31.851 28.270 4.887 85.852 o
2 5 5 17.615 19.733 4.639 104.403 o
2 5 6 1.019 -5.505 2.289 457.658 o
2 5 7 2.813 -1.423 2.907 283.228 o
2 6 -11 55.605 59.750 7.485 34.246 o
2 6 -10 21.313 25.177 5.320 78.623 o
2 6 -9 52.006 49.419 6.433 45.534 o
2 6 -8 35.320 45.646 5.877 58.474 o
2 6 -7 43.879 45.708 5.753 57.606 o
2 6 -6 72.902 74.039 6.310 38.083 o
2 6 -5 35.968 36.243 5.134 75.019 o
2 6 -4 4.851 2.660 2.536 368.659 o
2 6 -3 31.207 24.434 3.959 124.339 o
2 6 -2 63.859 57.874 3.025 93.466 o
2 6 -1 27.324 24.695 2.394 274.203 o
2 6 0 75.588 71.266 3.953 60.955 o
2 6 1 56.627 51.102 3.495 95.312 o
2 6 2 3.118 5.505 3.402 206.022 o
2 6 3 16.913 15.217 4.454 114.264 o
2 6 4 67.267 52.574 7.114 35.591 o
2 6 5 140.691 136.078 9.959 13.126 o
2 7 -10 38.947 45.151 6.681 46.221 o
2 7 -9 7.808 -2.722 2.660 333.470 o
2 7 -8 11.845 6.186 3.526 186.495 o
2 7 -7 14.479 14.784 4.330 121.948 o
2 7 -6 89.349 98.900 7.547 25.544 o
2 7 -5 61.049 64.327 6.248 43.064 o
2 7 -4 65.559 62.471 6.124 43.239 o
2 7 -3 23.589 21.898 4.206 120.032 o
2 7 -2 13.907 11.135 3.402 194.951 o
2 7 -1 3.823 1.254 1.947 626.434 o
2 7 0 24.695 21.406 3.002 210.081 o
2 7 1 59.148 63.956 7.423 33.769 o
2 7 2 37.987 42.553 6.557 48.229 o
2 7 3 2.623 -0.309 3.279 222.857 o
2 8 -6 31.923 29.692 5.815 63.106 o
2 8 -5 147.981 131.562 8.908 14.365 o
2 8 -4 166.707 153.646 9.279 12.004 o
2 8 -3 92.025 88.205 7.176 27.561 o
2 8 -2 92.932 90.246 6.928 28.369 o
2 8 -1 0.405 -0.962 2.413 412.057 o
3 -8 1 18.908 23.568 5.258 81.431 o
3 -8 2 57.742 57.275 7.114 36.948 o
3 -8 3 2.824 5.877 3.526 191.930 o
3 -8 4 12.822 13.733 4.206 130.084 o
3 -8 5 96.547 86.844 8.227 22.787 o
3 -8 6 111.397 118.324 9.526 16.368 o
3 -8 7 49.890 54.120 7.176 38.164 o
3 -7 -4 20.859 21.651 4.763 97.446 o
3 -7 1 16.681 19.857 4.516 110.274 o
3 -7 2 20.686 24.744 4.639 101.541 o
3 -7 3 10.024 10.454 3.712 168.644 o
3 -7 4 2.052 4.887 3.402 206.506 o
3 -7 5 26.842 35.748 5.877 62.509 o
3 -7 6 37.026 38.594 6.248 53.159 o
3 -7 7 42.997 59.750 7.423 36.738 o
3 -7 8 12.452 14.042 4.701 105.058 o
3 -7 9 64.562 73.730 8.165 27.760 o
3 -7 10 11.477 11.135 5.258 85.037 o
3 -6 -6 91.987 94.199 8.475 22.021 o
3 -6 -5 137.394 122.407 8.475 16.267 o
3 -6 -4 128.601 138.490 8.227 16.803 o
3 -6 -3 67.795 62.595 6.124 42.577 o
3 -6 1 61.146 63.028 6.124 44.442 o
3 -6 2 50.235 52.636 5.691 54.978 o
3 -6 3 38.458 28.517 4.516 93.250 o
3 -6 4 27.971 22.702 4.392 107.771 o
3 -6 5 20.408 20.908 4.578 105.283 o
3 -6 6 27.473 34.511 5.444 71.660 o
3 -6 7 32.012 31.604 5.567 67.792 o
3 -6 8 8.037 12.248 4.268 128.926 o
3 -6 9 65.517 72.864 8.042 28.351 o
3 -6 10 34.746 33.274 6.248 54.389 o
3 -6 11 35.007 55.729 7.980 33.658 o
3 -5 -8 19.182 16.949 5.134 86.187 o
3 -5 -7 0.972 0.186 3.897 157.894 o
3 -5 -6 20.604 21.032 4.701 100.104 o
3 -5 -5 50.618 60.245 6.124 47.965 o
3 -5 -4 115.904 105.272 7.052 23.019 o
3 -5 -3 46.209 38.718 4.578 82.144 o
3 -5 -2 41.404 47.749 4.578 82.349 o
3 -5 1 1.909 2.846 2.227 481.555 o
3 -5 2 43.488 35.934 4.578 85.063 o
3 -5 3 259.968 221.060 9.650 6.731 o
3 -5 4 111.903 108.427 7.114 23.170 o
3 -5 5 212.583 192.054 9.403 8.850 o
3 -5 6 61.853 55.976 6.124 45.270 o
3 -5 7 32.058 29.198 5.072 80.204 o
3 -5 8 0.297 1.608 3.588 186.284 o
3 -5 9 36.722 39.769 6.248 53.087 o
3 -5 10 46.373 42.305 6.619 45.638 o
3 -5 11 8.105 5.753 4.887 99.465 o
3 -5 12 22.005 21.341 6.371 56.243 o
3 -4 -9 1.118 4.516 4.145 139.447 o
3 -4 -8 4.459 -1.361 3.650 179.541 o
3 -4 -7 16.986 17.630 4.392 116.619 o
3 -4 -6 3.387 2.660 3.464 199.156 o
3 -4 -5 3.050 5.753 3.279 221.741 o
3 -4 -4 51.439 52.574 5.444 58.191 o
3 -4 -3 135.813 147.336 6.866 18.269 o
3 -4 -2 1.097 -1.052 2.165 511.399 o
3 -4 1 82.312 75.833 5.196 43.834 o
3 -4 2 39.882 36.553 4.021 105.878 o
3 -4 3 92.228 82.452 5.629 36.430 o
3 -4 4 180.717 167.743 8.165 11.938 o
3 -4 5 179.630 152.903 7.856 12.795 o
3 -4 6 24.488 24.867 4.516 104.253 o
3 -4 7 68.694 59.193 6.495 39.505 o
3 -4 8 56.730 61.853 7.114 36.707 o
3 -4 9 0.526 2.722 4.021 148.286 o
3 -4 10 35.672 31.356 5.938 59.482 o
3 -4 11 31.267 21.836 5.753 65.695 o
3 -4 12 34.136 36.243 7.609 37.992 o
3 -3 -10 45.980 46.945 6.804 43.175 o
3 -3 -9 0.612 -1.361 3.650 180.046 o
3 -3 -8 4.776 10.640 4.083 142.220 o
3 -3 -7 13.741 13.671 3.897 149.905 o
3 -3 -6 46.272 44.904 5.196 66.519 o
3 -3 -5 36.826 30.125 4.268 102.581 o
3 -3 -4 38.544 36.243 4.145 102.785 o
3 -3 -3 103.145 109.478 5.691 29.912 o
3 -3 -2 107.926 96.673 5.072 33.060 o
3 -3 -1 17.842 19.547 2.536 303.798 o
3 -3 1 188.253 182.775 7.361 11.750 o
3 -3 2 175.393 149.810 6.557 14.704 o
3 -3 3 216.413 242.154 9.155 7.936 o
3 -3 4 166.363 169.661 7.609 13.408 o
3 -3 5 34.650 30.497 4.021 114.530 o
3 -3 6 120.416 107.437 6.743 23.150 o
3 -3 7 140.839 140.655 8.289 15.553 o
3 -3 8 96.548 86.535 7.671 24.901 o
3 -3 9 43.508 45.337 5.938 54.931 o
3 -3 10 5.601 6.557 4.516 116.750 o
3 -3 11 12.615 11.258 5.134 88.831 o
3 -3 12 3.125 -1.856 4.639 111.329 o
3 -3 13 16.977 9.217 6.062 63.713 o
3 -2 -11 27.898 44.471 6.804 46.916 o
3 -2 -10 25.633 33.522 5.629 68.265 o
3 -2 -9 16.716 11.506 4.083 135.990 o
3 -2 -8 15.778 19.053 4.145 130.311 o
3 -2 -7 39.769 29.074 4.578 90.135 o
3 -2 -6 18.292 21.774 3.835 146.764 o
3 -2 -5 113.133 119.005 6.371 24.539 o
3 -2 -4 152.709 162.795 6.866 15.755 o
3 -2 -3 72.896 89.751 5.011 46.391 o
3 -2 -2 190.895 211.787 6.990 11.015 o
3 -2 -1 119.821 110.963 4.887 28.965 o
3 -2 0 42.074 34.321 2.165 210.127 o
3 -2 1 26.589 14.846 2.351 309.726 o
3 -2 2 205.625 197.559 7.299 10.385 o
3 -2 3 51.512 43.419 4.206 85.738 o
3 -2 4 71.282 72.307 5.011 50.774 o
3 -2 5 253.643 246.731 9.464 6.624 o
3 -2 6 209.298 194.776 8.908 9.236 o
3 -2 7 217.902 215.066 9.774 8.032 o
3 -2 8 45.017 49.481 6.433 47.289 o
3 -2 9 5.462 3.093 4.021 147.490 o
3 -2 10 24.289 19.486 5.382 76.911 o
3 -2 11 19.288 19.424 5.753 69.101 o
3 -2 12 40.425 34.016 6.928 44.149 o
3 -2 13 9.312 -0.124 5.505 78.696 o
3 -1 -12 33.544 40.202 6.310 52.910 o
3 -1 -11 135.362 139.418 9.155 14.585 o
3 -1 -10 64.423 68.039 6.681 37.941 o
3 -1 -9 91.642 89.195 7.238 27.264 o
3 -1 -8 11.748 13.856 3.773 160.886 o
3 -1 -7 83.453 79.606 6.000 36.823 o
3 -1 -6 166.678 145.418 6.990 15.109 o
3 -1 -5 66.371 60.492 4.825 58.243 o
3 -1 -4 786.790 799.572 19.424 0.780 o
3 -1 -3 240.904 223.225 7.299 8.227 o
3 -1 -2 104.147 124.077 5.072 30.482 o
3 -1 -1 55.832 50.780 3.526 95.625 o
3 -1 0 79.971 64.402 5.042 48.411 o
3 -1 1 55.389 56.082 4.237 76.624 o
3 -1 2 241.316 245.807 5.108 8.552 o
3 -1 3 226.281 238.112 5.215 9.374 o
3 -1 4 182.204 191.957 10.485 9.285 o
3 -1 5 118.811 113.376 3.796 32.648 o
3 -1 6 71.850 78.802 6.124 39.167 o
3 -1 7 263.610 266.279 10.887 5.706 o
3 -1 8 122.540 131.562 8.598 16.898 o
3 -1 9 26.215 23.939 5.011 85.959 o
3 -1 10 63.941 54.925 6.928 37.464 o
3 -1 11 30.128 26.785 6.062 59.393 o
3 -1 12 4.929 -1.979 4.516 117.347 o
3 0 -12 6.123 -0.247 3.835 162.259 o
3 0 -11 50.658 46.636 5.877 53.265 o
3 0 -10 46.032 36.429 5.134 69.975 o
3 0 -9 104.622 112.447 7.238 23.517 o
3 0 -8 211.476 197.374 8.537 9.321 o
3 0 -7 6.257 8.846 3.031 254.977 o
3 0 -6 52.264 56.904 4.763 68.177 o
3 0 -5 61.659 64.760 4.639 62.328 o
3 0 -4 102.738 92.411 4.887 36.112 o
3 0 -3 407.806 378.417 10.392 3.031 o
3 0 -2 113.088 96.055 4.578 33.912 o
3 0 -1 54.254 54.430 3.650 92.083 o
3 0 0 415.418 425.362 10.640 2.758 o
3 0 1 558.238 647.789 14.846 1.401 o
3 0 2 13.786 14.197 1.619 693.723 o
3 0 3 178.040 211.977 7.327 11.511 o
3 0 4 52.198 50.943 4.083 84.944 o
3 0 5 244.260 229.775 5.791 8.540 o
3 0 6 122.979 127.046 7.238 20.142 o
3 0 7 35.163 34.882 4.949 80.495 o
3 0 8 95.911 94.385 7.794 23.980 o
3 0 9 14.327 12.372 4.639 107.401 o
3 0 10 42.645 37.542 6.495 48.531 o
3 0 11 14.693 12.434 5.505 76.998 o
3 0 12 27.319 24.125 6.186 58.158 o
3 1 -13 6.992 10.083 4.516 116.036 o
3 1 -12 169.923 178.321 9.774 10.696 o
3 1 -11 51.263 40.511 5.320 62.936 o
3 1 -10 100.968 113.870 7.423 23.306 o
3 1 -9 67.224 60.183 6.000 44.282 o
3 1 -8 98.158 94.261 6.248 30.166 o
3 1 -7 300.524 291.264 9.836 5.013 o
3 1 -6 38.235 32.841 3.712 122.975 o
3 1 -5 150.880 131.005 5.938 19.181 o
3 1 -4 1.124 -0.928 1.918 651.780 o
3 1 -3 357.505 359.735 9.959 3.674 o
3 1 -2 331.683 328.936 9.279 4.298 o
3 1 -1 32.208 35.130 3.402 146.913 o
3 1 0 165.746 172.012 6.124 15.082 o
3 1 1 629.407 674.506 15.960 1.172 o
3 1 2 52.425 59.925 4.825 66.080 o
3 1 3 16.198 17.494 1.937 484.904 o
3 1 4 149.132 129.382 4.263 22.663 o
3 1 5 110.130 108.706 4.332 33.952 o
3 1 6 333.227 333.266 12.062 3.840 o
3 1 7 53.428 54.120 6.186 47.318 o
3 1 8 67.374 65.503 6.928 35.679 o
3 1 9 2.961 0.619 3.526 192.595 o
3 1 10 65.847 58.327 7.485 32.706 o
3 1 11 42.206 35.006 6.681 46.599 o
3 2 -13 15.975 10.702 4.516 112.792 o
3 2 -12 31.625 28.455 4.949 84.092 o
3 2 -11 79.684 82.823 6.804 32.229 o
3 2 -10 33.707 33.398 4.578 92.868 o
3 2 -9 21.124 14.537 3.526 171.582 o
3 2 -8 34.646 39.584 4.516 91.985 o
3 2 -7 48.076 52.017 4.763 72.217 o
3 2 -6 78.104 80.040 5.011 46.248 o
3 2 -5 69.728 66.492 4.392 60.534 o
3 2 -4 23.973 30.682 3.402 164.966 o
3 2 -3 12.743 16.764 2.722 290.227 o
3 2 -2 122.038 128.283 5.505 24.784 o
3 2 -1 40.056 40.944 3.650 117.888 o
3 2 0 137.217 129.892 5.691 21.656 o
3 2 1 139.973 134.311 3.881 24.644 o
3 2 2 60.266 61.240 2.971 97.252 o
3 2 3 86.900 85.517 3.563 53.383 o
3 2 4 171.248 164.386 5.113 16.065 o
3 2 5 211.959 200.529 8.846 9.045 o
3 2 6 132.812 133.541 7.856 17.368 o
3 2 7 61.676 58.389 6.371 42.504 o
3 2 8 64.681 75.895 7.299 32.642 o
3 2 9 247.020 260.650 12.867 5.469 o
3 2 10 4.307 2.598 4.021 147.798 o
3 2 11 56.689 52.450 7.794 32.441 o
3 3 -13 35.739 38.037 5.505 66.513 o
3 3 -12 45.706 37.419 5.567 61.575 o
3 3 -11 12.002 14.290 3.897 150.932 o
3 3 -10 59.164 63.722 4.198 71.565 o
3 3 -9 81.314 83.447 4.368 49.856 o
3 3 -8 119.632 112.250 4.665 29.614 o
3 3 -7 45.493 38.533 3.171 132.550 o
3 3 -6 163.638 148.953 4.966 17.983 o
3 3 -5 271.006 294.802 6.984 6.239 o
3 3 -4 294.664 288.712 6.753 5.777 o
3 3 -3 262.148 281.675 8.846 6.156 o
3 3 -2 223.778 228.916 7.794 8.563 o
3 3 -1 40.285 47.064 2.512 169.884 o
3 3 0 141.512 154.304 4.388 21.621 o
3 3 1 206.287 212.407 5.488 11.035 o
3 3 2 297.074 318.376 7.391 5.286 o
3 3 3 12.808 18.015 2.269 395.574 o
3 3 4 23.854 21.785 2.734 245.057 o
3 3 5 0.766 5.877 2.969 271.228 o
3 3 6 16.599 18.187 4.145 130.043 o
3 3 7 48.715 50.780 6.495 45.496 o
3 3 8 9.713 15.094 4.825 100.553 o
3 3 9 3.157 8.722 4.392 123.640 o
3 4 -12 22.453 25.679 3.478 165.591 o
3 4 -11 0.491 0.060 2.134 526.529 o
3 4 -10 13.417 18.254 2.807 270.888 o
3 4 -9 45.457 49.285 3.962 95.477 o
3 4 -8 38.445 38.823 3.374 134.742 o
3 4 -7 136.271 134.729 5.062 22.814 o
3 4 -6 325.876 306.363 7.618 4.816 o
3 4 -5 97.455 97.431 4.216 40.829 o
3 4 -4 221.233 205.603 7.052 9.554 o
3 4 -3 25.787 47.484 3.185 161.531 o
3 4 -2 176.107 188.909 4.300 15.099 o
3 4 -1 401.911 392.740 8.266 3.178 o
3 4 0 22.241 38.884 4.392 106.024 o
3 4 1 110.921 115.604 4.578 31.752 o
3 4 2 24.977 47.988 3.467 144.305 o
3 4 3 62.425 82.899 4.436 59.420 o
3 4 4 23.600 26.414 4.578 101.835 o
3 4 5 29.684 29.198 4.887 86.768 o
3 4 6 101.703 91.916 7.732 23.607 o
3 4 7 36.940 40.326 6.371 51.195 o
3 5 -12 11.702 6.743 4.578 112.127 o
3 5 -11 11.086 15.341 4.578 110.889 o
3 5 -10 30.365 28.107 4.203 111.808 o
3 5 -9 37.326 40.445 5.196 71.915 o
3 5 -8 87.564 84.952 4.437 46.022 o
3 5 -7 73.230 72.799 4.084 60.383 o
3 5 -6 38.225 40.214 4.361 93.896 o
3 5 -5 43.542 42.714 7.918 33.890 o
3 5 -4 60.347 65.683 3.906 75.160 o
3 5 -3 31.588 35.939 4.977 81.370 o
3 5 -2 43.711 48.791 2.852 140.872 o
3 5 -1 134.683 134.754 6.650 19.578 o
3 5 0 29.789 28.486 3.061 183.269 o
3 5 1 30.373 33.262 3.408 151.284 o
3 5 2 11.309 15.335 2.790 282.969 o
3 5 3 30.640 24.682 4.578 97.908 o
3 5 4 6.123 6.310 3.279 219.756 o
3 5 5 18.164 23.939 5.134 85.345 o
3 5 6 37.373 27.775 5.629 65.305 o
3 5 7 31.625 24.744 5.567 69.105 o
3 6 -10 48.058 63.832 7.609 34.187 o
3 6 -9 32.558 32.532 5.815 62.487 o
3 6 -8 22.919 17.630 4.516 107.442 o
3 6 -7 62.457 66.678 6.804 37.535 o
3 6 -6 67.421 71.627 6.681 36.861 o
3 6 -5 16.224 17.084 2.569 308.363 o
3 6 -4 64.597 60.257 4.013 72.007 o
3 6 -3 71.723 68.075 4.081 62.947 o
3 6 -2 7.544 9.099 2.728 310.600 o
3 6 -1 85.219 75.674 4.461 49.013 o
3 6 0 77.675 70.719 4.543 53.133 o
3 6 1 41.906 47.371 8.011 33.117 o
3 6 2 48.524 47.625 6.186 49.658 o
3 6 3 12.088 11.320 4.268 127.423 o
3 6 4 5.174 9.959 4.330 126.578 o
3 7 -8 8.442 9.526 4.454 118.901 o
3 7 -7 22.591 23.878 5.382 76.750 o
3 7 -6 42.562 44.223 6.495 47.770 o
3 7 -5 51.000 50.595 6.804 41.738 o
3 7 -4 23.593 19.919 4.578 103.769 o
3 7 -3 103.784 101.270 5.128 33.303 o
3 7 -2 31.148 28.300 3.385 155.839 o
3 7 -1 1.699 2.251 2.501 382.450 o
3 7 0 47.405 43.976 6.310 48.903 o
3 7 1 53.433 54.739 7.052 38.529 o
3 7 2 26.828 31.109 5.877 63.151 o
4 -8 3 4.428 10.269 4.206 134.218 o
4 -8 4 28.275 40.326 6.371 53.186 o
4 -7 0 74.704 65.874 7.238 32.151 o
4 -7 1 19.702 23.383 4.763 97.585 o
4 -7 2 51.326 59.255 6.433 44.453 o
4 -7 3 2.813 5.072 3.217 230.572 o
4 -7 4 20.632 22.517 4.763 97.347 o
4 -7 5 85.637 96.673 8.289 23.257 o
4 -7 6 2.128 7.361 4.083 143.331 o
4 -7 7 112.957 105.581 9.093 17.718 o
4 -7 8 6.556 10.269 4.578 113.045 o
4 -6 -5 30.975 29.012 5.382 72.834 o
4 -6 -4 40.818 44.532 5.691 59.932 o
4 -6 -3 46.573 54.739 5.567 57.823 o
4 -6 1 7.715 4.825 3.031 255.576 o
4 -6 2 50.919 51.894 5.815 53.132 o
4 -6 3 77.409 70.884 6.371 36.891 o
4 -6 4 14.380 20.413 4.454 114.231 o
4 -6 5 65.885 73.668 7.671 30.333 o
4 -6 6 16.946 18.125 4.392 116.502 o
4 -6 7 0.316 1.918 3.650 180.013 o
4 -6 8 28.271 24.496 5.382 74.690 o
4 -6 9 17.811 19.362 5.505 75.517 o
4 -6 10 25.308 27.898 6.557 52.195 o
4 -5 -7 2.431 -1.423 4.206 135.461 o
4 -5 -6 5.312 1.237 3.835 162.308 o
4 -5 -5 26.336 31.975 5.134 80.495 o
4 -5 -4 3.176 7.238 3.712 172.992 o
4 -5 -3 55.119 71.070 6.124 45.031 o
4 -5 -2 17.356 29.816 4.083 128.501 o
4 -5 1 20.052 19.795 3.835 145.985 o
4 -5 2 43.500 49.234 5.258 65.632 o
4 -5 3 16.767 20.723 4.083 132.657 o
4 -5 4 192.792 175.971 9.279 10.109 o
4 -5 5 11.588 13.547 3.773 161.127 o
4 -5 6 118.508 109.169 8.227 19.167 o
4 -5 7 1.395 5.196 3.773 168.081 o
4 -5 8 12.261 16.083 5.134 88.333 o
4 -5 9 7.533 8.846 4.516 116.056 o
4 -5 10 5.904 12.990 5.691 73.384 o
4 -5 11 0.224 0.124 4.825 103.019 o
4 -4 -9 10.358 8.722 5.196 87.482 o
4 -4 -8 22.893 26.105 5.629 70.200 o
4 -4 -7 25.874 31.480 5.382 74.291 o
4 -4 -6 26.489 29.383 4.949 86.455 o
4 -4 -5 14.642 18.063 4.145 131.404 o
4 -4 -4 35.053 34.821 4.578 91.431 o
4 -4 -3 56.939 58.760 5.196 58.092 o
4 -4 -2 17.892 23.445 3.402 180.917 o
4 -4 0 209.945 220.750 9.217 8.515 o
4 -4 1 49.612 45.275 4.639 76.060 o
4 -4 2 39.626 40.264 4.578 86.270 o
4 -4 3 291.627 282.418 10.949 5.006 o
4 -4 4 11.113 9.093 3.340 206.252 o
4 -4 5 157.927 135.707 8.289 14.409 o
4 -4 6 11.650 10.949 4.021 143.363 o
4 -4 7 4.187 0.742 3.526 192.296 o
4 -4 8 51.111 54.925 6.619 43.100 o
4 -4 9 65.610 68.905 8.104 28.261 o
4 -4 10 91.095 83.999 9.155 20.363 o
4 -4 11 31.799 31.233 6.557 50.700 o
4 -4 12 15.348 17.321 6.433 56.442 o
4 -3 -10 16.367 17.939 5.505 76.040 o
4 -3 -9 1.904 0.433 4.206 135.482 o
4 -3 -8 10.363 18.991 4.887 97.346 o
4 -3 -7 33.847 40.511 5.505 66.766 o
4 -3 -6 90.029 94.632 7.176 27.361 o
4 -3 -5 110.454 111.953 7.238 22.736 o
4 -3 -4 85.867 83.813 6.000 35.634 o
4 -3 -3 3.569 3.959 2.660 336.174 o
4 -3 -2 76.886 82.390 5.134 45.172 o
4 -3 -1 59.465 51.461 3.897 82.408 o
4 -3 0 202.811 174.300 7.238 11.229 o
4 -3 1 40.475 38.346 3.835 111.392 o
4 -3 2 14.779 17.073 2.969 243.276 o
4 -3 3 82.442 82.452 5.505 40.219 o
4 -3 4 238.797 237.824 9.526 7.136 o
4 -3 5 237.926 215.684 9.464 7.523 o
4 -3 6 46.059 55.296 6.433 46.297 o
4 -3 7 82.327 81.895 7.671 27.262 o
4 -3 8 13.830 14.413 4.578 110.004 o
4 -3 9 83.527 78.802 8.289 24.553 o
4 -3 10 96.984 107.561 9.650 17.544 o
4 -3 11 71.025 83.813 9.836 19.790 o
4 -3 12 25.605 26.909 7.052 45.549 o
4 -2 -11 58.131 60.863 7.423 34.194 o
4 -2 -10 59.625 70.637 7.547 32.307 o
4 -2 -9 24.674 21.032 4.825 93.486 o
4 -2 -8 2.749 3.650 3.588 185.739 o
4 -2 -7 32.350 35.996 5.072 78.404 o
4 -2 -6 252.194 245.803 9.897 6.522 o
4 -2 -5 221.289 220.750 8.970 8.232 o
4 -2 -4 536.219 520.000 14.413 1.685 o
4 -2 -3 48.920 51.584 4.454 78.534 o
4 -2 -2 55.394 49.976 4.083 82.541 o
4 -2 -1 156.201 142.820 5.753 18.111 o
4 -2 0 6.922 5.142 2.165 493.463 o
4 -2 1 264.758 242.908 5.478 7.590 o
4 -2 2 13.517 17.011 2.722 287.641 o
4 -2 3 157.612 148.388 6.743 16.152 o
4 -2 4 262.254 239.308 9.155 6.599 o
4 -2 5 3.684 5.629 3.093 248.604 o
4 -2 6 229.163 232.071 10.269 7.183 o
4 -2 7 67.673 57.585 6.310 41.600 o
4 -2 8 43.779 39.089 5.938 55.836 o
4 -2 9 95.936 84.308 8.598 21.706 o
4 -2 10 35.060 22.702 5.815 63.213 o
4 -2 11 15.684 21.712 6.371 57.177 o
4 -2 12 22.006 18.248 6.371 56.494 o
4 -1 -11 10.721 6.310 4.516 115.524 o
4 -1 -10 21.261 18.991 4.763 97.888 o
4 -1 -9 12.164 6.619 3.897 153.284 o
4 -1 -8 23.754 22.950 4.516 105.325 o
4 -1 -7 42.815 46.141 5.072 70.432 o
4 -1 -6 50.071 43.233 4.763 73.703 o
4 -1 -5 258.127 238.875 8.970 6.779 o
4 -1 -4 69.010 59.812 4.763 57.866 o
4 -1 -3 89.401 82.947 5.072 40.949 o
4 -1 -2 93.120 89.318 4.949 39.391 o
4 -1 -1 179.310 159.083 6.124 14.450 o
4 -1 0 99.341 88.329 4.578 39.683 o
4 -1 1 10.662 6.632 1.373 1061.150 o
4 -1 2 15.768 18.827 2.474 326.833 o
4 -1 3 3.838 3.864 1.430 1136.850 o
4 -1 4 116.334 120.048 3.924 31.966 o
4 -1 5 369.687 354.533 7.683 3.791 o
4 -1 6 7.864 3.642 1.910 626.808 o
4 -1 7 79.233 86.473 7.423 28.600 o
4 -1 8 39.266 36.429 6.062 55.666 o
4 -1 9 30.661 29.631 6.000 60.006 o
4 -1 10 92.133 89.813 9.155 20.016 o
4 -1 11 57.703 54.368 8.351 28.704 o
4 -1 12 36.071 35.748 7.423 39.524 o
4 0 -12 0.073 -4.392 4.145 139.624 o
4 0 -11 78.073 79.297 7.794 27.466 o
4 0 -10 50.426 51.275 6.371 46.401 o
4 0 -9 48.148 47.130 5.567 58.704 o
4 0 -8 3.808 2.413 3.217 230.719 o
4 0 -7 80.923 77.503 6.000 37.791 o
4 0 -6 97.781 85.174 5.938 32.835 o
4 0 -5 60.676 62.410 5.072 57.219 o
4 0 -4 194.165 202.075 7.671 10.616 o
4 0 -3 157.451 135.212 6.062 17.917 o
4 0 -2 118.721 113.870 5.444 27.011 o
4 0 -1 182.787 161.867 6.371 13.788 o
4 0 0 244.377 247.721 8.042 7.388 o
4 0 1 79.613 89.566 4.701 46.326 o
4 0 2 408.642 443.883 8.484 2.874 o
4 0 3 66.248 66.380 3.197 82.196 o
4 0 4 25.773 27.642 2.512 257.479 o
4 0 5 8.682 11.218 2.598 335.831 o
4 0 6 272.693 281.101 7.305 6.298 o
4 0 7 20.914 19.980 4.763 97.818 o
4 0 8 7.070 5.134 4.206 134.197 o
4 0 9 4.634 0.124 4.083 143.523 o
4 0 10 32.023 32.470 6.619 49.681 o
4 0 11 12.810 7.609 5.258 85.121 o
4 1 -12 2.669 4.268 4.145 139.266 o
4 1 -11 57.430 57.028 6.495 42.562 o
4 1 -10 56.692 62.843 6.557 41.436 o
4 1 -9 50.397 54.801 5.691 54.518 o
4 1 -8 16.400 15.465 3.650 166.129 o
4 1 -7 114.456 113.252 6.928 23.035 o
4 1 -6 196.785 193.724 8.042 10.428 o
4 1 -5 6.793 6.000 2.536 362.494 o
4 1 -4 317.095 291.016 9.464 4.798 o
4 1 -3 72.770 78.493 5.011 48.783 o
4 1 -2 110.610 105.148 5.382 29.973 o
4 1 -1 248.317 232.194 7.980 7.535 o
4 1 0 16.615 12.310 2.536 322.947 o
4 1 1 416.047 416.763 11.753 2.708 o
4 1 2 276.829 272.707 10.111 5.583 o
4 1 3 76.638 55.172 3.148 78.022 o
4 1 4 67.127 56.972 3.408 82.291 o
4 1 5 97.917 102.027 5.877 31.123 o
4 1 6 31.231 37.526 3.492 141.200 o
4 1 7 169.602 168.733 9.526 11.186 o
4 1 8 53.465 51.708 6.495 44.209 o
4 1 9 46.137 42.120 6.743 44.315 o
4 1 10 43.804 53.873 7.856 33.632 o
4 1 11 52.898 55.791 8.846 26.424 o
4 2 -12 59.895 57.399 6.743 39.635 o
4 2 -11 63.309 61.296 6.681 38.961 o
4 2 -10 24.863 23.939 4.516 104.310 o
4 2 -9 31.830 32.470 4.763 88.445 o
4 2 -8 25.075 25.424 4.330 111.616 o
4 2 -7 1.058 -0.619 2.536 372.733 o
4 2 -6 163.475 157.227 7.238 14.558 o
4 2 -5 172.657 147.274 6.866 14.673 o
4 2 -4 171.985 186.734 7.423 12.616 o
4 2 -3 418.540 424.929 12.062 2.639 o
4 2 -2 55.979 59.812 4.454 70.584 o
4 2 -1 114.624 97.478 5.382 29.931 o
4 2 0 217.085 203.065 7.671 9.462 o
4 2 1 142.222 120.056 6.062 20.823 o
4 2 2 167.607 162.133 4.738 17.008 o
4 2 3 48.022 48.128 5.320 62.679 o
4 2 4 13.755 14.464 2.231 412.028 o
4 2 5 2.454 0.816 1.879 676.054 o
4 2 6 6.779 7.609 3.588 183.260 o
4 2 7 102.800 99.952 7.980 22.119 o
4 2 8 37.209 39.831 6.248 52.955 o
4 2 9 18.157 14.290 4.763 100.287 o
4 2 10 51.944 55.172 8.042 31.231 o
4 3 -12 33.210 28.888 5.320 73.445 o
4 3 -11 19.918 19.919 4.701 100.714 o
4 3 -10 26.498 26.476 4.578 100.009 o
4 3 -9 83.670 85.297 6.433 33.319 o
4 3 -8 58.733 56.533 5.691 51.138 o
4 3 -7 18.962 17.939 3.712 157.050 o
4 3 -6 17.492 17.011 3.526 174.702 o
4 3 -5 112.551 109.726 6.124 26.286 o
4 3 -4 111.866 109.788 6.000 26.851 o
4 3 -3 126.007 127.417 6.371 21.882 o
4 3 -2 304.304 312.791 10.145 4.704 o
4 3 0 112.308 107.746 6.124 26.515 o
4 3 1 80.672 79.549 6.928 31.634 o
4 3 2 226.365 211.877 7.296 9.052 o
4 3 3 76.668 73.151 3.998 59.116 o
4 3 4 188.486 187.560 6.211 12.535 o
4 3 5 124.583 126.748 5.621 24.146 o
4 3 6 123.294 129.892 8.722 16.654 o
4 3 7 50.544 54.739 7.114 38.531 o
4 3 8 276.843 297.388 14.290 4.350 o
4 3 9 14.688 11.444 4.887 97.178 o
4 4 -11 33.504 40.573 5.382 69.496 o
4 4 -10 14.199 8.784 3.650 171.522 o
4 4 -9 37.811 37.975 4.887 79.768 o
4 4 -8 85.774 89.195 6.371 32.772 o
4 4 -7 63.765 54.615 5.382 53.457 o
4 4 -6 48.828 53.626 5.382 60.060 o
4 4 -5 50.337 39.584 4.578 78.936 o
4 4 -4 23.240 18.558 3.588 160.965 o
4 4 -3 0.822 7.052 2.598 353.415 o
4 4 -2 111.475 120.242 6.495 24.314 o
4 4 -1 160.796 142.944 7.299 15.304 o
4 4 0 14.844 17.055 3.155 218.032 o
4 4 1 36.356 41.944 4.454 91.757 o
4 4 2 8.463 11.023 3.866 156.533 o
4 4 3 15.509 14.058 4.732 102.636 o
4 4 4 8.466 11.209 2.607 334.218 o
4 4 5 65.734 81.153 7.114 33.184 o
4 4 6 25.535 25.795 5.320 77.036 o
4 4 7 60.806 70.823 7.918 29.814 o
4 5 -11 42.327 52.203 5.877 55.120 o
4 5 -10 3.811 -1.175 2.846 295.191 o
4 5 -9 63.673 62.595 6.186 43.169 o
4 5 -8 23.062 21.465 4.145 123.838 o
4 5 -7 32.255 30.923 4.639 92.638 o
4 5 -6 27.287 30.373 4.206 113.384 o
4 5 -5 122.277 123.706 7.052 20.904 o
4 5 -4 43.146 57.028 5.444 60.752 o
4 5 -3 12.896 14.599 3.588 175.647 o
4 5 -2 33.567 34.882 4.578 92.449 o
4 5 -1 153.881 153.781 5.380 18.302 o
4 5 0 43.631 55.136 3.862 97.354 o
4 5 1 113.036 108.780 4.997 30.470 o
4 5 2 72.184 69.262 4.621 55.479 o
4 5 3 38.812 34.285 4.513 90.963 o
4 5 4 15.690 14.846 4.206 128.131 o
4 5 5 36.908 27.465 5.567 66.785 o
4 6 -9 1.538 3.987 2.475 390.049 o
4 6 -8 139.632 145.632 6.210 19.172 o
4 6 -7 21.388 23.166 3.354 179.847 o
4 6 -6 3.433 4.639 3.031 259.256 o
4 6 -5 74.393 77.194 6.310 37.306 o
4 6 -4 60.448 70.761 6.124 43.519 o
4 6 -3 9.324 6.990 3.650 175.895 o
4 6 -2 52.073 59.502 6.248 46.237 o
4 6 -1 59.137 70.215 4.465 64.886 o
4 6 0 126.166 136.007 7.856 17.898 o
4 6 1 10.088 7.361 4.392 122.035 o
4 6 2 6.023 21.952 3.552 182.145 o
4 6 3 20.358 15.032 4.330 118.498 o
4 7 -6 1.935 0.804 3.155 240.720 o
4 7 -5 5.021 6.062 3.217 229.043 o
4 7 -4 60.773 58.018 6.310 43.397 o
4 7 -3 54.756 62.038 6.681 40.831 o
4 7 -2 46.508 54.554 6.619 44.211 o
4 7 -1 1.056 1.681 2.597 355.183 o
5 -7 -1 11.688 25.300 5.691 71.543 o
5 -7 0 84.655 95.622 8.413 22.969 o
5 -7 1 16.870 25.115 4.949 91.715 o
5 -7 2 17.471 30.311 5.320 79.044 o
5 -7 3 10.547 8.846 3.959 148.938 o
5 -7 4 22.173 33.150 5.877 64.105 o
5 -7 5 17.694 20.413 5.134 86.107 o
5 -7 6 43.498 51.770 6.990 41.286 o
5 -6 -4 33.387 34.202 5.196 75.214 o
5 -6 -1 57.519 69.400 7.238 34.917 o
5 -6 0 5.893 13.856 3.959 150.004 o
5 -6 1 77.437 76.266 6.990 32.206 o
5 -6 2 26.987 27.032 4.701 94.995 o
5 -6 3 17.718 25.733 4.763 97.968 o
5 -6 4 35.181 48.615 6.433 49.787 o
5 -6 5 35.059 46.945 6.371 50.852 o
5 -6 6 42.462 45.089 6.433 48.462 o
5 -6 7 38.358 38.594 6.619 47.792 o
5 -6 8 5.591 3.093 4.454 120.313 o
5 -6 9 12.183 20.228 5.815 68.989 o
5 -5 -6 14.891 14.351 4.825 99.048 o
5 -5 -5 8.132 5.815 4.145 137.750 o
5 -5 -4 9.634 11.444 4.083 140.088 o
5 -5 -3 16.383 17.506 3.959 142.042 o
5 -5 -2 3.098 3.340 2.907 282.280 o
5 -5 -1 24.996 27.094 4.639 98.404 o
5 -5 0 0.708 5.072 2.969 271.415 o
5 -5 1 41.962 37.728 5.072 73.069 o
5 -5 2 74.647 75.895 6.619 35.210 o
5 -5 3 2.258 7.671 3.588 185.293 o
5 -5 4 25.267 23.135 4.701 97.086 o
5 -5 5 17.798 20.042 4.825 96.847 o
5 -5 6 18.775 22.950 5.134 85.304 o
5 -5 7 58.742 68.843 7.794 30.990 o
5 -5 8 24.035 24.249 5.753 67.365 o
5 -5 9 22.928 15.403 5.815 67.351 o
5 -5 10 43.484 33.398 7.114 41.674 o
5 -4 -8 5.407 4.206 4.701 107.985 o
5 -4 -7 17.922 23.321 5.258 81.787 o
5 -4 -6 25.518 28.826 5.134 81.527 o
5 -4 -5 17.619 19.300 4.392 115.778 o
5 -4 -4 8.422 15.094 3.897 152.992 o
5 -4 -3 14.451 17.692 3.897 147.790 o
5 -4 -2 40.445 41.192 4.330 92.623 o
5 -4 -1 36.419 41.749 3.210 144.483 o
5 -4 0 50.773 50.533 5.258 61.921 o
5 -4 1 19.469 23.568 3.959 136.688 o
5 -4 2 49.105 53.873 5.753 54.284 o
5 -4 3 83.601 83.132 6.495 33.206 o
5 -4 4 46.630 55.543 6.124 49.844 o
5 -4 5 57.365 64.822 6.804 38.837 o
5 -4 6 0.478 -0.990 3.588 186.311 o
5 -4 7 95.586 85.236 8.227 22.993 o
5 -4 8 82.792 94.941 8.970 21.227 o
5 -4 9 23.235 22.702 6.124 60.264 o
5 -4 10 130.260 157.598 11.444 11.168 o
5 -3 -9 6.979 11.197 5.134 89.947 o
5 -3 -8 49.402 54.987 6.804 41.611 o
5 -3 -7 17.376 14.166 4.639 105.789 o
5 -3 -6 41.791 43.172 5.567 61.980 o
5 -3 -5 70.202 76.637 6.681 35.683 o
5 -3 -4 14.475 14.723 3.650 168.491 o
5 -3 -3 136.851 120.737 6.743 19.980 o
5 -3 -2 49.646 48.429 4.887 69.840 o
5 -3 -1 95.406 98.865 3.934 43.062 o
5 -3 0 62.947 56.645 3.166 92.273 o
5 -3 1 180.385 159.578 7.423 12.972 o
5 -3 2 111.339 109.849 6.371 25.624 o
5 -3 3 97.484 116.778 7.176 24.455 o
5 -3 4 3.700 3.526 3.217 230.520 o
5 -3 5 44.016 53.193 6.000 52.638 o
5 -3 6 48.284 48.739 6.310 48.033 o
5 -3 7 23.961 25.053 5.629 70.046 o
5 -3 8 95.424 89.195 8.598 21.506 o
5 -3 9 43.815 48.058 7.485 36.984 o
5 -3 10 7.944 3.835 5.382 82.278 o
5 -3 11 76.560 88.452 10.021 18.680 o
5 -2 -10 4.089 9.836 4.949 97.315 o
5 -2 -9 35.678 43.852 6.310 51.943 o
5 -2 -8 4.068 6.681 4.206 134.746 o
5 -2 -7 1.941 -0.309 3.526 192.800 o
5 -2 -6 34.574 34.264 5.072 77.729 o
5 -2 -5 116.767 117.396 7.114 21.876 o
5 -2 -4 54.387 62.904 5.567 53.153 o
5 -2 -3 63.681 65.750 5.382 51.205 o
5 -2 -2 64.132 69.668 3.276 81.267 o
5 -2 -1 7.976 12.540 1.735 705.591 o
5 -2 0 398.945 382.706 7.828 3.288 o
5 -2 2 256.825 247.035 5.962 7.665 o
5 -2 3 0.868 2.538 1.590 945.143 o
5 -2 4 139.610 145.604 7.856 16.181 o
5 -2 5 87.119 80.967 7.114 29.311 o
5 -2 6 110.128 96.983 7.732 22.201 o
5 -2 7 11.479 21.403 5.320 82.011 o
5 -2 8 34.049 40.511 6.681 47.694 o
5 -2 9 58.083 59.007 7.547 33.467 o
5 -2 10 62.799 60.492 7.980 29.876 o
5 -2 11 19.037 10.145 5.815 68.671 o
5 -1 -10 22.977 18.681 5.320 79.145 o
5 -1 -9 11.953 8.846 4.392 121.107 o
5 -1 -8 66.024 80.163 7.176 32.820 o
5 -1 -7 60.960 49.481 5.567 53.206 o
5 -1 -6 53.874 43.295 5.072 65.413 o
5 -1 -5 135.524 141.336 7.671 17.088 o
5 -1 -4 34.687 34.759 4.268 102.425 o
5 -1 -3 6.318 6.248 2.598 346.538 o
5 -1 -2 408.199 376.437 11.258 2.965 o
5 -1 -1 15.332 19.300 3.155 215.112 o
5 -1 0 13.987 17.506 2.907 253.949 o
5 -1 1 23.860 23.754 3.155 193.393 o
5 -1 2 116.671 101.878 3.862 34.871 o
5 -1 3 67.230 62.209 3.371 80.208 o
5 -1 4 113.470 98.986 4.102 35.403 o
5 -1 5 33.692 33.179 4.141 109.021 o
5 -1 6 76.824 68.608 4.027 60.118 o
5 -1 7 23.591 22.520 6.000 62.567 o
5 -1 8 18.519 12.867 4.887 95.647 o
5 -1 9 3.275 7.176 4.949 97.573 o
5 -1 10 1.220 -3.773 4.392 124.317 o
5 -1 11 4.523 6.062 5.505 78.843 o
5 0 -11 4.344 3.526 4.454 120.471 o
5 0 -10 33.261 32.779 5.629 65.864 o
5 0 -9 6.853 4.578 3.712 172.102 o
5 0 -8 19.347 20.908 4.392 114.250 o
5 0 -7 14.087 13.300 4.083 137.106 o
5 0 -6 1.088 5.938 3.155 240.212 o
5 0 -5 34.637 26.290 4.145 111.268 o
5 0 -4 97.702 102.488 6.062 30.250 o
5 0 -3 162.776 148.883 6.866 15.470 o
5 0 -2 145.763 126.366 6.248 19.540 o
5 0 -1 239.723 233.617 8.413 7.626 o
5 0 0 149.778 150.862 6.681 16.905 o
5 0 1 298.872 269.743 9.155 5.395 o
5 0 2 20.570 16.887 3.031 222.040 o
5 0 3 831.076 778.710 13.957 0.786 o
5 0 4 39.036 40.770 3.133 144.597 o
5 0 5 171.412 154.192 8.162 12.962 o
5 0 6 150.535 153.299 5.646 18.331 o
5 0 7 32.509 40.023 3.708 126.001 o
5 0 8 27.601 31.480 6.062 59.437 o
5 0 9 25.312 24.187 6.000 61.995 o
5 0 10 11.081 3.897 4.825 101.599 o
5 1 -11 112.509 108.303 9.217 17.353 o
5 1 -10 20.432 18.310 4.825 96.092 o
5 1 -9 1.231 -2.969 3.279 223.070 o
5 1 -8 18.786 15.094 4.145 129.594 o
5 1 -7 61.391 62.410 6.062 45.091 o
5 1 -6 12.001 13.856 3.402 195.589 o
5 1 -5 109.492 104.653 6.495 25.959 o
5 1 -4 176.083 168.857 7.671 12.693 o
5 1 -3 53.318 48.491 4.763 70.082 o
5 1 -2 55.964 51.337 4.639 69.921 o
5 1 -1 92.474 91.916 5.629 35.049 o
5 1 0 141.324 126.056 6.371 19.877 o
5 1 1 109.666 107.932 6.062 27.227 o
5 1 2 87.307 79.668 5.505 39.123 o
5 1 3 12.725 14.211 2.182 434.939 o
5 1 4 302.704 284.134 7.238 5.556 o
5 1 5 13.092 13.847 2.469 349.473 o
5 1 6 36.940 35.757 3.549 130.671 o
5 1 7 51.710 56.162 6.743 41.588 o
5 1 8 29.776 29.569 6.000 60.244 o
5 1 9 25.963 25.610 5.938 62.872 o
5 2 -11 26.881 26.414 5.444 73.313 o
5 2 -10 170.366 182.651 9.836 10.517 o
5 2 -9 64.045 65.812 6.619 38.789 o
5 2 -8 8.947 8.227 3.464 194.561 o
5 2 -7 56.798 56.904 5.877 49.483 o
5 2 -6 25.699 34.140 4.639 95.814 o
5 2 -5 0.603 0.062 2.660 338.942 o
5 2 -4 35.728 29.383 4.083 111.332 o
5 2 -3 310.038 285.140 10.145 4.838 o
5 2 -2 19.043 14.413 3.155 212.737 o
5 2 -1 20.749 15.960 3.279 194.496 o
5 2 0 1.484 2.846 2.413 410.936 o
5 2 1 133.751 130.263 6.928 19.367 o
5 2 2 34.113 29.715 2.645 206.838 o
5 2 3 120.490 117.636 4.695 28.660 o
5 2 4 139.135 142.288 5.422 21.006 o
5 2 5 69.172 63.065 4.348 62.539 o
5 2 6 0.281 -0.986 2.087 550.472 o
5 2 7 99.007 116.097 8.722 19.441 o
5 2 8 22.973 16.702 5.072 86.863 o
5 3 -11 22.339 24.434 5.072 85.598 o
5 3 -10 11.913 13.114 4.268 127.084 o
5 3 -9 35.281 36.243 5.320 71.023 o
5 3 -8 5.119 5.011 3.526 191.198 o
5 3 -7 73.776 70.142 6.248 38.840 o
5 3 -6 63.346 67.235 5.938 45.005 o
5 3 -5 2.044 -0.124 2.722 323.397 o
5 3 -4 18.786 17.939 3.588 167.139 o
5 3 -3 24.951 23.197 3.897 135.128 o
5 3 -2 321.957 305.368 11.011 4.336 o
5 3 -1 117.493 114.241 6.804 22.894 o
5 3 0 13.379 8.289 3.093 236.174 o
5 3 1 13.478 10.764 3.279 209.818 o
5 3 2 9.218 9.982 2.140 482.808 o
5 3 3 19.731 20.424 2.746 258.968 o
5 3 4 69.927 67.355 4.402 60.028 o
5 3 5 62.282 60.819 4.539 64.689 o
5 3 6 109.532 105.581 8.351 19.944 o
5 3 7 10.421 10.764 4.392 121.323 o
5 4 -10 10.319 1.670 3.650 176.887 o
5 4 -9 43.769 41.996 5.567 61.437 o
5 4 -8 11.688 9.959 3.712 167.622 o
5 4 -7 43.063 47.192 5.629 59.651 o
5 4 -6 79.844 82.019 6.557 33.781 o
5 4 -5 74.682 65.998 6.000 41.184 o
5 4 -4 6.089 4.330 3.155 237.852 o
5 4 -3 29.238 25.486 4.268 111.050 o
5 4 -2 62.251 58.946 5.815 48.023 o
5 4 -1 42.392 43.976 5.320 66.166 o
5 4 0 20.484 13.362 3.650 162.767 o
5 4 1 40.389 41.128 3.284 133.943 o
5 4 2 93.070 85.324 12.864 11.944 o
5 4 3 2.767 4.683 2.214 484.178 o
5 4 4 48.474 46.417 7.423 36.924 o
5 4 5 10.384 8.605 3.016 252.167 o
5 4 6 8.270 7.176 3.959 150.433 o
5 5 -9 59.572 63.461 6.804 38.507 o
5 5 -8 94.060 100.076 7.671 24.312 o
5 5 -7 55.537 49.295 5.938 50.393 o
5 5 -6 82.319 94.137 7.238 28.390 o
5 5 -5 44.812 39.955 5.258 67.191 o
5 5 -4 15.694 29.321 4.516 108.238 o
5 5 -3 81.802 72.988 6.619 33.952 o
5 5 -2 10.575 16.640 4.145 134.274 o
5 5 -1 313.025 333.823 12.495 4.012 o
5 5 0 1.520 1.856 3.402 206.992 o
5 5 1 66.839 69.029 7.361 32.462 o
5 5 2 11.293 11.083 2.660 314.687 o
5 5 3 58.606 72.728 7.052 35.785 o
5 5 4 42.884 46.018 4.634 80.484 o
5 6 -7 26.804 27.465 4.887 88.723 o
5 6 -6 24.851 28.888 5.011 85.453 o
5 6 -5 16.163 12.619 3.897 148.453 o
5 6 -4 61.675 78.431 7.547 31.363 o
5 6 -3 15.062 20.661 4.639 105.374 o
5 6 -2 158.137 159.083 9.341 12.264 o
5 6 -1 10.455 12.990 4.578 111.526 o
5 6 0 91.754 93.890 8.289 22.713 o
5 6 1 21.839 29.445 5.938 63.401 o
6 -6 -2 12.715 32.594 5.753 69.098 o
6 -6 -1 12.898 22.455 4.825 98.308 o
6 -6 0 17.584 21.712 4.763 98.949 o
6 -6 1 17.480 25.919 5.011 89.217 o
6 -6 2 13.988 18.372 4.516 111.962 o
6 -6 3 1.827 5.011 3.773 168.017 o
6 -6 4 13.760 23.692 5.196 84.876 o
6 -6 5 2.569 3.155 4.330 127.688 o
6 -6 6 32.764 29.940 6.248 55.258 o
6 -5 -4 22.382 19.733 4.578 104.513 o
6 -5 -3 32.195 44.347 5.444 67.942 o
6 -5 -2 6.245 11.011 3.773 165.367 o
6 -5 -1 20.198 30.311 4.825 93.406 o
6 -5 0 5.823 15.032 3.773 164.501 o
6 -5 1 51.428 55.605 6.310 46.259 o
6 -5 2 115.774 137.500 8.722 16.967 o
6 -5 3 121.401 131.315 8.598 17.007 o
6 -5 4 13.486 21.279 5.011 91.464 o
6 -5 5 6.372 11.506 4.701 107.147 o
6 -5 6 42.596 37.913 6.310 50.947 o
6 -5 7 117.228 115.973 9.526 16.031 o
6 -5 8 26.957 30.497 6.619 50.786 o
6 -4 -6 1.449 -1.237 3.712 174.053 o
6 -4 -5 45.579 46.697 5.815 55.880 o
6 -4 -4 11.836 13.795 4.021 142.421 o
6 -4 -3 18.518 16.145 4.021 136.871 o
6 -4 -2 21.090 25.548 4.083 127.119 o
6 -4 -1 4.580 8.765 2.122 515.032 o
6 -4 0 21.183 30.497 4.392 109.844 o
6 -4 1 8.131 17.630 3.959 147.828 o
6 -4 2 23.283 35.006 4.825 90.607 o
6 -4 3 64.026 75.833 6.928 35.309 o
6 -4 4 101.220 99.704 7.671 23.377 o
6 -4 5 10.611 14.723 4.454 117.245 o
6 -4 6 2.671 3.340 4.392 124.102 o
6 -4 7 4.585 3.340 4.949 97.634 o
6 -4 8 66.840 81.277 9.464 21.467 o
6 -4 9 0.873 1.175 5.196 88.815 o
6 -3 -8 76.661 95.684 8.970 21.769 o
6 -3 -7 49.565 56.224 6.495 44.616 o
6 -3 -6 133.901 156.114 9.155 14.112 o
6 -3 -5 9.942 8.475 3.650 174.991 o
6 -3 -4 23.431 23.754 4.392 110.627 o
6 -3 -3 34.200 41.654 6.588 48.740 o
6 -3 -2 65.311 75.193 11.939 14.729 o
6 -3 -1 15.244 22.025 6.990 47.793 o
6 -3 0 5.884 6.606 2.289 444.112 o
6 -3 1 33.609 35.988 2.889 178.304 o
6 -3 2 11.630 13.795 3.773 161.000 o
6 -3 3 54.627 55.481 5.938 49.683 o
6 -3 4 103.318 107.375 7.547 23.013 o
6 -3 5 24.392 24.558 5.196 81.085 o
6 -3 6 4.229 4.145 4.825 102.684 o
6 -3 7 66.858 72.121 7.980 28.557 o
6 -3 8 13.295 19.547 5.815 68.856 o
6 -3 9 144.653 155.743 11.691 10.354 o
6 -2 -8 61.803 76.081 7.671 30.768 o
6 -2 -7 32.336 43.357 6.000 57.656 o
6 -2 -6 28.446 27.651 5.134 80.517 o
6 -2 -5 27.763 22.517 4.454 105.394 o
6 -2 -4 4.001 -0.742 2.969 271.093 o
6 -2 -3 17.829 22.888 3.835 146.670 o
6 -2 -2 40.997 40.883 4.516 86.807 o
6 -2 -1 21.357 24.558 3.712 150.417 o
6 -2 0 13.757 16.269 3.217 212.890 o
6 -2 1 12.543 14.822 2.313 392.223 o
6 -2 2 77.170 77.799 3.787 59.707 o
6 -2 3 2.593 4.797 3.557 188.859 o
6 -2 4 147.710 148.645 5.172 19.777 o
6 -2 5 39.084 46.326 6.000 55.220 o
6 -2 6 20.128 28.270 5.691 69.240 o
6 -2 7 9.606 8.537 5.258 85.608 o
6 -2 8 114.547 107.684 9.464 16.662 o
6 -2 9 15.263 13.609 5.691 71.977 o
6 -1 -9 1.369 5.753 4.454 120.695 o
6 -1 -8 17.488 18.681 5.196 84.509 o
6 -1 -7 1.332 1.918 3.712 173.976 o
6 -1 -6 24.282 26.971 4.763 94.341 o
6 -1 -5 101.201 98.653 6.990 25.983 o
6 -1 -4 53.188 56.286 5.629 54.054 o
6 -1 -3 66.753 62.657 5.629 47.841 o
6 -1 -2 10.663 12.743 3.217 219.967 o
6 -1 -1 186.850 190.693 8.042 11.034 o
6 -1 0 22.242 22.764 3.712 150.432 o
6 -1 1 51.366 58.636 4.949 64.871 o
6 -1 2 233.947 212.096 8.351 8.231 o
6 -1 3 150.380 143.657 5.041 19.974 o
6 -1 4 62.147 55.662 3.789 80.266 o
6 -1 5 102.568 98.404 4.697 36.217 o
6 -1 6 12.251 11.480 2.517 344.872 o
6 -1 7 28.149 33.289 3.478 150.425 o
6 -1 8 30.863 29.816 6.000 59.928 o
6 -1 9 6.184 1.608 4.701 108.055 o
6 0 -10 0.363 0.000 4.454 120.904 o
6 0 -9 20.320 17.754 5.011 89.691 o
6 0 -8 62.646 71.998 7.361 32.925 o
6 0 -7 2.740 7.485 3.835 162.164 o
6 0 -6 47.467 47.749 5.567 58.851 o
6 0 -5 39.963 42.862 5.011 74.178 o
6 0 -4 84.778 81.957 6.310 34.197 o
6 0 -3 46.920 55.729 5.444 59.431 o
6 0 -2 75.812 80.658 5.753 40.679 o
6 0 -1 10.970 8.784 3.031 248.794 o
6 0 0 3.740 3.464 2.660 336.250 o
6 0 1 79.879 75.029 5.567 41.770 o
6 0 2 7.430 8.475 2.969 264.215 o
6 0 3 115.423 125.933 6.866 22.174 o
6 0 4 86.090 86.160 4.368 46.962 o
6 0 5 16.702 22.604 3.712 156.971 o
6 0 6 14.393 16.464 2.912 253.548 o
6 0 7 13.787 15.026 3.061 234.285 o
6 0 8 7.426 0.186 4.206 134.722 o
6 0 9 83.135 101.065 10.269 17.168 o
6 1 -10 23.492 20.785 5.196 82.132 o
6 1 -9 7.965 7.918 4.021 145.889 o
6 1 -8 19.036 16.516 4.454 112.784 o
6 1 -7 89.835 88.391 7.176 27.910 o
6 1 -6 17.193 14.537 3.835 151.255 o
6 1 -5 51.689 57.585 5.938 50.297 o
6 1 -4 34.893 34.140 4.516 93.802 o
6 1 -3 128.421 116.592 6.866 21.040 o
6 1 -2 41.405 36.862 4.578 86.214 o
6 1 -1 7.668 5.444 2.660 329.346 o
6 1 0 81.266 73.606 5.753 40.091 o
6 1 1 66.487 61.420 5.753 46.835 o
6 1 2 294.646 291.202 10.887 4.893 o
6 1 3 54.491 56.224 5.567 54.413 o
6 1 4 24.337 22.609 4.639 100.100 o
6 1 5 19.861 19.593 2.952 230.561 o
6 1 6 11.558 10.027 3.155 228.866 o
6 1 7 7.368 5.761 2.790 300.299 o
6 1 8 28.350 26.228 5.753 65.904 o
6 2 -10 28.097 22.702 5.320 76.663 o
6 2 -9 12.903 10.516 4.330 123.739 o
6 2 -8 35.762 35.996 5.505 66.898 o
6 2 -7 1.071 0.990 3.340 214.852 o
6 2 -6 126.275 123.211 7.856 18.535 o
6 2 -5 4.594 0.990 2.784 307.547 o
6 2 -4 50.494 41.811 5.011 68.760 o
6 2 -3 66.820 61.358 5.815 46.090 o
6 2 -2 129.054 118.572 7.238 19.921 o
6 2 -1 48.976 54.059 5.567 57.008 o
6 2 0 25.519 25.486 4.268 114.072 o
6 2 1 31.944 29.631 4.516 97.559 o
6 2 2 16.195 14.228 3.773 156.959 o
6 2 3 103.637 110.097 7.299 23.615 o
6 2 4 44.361 42.264 7.701 35.512 o
6 2 5 22.698 24.008 3.311 180.758 o
6 2 6 33.917 38.917 4.153 105.624 o
6 2 7 11.043 8.908 4.454 118.163 o
6 3 -9 3.711 -1.979 3.526 192.504 o
6 3 -8 24.278 27.651 5.011 85.995 o
6 3 -7 113.350 99.643 7.547 22.207 o
6 3 -6 3.317 1.113 3.217 231.152 o
6 3 -5 66.454 62.471 6.371 40.724 o
6 3 -4 15.753 19.486 4.083 133.877 o
6 3 -3 7.833 10.949 3.526 187.784 o
6 3 -2 42.766 38.037 5.134 71.211 o
6 3 -1 26.567 25.053 4.454 105.344 o
6 3 0 24.200 18.558 4.145 124.099 o
6 3 1 3.601 1.979 3.031 259.904 o
6 3 2 4.643 3.773 3.402 205.745 o
6 3 3 32.936 36.243 5.505 67.927 o
6 3 4 18.547 18.125 4.516 109.750 o
6 3 5 8.065 4.021 4.268 130.256 o
6 3 6 4.646 2.543 2.809 301.424 o
6 4 -8 42.079 46.512 6.186 51.634 o
6 4 -7 25.519 22.888 4.825 92.601 o
6 4 -6 23.292 25.053 4.763 95.373 o
6 4 -5 112.895 111.025 7.918 20.486 o
6 4 -4 15.165 17.939 4.330 120.723 o
6 4 -3 28.398 27.589 5.134 80.552 o
6 4 -2 42.309 42.367 5.382 65.364 o
6 4 -1 52.223 58.141 6.310 45.699 o
6 4 0 133.905 131.562 8.351 16.406 o
6 4 1 84.650 82.452 7.361 28.361 o
6 4 2 17.622 14.846 4.639 105.530 o
6 4 3 2.724 5.691 4.083 143.376 o
6 4 4 63.736 79.483 8.289 26.876 o
6 5 -6 43.125 46.697 6.124 52.166 o
6 5 -5 2.254 5.505 3.897 157.419 o
6 5 -4 86.250 83.009 7.671 26.610 o
6 5 -3 11.984 15.836 4.578 110.455 o
6 5 -2 35.831 36.553 5.753 61.959 o
6 5 -1 30.705 33.831 5.567 67.860 o
6 5 0 129.757 142.449 9.526 14.259 o
6 5 1 85.136 93.642 8.475 22.797 o
7 -5 -2 1.529 -0.990 3.093 250.592 o
7 -5 -1 62.260 86.535 6.928 34.583 o
7 -5 1 14.663 21.465 4.578 108.080 o
7 -5 2 10.534 22.146 5.011 92.241 o
7 -5 3 131.358 161.372 9.650 13.374 o
7 -5 4 35.096 44.656 6.371 51.118 o
7 -5 5 5.872 11.382 4.949 96.919 o
7 -4 -4 23.050 21.527 4.825 94.154 o
7 -4 -3 15.370 13.362 4.021 140.260 o
7 -4 -2 2.933 10.614 6.248 61.238 o
7 -4 -1 102.266 109.930 13.176 10.852 o
7 -4 0 75.516 107.004 6.990 29.692 o
7 -4 1 111.946 119.190 7.423 21.506 o
7 -4 5 13.855 19.424 5.196 85.458 o
7 -4 6 4.368 3.464 5.072 92.957 o
7 -4 7 6.844 8.537 5.938 67.556 o
7 -3 -6 4.456 5.196 4.206 134.821 o
7 -3 -5 53.169 64.142 6.743 40.381 o
7 -3 -4 12.730 10.145 3.835 156.583 o
7 -3 -3 0.205 1.052 2.969 272.005 o
7 -3 -2 23.523 30.923 4.392 108.018 o
7 -3 -1 7.379 6.681 3.093 245.065 o
7 -3 0 242.413 251.933 8.444 7.235 o
7 -3 1 191.521 194.366 7.578 11.041 o
7 -3 2 20.275 28.538 2.765 241.517 o
7 -3 3 42.943 52.079 6.124 51.437 o
7 -3 4 59.405 62.348 7.176 35.679 o
7 -3 6 47.108 49.419 6.804 42.683 o
7 -3 7 22.132 21.898 6.124 60.562 o
7 -2 -7 60.591 75.338 7.856 29.894 o
7 -2 -6 24.246 21.465 4.887 91.446 o
7 -2 -5 38.428 42.244 5.629 62.317 o
7 -2 -4 21.070 18.991 4.268 119.862 o
7 -2 -3 2.681 -1.299 2.846 295.703 o
7 -2 -2 5.405 3.712 2.969 268.954 o
7 -2 -1 22.137 26.228 4.083 125.893 o
7 -2 0 48.255 53.626 5.258 62.375 o
7 -2 1 168.898 169.414 7.671 13.167 o
7 -2 2 51.497 58.760 5.011 63.707 o
7 -2 3 7.337 5.662 2.128 507.223 o
7 -2 4 8.090 9.205 2.495 367.159 o
7 -2 5 6.512 10.368 4.454 119.327 o
7 -2 7 2.530 -6.743 4.145 139.524 o
7 -1 -7 5.437 2.846 4.145 138.895 o
7 -1 -6 16.298 11.382 4.083 136.306 o
7 -1 -5 36.364 37.604 5.258 71.632 o
7 -1 -4 52.066 52.822 5.815 52.574 o
7 -1 -3 68.022 72.493 6.248 40.053 o
7 -1 -2 2.076 1.670 2.784 308.869 o
7 -1 -1 1.967 4.639 3.031 260.049 o
7 -1 0 38.450 33.955 4.578 89.343 o
7 -1 1 91.985 94.447 6.371 30.847 o
7 -1 2 50.484 51.894 5.258 61.739 o
7 -1 3 23.516 23.445 4.021 129.307 o
7 -1 4 23.508 25.832 3.305 178.099 o
7 -1 5 26.337 26.434 3.171 183.742 o
7 -1 6 27.215 27.008 3.354 166.203 o
7 -1 7 0.933 -1.218 2.380 423.235 o
7 0 -8 5.669 8.970 4.330 126.578 o
7 0 -7 35.946 47.254 6.062 55.066 o
7 0 -6 23.798 20.908 4.825 93.943 o
7 0 -5 17.906 24.744 4.825 95.788 o
7 0 -4 1.522 4.887 3.526 192.446 o
7 0 -3 27.353 26.228 4.392 106.930 o
7 0 -2 44.262 51.461 5.444 61.457 o
7 0 -1 39.535 34.511 4.578 88.378 o
7 0 0 1.191 2.413 2.846 295.804 o
7 0 1 83.053 93.642 6.619 31.495 o
7 0 2 68.571 58.698 5.691 47.238 o
7 0 3 32.999 30.249 4.639 92.371 o
7 0 4 64.372 62.286 6.000 44.833 o
7 0 5 86.164 102.612 7.299 26.793 o
7 0 6 58.456 61.511 4.815 62.380 o
7 0 7 33.826 38.170 7.760 36.567 o
7 1 -8 18.506 15.094 4.825 97.566 o
7 1 -7 53.938 54.987 6.743 41.225 o
7 1 -6 71.366 71.689 7.114 33.016 o
7 1 -5 155.403 153.646 8.784 13.283 o
7 1 -4 106.213 108.179 7.299 23.387 o
7 1 -3 43.304 33.150 4.763 81.130 o
7 1 -2 6.080 5.567 3.217 228.468 o
7 1 -1 9.004 7.238 3.155 233.797 o
7 1 0 11.278 8.165 3.279 214.118 o
7 1 1 24.686 21.774 4.206 119.202 o
7 1 2 16.365 25.300 4.392 114.734 o
7 1 3 26.830 31.851 4.825 89.540 o
7 1 4 28.194 25.857 4.701 94.631 o
7 1 5 7.950 12.124 3.835 158.983 o
7 1 6 17.002 23.568 5.011 89.844 o
7 2 -8 65.247 73.668 7.794 29.709 o
7 2 -7 11.659 8.722 4.145 135.736 o
7 2 -6 89.624 86.349 7.423 26.974 o
7 2 -5 177.100 187.167 9.774 10.162 o
7 2 -4 61.515 67.235 6.619 39.214 o
7 2 -3 69.998 71.441 6.557 37.228 o
7 2 -2 4.770 3.897 3.155 238.896 o
7 2 -1 25.416 26.290 4.701 96.115 o
7 2 0 49.023 50.409 5.753 54.934 o
7 2 1 5.575 1.732 3.279 221.491 o
7 2 2 57.408 63.090 6.495 41.814 o
7 2 3 19.638 16.826 4.268 121.580 o
7 2 4 41.095 40.883 6.000 55.435 o
7 2 5 22.401 31.604 5.691 68.162 o
7 3 -7 37.574 31.542 5.629 64.570 o
7 3 -6 0.897 1.670 3.712 174.031 o
7 3 -5 19.496 20.166 4.825 96.096 o
7 3 -4 17.415 15.403 4.392 116.999 o
7 3 -3 34.961 32.779 5.134 76.341 o
7 3 -2 5.400 4.021 3.712 172.783 o
7 3 -1 5.806 1.485 3.217 229.967 o
7 3 0 7.724 8.413 4.021 145.886 o
7 3 1 35.921 44.532 6.062 55.465 o
7 3 2 21.781 22.950 5.011 88.090 o
7 3 3 3.595 1.299 3.650 179.590 o
7 4 -5 107.548 115.664 8.784 18.506 o
7 4 -4 78.600 81.338 8.104 25.805 o
7 4 -3 49.658 45.770 6.248 48.822 o
7 4 -2 48.426 55.605 6.743 42.371 o
7 4 -1 18.070 14.784 4.887 95.460 o
7 4 0 4.511 6.310 3.897 156.754 o
8 -3 -2 9.689 6.681 3.588 181.723 o
8 -3 -1 46.599 39.089 5.011 71.606 o
8 -3 0 56.377 47.935 5.258 59.924 o
8 -3 1 125.965 124.757 7.114 20.219 o
8 -3 2 2.261 3.650 2.784 308.244 o
8 -3 3 11.170 8.165 3.093 239.540 o
8 -2 -4 15.468 17.815 4.701 103.194 o
8 -2 -3 5.342 -3.526 3.217 230.576 o
8 -2 -2 9.198 3.959 3.217 226.549 o
8 -2 -1 14.232 11.753 3.773 159.744 o
8 -2 0 36.866 29.816 4.454 96.026 o
8 -2 1 4.491 0.062 2.907 282.426 o
8 -2 2 33.341 31.542 4.516 95.873 o
8 -2 3 13.392 12.619 3.402 194.681 o
8 -2 4 1.848 2.722 2.969 271.429 o
8 -1 -5 32.925 31.789 5.691 64.896 o
8 -1 -4 18.340 20.785 4.825 96.461 o
8 -1 -3 59.771 58.327 6.310 43.626 o
8 -1 -2 25.421 26.661 4.763 93.808 o
8 -1 -1 12.838 10.516 3.650 171.951 o
8 -1 0 17.089 25.857 4.454 111.219 o
8 -1 1 11.333 13.423 3.650 171.994 o
8 -1 2 7.845 4.639 3.155 236.271 o
8 -1 3 12.977 12.619 3.773 160.407 o
8 -1 4 52.139 52.450 5.815 52.613 o
8 0 -5 39.395 46.017 6.124 53.332 o
8 0 -4 100.042 104.901 7.856 22.562 o
8 0 -3 37.261 39.645 5.629 63.223 o
8 0 -2 37.766 40.821 5.505 65.175 o
8 0 -1 1.287 0.124 2.969 271.929 o
8 0 0 9.683 6.804 3.464 194.541 o
8 0 1 24.191 23.816 4.454 107.381 o
8 0 2 33.770 39.831 5.382 69.540 o
8 0 3 30.805 42.739 5.877 60.331 o
8 0 4 34.016 38.594 5.505 67.069 o
8 1 -5 22.578 24.187 5.011 87.498 o
8 1 -4 116.327 130.201 8.784 17.098 o
8 1 -3 41.330 43.295 5.815 57.910 o
8 1 -2 68.649 67.668 6.743 36.560 o
8 1 -1 21.092 24.620 4.701 98.938 o
8 1 0 19.944 17.568 4.454 111.973 o
8 1 1 30.663 35.687 5.505 68.877 o
8 1 2 51.238 68.286 6.990 38.167 o
8 2 -3 25.021 26.538 5.134 82.215 o
8 2 -2 2.089 0.062 3.464 199.720 o
8 2 -1 3.812 4.330 3.773 167.636 o
8 2 0 22.296 25.424 4.949 89.359 o
;
_olex2_submission_special_instructions 'No special instructions were received'
loop_
_space_group_symop_id
_space_group_symop_operation_xyz
1 x,y,z
loop_
_atom_site_label
_atom_site_type_symbol
_atom_site_fract_x
_atom_site_fract_y
_atom_site_fract_z
_atom_site_U_iso_or_equiv
_atom_site_adp_type
_atom_site_occupancy
_atom_site_refinement_flags_posn
_atom_site_disorder_group
S1R S 0.3998(4) 0.6085(5) 0.3312(3) 0.0195(2) Uani 0.8817(17) D 1
O6 O 0.1792(5) 0.3809(8) 0.4867(5) 0.0207(7) Uani 0.8817(17) D 1
O7 O 0.7575(6) 0.4979(7) 0.7032(3) 0.0269(6) Uani 0.8817(17) D 1
N1 N 0.4417(7) 0.4115(12) 0.6206(6) 0.0169(7) Uani 0.8817(17) D 1
C1A C 0.4083(6) 0.0377(7) 0.6757(4) 0.0219(7) Uani 0.1183(17) . 2
B1B B 0.6883(7) 1.0900(7) 0.1824(4) 0.0210(8) Uani 0.8817(17) D 1
H1B H 0.6363(7) 1.2177(7) 0.1544(4) 0.030000 Uiso 0.8817(17) DR 1
C2 C 0.3460(6) 0.4378(9) 0.5199(5) 0.0159(8) Uani 0.8817(17) D 1
C2A C 0.4845(7) 0.2188(7) 0.8169(4) 0.0211(7) Uani 0.1183(17) . 2
C3 C 0.4900(6) 0.5504(7) 0.4584(4) 0.0169(7) Uani 0.8817(17) D 1
C4 C 0.6587(7) 0.5798(7) 0.5213(4) 0.0191(7) Uani 0.8817(17) D 1
H4 H 0.7747(7) 0.6444(7) 0.5014(4) 0.030000 Uiso 0.8817(17) DR 1
C5 C 0.6383(7) 0.4972(8) 0.6256(5) 0.0195(8) Uani 0.8817(17) D 1
B7B B 0.9964(9) 0.9347(9) 0.2865(6) 0.0176(8) Uani 0.8817(17) D 1
H7B H 1.1464(9) 0.9611(9) 0.3291(6) 0.030000 Uiso 0.8817(17) DR 1
B2B B 0.9335(7) 1.0363(7) 0.1672(4) 0.0192(8) Uani 0.8817(17) D 1
H2B H 1.0424(7) 1.1286(7) 0.1293(4) 0.030000 Uiso 0.8817(17) DR 1
B3A B 0.3640(6) 0.2908(7) 0.7002(4) 0.0180(7) Uani 1.000000 D .
C3B C 0.8357(6) 1.1097(7) 0.3041(4) 0.0168(6) Uani 0.8817(17) D 1
H3B H 0.8850(6) 1.2638(7) 0.3622(4) 0.030000 Uiso 0.8817(17) DR 1
B4A B 0.1888(6) 0.0953(6) 0.6389(4) 0.0168(6) Uani 0.1183(17) . 2
B4B B 0.6009(7) 1.0220(7) 0.3096(4) 0.0173(7) Uani 0.8817(17) D 1
H4B H 0.4915(7) 1.1056(7) 0.3673(4) 0.030000 Uiso 0.8817(17) DR 1
B5A B 0.1915(7) -0.1020(7) 0.6978(4) 0.0218(7) Uani 1.000000 . .
H5A H 0.152(5) -0.240(5) 0.640(3) 0.030000 Uiso 1.000000 R .
B5B B 0.5398(8) 0.8613(9) 0.1614(5) 0.0195(10) Uani 0.8817(17) D 1
H5B H 0.3901(8) 0.8359(9) 0.1185(5) 0.030000 Uiso 0.8817(17) DR 1
B6A B 0.3767(7) -0.0243(7) 0.8148(4) 0.0235(7) Uani 1.000000 . .
H6A H 0.457(5) -0.143(5) 0.838(3) 0.030000 Uiso 1.000000 R .
C6B C 0.7486(6) 0.8754(7) 0.0860(4) 0.0212(7) Uani 0.8817(17) D 1
H6B H 0.7344(6) 0.8596(7) -0.0143(4) 0.030000 Uiso 0.8817(17) DR 1
B7A B 0.2997(6) 0.3836(7) 0.8551(4) 0.0193(7) Uani 1.000000 . .
H7A H 0.328(5) 0.547(5) 0.898(3) 0.030000 Uiso 1.000000 R .
B8A B 0.1277(6) 0.2942(6) 0.7414(4) 0.0179(6) Uani 0.1183(17) . 2
H8A H 0.0423(6) 0.4040(6) 0.7146(4) 0.030000 Uiso 0.1183(17) R 2
B8B B 0.7903(7) 0.9274(7) 0.3751(4) 0.0176(7) Uani 0.8817(17) D 1
H8B H 0.8051(7) 0.9496(7) 0.4760(4) 0.030000 Uiso 0.8817(17) DR 1
B9A B 0.0097(7) 0.0636(7) 0.7352(4) 0.0208(7) Uani 1.000000 . .
H9A H -0.130(5) 0.028(5) 0.696(3) 0.030000 Uiso 1.000000 R .
B9B B 0.6034(7) 0.7594(7) 0.2814(4) 0.0152(7) Uani 0.8817(17) D 1
B10A B 0.1285(6) -0.0093(7) 0.8514(4) 0.0221(7) Uani 1.000000 . .
H10A H 0.0513(6) -0.1083(7) 0.9013(4) 0.030000 Uiso 1.000000 R .
B10B B 0.6942(7) 0.6686(7) 0.1348(4) 0.0182(8) Uani 0.8817(17) D 1
H10B H 0.6446(7) 0.5165(7) 0.0739(4) 0.030000 Uiso 0.8817(17) DR 1
B11A B 0.3089(7) 0.1887(7) 0.9249(4) 0.0211(7) Uani 1.000000 . .
H11A H 0.363(5) 0.226(5) 1.026(3) 0.030000 Uiso 1.000000 R .
B11B B 0.9372(7) 0.7746(7) 0.1373(4) 0.0204(8) Uani 0.8817(17) D 1
H11B H 1.0465(7) 0.6929(7) 0.0785(4) 0.030000 Uiso 0.8817(17) DR 1
B12A B 0.0830(7) 0.2423(7) 0.8765(4) 0.0208(7) Uani 1.000000 . .
H12A H -0.030(5) 0.307(5) 0.927(3) 0.030000 Uiso 1.000000 R .
B12B B 0.8501(7) 0.7060(7) 0.2665(4) 0.0183(7) Uani 0.8817(17) D 1
H12B H 0.9036(7) 0.5792(7) 0.2946(4) 0.030000 Uiso 0.8817(17) DR 1
S1S S 0.8159(10) 0.6603(10) 0.4480(6) 0.030847 Uani 0.1183(17) D 2
O6A O 0.738(4) 0.458(4) 0.651(2) 0.030000 Uiso 0.1183(17) D 2
O7A O 0.121(4) 0.378(6) 0.488(3) 0.030000 Uiso 0.1183(17) D 2
N1A N 0.404(5) 0.410(9) 0.608(5) 0.030000 Uiso 0.1183(17) D 2
C1C C 0.951(3) 0.903(4) 0.137(2) 0.030000 Uiso 0.1183(17) D 2
H1C H 1.086(8) 0.896(13) 0.077(7) 0.030000 Uiso 0.1183(17) D 2
C1 C 0.595(4) 0.475(7) 0.595(3) 0.030000 Uiso 0.1183(17) D 2
C3A C 0.595(4) 0.563(6) 0.486(3) 0.030000 Uiso 0.1183(17) D 2
C4A C 0.413(4) 0.549(5) 0.444(3) 0.030000 Uiso 0.1183(17) D 2
C5A C 0.284(4) 0.442(8) 0.512(4) 0.030000 Uiso 0.1183(17) D 2
C7C C 0.546(4) 0.883(5) 0.141(3) 0.030000 Uiso 0.1183(17) D 2
H7C H 0.401(7) 0.879(13) 0.096(7) 0.030000 Uiso 0.1183(17) D 2
B2C B 0.748(4) 1.012(4) 0.108(2) 0.030000 Uiso 0.1183(17) D 2
B3C B 0.739(4) 0.769(4) 0.078(2) 0.030000 Uiso 0.1183(17) D 2
H3C H 0.732(12) 0.667(10) -0.014(4) 0.030000 Uiso 0.1183(17) D 2
B4C B 0.877(4) 0.699(4) 0.183(2) 0.030000 Uiso 0.1183(17) D 2
H4C H 0.942(11) 0.554(8) 0.150(8) 0.030000 Uiso 0.1183(17) D 2
B5C B 0.984(5) 0.912(6) 0.288(3) 0.030000 Uiso 0.1183(17) D 2
H5C H 1.124(7) 0.935(13) 0.342(7) 0.030000 Uiso 0.1183(17) D 2
B6C B 0.899(4) 1.101(4) 0.236(3) 0.030000 Uiso 0.1183(17) D 2
H6C H 0.990(10) 1.244(8) 0.254(7) 0.030000 Uiso 0.1183(17) D 2
B8C B 0.615(4) 0.686(3) 0.193(2) 0.030000 Uiso 0.1183(17) D 2
H8C H 0.533(11) 0.535(7) 0.170(8) 0.030000 Uiso 0.1183(17) D 2
B9C B 0.772(4) 0.784(4) 0.324(2) 0.030000 Uiso 0.1183(17) D 2
B10C B 0.790(4) 1.041(4) 0.360(2) 0.030000 Uiso 0.1183(17) D 2
H10C H 0.817(12) 1.141(11) 0.457(4) 0.030000 Uiso 0.1183(17) D 2
B11C B 0.655(4) 1.104(4) 0.251(2) 0.030000 Uiso 0.1183(17) D 2
H11C H 0.584(11) 1.248(8) 0.273(7) 0.030000 Uiso 0.1183(17) D 2
B12C B 0.568(3) 0.906(4) 0.301(2) 0.030000 Uiso 0.1183(17) D 2
H12C H 0.437(8) 0.912(13) 0.360(7) 0.030000 Uiso 0.1183(17) D 2
H2C H 0.752(12) 1.101(12) 0.036(6) 0.030000 Uiso 0.1183(17) D 2
B2A B 0.4845(7) 0.2188(7) 0.8169(4) 0.0211(7) Uani 0.8817(17) . 1
B1A B 0.4083(6) 0.0377(7) 0.6757(4) 0.0219(7) Uani 0.8817(17) . 1
C6 C 0.1888(6) 0.0953(6) 0.6389(4) 0.0168(6) Uani 0.8817(17) . 1
C8A C 0.1277(6) 0.2942(6) 0.7414(4) 0.0179(6) Uani 0.8817(17) . 1
H4Aa H 0.372(4) 0.600(5) 0.379(3) 0.036000 Uiso 0.1183(17) R 2
H1A H 0.5136(6) -0.0308(7) 0.6079(4) 0.0263(8) Uiso 0.1183(17) R 2
H2A H 0.6405(7) 0.2698(7) 0.8440(4) 0.0254(8) Uiso 0.1183(17) R 2
H6 H 0.1455(6) 0.0647(6) 0.5399(4) 0.0202(7) Uiso 0.8817(17) R 1
H8Aa H 0.0423(6) 0.4040(6) 0.7146(4) 0.0214(7) Uiso 0.8817(17) R 1
H4A H 0.1455(6) 0.0647(6) 0.5399(4) 0.0202(7) Uiso 0.1183(17) R 2
H2Aa H 0.6405(7) 0.2698(7) 0.8440(4) 0.0254(8) Uiso 0.8817(17) R 1
H1Aa H 0.5136(6) -0.0308(7) 0.6079(4) 0.0263(8) Uiso 0.8817(17) R 1
loop_
_atom_site_aniso_label
_atom_site_aniso_U_11
_atom_site_aniso_U_22
_atom_site_aniso_U_33
_atom_site_aniso_U_12
_atom_site_aniso_U_13
_atom_site_aniso_U_23
S1R 0.0178(4) 0.0198(4) 0.0222(4) -0.0045(3) -0.0019(3) 0.0105(3)
O6 0.0176(18) 0.0173(12) 0.0255(13) -0.0040(16) -0.0041(16) 0.0057(10)
O7 0.0200(13) 0.0319(16) 0.0324(15) -0.0025(11) -0.0063(12) 0.0175(13)
N1 0.0144(19) 0.0153(13) 0.0209(19) -0.0005(17) 0.0002(15) 0.0058(13)
C1A 0.0221(17) 0.0154(15) 0.0291(18) 0.0054(13) 0.0069(14) 0.0062(13)
B1B 0.024(2) 0.0160(18) 0.024(2) -0.0010(15) -0.0001(16) 0.0085(16)
C2 0.021(2) 0.0090(14) 0.0153(16) 0.0028(17) 0.0013(17) -0.0005(12)
C2A 0.0210(17) 0.0188(16) 0.0247(17) 0.0010(13) 0.0005(13) 0.0084(14)
C3 0.0194(19) 0.0131(15) 0.0195(18) 0.0060(17) 0.0068(16) 0.0046(14)
C4 0.0177(17) 0.0153(16) 0.025(2) 0.0018(14) 0.0036(13) 0.0062(16)
C5 0.013(2) 0.0135(17) 0.033(3) -0.0003(14) -0.0016(15) 0.0091(19)
B7B 0.0159(18) 0.016(2) 0.0207(18) -0.0006(15) 0.0002(14) 0.0046(15)
B2B 0.0199(19) 0.0167(19) 0.0198(19) -0.0028(14) -0.0003(15) 0.0048(15)
B3A 0.0170(16) 0.0157(15) 0.0208(17) 0.0022(12) 0.0027(12) 0.0040(13)
C3B 0.0181(16) 0.0124(15) 0.0188(16) -0.0002(12) 0.0003(13) 0.0033(13)
B4A 0.0191(15) 0.0143(14) 0.0156(14) 0.0015(11) 0.0024(11) 0.0018(11)
B4B 0.0134(17) 0.0152(18) 0.0240(19) 0.0011(14) 0.0009(14) 0.0068(15)
B5A 0.0256(18) 0.0145(15) 0.0250(18) -0.0008(13) 0.0057(14) 0.0056(14)
B5B 0.020(2) 0.024(2) 0.016(2) -0.0019(16) -0.0021(16) 0.0091(16)
B6A 0.0218(17) 0.0223(17) 0.0304(19) 0.0021(14) 0.0021(14) 0.0141(15)
C6B 0.0271(19) 0.0193(18) 0.0162(16) -0.0051(15) 0.0026(13) 0.0059(14)
B7A 0.0195(16) 0.0196(16) 0.0169(16) -0.0008(13) 0.0022(12) 0.0026(14)
B8A 0.0167(15) 0.0177(15) 0.0193(14) 0.0041(11) 0.0027(11) 0.0044(12)
B8B 0.0197(19) 0.0134(18) 0.0197(18) -0.0013(14) 0.0032(14) 0.0053(15)
B9A 0.0205(17) 0.0231(17) 0.0194(16) 0.0026(14) 0.0004(13) 0.0068(14)
B9B 0.0165(18) 0.0119(17) 0.0181(19) 0.0032(13) 0.0028(14) 0.0052(14)
B10A 0.0216(17) 0.0204(17) 0.0254(18) -0.0027(13) 0.0011(14) 0.0100(15)
B10B 0.0181(19) 0.0186(18) 0.0162(18) -0.0014(14) 0.0011(15) 0.0032(15)
B11A 0.0194(17) 0.0253(17) 0.0189(16) 0.0000(13) 0.0010(13) 0.0072(14)
B11B 0.0202(19) 0.021(2) 0.0182(18) -0.0028(15) 0.0030(14) 0.0049(16)
B12A 0.0209(17) 0.0214(17) 0.0190(17) -0.0008(13) 0.0033(13) 0.0044(14)
B12B 0.0197(19) 0.0131(17) 0.0211(19) 0.0002(14) -0.0020(15) 0.0036(14)
S1S 0.030495 0.029043 0.036061 0.002649 0.004049 0.014181
B2A 0.0210(17) 0.0188(16) 0.0247(17) 0.0010(13) 0.0005(13) 0.0084(14)
B1A 0.0221(17) 0.0154(15) 0.0291(18) 0.0054(13) 0.0069(14) 0.0062(13)
C6 0.0191(15) 0.0143(14) 0.0156(14) 0.0015(11) 0.0024(11) 0.0018(11)
C8A 0.0167(15) 0.0177(15) 0.0193(14) 0.0041(11) 0.0027(11) 0.0044(12)
loop_
_atom_type_symbol
_atom_type_scat_dispersion_real
_atom_type_scat_dispersion_imag
_atom_type_scat_Cromer_Mann_a1
_atom_type_scat_Cromer_Mann_a2
_atom_type_scat_Cromer_Mann_a3
_atom_type_scat_Cromer_Mann_a4
_atom_type_scat_Cromer_Mann_b1
_atom_type_scat_Cromer_Mann_b2
_atom_type_scat_Cromer_Mann_b3
_atom_type_scat_Cromer_Mann_b4
_atom_type_scat_Cromer_Mann_c
_atom_type_scat_source
_atom_type_scat_dispersion_source
B 0.00141 0.00067 2.05450 1.33260 1.09790 0.70680 23.21850 1.02100 60.34980
0.14030 -0.1932000070810318
'International Tables Volume C Table 6.1.1.4 (pp. 500-502)'
'Henke, Gullikson and Davis, At. Data and Nucl. Data Tables, 1993, 54, 2'
C 0.00347 0.00161 2.31000 1.02000 1.58860 0.86500 20.84390 10.20750 0.56870
51.65120 0.21559999883174896
'International Tables Volume C Table 6.1.1.4 (pp. 500-502)'
'Henke, Gullikson and Davis, At. Data and Nucl. Data Tables, 1993, 54, 2'
H 0.00000 0.00000 0.49300 0.32291 0.14019 0.04081 10.51090 26.12570 3.14236
57.79970 0.0030380000825971365
'International Tables Volume C Table 6.1.1.4 (pp. 500-502)'
'Henke, Gullikson and Davis, At. Data and Nucl. Data Tables, 1993, 54, 2'
N 0.00653 0.00323 12.21260 3.13220 2.01250 1.16630 0.00570 9.89330 28.99750
0.58260 -11.529000282287598
'International Tables Volume C Table 6.1.1.4 (pp. 500-502)'
'Henke, Gullikson and Davis, At. Data and Nucl. Data Tables, 1993, 54, 2'
O 0.01158 0.00611 3.04850 2.28680 1.54630 0.86700 13.27710 5.70110 0.32390
32.90890 0.2508000135421753
'International Tables Volume C Table 6.1.1.4 (pp. 500-502)'
'Henke, Gullikson and Davis, At. Data and Nucl. Data Tables, 1993, 54, 2'
S 0.12424 0.12443 6.90530 5.20340 1.43790 1.58630 1.46790 22.21510 0.25360
56.17200 0.8669000267982483
'International Tables Volume C Table 6.1.1.4 (pp. 500-502)'
'Henke, Gullikson and Davis, At. Data and Nucl. Data Tables, 1993, 54, 2'
loop_
_diffrn_refln_index_h
_diffrn_refln_index_k
_diffrn_refln_index_l
_diffrn_refln_intensity_net
_diffrn_refln_intensity_u
-1 0 0 591.54 13.5
1 0 0 623.74 13.1
-2 0 0 95.79 5.2
2 0 0 93.19 4.8
-3 0 0 672.33 18.3
3 0 0 687.63 17.2
-4 0 0 414.96 14.4
4 0 0 400.46 13
-5 0 0 248.68 12.6
5 0 0 243.88 10.8
-6 0 0 5.2 5.9
6 0 0 5.6 4.3
-7 0 0 10.3 7
7 0 0 3.9 4.6
-8 0 0 13.5 8.5
8 0 0 11 5.6
-9 0 0 33.4 11.5
9 0 0 19.1 7.1
9 -1 0 8 5.6
-9 1 0 5.6 9.4
8 -1 0 41.8 7.2
-8 1 0 16 8.6
7 -1 0 54.89 7.4
-7 1 0 60.59 10
6 -1 0 36.8 6
-6 1 0 38.4 7.9
5 -1 0 28.3 4.7
-5 1 0 23.8 5.8
4 -1 0 142.79 7.4
-4 1 0 151.08 8.7
3 -1 0 112.79 6
3 -1 0 96.49 5.2
-3 1 0 124.59 7.2
2 -1 0 300.57 9.2
2 -1 0 303.57 8.4
-2 1 0 316.57 9.5
-1 1 0 5977.6 124.99
-1 1 0 5473.65 118.39
0 1 0 68.19 3.4
2 1 0 31.6 3.5
-3 -1 0 279.47 10.4
3 1 0 278.07 9.9
-4 -1 0 30.4 5.2
4 1 0 19.9 4.1
-5 -1 0 216.68 11.8
5 1 0 203.78 10.3
-6 -1 0 99.59 10.7
6 1 0 118.99 9.3
-7 -1 0 18.3 8.1
7 1 0 13.2 5.3
-8 -1 0 47.5 10.3
8 1 0 28.4 7.2
-9 -1 0 19.3 10.8
9 1 0 34.8 8.3
9 -2 0 14 6.1
-9 2 0 28.1 10.1
8 -2 0 48.2 7.2
-8 2 0 53.79 10.8
7 -2 0 86.69 8.5
-7 2 0 86.09 10.9
6 -2 0 26.3 5.2
-6 2 0 23.6 7
5 -2 0 621.64 17.7
5 -2 0 615.54 18.1
-5 2 0 596.04 20.3
4 -2 0 11.7 3.2
4 -2 0 4.7 2.8
-4 2 0 11.6 4.4
3 -2 0 52.09 5
3 -2 0 58.39 4.9
-3 2 0 66.29 6.3
-2 2 0 246.08 8.5
-2 2 0 231.28 9.2
-1 2 0 868.91 22.5
-1 2 0 862.01 20
0 2 0 989.4 24.6
0 2 0 966.5 21.7
1 2 0 229.48 7.5
1 2 0 243.58 8.4
1 2 0 233.08 7.6
-3 -2 0 220.58 9.3
3 2 0 209.98 9.2
-4 -2 0 305.97 12.4
4 2 0 328.27 12.4
-5 -2 0 5.4 5.2
5 2 0 4.6 3.9
-6 -2 0 41.2 8.5
6 2 0 41.2 6.9
-7 -2 0 83.39 11.3
7 2 0 81.49 9.3
-8 -2 0 25 9.6
8 2 0 41.1 8
-9 -2 0 49.9 12.4
9 2 0 54.59 9.9
9 -3 0 19.6 6.5
-9 3 0 17.6 9.4
8 -3 0 77.49 8.5
-8 3 0 82.09 11.7
7 -3 0 398.66 15.1
7 -3 0 425.96 23
-7 3 0 378.46 18.8
6 -3 0 14.5 4.6
6 -3 0 7.1 4.1
-6 3 0 7.5 5.9
5 -3 0 93.39 7
5 -3 0 89.39 7.5
-5 3 0 105.09 9.2
4 -3 0 281.77 11.7
-4 3 0 295.57 12.2
-3 3 0 276.47 10.7
-3 3 0 262.17 11.3
-2 3 0 42 4.4
-2 3 0 38.1 5.2
-1 3 0 55.99 5.9
-1 3 0 62.19 4.4
0 -3 0 82.39 4.9
0 3 0 86.29 6.5
0 3 0 88.19 4.8
1 3 0 864.51 20.6
1 3 0 848.32 20.9
1 3 0 847.22 23.5
2 3 0 166.68 7.9
2 3 0 149.59 7.6
2 3 0 158.78 7.4
-3 -3 0 246.48 10.1
3 3 0 250.77 10.4
3 3 0 248.28 9.7
-4 -3 0 167.88 9.6
4 3 0 174.18 9.9
-5 -3 0 24.3 6.2
5 3 0 13.4 5
-6 -3 0 42.8 8.3
6 3 0 30 6.7
-7 -3 0 14.3 7.7
7 3 0 13.6 6.5
-8 -3 0 48 11.1
8 3 0 74.49 10.5
-9 4 0 32.9 9.6
8 -4 0 191.58 11.6
-8 4 0 214.18 16.2
7 -4 0 172.98 11.3
-7 4 0 124.59 12.5
6 -4 0 49.3 7.1
-6 4 0 31.6 7.1
5 -4 0 81.69 8.5
-5 4 0 92.39 9
4 -4 0 356.86 14.9
-4 4 0 357.96 14.4
-3 4 0 47.1 6.6
-3 4 0 45.3 5.7
-2 4 0 142.39 7.2
-2 4 0 134.49 9
-1 4 0 72.79 5.2
-1 4 0 73.79 7.1
0 -4 0 52.59 4.9
0 4 0 45.4 4.3
0 4 0 45.8 6
1 4 0 158.38 8.9
1 4 0 151.58 7.1
1 4 0 140.69 7.6
2 4 0 185.28 9.1
2 4 0 189.58 8.7
2 4 0 194.38 9.7
-3 -4 0 61.69 6
3 4 0 69.99 7.2
3 4 0 55.79 6.4
-4 -4 0 39.2 6.2
4 4 0 23 4.5
4 4 0 33.2 6
-5 -4 0 47.3 7.5
5 4 0 21.6 5.9
-6 -4 0 199.38 13.8
6 4 0 212.68 13.5
-7 -4 0 13.1 7.9
7 4 0 10.2 6.3
-8 -4 0 22.7 9.8
8 4 0 25.1 8.3
-8 5 0 15.2 8.1
-7 5 0 5.9 6.1
6 -5 0 24.3 6.1
-6 5 0 10.1 5.8
5 -5 0 8.2 4.8
-5 5 0 4 4.3
-4 5 0 93.29 8.1
-3 5 0 158.48 9.1
-3 5 0 171.78 11.1
-2 5 0 196.18 11.7
-2 5 0 185.68 8.9
-1 5 0 608.04 21.5
-1 5 0 617.14 18.1
0 -5 0 53.59 5.4
0 5 0 51.39 4.9
0 5 0 60.79 7.8
1 5 0 313.67 11.8
1 5 0 310.87 14.4
2 5 0 226.28 11.3
2 5 0 249.08 12.5
2 5 0 233.68 10.5
-3 -5 0 55.69 6.5
3 5 0 42.3 7.1
3 5 0 49.1 6.9
-4 -5 0 85.59 8.7
4 5 0 86.29 8.1
4 5 0 92.99 9.8
-5 -5 0 10.7 5.7
5 5 0 3 5.5
-6 -5 0 195.98 13.9
6 5 0 230.28 15.4
-7 -5 0 31.4 8.8
7 5 0 21.4 8.5
-8 6 0 10.6 7.3
7 -6 0 99.19 11.3
-7 6 0 54.29 10
6 -6 0 35.1 7.7
-6 6 0 29.5 7.4
5 -6 0 22.4 6.4
-5 6 0 14.8 5.3
-4 6 0 34.5 6.1
-3 6 0 68.29 7.6
-3 6 0 64.09 9.4
-2 6 0 0.2 4
-2 6 0 6.7 3.4
-1 6 0 27.3 6.4
-1 6 0 34 5.1
0 6 0 155.78 11.6
0 6 0 153.18 8.6
-1 -6 0 50.99 6.4
1 6 0 44.8 7.8
1 6 0 48.2 6.1
2 6 0 110.79 10.2
2 6 0 117.89 8.2
-3 -6 0 143.09 8.8
3 6 0 112.39 10.7
3 6 0 115.99 10.1
-4 -6 0 206.28 11.9
4 6 0 230.88 12.8
4 6 0 205.48 13.8
-5 -6 0 142.49 11.4
5 6 0 151.78 13.4
-6 -6 0 6.9 6.5
6 6 0 -3.3 6.6
-7 7 0 9.8 6.7
6 -7 0 110.19 12.6
-6 7 0 96.49 11.6
5 -7 0 154.58 13.6
-5 7 0 137.19 11.2
4 -7 0 106.49 11.7
-4 7 0 108.89 9.2
-3 7 0 43.2 7
-3 7 0 41 8.7
-2 7 0 45.2 8.5
-2 7 0 45.3 6.2
-1 7 0 102.49 10.8
-1 7 0 93.19 7.4
0 7 0 7.4 3.5
0 7 0 11 5.5
-1 -7 0 42.5 6.3
1 7 0 53.39 9.4
1 7 0 44.9 6.2
-2 -7 0 46 7
2 7 0 31.3 7.8
2 7 0 36.4 6.2
-3 -7 0 73.99 7.6
3 7 0 71.09 10.2
-4 -7 0 39.5 6.9
4 7 0 35.7 8
4 7 0 28.3 8.4
-5 -7 0 32.1 7
5 7 0 36.2 9.2
5 -8 0 23 7.8
-5 8 0 -1.5 4.4
4 -8 0 29.4 8.4
-4 8 0 28.7 6.4
-3 8 0 25.9 5.8
-2 8 0 12.9 7
-2 8 0 10.4 4.2
-1 8 0 9.8 4
-1 8 0 0.9 5.9
0 8 0 17.1 4.8
0 8 0 8.8 6.9
-1 -8 0 16.1 4.9
1 8 0 13.7 4.7
1 8 0 12.2 7.4
-2 -8 0 36.5 6.5
2 8 0 35.4 9.1
-3 -8 0 1.5 4.7
3 8 0 5.2 6.8
3 -9 0 74.59 12.6
-1 9 0 57.69 12.1
0 9 0 -2.2 6.6
1 9 0 16.2 8.4
0 9 -1 59.09 10.4
-1 9 -1 84.59 9.6
1 -9 1 84.59 12.4
-2 9 -1 46.8 7.8
2 -9 1 51.59 10.3
-3 9 -1 78.39 10
3 -9 1 79.89 12.3
4 -9 1 63.09 11.8
-4 -8 1 107.59 11.2
3 8 -1 12.2 7.5
-3 -8 1 23.5 5.9
-3 -8 1 17.7 5.5
2 8 -1 3.3 6.1
2 8 -1 -4.5 3.7
-2 -8 1 6.5 4
1 8 -1 48.6 10.1
1 8 -1 44.4 7.2
0 8 -1 11.3 4.5
0 8 -1 11.6 6.9
-1 8 -1 150.48 16.3
-1 8 -1 124.99 9.5
-2 8 -1 98.49 8.8
-3 8 -1 37.7 7.1
3 -8 1 38.1 8.5
-4 8 -1 35.7 7.5
4 -8 1 41 9
-5 8 -1 3.8 5.1
5 -8 1 19.2 7.1
-6 8 -1 42.5 9
6 -8 1 57.99 10.3
5 7 -1 174.28 14.7
-5 -7 1 176.48 13.2
4 7 -1 -0.4 5.5
4 7 -1 6.4 6.5
-4 -7 1 5.6 4.4
3 7 -1 5 5.4
3 7 -1 2.1 6.1
2 7 -1 -1 5.1
2 7 -1 4.4 4
1 7 -1 79.39 10.7
1 7 -1 72.89 8.1
-1 -7 1 69.99 6.8
0 7 -1 4.6 5.2
0 7 -1 17.2 4.5
-1 7 -1 12.7 4.3
-1 7 -1 11.3 5.9
-2 7 -1 16.7 6.1
-2 7 -1 3.8 3.2
-3 7 -1 31.1 6.3
3 -7 1 32.1 7.3
-4 7 -1 46.2 7.6
4 -7 1 37.8 7.7
-5 7 -1 22.8 8.3
5 -7 1 40.6 8
-6 7 -1 147.09 12.6
6 -7 1 166.78 13.8
-7 7 -1 -2.4 5.6
6 6 -1 30 8.7
-6 -6 1 40 8.3
5 6 -1 21 7.4
-5 -6 1 21.9 6.9
4 6 -1 107.79 9.5
4 6 -1 120.49 11.1
-4 -6 1 110.19 9.6
3 6 -1 121.89 10.1
3 6 -1 122.79 10.3
2 6 -1 40.4 6.8
2 6 -1 46.7 7.8
2 6 -1 34.2 5.9
1 6 -1 36.2 7.4
1 6 -1 24.6 5.1
0 6 -1 140.99 11
0 6 -1 130.89 8.5
-1 6 -1 95.49 10.9
-1 6 -1 83.59 6.9
-2 6 -1 293.57 15.2
-2 6 -1 277.27 12.4
-3 6 -1 98.99 8.1
3 -6 1 101.89 9.9
-4 6 -1 11.5 4.7
4 -6 1 7.8 4.9
-5 6 -1 127.19 10.4
5 -6 1 123.29 11.3
-6 6 -1 15.8 6.3
6 -6 1 41.9 8.1
-7 6 -1 10.8 6.4
7 -6 1 49.99 8.8
-8 6 -1 43.1 10
7 5 -1 4.4 6.3
-7 -5 1 13.7 7.6
6 5 -1 54.69 9
-6 -5 1 48 8.8
5 5 -1 539.65 20.2
-5 -5 1 497.15 19.7
4 5 -1 250.57 13
4 5 -1 246.98 11.7
-4 -5 1 267.27 12.9
3 5 -1 206.28 11.7
3 5 -1 227.78 11.4
2 5 -1 171.78 10.1
2 5 -1 152.78 9.1
2 5 -1 176.38 9.4
1 5 -1 201.18 9.4
1 5 -1 203.68 9.7
1 5 -1 202.88 11.2
0 5 -1 50.69 7
0 5 -1 49.8 5.8
-1 5 -1 126.79 7.5
-1 5 -1 122.49 9.2
-2 5 -1 26.6 6.1
-2 5 -1 16 4
-3 5 -1 10.3 3.7
3 -5 1 4.6 3.6
-4 5 -1 34.4 5.9
4 -5 1 32 6.2
-5 5 -1 67.59 8.3
5 -5 1 60.99 8.2
-6 5 -1 84.69 10.4
6 -5 1 89.89 10.2
-7 5 -1 26.7 7.6
7 -5 1 34.7 7.4
-8 5 -1 23.6 8.9
8 4 -1 150.78 14.8
-8 -4 1 140.19 15.7
7 4 -1 23.9 7.9
-7 -4 1 19.3 8.1
6 4 -1 93.99 10.2
-6 -4 1 81.89 10.1
5 4 -1 71.09 8.6
-5 -4 1 58.69 8.2
4 4 -1 231.08 11.8
-4 -4 1 244.68 12
3 4 -1 632.24 18.7
3 4 -1 637.64 19.1
-3 -4 1 606.94 18.8
2 4 -1 259.17 10.1
2 4 -1 252.07 10.9
2 4 -1 265.57 10.6
1 4 -1 124.49 7.9
1 4 -1 122.99 7
1 4 -1 130.69 6.6
0 4 -1 341.87 13.4
0 4 -1 344.57 11.7
-1 4 -1 363.96 14.3
-1 4 -1 380.06 12.4
-2 4 -1 56.29 5.2
-2 4 -1 73.39 7.8
-3 4 -1 118.49 7.8
3 -4 1 122.59 8.4
-4 4 -1 78.69 7.8
4 -4 1 73.19 7.5
-5 4 -1 42.6 7
5 -4 1 38.1 6.4
-6 4 -1 15.4 6
6 -4 1 28.5 6.4
-7 4 -1 174.78 13.9
7 -4 1 192.68 12
-8 4 -1 5.7 7.5
-9 4 -1 28.4 9.8
8 3 -1 58.09 9.5
-8 -3 1 82.79 12.7
7 3 -1 2.4 5.2
-7 -3 1 7.2 7
6 3 -1 40.5 7.2
-6 -3 1 45.7 8.3
5 3 -1 184.68 11
-5 -3 1 177.68 11.5
-4 -3 1 57.99 6.8
3 3 -1 75.29 5.2
3 3 -1 77.29 6.5
-3 -3 1 85.19 6.4
2 3 -1 696.83 19
2 3 -1 680.43 18.7
2 3 -1 667.63 17.7
1 3 -1 271.57 8.7
1 3 -1 248.58 10.1
1 3 -1 285.67 9.7
0 3 -1 196.58 9.1
0 3 -1 220.18 7.9
-1 3 -1 281.27 9.6
-1 3 -1 291.57 11.3
-2 3 -1 182.18 8
-3 3 -1 324.27 11.9
3 -3 1 295.47 11.9
-4 3 -1 64.39 7.1
4 -3 1 61.99 6.2
-5 3 -1 290.97 13.4
5 -3 1 257.97 12
-6 3 -1 49.7 7.8
6 -3 1 58.69 6.2
6 -3 1 57.49 7.1
-7 3 -1 315.27 17
7 -3 1 302.57 12.9
7 -3 1 327.07 14.1
-8 3 -1 187.38 15.3
8 -3 1 201.68 11.5
-9 3 -1 8.2 8.8
9 -3 1 17.6 5.7
9 2 -1 50.49 9.5
-9 -2 1 40.2 12.1
8 2 -1 7 6.1
-8 -2 1 -6.4 7.8
7 2 -1 42.5 7.6
-7 -2 1 52.49 9.6
6 2 -1 87.39 9
-6 -2 1 81.49 10
5 2 -1 25.8 5.3
-5 -2 1 31.4 6.4
4 2 -1 157.58 8.7
-4 -2 1 150.68 8.9
3 2 -1 66.19 5.9
-3 -2 1 61.99 5.9
2 2 -1 899.51 21.3
1 2 -1 164.78 6
1 2 -1 165.58 6.4
1 2 -1 173.08 6.7
0 2 -1 100.69 5.7
0 2 -1 105.99 4.8
-1 2 -1 9.2 2.3
-2 2 -1 18.5 3.3
2 -2 1 11.9 3.2
-3 2 -1 44.3 5.1
3 -2 1 24 3.8
-4 2 -1 409.46 14.6
4 -2 1 386.26 11.8
4 -2 1 400.66 13.4
-6 2 -1 23.4 6.8
6 -2 1 23.3 5.5
6 -2 1 24.5 5.1
-7 2 -1 261.67 16.4
7 -2 1 273.87 12.4
-8 2 -1 2.7 7.4
8 -2 1 0.1 4.7
-9 2 -1 37.8 11.3
9 -2 1 22.2 6.1
9 1 -1 27.9 7.8
-9 -1 1 13.4 10
8 1 -1 39.8 7.6
-8 -1 1 25.6 9.3
7 1 -1 11.7 5.1
-7 -1 1 18.7 7.9
6 1 -1 8.8 4.3
-6 -1 1 12 6.6
5 1 -1 148.59 9.1
-5 -1 1 145.59 10.4
4 1 -1 375.36 12.9
-4 -1 1 379.06 13.7
3 1 -1 56.79 5.5
-3 -1 1 47 5.1
2 1 -1 344.47 10
-2 -1 1 328.47 10.2
1 1 -1 3053.79 62.19
1 1 -1 2978.7 59.89
0 1 -1 574.84 13.1
0 -1 1 567.84 14
-1 1 -1 1180.68 25.2
1 -1 1 1140.59 27.1
-2 1 -1 421.66 11.6
2 -1 1 395.26 11.5
-3 1 -1 97.59 6.5
3 -1 1 83.29 5.5
3 -1 1 96.99 5.5
-4 1 -1 15.6 4.3
4 -1 1 11.9 3.3
4 -1 1 9.5 3
-5 1 -1 34.7 6.3
5 -1 1 38.4 5.1
-6 1 -1 108.69 10.8
6 -1 1 94.79 8
-7 1 -1 130.29 12.9
7 -1 1 152.68 10.3
-8 1 -1 10.1 8.4
8 -1 1 21.7 5.9
-9 1 -1 15.8 10
9 -1 1 11.4 5.9
9 0 -1 43.7 8
-9 0 1 45.5 11.9
8 0 -1 0.2 4.8
-8 0 1 0.1 7.7
7 0 -1 55.79 7.4
-7 0 1 48.6 9.7
6 0 -1 14.2 4.9
-6 0 1 4.2 6.2
5 0 -1 377.66 13.6
-5 0 1 383.56 15.4
4 0 -1 261.67 10.3
-4 0 1 264.17 11.3
3 0 -1 87.99 5.9
-3 0 1 84.89 6.3
2 0 -1 185.28 6.6
-2 0 1 176.38 6.7
1 0 -1 1226.08 25.7
-1 0 1 1282.27 26.5
0 0 -1 992.9 18.4
0 0 1 835.82 18.6
-1 0 -1 5325.27 107.89
1 0 1 5294.77 118.69
1 0 1 5534.75 104.79
-2 0 -1 432.06 11.7
2 0 1 431.26 11.1
2 0 1 428.56 11.3
-3 0 -1 1018.4 25.2
3 0 1 1047.2 24
-4 0 -1 138.59 8.7
4 0 1 144.79 7.6
-5 0 -1 441.26 16.7
5 0 1 436.06 14.8
-6 0 -1 122.09 11.6
6 0 1 121.29 9
-7 0 -1 153.98 13.9
7 0 1 151.38 10.7
-8 0 -1 43.5 10
8 0 1 38.5 7.2
-9 0 -1 9.5 9.9
9 0 1 15.4 6.4
9 -1 -1 14.3 6.3
-9 1 1 31 10.9
8 -1 -1 17 5.9
-8 1 1 20.5 8.8
7 -1 -1 7.5 4.9
-7 1 1 2.3 6.5
6 -1 -1 308.27 13
-6 1 1 321.87 15.7
5 -1 -1 31.2 5.1
-5 1 1 24 5.6
4 -1 -1 257.17 9.9
-4 1 1 263.77 11.3
3 -1 -1 82.09 5.7
-3 1 1 82.39 6.3
2 -1 -1 286.97 8.6
-2 1 1 300.57 9.2
-2 1 1 297.07 9.1
1 -1 -1 5013.5 98.79
-1 1 1 5050.99 110.59
-1 1 1 5070.69 102.49
0 -1 -1 9927.21 195.98
0 1 1 9999 221.88
-1 -1 -1 198.58 5.7
1 1 1 174.98 6.4
1 1 1 183.68 6.6
-2 -1 -1 302.37 9.3
2 1 1 313.77 9.7
2 1 1 337.67 9.7
-3 -1 -1 1078.29 26.3
3 1 1 1090.39 25.8
-4 -1 -1 677.83 19.8
4 1 1 673.73 19
-5 -1 -1 165.48 10.9
5 1 1 174.48 9.8
-6 -1 -1 109.29 11.7
6 1 1 99.29 9.3
-7 -1 -1 46.6 9.4
7 1 1 35.2 6.8
-8 -1 -1 55.19 11.4
8 1 1 57.69 8.9
-9 -1 -1 2.2 9.8
9 1 1 3.7 6.4
9 -2 -1 110.69 11.1
-9 2 1 98.79 14.3
8 -2 -1 19 6.1
-8 2 1 24.6 8.6
7 -2 -1 42.4 6.6
-7 2 1 50.09 9.5
6 -2 -1 39.7 6
-6 2 1 52.09 8.3
5 -2 -1 20.1 3.7
5 -2 -1 20.5 4.3
4 -2 -1 230.88 9.3
-4 2 1 251.37 11.1
3 -2 -1 179.38 7.9
-3 2 1 194.68 8.8
-3 2 1 184.78 8.5
2 -2 -1 141.09 6.6
-2 2 1 179.18 6.9
-2 2 1 158.58 7.6
1 -2 -1 2196.98 45.1
-1 2 1 2207.78 46.1
-1 2 1 2219.18 51.69
0 -2 -1 3336.07 67.89
0 2 1 3424.06 68.99
0 2 1 3406.46 76.79
-2 -2 -1 445.16 12.3
2 2 1 417.86 12.7
2 2 1 429.06 13.1
-3 -2 -1 215.28 9.1
3 2 1 218.48 8.5
3 2 1 215.48 9.3
-4 -2 -1 208.08 10.1
4 2 1 194.08 9.8
-5 -2 -1 195.38 11.8
5 2 1 210.58 11.2
-6 -2 -1 55.79 9
6 2 1 47.9 7.3
-7 -2 -1 2.9 7
7 2 1 2.8 5.3
-8 -2 -1 71.69 12.2
8 2 1 92.99 11.4
-9 -2 -1 25.3 11.1
9 -3 -1 -2.5 5.3
-9 3 1 -13.3 6.7
8 -3 -1 63.19 8.1
-8 3 1 66.89 11.2
7 -3 -1 10.8 5
-7 3 1 8.2 6.8
6 -3 -1 44.8 6
6 -3 -1 22.2 5.1
-6 3 1 19 6.6
5 -3 -1 158.18 8.8
5 -3 -1 161.58 9.2
-5 3 1 151.68 10.7
4 -3 -1 83.19 6.3
-4 3 1 95.29 7.5
-4 3 1 96.19 7.5
3 -3 -1 31.6 4.1
-3 3 1 29.8 5.1
-3 3 1 35.1 4.8
2 -3 -1 35.2 4.3
-2 3 1 30.5 3.9
-2 3 1 28.8 5
1 -3 -1 976.9 22.6
-1 3 1 961.9 27
-1 3 1 1013.5 23.1
0 -3 -1 17 3.4
0 3 1 31.9 5
0 3 1 23.8 2.8
1 3 1 241.78 8.1
1 3 1 262.87 9.5
1 3 1 242.88 10.3
-2 -3 -1 200.18 7.7
2 3 1 201.88 9.2
2 3 1 199.98 9
-3 -3 -1 337.37 11.9
3 3 1 351.86 12.7
3 3 1 334.87 12.4
-4 -3 -1 122.49 8.5
4 3 1 118.89 7.3
4 3 1 141.29 9.1
-5 -3 -1 26.1 6.5
5 3 1 17.4 5.3
-6 -3 -1 3.6 6.2
6 3 1 3.2 4.9
-7 -3 -1 43.5 9.3
7 3 1 71.99 9.8
-8 -3 -1 44.9 11
8 3 1 54.19 9.5
-9 4 1 15.8 8.6
8 -4 -1 76.99 8.6
-8 4 1 88.59 12.3
7 -4 -1 155.38 10.6
7 -4 -1 197.98 11.4
-7 4 1 144.69 12.7
6 -4 -1 11.6 4.5
6 -4 -1 17 5.3
-6 4 1 13.4 5.6
5 -4 -1 64.69 6.6
5 -4 -1 71.59 8.4
-5 4 1 63.99 8.2
-4 4 1 108.69 9.1
-4 4 1 120.19 8.5
-3 4 1 591.24 20.5
-3 4 1 621.74 18.1
-2 4 1 14.1 3.2
-2 4 1 11.4 4.5
1 -4 -1 260.07 9.3
-1 4 1 251.67 11.9
-1 4 1 247.48 9.1
0 -4 -1 426.46 13.2
0 4 1 450.05 16.5
0 4 1 453.55 12.9
1 4 1 795.22 20.1
1 4 1 794.32 24.3
-3 -4 -1 173.48 8.7
3 4 1 194.28 10.4
3 4 1 179.48 10
-4 -4 -1 65.89 7.4
4 4 1 61.39 7.1
4 4 1 75.79 8.8
-5 -4 -1 77.09 8.5
5 4 1 63.59 8.7
5 4 1 68.09 6.7
-6 -4 -1 128.29 12
6 4 1 133.29 11.9
-7 -4 -1 71.69 10.9
7 4 1 64.19 10.1
-8 -4 -1 40.2 11.4
-8 5 1 54.69 10.6
7 -5 -1 139.89 11.2
-7 5 1 89.29 11.4
6 -5 -1 49 7.8
-6 5 1 40.5 7.8
5 -5 -1 43.8 7.5
-5 5 1 51.79 7.4
-4 5 1 80.49 9.4
-4 5 1 79.89 8.5
-3 5 1 8.1 4.3
-3 5 1 9.3 3.5
-2 5 1 192.48 11.9
-2 5 1 185.78 8.7
1 -5 -1 118.69 7.4
-1 5 1 118.59 9.6
-1 5 1 119.49 6.6
0 -5 -1 47.6 5.6
0 5 1 48.4 4.6
0 5 1 34.8 6.1
-1 -5 -1 65.79 6.6
1 5 1 70.89 8.2
1 5 1 73.69 5.7
2 5 1 62.49 5.8
2 5 1 98.59 9.4
2 5 1 76.89 8.9
-3 -5 -1 58.39 6.5
3 5 1 51.49 7.6
3 5 1 56.09 8
-4 -5 -1 170.48 10.5
4 5 1 177.88 11.9
4 5 1 174.08 11
-5 -5 -1 134.99 10.6
5 5 1 111.59 11.9
-6 -5 -1 143.59 12.4
6 5 1 151.38 13.7
-7 -5 -1 12.4 7.7
7 5 1 23.1 8.6
7 -6 -1 48.4 8.4
-7 6 1 33.9 8.3
6 -6 -1 36.3 7.8
-6 6 1 26.5 7.1
5 -6 -1 112.19 11.7
-5 6 1 101.89 9.4
-4 6 1 127.39 9.1
-4 6 1 124.99 11.6
-3 6 1 26.9 6.8
-3 6 1 21.7 4.7
-2 6 1 50.99 7.8
-2 6 1 49 6.1
1 -6 -1 63.39 6.9
-1 6 1 61.09 5.7
-1 6 1 97.79 11.2
0 -6 -1 124.29 8.5
0 6 1 123.79 7.4
0 6 1 123.69 10.8
-1 -6 -1 149.39 9.2
1 6 1 145.39 8.1
1 6 1 151.28 11.7
-2 -6 -1 85.39 8.3
2 6 1 89.79 9.6
2 6 1 78.49 6.8
-3 -6 -1 70.59 7
3 6 1 62.89 9
3 6 1 88.79 10.1
-4 -6 -1 23.8 5.5
4 6 1 11.9 7.1
-5 -6 -1 37.4 7
5 6 1 47.6 9.6
-6 -6 -1 10.2 6.5
6 6 1 -0.8 7.6
6 -7 -1 44.2 9.3
-6 7 1 20.9 6.7
5 -7 -1 40.9 9.2
-5 7 1 18.4 6
-4 7 1 89.59 11.8
-4 7 1 82.49 8.3
-3 7 1 233.98 15.9
-3 7 1 248.98 12.3
-2 7 1 53.49 8.9
-2 7 1 56.19 6.7
-1 7 1 88.49 11.2
-1 7 1 81.39 6.8
0 -7 -1 41.4 6.2
0 7 1 29.7 7.6
0 7 1 28.8 4.9
-1 -7 -1 150.68 9.9
1 7 1 152.38 12.8
1 7 1 138.79 8.6
-2 -7 -1 83.99 8.6
2 7 1 103.39 12
-3 -7 -1 94.29 9.9
3 7 1 88.49 11.4
4 7 1 104.89 11.3
5 7 1 0.5 7.8
5 -8 -1 15.4 7.9
-5 8 1 10.5 5.8
-4 8 1 37.8 6.9
-3 8 1 15.7 4.8
-3 8 1 19.8 8.1
-2 8 1 66.09 11.8
-1 8 1 25.1 8.2
0 -8 -1 28.2 5.8
0 8 1 16.9 7.8
-1 -8 -1 24.9 5.5
1 8 1 13.2 7.1
-2 -8 -1 27.7 6.2
2 8 1 30.7 8.7
-3 -8 -1 115.19 11
3 8 1 123.19 14.3
-2 9 1 21.5 9
-1 9 1 30.9 9.8
0 9 1 4 6.8
2 9 -2 31.4 7.9
-2 -9 2 41 8.6
1 9 -2 0.3 4
-1 -9 2 6.1 5.5
0 9 -2 12 5
0 -9 2 10 5.7
-1 9 -2 34.8 7
1 -9 2 25.8 7.7
-2 9 -2 162.68 11.8
2 -9 2 161.88 14.7
-3 9 -2 46 8.1
3 -9 2 51.99 10
-4 9 -2 14.9 6
4 -9 2 20.7 8
4 8 -2 139.59 13.6
-4 -8 2 169.88 12.5
-3 -8 2 70.19 9.9
2 8 -2 145.89 11.2
-2 -8 2 149.29 12.4
1 8 -2 2.6 4
0 8 -2 23.2 5.8
0 -8 2 28.6 6.9
-1 8 -2 161.98 10.8
1 -8 2 138.09 12.3
-2 8 -2 71.99 8.8
2 -8 2 77.29 11.2
-3 8 -2 81.19 8.8
3 -8 2 92.59 11.5
-4 8 -2 19.2 6.4
4 -8 2 19.1 6.6
-5 8 -2 18.7 6.5
5 -8 2 36.2 8.7
-6 8 -2 7.2 5.8
6 -8 2 27.2 7.9
5 7 -2 108.69 11.7
-5 -7 2 105.79 11.2
4 7 -2 88.19 10.7
-4 -7 2 72.59 9.3
3 7 -2 50.39 8
3 7 -2 40.7 7.5
2 7 -2 18 5.5
1 7 -2 97.49 8.7
0 7 -2 72.49 8.3
-1 7 -2 110.19 8.5
1 -7 2 96.09 9.8
-2 7 -2 69.89 8.1
2 -7 2 56.09 8.4
-3 7 -2 29.2 6.2
3 -7 2 40 7.5
-4 7 -2 96.49 9.2
4 -7 2 95.79 10.4
-5 7 -2 21.7 6.3
5 -7 2 49 8.6
-6 7 -2 54.29 9.2
6 -7 2 62.69 9.7
-7 7 -2 26.9 8.6
7 -7 2 51.69 8.8
6 6 -2 67.69 10.1
-6 -6 2 87.39 11.5
5 6 -2 257.17 15.1
-5 -6 2 266.17 14.8
4 6 -2 96.19 10.1
-4 -6 2 89.39 9.2
3 6 -2 11.5 5.5
3 6 -2 7.8 4.7
3 6 -2 23.3 5.7
2 6 -2 91.89 9.1
2 6 -2 97.59 8.2
2 6 -2 90.59 8.2
1 6 -2 107.99 8.6
1 6 -2 111.59 10.1
0 6 -2 51.69 8
0 6 -2 62.39 7.2
-1 6 -2 149.39 9
-2 6 -2 71.79 7.9
2 -6 2 59.99 8.3
-3 6 -2 77.29 7.6
3 -6 2 85.09 9.2
-4 6 -2 96.09 8.6
4 -6 2 83.89 9.4
-5 6 -2 31.9 6.9
5 -6 2 43.7 7.6
-6 6 -2 17.6 6.6
6 -6 2 29.7 7.3
-7 6 -2 93.89 12.2
7 -6 2 109.29 12.3
-8 6 -2 28.9 8.9
8 -6 2 72.19 15.8
7 5 -2 13.3 7.2
-7 -5 2 18.5 8
6 5 -2 59.09 9.3
-6 -5 2 66.79 9.9
5 5 -2 26.9 6.7
-5 -5 2 25 6.5
4 5 -2 56.39 7.4
-4 -5 2 56.49 7.6
3 5 -2 77.39 7.6
3 5 -2 84.49 8.2
3 5 -2 74.29 8.2
2 5 -2 224.48 11.4
2 5 -2 219.78 10.1
2 5 -2 237.08 11.2
1 5 -2 73.99 6.8
1 5 -2 88.89 9
0 5 -2 641.84 21.6
0 5 -2 652.93 19.6
-1 5 -2 104.79 7.2
-2 5 -2 322.97 12.6
2 -5 2 315.77 14.3
-3 5 -2 63.19 6.7
3 -5 2 58.09 7.4
-4 5 -2 81.79 8
4 -5 2 79.59 8.5
-5 5 -2 131.49 10.5
5 -5 2 122.69 10.7
-6 5 -2 226.48 14.3
6 -5 2 222.28 14.1
-7 5 -2 18.4 7.2
7 -5 2 35.8 8.1
-8 5 -2 7.2 7.1
8 4 -2 2.7 6.7
-8 -4 2 15.2 9
7 4 -2 89.89 10.9
-7 -4 2 80.49 11.5
6 4 -2 68.49 8.7
-6 -4 2 67.29 9.5
5 4 -2 95.29 9.4
-5 -4 2 103.69 10.2
4 4 -2 194.38 10.5
-4 -4 2 170.48 10.6
3 4 -2 319.87 13
3 4 -2 305.27 12
3 4 -2 293.57 11.3
2 4 -2 350.56 12.9
2 4 -2 343.47 12.6
2 4 -2 340.07 11.6
1 4 -2 175.28 7.1
1 4 -2 180.48 9
1 4 -2 159.68 8.1
0 4 -2 116.69 8
0 4 -2 118.59 6.9
-1 4 -2 15.8 3.6
1 -4 2 14.8 4.1
-2 4 -2 702.63 19.8
2 -4 2 693.93 21.9
-3 4 -2 61.49 6.2
3 -4 2 59.09 6.5
-4 4 -2 63.29 7.5
4 -4 2 65.09 7.4
-5 4 -2 85.29 9.1
5 -4 2 87.09 9.3
-6 4 -2 40.5 7.8
6 -4 2 56.59 7.8
-7 4 -2 36.3 8.4
-8 4 -2 114.99 13.4
-9 4 -2 19.6 9.5
8 3 -2 174.48 14.4
-8 -3 2 180.18 16.8
7 3 -2 6.5 6
-7 -3 2 7.3 6.9
6 3 -2 61.49 8.3
-6 -3 2 71.49 9.7
5 3 -2 493.65 17.8
-5 -3 2 522.25 19.1
4 3 -2 505.65 16.4
-4 -3 2 480.25 16.9
3 3 -2 370.06 12.6
-3 -3 2 365.96 13.1
2 3 -2 129.69 6.7
2 3 -2 134.99 7.3
2 3 -2 125.19 6.5
1 3 -2 453.75 13.7
1 3 -2 449.06 14.1
0 3 -2 601.64 16.4
0 -3 2 612.34 17.9
-1 3 -2 681.13 18.1
1 -3 2 686.63 20
-2 3 -2 73.39 5.7
2 -3 2 83.39 6.4
-3 3 -2 236.88 10.3
3 -3 2 242.18 10.6
-4 3 -2 27 5.2
4 -3 2 27.6 4.8
-5 3 -2 177.58 11.2
5 -3 2 177.58 10.3
-6 3 -2 8.8 5.6
6 -3 2 22.3 6.1
-7 3 -2 49.2 8.7
7 -3 2 42.3 5.7
7 -3 2 51.19 7.2
-8 3 -2 0 6.8
8 -3 2 5.9 4.5
-9 3 -2 6.1 8.5
9 -3 2 3.9 5.3
9 2 -2 105.59 12.5
-9 -2 2 92.59 14.8
8 2 -2 0.1 5.6
-8 -2 2 -3.8 7.4
7 2 -2 6.3 5.1
-7 -2 2 9.7 7.1
6 2 -2 191.68 11.7
-6 -2 2 214.48 13.8
5 2 -2 23.3 5.1
-5 -2 2 23.9 5.9
4 2 -2 96.69 7.2
-4 -2 2 77.89 7.4
3 2 -2 207.38 8.9
-3 -2 2 185.18 9
2 2 -2 1224.38 28.9
2 2 -2 1180.08 27.1
-1 -2 2 14 2.5
0 2 -2 698.63 17.1
0 -2 2 693.43 18.3
-1 2 -2 325.67 9.9
1 -2 2 332.47 10.8
-2 2 -2 406.36 12.2
2 -2 2 383.26 12.7
-3 2 -2 346.47 12.1
3 -2 2 319.37 11.8
-4 2 -2 26.3 5
4 -2 2 27.5 4.4
-5 2 -2 419.56 16.5
5 -2 2 405.16 12.9
5 -2 2 391.76 14.5
-6 2 -2 115.29 11.4
6 -2 2 125.99 9.2
6 -2 2 125.59 8.2
-7 2 -2 83.49 11.1
7 -2 2 94.99 8.1
-8 2 -2 43.2 10.5
8 -2 2 50.99 7.3
-9 2 -2 54.49 11.9
9 -2 2 58.39 8.2
9 1 -2 7.5 6.4
-9 -1 2 15.7 10.1
8 1 -2 109.39 10.9
-8 -1 2 121.39 14.1
7 1 -2 9 5.2
-7 -1 2 4.3 6.7
6 1 -2 59.59 7.4
-6 -1 2 66.99 9.2
5 1 -2 82.99 7.5
-5 -1 2 92.19 8.9
4 1 -2 169.98 8.7
-4 -1 2 160.98 8.9
3 1 -2 531.75 15
-3 -1 2 517.95 15.7
2 1 -2 835.52 19.5
-2 -1 2 826.02 20.3
1 1 -2 15.4 2.5
1 1 -2 23.3 2.7
0 1 -2 2459.75 47.4
0 -1 2 2108.79 50.99
-1 1 -2 376.76 9.7
1 -1 2 332.67 10.9
-2 1 -2 216.98 7.8
2 -1 2 202.08 7.8
-3 1 -2 393.66 12.9
3 -1 2 397.06 11
3 -1 2 397.76 12.5
-4 1 -2 29.6 5.5
4 -1 2 25.9 4.2
4 -1 2 33.9 4.2
-5 1 -2 172.98 10.8
5 -1 2 162.18 9.2
5 -1 2 166.78 8.5
-6 1 -2 354.26 16.5
6 -1 2 342.87 13.5
-7 1 -2 81.39 11.2
7 -1 2 83.89 8.5
-8 1 -2 15.8 8.9
8 -1 2 7.5 5.1
-9 1 -2 6.3 9.2
9 -1 2 18.5 6.3
9 0 -2 26.4 7.5
-9 0 2 14.7 9.6
8 0 -2 65.99 8.9
-8 0 2 49.1 10.5
7 0 -2 83.19 8.8
-7 0 2 86.59 11.1
6 0 -2 130.39 9.3
-6 0 2 113.99 11
5 0 -2 204.28 10.1
-5 0 2 189.68 11.2
4 0 -2 184.08 8.8
-4 0 2 186.88 9.7
3 0 -2 155.28 7.4
-3 0 2 153.48 7.7
2 0 -2 274.47 8.6
-2 0 2 284.97 8.8
1 0 -2 989.9 21.1
-1 0 2 959.1 22.8
-1 0 2 992.8 21.4
0 0 -2 2065.19 41.6
0 0 -2 2048.3 42.2
0 0 2 2144.69 46.8
-1 0 -2 394.66 10.3
1 0 2 445.86 11.9
1 0 2 444.86 10.5
-2 0 -2 809.72 19.2
2 0 2 806.52 20.4
2 0 2 805.82 18.5
-3 0 -2 24.8 4.2
3 0 2 21.2 3.4
3 0 2 25.1 4.1
-4 0 -2 716.53 20.6
4 0 2 721.53 19.6
4 0 2 713.73 19.2
-5 0 -2 37.2 6.8
5 0 2 27.3 4.9
-6 0 -2 18.3 7
6 0 2 13.7 4.8
-7 0 -2 120.49 12.5
7 0 2 94.89 9.2
-8 0 -2 60.89 11.1
8 0 2 64.39 8.7
-9 0 -2 13.7 9.8
9 0 2 10.8 6.6
9 -1 -2 87.29 10.4
-9 1 2 53.19 12
8 -1 -2 43.1 7.7
-8 1 2 37.7 10
7 -1 -2 2.7 4.5
-7 1 2 1.4 6.2
6 -1 -2 20.6 5.2
-6 1 2 30.6 7
5 -1 -2 608.54 18.2
-5 1 2 607.74 20.2
4 -1 -2 144.39 8
-4 1 2 154.38 8.9
3 -1 -2 200.58 8.2
-3 1 2 202.18 8.8
-3 1 2 201.58 7.6
2 -1 -2 737.53 18.1
-2 1 2 771.12 19.6
-2 1 2 780.02 18.6
1 -1 -2 1544.15 33.7
-1 1 2 1616.14 37.8
-1 1 2 1684.23 33.7
0 -1 -2 783.72 18
0 1 2 807.12 20.3
-1 -1 -2 632.44 14
1 1 2 632.04 15.4
1 1 2 631.34 17
-3 -1 -2 95.29 6.8
3 1 2 88.19 6.3
3 1 2 103.79 6.1
-4 -1 -2 451.55 15.2
4 1 2 457.75 14.6
4 1 2 425.06 13.6
-5 -1 -2 123.09 10.3
5 1 2 128.79 8.9
-6 -1 -2 486.45 19.4
6 1 2 470.75 17.6
-7 -1 -2 24.8 8.2
7 1 2 40.9 7.1
-8 -1 -2 91.19 12.9
8 1 2 110.39 11.3
-9 -1 -2 153.98 16.7
9 1 2 184.28 14.5
9 -2 -2 53.09 8.9
-9 2 2 56.59 12.7
8 -2 -2 6.4 5.2
-8 2 2 4.3 7.4
7 -2 -2 6 4.8
-7 2 2 -1.3 5.9
6 -2 -2 66.09 7.3
-6 2 2 82.69 9.8
5 -2 -2 115.39 7
5 -2 -2 108.69 8.1
-5 2 2 101.19 9.1
4 -2 -2 80.79 6.6
-4 2 2 93.99 7.4
-4 2 2 79.69 6.3
3 -2 -2 342.37 11.3
-3 2 2 342.97 12.1
-3 2 2 352.96 11.8
2 -2 -2 946.11 22.6
-2 2 2 976.7 25.6
-2 2 2 974.2 22.8
1 -2 -2 1242.58 28
-1 2 2 1296.77 27.5
-1 2 2 1278.67 32.2
0 -2 -2 166.28 6.9
0 2 2 162.98 7.9
-1 -2 -2 556.94 13.1
1 2 2 564.14 16.8
1 2 2 557.64 15.1
-2 -2 -2 114.49 5.6
2 2 2 120.49 6.9
2 2 2 119.49 6.9
-3 -2 -2 103.99 6.6
3 2 2 96.29 7
3 2 2 101.29 6.6
-4 -2 -2 268.27 11.5
4 2 2 259.47 11.2
4 2 2 264.37 10.5
-5 -2 -2 49.3 7.6
5 2 2 44.7 5.5
5 2 2 52.39 6.8
-6 -2 -2 24.8 7.4
6 2 2 23 6.1
-7 -2 -2 93.69 11.6
7 2 2 101.99 10.5
-8 -2 -2 51.59 11
8 2 2 48 8.7
9 -3 -2 16.2 6.5
-9 3 2 30.6 10.1
8 -3 -2 10.8 5.8
-8 3 2 20.8 8.4
7 -3 -2 49.99 7.1
-7 3 2 34.9 8.4
6 -3 -2 137.49 8.7
6 -3 -2 98.89 8.8
-6 3 2 117.39 11
5 -3 -2 78.29 7.9
-5 3 2 88.29 9.1
4 -3 -2 133.19 8.3
-4 3 2 142.89 8.8
-4 3 2 134.69 8.8
3 -3 -2 156.28 8.2
-3 3 2 166.18 9.3
-3 3 2 161.98 7.8
2 -3 -2 668.73 17.6
-2 3 2 666.23 17.3
-2 3 2 675.33 20.9
1 -3 -2 1399.56 31.5
-1 3 2 1394.46 36.6
-1 3 2 1412.46 30.9
0 -3 -2 1275.47 29.7
0 3 2 1288.97 28.3
0 3 2 1345.97 34.5
1 3 2 446.96 15.3
1 3 2 423.46 11.5
-2 -3 -2 542.55 14.4
2 3 2 524.05 16.2
2 3 2 534.75 17.6
-3 -3 -2 513.85 15.2
3 3 2 517.35 16.7
3 3 2 511.85 17.1
-4 -3 -2 330.97 13.2
4 3 2 354.76 14.3
4 3 2 331.17 13.3
-5 -3 -2 17 6.3
5 3 2 13.8 4.4
5 3 2 18.9 5.6
-6 -3 -2 1 6
6 3 2 6.1 5.5
-7 -3 -2 38.4 9.3
7 3 2 37.1 8.1
-8 -3 -2 10.7 8.8
8 3 2 26.6 8.6
8 -4 -2 2.9 5.9
-8 4 2 0 6.1
7 -4 -2 26.6 6.3
7 -4 -2 6.4 5.1
-7 4 2 0.2 5.3
6 -4 -2 41.3 6.6
-6 4 2 23.9 6.3
5 -4 -2 66.59 7
-5 4 2 71.19 8.3
-5 4 2 69.69 8.3
4 -4 -2 37.9 5.5
-4 4 2 43.8 6.1
-4 4 2 28.6 5.9
3 -4 -2 -1.7 3.5
-3 4 2 1.1 3.9
-3 4 2 3.4 2.8
2 -4 -2 67.59 6.2
-2 4 2 62.09 7
-2 4 2 59.79 4.8
1 -4 -2 310.47 11.2
-1 4 2 319.27 10.1
-1 4 2 319.07 14
0 -4 -2 167.88 8.3
0 4 2 175.98 6.7
0 4 2 178.88 10
-1 -4 -2 7.3 3.6
1 4 2 7.1 3.8
-2 -4 -2 263.37 9.4
2 4 2 259.17 11.9
2 4 2 275.27 12.6
-3 -4 -2 73.49 6.6
3 4 2 82.79 8.3
3 4 2 72.59 7.6
-4 -4 -2 15 5
4 4 2 24 6
4 4 2 11.5 4.6
-5 -4 -2 140.69 10.5
5 4 2 161.48 11.8
5 4 2 119.89 8.9
-6 -4 -2 43.5 8.4
6 4 2 24 7.5
-7 -4 -2 90.89 12
7 4 2 108.39 12.8
-8 5 2 17.7 8.1
7 -5 -2 -1.6 5
-7 5 2 2.9 5.8
6 -5 -2 17.8 6.1
-6 5 2 2 5.1
5 -5 -2 5.4 4.7
-5 5 2 7.8 4.7
-5 5 2 5.6 5.7
4 -5 -2 48.2 6.6
-4 5 2 42.1 6.2
-4 5 2 43.5 7.6
3 -5 -2 77.19 7.4
-3 5 2 65.69 6.1
-3 5 2 62.79 8.8
2 -5 -2 174.88 9.4
-2 5 2 172.38 8.1
-2 5 2 148.69 11.2
1 -5 -2 96.89 7.6
-1 5 2 98.99 9.1
-1 5 2 87.79 5.6
0 -5 -2 373.86 13.5
0 5 2 376.96 11.8
0 5 2 370.76 16.6
-1 -5 -2 448.16 15.3
1 5 2 409.06 13
1 5 2 419.96 18
-2 -5 -2 87.69 5.9
2 5 2 76.49 9
-3 -5 -2 28.4 5
3 5 2 24.9 6.7
3 5 2 24.7 6.1
-4 -5 -2 114.59 8.8
4 5 2 108.49 11.1
4 5 2 114.69 10.1
-5 -5 -2 25.9 6.3
5 5 2 18.6 6.9
5 5 2 17.4 5.5
-6 -5 -2 101.49 11.3
6 5 2 118.99 13.1
-7 -5 -2 1 8.4
7 5 2 7.8 8.2
-7 6 2 48.8 9.3
6 -6 -2 52.69 9.3
-6 6 2 25.5 7.1
-5 6 2 30.9 8.1
-5 6 2 29.4 6.3
-4 6 2 50.09 8.8
-4 6 2 72.29 7.3
-3 6 2 166.78 9.2
-3 6 2 156.58 12.5
-2 6 2 14.8 5.5
-2 6 2 13.3 3.6
1 -6 -2 35.5 5.9
-1 6 2 31.2 6.9
-1 6 2 37.8 5
0 -6 -2 76.09 7.6
0 6 2 73.99 5.7
0 6 2 56.59 8.6
-1 -6 -2 32.9 5.8
1 6 2 21.5 6.2
1 6 2 28 4.3
-2 -6 -2 3.7 4.3
-2 -6 -2 13.6 3.4
2 6 2 8.9 5.5
-3 -6 -2 85.69 8.3
3 6 2 76.99 10
4 6 2 37.4 9.1
4 6 2 34.1 7.4
5 6 2 36.8 9.6
6 6 2 53.69 11
6 -7 -2 23.5 7.8
-6 7 2 0.3 4.9
-5 7 2 85.19 9.9
-4 7 2 227.18 16.7
-4 7 2 215.78 12
-3 7 2 69.39 10.9
-3 7 2 82.49 7.2
-2 7 2 30 4.9
-2 7 2 26.9 7.2
1 -7 -2 95.39 9.1
-1 7 2 104.79 12.9
0 -7 -2 8.2 4.5
0 7 2 14.4 6.4
-1 -7 -2 38.7 6.5
1 7 2 29.7 8
-2 -7 -2 55.49 7.8
2 7 2 68.79 10.6
-3 -7 -2 45.2 8.1
3 7 2 50.29 9.5
-4 -7 -2 26.8 6.9
4 7 2 24.9 7.5
5 -8 -2 17.1 8
-4 8 2 75.79 13
-3 8 2 -0.5 6.3
-2 8 2 108.39 14.4
-1 8 2 16.2 7.2
0 -8 -2 97.29 9.8
0 8 2 96.19 13.8
-1 -8 -2 199.88 12.3
1 8 2 191.08 16.4
-2 -8 -2 80.09 9.9
2 8 2 55.99 11.3
-3 -8 -2 84.39 10.4
3 8 2 91.19 12.9
2 9 -3 39.6 8.8
-2 -9 3 63.59 9.5
1 9 -3 23.5 6.5
-1 -9 3 23.3 7.1
0 9 -3 97.39 10.4
0 -9 3 110.29 12.1
-1 9 -3 31.3 7.2
1 -9 3 20.1 6.7
-2 9 -3 56.89 8.9
2 -9 3 62.39 10.4
-3 9 -3 57.29 9.1
3 -9 3 77.09 11.8
-4 9 -3 41.2 8.4
4 -9 3 52.49 10.4
4 8 -3 77.79 10.8
-4 -8 3 109.39 10.9
3 8 -3 -1.2 5.4
3 8 -3 8.7 6.6
2 8 -3 142.59 11.6
-2 -8 3 161.78 12.3
1 8 -3 93.49 10.6
-1 -8 3 97.49 10.4
0 8 -3 78.59 8.5
0 -8 3 85.19 10.8
-1 8 -3 17.5 5.3
1 -8 3 24.5 6.7
-2 8 -3 51.09 7.8
2 -8 3 44.7 8.4
-3 8 -3 2.8 4.4
3 -8 3 9.5 5.7
-4 8 -3 13.1 5.3
4 -8 3 16.6 6.8
-5 8 -3 22.6 6.8
5 -8 3 27.1 8.2
-6 8 -3 6 5.6
6 -8 3 20.1 7.5
5 7 -3 99.59 11.5
-5 -7 3 107.99 11.5
4 7 -3 100.29 10.8
-4 -7 3 94.69 10.5
3 7 -3 159.98 12.2
3 7 -3 166.78 11.3
-3 -7 3 175.48 11.2
2 7 -3 35.4 6.8
-2 -7 3 42.5 7.4
1 7 -3 47.4 7.5
-1 -7 3 57.69 8.9
0 7 -3 196.48 11.6
0 -7 3 190.78 12.6
-1 7 -3 156.78 10.3
1 -7 3 143.79 11.6
-2 7 -3 22.4 5.5
2 -7 3 19.1 5.7
-3 7 -3 12.8 5
3 -7 3 16.9 6
-4 7 -3 -3.6 3.6
4 -7 3 8.2 5.2
-5 7 -3 13.9 5.9
5 -7 3 14.3 6.4
-6 7 -3 12.8 5.9
6 -7 3 25.6 7.6
-7 7 -3 -0.1 6.3
7 -7 3 27.7 7.6
6 6 -3 21.3 7.6
-6 -6 3 23.5 7.4
5 6 -3 33.4 7.5
-5 -6 3 48.5 8.1
4 6 -3 11.3 5.9
-4 -6 3 19.9 5.5
-4 -6 3 26.6 5
3 6 -3 105.89 9.7
3 6 -3 113.39 9
-3 -6 3 130.29 9.1
2 6 -3 39.5 6.4
-2 -6 3 49.8 7.3
1 6 -3 2.9 3.9
-1 -6 3 6 4.1
0 6 -3 258.17 12.2
0 -6 3 253.27 13.5
-1 6 -3 190.78 10.3
1 -6 3 177.58 11.6
-2 6 -3 80.19 7.5
2 -6 3 91.99 9
-3 6 -3 58.79 7.3
3 -6 3 46.1 7.3
-4 6 -3 102.39 9.2
4 -6 3 114.59 10.3
-5 6 -3 29 6.9
5 -6 3 41.6 7.7
-6 6 -3 6.5 5.1
6 -6 3 8.1 6.1
-7 6 -3 32.2 8.5
7 -6 3 57.49 9.6
-8 6 -3 6.2 7.4
8 -6 3 28.3 8.2
7 5 -3 72.19 10.6
-7 -5 3 75.19 11.6
6 5 -3 25.6 7.4
-6 -5 3 28.5 7.7
5 5 -3 117.99 10.7
-5 -5 3 132.29 11.2
4 5 -3 23.6 5.8
-4 -5 3 16.2 5.4
3 5 -3 48.7 7.5
3 5 -3 64.79 7.3
-3 -5 3 54.59 6
2 5 -3 189.48 10.6
2 5 -3 192.88 8.9
-2 -5 3 180.78 10
1 5 -3 489.45 16.8
-1 -5 3 496.75 17.7
0 5 -3 145.99 8.5
0 -5 3 138.99 9
-1 5 -3 12 3.9
1 -5 3 8.9 3.9
-2 5 -3 62.59 7.1
2 -5 3 65.39 7.8
-3 5 -3 371.46 14.6
3 -5 3 357.36 15.6
-4 5 -3 35.4 6.3
4 -5 3 33.5 6.6
-5 5 -3 5.5 4.8
5 -5 3 12.4 5.8
-6 5 -3 202.48 13.7
6 -5 3 212.28 13.9
-7 5 -3 200.98 15.3
7 -5 3 260.87 15.6
-8 5 -3 28.7 9.4
8 4 -3 37.8 9.4
-8 -4 3 45.2 10.8
7 4 -3 73.99 10.1
-7 -4 3 68.69 10.6
6 4 -3 44.6 8.3
-6 -4 3 38.9 7.8
5 4 -3 41.2 6.9
-5 -4 3 48.3 7.8
4 4 -3 11.4 4.2
-4 -4 3 4.7 4.3
3 4 -3 79.79 7.6
3 4 -3 73.99 7
-3 -4 3 86.59 5.7
2 4 -3 77.19 6.6
2 4 -3 58.69 5.3
-2 -4 3 45.4 5
1 4 -3 126.49 7.4
-1 -4 3 131.89 7.7
0 4 -3 73.59 6
0 -4 3 73.09 6.5
-1 4 -3 45.9 5.4
1 -4 3 32.6 5.4
-2 4 -3 161.78 8.3
2 -4 3 158.78 9.3
-3 4 -3 134.59 8.3
3 -4 3 133.29 9.1
-4 4 -3 471.15 17
4 -4 3 456.55 17.7
-5 4 -3 135.39 10.5
5 -4 3 134.39 10.5
-6 4 -3 105.69 11
6 -4 3 122.59 11.2
-7 4 -3 84.49 11.2
-8 4 -3 21.2 8.2
-9 4 -3 17.1 9.2
8 3 -3 71.99 10.5
-8 -3 3 98.59 13.6
7 3 -3 52.99 8.3
-7 -3 3 53.49 9.9
6 3 -3 17.7 5.7
-6 -3 3 19.3 6.6
5 3 -3 37.5 6.3
-5 -3 3 39.2 7.3
4 3 -3 205.98 10.3
-4 -3 3 209.38 11
3 3 -3 455.35 14.3
2 3 -3 286.07 11
2 3 -3 273.27 9.5
-2 -3 3 258.77 9.4
1 3 -3 459.35 13.9
-1 -3 3 432.26 13.8
0 3 -3 374.46 12.2
0 -3 3 393.26 13.1
-1 3 -3 789.92 20.6
1 -3 3 790.62 22.4
-2 3 -3 1679.43 39.1
2 -3 3 1702.23 42.4
-3 3 -3 411.36 14
3 -3 3 391.46 14.8
-4 3 -3 139.19 9
4 -3 3 133.29 8.9
-5 3 -3 188.78 11.6
5 -3 3 188.78 11.6
-6 3 -3 103.69 10.5
6 -3 3 89.69 9.6
-7 3 -3 83.99 10.7
7 -3 3 84.19 9.9
-8 3 -3 22.7 8.5
8 -3 3 13.2 5
-9 3 -3 -4.8 7.6
9 2 -3 48 9.4
-9 -2 3 51.09 12.3
8 2 -3 42.9 8.3
-8 -2 3 49.99 10.6
7 2 -3 115.49 10.6
-7 -2 3 103.39 11.9
6 2 -3 99.19 9.4
-6 -2 3 121.39 11.4
5 2 -3 460.95 16.4
-5 -2 3 446.56 17.2
4 2 -3 686.93 19.5
-4 -2 3 668.63 20.6
3 2 -3 27.1 4.4
-3 -2 3 25.3 4.7
2 2 -3 993 23.5
2 2 -3 1021.4 25.4
1 2 -3 1972.6 44.5
1 2 -3 2052.39 41.8
-1 -2 3 2065.29 46.9
0 2 -3 305.67 9.6
0 -2 3 298.97 10.2
-1 2 -3 614.94 15.9
1 -2 3 595.34 17.2
-2 2 -3 125.39 6.6
2 -2 3 134.69 7.5
-3 2 -3 69.49 6.2
3 -2 3 70.19 6.8
-4 2 -3 234.48 10.9
4 -2 3 239.88 10.9
-5 2 -3 4.5 4.8
5 -2 3 4.7 4.6
5 -2 3 3.7 3.1
-6 2 -3 8.4 6
6 -2 3 3.5 3.7
6 -2 3 15 6.3
-7 2 -3 12.4 6.8
7 -2 3 9.8 6
7 -2 3 8.7 4.2
-8 2 -3 6.5 7.1
8 -2 3 20.4 5.5
-9 2 -3 8.5 8.8
9 -2 3 10.2 5.3
9 1 -3 15 7.7
-9 -1 3 16.9 10.5
8 1 -3 69.99 9.4
-8 -1 3 50.09 10.9
7 1 -3 53.59 7.7
-7 -1 3 70.09 10.5
6 1 -3 188.48 11.1
-6 -1 3 200.78 13.3
5 1 -3 78.39 7.7
-5 -1 3 72.49 8
4 1 -3 126.89 8.1
-4 -1 3 127.09 8.3
3 1 -3 581.54 16.1
-3 -1 3 588.54 17.1
2 1 -3 434.56 12.3
-2 -1 3 443.46 12.8
1 1 -3 773.32 18.8
1 1 -3 804.42 17.9
-1 -1 3 785.92 19.3
0 -1 3 113.19 5.9
1 -1 3 3 2.7
-2 1 -3 267.17 9.2
2 -1 3 270.37 10
-3 1 -3 383.56 12.8
3 -1 3 381.96 10.9
3 -1 3 389.26 13.3
-4 1 -3 -2.9 3.7
4 -1 3 5.8 2.8
4 -1 3 6.9 4.1
-5 1 -3 100.99 9.6
5 -1 3 105.89 8.5
5 -1 3 96.49 7.1
-6 1 -3 240.88 14.2
6 -1 3 223.68 12
6 -1 3 239.08 11.1
-7 1 -3 44 9
7 -1 3 37.9 6.5
-8 1 -3 34.7 10.2
8 -1 3 20.4 6.1
-9 1 -3 19.5 10.5
9 -1 3 27.9 7.1
9 0 -3 43.2 8.6
-9 0 3 48.2 12
8 0 -3 64.09 9.1
-8 0 3 64.29 11.5
7 0 -3 42.4 7.1
-7 0 3 35.7 8.4
6 0 -3 90.09 8.8
-6 0 3 72.09 9.4
5 0 -3 240.68 11.1
-5 0 3 225.38 12.2
4 0 -3 218.58 9.8
-4 0 3 225.78 10.5
3 0 -3 611.74 16.8
-3 0 3 620.74 17.2
2 0 -3 206.68 8
-2 0 3 207.88 7.8
-2 0 3 208.98 7.3
1 0 -3 239.38 7.7
-1 0 3 242.18 8.2
-1 0 3 235.48 6.9
0 0 -3 8.3 2.1
-1 0 -3 22.8 2.9
1 0 3 35.3 4
-2 0 -3 561.34 14.3
2 0 3 537.35 14
2 0 3 543.75 15.9
-3 0 -3 341.27 11.6
3 0 3 332.07 10.7
3 0 3 355.76 12.3
-4 0 -3 126.09 8.3
4 0 3 108.69 6.9
4 0 3 105.49 7.8
-5 0 -3 1248.48 33.1
5 0 3 1237.48 31
5 0 3 1282.07 32.9
-6 0 -3 181.78 13
6 0 3 203.58 11.1
-7 0 -3 46.1 9.3
7 0 3 48.9 7.5
-8 0 -3 68.39 11.5
8 0 3 69.09 9.5
-9 0 -3 48.7 12.8
9 0 3 71.29 9.9
9 -1 -3 37.4 8.2
-9 1 3 26.1 10.4
8 -1 -3 94.29 10.2
-8 1 3 78.59 12
7 -1 -3 117.19 10.1
-7 1 3 97.89 11.2
6 -1 -3 101.29 9.1
-6 1 3 115.19 11.1
5 -1 -3 10.1 4.2
-5 1 3 12.4 5.3
4 -1 -3 134.09 8.2
-4 1 3 135.39 8.5
3 -1 -3 360.86 11.8
-3 1 3 357.06 11.3
-3 1 3 342.47 12
2 -1 -3 869.11 20.9
-2 1 3 867.71 20.6
-2 1 3 855.91 22.4
1 -1 -3 177.98 7
-1 1 3 175.98 7.8
-1 1 3 184.38 5.6
0 1 3 137.29 6.9
-1 -1 -3 346.57 10.6
1 1 3 354.46 11.9
-2 -1 -3 112.09 5.7
2 1 3 142.09 7.6
2 1 3 112.29 6.7
-3 -1 -3 29.7 4.6
3 1 3 26 4.2
3 1 3 30.7 4.7
-4 -1 -3 117.29 8.2
4 1 3 86.69 7.1
4 1 3 91.69 7.3
-5 -1 -3 27.8 6.4
5 1 3 25.4 5.2
5 1 3 20.4 4.8
-6 -1 -3 97.99 10.8
6 1 3 90.89 9
-7 -1 -3 73.19 10.8
7 1 3 51.49 7.8
-8 -1 -3 149.49 15.6
8 1 3 151.08 12.5
-9 -1 -3 -8.2 9.3
9 -2 -3 58.49 9
-9 2 3 93.19 14.3
8 -2 -3 -5.7 5.2
-8 2 3 0.8 7.2
7 -2 -3 -2.1 4.6
-7 2 3 12.1 6.8
6 -2 -3 37 6.2
-6 2 3 37.4 7.6
5 -2 -3 106.29 8.7
-5 2 3 102.59 9.5
-5 2 3 110.19 7.3
4 -2 -3 83.39 7.2
-4 2 3 79.89 6.5
-4 2 3 70.79 7.1
3 -2 -3 145.09 8.1
-3 2 3 146.89 8.1
-3 2 3 143.29 7.4
2 -2 -3 1029.8 25.1
-2 2 3 1036.9 28
-2 2 3 1072.49 24.4
1 -2 -3 482.95 13.8
-1 2 3 498.05 15.9
0 -2 -3 419.56 12.5
0 2 3 424.96 14.4
-1 -2 -3 364.16 12
1 2 3 372.76 13.4
-2 -2 -3 26.5 3.7
2 2 3 25.2 4.4
2 2 3 24.9 4.5
-3 -2 -3 140.09 7.5
3 2 3 135.29 8
3 2 3 141.29 8.3
-4 -2 -3 98.99 8
4 2 3 69.29 7
4 2 3 86.49 7.9
-5 -2 -3 195.48 12
5 2 3 192.88 10.4
5 2 3 186.98 11.1
-6 -2 -3 159.68 12.5
6 2 3 177.98 11.8
-7 -2 -3 30.3 8.9
7 2 3 27.2 6.9
-8 -2 -3 26.1 10.5
8 2 3 50.69 9.4
-9 3 3 -5.8 7.8
8 -3 -3 16.7 6.7
-8 3 3 -2.1 7.1
7 -3 -3 1.7 4.8
-7 3 3 -2.2 6
6 -3 -3 76.69 7.6
6 -3 -3 55.39 7.3
-6 3 3 57.29 8.7
5 -3 -3 195.18 10.9
-5 3 3 198.58 11.7
-5 3 3 207.18 11.1
4 -3 -3 6.4 4.3
-4 3 3 10.5 4.2
-4 3 3 6.2 4.1
3 -3 -3 176.98 9.2
-3 3 3 167.08 9.5
-3 3 3 159.18 7.7
2 -3 -3 629.64 18.1
-2 3 3 678.93 21.2
-2 3 3 685.63 17.1
1 -3 -3 669.93 18.4
-1 3 3 715.83 16.4
-1 3 3 682.73 21.6
0 -3 -3 100.39 6.8
0 3 3 104.39 7.7
-1 -3 -3 239.48 10.2
1 3 3 267.87 11.7
2 3 3 114.79 8.1
2 3 3 121.39 8.4
3 3 3 26.6 5
3 3 3 31.6 5.4
-4 -3 -3 126.19 9.2
4 3 3 118.49 8.9
4 3 3 117.99 9.4
-5 -3 -3 28.4 6.9
5 3 3 34.9 6
5 3 3 30.4 6.6
-6 -3 -3 52.59 8.9
6 3 3 58.59 8.9
-7 -3 -3 5.1 7.6
7 3 3 2.1 5.9
-8 -3 -3 19.9 10.2
8 3 3 37.8 9.5
8 -4 -3 8.7 6.2
-8 4 3 12.5 7.2
7 -4 -3 21.6 6.5
-7 4 3 16.6 6.5
6 -4 -3 26.1 6.5
-6 4 3 24.4 6.8
5 -4 -3 28.6 6.3
-5 4 3 26.3 6.4
-5 4 3 29.9 6
4 -4 -3 94.99 8.4
-4 4 3 107.29 9.6
-4 4 3 102.59 7.8
3 -4 -3 238.18 11.1
-3 4 3 210.88 12.3
-3 4 3 226.58 9.5
2 -4 -3 1094.79 27.5
-2 4 3 1085.39 32.6
-2 4 3 1116.49 26.4
1 -4 -3 143.19 8.6
-1 4 3 169.58 6.5
-1 4 3 176.48 10.5
0 -4 -3 99.69 7.3
0 4 3 107.99 8.5
-1 -4 -3 567.34 17.6
1 4 3 573.14 20.4
-2 -4 -3 229.98 8.6
2 4 3 245.08 12.7
-3 -4 -3 133.19 7.9
3 4 3 131.49 9.9
3 4 3 136.69 10.4
-4 -4 -3 26 5.3
4 4 3 29.8 6.6
4 4 3 14.5 5.1
-5 -4 -3 3.7 5.3
5 4 3 4.4 4.6
5 4 3 11.5 5.7
-6 -4 -3 10.4 6.5
6 4 3 9.2 6.6
-7 -4 -3 29.6 9
7 4 3 31.8 8.7
8 -5 -3 -14.6 5.3
-8 5 3 7.3 6.9
7 -5 -3 17.6 6.5
7 -5 -3 51.59 8.4
-7 5 3 17 7
6 -5 -3 71.69 8.8
-6 5 3 56.69 8.5
5 -5 -3 28.3 6.4
-5 5 3 36.9 7.8
-5 5 3 21.1 5.5
4 -5 -3 114.89 9.9
-4 5 3 94.29 7.9
-4 5 3 94.99 10.2
3 -5 -3 62.59 7.4
-3 5 3 80.09 6.3
-3 5 3 58.79 8.6
2 -5 -3 112.89 9
-2 5 3 108.09 6.4
-2 5 3 96.39 9.5
1 -5 -3 118.59 8.8
-1 5 3 90.89 9.3
-1 5 3 91.99 5.3
0 -5 -3 113.09 8.6
0 5 3 123.29 10.2
0 5 3 115.09 5.6
-1 -5 -3 169.78 10
1 5 3 146.89 11.2
-2 -5 -3 122.19 6.8
-2 -5 -3 128.79 9.6
2 5 3 132.09 10.9
-3 -5 -3 60.19 6.4
3 5 3 39.9 7.4
-4 -5 -3 70.09 9
4 5 3 63.09 9.6
4 5 3 48.5 8
5 5 3 130.39 13.1
5 5 3 107.59 10.5
6 5 3 235.08 17.3
-7 6 3 13.8 6.5
6 -6 -3 -7.8 5.4
-6 6 3 4.4 5.1
-5 6 3 78.19 11.5
-5 6 3 61.29 8.1
4 -6 -3 88.49 9
-4 6 3 76.39 7.4
-4 6 3 87.59 11.2
3 -6 -3 101.19 9.9
-3 6 3 107.39 7.5
-3 6 3 109.09 11.6
2 -6 -3 20.4 5.8
-2 6 3 14.5 6.1
-2 6 3 14.7 3.3
1 -6 -3 30.6 6.2
-1 6 3 15.6 5.6
0 -6 -3 59.29 7.2
0 6 3 42.6 7.6
-1 -6 -3 12.3 4.9
1 6 3 17 6.3
-2 -6 -3 34 6.4
2 6 3 24.6 7.2
-3 -6 -3 14.4 5.7
3 6 3 18.3 6.9
4 6 3 24.3 7
5 6 3 31.4 12.2
6 -7 -3 19.5 7.5
-5 7 3 30.7 10.2
-4 7 3 39.5 9.8
-3 7 3 123.39 13.1
2 -7 -3 34.6 6.8
-2 7 3 30 8.2
1 -7 -3 103.99 10
-1 7 3 72.59 11.3
0 -7 -3 109.59 9.7
0 7 3 125.69 12.8
-1 -7 -3 195.88 12.3
1 7 3 214.48 15.6
-2 -7 -3 7 4.7
2 7 3 -0.5 5.3
-3 -7 -3 30 7.2
3 7 3 22.8 7.8
-4 -7 -3 45.9 8.8
4 7 3 66.09 11.3
-4 8 3 17.2 8.8
-3 8 3 40.6 10.5
-2 8 3 11.5 7.4
1 -8 -3 61.19 8.3
-1 8 3 52.09 10.7
0 -8 -3 26.7 6.6
0 8 3 10.6 7
-1 -8 -3 105.89 10.8
1 8 3 83.39 12.8
-2 -8 -3 8.5 5.3
2 8 3 9.7 7.2
2 9 -4 8.1 6.1
-2 -9 4 16.7 5.3
1 9 -4 123.19 11.9
-1 -9 4 159.18 13
0 9 -4 11.3 5.9
0 -9 4 17.9 6.5
-1 9 -4 34.2 7.9
1 -9 4 46.2 8.9
-2 9 -4 30 7.2
2 -9 4 24.7 7.7
-3 9 -4 8.7 5
3 -9 4 13.1 6.6
-4 9 -4 57.29 9.9
4 -9 4 74.49 12
4 8 -4 54.19 9.1
-4 -8 4 71.89 10.4
3 8 -4 117.89 13.1
-3 -8 4 137.49 10.4
2 8 -4 248.38 15
-2 -8 4 265.37 14.9
1 8 -4 10.8 5.7
-1 -8 4 18 5.8
0 8 -4 302.87 15.3
0 -8 4 275.67 16
-1 8 -4 181.98 12
1 -8 4 186.78 13.3
-2 8 -4 96.99 9.4
2 -8 4 98.39 10.8
-3 8 -4 19.6 5.9
3 -8 4 22.2 6.8
-4 8 -4 45.1 8.4
4 -8 4 65.19 10.3
-5 8 -4 19.6 6.6
5 -8 4 30.6 8.4
-6 8 -4 15.4 6.9
6 -8 4 28.8 8.4
-6 -7 4 18.7 8.5
5 7 -4 5.4 6.2
-5 -7 4 13.1 6.6
4 7 -4 93.79 10.2
-4 -7 4 95.59 11.1
3 7 -4 32.2 7.4
-3 -7 4 40.6 6.4
2 7 -4 100.99 9.9
-2 -7 4 104.49 9.4
1 7 -4 249.58 13.6
-1 -7 4 210.78 12.9
0 7 -4 53.79 7.8
0 -7 4 43.8 7.6
-1 7 -4 12.2 4.6
1 -7 4 16.1 5.5
-2 7 -4 9.2 4.4
2 -7 4 13.6 5.4
-3 7 -4 5.7 4.3
3 -7 4 7.9 5.5
-4 7 -4 37.7 7.3
4 -7 4 36.4 7.7
-5 7 -4 31 7.5
5 -7 4 53.59 9.5
-6 7 -4 -1.1 5.1
6 -7 4 16.5 7.5
-7 7 -4 3.8 6.2
7 -7 4 28.1 8.2
6 6 -4 68.49 9.8
-6 -6 4 76.29 11.4
5 6 -4 126.79 12.2
-5 -6 4 115.79 11.5
4 6 -4 114.39 9.9
-4 -6 4 111.49 10.4
3 6 -4 101.09 8.3
3 6 -4 90.99 10.4
-3 -6 4 119.49 8.4
2 6 -4 4.3 4.1
-2 -6 4 4.4 4.1
1 6 -4 85.89 8.6
-1 -6 4 81.79 8.4
0 6 -4 194.88 10.9
0 -6 4 187.78 11.6
-1 6 -4 6.4 3.6
1 -6 4 2.4 4.3
-2 6 -4 121.39 9
2 -6 4 110.59 9.7
-3 6 -4 40.9 6.7
3 -6 4 36.7 7.1
-4 6 -4 24.9 6
4 -6 4 33 7.2
-5 6 -4 55.39 8.1
5 -6 4 78.59 10.4
-6 6 -4 20 7
6 -6 4 38.3 8.4
-7 6 -4 22.4 7.6
7 -6 4 37.1 9.1
-8 6 -4 7.2 8
8 -6 4 32.4 9.8
7 5 -4 195.88 15.1
-7 -5 4 183.28 15.6
6 5 -4 134.19 12.4
-6 -5 4 142.29 13.1
5 5 -4 47.4 7.3
-5 -5 4 37.9 7.2
4 5 -4 92.19 8.8
-4 -5 4 74.19 8.9
3 5 -4 104.09 8.2
3 5 -4 109.09 9.9
-3 -5 4 92.99 7
2 5 -4 81.49 7.9
2 5 -4 92.19 6.6
-2 -5 4 94.39 7.5
1 5 -4 176.28 9.8
-1 -5 4 169.48 9.7
0 5 -4 655.03 20.3
0 -5 4 625.34 21
-1 5 -4 386.96 14.5
1 -5 4 388.46 15.8
-2 5 -4 285.37 12.5
2 -5 4 302.37 14
-3 5 -4 188.98 10.4
3 -5 4 175.28 11.5
-4 5 -4 289.07 13.8
4 -5 4 284.47 15
-5 5 -4 27 6.3
5 -5 4 37.4 7.6
-6 5 -4 25.8 7.1
6 -5 4 34.4 8.1
-7 5 -4 43.2 9.3
7 -5 4 72.19 10.3
-8 5 -4 9.4 7.9
8 -5 4 23.5 8.6
8 4 -4 98.89 12.2
-8 -4 4 104.29 14
7 4 -4 131.49 13.1
-7 -4 4 137.89 13.9
6 4 -4 29 7
-6 -4 4 25.4 7.3
5 4 -4 7 5.1
-5 -4 4 12.1 5.5
4 4 -4 30 5.8
-4 -4 4 37.5 6.6
3 4 -4 345.07 14.5
3 4 -4 322.27 12.5
-3 -4 4 337.97 11.8
2 4 -4 54.09 5.2
2 4 -4 58.29 6.3
-2 -4 4 57.89 5.4
1 4 -4 73.89 6.1
-1 -4 4 60.69 5.9
0 4 -4 151.48 8.1
0 -4 4 125.49 8.2
-1 4 -4 303.07 11.9
1 -4 4 327.17 13.3
-2 4 -4 390.96 14
2 -4 4 415.46 15.7
-3 4 -4 309.57 12.6
3 -4 4 271.17 13.2
-4 4 -4 27.2 5.4
4 -4 4 14.7 5.4
-5 4 -4 80.89 9.2
5 -4 4 89.79 9.9
-6 4 -4 156.18 12.4
6 -4 4 161.18 12.4
-7 4 -4 2.5 6
-8 4 -4 6.2 7.7
8 3 -4 36.4 8.5
-8 -3 4 31.7 10.3
7 3 -4 24.9 7.1
-7 -3 4 23.9 8.3
6 3 -4 31.5 6.6
-6 -3 4 31.3 7.3
5 3 -4 29 5.8
-5 -3 4 37.7 7.1
4 3 -4 177.48 9.7
-4 -3 4 158.08 10.1
3 3 -4 470.45 16.3
3 3 -4 463.65 14.7
2 3 -4 117.49 7.4
2 3 -4 108.69 6.3
-2 -3 4 117.39 6.6
1 3 -4 281.17 10.6
-1 -3 4 283.37 10.7
0 3 -4 48.3 4.9
0 -3 4 51.09 6
-1 3 -4 89.59 6
1 -3 4 69.69 7.1
-2 3 -4 203.58 9
2 -3 4 193.98 10
-3 3 -4 272.07 11.3
3 -3 4 274.27 12.3
-4 3 -4 369.56 14.7
4 -3 4 384.46 15.4
-5 3 -4 12.4 5.4
5 -3 4 5.7 5.2
-6 3 -4 173.08 12.4
6 -3 4 173.58 12.2
-7 3 -4 85.89 10.9
7 -3 4 100.79 11.6
-8 3 -4 58.39 10.7
-9 3 -4 6.5 8.7
-9 -2 4 6.8 9.3
8 2 -4 9.8 6.2
-8 -2 4 10 8.2
7 2 -4 108.69 10.7
-7 -2 4 125.89 13.3
6 2 -4 67.59 8.1
-6 -2 4 90.09 10.3
5 2 -4 47.5 6.6
-5 -2 4 51.39 7.4
4 2 -4 301.87 12
-4 -2 4 283.27 12.6
3 2 -4 49.6 5.5
-3 -2 4 48.4 5.7
2 2 -4 213.38 9.2
2 2 -4 214.58 8.2
-2 -2 4 191.58 7.7
1 2 -4 1259.77 30.2
1 2 -4 1288.37 27.9
-1 -2 4 1309.37 31.5
0 2 -4 4.5 2.5
0 -2 4 8.3 3.3
-1 2 -4 960 23.4
1 -2 4 963.6 25.6
-2 2 -4 128.79 6.9
2 -2 4 122.59 8.1
-3 2 -4 119.89 7.5
3 -2 4 116.89 8.1
-4 2 -4 391.06 14.5
4 -2 4 386.86 14.8
-5 2 -4 238.18 12.4
5 -2 4 235.38 12.7
-6 2 -4 273.57 14.3
6 -2 4 242.18 13.4
6 -2 4 239.08 10.7
-7 2 -4 5.6 6.4
7 -2 4 14.8 4.9
7 -2 4 15 7.1
-8 2 -4 -9.8 6.1
8 -2 4 4.4 4.8
-9 2 -4 34.5 10.4
9 -2 4 31.5 6.8
9 1 -4 12.6 7.1
-9 -1 4 -1.1 9.2
8 1 -4 210.48 14.2
-8 -1 4 211.68 17.2
7 1 -4 174.88 11.8
-7 -1 4 149.88 13.6
6 1 -4 55.19 7.3
-6 -1 4 50.99 8.3
5 1 -4 272.97 12.4
-5 -1 4 260.97 13.1
4 1 -4 470.45 15.3
-4 -1 4 479.95 16.3
3 1 -4 -1.5 3.1
-3 -1 4 0.2 3.1
2 1 -4 548.05 14.7
-2 -1 4 540.95 14.6
1 1 -4 677.13 16.2
1 1 -4 669.63 16.9
-1 -1 4 675.83 17.8
0 1 -4 764.52 17.1
0 1 -4 764.62 18.2
0 -1 4 759.12 20.1
-1 1 -4 191.08 7.1
1 -1 4 189.68 8.7
-2 1 -4 87.59 5.7
2 -1 4 89.79 7.3
-3 1 -4 302.67 11.1
3 -1 4 296.87 9.6
3 -1 4 330.77 12.5
-4 1 -4 183.08 9.7
4 -1 4 190.28 10.2
4 -1 4 196.38 8.1
-5 1 -4 168.68 11.1
5 -1 4 160.68 8.5
5 -1 4 158.98 10.6
-6 1 -4 116.09 11.5
6 -1 4 87.19 7.9
6 -1 4 93.89 9.7
-7 1 -4 40 9.2
7 -1 4 39.4 9.1
7 -1 4 42.9 6.6
-8 1 -4 83.09 12.1
8 -1 4 84.79 9.4
-9 1 -4 -12.4 7.9
9 -1 4 2.7 5.1
9 0 -4 61.99 10.2
-9 0 4 61.39 12.3
8 0 -4 169.58 12.7
-8 0 4 148.39 15.3
7 0 -4 7.9 5.7
-7 0 4 8.3 6.8
6 0 -4 132.49 10.2
-6 0 4 147.49 12
5 0 -4 165.68 9.8
-5 0 4 156.48 10.7
4 0 -4 326.67 12.4
-4 0 4 315.37 12.7
3 0 -4 149.39 7.9
-3 0 4 155.28 7.7
2 0 -4 134.49 7
-2 0 4 128.69 6.5
-2 0 4 120.29 6.1
1 0 -4 276.67 9.4
-1 0 4 280.37 10
0 0 -4 253.27 7.1
0 0 -4 267.27 8.4
0 0 4 277.67 10
-1 0 -4 370.86 9.7
-1 0 -4 361.46 10.7
1 0 4 390.56 12.9
-2 0 -4 229.28 7.9
2 0 4 227.08 10.1
2 0 4 217.68 8.5
-3 0 -4 82.39 6.3
3 0 4 90.09 7.6
3 0 4 76.89 5.9
-4 0 -4 50.29 6.3
4 0 4 47.6 6.5
4 0 4 42.6 5.2
-5 0 -4 54.99 7.8
5 0 4 70.49 7.9
5 0 4 62.29 6.6
-6 0 -4 116.49 11.7
6 0 4 141.59 9.7
6 0 4 136.59 10.3
-7 0 -4 105.19 12.2
7 0 4 100.69 9.7
-8 0 -4 45.8 10.6
8 0 4 62.39 8.9
-9 0 -4 -0.7 9.2
9 0 4 4.7 6.1
9 -1 -4 38.5 8.6
-9 1 4 47.3 12.3
8 -1 -4 33.6 7.8
-8 1 4 6.2 7.6
7 -1 -4 85.39 9.4
-7 1 4 87.09 11.1
6 -1 -4 90.99 9.1
-6 1 4 103.69 10.8
5 -1 -4 56.19 6.9
-5 1 4 50.69 7.2
4 -1 -4 96.69 7.7
-4 1 4 104.89 7.8
3 -1 -4 1292.57 31.4
-3 1 4 1357.16 31.8
-3 1 4 1385.16 33.6
2 -1 -4 204.68 9.1
-2 1 4 208.98 9.1
-2 1 4 210.28 7.7
1 -1 -4 327.47 10.7
-1 1 4 338.47 8.7
-1 1 4 344.87 12.1
0 -1 -4 21.8 3.4
0 1 4 36.9 4.8
-1 -1 -4 132.79 6.8
1 1 4 127.49 7.7
-2 -1 -4 221.18 7.5
2 1 4 223.98 10.3
2 1 4 225.48 9.3
-3 -1 -4 208.78 8.7
3 1 4 205.98 9.2
3 1 4 213.08 10.4
-4 -1 -4 97.29 7.8
4 1 4 94.09 7.6
4 1 4 89.79 8
-5 -1 -4 438.36 16.9
5 1 4 458.15 16.7
5 1 4 460.45 16.4
-6 -1 -4 26.1 7.5
6 1 4 43.4 6.8
6 1 4 28.4 6
-7 -1 -4 36.6 9
7 1 4 41.8 7.6
-8 -1 -4 160.58 16.5
8 1 4 199.78 14.2
9 -2 -4 30.5 8.3
-9 2 4 28.2 10.4
8 -2 -4 28.8 7.6
-8 2 4 13.3 7.9
7 -2 -4 30.7 6.9
-7 2 4 31.6 8.3
6 -2 -4 -1.2 4.8
-6 2 4 6.8 5.9
5 -2 -4 101.69 9
-5 2 4 75.39 8.3
-5 2 4 73.29 6.7
4 -2 -4 840.62 23.3
-4 2 4 847.42 24.3
-4 2 4 853.81 23.7
3 -2 -4 263.17 11.1
-3 2 4 250.87 10.9
-3 2 4 251.77 9.9
2 -2 -4 61.49 6.5
-2 2 4 67.49 4.5
-2 2 4 63.09 6.4
1 -2 -4 -0.8 3.2
-1 2 4 2.6 3.4
0 -2 -4 44.2 4.9
0 2 4 43.4 5.7
-1 -2 -4 277.97 10.6
1 2 4 302.47 12.3
-2 -2 -4 66.39 4.5
2 2 4 63.69 6.6
-3 -2 -4 253.67 9.8
3 2 4 261.37 12
3 2 4 269.57 11.4
-4 -2 -4 30.2 5.5
4 2 4 21.5 5.1
4 2 4 25 5.1
-5 -2 -4 214.08 12.3
5 2 4 230.38 12.6
5 2 4 229.68 12.2
-6 -2 -4 66.89 9.6
6 2 4 56.89 7.3
6 2 4 81.79 9.5
-7 -2 -4 57.39 10.3
7 2 4 66.09 9.7
-8 -2 -4 1.7 8.9
8 2 4 31 8.6
8 -3 -4 18.3 7.1
-8 3 4 7.7 7.8
7 -3 -4 16.4 6.2
-7 3 4 9.2 6.8
6 -3 -4 38.4 7.1
-6 3 4 37.6 6.5
-6 3 4 37.6 7.5
5 -3 -4 23.8 5.9
-5 3 4 27.7 5.6
-5 3 4 20.3 5.8
4 -3 -4 135.49 9.7
-4 3 4 124.29 9.1
-4 3 4 117.09 8.4
3 -3 -4 58.59 6.7
-3 3 4 64.39 7.4
-3 3 4 66.49 5.4
2 -3 -4 45.8 5.5
-2 3 4 42.5 6.2
-2 3 4 39.8 3.7
1 -3 -4 47.8 5.5
-1 3 4 40 5.8
0 -3 -4 146.99 8.1
0 3 4 152.48 9.5
1 3 4 23.4 5.1
-2 -3 -4 36.7 5.6
2 3 4 47.5 6.7
-3 -3 -4 44.6 5.4
3 3 4 34.1 6.2
3 3 4 36.3 6.3
-4 -3 -4 289.07 12.6
4 3 4 305.67 14.3
4 3 4 300.77 14.1
-5 -3 -4 118.69 10.2
5 3 4 107.79 9.6
5 3 4 110.19 10.6
-6 -3 -4 24.4 7.4
6 3 4 29.3 7.3
-7 -3 -4 0.2 7.8
7 3 4 12.9 6.9
-8 -3 -4 61.69 12
8 -4 -4 -2.3 5.9
-8 4 4 -0.5 6.4
7 -4 -4 34.8 7.8
-7 4 4 42 8.2
6 -4 -4 22.3 6.5
-6 4 4 25.7 6.7
-6 4 4 16.3 5.7
5 -4 -4 24.4 6.3
-5 4 4 25.6 6.2
-5 4 4 23.2 5.4
4 -4 -4 56.29 7.4
-4 4 4 56.39 8.3
-4 4 4 47.8 6.1
3 -4 -4 84.99 8.8
-3 4 4 76.89 5.9
-3 4 4 85.99 9
2 -4 -4 878.31 24.4
-2 4 4 916.11 21.9
-2 4 4 877.41 28.5
1 -4 -4 148.19 9.2
-1 4 4 141.59 10.3
0 -4 -4 42.7 5.8
0 4 4 53.49 7.4
-1 -4 -4 41.8 5.9
1 4 4 35 6.2
-2 -4 -4 239.98 12.1
2 4 4 231.88 13.2
-3 -4 -4 46.3 5.7
3 4 4 42.7 7.4
-4 -4 -4 22.5 5.5
4 4 4 19.3 6.4
4 4 4 17.1 5.6
-5 -4 -4 99.29 10.8
5 4 4 87.39 10.4
5 4 4 63.39 8.6
6 4 4 128.49 13.4
7 4 4 2.6 7.2
7 -5 -4 12.2 6.8
-7 5 4 8.9 6.4
6 -5 -4 31.9 7.4
-6 5 4 20.8 6.5
-6 5 4 35.3 8.4
5 -5 -4 18.5 6.6
-5 5 4 16.1 5.2
-5 5 4 20.6 6.9
4 -5 -4 11.7 6
-4 5 4 7.6 3.9
-4 5 4 10.1 5.6
3 -5 -4 170.18 11.4
-3 5 4 174.78 12.6
-3 5 4 175.28 8.5
2 -5 -4 227.38 12.1
-2 5 4 225.68 8.8
-2 5 4 240.08 14.5
1 -5 -4 88.79 8.8
-1 5 4 61.79 8.4
0 -5 -4 48.3 6.6
0 5 4 31.8 6.5
-1 -5 -4 180.08 10.8
1 5 4 164.08 12.1
-2 -5 -4 56.99 7.4
2 5 4 45.7 7.9
-3 -5 -4 6.7 5
3 5 4 10.2 5.3
4 5 4 24 6.8
5 5 4 78.99 10.4
5 5 4 68.69 10.8
6 5 4 23.9 10
7 -6 -4 24.2 7.7
-7 6 4 -1.4 5.2
6 -6 -4 -5.1 5.9
-6 6 4 5.9 7.7
-6 6 4 -5.6 4.1
5 -6 -4 55.29 8.4
-5 6 4 50.19 7.4
-5 6 4 76.09 11.6
4 -6 -4 71.99 9.2
-4 6 4 75.29 11.1
3 -6 -4 223.88 13.3
-3 6 4 198.68 15.1
2 -6 -4 157.98 11.6
-2 6 4 199.28 14.2
1 -6 -4 6.3 5.1
-1 6 4 0.2 4.2
0 -6 -4 52.59 7.1
0 6 4 38 7.7
-1 -6 -4 115.99 10
1 6 4 118.19 12
-2 -6 -4 106.69 9.9
2 6 4 84.99 11.5
-3 -6 -4 20.6 5.8
3 6 4 16.1 7
-4 -6 -4 52.79 9.1
4 6 4 54.89 9.8
-5 -6 -4 32.4 8.1
5 6 4 21.8 8.2
5 -7 -4 8 7.2
-5 7 4 8.1 7.5
4 -7 -4 12.8 7.1
-4 7 4 26 8.9
3 -7 -4 35 7.7
-3 7 4 37.2 9.5
2 -7 -4 15.4 6.1
-2 7 4 -0.7 5.9
1 -7 -4 20.3 6.4
-1 7 4 5.9 5.8
0 -7 -4 25.3 6.3
0 7 4 13 6.7
-1 -7 -4 40.6 7.4
1 7 4 52.59 10.3
-2 -7 -4 157.78 12.4
2 7 4 201.68 16
-3 -7 -4 4.2 5.4
3 7 4 8.9 5.9
4 7 4 10.5 7.5
-3 8 4 22 9.1
2 -8 -4 37.3 8.4
-2 8 4 35.2 9.7
1 -8 -4 33.3 7.5
-1 8 4 36.3 9.8
0 -8 -4 29.1 7.4
0 8 4 31.4 9.3
-1 -8 -4 71.59 9.7
1 8 4 62.59 12.4
2 9 -5 55.49 10.2
-2 -9 5 87.59 9.9
1 9 -5 89.49 11.5
-1 -9 5 101.89 11.1
0 9 -5 68.09 10.3
0 -9 5 73.69 10.7
-1 9 -5 25.5 6.9
1 -9 5 36.1 8.9
-2 9 -5 1.8 4.7
2 -9 5 21.4 7.3
-3 9 -5 23.9 7.1
3 -9 5 50.39 10.1
-4 9 -5 35.1 8.1
4 -9 5 55.69 10.4
-4 -8 5 11.5 6.8
3 8 -5 37.3 8.8
-3 -8 5 65.79 7.7
2 8 -5 212.68 14.4
-2 -8 5 226.58 13.6
1 8 -5 45.6 8.7
-1 -8 5 35.3 7.2
0 8 -5 67.79 9.4
0 -8 5 60.89 9.1
-1 8 -5 169.78 12
1 -8 5 184.28 13.5
-2 8 -5 129.89 10.7
2 -8 5 139.29 12.6
-3 8 -5 147.69 11.7
3 -8 5 140.39 13.3
-4 8 -5 4.3 5.2
4 -8 5 7.1 6.4
-5 8 -5 12.8 6.2
5 -8 5 29.6 8.6
-6 8 -5 57.69 10.5
6 -8 5 66.79 11
5 7 -5 35.2 7.6
-5 -7 5 35.5 8.5
4 7 -5 9.8 5.2
3 7 -5 81.79 11
-3 -7 5 81.39 8
2 7 -5 103.99 10.1
-2 -7 5 86.69 8.9
1 7 -5 46.9 8.1
-1 -7 5 51.39 8
0 7 -5 311.17 15.1
0 -7 5 294.47 15.4
-1 7 -5 167.18 11.2
1 -7 5 198.68 13
-2 7 -5 95.79 8.8
2 -7 5 92.99 10.6
-3 7 -5 50.59 7.7
3 -7 5 57.79 9.5
-4 7 -5 139.49 11.4
4 -7 5 156.28 13.4
-5 7 -5 27.2 7.1
5 -7 5 33 8.3
-6 7 -5 38.5 8.6
6 -7 5 37 8.9
-7 7 -5 19.7 7.8
7 -7 5 40.2 9.7
6 6 -5 -0.3 5.9
-6 -6 5 3.8 6.1
5 6 -5 20.4 6.3
-5 -6 5 38.2 7.7
4 6 -5 124.79 10.2
3 6 -5 27.9 5.4
3 6 -5 27.2 6.5
-3 -6 5 27.6 5
2 6 -5 58.59 8.3
-2 -6 5 52.79 7.2
1 6 -5 65.49 8.4
-1 -6 5 71.09 8.3
0 6 -5 191.18 11.1
0 -6 5 177.88 11.5
-1 6 -5 127.69 9.1
1 -6 5 124.89 10.5
-2 6 -5 133.69 9.5
2 -6 5 106.69 10.4
-3 6 -5 24.5 5.7
3 -6 5 33.8 7.4
-4 6 -5 109.29 9.7
4 -6 5 119.09 12.4
-5 6 -5 65.19 9.1
5 -6 5 75.89 10.3
-6 6 -5 -2.7 5
6 -6 5 5.1 7
-7 6 -5 6.8 6.8
7 -6 5 31.5 9.1
7 5 -5 8.8 7.1
-7 -5 5 0.7 6.7
6 5 -5 8.9 6.3
-6 -5 5 12.7 6.6
5 5 -5 64.59 8.5
-5 -5 5 67.59 9.3
4 5 -5 199.98 11.4
-4 -5 5 181.78 12.1
3 5 -5 79.39 7.8
3 5 -5 53.79 7.8
-3 -5 5 82.39 7.1
2 5 -5 14.6 4.8
-2 -5 5 18.5 4.6
1 5 -5 181.68 10.3
-1 -5 5 175.88 10.2
0 5 -5 76.59 7.1
0 -5 5 74.99 7.8
-1 5 -5 17.8 4.6
1 -5 5 15.2 5.1
-2 5 -5 112.79 8.2
2 -5 5 108.79 9.8
-3 5 -5 299.57 13.5
3 -5 5 310.47 15.2
-4 5 -5 30.9 6.2
4 -5 5 21.9 6.1
-5 5 -5 17.1 5.7
5 -5 5 32.4 7.8
-6 5 -5 10.3 6
6 -5 5 18.6 7.6
-7 5 -5 1.2 5.7
7 -5 5 18.4 8
-8 5 -5 -3.1 6.5
8 -5 5 4 8.4
8 4 -5 49.7 10.2
-8 -4 5 40.3 10.9
7 4 -5 186.98 14.2
-7 -4 5 173.78 15
6 4 -5 179.48 12.8
-6 -4 5 174.18 13.6
5 4 -5 106.69 9.7
-5 -4 5 100.19 10.2
4 4 -5 63.99 7.4
-4 -4 5 78.59 8.3
3 4 -5 152.68 8.9
3 4 -5 163.88 10.6
2 4 -5 340.17 13.7
2 4 -5 334.67 11.3
-2 -4 5 326.87 12.5
1 4 -5 914.11 25.7
-1 -4 5 966.5 26.8
0 4 -5 250.47 10.9
0 -4 5 234.58 11.5
-1 4 -5 181.68 9.3
1 -4 5 175.58 10.2
-2 4 -5 102.89 7.3
2 -4 5 113.29 8.8
-3 4 -5 252.27 11.6
3 -4 5 247.18 12.7
-4 4 -5 243.38 12.1
4 -4 5 219.38 13.4
-5 4 -5 88.59 9.2
5 -4 5 104.79 11
-6 4 -5 9.6 6
6 -4 5 23.8 7.2
-7 4 -5 23.9 7.8
7 -4 5 31.4 8.4
-8 4 -5 98.99 13.4
8 3 -5 78.79 10.8
-8 -3 5 78.69 12.7
7 3 -5 32.6 7.8
-7 -3 5 28.4 8.2
6 3 -5 100.99 10.3
-6 -3 5 112.69 11.4
5 3 -5 -0.2 4.4
-5 -3 5 5.2 4.8
4 3 -5 177.38 9.9
-4 -3 5 156.98 10.2
3 3 -5 487.65 17
3 3 -5 467.45 15.1
2 3 -5 412.46 13.1
2 3 -5 439.66 15
-2 -3 5 444.16 13.9
1 3 -5 48.7 5.2
-1 -3 5 34.1 5.2
0 3 -5 168.28 8.2
0 -3 5 165.48 9.3
-1 3 -5 123.79 7.3
1 -3 5 126.99 8.8
-2 3 -5 288.47 11.3
2 -3 5 303.07 13
-3 3 -5 56.89 6
3 -3 5 49.3 6.5
-4 3 -5 343.37 14.1
4 -3 5 348.67 15.3
-5 3 -5 70.49 8.5
5 -3 5 85.99 9.7
-6 3 -5 38.8 8
6 -3 5 39.7 8.4
-7 3 -5 -7.3 5.6
-8 3 -5 -3 6.8
8 2 -5 52.49 9.3
-8 -2 5 58.69 11.6
7 2 -5 302.57 15.8
-7 -2 5 294.07 17.6
6 2 -5 1.6 4.5
-6 -2 5 9 5.7
5 2 -5 0.1 4.3
-5 -2 5 5.4 4.8
4 2 -5 238.08 11.1
-4 -2 5 229.78 11.6
3 2 -5 107.49 7.1
-3 -2 5 108.49 7.5
2 2 -5 54.89 5.5
2 2 -5 56.99 5.9
-2 -2 5 63.89 5.9
1 2 -5 323.67 9.7
1 2 -5 309.57 11.1
-1 -2 5 320.37 11.7
0 2 -5 221.88 8.8
0 -2 5 240.38 10.2
-1 2 -5 310.77 10.6
1 -2 5 306.37 12.2
-2 2 -5 353.86 11.8
2 -2 5 339.17 13.5
-3 2 -5 409.46 13.7
3 -2 5 398.86 15.3
-4 2 -5 1.7 4
4 -2 5 9.1 5
-5 2 -5 135.29 10.1
5 -2 5 130.89 11.5
-6 2 -5 64.79 9.1
6 -2 5 74.89 9.7
-7 2 -5 14.5 7.2
7 -2 5 7.1 7.4
7 -2 5 21.5 5.1
-8 2 -5 70.29 11.6
8 -2 5 65.49 7.9
-9 2 -5 -0.9 8.4
9 1 -5 9.2 7.5
-9 -1 5 25.6 10.7
8 1 -5 39.1 8.1
-8 -1 5 36.3 10
7 1 -5 248.38 14.2
-7 -1 5 238.58 16
6 1 -5 93.09 9.6
-6 -1 5 93.79 10.7
5 1 -5 169.18 10.5
-5 -1 5 190.68 11.4
4 1 -5 9.7 4.1
-4 -1 5 11.2 4.3
3 1 -5 211.78 9.6
-3 -1 5 227.18 9.9
2 1 -5 100.39 6.7
-2 -1 5 101.79 6.5
1 1 -5 42.8 4.3
1 1 -5 39.1 4.2
-1 -1 5 49.5 5.2
0 1 -5 346.37 9.9
0 1 -5 342.87 10.2
0 -1 5 339.27 12.3
-1 1 -5 1484.95 32.7
-1 1 -5 1617.54 34.5
1 -1 5 1564.74 38.7
-2 1 -5 315.27 10.5
-2 1 -5 314.97 9.9
2 -1 5 315.17 12.9
-3 1 -5 169.08 8.5
3 -1 5 182.58 7.6
3 -1 5 184.58 10.4
-4 1 -5 558.64 17.9
4 -1 5 585.54 19.7
4 -1 5 564.64 16
-5 1 -5 56.89 7.3
5 -1 5 48.9 5.9
5 -1 5 62.29 9
-6 1 -5 170.88 12
6 -1 5 154.08 12.2
6 -1 5 162.08 9.7
-7 1 -5 48.6 9.1
7 -1 5 36.4 7.8
7 -1 5 46.5 6.8
-8 1 -5 124.49 13.6
8 -1 5 144.79 11.2
-9 1 -5 -6.5 8.3
9 0 -5 21.2 8.3
-9 0 5 30.1 10.7
8 0 -5 74.39 9.9
-8 0 5 58.79 11.1
7 0 -5 40 7.8
-7 0 5 29.7 8.1
6 0 -5 69.29 8.1
-6 0 5 71.49 9.1
5 0 -5 42.5 6.7
-5 0 5 49.4 7.5
4 0 -5 100.89 8.2
-4 0 5 96.89 7.7
3 0 -5 104.69 7.5
-3 0 5 107.89 6.3
-3 0 5 107.99 6.7
2 0 -5 372.16 12.3
-2 0 5 368.36 11.4
-2 0 5 376.46 12.7
1 0 -5 9.1 3.5
-1 0 5 12.4 3.8
0 0 -5 1671.33 35
0 0 -5 1651.73 35.9
0 0 5 1652.83 40.6
-1 0 -5 220.38 6.8
-1 0 -5 218.18 8.4
1 0 5 213.58 10.3
-2 0 -5 17 3.5
-2 0 -5 15.8 3
2 0 5 17.5 4.7
-3 0 -5 357.66 11.9
3 0 5 367.06 12.2
3 0 5 377.56 14.6
-4 0 -5 14.3 4.5
4 0 5 22.9 5.9
4 0 5 14.5 4.1
-5 0 -5 273.27 13.4
5 0 5 263.97 13.6
5 0 5 237.58 11.5
-6 0 -5 29.3 7.6
6 0 5 41 6.4
6 0 5 29 7
-7 0 -5 169.28 14.4
7 0 5 165.88 11.8
-8 0 -5 14.5 9.1
8 0 5 28.4 7.4
9 -1 -5 34.6 9
-9 1 5 34 11
8 -1 -5 51.39 9.2
-8 1 5 60.29 10.9
7 -1 -5 60.79 8.5
-7 1 5 55.69 9.6
6 -1 -5 159.48 11.3
-6 1 5 160.18 12
5 -1 -5 228.48 12.4
-5 1 5 216.48 12
4 -1 -5 386.16 14.5
-4 1 5 374.36 14.1
-4 1 5 390.86 13.2
3 -1 -5 97.79 7.8
-3 1 5 104.79 6.9
-3 1 5 101.29 6.6
2 -1 -5 137.89 7.9
-2 1 5 147.99 8.3
-2 1 5 145.39 6.3
1 -1 -5 77.69 6.6
-1 1 5 83.09 7
0 -1 -5 15.3 3.7
0 1 5 13.7 4.3
-1 -1 -5 123.69 7.2
1 1 5 132.89 8.4
-2 -1 -5 59.69 4.2
-2 -1 -5 47.8 5.3
2 1 5 48.2 6.2
-3 -1 -5 171.78 8
3 1 5 172.78 9.4
3 1 5 179.28 10.5
-4 -1 -5 160.88 9.4
4 1 5 156.28 9.5
4 1 5 175.28 11
-5 -1 -5 16.1 6.1
5 1 5 21.4 5.8
5 1 5 23.2 5.5
-6 -1 -5 41 8.1
6 1 5 31 6.8
6 1 5 32.3 6.7
-7 -1 -5 6.1 7.8
7 1 5 19.6 6.2
-8 -1 -5 6.5 9
8 1 5 21.6 7.9
8 -2 -5 3.9 6.3
-8 2 5 12.9 7.8
7 -2 -5 68.29 9.1
-7 2 5 48.5 9.2
6 -2 -5 36.4 7.2
-6 2 5 48.5 8.3
5 -2 -5 189.78 11.5
-5 2 5 170.88 11.1
-5 2 5 183.38 9.8
4 -2 -5 356.86 14.5
-4 2 5 354.06 13.6
-4 2 5 363.06 14.2
3 -2 -5 192.38 10.3
-3 2 5 171.38 9.8
-3 2 5 184.68 8.5
2 -2 -5 158.68 8.9
-2 2 5 168.08 9.5
-2 2 5 153.08 6.3
1 -2 -5 55.69 5.9
-1 2 5 47.9 6.4
0 -2 -5 69.39 6.2
0 2 5 63.69 6.9
-1 -2 -5 393.86 13.5
1 2 5 406.46 15.5
-2 -2 -5 327.37 12.7
2 2 5 325.97 14
-3 -2 -5 318.87 10.7
3 2 5 324.17 14.3
-4 -2 -5 8.4 4.8
4 2 5 0 4.2
4 2 5 2.7 4.4
-5 -2 -5 108.39 9.8
5 2 5 106.09 10.2
5 2 5 97.89 9.7
-6 -2 -5 48.6 8.6
6 2 5 36 7.2
6 2 5 41.8 8
-7 -2 -5 31.7 9.2
7 2 5 51.09 9.2
-8 -2 -5 4.9 9.4
8 2 5 24.4 8.7
8 -3 -5 0.6 6.6
-8 3 5 0.9 7.2
7 -3 -5 103.69 10.9
-7 3 5 55.39 9.3
6 -3 -5 13.7 5.9
-6 3 5 24.4 5.7
-6 3 5 14.7 6
5 -3 -5 123.89 10.8
-5 3 5 119.29 9.8
-5 3 5 114.69 9.6
4 -3 -5 180.98 11.7
-4 3 5 191.58 10.2
-4 3 5 191.48 11.5
3 -3 -5 48.7 6.9
-3 3 5 44.4 4.9
-3 3 5 44.8 6.9
2 -3 -5 1.7 4
-2 3 5 1.1 3.7
-2 3 5 3.7 2
1 -3 -5 369.16 13.9
-1 3 5 375.66 15.7
0 -3 -5 103.49 7.5
0 3 5 112.69 9
-1 -3 -5 125.09 8.4
1 3 5 111.39 9.1
-2 -3 -5 16.4 4.7
2 3 5 21.8 5.7
-3 -3 -5 2.7 3.9
3 3 5 9.5 4.8
-4 -3 -5 209.08 10.6
4 3 5 212.88 12.9
4 3 5 196.38 12.8
-5 -3 -5 86.79 9.3
5 3 5 93.09 10
5 3 5 103.79 10.8
-6 -3 -5 -1.7 7.6
6 3 5 6.5 6.9
7 3 5 49.3 10.2
8 -4 -5 5.8 6.8
-8 4 5 3.6 6.5
7 -4 -5 32.1 8.3
-7 4 5 22.6 7.2
6 -4 -5 75.49 9.4
-6 4 5 90.29 10.3
-6 4 5 63.99 8.5
5 -4 -5 31.2 7.1
-5 4 5 39.3 7.3
-5 4 5 20.6 5.6
4 -4 -5 29.2 6.7
-4 4 5 24.9 6.3
-4 4 5 23.6 4.7
3 -4 -5 9.3 5.3
-3 4 5 2.8 2.7
-3 4 5 1.4 4.1
2 -4 -5 60.19 7.6
-2 4 5 44.6 7.5
1 -4 -5 42 6.5
-1 4 5 39.7 7.2
0 -4 -5 89.79 8.2
0 4 5 92.59 9.2
-1 -4 -5 24.2 5.5
1 4 5 20.8 5.7
-2 -4 -5 7.9 4.6
2 4 5 8.7 4.8
-3 -4 -5 39.9 7
3 4 5 47.2 7.9
4 4 5 131.19 11.5
5 4 5 16 7.7
5 4 5 12.2 6.3
6 4 5 16.2 8.1
7 -5 -5 18.1 7.8
-7 5 5 23.8 7.4
6 -5 -5 2.9 6.7
-6 5 5 10.9 6.7
-6 5 5 -0.6 4.7
5 -5 -5 9.4 6.7
-5 5 5 6.5 4.5
-5 5 5 23.9 7.4
4 -5 -5 51.69 8.3
-4 5 5 49.3 6.6
-4 5 5 44 8.6
3 -5 -5 97.39 9.9
-3 5 5 90.89 10.6
2 -5 -5 233.38 12.8
-2 5 5 209.38 14.4
1 -5 -5 1.7 4.9
-1 5 5 13.4 5.6
0 -5 -5 30.1 6.1
0 5 5 38.2 7.5
-1 -5 -5 15.1 5.3
1 5 5 8.5 6.6
-2 -5 -5 42.5 7
2 5 5 31.9 7.5
-3 -5 -5 37.3 7.4
3 5 5 38.7 8.3
-4 -5 -5 53.19 8.7
4 5 5 44.4 9
-5 -5 -5 99.59 11.9
5 5 5 74.39 10.5
6 -6 -5 0.1 6.8
-6 6 5 -2.2 6.8
5 -6 -5 10.6 7.3
-5 6 5 8.9 6.9
4 -6 -5 46.9 8.7
-4 6 5 62.09 10.7
3 -6 -5 197.88 13.7
-3 6 5 212.58 15.8
2 -6 -5 33.6 7.4
-2 6 5 32.7 8
1 -6 -5 17.2 5.9
-1 6 5 11.5 6.1
0 -6 -5 15.2 5.5
0 6 5 1.8 4.7
-1 -6 -5 49.5 7.8
1 6 5 36.7 8.2
-2 -6 -5 207.58 13.2
2 6 5 219.98 16.1
-3 -6 -5 14.8 5.8
3 6 5 19.6 6.9
-4 -6 -5 29.6 7.4
4 6 5 16.2 7.6
5 6 5 20.8 9.1
-5 7 5 17.4 9.1
4 -7 -5 42 9.1
-4 7 5 60.59 11.9
3 -7 -5 22.4 7.8
-3 7 5 17.4 8.3
2 -7 -5 22 7.2
-2 7 5 27.1 8.5
1 -7 -5 12.2 6.4
-1 7 5 6 6.2
0 -7 -5 105.39 11.4
0 7 5 106.69 13.9
-1 -7 -5 279.67 15.2
1 7 5 289.97 19.3
-2 -7 -5 36.9 8.2
2 7 5 42 10.3
-3 -7 -5 21.6 6.7
3 7 5 12.4 7.3
-1 8 5 23.3 9.1
2 9 -6 21.8 7.9
-2 -9 6 32.1 6.9
1 9 -6 49.6 9.5
-1 -9 6 34.4 7.8
0 9 -6 60.49 10
0 -9 6 96.59 12.4
-1 9 -6 3.5 5.2
1 -9 6 9.8 5.8
-2 9 -6 29.6 7.5
2 -9 6 36.9 9.2
-3 9 -6 9.6 5.8
3 -9 6 17.9 7.6
-4 9 -6 -1.6 4.7
4 -9 6 25.4 9.2
3 8 -6 21.9 7.8
-3 -8 6 27.2 6.9
2 8 -6 48 9.4
-2 -8 6 66.39 9.1
1 8 -6 213.28 14.5
-1 -8 6 203.78 13.7
0 8 -6 57.39 8.8
0 -8 6 87.09 11.1
-1 8 -6 85.89 10.3
1 -8 6 93.79 11.8
-2 8 -6 14.3 5.6
2 -8 6 20.9 7.1
-3 8 -6 157.28 12.3
3 -8 6 191.28 15.4
-4 8 -6 24.8 7.3
4 -8 6 34.2 8.9
-5 8 -6 59.99 10.1
5 -8 6 64.19 11.7
5 7 -6 42.4 8.2
-5 -7 6 67.79 10.7
4 7 -6 1.3 5.1
3 7 -6 71.49 10.5
-3 -7 6 74.09 8.1
2 7 -6 159.88 12.2
-2 -7 6 140.59 10.8
1 7 -6 9.7 5.2
-1 -7 6 13.5 5.5
0 7 -6 16.1 5.9
0 -7 6 19.8 6
-1 7 -6 86.39 8.9
1 -7 6 97.99 10.7
-2 7 -6 184.48 11.7
2 -7 6 170.88 13.3
-3 7 -6 57.39 8.8
3 -7 6 62.39 10.1
-4 7 -6 6.3 4.7
4 -7 6 11.9 6.6
-5 7 -6 65.09 9.8
5 -7 6 83.69 11.3
6 -7 6 271.07 18.3
6 6 -6 -0.7 6.2
-6 -6 6 6.2 6.6
5 6 -6 46.7 8.1
-5 -6 6 40.6 8.6
4 6 -6 7.5 4.9
3 6 -6 115.79 10.8
-3 -6 6 116.19 8.7
2 6 -6 119.69 10.2
-2 -6 6 113.39 9.6
1 6 -6 139.89 10.4
-1 -6 6 132.49 10.6
0 6 -6 35.3 6.4
0 -6 6 43 7.7
-1 6 -6 71.79 8.7
1 -6 6 72.89 9.2
-2 6 -6 274.47 13.6
2 -6 6 261.37 15
-3 6 -6 55.59 8
3 -6 6 55.79 8.8
-4 6 -6 20.6 5.7
4 -6 6 29.3 7.1
-5 6 -6 64.59 9.4
5 -6 6 72.89 10.4
-6 6 -6 56.09 9.6
6 -6 6 48.4 10.1
-7 6 -6 17.3 7.8
7 -6 6 26 8.8
7 5 -6 24.2 7.9
-7 -5 6 46.7 10.4
6 5 -6 75.49 9.9
-6 -5 6 77.39 11.2
5 5 -6 152.18 11.7
-5 -5 6 149.39 12.5
4 5 -6 49.1 6.8
3 5 -6 56.39 8.3
3 5 -6 70.49 7.4
-3 -5 6 70.39 7.5
2 5 -6 324.07 14.8
-2 -5 6 306.57 13.6
1 5 -6 0.3 3.5
-1 -5 6 0.8 3.9
0 5 -6 559.34 19.4
0 -5 6 586.94 20.7
-1 5 -6 509.75 17.7
1 -5 6 504.45 19.4
-2 5 -6 94.19 8.1
2 -5 6 94.29 9.4
-3 5 -6 100.79 8.3
3 -5 6 90.49 9.9
-4 5 -6 175.68 11.5
4 -5 6 176.48 13.3
-5 5 -6 30.9 7.2
5 -5 6 37.1 8.3
-6 5 -6 67.69 9.9
6 -5 6 61.29 10.2
-7 5 -6 7.7 6.9
7 -5 6 9.2 8.1
-8 5 -6 42 10.4
8 -5 6 71.79 12.4
-8 -4 6 35.1 10.6
7 4 -6 8.3 6.6
-7 -4 6 13.4 7.4
6 4 -6 40.5 7.7
-6 -4 6 35.9 8.4
5 4 -6 132.59 10.6
-5 -4 6 124.89 11.1
4 4 -6 86.69 8.7
-4 -4 6 83.39 9.3
3 4 -6 489.85 18.8
3 4 -6 499.25 16.3
-3 -4 6 495.45 16.1
2 4 -6 69.39 7.3
-2 -4 6 61.89 6.7
1 4 -6 501.65 17.2
-1 -4 6 524.45 17.8
0 4 -6 25.8 4.6
0 -4 6 25.4 5.5
-1 4 -6 1.8 3.1
1 -4 6 2.4 4.6
-2 4 -6 18.5 4.5
2 -4 6 32.1 6.5
-3 4 -6 39.3 6
3 -4 6 40.2 7.3
-4 4 -6 18.5 5.1
4 -4 6 17.7 6.5
-5 4 -6 10.2 5.2
5 -4 6 -1.6 5.8
-6 4 -6 -3.3 4.7
6 -4 6 5.4 7.1
-7 4 -6 -2.4 6.1
7 -4 6 5.6 8.2
-8 4 -6 30.2 9.2
8 -4 6 31.7 10.6
8 3 -6 73.89 10.7
-8 -3 6 70.69 12.4
7 3 -6 2.7 6
-7 -3 6 5.2 6.6
6 3 -6 1.8 5.2
-6 -3 6 -1.4 5.1
5 3 -6 108.69 9.6
-5 -3 6 104.19 10.1
4 3 -6 27.5 5.7
-4 -3 6 25.2 5.9
3 3 -6 246.48 10.8
3 3 -6 233.38 12
2 3 -6 738.43 18.9
2 3 -6 692.53 21.1
-2 -3 6 701.03 20.4
1 3 -6 448.26 14.9
-1 -3 6 437.66 15.2
0 3 -6 5.6 2.8
0 -3 6 7 4.2
-1 3 -6 178.18 8.7
1 -3 6 173.38 10.2
-2 3 -6 97.59 6.8
2 -3 6 96.39 8.4
-3 3 -6 168.38 9.4
3 -3 6 173.68 10.9
-4 3 -6 82.29 8.1
4 -3 6 89.39 10.4
-5 3 -6 70.89 8.5
5 -3 6 78.79 10.2
-6 3 -6 10.9 6
6 -3 6 6.7 7.8
-7 3 -6 77.59 11.3
7 -3 6 79.89 11
-8 3 -6 73.59 12.1
8 2 -6 58.79 10.1
-8 -2 6 59.49 11.4
7 2 -6 139.59 12
-7 -2 6 155.38 14
6 2 -6 199.18 12.7
-6 -2 6 216.78 13.9
5 2 -6 55.19 7.5
-5 -2 6 33.5 7.1
4 2 -6 254.17 11.7
-4 -2 6 255.37 12.5
3 2 -6 129.39 8.1
-3 -2 6 116.69 8.2
2 2 -6 249.28 10.5
2 2 -6 251.57 9.7
-2 -2 6 244.68 10.1
1 2 -6 131.09 6.6
1 2 -6 124.39 7.2
-1 -2 6 129.39 8.2
0 2 -6 150.98 7.4
0 -2 6 169.58 9.6
-1 2 -6 218.78 9
1 -2 6 225.88 11.2
-2 2 -6 72.69 5.8
2 -2 6 75.69 8
-3 2 -6 323.17 12.2
3 -2 6 314.87 14.4
-4 2 -6 392.36 14.8
4 -2 6 375.16 16.6
-5 2 -6 174.68 11.4
5 -2 6 156.78 12.5
-6 2 -6 32.3 7.4
6 -2 6 45.7 9.2
-7 2 -6 11.7 6.9
-8 2 -6 -6 7.1
8 1 -6 70.19 10.1
-8 -1 6 74.09 11.8
7 1 -6 115.89 11.5
-7 -1 6 124.29 12.9
6 1 -6 23.5 6.2
-6 -1 6 18.5 6.8
5 1 -6 22.4 5.5
-5 -1 6 28 6.3
4 1 -6 313.17 13
-4 -1 6 288.07 13
3 1 -6 53.09 6
-3 -1 6 43.7 5.4
2 1 -6 172.18 8.4
-2 -1 6 158.48 8.4
1 1 -6 153.38 7.7
1 1 -6 174.68 7.4
-1 -1 6 161.78 8.9
0 1 -6 40.3 4.1
0 1 -6 40.3 4
0 -1 6 36 5.8
-1 1 -6 159.38 6.8
-1 1 -6 160.08 6.9
1 -1 6 173.68 10
-2 1 -6 266.57 9.6
-2 1 -6 274.97 9.3
2 -1 6 259.47 12.4
-3 1 -6 115.49 7.1
3 -1 6 127.39 9.9
-4 1 -6 8.9 4.5
4 -1 6 5.1 3.6
4 -1 6 7.2 6
-5 1 -6 111.49 9.9
5 -1 6 112.39 8
5 -1 6 107.89 11.2
-6 1 -6 30.5 7.3
6 -1 6 20.6 7.3
6 -1 6 17.4 4.9
-7 1 -6 41.5 8.9
7 -1 6 46.7 7.1
7 -1 6 38.5 8.4
-8 1 -6 93.69 12.5
8 -1 6 121.49 11.2
-9 0 6 66.09 12.7
8 0 -6 10.5 7.4
-8 0 6 18.8 8.7
7 0 -6 33.8 7.8
-7 0 6 50.89 9.6
6 0 -6 77.19 9
-6 0 6 84.79 10
5 0 -6 9.6 5.1
-5 0 6 -2.6 4.4
4 0 -6 137.69 9.6
-4 0 6 140.39 9
3 0 -6 91.99 7.7
-3 0 6 92.19 6.8
-3 0 6 91.69 6.4
2 0 -6 24.7 4.8
-2 0 6 15.4 3.1
-2 0 6 20.8 4.4
1 0 -6 129.19 7.4
-1 0 6 121.59 8.3
0 0 -6 998.1 24.4
0 0 -6 1037.8 22.8
0 0 6 1018.1 28
-1 0 -6 754.62 17.5
-1 0 -6 727.93 18.9
1 0 6 738.73 22.5
-2 0 -6 346.07 10.3
-2 0 -6 340.67 11.6
2 0 6 331.07 14.2
-3 0 -6 185.88 8.4
3 0 6 205.38 11.7
-4 0 -6 472.95 15.6
4 0 6 451.05 15.4
4 0 6 459.15 18.4
-5 0 -6 237.98 12.1
5 0 6 241.58 11.8
5 0 6 256.57 14.4
-6 0 -6 24.4 6.7
6 0 6 28.8 6.1
6 0 6 22.5 7.4
-7 0 -6 114.59 12
7 0 6 103.49 10.5
7 0 6 93.99 11.6
-8 0 -6 84.19 11.7
8 0 6 91.99 11
8 -1 -6 40.4 8.9
-8 1 6 47.3 10.2
7 -1 -6 18.4 6.6
-7 1 6 24.8 7.6
6 -1 -6 43.6 7.7
-6 1 6 29.7 7
5 -1 -6 69.99 8.2
-5 1 6 66.59 8
4 -1 -6 69.89 7.7
-4 1 6 73.09 7.2
-4 1 6 86.49 7.2
3 -1 -6 235.08 11.3
-3 1 6 245.18 9.8
-3 1 6 256.77 11.3
2 -1 -6 70.09 6.9
-2 1 6 64.09 4.6
-2 1 6 70.99 7
1 -1 -6 7.3 3.5
0 -1 -6 142.39 7.9
0 1 6 139.39 9.3
-1 -1 -6 27.7 4.6
1 1 6 43.6 6.4
-2 -1 -6 65.69 6.4
2 1 6 45.2 6.5
-3 -1 -6 511.35 16.8
-3 -1 -6 501.55 14.5
3 1 6 538.75 19.5
-4 -1 -6 55.09 6.3
4 1 6 62.79 7.7
4 1 6 57.99 8.3
-5 -1 -6 64.19 7.7
5 1 6 57.49 7.7
5 1 6 58.19 8.6
-6 -1 -6 20 6.9
6 1 6 21 6.2
6 1 6 10.8 6.2
-7 -1 -6 23.4 8.3
7 1 6 38.1 8.1
-8 -1 -6 2.4 8.2
8 1 6 14.1 7.2
8 -2 -6 19 7.8
-8 2 6 -4.8 6.7
7 -2 -6 34.7 7.9
-7 2 6 32.6 8.6
6 -2 -6 44.7 8.3
-6 2 6 34.7 7.6
5 -2 -6 55.39 8.2
-5 2 6 57.89 7.2
-5 2 6 59.99 8
4 -2 -6 397.36 16
-4 2 6 353.06 14
-4 2 6 413.76 15.9
3 -2 -6 35.2 6.2
-3 2 6 37.1 5
-3 2 6 29.7 5.7
2 -2 -6 357.96 13.9
-2 2 6 383.16 15.5
1 -2 -6 182.48 9.6
-1 2 6 186.48 10.9
0 -2 -6 311.27 12.2
0 2 6 336.67 14.4
-1 -2 -6 125.39 8.4
1 2 6 121.79 9.3
-2 -2 -6 158.38 9.4
2 2 6 141.39 10.3
-3 -2 -6 208.98 11.3
3 2 6 215.88 12.7
-4 -2 -6 1.5 4.6
4 2 6 12.3 5.8
-5 -2 -6 -4.6 5.1
5 2 6 0 5.1
5 2 6 -3 4.5
-6 -2 -6 47.1 8.7
6 2 6 61.69 9.3
6 2 6 64.19 9.7
-7 -2 -6 -3.4 11.8
7 2 6 2.9 6.8
8 -3 -6 48.6 9.6
-8 3 6 28.6 9.3
7 -3 -6 8.4 6.8
-7 3 6 0.1 6
6 -3 -6 252.37 14.8
-6 3 6 222.38 13.5
-6 3 6 253.47 13.6
5 -3 -6 69.79 9
-5 3 6 69.89 8.6
-5 3 6 73.59 8.5
4 -3 -6 152.98 11.6
-4 3 6 132.99 8.8
-4 3 6 148.39 11
3 -3 -6 72.59 8.4
-3 3 6 75.89 8.9
-3 3 6 72.79 5.6
2 -3 -6 47.2 6.8
-2 3 6 32.4 6.5
1 -3 -6 14.8 5.1
-1 3 6 19.4 5.6
0 -3 -6 183.98 10.3
0 3 6 194.68 11.9
-1 -3 -6 121.19 9.2
1 3 6 120.89 10.2
-2 -3 -6 132.89 9.5
2 3 6 129.49 10.8
-3 -3 -6 27.9 6
3 3 6 29.4 6.7
-4 -3 -6 222.98 13
4 3 6 209.98 14.1
5 3 6 170.68 13.5
6 3 6 4.3 6.1
6 3 6 3.9 6.8
7 3 6 33.6 9.4
7 -4 -6 144.69 14.3
-7 4 6 146.29 12.5
6 -4 -6 -2 6
-6 4 6 -0.6 4.9
-6 4 6 4.9 5.4
5 -4 -6 46.6 8.3
-5 4 6 36.9 6.5
-5 4 6 52.89 9.1
4 -4 -6 47.5 8
-4 4 6 43.5 5.8
-4 4 6 38.3 7.9
3 -4 -6 4.3 5.6
-3 4 6 1.9 4.7
2 -4 -6 40.8 7.1
-2 4 6 45.3 7.7
1 -4 -6 43.7 7.2
-1 4 6 33.1 6.8
0 -4 -6 100.39 9.3
0 4 6 110.39 10.4
-1 -4 -6 21.8 5.7
1 4 6 19.7 5.6
-2 -4 -6 37 6.8
2 4 6 35.9 7.6
-3 -4 -6 163.78 11.5
3 4 6 148.59 12.5
-4 -4 -6 39.4 7.9
4 4 6 41.7 8.6
-5 -4 -6 14.2 6.6
5 4 6 11.6 6.4
6 -5 -6 20.2 8.3
-6 5 6 22.8 7.7
5 -5 -6 23.2 7.8
-5 5 6 41.2 9.2
4 -5 -6 2 6.2
-4 5 6 6.9 6
3 -5 -6 34 7.6
-3 5 6 43.3 8.7
2 -5 -6 11.1 5.7
-2 5 6 19.3 6.3
1 -5 -6 37.5 7.2
-1 5 6 30.9 6.9
0 -5 -6 28.7 6.8
0 5 6 43.8 8.5
-1 -5 -6 10.7 5
1 5 6 2.5 4.5
-2 -5 -6 -0.7 4.7
2 5 6 -8.9 3.7
-3 -5 -6 63.99 9.1
3 5 6 44.9 9.1
-4 -5 -6 86.29 10.8
4 5 6 82.89 11.6
-5 -5 -6 11 7.2
5 5 6 9.6 6.8
-6 6 6 17.4 8.8
5 -6 -6 11.3 7.8
-5 6 6 9.5 7.6
4 -6 -6 9.1 7.4
-4 6 6 13.3 7.7
3 -6 -6 152.28 13.7
-3 6 6 154.68 14.8
2 -6 -6 87.89 10.2
-2 6 6 59.59 10.2
1 -6 -6 22.7 6.6
-1 6 6 7.9 5.7
0 -6 -6 15.7 6.4
0 6 6 17 6.8
-1 -6 -6 17 6.2
1 6 6 16.6 7.2
-2 -6 -6 89.09 10.5
2 6 6 66.49 10.6
-3 -6 -6 82.29 10.2
3 6 6 49.99 10
-4 -6 -6 48.6 8.8
4 6 6 39.3 9.2
4 -7 -6 201.78 16.6
-4 7 6 211.18 19.3
3 -7 -6 174.28 15
-3 7 6 128.79 16.3
2 -7 -6 11 7.2
-2 7 6 5.7 6.6
1 -7 -6 15.5 6.8
-1 7 6 9.9 6.9
0 -7 -6 24.5 7.7
0 7 6 12.9 7.1
-1 -7 -6 23.2 7.7
1 7 6 13.6 7.9
-2 -7 -6 100.59 11.3
2 7 6 97.39 14.1
2 9 -7 20.8 8.1
-2 -9 7 47.6 8.2
1 9 -7 56.49 10
-1 -9 7 58.89 9.7
0 9 -7 49.8 9.3
0 -9 7 54.69 9.4
-1 9 -7 30.3 7.7
1 -9 7 47.4 9.6
-2 9 -7 3.4 5.1
2 -9 7 2.4 6.4
-3 9 -7 26 7.3
3 -9 7 46 10.2
3 8 -7 7.4 6.6
2 8 -7 27.7 7.5
-2 -8 7 24 6.2
1 8 -7 1.6 4.7
-1 -8 7 14.1 5.8
0 8 -7 13.6 5.7
0 -8 7 15 6.5
-1 8 -7 6.1 5
1 -8 7 15.2 6.7
-2 8 -7 9.5 5.5
2 -8 7 19.3 7.6
-3 8 -7 72.09 10.3
3 -8 7 87.49 11.6
-4 8 -7 15.7 6.4
4 -8 7 42.8 10
-5 8 -7 93.69 12.9
5 -8 7 114.09 14.6
5 7 -7 28 7.7
-5 -7 7 32.9 8.8
4 7 -7 34.1 9
4 7 -7 24.5 6.4
3 7 -7 38.6 8.7
-3 -7 7 38.1 6.3
2 7 -7 23.9 7
-2 -7 7 25.5 6.1
1 7 -7 96.69 10.4
-1 -7 7 111.79 10.6
0 7 -7 5.4 4.5
0 -7 7 3.4 5.1
-1 7 -7 6.7 4.5
1 -7 7 17.2 7.1
-2 7 -7 51.89 8
2 -7 7 49.3 8.7
-3 7 -7 96.59 9.8
3 -7 7 96.59 12
-4 7 -7 169.88 12.7
4 -7 7 170.68 14.7
-5 7 -7 92.79 11.9
5 -7 7 72.59 11.3
-6 7 -7 9.7 6.7
6 -7 7 25.5 8.8
6 6 -7 34.4 8.2
-6 -6 7 49.99 10.2
5 6 -7 44.4 7.9
-5 -6 7 58.49 9.8
4 6 -7 38.1 7.1
4 6 -7 36.5 8.4
3 6 -7 107.79 11
-3 -6 7 110.19 9.4
2 6 -7 73.89 9.3
-2 -6 7 70.39 8.6
1 6 -7 96.39 10.6
-1 -6 7 80.49 9.4
0 6 -7 39.5 6.9
0 -6 7 30.5 7
-1 6 -7 18.8 5.2
1 -6 7 24.9 6.6
-2 6 -7 102.29 9.1
2 -6 7 121.99 11.2
-3 6 -7 49.6 7.6
3 -6 7 51.09 9
-4 6 -7 7.7 4.7
4 -6 7 3.1 5.9
-5 6 -7 44.3 8.1
5 -6 7 62.39 10.7
-6 6 -7 73.19 10.6
6 -6 7 97.99 12.6
-7 6 -7 57.29 10.5
7 -6 7 82.89 12.5
7 5 -7 15.9 7.5
-7 -5 7 13.7 8.4
6 5 -7 26.9 7.2
-6 -5 7 30.6 8.2
5 5 -7 79.69 9.6
-5 -5 7 92.99 11.1
4 5 -7 49.99 7.5
3 5 -7 122.39 8.6
3 5 -7 110.19 10.3
-3 -5 7 121.39 9.4
2 5 -7 154.08 10.7
-2 -5 7 145.79 10.3
1 5 -7 132.99 9.6
-1 -5 7 116.39 10.3
0 5 -7 46.4 6.9
0 -5 7 42.2 7.1
-1 5 -7 82.29 7.6
1 -5 7 99.09 10.2
-2 5 -7 354.06 15
2 -5 7 339.17 16.8
-3 5 -7 41.2 6.6
3 -5 7 47.2 8.2
-4 5 -7 5.8 4.3
4 -5 7 8.4 6.1
-5 5 -7 86.69 10.1
5 -5 7 111.29 12.6
-6 5 -7 175.78 13.7
6 -5 7 187.48 15.4
-7 5 -7 25.2 8.4
7 -5 7 37.1 10.1
8 -5 7 6.2 10.8
7 4 -7 6 6.8
-7 -4 7 3.4 7.1
6 4 -7 37 7.8
-6 -4 7 51.49 9.5
5 4 -7 76.29 9.1
-5 -4 7 70.49 9.6
4 4 -7 88.29 8.7
-4 -4 7 91.19 9.5
3 4 -7 223.48 12.7
3 4 -7 213.58 10.7
-3 -4 7 214.48 11
2 4 -7 364.26 15
-2 -4 7 350.56 14.3
1 4 -7 114.69 8.5
-1 -4 7 108.79 9
0 4 -7 705.13 21.5
0 -4 7 684.03 22.7
-1 4 -7 227.98 10.9
1 -4 7 255.87 13.2
-2 4 -7 347.97 13.9
2 -4 7 327.47 15.7
-3 4 -7 88.09 7.8
3 -4 7 95.69 10.5
-4 4 -7 4.9 4.2
4 -4 7 1.2 5.7
-5 4 -7 146.69 11.1
5 -4 7 137.79 13.3
-6 4 -7 8.5 6.1
6 -4 7 5.4 8
-7 4 -7 3.3 6.8
7 -4 7 13.8 9.6
-8 4 -7 36.3 9.6
8 -4 7 45.6 11.8
8 3 -7 26.3 8.4
-8 -3 7 19.8 9.4
7 3 -7 50.99 9.1
-7 -3 7 62.79 10.5
6 3 -7 161.08 12.2
-6 -3 7 162.18 12.9
5 3 -7 113.39 10.1
-5 -3 7 107.59 10.4
4 3 -7 29 6
-4 -3 7 29.2 6.3
3 3 -7 61.59 6.8
3 3 -7 63.19 7.8
-3 -3 7 64.59 6.5
2 3 -7 71.89 6.4
2 3 -7 58.59 7
-2 -3 7 62.79 6.9
1 3 -7 474.25 16.1
-1 -3 7 463.15 16.8
0 3 -7 33.9 4.9
0 -3 7 45 6.8
-1 3 -7 61.89 5.9
1 -3 7 61.59 7.4
-2 3 -7 295.57 12.1
2 -3 7 321.77 14.5
-3 3 -7 199.78 10.5
3 -3 7 227.38 13.4
-4 3 -7 130.49 9.3
4 -3 7 132.39 12.4
-5 3 -7 48.2 7.5
5 -3 7 40.5 9.1
-6 3 -7 96.09 10.8
6 -3 7 116.59 12.9
-7 3 -7 29.8 8
7 -3 7 35.4 9.9
-8 3 -7 13.5 8.1
8 2 -7 28.1 8.2
-8 -2 7 24.9 9.4
7 2 -7 14.1 6.7
-7 -2 7 13.8 7.1
6 2 -7 1.6 5.4
-6 -2 7 0.4 5.4
5 2 -7 91.99 9.5
-5 -2 7 100.39 10
4 2 -7 -1 4.1
-4 -2 7 -0.9 4
3 2 -7 84.09 7.7
-3 -2 7 70.89 7.2
-3 -2 7 84.89 7.5
2 2 -7 578.14 18.1
2 2 -7 596.24 16.9
-2 -2 7 574.14 18.1
1 2 -7 232.68 9.1
1 2 -7 225.78 9.7
-1 -2 7 236.78 11.2
0 2 -7 70.09 5.6
0 -2 7 80.79 8.1
-1 2 -7 96.89 6.4
1 -2 7 105.49 9
-2 2 -7 2.6 2.8
2 -2 7 -0.6 4.2
-3 2 -7 332.87 12.9
3 -2 7 347.67 15.8
-4 2 -7 101.49 8.3
4 -2 7 93.09 10.2
-5 2 -7 16.3 5.4
5 -2 7 34.6 8.6
-6 2 -7 17.7 6.7
6 -2 7 13.8 8.5
-7 2 -7 -10 5.7
7 -2 7 -10.9 6.7
-8 2 -7 -0.1 7.7
8 1 -7 96.09 11.9
-8 -1 7 80.09 12.6
7 1 -7 88.89 10.9
-7 -1 7 103.29 12.4
6 1 -7 142.89 11.6
-6 -1 7 141.09 12
5 1 -7 100.89 9.8
-5 -1 7 106.39 9.8
4 1 -7 183.08 11.2
-4 -1 7 192.08 10.9
3 1 -7 470.85 15.9
-3 -1 7 463.85 15.5
-3 -1 7 483.65 15.9
2 1 -7 475.95 14.9
-2 -1 7 453.05 15.7
1 1 -7 111.29 7.2
1 1 -7 107.39 6.2
-1 -1 7 94.39 8.2
0 1 -7 193.38 7.6
0 1 -7 192.38 8.2
0 -1 7 195.28 10.7
-1 1 -7 709.23 18.3
-1 1 -7 733.83 18.6
1 -1 7 715.93 22.7
-2 1 -7 121.39 6.5
-2 1 -7 127.19 6.9
2 -1 7 114.19 9.7
-3 1 -7 394.06 13.5
-3 1 -7 414.46 13.3
3 -1 7 430.46 17.6
-4 1 -7 111.19 8.4
4 -1 7 139.79 12
-5 1 -7 39.1 6.9
5 -1 7 41.7 6.2
5 -1 7 22.3 7.4
-6 1 -7 54.29 8.5
6 -1 7 53.09 6.9
6 -1 7 55.19 9.7
-7 1 -7 -6.2 5.8
7 -1 7 -6.2 6.7
7 -1 7 1 4.7
-8 1 -7 86.19 12.1
8 -1 7 105.59 11
8 0 -7 22.2 8.4
-8 0 7 14 8.7
7 0 -7 76.39 9.8
-7 0 7 64.09 10.4
6 0 -7 12.1 6.2
-6 0 7 -1.9 5.2
5 0 -7 21.5 6.6
-5 0 7 13.5 5.5
4 0 -7 125.29 9.7
-4 0 7 118.79 8.1
-4 0 7 119.19 8.7
3 0 -7 14.3 4.9
-3 0 7 7.9 3.9
-3 0 7 5.9 3.3
2 0 -7 177.58 9.5
-2 0 7 178.08 10
-2 0 7 178.28 7.6
1 0 -7 280.07 11.1
-1 0 7 279.77 12.6
0 0 -7 188.28 6.5
0 0 -7 170.18 8.4
0 0 7 176.08 10.6
-1 0 -7 117.09 6.9
-1 0 -7 115.49 5
1 0 7 133.29 9.6
-2 0 -7 180.08 7.1
-2 0 -7 188.08 9
2 0 7 180.28 11.4
-3 0 -7 48.1 6
-3 0 -7 50.09 5.2
3 0 7 56.39 8
-4 0 -7 26.7 5.2
4 0 7 32.3 7.7
-5 0 -7 37.3 6.5
5 0 7 68.39 7.9
5 0 7 58.89 9.2
-6 0 -7 21.6 6.8
6 0 7 25.1 6.4
6 0 7 23 7.8
-7 0 -7 57.39 9.6
7 0 7 71.99 9.5
7 0 7 46.9 9.2
-8 0 -7 29.3 9.3
8 0 7 32.8 8.5
8 -1 -7 2.3 7
-8 1 7 7.2 8
7 -1 -7 4.6 6.7
-7 1 7 7.6 7.8
6 -1 -7 3.1 6
-6 1 7 12.7 6.1
5 -1 -7 79.99 9
-5 1 7 95.49 9
4 -1 -7 74.59 8.2
-4 1 7 71.09 7.9
-4 1 7 69.29 7.4
3 -1 -7 128.69 9.7
-3 1 7 133.39 7.6
-3 1 7 138.69 9.6
2 -1 -7 384.86 14.1
-2 1 7 376.46 11.2
-2 1 7 359.66 15
1 -1 -7 368.46 13.3
-1 1 7 370.46 15.1
0 -1 -7 167.38 9
0 1 7 160.98 10.5
-1 -1 -7 271.07 11.1
1 1 7 275.27 13.4
-2 -1 -7 198.58 10.3
2 1 7 206.88 12.3
-3 -1 -7 90.69 8.3
-3 -1 -7 84.69 5.6
3 1 7 87.49 10
-4 -1 -7 271.97 11.1
-4 -1 -7 269.67 13.1
4 1 7 272.77 15.4
-5 -1 -7 82.59 8.6
5 1 7 90.79 10.9
-6 -1 -7 -0.1 5.5
6 1 7 7.9 6.7
6 1 7 10.6 6.1
-7 -1 -7 19.5 7.5
7 1 7 29.4 8.2
8 -2 -7 31.9 9.2
-8 2 7 21.1 9
7 -2 -7 121.79 12.7
-7 2 7 97.09 11.7
6 -2 -7 70.09 9.7
-6 2 7 53.49 8.3
5 -2 -7 -0.5 5.7
-5 2 7 0.3 4.5
-5 2 7 5 4.8
4 -2 -7 58.19 8.2
-4 2 7 47.9 7.2
-4 2 7 51.29 6.5
3 -2 -7 47 7.4
-3 2 7 67.59 8.4
-3 2 7 72.29 6.4
2 -2 -7 14.5 5.4
-2 2 7 32 6.5
1 -2 -7 32.7 5.6
-1 2 7 19.3 5.3
0 -2 -7 159.88 9.8
0 2 7 163.78 10.9
-1 -2 -7 353.66 13.9
1 2 7 368.36 16.4
-2 -2 -7 181.78 10.6
2 2 7 182.88 12.2
-3 -2 -7 81.79 8.4
3 2 7 94.39 10.3
-4 -2 -7 193.18 13.6
4 2 7 161.58 12.9
5 2 7 187.68 14.1
6 2 7 14.4 7.2
7 2 7 27.8 8.9
-8 3 7 13.5 8.6
7 -3 -7 48.4 9.9
-7 3 7 28.8 8.5
6 -3 -7 90.89 10.5
-6 3 7 75.99 9.9
5 -3 -7 22.9 7.5
-5 3 7 27.8 6.3
-5 3 7 40.1 7.4
4 -3 -7 65.49 8.9
-4 3 7 65.39 7.1
-4 3 7 75.29 9.3
3 -3 -7 22.1 6.3
-3 3 7 18.5 6.2
2 -3 -7 12.3 5.8
-2 3 7 22.7 6.4
1 -3 -7 144.19 10.3
-1 3 7 117.19 10.7
0 -3 -7 13.2 5.2
0 3 7 20.7 6.2
-1 -3 -7 77.59 8.4
1 3 7 81.89 10.2
-2 -3 -7 56.99 7.7
2 3 7 48.1 8
-3 -3 -7 89.89 9.3
3 3 7 82.09 10.5
-4 -3 -7 84.59 9.8
4 3 7 88.49 11.5
-5 -3 -7 5.3 5.7
5 3 7 17.4 7.1
6 3 7 47.8 9.5
7 -4 -7 70.09 11.6
6 -4 -7 229.48 16.4
-6 4 7 230.78 15.7
5 -4 -7 37.7 8.5
-5 4 7 31.8 7.8
4 -4 -7 50.89 8.7
-4 4 7 62.09 9.7
3 -4 -7 28.5 7.1
-3 4 7 28.2 7
2 -4 -7 26.4 6.8
-2 4 7 21.8 6.2
1 -4 -7 6.4 5.6
-1 4 7 11.1 5.3
0 -4 -7 17.5 6.1
0 4 7 11.6 5.5
-1 -4 -7 36.1 6.6
1 4 7 28.5 6.9
-2 -4 -7 44.9 7.5
2 4 7 28.2 7.2
-3 -4 -7 53.09 8.1
3 4 7 65.19 10.3
-4 -4 -7 104.59 11.1
4 4 7 114.49 12.8
-5 -4 -7 104.89 12.2
5 4 7 95.69 12.5
6 4 7 -8.9 7.5
6 -5 -7 21.8 9
-6 5 7 14.1 7.4
5 -5 -7 43.1 9.3
-5 5 7 36.1 9.5
4 -5 -7 -2.3 6.8
-4 5 7 -0.8 6.1
3 -5 -7 0.3 6.3
-3 5 7 -3.6 5.1
2 -5 -7 31.5 7.7
-2 5 7 35.4 8.4
1 -5 -7 0.9 5.3
-1 5 7 0.4 4.9
0 -5 -7 42.4 7.8
0 5 7 52.99 9.4
-1 -5 -7 0.6 5.1
1 5 7 2.4 5.1
-2 -5 -7 6.9 5.4
2 5 7 -2.3 4.7
-3 -5 -7 52.19 9
3 5 7 40 9
-4 -5 -7 23.5 7
4 5 7 24.2 8.4
5 5 7 12.4 7.3
5 -6 -7 -1.5 7.4
-5 6 7 6.7 7.9
4 -6 -7 29.1 9.1
-4 6 7 25.8 8.6
3 -6 -7 234.88 16.2
-3 6 7 226.48 17.8
2 -6 -7 11.5 7.1
-2 6 7 11.7 7.6
1 -6 -7 12.1 6.5
-1 6 7 16.5 7.3
0 -6 -7 21.1 7.8
0 6 7 9.5 6.5
-1 -6 -7 8.6 6.2
1 6 7 6.3 6
-2 -6 -7 48.8 8.8
2 6 7 38.4 9.2
-3 -6 -7 74.99 10.7
3 6 7 75.79 12.3
2 -7 -7 11.1 7.9
-2 7 7 6.4 6.9
1 -7 -7 6.4 6.7
-1 7 7 1.8 6.5
0 -7 -7 5 7.1
0 7 7 5.7 7.3
1 9 -8 55.69 10.5
-1 -9 8 46.1 8.8
0 9 -8 18.2 7.4
0 -9 8 23.9 7.5
-1 9 -8 16.7 6.7
1 -9 8 37.2 8.9
-2 9 -8 16.5 6.9
2 -9 8 33.3 9.2
-3 9 -8 60.59 10.5
3 -9 8 79.59 12.9
3 8 -8 26.2 8.2
2 8 -8 165.18 14.2
-2 -8 8 173.58 13
1 8 -8 6.3 5.4
-1 -8 8 7.5 5.6
0 8 -8 90.39 11.5
0 -8 8 93.09 11.6
-1 8 -8 29.1 7.3
1 -8 8 41.9 8.7
-2 8 -8 25.3 6.9
2 -8 8 21 7.4
-3 8 -8 197.38 14.1
3 -8 8 202.48 15.9
-4 8 -8 40.8 8.7
4 -8 8 55.59 11
-5 8 -8 6.4 6.2
5 -8 8 27.2 9.2
5 7 -8 61.79 9.2
-5 -7 8 99.09 13.1
4 7 -8 10.7 7.4
3 7 -8 15.4 7.2
-3 -7 8 19.1 5.8
2 7 -8 10 5.7
-2 -7 8 31.2 7.1
1 7 -8 32.4 7.6
-1 -7 8 33.9 7.4
0 7 -8 60.49 9
0 -7 8 58.99 9.4
-1 7 -8 46.4 8
1 -7 8 42.6 8.6
-2 7 -8 10.5 4.9
2 -7 8 3.1 5.8
-3 7 -8 20.9 6.3
3 -7 8 22.7 7.6
-4 7 -8 10 5.6
4 -7 8 16.6 7.4
-5 7 -8 81.59 11.3
5 -7 8 90.19 12.9
-6 7 -8 90.39 12.4
6 -7 8 93.39 13.5
6 6 -8 80.99 10.8
-6 -6 8 85.79 12.4
5 6 -8 36.1 7.9
-5 -6 8 30.7 8.4
4 6 -8 228.68 15.8
4 6 -8 239.78 13
3 6 -8 28.5 7.3
-3 -6 8 44.8 7
2 6 -8 73.79 9.5
-2 -6 8 59.09 8.1
1 6 -8 34.1 6.9
-1 -6 8 42.9 8
0 6 -8 12.3 5
0 -6 8 10.7 6.2
-1 6 -8 85.59 8.8
1 -6 8 111.19 11.6
-2 6 -8 8.3 4.4
2 -6 8 15.3 6.6
-3 6 -8 21.5 5.8
3 -6 8 19.8 6.9
-4 6 -8 32.5 7.1
4 -6 8 39.6 8.7
-5 6 -8 4.4 5.3
5 -6 8 5 7.2
-6 6 -8 10.4 6.5
6 -6 8 10.4 8.3
-7 6 -8 98.39 13
7 -6 8 96.69 13.7
-7 -5 8 56.49 11
6 5 -8 17.1 6.9
-6 -5 8 31.2 8.9
5 5 -8 161.78 12.4
-5 -5 8 149.19 12.9
4 5 -8 34.7 6.7
3 5 -8 133.29 11.1
3 5 -8 140.09 9.4
-3 -5 8 138.69 10.2
2 5 -8 41.6 7.3
-2 -5 8 51.09 7.6
1 5 -8 30.4 6.1
-1 -5 8 50.29 8
0 5 -8 18.6 5.1
0 -5 8 26 6.7
-1 5 -8 114.89 8.9
1 -5 8 106.29 10.8
-2 5 -8 45.1 6.9
2 -5 8 51.19 9
-3 5 -8 1.1 3.8
3 -5 8 2.6 5.8
-4 5 -8 15.1 5.3
4 -5 8 26 8.3
-5 5 -8 33.9 7.3
5 -5 8 39.2 9.3
-6 5 -8 39.6 8.4
6 -5 8 49.3 10.7
-7 5 -8 32.4 8.7
7 -5 8 44.2 11.7
7 4 -8 55.19 9.6
-7 -4 8 72.59 12
6 4 -8 75.19 10
-6 -4 8 63.79 10.2
5 4 -8 16.1 6
-5 -4 8 10.4 6
4 4 -8 144.19 10.3
-4 -4 8 133.19 10.9
3 4 -8 59.19 7
3 4 -8 67.59 8.7
-3 -4 8 77.99 8.3
2 4 -8 242.28 12.7
-2 -4 8 246.88 13.2
1 4 -8 67.09 7.8
-1 -4 8 82.39 8.9
0 4 -8 134.19 8.8
0 -4 8 122.29 10.6
-1 4 -8 209.08 10.8
1 -4 8 214.38 13.1
-2 4 -8 175.08 10.3
2 -4 8 181.08 12.8
-3 4 -8 86.69 8.1
3 -4 8 99.99 11.5
-4 4 -8 75.19 8.7
4 -4 8 88.79 10.7
-5 4 -8 132.59 11.1
5 -4 8 153.48 14.5
-6 4 -8 136.19 12.2
6 -4 8 131.39 15.3
-7 4 -8 19.9 7.5
7 -4 8 13.4 9.1
-8 4 -8 22.4 9.7
8 -4 8 6.3 10.6
-8 -3 8 6.1 8.7
7 3 -8 3.7 6.4
-7 -3 8 12.4 7.4
6 3 -8 44.7 8.1
-6 -3 8 31.3 8.2
5 3 -8 8.1 5.7
-5 -3 8 6.4 5
4 3 -8 91.39 9.2
-4 -3 8 87.19 8.9
3 3 -8 184.48 10.2
3 3 -8 177.68 11.2
-3 -3 8 173.68 10.5
2 3 -8 2.4 3.7
2 3 -8 5.8 3.6
-2 -3 8 8.8 4.8
1 3 -8 718.83 21.7
-1 -3 8 706.13 22.9
0 3 -8 401.76 14.7
0 -3 8 423.76 17.1
-1 3 -8 544.25 17.6
1 -3 8 559.24 20.5
-2 3 -8 280.97 12
2 -3 8 270.07 14.7
-3 3 -8 141.39 9.1
3 -3 8 139.89 12.4
-4 3 -8 29.2 5.7
4 -3 8 23.3 7.4
-5 3 -8 159.88 11.1
5 -3 8 144.19 13.9
-6 3 -8 23.1 6.9
6 -3 8 31.6 9.4
-7 3 -8 7.7 6.7
7 -3 8 0.8 8.8
-8 3 -8 -4.9 6.8
8 -3 8 2.3 10.2
8 2 -8 10.4 8.1
-8 -2 8 4.5 8
7 2 -8 119.09 12.6
-7 -2 8 104.79 12.9
6 2 -8 58.19 8.9
-6 -2 8 56.59 9
5 2 -8 13.3 5.6
-5 -2 8 10.9 5.9
4 2 -8 41.1 7
-4 -2 8 37.5 6.7
3 2 -8 63.99 7.3
-3 -2 8 54.29 6.6
-3 -2 8 51.79 6.7
2 2 -8 697.63 20.1
2 2 -8 741.03 21.4
-2 -2 8 695.23 22
1 2 -8 90.19 6.9
1 2 -8 84.29 6.5
-1 -2 8 88.89 8.8
0 2 -8 59.49 5.7
0 2 -8 49.2 5.2
0 -2 8 53.59 7.2
-1 2 -8 37.5 4.7
1 -2 8 42.4 7.1
-2 2 -8 71.29 6.2
2 -2 8 74.39 8.8
-3 2 -8 68.69 6.8
3 -2 8 79.99 10.4
-4 2 -8 73.19 7.6
4 -2 8 63.19 9.6
-5 2 -8 69.99 8.5
5 -2 8 65.49 10.8
-6 2 -8 207.58 13.3
6 -2 8 174.08 15.3
-7 2 -8 85.99 11.3
7 -2 8 81.79 12.5
-8 2 -8 40.4 9.8
8 1 -8 33.6 9.4
-8 -1 8 40.6 10.4
7 1 -8 24.4 7.8
-7 -1 8 25 7.9
6 1 -8 26.7 7.2
-6 -1 8 27.2 7.4
5 1 -8 24.4 6.7
-5 -1 8 23.4 6.2
4 1 -8 25 5.9
-4 -1 8 25.4 5.8
3 1 -8 152.38 10.1
-3 -1 8 138.49 8.8
-3 -1 8 140.79 9.4
2 1 -8 337.17 13.2
-2 -1 8 345.67 14.5
1 1 -8 97.69 6.2
1 1 -8 98.39 7.5
-1 -1 8 109.39 9.1
0 1 -8 159.88 7.1
0 1 -8 159.48 8
0 -1 8 157.88 10.5
-1 1 -8 76.69 6.4
-1 1 -8 81.29 5.4
1 -1 8 104.39 9.6
-2 1 -8 130.59 7
-2 1 -8 126.29 7.3
2 -1 8 129.19 11.2
-3 1 -8 205.48 9.7
-3 1 -8 209.78 9.5
3 -1 8 212.68 13.9
-4 1 -8 73.19 7.3
-4 1 -8 71.49 7.4
4 -1 8 58.89 9.8
-5 1 -8 32.8 5.8
-5 1 -8 30.5 6.1
5 -1 8 20.8 7.9
-6 1 -8 49.1 8.3
6 -1 8 48.2 9.7
-7 1 -8 -4 6
7 -1 8 1.9 5.2
7 -1 8 4.2 7.8
-8 1 -8 -0.5 7.7
8 -1 8 6.3 6.6
8 0 -8 71.89 10.8
-8 0 8 79.09 12.1
7 0 -8 14.5 7
-7 0 8 12.4 7.3
6 0 -8 116.39 11.9
-6 0 8 107.29 11
5 0 -8 33.8 7.1
-5 0 8 27.6 6.4
4 0 -8 3.9 5.2
-4 0 8 5.9 4.4
-4 0 8 5.9 4.1
3 0 -8 319.07 13.8
-3 0 8 312.57 12
-3 0 8 327.47 14
2 0 -8 122.29 9.1
-2 0 8 115.89 6.6
-2 0 8 128.19 9.7
1 0 -8 23.3 4.8
-1 0 8 25.1 5.6
-1 0 8 26.7 3.2
0 0 -8 30.4 4.7
0 0 -8 32.2 3.4
0 0 8 22.5 6.1
-1 0 -8 398.46 13.8
1 0 8 393.96 17.1
-2 0 -8 242.88 10.8
-2 0 -8 241.38 8.5
2 0 8 231.08 13.9
-3 0 -8 156.98 7.7
-3 0 -8 150.98 9.4
3 0 8 152.58 12.6
-4 0 -8 16.7 5.1
-4 0 -8 10.6 4.1
4 0 8 8.3 6.8
-5 0 -8 53.89 7.3
-5 0 -8 48.8 7.3
5 0 8 50.89 9.8
-6 0 -8 6.3 5.7
6 0 8 0.3 6.8
-7 0 -8 -3.7 6.7
7 0 8 -17.1 6
8 -1 -8 47.8 10.2
-8 1 8 48.1 10.5
7 -1 -8 13.4 7.6
-7 1 8 0.9 6.4
6 -1 -8 30.2 8.4
-6 1 8 24.2 6.8
5 -1 -8 129.59 11.6
-5 1 8 118.79 9.2
-5 1 8 110.69 9.6
4 -1 -8 37.1 7.3
-4 1 8 30.3 5.5
-4 1 8 34.9 6.5
3 -1 -8 22.4 6.1
-3 1 8 17.1 5.8
-3 1 8 17.6 4
2 -1 -8 35.5 6
-2 1 8 28 3.7
-2 1 8 23.1 6.2
1 -1 -8 392.36 14.7
-1 1 8 384.96 16.7
0 -1 -8 224.58 11.3
0 1 8 211.08 12.8
-1 -1 -8 59.89 6.5
1 1 8 84.39 9.5
-2 -1 -8 81.99 8.2
2 1 8 110.09 10.4
-3 -1 -8 95.29 8.8
3 1 8 105.89 11.2
-4 -1 -8 79.89 8.7
4 1 8 83.59 10.5
-5 -1 -8 47.4 7.6
5 1 8 47.8 9.7
6 1 8 42.4 9.3
7 1 8 1.7 9.8
-8 2 8 -3.3 7.7
7 -2 -8 16 8.3
-7 2 8 3.4 6.7
6 -2 -8 122.99 12.4
-6 2 8 101.09 11
5 -2 -8 10.8 6.8
-5 2 8 7.7 4.9
-5 2 8 7 5.1
4 -2 -8 5.9 5.8
-4 2 8 0.3 4.5
-4 2 8 4.2 4.4
3 -2 -8 30.8 6.7
-3 2 8 25.9 6.5
-3 2 8 25.1 4.6
2 -2 -8 252.57 13.4
-2 2 8 258.37 14.3
1 -2 -8 87.39 8.8
-1 2 8 112.09 10.2
0 -2 -8 195.38 11.4
0 2 8 197.98 12.7
-1 -2 -8 103.29 8.8
1 2 8 110.09 10.6
-2 -2 -8 49.4 7
2 2 8 42.9 7.5
-3 -2 -8 91.19 9.2
3 2 8 122.69 11.8
-4 -2 -8 60.39 8.2
4 2 8 64.39 10.1
-5 -2 -8 43.2 8.1
5 2 8 27 8.2
-6 -2 -8 23.8 7.9
6 2 8 17.6 7.8
7 -3 -8 134.29 14.7
-7 3 8 141.69 13.2
6 -3 -8 154.68 14.5
-6 3 8 126.59 12.4
5 -3 -8 88.89 11
-5 3 8 89.19 10.7
4 -3 -8 30.7 7.9
-4 3 8 24.2 6.9
3 -3 -8 17.2 6.6
-3 3 8 14 6
2 -3 -8 126.69 11.3
-2 3 8 125.09 11.3
1 -3 -8 132.19 10.7
-1 3 8 116.09 11.1
0 -3 -8 58.19 8
0 3 8 54.79 8.3
-1 -3 -8 61.69 7.7
1 3 8 77.99 10.7
-2 -3 -8 120.49 10.4
2 3 8 127.99 13
-3 -3 -8 18.2 6
3 3 8 24.4 7.8
-4 -3 -8 489.55 20
4 3 8 480.75 23.1
-5 -3 -8 84.99 10.8
5 3 8 82.39 11.6
-6 -3 -8 40.4 9.7
6 3 8 20.4 8.3
6 -4 -8 4.6 8
-6 4 8 6.4 8.8
5 -4 -8 6.8 7.6
-5 4 8 2.4 6
4 -4 -8 42.2 9.1
-4 4 8 48.1 9.4
3 -4 -8 -2.2 5.9
-3 4 8 14.4 6
2 -4 -8 21.8 6.9
-2 4 8 13.4 6.1
1 -4 -8 77.09 9.4
-1 4 8 61.39 9.3
0 -4 -8 14.1 6.3
0 4 8 9.2 5.7
-1 -4 -8 21.6 6.2
1 4 8 14.3 6.4
-2 -4 -8 20.1 6.5
2 4 8 19.1 7.6
-3 -4 -8 88.19 10.6
-4 -4 -8 18.4 6.6
4 4 8 5.5 6.9
-5 -4 -8 33.6 8.3
5 4 8 18.2 7.6
5 -5 -8 22.1 8.9
-5 5 8 40.7 9.8
4 -5 -8 30 9
-4 5 8 29.6 8.7
3 -5 -8 27.4 8.3
-3 5 8 27.6 8.6
2 -5 -8 3.1 6.6
-2 5 8 13.3 6.7
1 -5 -8 37 8
-1 5 8 40.2 8.8
0 -5 -8 16.3 6.7
0 5 8 10.4 5.9
-1 -5 -8 27.6 7.5
1 5 8 29 7.9
-2 -5 -8 22.1 6.8
2 5 8 25.4 8.1
-3 -5 -8 37.4 8
3 5 8 19.1 7.9
-4 -5 -8 19.8 7.7
4 5 8 0.9 6.6
4 -6 -8 44.1 10.6
-4 6 8 44.1 10.7
3 -6 -8 36 9.7
-3 6 8 32.7 9.7
2 -6 -8 105.59 12.3
-2 6 8 48 10.2
1 -6 -8 10.5 6.8
-1 6 8 12.1 7.2
0 -6 -8 7.2 7.1
0 6 8 8.3 6.3
-1 -6 -8 28.2 8.2
1 6 8 14.6 7.6
-2 -6 -8 20 7.3
2 6 8 24.5 8.6
-1 -9 9 73.19 11.3
0 9 -9 19.4 8
0 -9 9 26.1 8.5
-1 9 -9 74.89 11.5
1 -9 9 129.39 15.3
-2 9 -9 68.19 11.5
2 -9 9 56.79 11.6
3 8 -9 43.8 10.1
2 8 -9 87.79 12.3
-2 -8 9 97.09 11.3
1 8 -9 63.99 10.8
-1 -8 9 92.89 12
0 8 -9 36.1 8.1
0 -8 9 54.39 10.3
-1 8 -9 15.4 6.4
1 -8 9 11.2 6.8
-2 8 -9 17.1 6.1
2 -8 9 10.9 7.5
-3 8 -9 31.6 7.9
3 -8 9 35 9.2
-4 8 -9 29.5 8.4
4 -8 9 45.6 10.4
-5 -7 9 49.2 10.4
4 7 -9 131.59 15.2
3 7 -9 127.19 13.1
2 7 -9 -4.4 4.3
-2 -7 9 23 6.5
1 7 -9 21.1 7.2
-1 -7 9 19.5 6.6
0 7 -9 68.29 9.6
0 -7 9 106.49 12.3
-1 7 -9 100.59 10.1
1 -7 9 78.49 10.7
-2 7 -9 62.99 9.4
2 -7 9 64.19 10.5
-3 7 -9 119.29 11.1
3 -7 9 119.19 13.2
-4 7 -9 17.9 6.5
4 -7 9 10.5 7.7
-5 7 -9 4.2 5.6
5 -7 9 9.7 8
-6 7 -9 -4.6 5.8
6 -7 9 -3.6 8.5
-6 -6 9 207.68 17
5 6 -9 2.2 6.2
-5 -6 9 14.7 6.7
4 6 -9 7.7 5.3
4 6 -9 5 6.1
3 6 -9 52.59 9.4
-3 -6 9 62.89 8.7
2 6 -9 79.89 10.4
-2 -6 9 96.29 10.2
1 6 -9 14.1 5.7
-1 -6 9 8.4 6
0 6 -9 163.48 11.7
0 -6 9 158.18 12.9
-1 6 -9 3.6 4.1
1 -6 9 15.6 6.9
-2 6 -9 34.7 6.9
2 -6 9 34.2 8.6
-3 6 -9 125.99 10.8
3 -6 9 117.79 13
-4 6 -9 34 7.4
4 -6 9 31.3 8.9
-5 6 -9 14.8 6.3
5 -6 9 32.7 9.4
-6 6 -9 8.8 6.5
6 -6 9 7.7 9.3
6 5 -9 -3.2 5.8
-6 -5 9 8.7 7
5 5 -9 102.59 11
-5 -5 9 74.79 10.1
4 5 -9 101.19 10
3 5 -9 58.89 7
3 5 -9 75.69 10
-3 -5 9 75.39 9.1
2 5 -9 74.79 9.4
-2 -5 9 69.29 9
1 5 -9 47.5 7.4
-1 -5 9 56.19 8.9
0 5 -9 13.3 5.2
0 -5 9 15.4 6.3
-1 5 -9 16.5 5.1
1 -5 9 24.6 7.5
-2 5 -9 7.6 4.4
2 -5 9 5 6.3
-3 5 -9 64.79 8.4
3 -5 9 64.29 10.1
-4 5 -9 8.1 5.1
4 -5 9 14.3 7.3
-5 5 -9 36.3 7.6
5 -5 9 24.9 9.4
-6 5 -9 92.59 11.7
6 -5 9 108.19 14.5
-7 5 -9 68.69 10.8
7 -5 9 74.69 13
7 4 -9 21.8 8.5
-7 -4 9 22 8.4
6 4 -9 11 6.6
-6 -4 9 9.4 6.4
5 4 -9 67.89 9
-5 -4 9 67.09 9.7
4 4 -9 61.39 7.9
-4 -4 9 59.99 8.7
3 4 -9 78.39 8.4
3 4 -9 81.39 9.9
-3 -4 9 80.69 8.9
2 4 -9 31.9 6.4
2 4 -9 27.1 5.2
-2 -4 9 34 7.2
1 4 -9 33.1 6.3
-1 -4 9 39.7 7.7
0 4 -9 143.29 9.5
0 -4 9 132.59 12
-1 4 -9 161.48 10
1 -4 9 151.28 12.7
-2 4 -9 103.39 8.7
2 -4 9 102.59 12.3
-3 4 -9 2.2 3.8
3 -4 9 4.4 6.5
-4 4 -9 111.49 9.5
4 -4 9 111.39 13.1
-5 4 -9 36.8 7.4
5 -4 9 36.7 9.9
-6 4 -9 0.3 5.3
6 -4 9 1.9 8.4
-7 4 -9 3.4 6.4
7 -4 9 -15.4 8.1
7 3 -9 30.2 8.7
-7 -3 9 22.4 8.2
6 3 -9 -3.2 5.7
-6 -3 9 4 6.4
5 3 -9 58.59 8.6
-5 -3 9 59.69 9
4 3 -9 137.89 10.4
-4 -3 9 128.19 10.5
3 3 -9 134.19 9.7
3 3 -9 135.69 10.3
-3 -3 9 120.69 10.6
2 3 -9 53.89 6.7
2 3 -9 65.79 7.7
-2 -3 9 60.89 7.9
1 3 -9 5.9 3.9
-1 -3 9 0.6 5.1
0 3 -9 98.89 7.6
0 -3 9 114.19 10.8
-1 3 -9 161.28 9.2
1 -3 9 148.59 12.2
-2 3 -9 91.99 7.6
2 -3 9 92.49 10.9
-3 3 -9 61.19 7.3
3 -3 9 73.29 9.6
-4 3 -9 132.39 9.6
4 -3 9 127.39 13.4
-5 3 -9 68.99 8.8
5 -3 9 77.69 12.1
-6 3 -9 264.87 15.2
6 -3 9 251.77 18.9
-7 3 -9 34.4 8.6
7 -3 9 31 10.2
7 2 -9 79.39 11
-7 -2 9 82.39 12
6 2 -9 17 7
-6 -2 9 17.1 6.9
5 2 -9 106.39 10.7
-5 -2 9 74.59 9.5
4 2 -9 52.49 7.7
-4 -2 9 49.99 7.5
3 2 -9 23.5 5.7
-3 -2 9 40.1 6.1
-3 -2 9 35.4 6.5
2 2 -9 87.39 7.9
2 2 -9 102.29 8.6
-2 -2 9 93.19 9.9
1 2 -9 540.05 17.2
1 2 -9 551.74 16.8
-1 -2 9 539.95 20.1
0 2 -9 432.76 14.6
0 2 -9 459.55 14.2
0 -2 9 455.85 18.4
-1 2 -9 152.78 8.3
1 -2 9 156.88 12.3
-2 2 -9 132.49 8.1
2 -2 9 141.29 12.4
-3 2 -9 6.3 3.8
3 -2 9 5 6.5
-4 2 -9 150.68 9.7
4 -2 9 136.29 13.9
-5 2 -9 100.19 9.3
5 -2 9 95.39 12.2
-6 2 -9 30.1 7.2
6 -2 9 22 9.2
-7 2 -9 -6.2 5.6
7 -2 9 -13.1 7.6
-8 -1 9 44.4 10.9
7 1 -9 99.29 12
-7 -1 9 137.09 13.4
6 1 -9 12.8 6.5
-6 -1 9 13.2 6.3
5 1 -9 -4.8 5.3
-5 -1 9 8.3 5.2
4 1 -9 88.59 9.2
-4 -1 9 72.39 8.4
-4 -1 9 93.59 8.7
3 1 -9 97.29 9.7
-3 -1 9 122.69 10
-3 -1 9 105.69 8.3
2 1 -9 380.66 14.8
-2 -1 9 373.06 13.4
-2 -1 9 382.16 16.6
1 1 -9 145.89 9.4
1 1 -9 159.48 8
-1 -1 9 157.58 11.4
0 1 -9 103.59 6.4
0 1 -9 110.19 8
0 -1 9 105.99 10.6
-1 1 -9 383.96 12.3
-1 1 -9 386.46 13.3
1 -1 9 392.86 17.6
-2 1 -9 58.19 5.5
-2 1 -9 56.89 6
2 -1 9 67.89 9.3
-3 1 -9 43 5.4
-3 1 -9 49.5 6
3 -1 9 38.7 8.1
-4 1 -9 57.79 6.6
-4 1 -9 56.59 6.5
4 -1 9 47.9 9.7
-5 1 -9 9.3 4.6
-5 1 -9 4.2 4.3
5 -1 9 11.6 8
-6 1 -9 20 6
-6 1 -9 1.7 5.4
6 -1 9 2.6 7.6
-7 1 -9 29.7 8.1
-7 1 -9 69.39 9.2
7 -1 9 27.8 10.1
-8 0 9 21.7 9.4
7 0 -9 1 6.9
-7 0 9 -4 5.9
6 0 -9 28.7 8.1
-6 0 9 43.3 8.2
5 0 -9 7.4 6
-5 0 9 11.5 5.2
4 0 -9 76.19 9
-4 0 9 82.19 9.2
-4 0 9 79.79 7.7
3 0 -9 181.78 11.7
-3 0 9 177.98 9.2
-3 0 9 176.88 11.6
2 0 -9 121.79 9.8
-2 0 9 136.19 7.2
-2 0 9 119.29 10.6
1 0 -9 63.59 7.1
-1 0 9 70.19 4.8
-1 0 9 64.39 8.4
0 0 -9 106.19 8.3
0 0 9 104.59 10.7
-1 0 -9 22.6 5.3
1 0 9 25.4 6.8
-2 0 -9 121.79 8.6
2 0 9 117.39 12.1
-3 0 -9 19.9 3.9
-3 0 -9 10.9 4.7
3 0 9 20 7.5
-4 0 -9 9 4.8
-4 0 -9 7.9 4.1
4 0 9 0.2 6.6
-5 0 -9 49.4 7.9
-5 0 -9 53.99 7.6
5 0 9 39.1 9.7
-6 0 -9 163.98 12.8
6 0 9 163.38 16.6
-7 0 -9 130.89 12.7
7 0 9 76.09 12.1
7 -1 -9 39.6 9.7
-7 1 9 41.5 9.3
6 -1 -9 9.3 7.2
-6 1 9 3.6 5.7
5 -1 -9 14.3 7.1
-5 1 9 18.8 5.9
-5 1 9 30.2 6.4
4 -1 -9 10.7 6.3
-4 1 9 23.4 5.3
-4 1 9 10.5 5.5
3 -1 -9 144.19 11.7
-3 1 9 150.08 8.2
-3 1 9 141.69 11.4
2 -1 -9 89.99 9.1
-2 1 9 82.69 9.9
1 -1 -9 18.5 5.6
-1 1 9 14.5 5.7
0 -1 -9 43.1 6.3
0 1 9 50.39 8.4
-1 -1 -9 44.9 6.6
1 1 9 50.39 8.2
-2 -1 -9 87.59 8.6
2 1 9 98.29 11
-3 -1 -9 5.4 4.6
3 1 9 1 5.7
-4 -1 -9 84.89 8.9
4 1 9 68.09 10.9
-5 -1 -9 49.3 8
5 1 9 41.4 9.6
-6 -1 -9 35.8 7.8
6 1 9 3.9 7.6
7 1 9 -2.4 7.8
7 -2 -9 31.1 10.2
-7 2 9 9.4 7
6 -2 -9 177.28 15.2
-6 2 9 140.59 12.2
5 -2 -9 70.89 10.2
-5 2 9 64.59 9.1
-5 2 9 52.99 8.2
4 -2 -9 34 7.8
-4 2 9 32.4 7.2
3 -2 -9 18.6 6.6
-3 2 9 29.6 7.6
2 -2 -9 4.2 5.5
-2 2 9 15.4 6.4
1 -2 -9 61.09 7.8
-1 2 9 62.09 9.3
0 -2 -9 32.2 6.4
0 2 9 27 6.6
-1 -2 -9 92.39 9.5
1 2 9 109.59 11.1
-2 -2 -9 23 7.3
2 2 9 22.5 6.6
-3 -2 -9 410.86 17.5
3 2 9 421.36 20.8
-4 -2 -9 46 7.9
4 2 9 23.1 7.7
-5 -2 -9 184.88 13.6
5 2 9 192.28 16.4
-6 -2 -9 6.9 6.4
6 2 9 -4.1 7.5
6 -3 -9 44.5 9.8
5 -3 -9 18.1 8.3
-5 3 9 19.9 7.2
4 -3 -9 0.7 6.8
-4 3 9 8.5 6
3 -3 -9 -2.2 5.9
-3 3 9 -1.7 5.5
2 -3 -9 9.1 6.4
-2 3 9 7.8 6
1 -3 -9 324.77 15.8
-1 3 9 307.87 17.5
0 -3 -9 114.69 11.4
0 3 9 115.79 11.7
-1 -3 -9 49.2 7.7
1 3 9 56.29 9.8
-2 -3 -9 90.19 9.6
2 3 9 105.19 12
-3 -3 -9 3.3 5.4
3 3 9 14.1 7.1
-4 -3 -9 28.8 7.6
4 3 9 18.5 7.9
-5 -3 -9 18.1 7.3
5 3 9 13.7 8
6 -4 -9 17.7 9.5
5 -4 -9 -1.2 7.9
-5 4 9 2.4 6.3
4 -4 -9 14.1 8.4
-4 4 9 15.4 7.4
3 -4 -9 7.3 6.7
-3 4 9 -1.6 5.6
2 -4 -9 451.85 20.1
-2 4 9 436.46 22.3
1 -4 -9 44.6 8.2
-1 4 9 48.1 9.5
0 -4 -9 58.29 9.1
0 4 9 52.59 9.3
-1 -4 -9 84.89 10.2
1 4 9 49.3 9.4
-2 -4 -9 128.39 11.8
2 4 9 91.99 12.3
-3 -4 -9 89.19 10.5
3 4 9 80.19 12.6
-4 -4 -9 37.3 8.5
4 4 9 28 9.2
4 -5 -9 27.7 10
-4 5 9 23.4 8.7
3 -5 -9 19.7 8.4
-3 5 9 21.3 8.5
2 -5 -9 19.9 8.5
-2 5 9 10 6.8
1 -5 -9 18.6 7.4
-1 5 9 9.6 6.7
0 -5 -9 47.3 9.4
0 5 9 26.3 8.1
-1 -5 -9 15 7.3
1 5 9 1.2 5.6
-2 -5 -9 23.9 7.2
2 5 9 12.2 7.6
-3 -5 -9 19.5 7.2
3 5 9 3.5 6.8
-2 6 9 -3.5 6.8
1 -6 -9 3.7 7.6
-1 6 9 9.4 7.7
0 -6 -9 6.2 7.4
0 6 9 3.4 6.5
3 8 -10 6.8 7.6
2 8 -10 77.49 11.9
-2 -8 10 67.79 10
1 8 -10 70.09 11.6
-1 -8 10 63.59 10.5
0 8 -10 8 5.8
0 -8 10 20 7.4
-1 8 -10 159.88 13.6
1 -8 10 177.08 15.7
-2 8 -10 72.79 10.8
2 -8 10 68.29 11.3
-3 8 -10 39.4 8.7
3 -8 10 42.2 10
-4 8 -10 49.3 9.4
4 -8 10 32.3 10.8
4 7 -10 81.59 13
3 7 -10 166.08 15
2 7 -10 72.99 10.8
-2 -7 10 79.09 10.7
1 7 -10 20.2 6.8
-1 -7 10 10.8 6.4
0 7 -10 13.3 5.8
0 -7 10 12.8 7.3
-1 7 -10 57.39 9.1
1 -7 10 57.79 10.5
-2 7 -10 28.2 7.2
2 -7 10 16.8 7.8
-3 7 -10 13.1 5.6
3 -7 10 18 8.5
-4 7 -10 19.2 7
4 -7 10 11.5 8.5
-5 7 -10 18.3 7.6
5 -7 10 25.2 10
5 6 -10 39.4 8.2
-5 -6 10 31 8.6
3 6 -10 103.19 12.3
-3 -6 10 86.09 11.3
2 6 -10 40.7 8.6
-2 -6 10 39.4 8.5
1 6 -10 46 8.3
-1 -6 10 62.19 9.7
0 6 -10 136.29 11
0 -6 10 129.79 13
-1 6 -10 65.39 8.9
1 -6 10 64.29 10
-2 6 -10 -3.5 3.9
2 -6 10 3.4 6.6
-3 6 -10 58.49 8.6
3 -6 10 53.79 10.1
-4 6 -10 39 7.9
4 -6 10 45.1 10.6
-5 6 -10 6.5 5.8
5 -6 10 10.1 8.8
-6 6 -10 -3.4 5.7
6 -6 10 4.7 9.3
6 5 -10 73.99 10.9
-6 -5 10 86.29 12.3
5 5 -10 16.2 6.7
-5 -5 10 43.7 8.8
4 5 -10 -1.9 4.6
3 5 -10 36.8 7.9
3 5 -10 50.39 7
-3 -5 10 53.89 8.6
2 5 -10 56.79 8.7
-2 -5 10 41.1 8.6
1 5 -10 70.29 9.2
-1 -5 10 57.59 9.1
0 5 -10 105.59 9.5
0 -5 10 94.19 11.4
-1 5 -10 24.9 5.8
1 -5 10 35.2 8.8
-2 5 -10 222.58 12.7
2 -5 10 232.78 16.2
-3 5 -10 78.99 9.5
3 -5 10 68.39 10.7
-4 5 -10 9.4 5.4
4 -5 10 21 9.2
-5 5 -10 80.79 10.5
5 -5 10 53.99 11.5
-6 5 -10 4.3 6.2
6 -5 10 11.1 9.4
6 4 -10 42.9 8.4
-6 -4 10 48.3 9.6
5 4 -10 2.7 5.9
-5 -4 10 26.5 7.5
4 4 -10 14.2 5.9
-4 -4 10 22.1 6.4
3 4 -10 33.1 7.1
3 4 -10 26.4 5.9
-3 -4 10 21.7 6.9
2 4 -10 54.19 8
-2 -4 10 70.89 9.6
1 4 -10 34.2 6.5
-1 -4 10 22.2 7.4
0 4 -10 5.7 4
0 -4 10 13.4 7.1
-1 4 -10 5.6 4.1
1 -4 10 1.5 6.8
-2 4 -10 31.8 5.9
2 -4 10 34.9 9
-3 4 -10 60.19 7.9
3 -4 10 50.69 9.6
-4 4 -10 151.18 10.9
4 -4 10 135.79 14.8
-5 4 -10 253.97 14.6
5 -4 10 254.77 18.5
-6 4 -10 44.6 8.8
6 -4 10 45.7 11.5
-7 4 -10 41.4 9.3
7 -4 10 26.5 11.3
7 3 -10 41.4 9.5
-7 -3 10 44.4 9.9
6 3 -10 44.1 8.8
-6 -3 10 53.99 9.7
5 3 -10 21.2 6.9
-5 -3 10 21.7 6.8
4 3 -10 42.8 7.4
-4 -3 10 47.3 8.1
3 3 -10 105.89 9.7
3 3 -10 100.09 9.5
-3 -3 10 93.39 10.8
2 3 -10 80.69 8.2
2 3 -10 72.29 8.4
-2 -3 10 90.89 10.3
1 3 -10 28.6 5.5
1 3 -10 15.3 4.7
-1 -3 10 22.3 7.3
0 3 -10 67.59 6.9
0 -3 10 64.49 9.6
-1 3 -10 12.5 4.2
1 -3 10 9 7
-2 3 -10 41 6
2 -3 10 35.6 8.6
-3 3 -10 16.8 4.8
3 -3 10 10.6 7.3
-4 3 -10 168.78 10.8
4 -3 10 173.88 15.6
-5 3 -10 9.6 5.2
5 -3 10 6.2 8.7
-6 3 -10 5.8 5.7
6 -3 10 13.3 9.2
-7 3 -10 39.8 9.1
7 -3 10 20.3 10.4
7 2 -10 31.5 9.4
-7 -2 10 24.4 8.4
6 2 -10 36.7 8.6
-6 -2 10 39.5 8.4
5 2 -10 295.27 15.9
-5 -2 10 313.47 16
4 2 -10 38.7 7.3
-4 -2 10 49.7 8
-4 -2 10 33.5 6.6
3 2 -10 53.99 7.4
-3 -2 10 55.99 7.3
-3 -2 10 66.39 8.6
2 2 -10 24.4 5.6
2 2 -10 28.4 5.8
-2 -2 10 20.3 6.8
1 2 -10 20.3 5.3
1 2 -10 21.3 4.8
-1 -2 10 22.2 6.9
0 2 -10 265.37 11.5
0 2 -10 264.67 11.4
0 -2 10 274.87 15.8
-1 2 -10 44 5.6
-1 2 -10 52.59 6
1 -2 10 41.8 8.2
-2 2 -10 45.7 5.6
2 -2 10 57.89 9.7
-3 2 -10 44.3 6
3 -2 10 31.5 8.7
-4 2 -10 65.29 7.4
4 -2 10 36.7 9.4
-5 2 -10 100.69 9.4
5 -2 10 97.79 12.9
-6 2 -10 52.69 8.3
6 -2 10 78.19 13.1
-7 2 -10 10.5 6.6
7 -2 10 0.5 9
7 1 -10 151.88 15.1
-7 -1 10 147.09 14
6 1 -10 33.6 8.4
-6 -1 10 38.1 7.8
5 1 -10 29.6 7.8
-5 -1 10 33.3 7
4 1 -10 101.59 10.6
-4 -1 10 84.89 9.6
-4 -1 10 95.99 8.9
3 1 -10 184.08 12
-3 -1 10 175.58 10.1
-3 -1 10 177.58 12.3
2 1 -10 128.89 10.4
-2 -1 10 139.19 8.2
-2 -1 10 139.59 11.8
1 1 -10 181.18 10.8
1 1 -10 180.08 9
-1 -1 10 178.88 13.2
0 1 -10 204.68 10.9
0 1 -10 187.78 8.5
0 -1 10 218.38 14.2
-1 1 -10 132.29 6.9
-1 1 -10 132.99 8.9
1 -1 10 127.99 12.3
-2 1 -10 133.29 7.3
-2 1 -10 137.99 9.1
2 -1 10 131.39 12.9
-3 1 -10 106.99 8.2
-3 1 -10 103.39 7.1
3 -1 10 88.79 11.2
-4 1 -10 164.48 9.4
-4 1 -10 165.38 10.2
4 -1 10 145.19 14.8
-5 1 -10 -5.4 3.9
-5 1 -10 7.2 4.3
5 -1 10 -6.1 7.1
-6 1 -10 46.2 7.3
-6 1 -10 45.3 11.7
6 -1 10 46.2 11
-7 1 -10 67.09 8.8
7 -1 10 41.2 11.4
7 0 -10 28.7 9.1
-7 0 10 24.5 8.2
6 0 -10 0 7.2
-6 0 10 -0.5 5.5
5 0 -10 52.99 9.1
-5 0 10 46.6 7.5
4 0 -10 82.89 10.3
-4 0 10 87.79 10.2
-4 0 10 77.29 7.8
3 0 -10 58.89 8.3
-3 0 10 80.99 9.7
-3 0 10 80.39 6.8
2 0 -10 128.59 10.7
-2 0 10 102.09 11
-2 0 10 119.09 7
1 0 -10 44 6.8
-1 0 10 46.5 8.1
0 0 -10 57.09 7
0 0 10 41.4 8.2
-1 0 -10 237.18 12.2
1 0 10 250.87 15.8
-2 0 -10 9.6 4.8
2 0 10 2.2 6.4
-3 0 -10 69.99 7.6
3 0 10 60.69 10.5
-4 0 -10 61.79 7.9
4 0 10 52.49 10.7
-5 0 -10 13.1 5.4
5 0 10 6.3 7.8
-6 0 -10 13.1 5.8
6 0 10 -3.3 7.7
7 -1 -10 22.7 9.5
-7 1 10 10.2 7.5
6 -1 -10 -1.1 6.4
-6 1 10 9.7 6.3
5 -1 -10 30.2 8.6
-5 1 10 28.7 6.7
4 -1 -10 30.7 7.7
-4 1 10 39 8.1
-4 1 10 21.3 5.6
3 -1 -10 109.99 10.8
-3 1 10 109.79 11.4
2 -1 -10 40.6 7.4
-2 1 10 25 7.1
1 -1 -10 10.6 5.5
-1 1 10 3.6 5.2
0 -1 -10 41.7 6.7
0 1 10 36.1 7.6
-1 -1 -10 30.5 6.4
1 1 10 26.2 7.3
-2 -1 -10 17.7 5.4
2 1 10 -3 5.3
-3 -1 -10 122.39 10.2
3 1 10 94.29 12.1
-4 -1 -10 76.99 9
4 1 10 87.09 12.7
-5 -1 -10 12.8 5.6
5 1 10 -0.4 7.6
-6 -1 -10 124.99 12.5
6 1 10 100.09 13.5
6 -2 -10 7.2 8.2
5 -2 -10 15.9 8
-5 2 10 2.4 5.4
4 -2 -10 114.19 12.2
-4 2 10 115.39 12.3
3 -2 -10 54.19 9.1
-3 2 10 43.4 9.2
2 -2 -10 14.3 6.4
-2 2 10 16.3 6.6
1 -2 -10 1.5 5.4
-1 2 10 5.3 5.2
0 -2 -10 61.39 8.4
0 2 10 47.3 8.5
-1 -2 -10 99.49 10.4
1 2 10 72.89 10
-2 -2 -10 13.9 5.7
2 2 10 11.7 6.6
-3 -2 -10 10.5 5.7
3 2 10 4.2 6.5
-4 -2 -10 79.19 9.9
4 2 10 89.19 13
-5 -2 -10 83.59 10.7
5 2 10 61.39 11.5
6 -3 -10 44.1 10.7
5 -3 -10 6.2 8
-5 3 10 -2.7 5.8
4 -3 -10 29 8.9
-4 3 10 26.3 8
3 -3 -10 75.89 11
-3 3 10 80.09 11.5
2 -3 -10 36.9 8.4
-2 3 10 38.6 9.1
1 -3 -10 198.48 14
-1 3 10 201.08 15.3
0 -3 -10 6.6 6.1
0 3 10 2.7 5.9
-1 -3 -10 54.79 8.7
1 3 10 50.99 9.6
-2 -3 -10 5.5 5.7
2 3 10 9 6.6
-3 -3 -10 39.3 8.3
3 3 10 28.3 9.1
-4 -3 -10 107.09 11.7
4 3 10 106.69 14.7
5 3 10 4 7.7
5 -4 -10 25.8 10.1
-5 4 10 29.5 9.1
4 -4 -10 15.3 9.1
-4 4 10 17.5 8.3
3 -4 -10 -12.9 6.9
-3 4 10 -0.5 6.5
2 -4 -10 11.4 7.8
-2 4 10 17 8.1
1 -4 -10 279.57 16.9
-1 4 10 297.07 19
0 -4 -10 27.1 7.9
0 4 10 19 7.1
-1 -4 -10 42.1 9.1
1 4 10 38.8 9.7
-2 -4 -10 96.29 11.5
2 4 10 73.19 11.8
-3 -4 -10 86.09 10.8
3 4 10 53.79 11.4
3 -5 -10 -3.4 7.9
-3 5 10 3.4 7.3
2 -5 -10 47.7 10.8
-2 5 10 33.6 9.7
1 -5 -10 41 9.3
-1 5 10 32 9.5
0 -5 -10 45 9.6
0 5 10 23.7 8.6
-1 -5 -10 68.39 10.5
1 5 10 35.1 9.5
2 5 10 65.79 12.9
2 8 -11 58.99 11.2
-2 -8 11 48.4 10
1 8 -11 41.5 9.9
-1 -8 11 48.3 10.1
0 8 -11 7.6 6.7
0 -8 11 6.3 7.3
-1 8 -11 41.8 9.2
1 -8 11 42 10.7
-2 8 -11 14.9 6.6
2 -8 11 11.6 8.4
-3 8 -11 94.99 12.4
3 -8 11 101.99 14.3
3 7 -11 22.4 8.4
2 7 -11 4.9 5.9
-2 -7 11 1.1 7.4
1 7 -11 9.4 6.2
-1 -7 11 14.3 7.6
0 7 -11 45.2 8.7
0 -7 11 39.8 9.8
-1 7 -11 21 7.2
1 -7 11 15.5 8.1
-2 7 -11 8.8 5.9
2 -7 11 16 8.5
-3 7 -11 45.6 8.9
3 -7 11 47.6 11.3
-4 7 -11 35.3 8.6
4 -7 11 39.2 10.9
-5 -6 11 32.5 9.2
3 6 -11 63.29 10.6
2 6 -11 96.59 12.1
-2 -6 11 80.09 10.9
1 6 -11 163.68 13.2
-1 -6 11 145.39 14.4
0 6 -11 5.3 4.8
0 -6 11 4 7.4
-1 6 -11 311.77 16.1
1 -6 11 260.07 18.3
-2 6 -11 199.08 13.3
2 -6 11 215.08 17.3
-3 6 -11 57.39 8.6
3 -6 11 90.09 12.9
-4 6 -11 50.09 8.9
4 -6 11 50.99 11.5
-5 6 -11 -0.1 5.9
5 -6 11 8.3 9.3
5 5 -11 66.79 9.6
-5 -5 11 62.49 10.8
4 5 -11 84.39 9.5
-4 -5 11 101.49 12.1
3 5 -11 24.8 7.4
-3 -5 11 13.8 7.3
2 5 -11 70.09 9.6
-2 -5 11 54.09 9.5
1 5 -11 3.3 4.9
-1 -5 11 -0.8 6.6
0 5 -11 338.17 15.9
0 -5 11 298.27 18.5
-1 5 -11 45.5 7.3
1 -5 11 56.79 10.4
-2 5 -11 27.5 6.4
2 -5 11 26.5 9.1
-3 5 -11 15.4 5.7
3 -5 11 9.3 7.9
-4 5 -11 -1 4.8
4 -5 11 0.2 7.8
-5 5 -11 2.3 5.6
5 -5 11 6.8 9.4
-6 5 -11 -3.7 5.2
6 -5 11 -8.7 8.9
6 4 -11 37.8 9
-6 -4 11 61.79 10.7
5 4 -11 26.3 7.5
-5 -4 11 21.3 7.2
4 4 -11 65.59 8.7
-4 -4 11 56.09 8.7
3 4 -11 -2.9 4.3
3 4 -11 4 5.6
-3 -4 11 -5.5 6.1
2 4 -11 96.79 9
2 4 -11 106.39 10
-2 -4 11 102.69 11.6
1 4 -11 218.18 12.7
-1 -4 11 183.08 14.6
0 4 -11 27.8 5.8
0 -4 11 25.7 8
-1 4 -11 66.59 8.1
1 -4 11 74.19 11
-2 4 -11 127.39 9.7
2 -4 11 117.29 13.3
-3 4 -11 63.59 8.6
3 -4 11 35.3 9.3
-4 4 -11 51.19 8.1
4 -4 11 50.49 10.6
-5 4 -11 87.59 10.2
5 -4 11 89.49 13.5
-6 4 -11 24.5 7.5
6 -4 11 31.5 11.3
6 3 -11 41.4 9.6
-6 -3 11 71.29 10.6
5 3 -11 39.5 8.2
-5 -3 11 39.7 8
4 3 -11 32.2 7.6
-4 -3 11 36.4 7.2
3 3 -11 23.1 6.3
-3 -3 11 9.7 6.5
2 3 -11 38.9 6.7
2 3 -11 37 6.4
-2 -3 11 34.2 8.2
1 3 -11 3.7 3.9
-1 -3 11 3.1 6.5
0 3 -11 6 4
0 -3 11 6.6 6.8
-1 3 -11 59.09 6.9
1 -3 11 68.99 10.3
-2 3 -11 64.29 7.5
2 -3 11 49.5 9.5
-3 3 -11 31 5.8
3 -3 11 18.2 8.3
-4 3 -11 120.39 9.5
4 -3 11 135.49 15.9
-5 3 -11 156.88 11.5
5 -3 11 142.99 16.2
-6 3 -11 90.59 10.6
6 -3 11 92.49 14.5
-7 -2 11 80.69 12.9
6 2 -11 79.99 11.1
-6 -2 11 102.09 12.5
5 2 -11 42.7 8.8
-5 -2 11 47.9 8.6
4 2 -11 99.09 10.8
-4 -2 11 104.69 9.8
-4 -2 11 103.09 12.4
3 2 -11 133.89 11
-3 -2 11 129.49 9.7
-3 -2 11 124.89 11.9
2 2 -11 28.1 6
2 2 -11 27.2 6.3
-2 -2 11 17.5 7
1 2 -11 9.2 4
1 2 -11 7.9 4.8
-1 -2 11 9.5 6.6
0 2 -11 4.8 4.6
0 2 -11 9.2 3.9
0 -2 11 12.3 6.8
-1 2 -11 39 5.8
-1 2 -11 35.4 5.2
1 -2 11 30.1 8.4
-2 2 -11 31.7 5.2
2 -2 11 28.5 8.2
-3 2 -11 41 6
3 -2 11 31.4 9.3
-4 2 -11 24.3 5.4
4 -2 11 35.1 10.3
-5 2 -11 29.6 6.2
5 -2 11 16.4 9.4
-6 2 -11 6.4 6
6 -2 11 4 9.2
-7 -1 11 18.4 8.2
6 1 -11 18.9 8.4
-6 -1 11 22.3 7.4
5 1 -11 175.08 14.9
-5 -1 11 199.78 12.7
4 1 -11 92.19 10.5
-4 -1 11 90.89 10.6
-4 -1 11 104.79 9.3
3 1 -11 65.49 8.6
-3 -1 11 95.59 8.1
-3 -1 11 84.99 10.3
2 1 -11 144.79 11.3
-2 -1 11 128.69 12.3
-2 -1 11 146.19 8.7
1 1 -11 64.69 6.8
1 1 -11 61.79 7.8
-1 -1 11 80.59 10.9
0 1 -11 208.18 9
0 1 -11 199.28 11.7
0 -1 11 229.98 15.6
-1 1 -11 24.3 3.9
-1 1 -11 14.9 5
1 -1 11 8.2 7.2
-2 1 -11 37.7 6.2
2 -1 11 43.7 9.3
-3 1 -11 56.29 6.8
3 -1 11 43.3 9.8
-4 1 -11 120.29 9.3
4 -1 11 87.89 13.5
-5 1 -11 12.7 5
5 -1 11 9.8 8.9
-6 1 -11 35 6.7
6 -1 11 20.1 10.9
6 0 -11 49.8 10.6
-6 0 11 42.2 8.6
5 0 -11 5.7 7.2
-5 0 11 12.2 5.5
4 0 -11 128.19 12.6
-4 0 11 118.49 11.8
-4 0 11 126.39 9.3
3 0 -11 75.39 9.5
-3 0 11 90.79 8.2
-3 0 11 82.69 10.5
2 0 -11 64.29 8.4
-2 0 11 61.29 9.5
1 0 -11 198.38 12.5
-1 0 11 189.58 14.3
0 0 -11 27.8 6.1
0 0 11 31.8 8.1
-1 0 -11 3.4 4.5
1 0 11 -2.6 5.5
-2 0 -11 41.8 6.8
2 0 11 31.7 8.7
-3 0 -11 24.9 5.9
3 0 11 20.1 8.9
-4 0 -11 25.5 5.9
4 0 11 12.3 8.5
-5 0 -11 9 5.2
5 0 11 -15 6.8
-6 0 -11 129.89 11.5
6 0 11 97.69 14.5
6 -1 -11 8.3 8.6
5 -1 -11 47.2 10
4 -1 -11 10.2 7.3
-4 1 11 14.5 7.3
3 -1 -11 225.38 14.8
-3 1 11 217.98 15.3
2 -1 -11 48.5 8.2
-2 1 11 47.1 9.1
1 -1 -11 33.6 7.6
-1 1 11 33.5 8.1
0 -1 -11 122.59 10.8
0 1 11 101.99 12.6
-1 -1 -11 21.9 6.5
1 1 11 24.6 7.7
-2 -1 -11 13.4 6
2 1 11 10.3 7.6
-3 -1 -11 68.79 8.4
3 1 11 56.59 10.8
-4 -1 -11 78.69 9.2
4 1 11 90.19 14.3
-5 -1 -11 10.6 6
5 1 11 -0.6 8
6 -2 -11 19.9 9.9
5 -2 -11 5.8 8.1
-5 2 11 17.2 8.5
4 -2 -11 98.39 12
-4 2 11 98.49 12.6
3 -2 -11 71.89 11
-3 2 11 39.8 9.3
2 -2 -11 23.8 7.8
-2 2 11 21 7.9
1 -2 -11 102.09 10.9
-1 2 11 88.99 11.7
0 -2 -11 14.7 6.1
0 2 11 0.1 6.2
-1 -2 -11 26.1 7.3
1 2 11 20.7 7.5
-2 -2 -11 16.4 6.6
2 2 11 -2.2 5.9
-3 -2 -11 93.79 10.1
3 2 11 84.79 12.6
-4 -2 -11 18.5 6.8
4 2 11 -0.5 7.6
5 2 11 5.8 8.4
5 -3 -11 26.6 10.3
-5 3 11 18.3 8.3
4 -3 -11 34.4 9.9
-4 3 11 27.4 8.6
3 -3 -11 3 7.6
-3 3 11 10 7.4
2 -3 -11 109.29 12.7
-2 3 11 116.99 14.1
1 -3 -11 106.99 11.7
-1 3 11 94.49 13.3
0 -3 -11 66.69 9.7
0 3 11 69.19 11.6
-1 -3 -11 42 8.7
1 3 11 44 9.7
-2 -3 -11 44 8.7
2 3 11 42.5 10
-3 -3 -11 7.6 6.1
3 3 11 5.6 7.7
4 3 11 19.8 9.2
-4 4 11 24 9.3
3 -4 -11 15.5 9.1
-3 4 11 8.9 8
2 -4 -11 69.09 11.8
-2 4 11 51.99 10.6
1 -4 -11 -1.2 7
-1 4 11 0.3 6.5
0 -4 -11 10.2 7.2
0 4 11 1.8 6.6
-1 -4 -11 46.5 10.4
1 4 11 29.5 9.1
-2 -4 -11 40.3 9.1
2 4 11 26.8 10.2
0 8 -12 28.7 8.6
0 -8 12 26.6 9.4
-1 8 -12 26.1 7.9
1 -8 12 23.9 10
3 7 -12 52.29 11.3
2 7 -12 32.1 8.9
-2 -7 12 30.4 10
1 7 -12 46.3 9.7
-1 -7 12 43.2 10.5
0 7 -12 92.69 12.4
0 -7 12 62.49 12
-1 7 -12 23.3 7.5
1 -7 12 18.5 9.5
-2 7 -12 120.19 12
2 -7 12 99.29 14.3
-3 7 -12 16.9 6.7
3 -7 12 8 9.5
4 -7 12 20.9 10.9
3 6 -12 15 8.3
2 6 -12 51.49 10
-2 -6 12 25 8.9
1 6 -12 108.69 12.8
-1 -6 12 127.09 14.2
0 6 -12 19.3 6.8
0 -6 12 4 8.3
-1 6 -12 17 6.1
1 -6 12 16.5 9.1
-2 6 -12 6.2 5.3
2 -6 12 -7 7.4
-3 6 -12 159.58 12.7
3 -6 12 130.89 15.9
-4 6 -12 7.2 5.8
4 -6 12 -2.4 9
5 -6 12 7.9 11
5 5 -12 120.29 12.1
-5 -5 12 131.19 13.6
4 5 -12 3.2 5.9
-4 -5 12 27.4 7.5
3 5 -12 10.9 7.4
-3 -5 12 9.2 9.6
2 5 -12 33.3 7.9
-2 -5 12 17.7 8.4
1 5 -12 4.4 5.2
-1 -5 12 4.8 7.6
0 5 -12 116.69 10.7
0 -5 12 124.89 14.3
-1 5 -12 129.49 10.8
1 -5 12 132.79 15.1
-2 5 -12 334.87 16.3
2 -5 12 331.87 20.5
-3 5 -12 38.7 7.5
3 -5 12 34.5 10.3
-4 5 -12 103.79 11.3
4 -5 12 98.39 15
-5 5 -12 83.99 11
5 -5 12 91.19 14.7
5 4 -12 42.2 8.9
-5 -4 12 57.89 9.9
4 4 -12 49.8 8.4
-4 -4 12 54.79 9.3
3 4 -12 40.5 7.2
3 4 -12 43 9
-3 -4 12 37.2 9.3
2 4 -12 16.9 6
-2 -4 12 16.4 8.5
1 4 -12 26 6.4
-1 -4 12 18.4 8.3
0 4 -12 166.48 11.3
0 -4 12 171.58 15.7
-1 4 -12 7.5 4.6
1 -4 12 4.7 7.8
-2 4 -12 8.1 4.5
2 -4 12 10.6 8.6
-3 4 -12 52.99 7.7
3 -4 12 58.59 12.3
-4 4 -12 19.2 6.1
4 -4 12 28 10.4
-5 4 -12 16 6.1
5 -4 12 13.9 10.2
6 -4 12 0.6 12.2
6 3 -12 24.9 8.7
-6 -3 12 48.7 9.7
5 3 -12 -4 5.8
-5 -3 12 4.5 5.8
4 3 -12 46.7 8.6
-4 -3 12 57.89 8.8
3 3 -12 60.49 9
-3 -3 12 62.79 10
-3 -3 12 70.79 9.3
2 3 -12 57.49 8.2
2 3 -12 55.49 7.6
-2 -3 12 52.49 10
1 3 -12 104.89 8.8
1 3 -12 97.29 9.2
-1 -3 12 87.59 11.7
0 3 -12 27.7 5.5
0 -3 12 37.4 9.7
-1 3 -12 62.59 7.4
1 -3 12 49.8 10.4
-2 3 -12 99.79 8.3
2 -3 12 71.09 11.5
-3 3 -12 3.6 4
3 -3 12 -3 7.5
-4 3 -12 35.7 6.6
4 -3 12 43.5 11.4
-5 3 -12 12.3 5.4
5 -3 12 3.2 9.7
-6 3 -12 46.3 8.5
6 -3 12 41.9 12.3
6 2 -12 53.99 10.2
-6 -2 12 48.3 9.4
5 2 -12 134.69 13.7
-5 -2 12 121.99 11.5
4 2 -12 92.79 10.9
-4 -2 12 106.69 10.2
3 2 -12 46 8
-3 -2 12 52.59 9.3
-3 -2 12 64.89 8.4
2 2 -12 182.08 12.2
-2 -2 12 175.08 14.9
1 2 -12 42.1 6.9
1 2 -12 32.9 5.7
-1 -2 12 40.9 9.3
0 2 -12 29.3 5.2
0 2 -12 27.3 6.3
0 -2 12 23.2 8.3
-1 2 -12 35.8 6.4
-1 2 -12 41.5 5.6
1 -2 12 29.6 9.3
-2 2 -12 67.59 6.7
-2 2 -12 66.19 7.4
2 -2 12 66.49 10.7
-3 2 -12 73.39 9.4
3 -2 12 54.99 11.2
4 -2 12 29.5 10.3
5 -2 12 102.89 14.6
6 -2 12 28.7 11.5
6 1 -12 16.7 8.9
-6 -1 12 11.2 6.5
5 1 -12 88.99 11.8
-5 -1 12 101.69 10.4
4 1 -12 6.9 6.7
-4 -1 12 -4.4 5.9
-4 -1 12 5.3 4.5
3 1 -12 288.27 15.8
-3 -1 12 291.27 13.2
-3 -1 12 286.77 17
2 1 -12 12.4 6.1
-2 -1 12 13.1 6.8
-2 -1 12 19.6 4.8
1 1 -12 4.2 5.4
-1 -1 12 4.9 6.9
0 1 -12 13.6 5.7
0 -1 12 7.3 7.2
-1 1 -12 94.09 9.5
1 -1 12 79.09 11.9
-2 1 -12 11.4 4.9
2 -1 12 6.1 8
-3 1 -12 7.8 4.9
3 -1 12 -3.2 7.3
-4 1 -12 70.19 8.1
4 -1 12 57.79 12
-5 1 -12 106.79 9.9
5 -1 12 56.69 12.6
6 0 -12 51.69 11.1
5 0 -12 -10.5 6.9
4 0 -12 -7.1 6.7
-4 0 12 -10.5 5.6
3 0 -12 -0.4 6.2
-3 0 12 1.2 6.5
2 0 -12 4.2 6.3
-2 0 12 1.6 6.2
1 0 -12 48.3 7.8
-1 0 12 71.39 10.9
0 0 -12 -1.8 5.1
0 0 12 1.2 6
-1 0 -12 27.7 6.5
1 0 12 6.7 6.9
-2 0 -12 102.49 10.7
2 0 12 85.29 12.4
-3 0 -12 51.19 8
3 0 12 39 10
-4 0 -12 56.19 7.7
4 0 12 62.39 12.5
-5 0 -12 53.79 7.9
5 0 12 28.4 10.6
5 -1 -12 67.69 11.5
4 -1 -12 12.8 8.3
-4 1 12 9.7 7.4
3 -1 -12 64.99 10.2
-3 1 12 57.19 10.4
2 -1 -12 128.59 13.1
-2 1 12 133.39 14
1 -1 -12 100.29 10.7
-1 1 12 93.59 12.1
0 -1 -12 24.8 7
0 1 12 25.6 8.9
-1 -1 -12 10.5 6
1 1 12 0.8 6
-2 -1 -12 55.19 8.3
2 1 12 37.5 9.7
-3 -1 -12 22.9 6.4
3 1 12 8.3 8.9
-4 -1 -12 58.89 8.8
4 1 12 32.8 10.9
5 -2 -12 1.4 8.5
4 -2 -12 65.29 11.4
-4 2 12 69.79 11.6
3 -2 -12 131.99 13.7
-3 2 12 98.49 13.3
2 -2 -12 63.39 10.3
-2 2 12 62.99 11.1
1 -2 -12 62.79 10.3
-1 2 12 57.19 10.5
0 -2 -12 39.5 8.7
0 2 12 36 9.9
-1 -2 -12 20.1 7.1
1 2 12 12.8 7.4
-2 -2 -12 54.09 9.1
2 2 12 40.5 10.1
-3 -2 -12 13.3 7.1
3 2 12 11.9 8.9
4 2 12 10.6 9.2
-4 3 12 66.29 12.1
3 -3 -12 23 9.5
-3 3 12 18.2 8.8
2 -3 -12 0.8 7.6
-2 3 12 2 6.9
1 -3 -12 48.6 9.9
-1 3 12 26.8 9.2
0 -3 -12 5.5 7.3
0 3 12 7.1 6.9
-1 -3 -12 115.09 12.7
1 3 12 103.79 14.8
-2 -3 -12 11.1 7.7
2 3 12 18.7 9.1
-1 4 12 24.6 10.5
0 4 12 -5.6 7.1
1 7 -13 60.99 11.8
-1 -7 13 35.6 11.1
0 7 -13 18.2 8.2
0 -7 13 15.7 10.6
-1 7 -13 11.7 6.5
1 -7 13 -4.2 8.9
-2 7 -13 119.79 13.8
2 -7 13 115.29 16.2
3 6 -13 27.8 9.7
2 6 -13 36.8 9.6
-2 -6 13 39.9 10.7
1 6 -13 73.29 11.2
-1 -6 13 65.79 12.4
0 6 -13 39.4 9
0 -6 13 25.7 10.1
-1 6 -13 198.18 14.1
1 -6 13 187.88 18.3
-2 6 -13 81.09 10.6
2 -6 13 71.49 13.3
-3 6 -13 39.8 8.7
3 -6 13 40.7 11.7
4 -6 13 39.8 12.1
4 5 -13 -7.6 5.5
-4 -5 13 2.8 5.3
3 5 -13 68.79 11.6
2 5 -13 1.1 5.7
-2 -5 13 -7.9 7.9
1 5 -13 92.29 11
-1 -5 13 82.79 12.9
0 5 -13 14.3 6.3
0 -5 13 19 9.7
-1 5 -13 15.8 5.7
1 -5 13 4.9 9
-2 5 -13 90.29 10.4
2 -5 13 91.49 14.7
-3 5 -13 35.2 7.2
3 -5 13 33.9 11.3
-4 5 -13 4.2 5.3
4 -5 13 -0.6 9.9
-5 -4 13 42.8 9.5
4 4 -13 51.09 8.9
-4 -4 13 52.29 9.5
3 4 -13 16.2 6.7
-3 -4 13 9.8 8.6
2 4 -13 22.2 7
2 4 -13 23.1 6.4
-2 -4 13 17.5 8.9
1 4 -13 84.99 10.1
-1 -4 13 68.69 12.5
0 4 -13 37.2 6.8
0 -4 13 38.8 10.7
-1 4 -13 69.69 8.5
1 -4 13 65.79 12.5
-2 4 -13 63.29 8.2
2 -4 13 51.49 11.6
-3 4 -13 41.7 7.3
3 -4 13 45.3 12.1
-4 4 -13 24.6 6.6
4 -4 13 33.4 11.8
-5 4 -13 48 8.2
5 -4 13 43.5 12.9
5 3 -13 26.7 8.5
-5 -3 13 48.9 9
4 3 -13 19.4 7.3
-4 -3 13 31 7.4
3 3 -13 61.49 8.9
-3 -3 13 53.69 10.4
-3 -3 13 62.59 8.5
2 3 -13 52.19 7.9
2 3 -13 65.59 9.1
-2 -3 13 53.79 10.5
1 3 -13 71.29 8.4
1 3 -13 62.29 8.1
-1 -3 13 56.89 11.2
0 3 -13 27.8 5.8
0 -3 13 16.6 8.8
-1 3 -13 7.2 4.1
1 -3 13 -3.8 7.6
-2 3 -13 47.6 6.7
2 -3 13 54.99 12.2
-3 3 -13 32.2 6.2
3 -3 13 14.9 9.8
4 -3 13 10.7 10.3
5 -3 13 10 10.4
5 2 -13 1.6 7.2
-5 -2 13 14.4 6.6
4 2 -13 137.29 13.3
-4 -2 13 142.29 11.4
3 2 -13 17.3 7.3
-3 -2 13 32.1 6.4
-3 -2 13 18.3 8.2
2 2 -13 48.8 8.4
-2 -2 13 54.99 7.2
-2 -2 13 38.1 9.9
1 2 -13 7.4 6
1 2 -13 7.7 7.8
-1 -2 13 16.4 8.5
0 2 -13 116.29 10.9
0 -2 13 114.99 14.2
-1 2 -13 7.7 5.4
1 -2 13 4.4 8.2
-2 2 -13 -0.8 4.8
2 -2 13 -2.9 8.3
3 -2 13 -0.2 8.9
4 -2 13 -4.5 8.6
5 -2 13 4.9 10.2
5 1 -13 34.8 10.3
4 1 -13 36.7 9.4
3 1 -13 16.3 7.3
-3 -1 13 4.9 7
2 1 -13 110.09 11.2
-2 -1 13 118.49 13.8
1 1 -13 67.99 9
-1 -1 13 59.99 10.9
0 1 -13 16.5 6.2
0 -1 13 24.8 9
-1 1 -13 73.69 8.8
1 -1 13 63.99 11.7
-2 1 -13 281.27 14.1
2 -1 13 245.28 19.5
-3 1 -13 93.79 9.7
3 -1 13 71.09 13.5
-4 1 -13 32.2 6.9
4 -1 13 20.2 11
5 -1 13 94.29 15.9
5 0 -13 5.5 8.5
4 0 -13 14 8.2
-4 0 13 14.7 8
3 0 -13 -0.7 6.9
-3 0 13 2.5 6.9
2 0 -13 -0.3 6.4
-2 0 13 12.1 7.7
1 0 -13 4.5 6.6
-1 0 13 -1.2 6.7
0 0 -13 26.8 7.6
0 0 13 24.5 9.2
-1 0 -13 94.59 10.3
1 0 13 82.69 13.5
-2 0 -13 26.6 7.1
2 0 13 13.8 8.6
-3 0 -13 15.6 6.9
3 0 13 23.3 10.1
-4 0 -13 35.8 7.5
4 0 13 22 10.4
4 -1 -13 28.1 9.5
-4 1 13 15.1 8.6
3 -1 -13 127.79 13.6
-3 1 13 130.09 15.4
2 -1 -13 -0.4 6.9
-2 1 13 8.6 7.7
1 -1 -13 3.9 7.2
-1 1 13 9.5 8
0 -1 -13 12.9 7.1
0 1 13 11.5 7.9
-1 -1 -13 5.1 6
1 1 13 -7.9 6.2
-2 -1 -13 31.7 7.9
2 1 13 29.4 9.8
-3 -1 -13 21.1 7.5
3 1 13 11.9 8.9
3 -2 -13 124.49 14.1
-3 2 13 105.69 14.3
2 -2 -13 44 10.1
-2 2 13 56.59 11.8
1 -2 -13 44.5 10.1
-1 2 13 56.19 11.7
0 -2 -13 7.7 7.4
0 2 13 14.9 7.9
-1 -2 -13 18.1 7.4
1 2 13 1.1 7.6
-2 -2 -13 74.49 10.9
2 2 13 47.5 11.6
-1 3 13 0 8.1
0 3 13 7.4 8.3
2 6 -14 94.39 13.4
-2 -6 14 76.79 13.9
1 6 -14 30.9 8.6
-1 -6 14 33.9 11.3
0 6 -14 32.4 8.3
0 -6 14 14.6 10.5
-1 6 -14 74.99 11
1 -6 14 66.59 13.4
-2 6 -14 36.9 8.4
2 -6 14 28.8 12
2 5 -14 41.1 9.5
-2 -5 14 19.3 10.7
1 5 -14 23.6 7.4
-1 -5 14 31.1 11
0 5 -14 14.2 6.4
0 -5 14 -7.5 9.6
-1 5 -14 96.79 11.1
1 -5 14 77.49 14.6
-2 5 -14 32.8 7.3
2 -5 14 30.6 11.8
-3 5 -14 22.2 6.4
3 -5 14 2.7 10.2
-4 -4 14 60.89 10.2
3 4 -14 22.8 7.3
-3 -4 14 27.7 7.8
2 4 -14 5 6.2
-2 -4 14 -7.3 8.3
1 4 -14 95.99 10.3
-1 -4 14 94.79 14.1
0 4 -14 56.69 8.3
0 -4 14 49.99 12.2
-1 4 -14 99.09 9.8
1 -4 14 98.59 14.8
-2 4 -14 40.1 7.2
2 -4 14 40.9 12.9
-3 4 -14 19.8 5.8
3 -4 14 14.9 10.8
-4 4 -14 36.6 9.9
4 -4 14 43.5 13.4
4 3 -14 -12 6.1
-4 -3 14 20.6 6.4
3 3 -14 32.3 8.3
-3 -3 14 45.7 8.1
-3 -3 14 16.6 9.5
2 3 -14 10.7 6.5
-2 -3 14 4.9 8.9
1 3 -14 32.5 7.4
1 3 -14 12 5.3
-1 -3 14 31.8 10.5
0 -3 14 40.3 10.9
1 -3 14 100.39 14.5
2 -3 14 -4.3 8.6
3 -3 14 29.8 11.2
4 -3 14 3.4 10.9
4 2 -14 6.7 7.7
3 2 -14 112.39 11.9
-3 -2 14 129.79 14.7
2 2 -14 66.79 9.7
-2 -2 14 78.39 12.7
1 2 -14 46.8 8.2
-1 -2 14 40.9 10.9
0 2 -14 77.99 9.4
0 -2 14 92.99 14.3
-1 2 -14 94.89 9.7
1 -2 14 116.79 15.8
-2 2 -14 124.19 11.4
2 -2 14 112.69 15.8
3 -2 14 19.4 10.7
4 -2 14 -3.1 9.7
4 1 -14 32.6 9.3
3 1 -14 -2.7 6.5
-3 -1 14 -14.4 6.6
2 1 -14 27.5 7.8
-2 -1 14 20.9 9.5
1 1 -14 37.7 8.6
-1 -1 14 20.5 9.2
0 1 -14 86.69 10.1
0 -1 14 65.29 12.8
-1 1 -14 123.89 12.2
1 -1 14 81.49 13.4
-2 1 -14 18 6.9
2 -1 14 23.6 10.9
-3 1 -14 24 6.7
3 -1 14 33.2 11.4
3 0 -14 24.9 8.9
-3 0 14 23.4 9.6
2 0 -14 21.5 8.7
-2 0 14 17 9.2
1 0 -14 10.9 7.4
-1 0 14 12.6 8.7
0 0 -14 0.2 6.8
0 0 14 0.1 8.3
-1 0 -14 124.29 12.6
1 0 14 93.49 14.2
-2 0 -14 70.79 9.6
2 0 14 68.69 12.7
-3 0 -14 30.8 7.7
3 0 14 19.6 10.1
3 -1 -14 12.1 8.6
-3 1 14 -9.5 7.2
2 -1 -14 30 9.6
-2 1 14 33.9 10.4
1 -1 -14 24.3 8.5
-1 1 14 6.2 8.4
0 -1 -14 54.69 10.3
0 1 14 29.9 10.1
-1 -1 -14 12.5 7.5
1 1 14 4.9 8.4
2 1 14 21.1 9.5
1 5 -15 73.09 11.1
-1 -5 15 56.89 13.6
0 5 -15 80.29 11.1
0 -5 15 76.99 15.7
-1 5 -15 13 6.4
1 -5 15 4.9 11.1
2 4 -15 47.5 9.8
-2 -4 15 44.2 12.5
1 4 -15 38.9 7.8
-1 -4 15 11.9 10.9
0 4 -15 13.6 5.6
0 -4 15 6.6 10.4
1 -4 15 35.2 13.1
2 -4 15 -7 9.6
-3 -3 15 -18.5 12.8
2 3 -15 -1.6 6.3
-2 -3 15 -12 8.8
1 3 -15 2.2 6.1
-1 -3 15 -17 8.1
0 -3 15 19.5 10.9
1 -3 15 73.39 14
2 -3 15 3.2 10.9
-3 -2 15 -6.2 8.2
2 2 -15 7.7 7
-2 -2 15 11.3 8.9
1 2 -15 9.5 6.9
-1 -2 15 -4.3 8.9
0 2 -15 209.08 14.5
0 -2 15 219.78 20.6
-1 2 -15 80.19 10.2
1 -2 15 92.79 16.3
2 -2 15 33.9 12.5
2 1 -15 22.3 8.3
-2 -1 15 27.2 10.4
1 1 -15 29.9 8.6
-1 -1 15 14.8 9.8
0 1 -15 52.89 9.6
0 -1 15 49 12
-1 1 -15 19.7 7.6
1 -1 15 8.6 9.8
2 -1 15 125.99 17.6
1 0 -15 3.1 7.8
-1 0 15 18.6 9.7
0 0 -15 7 7.7
0 0 15 2.1 8.8
1 0 15 -0.2 9.4
loop_
_geom_angle_atom_site_label_1
_geom_angle_atom_site_label_2
_geom_angle_atom_site_label_3
_geom_angle
_geom_angle_site_symmetry_1
_geom_angle_site_symmetry_3
_geom_angle_publ_flag
B9B S1R C3 105.96(18) . . ?
C5 N1 C2 108.6(3) . . ?
B3A N1 C2 125.9(3) . . ?
B3A N1 C5 124.9(3) . . ?
B3A C1A C2A 59.52(19) . . ?
B4A C1A C2A 105.0(2) . . ?
B4A C1A B3A 59.46(17) . . ?
B5A C1A C2A 108.5(2) . . ?
B5A C1A B3A 108.6(2) . . ?
B5A C1A B4A 58.54(18) . . ?
B6A C1A C2A 60.40(19) . . ?
B6A C1A B3A 107.9(2) . . ?
B6A C1A B4A 104.3(2) . . ?
B6A C1A B5A 59.9(2) . . ?
H1A C1A C2A 122.17(15) . . ?
H1A C1A B3A 121.25(15) . . ?
H1A C1A B4A 124.72(15) . . ?
H1A C1A B5A 121.20(15) . . ?
H1A C1A B6A 122.59(16) . . ?
B2B B1B H1B 121.54(17) . . ?
C3B B1B H1B 125.46(17) . . ?
C3B B1B B2B 58.1(2) . . ?
B4B B1B H1B 121.60(17) . . ?
B4B B1B B2B 108.2(3) . . ?
B4B B1B C3B 59.4(2) . . ?
B5B B1B H1B 121.69(19) . . ?
B5B B1B B2B 108.1(3) . . ?
B5B B1B C3B 105.3(3) . . ?
B5B B1B B4B 60.3(2) . . ?
C6B B1B H1B 125.70(17) . . ?
C6B B1B B2B 58.3(2) . . ?
C6B B1B C3B 100.7(3) . . ?
C6B B1B B4B 105.0(3) . . ?
C6B B1B B5B 58.9(2) . . ?
N1 C2 O6 126.4(4) . . ?
C3 C2 O6 126.5(4) . . ?
C3 C2 N1 107.1(3) . . ?
B3A C2A C1A 59.98(18) . . ?
B6A C2A C1A 59.25(19) . . ?
B6A C2A B3A 107.3(2) . . ?
B7A C2A C1A 107.4(2) . . ?
B7A C2A B3A 60.20(18) . . ?
B7A C2A B6A 106.9(2) . . ?
B11A C2A C1A 106.7(2) . . ?
B11A C2A B3A 107.2(2) . . ?
B11A C2A B6A 59.6(2) . . ?
B11A C2A B7A 59.10(18) . . ?
H2A C2A C1A 122.29(15) . . ?
H2A C2A B3A 121.76(15) . . ?
H2A C2A B6A 122.40(16) . . ?
H2A C2A B7A 122.17(15) . . ?
H2A C2A B11A 122.62(16) . . ?
C2 C3 S1R 115.5(3) . . ?
C4 C3 S1R 136.8(3) . . ?
C4 C3 C2 107.7(3) . . ?
H4 C4 C3 125.2(2) . . ?
C5 C4 C3 109.7(3) . . ?
C5 C4 H4 125.15(19) . . ?
N1 C5 O7 124.2(3) . . ?
C4 C5 O7 128.9(3) . . ?
C4 C5 N1 106.9(3) . . ?
B2B B7B H7B 121.86(19) . . ?
C3B B7B H7B 125.48(18) . . ?
C3B B7B B2B 57.8(2) . . ?
B8B B7B H7B 121.45(19) . . ?
B8B B7B B2B 107.3(3) . . ?
B8B B7B C3B 58.3(2) . . ?
B11B B7B H7B 122.5(2) . . ?
B11B B7B B2B 60.2(2) . . ?
B11B B7B C3B 103.9(3) . . ?
B11B B7B B8B 108.1(3) . . ?
B12B B7B H7B 121.97(19) . . ?
B12B B7B B2B 108.1(3) . . ?
B12B B7B C3B 104.7(3) . . ?
B12B B7B B8B 60.7(2) . . ?
B12B B7B B11B 59.9(2) . . ?
B7B B2B B1B 108.1(3) . . ?
H2B B2B B1B 121.64(17) . . ?
H2B B2B B7B 121.61(19) . . ?
C3B B2B B1B 57.7(2) . . ?
C3B B2B B7B 59.6(2) . . ?
C3B B2B H2B 125.63(17) . . ?
C6B B2B B1B 58.3(2) . . ?
C6B B2B B7B 105.0(3) . . ?
C6B B2B H2B 125.70(17) . . ?
C6B B2B C3B 100.5(2) . . ?
B11B B2B B1B 108.2(2) . . ?
B11B B2B B7B 60.2(2) . . ?
B11B B2B H2B 121.59(18) . . ?
B11B B2B C3B 105.3(3) . . ?
B11B B2B C6B 59.1(2) . . ?
C1A B3A N1 121.8(3) . . ?
C2A B3A N1 129.3(3) . . ?
C2A B3A C1A 60.50(19) . . ?
B4A B3A N1 118.3(3) . . ?
B4A B3A C1A 57.73(18) . . ?
B4A B3A C2A 104.4(2) . . ?
B7A B3A N1 126.3(4) . . ?
B7A B3A C1A 108.1(2) . . ?
B7A B3A C2A 60.52(19) . . ?
B7A B3A B4A 103.9(2) . . ?
B8A B3A N1 120.7(3) . . ?
B8A B3A C1A 104.2(2) . . ?
B8A B3A C2A 104.4(2) . . ?
B8A B3A B4A 57.41(17) . . ?
B8A B3A B7A 57.52(17) . . ?
N1A B3A N1 11.0(13) . . ?
N1A B3A C1A 124(3) . . ?
N1A B3A C2A 140.3(13) . . ?
N1A B3A B4A 109.6(19) . . ?
N1A B3A B7A 127(3) . . ?
N1A B3A B8A 110.9(16) . . ?
B2A B3A N1 129.3(3) . . ?
B2A B3A C1A 60.50(19) . . ?
B2A B3A C2A 0.0 . . ?
B2A B3A B4A 104.4(2) . . ?
B2A B3A B7A 60.52(19) . . ?
B2A B3A B8A 104.4(2) . . ?
B2A B3A N1A 140.3(13) . . ?
B1A B3A N1 121.8(3) . . ?
B1A B3A C1A 0.0 . . ?
B1A B3A C2A 60.50(19) . . ?
B1A B3A B4A 57.73(18) . . ?
B1A B3A B7A 108.1(2) . . ?
B1A B3A B8A 104.2(2) . . ?
B1A B3A N1A 124(3) . . ?
B1A B3A B2A 60.50(19) . . ?
C6 B3A N1 118.3(3) . . ?
C6 B3A C1A 57.73(18) . . ?
C6 B3A C2A 104.4(2) . . ?
C6 B3A B4A 0.0 . . ?
C6 B3A B7A 103.9(2) . . ?
C6 B3A B8A 57.41(17) . . ?
C6 B3A N1A 109.6(19) . . ?
C6 B3A B2A 104.4(2) . . ?
C6 B3A B1A 57.73(18) . . ?
C8A B3A N1 120.7(3) . . ?
C8A B3A C1A 104.2(2) . . ?
C8A B3A C2A 104.4(2) . . ?
C8A B3A B4A 57.41(17) . . ?
C8A B3A B7A 57.52(17) . . ?
C8A B3A B8A 0.0 . . ?
C8A B3A N1A 110.9(16) . . ?
C8A B3A B2A 104.4(2) . . ?
C8A B3A B1A 104.2(2) . . ?
C8A B3A C6 57.41(17) . . ?
B7B C3B B1B 115.9(3) . . ?
B2B C3B B1B 64.2(2) . . ?
B2B C3B B7B 62.7(2) . . ?
H3B C3B B1B 116.88(17) . . ?
H3B C3B B7B 117.47(18) . . ?
H3B C3B B2B 116.95(17) . . ?
B4B C3B B1B 62.5(2) . . ?
B4B C3B B7B 115.0(3) . . ?
B4B C3B B2B 115.7(2) . . ?
B4B C3B H3B 117.53(16) . . ?
B8B C3B B1B 115.0(2) . . ?
B8B C3B B7B 62.6(2) . . ?
B8B C3B B2B 114.9(2) . . ?
B8B C3B H3B 117.86(16) . . ?
B8B C3B B4B 62.9(2) . . ?
B3A B4A C1A 62.82(18) . . ?
B5A B4A C1A 63.29(19) . . ?
B5A B4A B3A 115.3(2) . . ?
B8A B4A C1A 111.2(2) . . ?
B8A B4A B3A 61.18(17) . . ?
B8A B4A B5A 111.4(2) . . ?
B9A B4A C1A 115.4(2) . . ?
B9A B4A B3A 114.9(2) . . ?
B9A B4A B5A 62.89(19) . . ?
B9A B4A B8A 61.55(18) . . ?
H4A B4A C1A 118.02(15) . . ?
H4A B4A B3A 117.37(14) . . ?
H4A B4A B5A 117.96(15) . . ?
H4A B4A B8A 121.24(14) . . ?
H4A B4A B9A 117.12(15) . . ?
C3B B4B B1B 58.2(2) . . ?
H4B B4B B1B 121.34(17) . . ?
H4B B4B C3B 125.16(16) . . ?
B5B B4B B1B 60.6(2) . . ?
B5B B4B C3B 104.6(3) . . ?
B5B B4B H4B 122.11(19) . . ?
B8B B4B B1B 107.9(2) . . ?
B8B B4B C3B 58.66(19) . . ?
B8B B4B H4B 121.39(16) . . ?
B8B B4B B5B 108.2(3) . . ?
B9B B4B B1B 108.4(3) . . ?
B9B B4B C3B 104.5(2) . . ?
B9B B4B H4B 122.26(16) . . ?
B9B B4B B5B 60.0(2) . . ?
B9B B4B B8B 60.1(2) . . ?
B4A B5A C1A 58.17(17) . . ?
H5A B5A C1A 120.0(19) . . ?
H5A B5A B4A 117.3(19) . . ?
B6A B5A C1A 59.81(19) . . ?
B6A B5A B4A 104.0(2) . . ?
B6A B5A H5A 129.5(19) . . ?
B9A B5A C1A 108.0(2) . . ?
B9A B5A B4A 59.00(18) . . ?
B9A B5A H5A 117.4(19) . . ?
B9A B5A B6A 108.0(2) . . ?
B10A B5A C1A 108.5(2) . . ?
B10A B5A B4A 104.5(2) . . ?
B10A B5A H5A 127.3(19) . . ?
B10A B5A B6A 60.7(2) . . ?
B10A B5A B9A 59.53(19) . . ?
B1A B5A C1A 0.0 . . ?
B1A B5A B4A 58.17(17) . . ?
B1A B5A H5A 120.0(19) . . ?
B1A B5A B6A 59.81(19) . . ?
B1A B5A B9A 108.0(2) . . ?
B1A B5A B10A 108.5(2) . . ?
C6 B5A C1A 58.17(17) . . ?
C6 B5A B4A 0.0 . . ?
C6 B5A H5A 117.3(19) . . ?
C6 B5A B6A 104.0(2) . . ?
C6 B5A B9A 59.00(18) . . ?
C6 B5A B10A 104.5(2) . . ?
C6 B5A B1A 58.17(17) . . ?
B4B B5B B1B 59.1(2) . . ?
H5B B5B B1B 122.10(19) . . ?
H5B B5B B4B 122.84(19) . . ?
C6B B5B B1B 58.2(2) . . ?
C6B B5B B4B 103.5(3) . . ?
C6B B5B H5B 125.38(18) . . ?
B9B B5B B1B 107.5(3) . . ?
B9B B5B B4B 60.4(2) . . ?
B9B B5B H5B 122.37(18) . . ?
B9B B5B C6B 104.2(3) . . ?
B10B B5B B1B 107.4(3) . . ?
B10B B5B B4B 107.7(3) . . ?
B10B B5B H5B 121.64(19) . . ?
B10B B5B C6B 58.5(2) . . ?
B10B B5B B9B 59.8(2) . . ?
C2A B6A C1A 60.35(19) . . ?
B5A B6A C1A 60.34(19) . . ?
B5A B6A C2A 108.9(2) . . ?
H6A B6A C1A 121.6(17) . . ?
H6A B6A C2A 124.6(18) . . ?
H6A B6A B5A 118.1(19) . . ?
B10A B6A C1A 108.1(2) . . ?
B10A B6A C2A 108.7(2) . . ?
B10A B6A B5A 59.72(19) . . ?
B10A B6A H6A 119.4(17) . . ?
B11A B6A C1A 108.0(2) . . ?
B11A B6A C2A 60.21(19) . . ?
B11A B6A B5A 107.8(2) . . ?
B11A B6A H6A 123.9(18) . . ?
B11A B6A B10A 60.02(19) . . ?
B2A B6A C1A 60.35(19) . . ?
B2A B6A C2A 0.0 . . ?
B2A B6A B5A 108.9(2) . . ?
B2A B6A H6A 124.6(18) . . ?
B2A B6A B10A 108.7(2) . . ?
B2A B6A B11A 60.21(19) . . ?
B1A B6A C1A 0.0 . . ?
B1A B6A C2A 60.35(19) . . ?
B1A B6A B5A 60.34(19) . . ?
B1A B6A H6A 121.6(17) . . ?
B1A B6A B10A 108.1(2) . . ?
B1A B6A B11A 108.0(2) . . ?
B1A B6A B2A 60.35(19) . . ?
B2B C6B B1B 63.4(2) . . ?
B5B C6B B1B 62.8(2) . . ?
B5B C6B B2B 115.5(3) . . ?
H6B C6B B1B 117.35(17) . . ?
H6B C6B B2B 117.33(17) . . ?
H6B C6B B5B 117.38(18) . . ?
B10B C6B B1B 114.5(3) . . ?
B10B C6B B2B 114.5(3) . . ?
B10B C6B B5B 62.6(2) . . ?
B10B C6B H6B 118.20(16) . . ?
B11B C6B B1B 115.4(3) . . ?
B11B C6B B2B 62.7(2) . . ?
B11B C6B B5B 115.1(3) . . ?
B11B C6B H6B 117.48(16) . . ?
B11B C6B B10B 62.5(2) . . ?
B3A B7A C2A 59.28(18) . . ?
H7A B7A C2A 124.5(17) . . ?
H7A B7A B3A 117.3(17) . . ?
B8A B7A C2A 104.7(2) . . ?
B8A B7A B3A 59.20(17) . . ?
B8A B7A H7A 119.6(17) . . ?
B11A B7A C2A 60.34(19) . . ?
B11A B7A B3A 107.4(2) . . ?
B11A B7A H7A 128.5(17) . . ?
B11A B7A B8A 104.3(2) . . ?
B12A B7A C2A 108.3(2) . . ?
B12A B7A B3A 108.4(2) . . ?
B12A B7A H7A 122.2(17) . . ?
B12A B7A B8A 58.77(18) . . ?
B12A B7A B11A 59.63(19) . . ?
B2A B7A C2A 0.0 . . ?
B2A B7A B3A 59.28(18) . . ?
B2A B7A H7A 124.5(17) . . ?
B2A B7A B8A 104.7(2) . . ?
B2A B7A B11A 60.34(19) . . ?
B2A B7A B12A 108.3(2) . . ?
C8A B7A C2A 104.7(2) . . ?
C8A B7A B3A 59.20(17) . . ?
C8A B7A H7A 119.6(17) . . ?
C8A B7A B8A 0.0 . . ?
C8A B7A B11A 104.3(2) . . ?
C8A B7A B12A 58.77(18) . . ?
C8A B7A B2A 104.7(2) . . ?
B4A B8A B3A 61.41(17) . . ?
B7A B8A B3A 63.29(18) . . ?
B7A B8A B4A 111.6(2) . . ?
H8A B8A B3A 117.07(15) . . ?
H8A B8A B4A 121.46(14) . . ?
H8A B8A B7A 117.64(15) . . ?
B9A B8A B3A 114.6(2) . . ?
B9A B8A B4A 60.97(17) . . ?
B9A B8A B7A 115.2(2) . . ?
B9A B8A H8A 117.70(15) . . ?
B12A B8A B3A 115.4(2) . . ?
B12A B8A B4A 110.7(2) . . ?
B12A B8A B7A 63.33(19) . . ?
B12A B8A H8A 118.33(15) . . ?
B12A B8A B9A 62.43(18) . . ?
C3B B8B B7B 59.1(2) . . ?
B4B B8B B7B 108.5(3) . . ?
B4B B8B C3B 58.48(19) . . ?
H8B B8B B7B 121.28(19) . . ?
H8B B8B C3B 125.01(16) . . ?
H8B B8B B4B 121.13(16) . . ?
B9B B8B B7B 108.1(3) . . ?
B9B B8B C3B 104.5(2) . . ?
B9B B8B B4B 60.3(2) . . ?
B9B B8B H8B 122.27(16) . . ?
B12B B8B B7B 59.5(2) . . ?
B12B B8B C3B 104.3(2) . . ?
B12B B8B B4B 108.4(2) . . ?
B12B B8B H8B 122.49(17) . . ?
B12B B8B B9B 60.25(19) . . ?
B5A B9A B4A 58.10(17) . . ?
B8A B9A B4A 57.47(17) . . ?
B8A B9A B5A 104.4(2) . . ?
H9A B9A B4A 116.0(18) . . ?
H9A B9A B5A 122.5(19) . . ?
H9A B9A B8A 118(2) . . ?
B10A B9A B4A 104.2(2) . . ?
B10A B9A B5A 60.01(19) . . ?
B10A B9A B8A 104.2(2) . . ?
B10A B9A H9A 132.3(19) . . ?
B12A B9A B4A 104.6(2) . . ?
B12A B9A B5A 107.9(2) . . ?
B12A B9A B8A 58.24(18) . . ?
B12A B9A H9A 126.5(19) . . ?
B12A B9A B10A 60.00(19) . . ?
C6 B9A B4A 0.0 . . ?
C6 B9A B5A 58.10(17) . . ?
C6 B9A B8A 57.47(17) . . ?
C6 B9A H9A 116.0(18) . . ?
C6 B9A B10A 104.2(2) . . ?
C6 B9A B12A 104.6(2) . . ?
C8A B9A B4A 57.47(17) . . ?
C8A B9A B5A 104.4(2) . . ?
C8A B9A B8A 0.0 . . ?
C8A B9A H9A 118(2) . . ?
C8A B9A B10A 104.2(2) . . ?
C8A B9A B12A 58.24(18) . . ?
C8A B9A C6 57.47(17) . . ?
B4B B9B S1R 120.1(2) . . ?
B5B B9B S1R 114.8(2) . . ?
B5B B9B B4B 59.7(2) . . ?
B8B B9B S1R 127.7(2) . . ?
B8B B9B B4B 59.60(19) . . ?
B8B B9B B5B 107.6(3) . . ?
B10B B9B S1R 119.5(2) . . ?
B10B B9B B4B 107.3(3) . . ?
B10B B9B B5B 60.0(2) . . ?
B10B B9B B8B 107.5(2) . . ?
B12B B9B S1R 126.9(2) . . ?
B12B B9B B4B 107.8(2) . . ?
B12B B9B B5B 108.2(3) . . ?
B12B B9B B8B 60.2(2) . . ?
B12B B9B B10B 59.9(2) . . ?
B6A B10A B5A 59.6(2) . . ?
B9A B10A B5A 60.46(19) . . ?
B9A B10A B6A 107.8(2) . . ?
H10A B10A B5A 121.60(15) . . ?
H10A B10A B6A 122.16(15) . . ?
H10A B10A B9A 121.52(15) . . ?
B11A B10A B5A 107.4(2) . . ?
B11A B10A B6A 59.65(19) . . ?
B11A B10A B9A 107.6(2) . . ?
B11A B10A H10A 122.34(15) . . ?
B12A B10A B5A 108.5(2) . . ?
B12A B10A B6A 107.6(2) . . ?
B12A B10A B9A 60.37(19) . . ?
B12A B10A H10A 121.61(15) . . ?
B12A B10A B11A 59.50(19) . . ?
C6B B10B B5B 58.9(2) . . ?
B9B B10B B5B 60.2(2) . . ?
B9B B10B C6B 104.7(3) . . ?
H10B B10B B5B 120.79(19) . . ?
H10B B10B C6B 124.94(16) . . ?
H10B B10B B9B 122.04(16) . . ?
B11B B10B B5B 109.1(3) . . ?
B11B B10B C6B 59.0(2) . . ?
B11B B10B B9B 108.7(2) . . ?
B11B B10B H10B 121.01(17) . . ?
B12B B10B B5B 109.0(3) . . ?
B12B B10B C6B 104.6(2) . . ?
B12B B10B B9B 60.7(2) . . ?
B12B B10B H10B 122.12(16) . . ?
B12B B10B B11B 59.8(2) . . ?
B6A B11A C2A 60.22(18) . . ?
B7A B11A C2A 60.56(18) . . ?
B7A B11A B6A 108.6(2) . . ?
B10A B11A C2A 108.9(2) . . ?
B10A B11A B6A 60.33(19) . . ?
B10A B11A B7A 108.6(2) . . ?
H11A B11A C2A 116.9(17) . . ?
H11A B11A B6A 120.9(18) . . ?
H11A B11A B7A 119.3(18) . . ?
H11A B11A B10A 125.0(18) . . ?
B12A B11A C2A 109.2(2) . . ?
B12A B11A B6A 108.4(2) . . ?
B12A B11A B7A 60.58(18) . . ?
B12A B11A B10A 59.85(19) . . ?
B12A B11A H11A 124.1(17) . . ?
B2A B11A C2A 0.0 . . ?
B2A B11A B6A 60.22(18) . . ?
B2A B11A B7A 60.56(18) . . ?
B2A B11A B10A 108.9(2) . . ?
B2A B11A H11A 116.9(17) . . ?
B2A B11A B12A 109.2(2) . . ?
B2B B11B B7B 59.6(2) . . ?
C6B B11B B7B 103.8(3) . . ?
C6B B11B B2B 58.1(2) . . ?
B10B B11B B7B 107.6(3) . . ?
B10B B11B B2B 107.3(3) . . ?
B10B B11B C6B 58.4(2) . . ?
H11B B11B B7B 122.8(2) . . ?
H11B B11B B2B 121.97(18) . . ?
H11B B11B C6B 125.26(16) . . ?
H11B B11B B10B 121.68(17) . . ?
B12B B11B B7B 59.9(2) . . ?
B12B B11B B2B 107.7(3) . . ?
B12B B11B C6B 104.5(3) . . ?
B12B B11B B10B 60.2(2) . . ?
B12B B11B H11B 122.26(18) . . ?
B8A B12A B7A 57.90(17) . . ?
B9A B12A B7A 108.1(2) . . ?
B9A B12A B8A 59.33(18) . . ?
B10A B12A B7A 108.6(2) . . ?
B10A B12A B8A 104.8(2) . . ?
B10A B12A B9A 59.63(19) . . ?
B11A B12A B7A 59.79(19) . . ?
B11A B12A B8A 103.7(2) . . ?
B11A B12A B9A 107.9(2) . . ?
B11A B12A B10A 60.65(19) . . ?
H12A B12A B7A 123.0(19) . . ?
H12A B12A B8A 118.5(19) . . ?
H12A B12A B9A 115.2(18) . . ?
H12A B12A B10A 124.5(19) . . ?
H12A B12A B11A 130.5(18) . . ?
C8A B12A B7A 57.90(17) . . ?
C8A B12A B8A 0.0 . . ?
C8A B12A B9A 59.33(18) . . ?
C8A B12A B10A 104.8(2) . . ?
C8A B12A B11A 103.7(2) . . ?
C8A B12A H12A 118.5(19) . . ?
B8B B12B B7B 59.8(2) . . ?
B9B B12B B7B 107.8(3) . . ?
B9B B12B B8B 59.6(2) . . ?
B10B B12B B7B 107.7(3) . . ?
B10B B12B B8B 106.7(3) . . ?
B10B B12B B9B 59.4(2) . . ?
B11B B12B B7B 60.2(2) . . ?
B11B B12B B8B 107.6(2) . . ?
B11B B12B B9B 107.9(3) . . ?
B11B B12B B10B 60.0(2) . . ?
H12B B12B B7B 121.67(19) . . ?
H12B B12B B8B 122.40(17) . . ?
H12B B12B B9B 121.98(16) . . ?
H12B B12B B10B 122.32(16) . . ?
H12B B12B B11B 121.56(18) . . ?
B9C S1S C3A 108.5(13) . . ?
C1 N1A B3A 118(2) . . ?
C5A N1A B3A 132(3) . . ?
C5A N1A C1 109(2) . . ?
B2C C1C H1C 122(4) . . ?
B3C C1C H1C 120(5) . . ?
B3C C1C B2C 57.3(12) . . ?
B4C C1C H1C 118(5) . . ?
B4C C1C B2C 108.4(16) . . ?
B4C C1C B3C 60.8(14) . . ?
B5C C1C H1C 119(4) . . ?
B5C C1C B2C 113.1(18) . . ?
B5C C1C B3C 110.2(18) . . ?
B5C C1C B4C 60.9(16) . . ?
B6C C1C H1C 124(5) . . ?
B6C C1C B2C 61.3(13) . . ?
B6C C1C B3C 106.8(16) . . ?
B6C C1C B4C 110.3(17) . . ?
B6C C1C B5C 63.5(17) . . ?
N1A C1 O6A 129(3) . . ?
C3A C1 O6A 125(3) . . ?
C3A C1 N1A 106(2) . . ?
C1 C3A S1S 117(2) . . ?
C4A C3A S1S 134(2) . . ?
C4A C3A C1 108(2) . . ?
C5A C4A C3A 109(2) . . ?
H4Aa C4A C3A 125.3(17) . . ?
H4Aa C4A C5A 125.3(15) . . ?
N1A C5A O7A 126(3) . . ?
C4A C5A O7A 127(3) . . ?
C4A C5A N1A 106(2) . . ?
B2C C7C H7C 123(5) . . ?
B3C C7C H7C 128(5) . . ?
B3C C7C B2C 57.8(14) . . ?
B8C C7C H7C 123(5) . . ?
B8C C7C B2C 108.6(18) . . ?
B8C C7C B3C 61.7(16) . . ?
B11C C7C H7C 121(5) . . ?
B11C C7C B2C 59.7(14) . . ?
B11C C7C B3C 103.2(18) . . ?
B11C C7C B8C 104.5(18) . . ?
B12C C7C H7C 120(5) . . ?
B12C C7C B2C 106.0(18) . . ?
B12C C7C B3C 105.9(18) . . ?
B12C C7C B8C 59.3(13) . . ?
B12C C7C B11C 56.7(15) . . ?
C7C B2C C1C 109.5(17) . . ?
B3C B2C C1C 60.0(14) . . ?
B3C B2C C7C 60.9(16) . . ?
B6C B2C C1C 55.5(13) . . ?
B6C B2C C7C 109.9(17) . . ?
B6C B2C B3C 104.3(16) . . ?
B11C B2C C1C 104.4(15) . . ?
B11C B2C C7C 62.7(16) . . ?
B11C B2C B3C 107.8(17) . . ?
B11C B2C B6C 59.4(14) . . ?
H2C B2C C1C 120(4) . . ?
H2C B2C C7C 124(4) . . ?
H2C B2C B3C 126(4) . . ?
H2C B2C B6C 118(4) . . ?
H2C B2C B11C 122(4) . . ?
C7C B3C C1C 112.0(18) . . ?
B2C B3C C1C 62.7(15) . . ?
B2C B3C C7C 61.3(16) . . ?
H3C B3C C1C 119(5) . . ?
H3C B3C C7C 122(5) . . ?
H3C B3C B2C 124(5) . . ?
B4C B3C C1C 59.6(14) . . ?
B4C B3C C7C 112.8(18) . . ?
B4C B3C B2C 111.9(17) . . ?
B4C B3C H3C 114(4) . . ?
B8C B3C C1C 110.4(17) . . ?
B8C B3C C7C 60.6(15) . . ?
B8C B3C B2C 110.6(17) . . ?
B8C B3C H3C 118(5) . . ?
B8C B3C B4C 63.0(14) . . ?
B3C B4C C1C 59.6(14) . . ?
H4C B4C C1C 123(5) . . ?
H4C B4C B3C 117(5) . . ?
B5C B4C C1C 60.3(16) . . ?
B5C B4C B3C 108.7(18) . . ?
B5C B4C H4C 126(5) . . ?
B8C B4C C1C 108.1(16) . . ?
B8C B4C B3C 60.1(14) . . ?
B8C B4C H4C 117(5) . . ?
B8C B4C B5C 109.8(17) . . ?
B9C B4C C1C 106.7(16) . . ?
B9C B4C B3C 106.1(15) . . ?
B9C B4C H4C 125(5) . . ?
B9C B4C B5C 60.8(16) . . ?
B9C B4C B8C 59.2(13) . . ?
B4C B5C C1C 58.8(16) . . ?
H5C B5C C1C 127(5) . . ?
H5C B5C B4C 129(5) . . ?
B6C B5C C1C 55.1(15) . . ?
B6C B5C B4C 102.1(19) . . ?
B6C B5C H5C 122(5) . . ?
B9C B5C C1C 105.4(18) . . ?
B9C B5C B4C 60.4(15) . . ?
B9C B5C H5C 123(5) . . ?
B9C B5C B6C 103.6(19) . . ?
B10C B5C C1C 103.9(19) . . ?
B10C B5C B4C 105.9(19) . . ?
B10C B5C H5C 117(5) . . ?
B10C B5C B6C 59.4(17) . . ?
B10C B5C B9C 58.1(16) . . ?
B2C B6C C1C 63.2(14) . . ?
B5C B6C C1C 61.4(17) . . ?
B5C B6C B2C 112.9(18) . . ?
H6C B6C C1C 123(5) . . ?
H6C B6C B2C 122(5) . . ?
H6C B6C B5C 118(5) . . ?
B10C B6C C1C 110.6(17) . . ?
B10C B6C B2C 109.8(16) . . ?
B10C B6C B5C 61.4(16) . . ?
B10C B6C H6C 117(5) . . ?
B11C B6C C1C 112.1(17) . . ?
B11C B6C B2C 61.4(13) . . ?
B11C B6C B5C 110.8(19) . . ?
B11C B6C H6C 119(5) . . ?
B11C B6C B10C 59.4(15) . . ?
B3C B8C C7C 57.6(15) . . ?
B4C B8C C7C 105.3(17) . . ?
B4C B8C B3C 56.9(13) . . ?
H8C B8C C7C 124(5) . . ?
H8C B8C B3C 120(5) . . ?
H8C B8C B4C 117(5) . . ?
B9C B8C C7C 108.8(16) . . ?
B9C B8C B3C 103.2(16) . . ?
B9C B8C B4C 58.6(12) . . ?
B9C B8C H8C 123(5) . . ?
B12C B8C C7C 61.5(15) . . ?
B12C B8C B3C 104.5(15) . . ?
B12C B8C B4C 106.2(15) . . ?
B12C B8C H8C 129(5) . . ?
B12C B8C B9C 60.4(12) . . ?
B4C B9C S1S 119.1(16) . . ?
B5C B9C S1S 112.6(16) . . ?
B5C B9C B4C 58.8(15) . . ?
B8C B9C S1S 126.1(16) . . ?
B8C B9C B4C 62.2(14) . . ?
B8C B9C B5C 110.7(17) . . ?
B10C B9C S1S 119.4(16) . . ?
B10C B9C B4C 107.4(16) . . ?
B10C B9C B5C 61.7(17) . . ?
B10C B9C B8C 108.6(15) . . ?
B12C B9C S1S 127.6(15) . . ?
B12C B9C B4C 108.3(15) . . ?
B12C B9C B5C 110.1(17) . . ?
B12C B9C B8C 59.4(12) . . ?
B12C B9C B10C 60.0(14) . . ?
B6C B10C B5C 59.2(16) . . ?
B9C B10C B5C 60.2(16) . . ?
B9C B10C B6C 104.9(16) . . ?
H10C B10C B5C 118(5) . . ?
H10C B10C B6C 122(5) . . ?
H10C B10C B9C 123(5) . . ?
B11C B10C B5C 108.6(17) . . ?
B11C B10C B6C 59.1(14) . . ?
B11C B10C B9C 107.5(16) . . ?
B11C B10C H10C 123(5) . . ?
B12C B10C B5C 109.9(17) . . ?
B12C B10C B6C 105.2(16) . . ?
B12C B10C B9C 61.3(13) . . ?
B12C B10C H10C 125(5) . . ?
B12C B10C B11C 58.8(14) . . ?
B2C B11C C7C 57.6(14) . . ?
B6C B11C C7C 105.6(17) . . ?
B6C B11C B2C 59.2(13) . . ?
B10C B11C C7C 110.5(17) . . ?
B10C B11C B2C 109.9(16) . . ?
B10C B11C B6C 61.6(14) . . ?
H11C B11C C7C 121(5) . . ?
H11C B11C B2C 120(4) . . ?
H11C B11C B6C 122(5) . . ?
H11C B11C B10C 121(4) . . ?
B12C B11C C7C 61.6(15) . . ?
B12C B11C B2C 108.3(16) . . ?
B12C B11C B6C 109.3(16) . . ?
B12C B11C B10C 61.6(14) . . ?
B12C B11C H11C 122(5) . . ?
B8C B12C C7C 59.2(15) . . ?
B9C B12C C7C 106.7(16) . . ?
B9C B12C B8C 60.1(13) . . ?
B10C B12C C7C 108.9(17) . . ?
B10C B12C B8C 108.0(15) . . ?
B10C B12C B9C 58.7(14) . . ?
B11C B12C C7C 61.7(15) . . ?
B11C B12C B8C 108.4(16) . . ?
B11C B12C B9C 105.9(16) . . ?
B11C B12C B10C 59.5(15) . . ?
H12C B12C C7C 122(4) . . ?
H12C B12C B8C 122(5) . . ?
H12C B12C B9C 123(5) . . ?
H12C B12C B10C 121(4) . . ?
H12C B12C B11C 122(4) . . ?
B6A B2A B3A 107.3(2) . . ?
B7A B2A B3A 60.20(18) . . ?
B7A B2A B6A 106.9(2) . . ?
B11A B2A B3A 107.2(2) . . ?
B11A B2A B6A 59.6(2) . . ?
B11A B2A B7A 59.10(18) . . ?
B1A B2A B3A 59.98(18) . . ?
B1A B2A B6A 59.25(19) . . ?
B1A B2A B7A 107.4(2) . . ?
B1A B2A B11A 106.7(2) . . ?
H2Aa B2A B3A 121.76(15) . . ?
H2Aa B2A B6A 122.40(16) . . ?
H2Aa B2A B7A 122.17(15) . . ?
H2Aa B2A B11A 122.62(16) . . ?
H2Aa B2A B1A 122.29(15) . . ?
B5A B1A B3A 108.6(2) . . ?
B6A B1A B3A 107.9(2) . . ?
B6A B1A B5A 59.9(2) . . ?
B2A B1A B3A 59.52(19) . . ?
B2A B1A B5A 108.5(2) . . ?
B2A B1A B6A 60.40(19) . . ?
C6 B1A B3A 59.46(17) . . ?
C6 B1A B5A 58.54(18) . . ?
C6 B1A B6A 104.3(2) . . ?
C6 B1A B2A 105.0(2) . . ?
H1Aa B1A B3A 121.25(15) . . ?
H1Aa B1A B5A 121.20(15) . . ?
H1Aa B1A B6A 122.59(16) . . ?
H1Aa B1A B2A 122.17(15) . . ?
H1Aa B1A C6 124.72(15) . . ?
B5A C6 B3A 115.3(2) . . ?
B9A C6 B3A 114.9(2) . . ?
B9A C6 B5A 62.89(19) . . ?
B1A C6 B3A 62.82(18) . . ?
B1A C6 B5A 63.29(19) . . ?
B1A C6 B9A 115.4(2) . . ?
C8A C6 B3A 61.18(17) . . ?
C8A C6 B5A 111.4(2) . . ?
C8A C6 B9A 61.55(18) . . ?
C8A C6 B1A 111.2(2) . . ?
H6 C6 B3A 117.37(14) . . ?
H6 C6 B5A 117.96(15) . . ?
H6 C6 B9A 117.12(15) . . ?
H6 C6 B1A 118.02(15) . . ?
H6 C6 C8A 121.24(14) . . ?
B7A C8A B3A 63.29(18) . . ?
B9A C8A B3A 114.6(2) . . ?
B9A C8A B7A 115.2(2) . . ?
B12A C8A B3A 115.4(2) . . ?
B12A C8A B7A 63.33(19) . . ?
B12A C8A B9A 62.43(18) . . ?
C6 C8A B3A 61.41(17) . . ?
C6 C8A B7A 111.6(2) . . ?
C6 C8A B9A 60.97(17) . . ?
C6 C8A B12A 110.7(2) . . ?
H8Aa C8A B3A 117.07(15) . . ?
H8Aa C8A B7A 117.64(15) . . ?
H8Aa C8A B9A 117.70(15) . . ?
H8Aa C8A B12A 118.33(15) . . ?
H8Aa C8A C6 121.46(14) . . ?
loop_
_geom_bond_atom_site_label_1
_geom_bond_atom_site_label_2
_geom_bond_distance
_geom_bond_site_symmetry_2
_geom_bond_publ_flag
S1R C3 1.735(4) . ?
S1R B9B 1.878(4) . ?
O6 C2 1.209(4) . ?
O7 C5 1.201(4) . ?
N1 C2 1.382(5) . ?
N1 C5 1.435(4) . ?
N1 B3A 1.480(5) . ?
C1A C2A 1.791(5) . ?
C1A B3A 1.782(5) . ?
C1A B4A 1.694(4) . ?
C1A B5A 1.781(5) . ?
C1A B6A 1.771(5) . ?
C1A H1A 1.1200 . ?
B1B H1B 1.1200 . ?
B1B B2B 1.786(6) . ?
B1B C3B 1.678(5) . ?
B1B B4B 1.751(5) . ?
B1B B5B 1.779(6) . ?
B1B C6B 1.700(5) . ?
C2 C3 1.517(5) . ?
C2A B3A 1.773(5) . ?
C2A B6A 1.792(5) . ?
C2A B7A 1.796(5) . ?
C2A B11A 1.792(5) . ?
C2A H2A 1.1200 . ?
C3 C4 1.333(5) . ?
C4 H4 0.9500 . ?
C4 C5 1.464(5) . ?
B7B H7B 1.1200 . ?
B7B B2B 1.769(6) . ?
B7B C3B 1.718(6) . ?
B7B B8B 1.777(6) . ?
B7B B11B 1.779(6) . ?
B7B B12B 1.773(6) . ?
B2B H2B 1.1200 . ?
B2B C3B 1.685(5) . ?
B2B C6B 1.700(5) . ?
B2B B11B 1.779(5) . ?
B3A B4A 1.725(4) . ?
B3A B7A 1.790(5) . ?
B3A B8A 1.721(4) . ?
B3A N1A 1.53(3) . ?
B3A B2A 1.773(5) . ?
B3A B1A 1.782(5) . ?
B3A C6 1.725(4) . ?
B3A C8A 1.721(4) . ?
C3B H3B 1.1200 . ?
C3B B4B 1.700(5) . ?
C3B B8B 1.703(5) . ?
B4A B5A 1.700(4) . ?
B4A B8A 1.655(4) . ?
B4A B9A 1.717(4) . ?
B4A H4A 1.1200 . ?
B4B H4B 1.1200 . ?
B4B B5B 1.773(6) . ?
B4B B8B 1.774(5) . ?
B4B B9B 1.786(5) . ?
B5A H5A 1.0175 . ?
B5A B6A 1.772(5) . ?
B5A B9A 1.783(5) . ?
B5A B10A 1.775(5) . ?
B5A B1A 1.781(5) . ?
B5A C6 1.700(4) . ?
B5B H5B 1.1200 . ?
B5B C6B 1.713(5) . ?
B5B B9B 1.779(5) . ?
B5B B10B 1.777(6) . ?
B6A H6A 1.1338 . ?
B6A B10A 1.792(5) . ?
B6A B11A 1.780(5) . ?
B6A B2A 1.792(5) . ?
B6A B1A 1.771(5) . ?
C6B H6B 1.1200 . ?
C6B B10B 1.706(5) . ?
C6B B11B 1.718(5) . ?
B7A H7A 1.1136 . ?
B7A B8A 1.691(4) . ?
B7A B11A 1.769(5) . ?
B7A B12A 1.783(4) . ?
B7A B2A 1.796(5) . ?
B7A C8A 1.691(4) . ?
B8A H8A 1.1200 . ?
B8A B9A 1.726(5) . ?
B8A B12A 1.707(4) . ?
B8B H8B 1.1200 . ?
B8B B9B 1.784(5) . ?
B8B B12B 1.794(5) . ?
B9A H9A 1.0411 . ?
B9A B10A 1.766(5) . ?
B9A B12A 1.779(5) . ?
B9A C6 1.717(4) . ?
B9A C8A 1.726(5) . ?
B9B B10B 1.773(5) . ?
B9B B12B 1.796(5) . ?
B10A H10A 1.1200 . ?
B10A B11A 1.787(5) . ?
B10A B12A 1.773(5) . ?
B10B H10B 1.1200 . ?
B10B B11B 1.777(5) . ?
B10B B12B 1.781(5) . ?
B11A H11A 1.1581 . ?
B11A B12A 1.766(5) . ?
B11A B2A 1.792(5) . ?
B11B H11B 1.1200 . ?
B11B B12B 1.772(5) . ?
B12A H12A 1.0499 . ?
B12A C8A 1.707(4) . ?
B12B H12B 1.1200 . ?
S1S C3A 1.73(3) . ?
S1S B9C 1.89(2) . ?
O6A C1 1.21(3) . ?
O7A C5A 1.18(3) . ?
N1A C1 1.38(3) . ?
N1A C5A 1.44(3) . ?
C1C H1C 1.17(3) . ?
C1C B2C 1.74(3) . ?
C1C B3C 1.70(3) . ?
C1C B4C 1.70(3) . ?
C1C B5C 1.72(4) . ?
C1C B6C 1.61(3) . ?
C1 C3A 1.53(3) . ?
C3A C4A 1.33(3) . ?
C4A C5A 1.49(3) . ?
C4A H4Aa 0.9500 . ?
C7C H7C 1.11(3) . ?
C7C B2C 1.71(4) . ?
C7C B3C 1.70(4) . ?
C7C B8C 1.76(4) . ?
C7C B11C 1.80(4) . ?
C7C B12C 1.80(4) . ?
B2C B3C 1.65(3) . ?
B2C B6C 1.71(3) . ?
B2C B11C 1.75(3) . ?
B2C H2C 1.16(3) . ?
B3C H3C 1.10(3) . ?
B3C B4C 1.72(3) . ?
B3C B8C 1.77(3) . ?
B4C H4C 1.13(3) . ?
B4C B5C 1.73(4) . ?
B4C B8C 1.83(3) . ?
B4C B9C 1.76(3) . ?
B5C H5C 1.11(3) . ?
B5C B6C 1.75(4) . ?
B5C B9C 1.77(4) . ?
B5C B10C 1.79(4) . ?
B6C H6C 1.10(3) . ?
B6C B10C 1.76(4) . ?
B6C B11C 1.71(3) . ?
B8C H8C 1.11(3) . ?
B8C B9C 1.77(3) . ?
B8C B12C 1.76(3) . ?
B9C B10C 1.73(3) . ?
B9C B12C 1.78(3) . ?
B10C H10C 1.13(3) . ?
B10C B11C 1.72(3) . ?
B10C B12C 1.75(3) . ?
B11C H11C 1.14(3) . ?
B11C B12C 1.71(3) . ?
B12C H12C 1.14(3) . ?
B2A B1A 1.791(5) . ?
B2A H2Aa 1.1200 . ?
B1A C6 1.694(4) . ?
B1A H1Aa 1.1200 . ?
C6 C8A 1.655(4) . ?
C6 H6 1.1200 . ?
C8A H8Aa 1.1200 . ?
loop_
_geom_torsion_atom_site_label_1
_geom_torsion_atom_site_label_2
_geom_torsion_atom_site_label_3
_geom_torsion_atom_site_label_4
_geom_torsion
_geom_torsion_site_symmetry_1
_geom_torsion_site_symmetry_2
_geom_torsion_site_symmetry_3
_geom_torsion_site_symmetry_4
_geom_torsion_publ_flag
S1R C3 C2 O6 2.4(3) . . . . ?
S1R C3 C2 N1 -178.0(4) . . . . ?
S1R C3 C4 C5 177.9(4) . . . . ?
O6 C2 N1 C5 178.6(6) . . . . ?
O6 C2 N1 B3A 6.6(5) . . . . ?
O6 C2 C3 C4 -178.1(4) . . . . ?
O7 C5 N1 C2 179.9(5) . . . . ?
O7 C5 N1 B3A -8.0(5) . . . . ?
O7 C5 C4 C3 -178.9(5) . . . . ?
N1 C2 C3 C4 1.5(4) . . . . ?
N1 C5 C4 C3 0.8(4) . . . . ?
N1 B3A N1A C1 6(17) . . . . ?
N1 B3A N1A C5A 173(14) . . . . ?
C1A B3A N1A C1 -75(3) . . . . ?
C1A B3A N1A C5A 92(3) . . . . ?
C1A B4A B8A B3A 39.4(2) . . . . ?
C1A B4A B8A B7A -0.6(2) . . . . ?
C1A B4A B8A B9A -108.3(3) . . . . ?
C1A B4A B8A B12A -69.1(2) . . . . ?
B1B B2B C3B B7B 142.8(3) . . . . ?
B1B B2B C3B B4B 36.6(3) . . . . ?
B1B B2B C3B B8B 107.0(2) . . . . ?
B1B B2B C6B B5B -36.4(3) . . . . ?
B1B B2B C6B B10B -106.3(2) . . . . ?
B1B B2B C6B B11B -142.8(3) . . . . ?
B1B C3B B2B B7B -142.8(3) . . . . ?
B1B C3B B2B C6B -41.5(3) . . . . ?
B1B C3B B2B B11B -102.2(2) . . . . ?
B1B C3B B4B B5B 40.7(3) . . . . ?
B1B C3B B4B B8B 143.4(3) . . . . ?
B1B C3B B4B B9B 102.8(2) . . . . ?
B1B B4B C3B B7B -107.5(3) . . . . ?
B1B B4B C3B B2B -37.2(3) . . . . ?
B1B B4B C3B B8B -143.4(3) . . . . ?
B1B C6B B2B B7B 102.3(3) . . . . ?
B1B C6B B2B C3B 41.2(3) . . . . ?
B1B C6B B2B B11B 142.8(3) . . . . ?
C2 C3 C4 C5 -1.4(3) . . . . ?
C2A B3A N1A C1 9(3) . . . . ?
C2A B3A N1A C5A 176(5) . . . . ?
C2A B7A B8A B3A -39.5(2) . . . . ?
C2A B7A B8A B4A -0.4(2) . . . . ?
C2A B7A B8A B9A 66.7(2) . . . . ?
C2A B7A B8A B12A 102.7(3) . . . . ?
C2A B7A C8A B3A -39.5(2) . . . . ?
C2A B7A C8A B9A 66.7(2) . . . . ?
C2A B7A C8A B12A 102.7(3) . . . . ?
C2A B7A C8A C6 -0.4(2) . . . . ?
B7B B2B C3B B4B -106.2(2) . . . . ?
B7B B2B C3B B8B -35.8(3) . . . . ?
B7B B2B C6B B5B 65.8(3) . . . . ?
B7B B2B C6B B10B -4.1(3) . . . . ?
B7B B2B C6B B11B -40.6(3) . . . . ?
B7B C3B B2B C6B 101.3(2) . . . . ?
B7B C3B B2B B11B 40.7(3) . . . . ?
B7B C3B B4B B5B -66.8(3) . . . . ?
B7B C3B B4B B8B 35.9(3) . . . . ?
B7B C3B B4B B9B -4.6(3) . . . . ?
B2B C3B B4B B5B 3.4(3) . . . . ?
B2B C3B B4B B8B 106.1(4) . . . . ?
B2B C3B B4B B9B 65.6(3) . . . . ?
B3A B4A B8A B7A -39.9(2) . . . . ?
B3A B4A B8A B9A -147.6(2) . . . . ?
B3A B4A B8A B12A -108.45(19) . . . . ?
B3A B7A B8A B4A 39.1(2) . . . . ?
B3A B7A B8A B9A 106.2(2) . . . . ?
B3A B7A B8A B12A 142.2(2) . . . . ?
B3A B7A C8A B9A 106.2(2) . . . . ?
B3A B7A C8A B12A 142.2(2) . . . . ?
B3A B7A C8A C6 39.1(2) . . . . ?
B3A B8A B4A B5A 107.9(2) . . . . ?
B3A B8A B4A B9A 147.6(2) . . . . ?
B3A B8A B7A B11A -102.0(2) . . . . ?
B3A B8A B7A B12A -142.2(2) . . . . ?
B3A B8A B7A B2A -39.5(2) . . . . ?
B3A N1A C1 O6A -3(7) . . . . ?
B3A N1A C1 C3A 172(5) . . . . ?
B3A N1A C5A O7A 1(8) . . . . ?
B3A N1A C5A C4A -172(6) . . . . ?
B3A B1A C6 B5A -142.7(2) . . . . ?
B3A B1A C6 B9A -106.2(2) . . . . ?
B3A B1A C6 C8A -38.7(2) . . . . ?
B3A C6 B1A B5A 142.7(3) . . . . ?
B3A C6 B1A B6A 102.5(2) . . . . ?
B3A C6 B1A B2A 39.9(2) . . . . ?
B3A C6 C8A B7A -39.9(2) . . . . ?
B3A C6 C8A B9A -147.6(2) . . . . ?
B3A C6 C8A B12A -108.45(19) . . . . ?
B3A C8A B7A B11A -102.0(2) . . . . ?
B3A C8A B7A B12A -142.2(2) . . . . ?
B3A C8A B7A B2A -39.5(2) . . . . ?
B3A C8A C6 B5A 107.9(2) . . . . ?
B3A C8A C6 B9A 147.6(2) . . . . ?
B3A C8A C6 B1A 39.4(2) . . . . ?
B4A B8A B7A B11A -62.9(2) . . . . ?
B4A B8A B7A B12A -103.1(3) . . . . ?
B4A B8A B7A B2A -0.4(2) . . . . ?
B5A B1A C6 B9A 36.5(2) . . . . ?
B5A B1A C6 C8A 104.08(19) . . . . ?
B5A C6 B1A B6A -40.2(2) . . . . ?
B5A C6 B1A B2A -102.8(2) . . . . ?
B5A C6 C8A B7A 68.0(2) . . . . ?
B5A C6 C8A B9A -39.7(2) . . . . ?
B5A C6 C8A B12A -0.5(2) . . . . ?
B6A B1A C6 B9A -3.7(3) . . . . ?
B6A B1A C6 C8A 63.9(2) . . . . ?
B7A C8A C6 B9A 107.7(3) . . . . ?
B7A C8A C6 B1A -0.6(2) . . . . ?
B9A C6 B1A B2A -66.4(2) . . . . ?
B9A C6 C8A B12A 39.2(2) . . . . ?
B9A C8A C6 B1A -108.3(2) . . . . ?
B12A C8A C6 B1A -69.1(2) . . . . ?
S1S C3A C1 O6A -5(4) . . . . ?
S1S C3A C1 N1A 179(4) . . . . ?
S1S C3A C4A C5A 178(5) . . . . ?
O6A C1 N1A C5A -173(6) . . . . ?
O6A C1 C3A C4A 177(5) . . . . ?
O7A C5A N1A C1 168(7) . . . . ?
O7A C5A C4A C3A -167(6) . . . . ?
N1A C1 C3A C4A 1(5) . . . . ?
N1A C5A C4A C3A 6(5) . . . . ?
C1C B2C B3C C7C 140(2) . . . . ?
C1C B2C B3C B4C 34.9(18) . . . . ?
C1C B2C B3C B8C 103.1(15) . . . . ?
C1C B3C B2C C7C -140(2) . . . . ?
C1C B3C B2C B6C -34.7(18) . . . . ?
C1C B3C B2C B11C -96.7(16) . . . . ?
C1 C3A C4A C5A -4(4) . . . . ?
C7C B2C B3C B4C -104.9(17) . . . . ?
C7C B2C B3C B8C -36.7(19) . . . . ?
C7C B3C B2C B6C 105.1(18) . . . . ?
C7C B3C B2C B11C 43.1(19) . . . . ?
B2A B1A C6 C8A 1.2(2) . . . . ?
loop_
_restr_equal_distance_atom_site_label_1
_restr_equal_distance_atom_site_label_2
_restr_equal_distance_site_symmetry_2
_restr_equal_distance_class_id
S1R C2 1 74
S1R C3 1 1
S1R C4 1 76
S1R B4B 1 78
S1R B5B 1 79
S1R B8B 1 81
S1R B9B 1 3
S1R B10B 1 83
S1R B12B 1 85
O6 N1 1 87
O6 C2 1 5
O6 C3 1 89
O7 N1 1 90
O7 C4 1 92
O7 C5 1 7
N1 C2 1 9
N1 C3 1 94
N1 C4 1 96
N1 C5 1 11
N1 B3A 1 13
B1B H1B 1 15
B1B B7B 1 98
B1B B2B 1 100
B1B H2B 1 102
B1B C3B 1 104
B1B H3B 1 106
B1B B4B 1 108
B1B H4B 1 110
B1B B5B 1 112
B1B H5B 1 114
B1B C6B 1 116
B1B H6B 1 118
B1B B8B 1 120
B1B B9B 1 122
B1B B10B 1 124
B1B B11B 1 126
H1B B2B 1 128
H1B C3B 1 130
H1B B4B 1 132
H1B B5B 1 134
H1B C6B 1 136
C2 C3 1 22
C2 C4 1 138
C2 C5 1 140
C2 B3A 1 142
C3 C4 1 24
C3 H4 1 144
C3 C5 1 146
C3 B9B 1 148
C4 H4 1 25
C4 C5 1 26
H4 C5 1 152
C5 B3A 1 154
B7B H7B 1 28
B7B B2B 1 156
B7B H2B 1 157
B7B C3B 1 158
B7B H3B 1 31
B7B B4B 1 67
B7B C6B 1 21
B7B B8B 1 69
B7B H8B 1 33
B7B B9B 1 70
B7B B10B 1 6
B7B B11B 1 71
B7B H11B 1 35
B7B B12B 1 73
B7B H12B 1 23
H7B B2B 1 37
H7B C3B 1 75
H7B B8B 1 14
H7B B11B 1 77
H7B B12B 1 39
B2B H2B 1 32
B2B C3B 1 34
B2B H3B 1 80
B2B B4B 1 41
B2B B5B 1 82
B2B C6B 1 36
B2B H6B 1 84
B2B B8B 1 42
B2B B10B 1 86
B2B B11B 1 38
B2B H11B 1 88
B2B B12B 1 43
H2B C3B 1 16
H2B C6B 1 91
H2B B11B 1 45
C3B H3B 1 40
C3B B4B 1 93
C3B H4B 1 27
C3B B5B 1 95
C3B C6B 1 46
C3B B8B 1 97
C3B H8B 1 8
C3B B9B 1 99
C3B B11B 1 47
C3B B12B 1 101
H3B B4B 1 103
H3B B8B 1 49
B4B H4B 1 44
B4B B5B 1 105
B4B H5B 1 17
B4B C6B 1 107
B4B B8B 1 51
B4B H8B 1 109
B4B B9B 1 48
B4B B10B 1 111
B4B B12B 1 52
H4B B5B 1 113
H4B B8B 1 4
H4B B9B 1 115
B5B H5B 1 50
B5B C6B 1 53
B5B H6B 1 117
B5B B8B 1 29
B5B B9B 1 119
B5B B10B 1 54
B5B H10B 1 121
B5B B11B 1 18
B5B B12B 1 123
H5B C6B 1 125
H5B B9B 1 30
H5B B10B 1 127
C6B H6B 1 55
C6B B9B 1 56
C6B B10B 1 129
C6B H10B 1 10
C6B B11B 1 131
C6B H11B 1 57
C6B B12B 1 133
H6B B10B 1 135
H6B B11B 1 59
B8B H8B 1 58
B8B B9B 1 137
B8B B10B 1 19
B8B B11B 1 139
B8B B12B 1 60
B8B H12B 1 141
H8B B9B 1 143
H8B B12B 1 61
B9B B10B 1 145
B9B H10B 1 2
B9B B11B 1 147
B9B B12B 1 62
B9B H12B 1 149
B10B H10B 1 64
B10B B11B 1 150
B10B H11B 1 63
B10B B12B 1 151
B10B H12B 1 20
H10B B11B 1 65
H10B B12B 1 153
B11B H11B 1 68
B11B B12B 1 155
B11B H12B 1 66
H11B B12B 1 12
B12B H12B 1 72
S1S C1 1 74
S1S C3A 1 1
S1S C4A 1 76
S1S B4C 1 78
S1S B5C 1 79
S1S B8C 1 81
S1S B9C 1 3
S1S B10C 1 83
S1S B12C 1 85
O6A N1A 1 87
O6A C1 1 5
O6A C3A 1 89
O7A N1A 1 90
O7A C4A 1 92
O7A C5A 1 7
N1A B3A 1 13
N1A C1 1 9
N1A C3A 1 94
N1A C4A 1 96
N1A C5A 1 11
C1C H1C 1 15
C1C C7C 1 98
C1C B2C 1 100
C1C B3C 1 104
C1C H3C 1 106
C1C B4C 1 108
C1C H4C 1 110
C1C B5C 1 112
C1C H5C 1 114
C1C B6C 1 116
C1C H6C 1 118
C1C B8C 1 120
C1C B9C 1 122
C1C B10C 1 124
C1C B11C 1 126
C1C H2C 1 102
H1C B2C 1 128
H1C B3C 1 130
H1C B4C 1 132
H1C B5C 1 134
H1C B6C 1 136
C1 B3A 1 142
C1 C3A 1 22
C1 C4A 1 138
C1 C5A 1 140
C3A C4A 1 24
C3A C5A 1 146
C3A B9C 1 148
C4A C5A 1 26
C5A B3A 1 154
C7C H7C 1 28
C7C B2C 1 156
C7C B3C 1 158
C7C H3C 1 31
C7C B4C 1 67
C7C B6C 1 21
C7C B8C 1 69
C7C H8C 1 33
C7C B9C 1 70
C7C B10C 1 6
C7C B11C 1 71
C7C H11C 1 35
C7C B12C 1 73
C7C H12C 1 23
C7C H2C 1 157
H7C B2C 1 37
H7C B3C 1 75
H7C B8C 1 14
H7C B11C 1 77
H7C B12C 1 39
B2C B3C 1 34
B2C H3C 1 80
B2C B4C 1 41
B2C B5C 1 82
B2C B6C 1 36
B2C H6C 1 84
B2C B8C 1 42
B2C B10C 1 86
B2C B11C 1 38
B2C H11C 1 88
B2C B12C 1 43
B2C H2C 1 32
B3C H3C 1 40
B3C B4C 1 93
B3C H4C 1 27
B3C B5C 1 95
B3C B6C 1 46
B3C B8C 1 97
B3C H8C 1 8
B3C B9C 1 99
B3C B11C 1 47
B3C B12C 1 101
H3C B4C 1 103
H3C B8C 1 49
B4C H4C 1 44
B4C B5C 1 105
B4C H5C 1 17
B4C B6C 1 107
B4C B8C 1 51
B4C H8C 1 109
B4C B9C 1 48
B4C B10C 1 111
B4C B12C 1 52
H4C B5C 1 113
H4C B8C 1 4
H4C B9C 1 115
B5C H5C 1 50
B5C B6C 1 53
B5C H6C 1 117
B5C B8C 1 29
B5C B9C 1 119
B5C B10C 1 54
B5C H10C 1 121
B5C B11C 1 18
B5C B12C 1 123
H5C B6C 1 125
H5C B9C 1 30
H5C B10C 1 127
B6C H6C 1 55
B6C B9C 1 56
B6C B10C 1 129
B6C H10C 1 10
B6C B11C 1 131
B6C H11C 1 57
B6C B12C 1 133
H6C B10C 1 135
H6C B11C 1 59
B8C H8C 1 58
B8C B9C 1 137
B8C B10C 1 19
B8C B11C 1 139
B8C B12C 1 60
B8C H12C 1 141
H8C B9C 1 143
H8C B12C 1 61
B9C B10C 1 145
B9C H10C 1 2
B9C B11C 1 147
B9C B12C 1 62
B9C H12C 1 149
B10C H10C 1 64
B10C B11C 1 150
B10C H11C 1 63
B10C B12C 1 151
B10C H12C 1 20
H10C B11C 1 65
H10C B12C 1 153
B11C H11C 1 68
B11C B12C 1 155
B11C H12C 1 66
H11C B12C 1 12
B12C H12C 1 72
H2C B3C 1 16
H2C B6C 1 91
H2C B11C 1 45
loop_
_restr_equal_distance_class_class_id
_restr_equal_distance_class_target_weight_param
_restr_equal_distance_class_average
_restr_equal_distance_class_esd
_restr_equal_distance_class_diff_max
1 0.0200 1.7350 0.0003 0.0003
2 0.0400 2.5419 0.0085 0.0085
3 0.0200 1.8832 0.0052 0.0052
4 0.0400 2.5461 0.0021 0.0021
5 0.0200 1.2092 0.0004 0.0004
6 0.0400 2.8801 0.0105 0.0105
7 0.0200 1.1884 0.0123 0.0123
8 0.0400 2.5220 0.0037 0.0037
9 0.0200 1.3833 0.0010 0.0010
10 0.0400 2.5315 0.0108 0.0108
11 0.0200 1.4399 0.0050 0.0050
12 0.0400 2.5271 0.0254 0.0254
13 0.0200 1.5039 0.0236 0.0236
14 0.0400 2.5439 0.0035 0.0035
15 0.0200 1.1432 0.0232 0.0232
16 0.0400 2.5069 0.0019 0.0019
17 0.0400 2.5722 0.0125 0.0125
18 0.0400 2.8739 0.0206 0.0206
19 0.0400 2.8558 0.0126 0.0126
20 0.0400 2.5504 0.0103 0.0103
21 0.0400 2.7754 0.0237 0.0237
22 0.0200 1.5261 0.0089 0.0089
23 0.0400 2.5680 0.0222 0.0222
24 0.0200 1.3336 0.0009 0.0009
25 0.0200 0.9500 0.0000 0.0000
26 0.0200 1.4762 0.0117 0.0117
27 0.0400 2.4830 0.0340 0.0340
28 0.0200 1.1175 0.0025 0.0025
29 0.0400 2.8925 0.0181 0.0181
30 0.0400 2.5575 0.0024 0.0024
31 0.0400 2.4582 0.0129 0.0129
32 0.0200 1.1391 0.0191 0.0191
33 0.0400 2.5484 0.0031 0.0031
34 0.0200 1.6663 0.0190 0.0190
35 0.0400 2.5718 0.0073 0.0073
36 0.0200 1.7052 0.0057 0.0057
37 0.0400 2.5196 0.0254 0.0254
38 0.0200 1.7639 0.0151 0.0151
39 0.0400 2.5492 0.0001 0.0001
40 0.0200 1.1086 0.0114 0.0114
41 0.0400 2.8260 0.0398 0.0398
42 0.0400 2.8345 0.0210 0.0210
43 0.0400 2.8340 0.0328 0.0328
44 0.0200 1.1250 0.0050 0.0050
45 0.0400 2.5544 0.0037 0.0037
46 0.0400 2.6273 0.0253 0.0253
47 0.0400 2.7496 0.0044 0.0044
48 0.0200 1.7734 0.0125 0.0125
49 0.0400 2.4614 0.0250 0.0250
50 0.0200 1.1164 0.0036 0.0036
51 0.0400 1.7998 0.0257 0.0257
52 0.0400 2.8803 0.0135 0.0135
53 0.0400 1.7331 0.0199 0.0199
54 0.0400 1.7847 0.0081 0.0081
55 0.0200 1.1099 0.0101 0.0101
56 0.0400 2.7604 0.0051 0.0051
57 0.0400 2.5227 0.0121 0.0121
58 0.0200 1.1158 0.0042 0.0042
59 0.0400 2.4421 0.0033 0.0033
60 0.0200 1.7767 0.0174 0.0174
61 0.0400 2.5915 0.0163 0.0163
62 0.0200 1.7864 0.0095 0.0095
63 0.0400 2.5292 0.0212 0.0212
64 0.0200 1.1249 0.0049 0.0049
65 0.0400 2.5291 0.0135 0.0135
66 0.0400 2.5237 0.0207 0.0207
67 0.0400 2.8648 0.0177 0.0177
68 0.0200 1.1295 0.0095 0.0095
69 0.0400 1.7666 0.0103 0.0103
70 0.0400 2.8757 0.0072 0.0072
71 0.0400 1.7889 0.0101 0.0101
72 0.0200 1.1306 0.0106 0.0106
73 0.0400 1.7853 0.0127 0.0127
74 0.0400 2.7739 0.0204 0.0204
75 0.0400 2.5398 0.0026 0.0026
76 0.0400 2.8453 0.0109 0.0109
77 0.0400 2.5617 0.0009 0.0009
78 0.0400 3.1605 0.0137 0.0137
79 0.0400 3.0618 0.0191 0.0191
80 0.0400 2.4213 0.0119 0.0119
81 0.0400 3.2755 0.0122 0.0122
82 0.0400 2.8866 0.0008 0.0008
83 0.0400 3.1391 0.0143 0.0143
84 0.0400 2.4514 0.0243 0.0243
85 0.0400 3.2880 0.0012 0.0012
86 0.0400 2.8510 0.0126 0.0126
87 0.0400 2.3274 0.0129 0.0129
88 0.0400 2.5380 0.0172 0.0172
89 0.0400 2.4363 0.0018 0.0018
90 0.0400 2.3352 0.0030 0.0030
91 0.0400 2.5023 0.0205 0.0205
92 0.0400 2.4001 0.0071 0.0071
93 0.0400 1.7077 0.0081 0.0081
94 0.0400 2.3368 0.0036 0.0036
95 0.0400 2.7750 0.0269 0.0269
96 0.0400 2.3369 0.0080 0.0080
97 0.0400 1.7386 0.0359 0.0359
98 0.0400 2.8475 0.0305 0.0305
99 0.0400 2.7679 0.0108 0.0108
100 0.0400 1.7632 0.0232 0.0232
101 0.0400 2.7784 0.0157 0.0157
102 0.0400 2.5427 0.0155 0.0155
103 0.0400 2.4088 0.0207 0.0207
104 0.0400 1.6866 0.0089 0.0089
105 0.0400 1.7524 0.0207 0.0207
106 0.0400 2.4147 0.0131 0.0131
107 0.0400 2.7246 0.0138 0.0138
108 0.0400 1.7233 0.0280 0.0280
109 0.0400 2.5390 0.0020 0.0020
110 0.0400 2.5094 0.0129 0.0129
111 0.0400 2.8399 0.0261 0.0261
112 0.0400 1.7496 0.0292 0.0292
113 0.0400 2.5564 0.0049 0.0049
114 0.0400 2.5550 0.0015 0.0015
115 0.0400 2.5749 0.0099 0.0099
116 0.0400 1.6541 0.0464 0.0464
117 0.0400 2.4559 0.0157 0.0157
118 0.0400 2.4075 0.0206 0.0206
119 0.0400 1.7731 0.0059 0.0059
120 0.0400 2.8506 0.0002 0.0002
121 0.0400 2.5350 0.0042 0.0042
122 0.0400 2.8212 0.0473 0.0473
123 0.0400 2.9001 0.0049 0.0049
124 0.0400 2.8161 0.0488 0.0488
125 0.0400 2.5267 0.0054 0.0054
126 0.0400 2.8226 0.0658 0.0658
127 0.0400 2.5278 0.0213 0.0213
128 0.0400 2.5585 0.0014 0.0014
129 0.0400 1.7317 0.0256 0.0256
130 0.0400 2.4974 0.0024 0.0024
131 0.0400 1.7157 0.0019 0.0019
132 0.0400 2.4947 0.0306 0.0306
133 0.0400 2.7752 0.0155 0.0155
134 0.0400 2.5259 0.0259 0.0259
135 0.0400 2.4536 0.0100 0.0100
136 0.0400 2.4923 0.0313 0.0313
137 0.0400 1.7778 0.0063 0.0063
138 0.0400 2.3155 0.0117 0.0117
139 0.0400 2.8455 0.0333 0.0333
140 0.0400 2.2997 0.0110 0.0110
141 0.0400 2.5639 0.0103 0.0103
142 0.0400 2.5217 0.0281 0.0281
143 0.0400 2.5607 0.0027 0.0027
144 0.0400 2.0339 0.0000 0.0000
145 0.0400 1.7515 0.0214 0.0214
146 0.0400 2.2967 0.0084 0.0084
147 0.0400 2.8331 0.0514 0.0514
148 0.0400 2.9141 0.0278 0.0278
149 0.0400 2.5762 0.0052 0.0052
150 0.0400 1.7484 0.0290 0.0290
151 0.0400 1.7677 0.0130 0.0130
152 0.0400 2.1562 0.0000 0.0000
153 0.0400 2.5640 0.0055 0.0055
154 0.0400 2.6489 0.0637 0.0637
155 0.0400 1.7397 0.0328 0.0328
156 0.0400 1.7389 0.0304 0.0304
157 0.0400 2.5434 0.0013 0.0013
158 0.0400 1.7097 0.0078 0.0078
