#------------------------------------------------------------------------------
#$Date: 2021-05-05 11:59:25 +0300 (Wed, 05 May 2021) $
#$Revision: 264937 $
#$URL: file:///home/coder/svn-repositories/cod/cif/7/06/04/7060475.cif $
#------------------------------------------------------------------------------
#
# This file is available in the Crystallography Open Database (COD),
# http://www.crystallography.net/
#
# All data on this site have been placed in the public domain by the
# contributors.
#
data_7060475
loop_
_publ_author_name
'Kukkonen, Esa'
'Lahtinen, Elmeri'
'Myllyperki\"o, Pasi'
'Haukka, Matti'
'Konu, Jari'
_publ_section_title
;
 Nonlinear optical properties of diaromatic stilbene, butadiene and
 thiophene derivatives
;
_journal_issue                   15
_journal_name_full               'New Journal of Chemistry'
_journal_page_first              6640
_journal_page_last               6650
_journal_paper_doi               10.1039/D1NJ00456E
_journal_volume                  45
_journal_year                    2021
_chemical_formula_moiety         'C16 H12 F N O2'
_chemical_formula_sum            'C16 H12 F N O2'
_chemical_formula_weight         269.27
_space_group_crystal_system      monoclinic
_space_group_IT_number           7
_space_group_name_Hall           'P -2yc'
_space_group_name_H-M_alt        'P 1 c 1'
_atom_sites_solution_hydrogens   geom
_atom_sites_solution_primary     dual
_audit_creation_date             2021-03-08
_audit_creation_method
;
Olex2 1.2
(compiled 2018.05.29 svn.r3508 for OlexSys, GUI svn.r5506)
;
_audit_update_record
;
2021-03-12 deposited with the CCDC.	2021-03-19 downloaded from the CCDC.
;
_cell_angle_alpha                90
_cell_angle_beta                 104.703(4)
_cell_angle_gamma                90
_cell_formula_units_Z            2
_cell_length_a                   7.1272(2)
_cell_length_b                   12.8757(4)
_cell_length_c                   7.3763(3)
_cell_measurement_reflns_used    2735
_cell_measurement_temperature    120.00(10)
_cell_measurement_theta_max      76.1180
_cell_measurement_theta_min      3.4030
_cell_volume                     654.74(4)
_computing_cell_refinement       'CrysAlisPro 1.171.38.43 (Rigaku OD, 2015)'
_computing_data_collection       'CrysAlisPro 1.171.38.43 (Rigaku OD, 2015)'
_computing_data_reduction        'CrysAlisPro 1.171.38.43 (Rigaku OD, 2015)'
_computing_molecular_graphics    'Olex2 (Dolomanov et al., 2009)'
_computing_publication_material  'Olex2 (Dolomanov et al., 2009)'
_computing_structure_refinement  'ShelXL (Sheldrick, 2015)'
_computing_structure_solution    'ShelXD (Sheldrick, 2008)'
_diffrn_ambient_environment      N~2~
_diffrn_ambient_temperature      120.00(10)
_diffrn_detector                 'CCD plate'
_diffrn_detector_area_resol_mean 5.1977
_diffrn_detector_type            Atlas
_diffrn_measured_fraction_theta_full 0.994
_diffrn_measured_fraction_theta_max 0.916
_diffrn_measurement_details
;
List of Runs (angles in degrees, time in seconds):

  # Type    Start    End  Width  t~exp~   \w     \q     \k     \f   Frames
#--------------------------------------------------------------------------
  1  \w   -113.00 -18.00   1.00    2.00    --  -41.65 -57.00 150.00   95
  2  \w    -74.00  34.00   1.00    2.00    --  -41.65  77.00-120.00  108
  3  \w   -105.00 -21.00   1.00    2.00    --  -41.65 -57.00   0.00   84
  4  \w     -7.00  70.00   1.00    2.00    --   41.65 -57.00   0.00   77
  5  \w     36.00 116.00   1.00    8.00    --  112.00-111.00   0.00   80
  6  \w     31.00 154.00   1.00    8.00    --  112.00 -15.00 120.00  123
  7  \w     37.00 137.00   1.00    8.00    --  112.00 -30.00  30.00  100
  8  \w     33.00  73.00   1.00    8.00    --  112.00 -94.00-120.00   40
  9  \w     65.00 122.00   1.00    8.00    --  112.00-126.00 123.00   57
 10  \w    106.00 131.00   1.00    8.00    --  112.00 111.00 -90.00   25
 11  \w    152.00 178.00   1.00    8.00    --  112.00 111.00 -90.00   26
 12  \w     72.00 123.00   1.00    8.00    --  112.00 178.00  30.00   51
 13  \w    108.00 178.00   1.00    8.00    --  112.00  30.00 120.00   70
 14  \w     36.00 102.00   1.00    8.00    --  112.00 -94.00 -90.00   66
 15  \w     30.00 108.00   1.00    8.00    --  112.00 -94.00 120.00   78
 16  \w     46.00 136.00   1.00    8.00    --  112.00 -45.00 -60.00   90
 17  \w     40.00 104.00   1.00    8.00    --  112.00-111.00-150.00   64
;
_diffrn_measurement_device       'four-circle diffractometer'
_diffrn_measurement_device_type  'SuperNova, Dual, Cu at zero, Atlas'
_diffrn_measurement_method       '\w scans'
_diffrn_orient_matrix_type
'CrysAlisPro convention (1999,Acta A55,543-557)'
_diffrn_orient_matrix_UB_11      0.0596964000
_diffrn_orient_matrix_UB_12      -0.1131870000
_diffrn_orient_matrix_UB_13      -0.0212480000
_diffrn_orient_matrix_UB_21      0.1921401000
_diffrn_orient_matrix_UB_22      0.0382345000
_diffrn_orient_matrix_UB_23      -0.0199978000
_diffrn_orient_matrix_UB_31      0.0784816000
_diffrn_orient_matrix_UB_32      -0.0074046000
_diffrn_orient_matrix_UB_33      0.2214361000
_diffrn_radiation_monochromator  mirror
_diffrn_radiation_probe          x-ray
_diffrn_radiation_type           CuK\a
_diffrn_radiation_wavelength     1.54184
_diffrn_reflns_av_R_equivalents  0.0182
_diffrn_reflns_av_unetI/netI     0.0213
_diffrn_reflns_Laue_measured_fraction_full 0.994
_diffrn_reflns_Laue_measured_fraction_max 0.916
_diffrn_reflns_limit_h_max       9
_diffrn_reflns_limit_h_min       -9
_diffrn_reflns_limit_k_max       16
_diffrn_reflns_limit_k_min       -15
_diffrn_reflns_limit_l_max       8
_diffrn_reflns_limit_l_min       -6
_diffrn_reflns_number            4854
_diffrn_reflns_point_group_measured_fraction_full 0.702
_diffrn_reflns_point_group_measured_fraction_max 0.632
_diffrn_reflns_theta_full        67.684
_diffrn_reflns_theta_max         85.299
_diffrn_reflns_theta_min         3.433
_diffrn_source                   'micro-focus sealed X-ray tube'
_diffrn_source_type              'SuperNova (Cu) X-ray Source'
_exptl_absorpt_coefficient_mu    0.832
_exptl_absorpt_correction_T_max  0.899
_exptl_absorpt_correction_T_min  0.746
_exptl_absorpt_correction_type   analytical
_exptl_absorpt_process_details
;
CrysAlisPro 1.171.38.43 (Rigaku Oxford Diffraction, 2015)
Analytical numeric absorption correction using a multifaceted crystal
			model based on expressions derived by R.C. Clark & J.S. Reid.
(Clark, R. C. & Reid, J. S. (1995). Acta Cryst. A51, 887-897)
Empirical absorption correction using spherical harmonics,
 implemented in SCALE3 ABSPACK scaling algorithm.
;
_exptl_crystal_colour            yellow
_exptl_crystal_colour_primary    yellow
_exptl_crystal_density_diffrn    1.366
_exptl_crystal_description       block
_exptl_crystal_F_000             280
_exptl_crystal_size_max          0.532
_exptl_crystal_size_mid          0.216
_exptl_crystal_size_min          0.133
_refine_diff_density_max         0.094
_refine_diff_density_min         -0.105
_refine_diff_density_rms         0.022
_refine_ls_abs_structure_details
;
 Flack x determined using 462 quotients [(I+)-(I-)]/[(I+)+(I-)]
 (Parsons, Flack and Wagner, Acta Cryst. B69 (2013) 249-259).
;
_refine_ls_abs_structure_Flack   0.4(2)
_refine_ls_extinction_method     none
_refine_ls_goodness_of_fit_ref   1.063
_refine_ls_hydrogen_treatment    constr
_refine_ls_matrix_type           full
_refine_ls_number_parameters     517
_refine_ls_number_reflns         1881
_refine_ls_number_restraints     484
_refine_ls_restrained_S_all      1.022
_refine_ls_R_factor_all          0.0351
_refine_ls_R_factor_gt           0.0334
_refine_ls_shift/su_max          0.000
_refine_ls_shift/su_mean         0.000
_refine_ls_structure_factor_coef Fsqd
_refine_ls_weighting_details
'w=1/[\s^2^(Fo^2^)+(0.0648P)^2^+0.0266P] where P=(Fo^2^+2Fc^2^)/3'
_refine_ls_weighting_scheme      calc
_refine_ls_wR_factor_gt          0.0933
_refine_ls_wR_factor_ref         0.0962
_reflns_Friedel_coverage         0.373
_reflns_Friedel_fraction_full    0.406
_reflns_Friedel_fraction_max     0.346
_reflns_number_gt                1777
_reflns_number_total             1881
_reflns_threshold_expression     'I > 2\s(I)'
_cod_data_source_file            d1nj00456e2.cif
_cod_data_source_block           compound_2a
_cod_depositor_comments
'Adding full bibliography for 7060468--7060480.cif.'
_cod_database_code               7060475
_shelx_shelxl_version_number     2018/3
_chemical_oxdiff_formula         'C16 H12 F1 N1 O2'
_shelx_space_group_comment
;
The symmetry employed for this shelxl refinement is uniquely defined
by the following loop, which should always be used as a source of
symmetry information in preference to the above space-group names.
They are only intended as comments.
;
_reflns_odcompleteness_completeness 99.36
_reflns_odcompleteness_iscentric 1
_reflns_odcompleteness_theta     74.33
_olex2_refinement_description
;
1. Fixed Uiso
 At 1.2 times of:
  All C(H) groups
2. Restrained distances
 O1C-N1C \\sim O2C-N1C
 with sigma of 0.001
 O1C-C1C \\sim C1C-O2C
 with sigma of 0.001
 C5C-C1C \\sim C5B-C1B
 with sigma of 0.04
 N1C-O1C \\sim N1B-O1B
 with sigma of 0.02
 N1C-O2C \\sim N1B-O2B
 with sigma of 0.02
 N1C-C1C \\sim N1B-C1B
 with sigma of 0.02
 F1C-C14C \\sim F1B-C14B
 with sigma of 0.02
 C15C-C13C \\sim C15B-C13B
 with sigma of 0.04
 O2C-C1C \\sim O2B-C1B
 with sigma of 0.04
 C11C-C16C \\sim C11B-C16B
 with sigma of 0.02
 C11C-C12C \\sim C11B-C12B
 with sigma of 0.02
 C11C-C10C \\sim C11B-C10B
 with sigma of 0.02
 C6C-C2C \\sim C6B-C2B
 with sigma of 0.04
 C16C-C15C \\sim C16B-C15B
 with sigma of 0.02
 C15C-C14C \\sim C15B-C14B
 with sigma of 0.02
 C14C-C13C \\sim C14B-C13B
 with sigma of 0.02
 C16C-C10C \\sim C16B-C10B
 with sigma of 0.04
 C14C-C12C \\sim C14B-C12B
 with sigma of 0.04
 C13C-C12C \\sim C13B-C12B
 with sigma of 0.02
 C8C-C4C \\sim C8B-C4B
 with sigma of 0.04
 C9C-C8C \\sim C9B-C8B
 with sigma of 0.02
 C9C-C10C \\sim C9B-C10B
 with sigma of 0.02
 C7C-C3C \\sim C7B-C3B
 with sigma of 0.04
 C4C-C2C \\sim C4B-C2B
 with sigma of 0.04
 C8C-C7C \\sim C8B-C7B
 with sigma of 0.02
 C7C-C4C \\sim C7B-C4B
 with sigma of 0.02
 C4C-C5C \\sim C4B-C5B
 with sigma of 0.02
 C4C-C3C \\sim C4B-C3B
 with sigma of 0.02
 C5C-C6C \\sim C5B-C6B
 with sigma of 0.02
 C6C-C1C \\sim C6B-C1B
 with sigma of 0.02
 C12C-C10C \\sim C12B-C10B
 with sigma of 0.04
 C1C-C2C \\sim C1B-C2B
 with sigma of 0.02
 C9C-C7C \\sim C9B-C7B
 with sigma of 0.04
 C2C-C3C \\sim C2B-C3B
 with sigma of 0.02
 C8C-C10C \\sim C8B-C10B
 with sigma of 0.04
 N1C-C6C \\sim N1B-C6B
 with sigma of 0.04
 N1C-C2C \\sim N1B-C2B
 with sigma of 0.04
 C7C-C5C \\sim C7B-C5B
 with sigma of 0.04
 F1C-C15C \\sim F1B-C15B
 with sigma of 0.04
 F1C-C13C \\sim F1B-C13B
 with sigma of 0.04
 O1C-O2C \\sim O1B-O2B
 with sigma of 0.04
 C4C-C6C \\sim C4B-C6B
 with sigma of 0.04
 O1C-C1C \\sim O1B-C1B
 with sigma of 0.04
 C11C-C15C \\sim C11B-C15B
 with sigma of 0.04
 C11C-C13C \\sim C11B-C13B
 with sigma of 0.04
 C11C-C9C \\sim C11B-C9B
 with sigma of 0.04
 C5C-C3C \\sim C5B-C3B
 with sigma of 0.04
 C1C-C3C \\sim C1B-C3B
 with sigma of 0.04
 C16C-C14C \\sim C16B-C14B
 with sigma of 0.04
 C16C-C12C \\sim C16B-C12B
 with sigma of 0.04
3. Rigid body (RIGU) restrains
 All non-hydrogen atoms
 with sigma for 1-2 distances of 0.001 and sigma for 1-3 distances of 0.001
4. Others
 Fixed Sof: F1A(0.4) O1A(0.4) O2A(0.4) N1A(0.4) C1A(0.4) C2A(0.4) H2A(0.4)
 C3A(0.4) H3A(0.4) C4A(0.4) C5A(0.4) H5A(0.4) C6A(0.4) H6A(0.4) C7A(0.4)
 H7A(0.4) C8A(0.4) H8A(0.4) C9A(0.4) H9A(0.4) C10A(0.4) H10A(0.4) C11A(0.4)
 C12A(0.4) H12A(0.4) C13A(0.4) H13A(0.4) C14A(0.4) C15A(0.4) H15A(0.4)
 C16A(0.4) H16A(0.4) F1B(0.4) O1B(0.4) O2B(0.4) N1B(0.4) C1B(0.4) C2B(0.4)
 H2B(0.4) C3B(0.4) H3B(0.4) C4B(0.4) C5B(0.4) H5B(0.4) C6B(0.4) H6B(0.4)
 C7B(0.4) H7B(0.4) C8B(0.4) H8B(0.4) C9B(0.4) H9B(0.4) C10B(0.4) H10B(0.4)
 C11B(0.4) C12B(0.4) H12B(0.4) C13B(0.4) H13B(0.4) C14B(0.4) C15B(0.4)
 H15B(0.4) C16B(0.4) H16B(0.4) F1C(0.2) O1C(0.2) O2C(0.2) N1C(0.2) C4C(0.2)
 C5C(0.2) H5C(0.2) C6C(0.2) H6C(0.2) C1C(0.2) C2C(0.2) H2C(0.2) C3C(0.2)
 H3C(0.2) C7C(0.2) H7C(0.2) C8C(0.2) H8C(0.2) C9C(0.2) H9C(0.2) C10C(0.2)
 H10C(0.2) C11C(0.2) C16C(0.2) H16C(0.2) C15C(0.2) H15C(0.2) C14C(0.2)
 C13C(0.2) H13C(0.2) C12C(0.2) H12C(0.2)
5.a Aromatic/amide H refined with riding coordinates:
 C2A(H2A), C3A(H3A), C5A(H5A), C6A(H6A), C7A(H7A), C8A(H8A), C9A(H9A),
 C10A(H10A), C12A(H12A), C13A(H13A), C15A(H15A), C16A(H16A), C2B(H2B), C3B(H3B),
  C5B(H5B), C6B(H6B), C7B(H7B), C8B(H8B), C9B(H9B), C10B(H10B), C12B(H12B),
 C13B(H13B), C15B(H15B), C16B(H16B), C5C(H5C), C6C(H6C), C2C(H2C), C3C(H3C),
 C7C(H7C), C8C(H8C), C9C(H9C), C10C(H10C), C16C(H16C), C15C(H15C), C13C(H13C),
 C12C(H12C)
5.b Fitted hexagon refined as free rotating group:
 C4C(C5C,C6C,C1C,C2C,C3C), C11C(C16C,C15C,C14C,C13C,C12C)
;
_shelx_res_file
;
TITL compound_2a_a.res in Pc
    ek1926_a_pc_small.res
    created by SHELXL-2018/3 at 10:58:23 on 08-Mar-2021
REM Old TITL compound_2a in P2/c #13
REM SHELXT solution in Pc: R1 0.332, Rweak 0.008, Alpha 0.007
REM <I/s> 0.793 for 61 systematic absences, Orientation as input
REM Flack x = 0.318 ( 0.111 ) from 468 Parsons' quotients
REM Formula found by SHELXT: C11B N5 O1C
CELL 1.54184 7.12717 12.875688 7.37632 90 104.7026 90
ZERR 2 0.000208 0.000379 0.000327 0 0.0037 0
LATT -1
SYMM +X,-Y,0.5+Z
SFAC C H F N O
UNIT 32 24 2 2 4
SADI 0.001 O1C N1C O2C N1C
SADI 0.001 O1C C1C C1C O2C
SADI 0.04 C5C C1C C5B C1B
SADI N1C O1C N1B O1B
SADI N1C O2C N1B O2B
SADI N1C C1C N1B C1B
SADI F1C C14C F1B C14B
SADI 0.04 C15C C13C C15B C13B
SADI 0.04 O2C C1C O2B C1B
SADI C11C C16C C11B C16B
SADI C11C C12C C11B C12B
SADI C11C C10C C11B C10B
SADI 0.04 C6C C2C C6B C2B
SADI C16C C15C C16B C15B
SADI C15C C14C C15B C14B
SADI C14C C13C C14B C13B
SADI 0.04 C16C C10C C16B C10B
SADI 0.04 C14C C12C C14B C12B
SADI C13C C12C C13B C12B
SADI 0.04 C8C C4C C8B C4B
SADI C9C C8C C9B C8B
SADI C9C C10C C9B C10B
SADI 0.04 C7C C3C C7B C3B
SADI 0.04 C4C C2C C4B C2B
SADI C8C C7C C8B C7B
SADI C7C C4C C7B C4B
SADI C4C C5C C4B C5B
SADI C4C C3C C4B C3B
SADI C5C C6C C5B C6B
SADI C6C C1C C6B C1B
SADI 0.04 C12C C10C C12B C10B
SADI C1C C2C C1B C2B
SADI 0.04 C9C C7C C9B C7B
SADI C2C C3C C2B C3B
SADI 0.04 C8C C10C C8B C10B
SADI 0.04 N1C C6C N1B C6B
SADI 0.04 N1C C2C N1B C2B
SADI 0.04 C7C C5C C7B C5B
SADI 0.04 F1C C15C F1B C15B
SADI 0.04 F1C C13C F1B C13B
SADI 0.04 O1C O2C O1B O2B
SADI 0.04 C4C C6C C4B C6B
SADI 0.04 O1C C1C O1B C1B
SADI 0.04 C11C C15C C11B C15B
SADI 0.04 C11C C13C C11B C13B
SADI 0.04 C11C C9C C11B C9B
SADI 0.04 C5C C3C C5B C3B
SADI 0.04 C1C C3C C1B C3B
SADI 0.04 C16C C14C C16B C14B
SADI 0.04 C16C C12C C16B C12B
RIGU 0.001 0.001

L.S. 5
PLAN  2
CONF
list 4
BOND $H
fmap 2
acta
REM <olex2.extras>
REM <HklSrc "%.\\compound_2a.hkl">
REM </olex2.extras>

WGHT    0.064800    0.026600
FVAR       2.17144
PART 1
F1A   3    1.490113    0.910246    1.109769    10.40000    0.05237    0.04014 =
         0.04439   -0.00902    0.00055    0.00295
O1A   5   -0.348998    0.519501   -0.203115    10.40000    0.03483    0.05570 =
         0.07939   -0.02241    0.00119   -0.00140
O2A   5   -0.455042    0.633858   -0.031797    10.40000    0.03649    0.04924 =
         0.08237    0.00046    0.01728    0.00540
N1A   4   -0.321151    0.588587   -0.071131    10.40000    0.02747    0.03203 =
         0.06000    0.00135    0.00856   -0.00497
C1A   1   -0.128112    0.610163    0.043791    10.40000    0.02297    0.03274 =
         0.04877    0.00033    0.01150   -0.00634
C2A   1   -0.097531    0.697260    0.165411    10.40000    0.03196    0.02718 =
         0.04895    0.00062    0.01447   -0.00116
AFIX  43
H2A   2   -0.199986    0.739819    0.175050    10.40000   -1.20000
AFIX   0
C3A   1    0.082058    0.715993    0.264946    10.40000    0.03334    0.03479 =
         0.04247   -0.00164    0.01641   -0.00305
AFIX  43
H3A   2    0.108112    0.774008    0.342385    10.40000   -1.20000
AFIX   0
C4A   1    0.230332    0.649307    0.253530    10.40000    0.03203    0.03757 =
         0.04193    0.00541    0.01467   -0.00017
C5A   1    0.192769    0.560863    0.134891    10.40000    0.03124    0.03676 =
         0.05196    0.00433    0.01510    0.00284
AFIX  43
H5A   2    0.293564    0.515752    0.130948    10.40000   -1.20000
AFIX   0
C6A   1    0.014573    0.541672    0.028957    10.40000    0.03391    0.03365 =
         0.03810    0.00040    0.01590    0.00038
AFIX  43
H6A   2   -0.011540    0.484680   -0.050956    10.40000   -1.20000
AFIX   0
C7A   1    0.430387    0.670481    0.368784    10.40000    0.03347    0.05775 =
         0.05543    0.00252    0.01080   -0.00252
AFIX  43
H7A   2    0.522226    0.620592    0.360556    10.40000   -1.20000
AFIX   0
C8A   1    0.495344    0.747158    0.477800    10.40000    0.03556    0.04888 =
         0.05145    0.00619    0.01347    0.00036
AFIX  43
H8A   2    0.406300    0.797460    0.491478    10.40000   -1.20000
AFIX   0
C9A   1    0.693078    0.762071    0.580320    10.40000    0.03867    0.04891 =
         0.05100    0.00100    0.01266   -0.00153
AFIX  43
H9A   2    0.779501    0.710019    0.568093    10.40000   -1.20000
AFIX   0
C10A  1    0.767119    0.840297    0.689446    10.40000    0.03151    0.04423 =
         0.05593    0.00209    0.01147    0.00706
AFIX  43
H10A  2    0.680638    0.893567    0.695018    10.40000   -1.20000
AFIX   0
C11A  1    0.956563    0.855512    0.798565    10.40000    0.03079    0.04637 =
         0.04362    0.00810    0.01025    0.00476
C12A  1    0.999458    0.940805    0.916954    10.40000    0.04072    0.04595 =
         0.04832    0.00528    0.01356    0.00716
AFIX  43
H12A  2    0.900155    0.986023    0.925051    10.40000   -1.20000
AFIX   0
C13A  1    1.181664    0.959994    1.020880    10.40000    0.04830    0.03308 =
         0.03810    0.00013    0.01185    0.00454
AFIX  43
H13A  2    1.210359    1.017537    1.099246    10.40000   -1.20000
AFIX   0
C14A  1    1.315649    0.893321    1.005440    10.40000    0.04591    0.03377 =
         0.03630    0.00258    0.00645    0.00733
C15A  1    1.279780    0.803963    0.884459    10.40000    0.02904    0.03240 =
         0.03561    0.00240    0.00745    0.00537
AFIX  43
H15A  2    1.380103    0.759383    0.876662    10.40000   -1.20000
AFIX   0
C16A  1    1.097535    0.786677    0.783114    10.40000    0.03112    0.04076 =
         0.03544    0.00153    0.00645    0.00293
AFIX  43
H16A  2    1.068024    0.729309    0.704409    10.40000   -1.20000
AFIX   0
PART 0
PART 2
F1B   3   -0.383897    0.586593   -0.082523    10.40000    0.05039    0.07128 =
         0.06997    0.01497   -0.02794   -0.03797
O1B   5    1.565158    0.873500    1.078869    10.40000    0.02898    0.06007 =
         0.06960    0.00230    0.01082    0.01937
O2B   5    1.450799    0.983812    1.239555    10.40000    0.04599    0.06821 =
         0.06806   -0.03145    0.00214    0.00106
N1B   4    1.431356    0.924798    1.116063    10.40000    0.02129    0.03919 =
         0.04684   -0.00320    0.00502    0.00580
C1B   1    1.244723    0.898014    1.000426    10.40000    0.02114    0.03310 =
         0.03930    0.00360    0.00515    0.00539
C2B   1    1.104629    0.963336    1.014971    10.40000    0.02223    0.02985 =
         0.04335   -0.00473    0.00226    0.00499
AFIX  43
H2B   2    1.129275    1.020293    1.095050    10.40000   -1.20000
AFIX   0
C3B   1    0.922707    0.942542    0.906343    10.40000    0.02415    0.02849 =
         0.03380   -0.00546    0.00592    0.00422
AFIX  43
H3B   2    0.821337    0.986506    0.913598    10.40000   -1.20000
AFIX   0
C4B   1    0.882883    0.855957    0.782466    10.40000    0.02610    0.02361 =
         0.02912   -0.00095    0.00460    0.00133
C5B   1    1.029494    0.790918    0.777036    10.40000    0.03121    0.02421 =
         0.03521    0.00228    0.01084    0.00538
AFIX  43
H5B   2    1.006001    0.732835    0.699618    10.40000   -1.20000
AFIX   0
C6B   1    1.211305    0.809816    0.884074    10.40000    0.03055    0.03395 =
         0.03862    0.00212    0.01138    0.00820
AFIX  43
H6B   2    1.312615    0.764978    0.880539    10.40000   -1.20000
AFIX   0
C7B   1    0.692543    0.840120    0.674414    10.40000    0.02635    0.02497 =
         0.02590   -0.00408    0.00232    0.00271
AFIX  43
H7B   2    0.603738    0.892892    0.675485    10.40000   -1.20000
AFIX   0
C8B   1    0.623810    0.753436    0.566108    10.40000    0.03348    0.02430 =
         0.02002   -0.00437    0.00825    0.00015
AFIX  43
H8B   2    0.709233    0.699298    0.562719    10.40000   -1.20000
AFIX   0
C9B   1    0.429316    0.744219    0.460887    10.40000    0.03430    0.03180 =
         0.02381   -0.00437    0.00534   -0.00357
AFIX  43
H9B   2    0.343133    0.797604    0.466674    10.40000   -1.20000
AFIX   0
C10B  1    0.362925    0.660167    0.351182    10.40000    0.03900    0.03189 =
         0.02866   -0.00644    0.00343   -0.00594
AFIX  43
H10B  2    0.451460    0.608325    0.343557    10.40000   -1.20000
AFIX   0
C11B  1    0.160399    0.646066    0.244034    10.40000    0.03850    0.03322 =
         0.02546   -0.00328    0.00288   -0.00623
C12B  1    0.011316    0.711457    0.249556    10.40000    0.03837    0.02851 =
         0.03303   -0.00542    0.00562   -0.00747
AFIX  43
H12B  2    0.029891    0.768916    0.328509    10.40000   -1.20000
AFIX   0
C13B  1   -0.163944    0.689220    0.135740    10.40000    0.03704    0.04421 =
         0.04877    0.00394   -0.00280   -0.00771
AFIX  43
H13B  2   -0.266900    0.733609    0.135665    10.40000   -1.20000
AFIX   0
C14B  1   -0.197238    0.605380    0.021568    10.40000    0.03866    0.04895 =
         0.03333    0.00695   -0.00829   -0.01716
C15B  1   -0.055544    0.538449    0.009632    10.40000    0.05614    0.04266 =
         0.02836   -0.01000   -0.00567   -0.01710
AFIX  43
H15B  2   -0.078427    0.482159   -0.072034    10.40000   -1.20000
AFIX   0
C16B  1    0.122248    0.558014    0.123661    10.40000    0.03956    0.03764 =
         0.03233   -0.00600    0.00238   -0.00393
AFIX  43
H16B  2    0.223052    0.512222    0.123252    10.40000   -1.20000
AFIX   0
PART 0
PART 3
F1C   3    1.426423    0.965151    1.137437    10.20000    0.06078    0.11403 =
         0.09101    0.02766   -0.00225   -0.03048
O1C   5   -0.292492    0.490097   -0.149203    10.20000    0.04613    0.09135 =
         0.10905   -0.05252    0.03020   -0.02827
O2C   5   -0.484501    0.599178   -0.071447    10.20000    0.04339    0.08395 =
         0.09708   -0.03274    0.01392   -0.01210
N1C   4   -0.331700    0.561288   -0.064418    10.20000    0.04686    0.06207 =
         0.05063   -0.00665    0.01845   -0.01358
AFIX  66
C4C   1    0.151601    0.701350    0.292945    10.20000    0.04175    0.02905 =
         0.03579    0.00393    0.01961    0.01610
C5C   1    0.170283    0.610137    0.198253    10.20000    0.03931    0.02655 =
         0.03832    0.00391    0.02363    0.01244
AFIX  43
H5C   2    0.291430    0.579308    0.214522    10.20000   -1.20000
AFIX  65
C6C   1    0.007896    0.565002    0.079247    10.20000    0.04445    0.04066 =
         0.03894   -0.00636    0.02712    0.00470
AFIX  43
H6C   2    0.020396    0.503975    0.015892    10.20000   -1.20000
AFIX  65
C1C   1   -0.173174    0.611080    0.054931    10.20000    0.03780    0.04237 =
         0.04202   -0.00216    0.02313   -0.00106
C2C   1   -0.191858    0.702293    0.149622    10.20000    0.04101    0.03973 =
         0.03654    0.00271    0.01532    0.01365
AFIX  43
H2C   2   -0.313006    0.733121    0.133352    10.20000   -1.20000
AFIX  65
C3C   1   -0.029473    0.747429    0.268629    10.20000    0.03960    0.03534 =
         0.03317    0.00365    0.01867    0.01382
AFIX  43
H3C   2   -0.041974    0.808456    0.331983    10.20000   -1.20000
AFIX   0
C7C   1    0.303194    0.752525    0.412563    10.20000    0.04057    0.04093 =
         0.04014   -0.00185    0.01849    0.01491
AFIX  43
H7C   2    0.269451    0.810668    0.472119    10.20000   -1.20000
AFIX   0
C8C   1    0.494633    0.729563    0.455063    10.20000    0.04056    0.04221 =
         0.05165   -0.00269    0.02046    0.01685
AFIX  43
H8C   2    0.537190    0.673226    0.397356    10.20000   -1.20000
AFIX   0
C9C   1    0.630661    0.789516    0.585236    10.20000    0.03695    0.02544 =
         0.04689    0.00781    0.01792    0.02103
AFIX  43
H9C   2    0.595078    0.850517    0.635265    10.20000   -1.20000
AFIX   0
C10C  1    0.816800    0.753944    0.634407    10.20000    0.03659    0.04676 =
         0.04394    0.02027    0.01949    0.02455
AFIX  43
H10C  2    0.843933    0.690890    0.585033    10.20000   -1.20000
AFIX  66
C11C  1    0.976180    0.809864    0.760908    10.20000    0.03457    0.05020 =
         0.04863    0.02087    0.01894    0.02540
C16C  1    1.164785    0.772628    0.792504    10.20000    0.03156    0.07195 =
         0.06483    0.02669    0.01745    0.02598
AFIX  43
H16C  2    1.190024    0.713374    0.730564    10.20000   -1.20000
AFIX  65
C15C  1    1.315666    0.823954    0.916675    10.20000    0.03904    0.08668 =
         0.06090    0.03971    0.01450    0.00782
AFIX  43
H15C  2    1.441855    0.799040    0.937814    10.20000   -1.20000
AFIX  65
C14C  1    1.277945    0.912517    1.009251    10.20000    0.04102    0.08868 =
         0.06794    0.02492    0.01187   -0.00752
C13C  1    1.089341    0.949754    0.977657    10.20000    0.04842    0.08090 =
         0.06165    0.00579    0.01191   -0.00179
AFIX  43
H13C  2    1.064103    1.009009    1.039597    10.20000   -1.20000
AFIX  65
C12C  1    0.938457    0.898429    0.853486    10.20000    0.03643    0.05356 =
         0.05527    0.00886    0.01412    0.01654
AFIX  43
H12C  2    0.812268    0.923344    0.832348    10.20000   -1.20000
AFIX   0
HKLF 4




REM  compound_2a_a.res in Pc
REM wR2 = 0.0962, GooF = S = 1.063, Restrained GooF = 1.022 for all data
REM R1 = 0.0334 for 1777 Fo > 4sig(Fo) and 0.0351 for all 1881 data
REM 517 parameters refined using 484 restraints

END

WGHT      0.0648      0.0266

REM Highest difference peak  0.094,  deepest hole -0.105,  1-sigma level  0.022
Q1    1   1.2828  0.8745  0.8882  11.00000  0.05    0.09
Q2    1  -0.1750  0.6246  0.1484  11.00000  0.05    0.09
;
_shelx_res_checksum              77849
_ins_header
;
TITL ek1926_a_Pc_small in Pc 
REM Pc (#7 in standard setting)
CELL 1.54184   7.376128  12.878279   7.126359  90.0000 104.7024  90.0000
ZERR    2.00   0.000357   0.000410   0.000224   0.0000   0.0040   0.0000
LATT -1
SYMM  x,-y, z+1/2 
SFAC C H N O F
UNIT 32.00 24.00 2.00 4.00 2.00
TREF
HKLF 4
END
;
_olex2_submission_special_instructions 'No special instructions were received'
_oxdiff_exptl_absorpt_empirical_details
;
Empirical correction (ABSPACK) includes:
- Absorption correction using spherical harmonics
- Frame scaling
;
_oxdiff_exptl_absorpt_empirical_full_max 1.521
_oxdiff_exptl_absorpt_empirical_full_min 0.660
loop_
_space_group_symop_operation_xyz
'x, y, z'
'x, -y, z+1/2'
loop_
_atom_site_label
_atom_site_type_symbol
_atom_site_fract_x
_atom_site_fract_y
_atom_site_fract_z
_atom_site_U_iso_or_equiv
_atom_site_adp_type
_atom_site_occupancy
_atom_site_site_symmetry_order
_atom_site_calc_flag
_atom_site_refinement_flags_posn
_atom_site_refinement_flags_adp
_atom_site_refinement_flags_occupancy
_atom_site_disorder_assembly
_atom_site_disorder_group
F1A F 1.4901(11) 0.9102(5) 1.1098(10) 0.0478(15) Uani 0.4 1 d . U P A 1
O1A O -0.3490(10) 0.5195(6) -0.2031(14) 0.0590(16) Uani 0.4 1 d . U P A 1
O2A O -0.4550(11) 0.6339(5) -0.0318(14) 0.0556(15) Uani 0.4 1 d . U P A 1
N1A N -0.3212(15) 0.5886(8) -0.071(2) 0.0403(17) Uani 0.4 1 d . U P A 1
C1A C -0.1281(12) 0.6102(7) 0.0438(16) 0.0344(17) Uani 0.4 1 d . U P A 1
C2A C -0.0975(12) 0.6973(6) 0.1654(13) 0.0353(16) Uani 0.4 1 d . U P A 1
H2A H -0.199986 0.739819 0.175050 0.042 Uiso 0.4 1 calc R . P A 1
C3A C 0.0821(12) 0.7160(7) 0.2649(16) 0.0356(17) Uani 0.4 1 d . U P A 1
H3A H 0.108112 0.774008 0.342385 0.043 Uiso 0.4 1 calc R . P A 1
C4A C 0.2303(12) 0.6493(7) 0.2535(14) 0.0362(16) Uani 0.4 1 d . U P A 1
C5A C 0.1928(11) 0.5609(7) 0.1349(15) 0.0392(18) Uani 0.4 1 d . U P A 1
H5A H 0.293564 0.515752 0.130948 0.047 Uiso 0.4 1 calc R . P A 1
C6A C 0.0146(13) 0.5417(8) 0.0290(16) 0.0340(17) Uani 0.4 1 d . U P A 1
H6A H -0.011540 0.484680 -0.050956 0.041 Uiso 0.4 1 calc R . P A 1
C7A C 0.4304(12) 0.6705(8) 0.3688(16) 0.049(2) Uani 0.4 1 d . U P A 1
H7A H 0.522226 0.620592 0.360556 0.059 Uiso 0.4 1 calc R . P A 1
C8A C 0.495(2) 0.7472(12) 0.478(2) 0.045(3) Uani 0.4 1 d . U P A 1
H8A H 0.406300 0.797460 0.491478 0.054 Uiso 0.4 1 calc R . P A 1
C9A C 0.6931(15) 0.7621(9) 0.5803(17) 0.046(2) Uani 0.4 1 d . U P A 1
H9A H 0.779501 0.710019 0.568093 0.055 Uiso 0.4 1 calc R . P A 1
C10A C 0.7671(12) 0.8403(6) 0.6894(15) 0.0438(18) Uani 0.4 1 d . U P A 1
H10A H 0.680638 0.893567 0.695018 0.053 Uiso 0.4 1 calc R . P A 1
C11A C 0.9566(13) 0.8555(9) 0.7986(15) 0.0401(19) Uani 0.4 1 d . U P A 1
C12A C 0.9995(16) 0.9408(7) 0.9170(16) 0.0446(18) Uani 0.4 1 d . U P A 1
H12A H 0.900155 0.986023 0.925051 0.054 Uiso 0.4 1 calc R . P A 1
C13A C 1.1817(15) 0.9600(6) 1.0209(13) 0.0397(15) Uani 0.4 1 d . U P A 1
H13A H 1.210359 1.017537 1.099246 0.048 Uiso 0.4 1 calc R . P A 1
C14A C 1.3156(14) 0.8933(7) 1.0054(15) 0.0394(17) Uani 0.4 1 d . U P A 1
C15A C 1.2798(12) 0.8040(7) 0.8845(15) 0.0325(17) Uani 0.4 1 d . U P A 1
H15A H 1.380103 0.759383 0.876662 0.039 Uiso 0.4 1 calc R . P A 1
C16A C 1.0975(14) 0.7867(8) 0.7831(16) 0.0361(18) Uani 0.4 1 d . U P A 1
H16A H 1.068024 0.729309 0.704409 0.043 Uiso 0.4 1 calc R . P A 1
F1B F -0.3839(13) 0.5866(9) -0.0825(16) 0.072(3) Uani 0.4 1 d D U P B 2
O1B O 1.5652(7) 0.8735(5) 1.0789(10) 0.0532(13) Uani 0.4 1 d D U P B 2
O2B O 1.4508(10) 0.9838(5) 1.2396(11) 0.0630(17) Uani 0.4 1 d D U P B 2
N1B N 1.4314(12) 0.9248(9) 1.1161(17) 0.0364(17) Uani 0.4 1 d D U P B 2
C1B C 1.2447(10) 0.8980(7) 1.0004(14) 0.0316(16) Uani 0.4 1 d D U P B 2
C2B C 1.1046(11) 0.9633(6) 1.0150(14) 0.0329(18) Uani 0.4 1 d D U P B 2
H2B H 1.129275 1.020293 1.095050 0.039 Uiso 0.4 1 calc R . P B 2
C3B C 0.9227(10) 0.9425(5) 0.9063(11) 0.0291(13) Uani 0.4 1 d D U P B 2
H3B H 0.821337 0.986506 0.913598 0.035 Uiso 0.4 1 calc R . P B 2
C4B C 0.8829(10) 0.8560(5) 0.7825(11) 0.0267(13) Uani 0.4 1 d D U P B 2
C5B C 1.0295(12) 0.7909(6) 0.7770(14) 0.0298(15) Uani 0.4 1 d D U P B 2
H5B H 1.006001 0.732835 0.699618 0.036 Uiso 0.4 1 calc R . P B 2
C6B C 1.2113(11) 0.8098(6) 0.8841(14) 0.0339(15) Uani 0.4 1 d D U P B 2
H6B H 1.312615 0.764978 0.880539 0.041 Uiso 0.4 1 calc R . P B 2
C7B C 0.6925(10) 0.8401(4) 0.6744(9) 0.0265(12) Uani 0.4 1 d D U P B 2
H7B H 0.603738 0.892892 0.675485 0.032 Uiso 0.4 1 calc R . P B 2
C8B C 0.6238(14) 0.7534(6) 0.5661(12) 0.0257(16) Uani 0.4 1 d D U P B 2
H8B H 0.709233 0.699298 0.562719 0.031 Uiso 0.4 1 calc R . P B 2
C9B C 0.4293(12) 0.7442(7) 0.4609(12) 0.0303(19) Uani 0.4 1 d D U P B 2
H9B H 0.343133 0.797604 0.466674 0.036 Uiso 0.4 1 calc R . P B 2
C10B C 0.3629(11) 0.6602(6) 0.3512(11) 0.0341(15) Uani 0.4 1 d D U P B 2
H10B H 0.451460 0.608325 0.343557 0.041 Uiso 0.4 1 calc R . P B 2
C11B C 0.1604(12) 0.6461(7) 0.2440(13) 0.0333(17) Uani 0.4 1 d D U P B 2
C12B C 0.0113(14) 0.7115(6) 0.2496(14) 0.0339(17) Uani 0.4 1 d D U P B 2
H12B H 0.029891 0.768916 0.328509 0.041 Uiso 0.4 1 calc R . P B 2
C13B C -0.1639(14) 0.6892(9) 0.1357(17) 0.046(2) Uani 0.4 1 d D U P B 2
H13B H -0.266900 0.733609 0.135665 0.055 Uiso 0.4 1 calc R . P B 2
C14B C -0.1972(14) 0.6054(8) 0.0216(15) 0.043(2) Uani 0.4 1 d D U P B 2
C15B C -0.0555(14) 0.5384(8) 0.0096(14) 0.045(2) Uani 0.4 1 d D U P B 2
H15B H -0.078427 0.482159 -0.072034 0.054 Uiso 0.4 1 calc R . P B 2
C16B C 0.1222(13) 0.5580(7) 0.1237(14) 0.0377(17) Uani 0.4 1 d D U P B 2
H16B H 0.223052 0.512222 0.123252 0.045 Uiso 0.4 1 calc R . P B 2
F1C F 1.426(2) 0.9652(13) 1.137(3) 0.092(5) Uani 0.2 1 d D U P C 3
O1C O -0.2925(17) 0.4901(11) -0.149(2) 0.080(5) Uani 0.2 1 d D U P C 3
O2C O -0.4845(14) 0.5992(13) -0.071(3) 0.076(4) Uani 0.2 1 d D U P C 3
N1C N -0.332(2) 0.5613(14) -0.064(3) 0.052(4) Uani 0.2 1 d D U P C 3
C4C C 0.1516(11) 0.7014(8) 0.2929(13) 0.034(2) Uani 0.2 1 d D U P C 3
C5C C 0.1703(12) 0.6101(8) 0.1983(16) 0.032(2) Uani 0.2 1 d DG U P C 3
H5C H 0.291430 0.579308 0.214522 0.039 Uiso 0.2 1 calc R . P C 3
C6C C 0.0079(16) 0.5650(8) 0.0792(19) 0.038(3) Uani 0.2 1 d DG U P C 3
H6C H 0.020396 0.503975 0.015892 0.046 Uiso 0.2 1 calc R . P C 3
C1C C -0.1732(13) 0.6111(11) 0.055(2) 0.038(4) Uani 0.2 1 d DG U P C 3
C2C C -0.1919(11) 0.7023(10) 0.150(2) 0.038(3) Uani 0.2 1 d DG U P C 3
H2C H -0.313006 0.733121 0.133352 0.046 Uiso 0.2 1 calc R . P C 3
C3C C -0.0295(14) 0.7474(6) 0.2686(14) 0.034(2) Uani 0.2 1 d DG U P C 3
H3C H -0.041974 0.808456 0.331983 0.041 Uiso 0.2 1 calc R . P C 3
C7C C 0.3032(18) 0.7525(9) 0.4126(18) 0.039(2) Uani 0.2 1 d D U P C 3
H7C H 0.269451 0.810668 0.472119 0.047 Uiso 0.2 1 calc R . P C 3
C8C C 0.495(3) 0.730(3) 0.455(5) 0.043(5) Uani 0.2 1 d D U P C 3
H8C H 0.537190 0.673226 0.397356 0.052 Uiso 0.2 1 calc R . P C 3
C9C C 0.631(2) 0.7895(13) 0.585(3) 0.035(3) Uani 0.2 1 d D U P C 3
H9C H 0.595078 0.850517 0.635265 0.042 Uiso 0.2 1 calc R . P C 3
C10C C 0.8168(17) 0.7539(9) 0.6344(17) 0.041(2) Uani 0.2 1 d D U P C 3
H10C H 0.843933 0.690890 0.585033 0.049 Uiso 0.2 1 calc R . P C 3
C11C C 0.9762(14) 0.8099(11) 0.7609(18) 0.043(3) Uani 0.2 1 d D U P C 3
C16C C 1.1648(18) 0.7726(10) 0.793(2) 0.055(4) Uani 0.2 1 d DG U P C 3
H16C H 1.190024 0.713374 0.730564 0.066 Uiso 0.2 1 calc R . P C 3
C15C C 1.3157(13) 0.8240(14) 0.917(3) 0.062(4) Uani 0.2 1 d DG U P C 3
H15C H 1.441855 0.799040 0.937814 0.074 Uiso 0.2 1 calc R . P C 3
C14C C 1.278(2) 0.9125(14) 1.009(3) 0.066(6) Uani 0.2 1 d DG U P C 3
C13C C 1.089(3) 0.9498(11) 0.978(3) 0.064(6) Uani 0.2 1 d DG U P C 3
H13C H 1.064103 1.009009 1.039597 0.077 Uiso 0.2 1 calc R . P C 3
C12C C 0.9385(17) 0.8984(11) 0.853(2) 0.048(3) Uani 0.2 1 d DG U P C 3
H12C H 0.812268 0.923344 0.832348 0.058 Uiso 0.2 1 calc R . P C 3
loop_
_atom_site_aniso_label
_atom_site_aniso_U_11
_atom_site_aniso_U_22
_atom_site_aniso_U_33
_atom_site_aniso_U_23
_atom_site_aniso_U_13
_atom_site_aniso_U_12
F1A 0.052(3) 0.040(3) 0.044(2) -0.009(2) 0.001(3) 0.003(3)
O1A 0.035(3) 0.056(3) 0.079(4) -0.022(3) 0.001(2) -0.001(2)
O2A 0.036(2) 0.049(3) 0.082(4) 0.000(3) 0.017(3) 0.005(2)
N1A 0.027(3) 0.032(3) 0.060(4) 0.001(3) 0.009(2) -0.005(2)
C1A 0.023(2) 0.033(3) 0.049(4) 0.000(2) 0.012(2) -0.006(2)
C2A 0.032(3) 0.027(3) 0.049(4) 0.001(2) 0.014(3) -0.001(3)
C3A 0.033(3) 0.035(3) 0.042(4) -0.002(3) 0.016(3) -0.003(3)
C4A 0.032(3) 0.038(3) 0.042(3) 0.005(2) 0.015(3) 0.000(2)
C5A 0.031(3) 0.037(3) 0.052(4) 0.004(2) 0.015(3) 0.003(3)
C6A 0.034(3) 0.034(3) 0.038(4) 0.000(3) 0.016(3) 0.000(2)
C7A 0.033(3) 0.058(4) 0.055(4) 0.003(3) 0.011(3) -0.003(3)
C8A 0.036(4) 0.049(6) 0.051(6) 0.006(4) 0.013(3) 0.000(3)
C9A 0.039(4) 0.049(4) 0.051(4) 0.001(3) 0.013(3) -0.002(3)
C10A 0.032(3) 0.044(3) 0.056(4) 0.002(3) 0.011(3) 0.007(2)
C11A 0.031(3) 0.046(4) 0.044(4) 0.008(3) 0.010(3) 0.005(3)
C12A 0.041(4) 0.046(3) 0.048(4) 0.005(3) 0.014(3) 0.007(3)
C13A 0.048(3) 0.033(3) 0.038(3) 0.000(2) 0.012(3) 0.005(3)
C14A 0.046(3) 0.034(3) 0.036(3) 0.003(2) 0.006(3) 0.007(3)
C15A 0.029(3) 0.032(3) 0.036(3) 0.002(2) 0.007(3) 0.005(3)
C16A 0.031(3) 0.041(3) 0.035(3) 0.002(3) 0.006(3) 0.003(3)
F1B 0.050(4) 0.071(5) 0.070(4) 0.015(4) -0.028(4) -0.038(4)
O1B 0.0290(19) 0.060(3) 0.070(4) 0.002(3) 0.011(2) 0.019(2)
O2B 0.046(3) 0.068(3) 0.068(3) -0.031(3) 0.002(2) 0.001(2)
N1B 0.021(2) 0.039(4) 0.047(3) -0.003(3) 0.005(2) 0.006(2)
C1B 0.021(2) 0.033(3) 0.039(3) 0.004(2) 0.005(2) 0.005(2)
C2B 0.022(2) 0.030(3) 0.043(4) -0.005(3) 0.002(2) 0.005(2)
C3B 0.024(2) 0.028(3) 0.034(3) -0.0055(19) 0.006(2) 0.004(2)
C4B 0.026(3) 0.024(2) 0.029(3) -0.0009(17) 0.005(2) 0.001(2)
C5B 0.031(3) 0.024(3) 0.035(3) 0.002(2) 0.011(3) 0.005(2)
C6B 0.031(3) 0.034(3) 0.039(3) 0.002(2) 0.011(3) 0.008(2)
C7B 0.026(3) 0.025(2) 0.026(2) -0.0041(18) 0.002(2) 0.003(2)
C8B 0.033(4) 0.024(3) 0.020(2) -0.004(2) 0.008(3) 0.000(2)
C9B 0.034(4) 0.032(3) 0.024(3) -0.004(2) 0.005(3) -0.004(3)
C10B 0.039(3) 0.032(3) 0.029(3) -0.006(2) 0.003(3) -0.006(2)
C11B 0.039(3) 0.033(3) 0.025(3) -0.003(2) 0.003(3) -0.006(3)
C12B 0.038(4) 0.029(3) 0.033(3) -0.005(2) 0.006(3) -0.007(3)
C13B 0.037(4) 0.044(4) 0.049(4) 0.004(3) -0.003(3) -0.008(3)
C14B 0.039(4) 0.049(4) 0.033(4) 0.007(3) -0.008(3) -0.017(3)
C15B 0.056(4) 0.043(4) 0.028(3) -0.010(3) -0.006(3) -0.017(3)
C16B 0.040(4) 0.038(3) 0.032(3) -0.006(2) 0.002(3) -0.004(3)
F1C 0.061(7) 0.114(12) 0.091(9) 0.028(8) -0.002(7) -0.030(8)
O1C 0.046(6) 0.091(8) 0.109(11) -0.053(8) 0.030(6) -0.028(5)
O2C 0.043(4) 0.084(9) 0.097(9) -0.033(7) 0.014(4) -0.012(5)
N1C 0.047(4) 0.062(8) 0.051(7) -0.007(6) 0.018(4) -0.014(4)
C4C 0.042(3) 0.029(4) 0.036(5) 0.004(4) 0.020(3) 0.016(3)
C5C 0.039(4) 0.027(5) 0.038(6) 0.004(4) 0.024(4) 0.012(3)
C6C 0.044(5) 0.041(5) 0.039(6) -0.006(4) 0.027(4) 0.005(3)
C1C 0.038(4) 0.042(6) 0.042(7) -0.002(5) 0.023(4) -0.001(4)
C2C 0.041(4) 0.040(5) 0.037(6) 0.003(4) 0.015(4) 0.014(4)
C3C 0.040(4) 0.035(5) 0.033(5) 0.004(3) 0.019(3) 0.014(3)
C7C 0.041(3) 0.041(5) 0.040(5) -0.002(4) 0.018(3) 0.015(3)
C8C 0.041(3) 0.042(9) 0.052(9) -0.003(6) 0.020(4) 0.017(4)
C9C 0.037(3) 0.025(6) 0.047(6) 0.008(5) 0.018(3) 0.021(3)
C10C 0.037(3) 0.047(5) 0.044(5) 0.020(4) 0.019(3) 0.025(3)
C11C 0.035(3) 0.050(7) 0.049(7) 0.021(5) 0.019(3) 0.025(4)
C16C 0.032(4) 0.072(8) 0.065(8) 0.027(6) 0.017(4) 0.026(4)
C15C 0.039(5) 0.087(9) 0.061(9) 0.040(6) 0.014(4) 0.008(5)
C14C 0.041(6) 0.089(10) 0.068(10) 0.025(7) 0.012(6) -0.008(6)
C13C 0.048(6) 0.081(10) 0.062(12) 0.006(8) 0.012(6) -0.002(6)
C12C 0.036(5) 0.054(7) 0.055(8) 0.009(5) 0.014(4) 0.017(4)
loop_
_atom_type_symbol
_atom_type_description
_atom_type_scat_dispersion_real
_atom_type_scat_dispersion_imag
_atom_type_scat_source
C C 0.0181 0.0091 'International Tables Vol C Tables 4.2.6.8 and 6.1.1.4'
H H 0.0000 0.0000 'International Tables Vol C Tables 4.2.6.8 and 6.1.1.4'
F F 0.0727 0.0534 'International Tables Vol C Tables 4.2.6.8 and 6.1.1.4'
N N 0.0311 0.0180 'International Tables Vol C Tables 4.2.6.8 and 6.1.1.4'
O O 0.0492 0.0322 'International Tables Vol C Tables 4.2.6.8 and 6.1.1.4'
loop_
_exptl_crystal_face_index_h
_exptl_crystal_face_index_k
_exptl_crystal_face_index_l
_exptl_crystal_face_perp_dist
-3 -1 4 0.1020
3 1 -4 0.1020
-1 -1 5 0.1490
1 1 -5 0.1860
0 1 0 0.0647
0 -1 0 0.0687
5 1 -1 0.2132
-5 -1 1 0.1472
1 -7 2 0.1090
4 -1 -3 0.1286
-3 5 2 0.0970
3 -6 -2 0.0979
loop_
_geom_angle_atom_site_label_1
_geom_angle_atom_site_label_2
_geom_angle_atom_site_label_3
_geom_angle
_geom_angle_site_symmetry_1
_geom_angle_site_symmetry_3
_geom_angle_publ_flag
O1A N1A C1A 120.9(7) . . ?
O2A N1A O1A 121.9(9) . . ?
O2A N1A C1A 117.1(9) . . ?
C2A C1A N1A 119.5(7) . . ?
C6A C1A N1A 116.3(8) . . ?
C6A C1A C2A 124.1(8) . . ?
C1A C2A H2A 121.1 . . ?
C3A C2A C1A 117.8(7) . . ?
C3A C2A H2A 121.1 . . ?
C2A C3A H3A 120.0 . . ?
C2A C3A C4A 120.0(7) . . ?
C4A C3A H3A 120.0 . . ?
C3A C4A C5A 120.6(7) . . ?
C3A C4A C7A 119.2(8) . . ?
C5A C4A C7A 120.2(7) . . ?
C4A C5A H5A 119.6 . . ?
C6A C5A C4A 120.8(7) . . ?
C6A C5A H5A 119.6 . . ?
C1A C6A H6A 121.7 . . ?
C5A C6A C1A 116.7(8) . . ?
C5A C6A H6A 121.7 . . ?
C4A C7A H7A 115.1 . . ?
C8A C7A C4A 129.8(10) . . ?
C8A C7A H7A 115.1 . . ?
C7A C8A H8A 117.1 . . ?
C7A C8A C9A 125.7(13) . . ?
C9A C8A H8A 117.1 . . ?
C8A C9A H9A 116.0 . . ?
C10A C9A C8A 127.9(11) . . ?
C10A C9A H9A 116.0 . . ?
C9A C10A H10A 115.1 . . ?
C9A C10A C11A 129.7(9) . . ?
C11A C10A H10A 115.1 . . ?
C12A C11A C10A 119.9(10) . . ?
C16A C11A C10A 118.9(10) . . ?
C16A C11A C12A 121.1(9) . . ?
C11A C12A H12A 119.1 . . ?
C13A C12A C11A 121.8(9) . . ?
C13A C12A H12A 119.1 . . ?
C12A C13A H13A 121.7 . . ?
C14A C13A C12A 116.6(7) . . ?
C14A C13A H13A 121.7 . . ?
F1A C14A C13A 116.5(8) . . ?
F1A C14A C15A 119.5(7) . . ?
C13A C14A C15A 124.0(8) . . ?
C14A C15A H15A 120.9 . . ?
C16A C15A C14A 118.2(7) . . ?
C16A C15A H15A 120.9 . . ?
C11A C16A H16A 120.9 . . ?
C15A C16A C11A 118.3(8) . . ?
C15A C16A H16A 120.9 . . ?
O1B N1B C1B 112.9(8) . . ?
O2B N1B O1B 124.8(9) . . ?
O2B N1B C1B 122.1(8) . . ?
C2B C1B N1B 113.8(7) . . ?
C2B C1B C6B 123.0(7) . . ?
C6B C1B N1B 123.2(7) . . ?
C1B C2B H2B 121.7 . . ?
C1B C2B C3B 116.7(7) . . ?
C3B C2B H2B 121.7 . . ?
C2B C3B H3B 118.8 . . ?
C2B C3B C4B 122.3(6) . . ?
C4B C3B H3B 118.8 . . ?
C5B C4B C3B 118.4(6) . . ?
C5B C4B C7B 122.6(6) . . ?
C7B C4B C3B 119.0(6) . . ?
C4B C5B H5B 119.9 . . ?
C4B C5B C6B 120.3(7) . . ?
C6B C5B H5B 119.9 . . ?
C1B C6B H6B 120.4 . . ?
C5B C6B C1B 119.2(7) . . ?
C5B C6B H6B 120.4 . . ?
C4B C7B H7B 116.8 . . ?
C8B C7B C4B 126.4(6) . . ?
C8B C7B H7B 116.8 . . ?
C7B C8B H8B 118.7 . . ?
C7B C8B C9B 122.6(9) . . ?
C9B C8B H8B 118.7 . . ?
C8B C9B H9B 118.7 . . ?
C10B C9B C8B 122.6(8) . . ?
C10B C9B H9B 118.7 . . ?
C9B C10B H10B 117.9 . . ?
C9B C10B C11B 124.3(8) . . ?
C11B C10B H10B 117.9 . . ?
C12B C11B C10B 125.0(7) . . ?
C12B C11B C16B 118.9(7) . . ?
C16B C11B C10B 116.1(8) . . ?
C11B C12B H12B 121.4 . . ?
C13B C12B C11B 117.1(8) . . ?
C13B C12B H12B 121.4 . . ?
C12B C13B H13B 118.5 . . ?
C12B C13B C14B 123.1(9) . . ?
C14B C13B H13B 118.5 . . ?
C13B C14B F1B 118.6(10) . . ?
C15B C14B F1B 119.0(9) . . ?
C15B C14B C13B 122.4(8) . . ?
C14B C15B H15B 122.0 . . ?
C14B C15B C16B 116.0(7) . . ?
C16B C15B H15B 122.0 . . ?
C11B C16B H16B 118.8 . . ?
C15B C16B C11B 122.4(8) . . ?
C15B C16B H16B 118.8 . . ?
O1C N1C C1C 115.2(9) . . ?
O2C N1C O1C 129.4(19) . . ?
O2C N1C C1C 115.2(9) . . ?
C5C C4C C3C 120.0 . . ?
C7C C4C C5C 124.5(8) . . ?
C7C C4C C3C 115.5(8) . . ?
C4C C5C H5C 120.0 . . ?
C4C C5C C6C 120.0 . . ?
C6C C5C H5C 120.0 . . ?
C5C C6C H6C 120.0 . . ?
C1C C6C C5C 120.0 . . ?
C1C C6C H6C 120.0 . . ?
C6C C1C N1C 117.4(6) . . ?
C6C C1C C2C 120.0 . . ?
C2C C1C N1C 122.6(6) . . ?
C1C C2C H2C 120.0 . . ?
C3C C2C C1C 120.0 . . ?
C3C C2C H2C 120.0 . . ?
C4C C3C H3C 120.0 . . ?
C2C C3C C4C 120.0 . . ?
C2C C3C H3C 120.0 . . ?
C4C C7C H7C 115.7 . . ?
C8C C7C C4C 128.7(14) . . ?
C8C C7C H7C 115.7 . . ?
C7C C8C H8C 119.4 . . ?
C7C C8C C9C 121.1(19) . . ?
C9C C8C H8C 119.4 . . ?
C8C C9C H9C 121.6 . . ?
C10C C9C C8C 116.9(15) . . ?
C10C C9C H9C 121.6 . . ?
C9C C10C H10C 118.3 . . ?
C9C C10C C11C 123.4(13) . . ?
C11C C10C H10C 118.3 . . ?
C16C C11C C10C 119.9(11) . . ?
C16C C11C C12C 120.0 . . ?
C12C C11C C10C 120.1(11) . . ?
C11C C16C H16C 120.0 . . ?
C15C C16C C11C 120.0 . . ?
C15C C16C H16C 120.0 . . ?
C16C C15C H15C 120.0 . . ?
C14C C15C C16C 120.0 . . ?
C14C C15C H15C 120.0 . . ?
C15C C14C F1C 121.4(14) . . ?
C15C C14C C13C 120.0 . . ?
C13C C14C F1C 118.6(14) . . ?
C14C C13C H13C 120.0 . . ?
C12C C13C C14C 120.0 . . ?
C12C C13C H13C 120.0 . . ?
C11C C12C H12C 120.0 . . ?
C13C C12C C11C 120.0 . . ?
C13C C12C H12C 120.0 . . ?
loop_
_geom_bond_atom_site_label_1
_geom_bond_atom_site_label_2
_geom_bond_distance
_geom_bond_site_symmetry_2
_geom_bond_publ_flag
F1A C14A 1.304(11) . ?
O1A N1A 1.296(13) . ?
O2A N1A 1.215(12) . ?
N1A C1A 1.448(11) . ?
C1A C2A 1.418(10) . ?
C1A C6A 1.371(9) . ?
C2A H2A 0.9300 . ?
C2A C3A 1.326(10) . ?
C3A H3A 0.9300 . ?
C3A C4A 1.381(10) . ?
C4A C5A 1.420(11) . ?
C4A C7A 1.488(10) . ?
C5A H5A 0.9300 . ?
C5A C6A 1.334(11) . ?
C6A H6A 0.9300 . ?
C7A H7A 0.9300 . ?
C7A C8A 1.283(15) . ?
C8A H8A 0.9300 . ?
C8A C9A 1.433(12) . ?
C9A H9A 0.9300 . ?
C9A C10A 1.313(13) . ?
C10A H10A 0.9300 . ?
C10A C11A 1.399(11) . ?
C11A C12A 1.388(15) . ?
C11A C16A 1.366(11) . ?
C12A H12A 0.9300 . ?
C12A C13A 1.353(12) . ?
C13A H13A 0.9300 . ?
C13A C14A 1.310(11) . ?
C14A C15A 1.439(10) . ?
C15A H15A 0.9300 . ?
C15A C16A 1.343(10) . ?
C16A H16A 0.9300 . ?
F1B C14B 1.378(8) . ?
O1B N1B 1.246(8) . ?
O2B N1B 1.167(13) . ?
N1B C1B 1.428(9) . ?
C1B C2B 1.331(9) . ?
C1B C6B 1.407(10) . ?
C2B H2B 0.9300 . ?
C2B C3B 1.367(8) . ?
C3B H3B 0.9300 . ?
C3B C4B 1.424(8) . ?
C4B C5B 1.348(9) . ?
C4B C7B 1.403(8) . ?
C5B H5B 0.9300 . ?
C5B C6B 1.357(9) . ?
C6B H6B 0.9300 . ?
C7B H7B 0.9300 . ?
C7B C8B 1.388(8) . ?
C8B H8B 0.9300 . ?
C8B C9B 1.411(8) . ?
C9B H9B 0.9300 . ?
C9B C10B 1.362(9) . ?
C10B H10B 0.9300 . ?
C10B C11B 1.470(9) . ?
C11B C12B 1.364(11) . ?
C11B C16B 1.423(10) . ?
C12B H12B 0.9300 . ?
C12B C13B 1.347(9) . ?
C13B H13B 0.9300 . ?
C13B C14B 1.353(12) . ?
C14B C15B 1.347(13) . ?
C15B H15B 0.9300 . ?
C15B C16B 1.355(9) . ?
C16B H16B 0.9300 . ?
F1C C14C 1.402(16) . ?
O1C N1C 1.182(11) . ?
O2C N1C 1.182(11) . ?
N1C C1C 1.399(18) . ?
C4C C5C 1.3900 . ?
C4C C3C 1.3900 . ?
C4C C7C 1.377(14) . ?
C5C H5C 0.9300 . ?
C5C C6C 1.3900 . ?
C6C H6C 0.9300 . ?
C6C C1C 1.3900 . ?
C1C C2C 1.3900 . ?
C2C H2C 0.9300 . ?
C2C C3C 1.3900 . ?
C3C H3C 0.9300 . ?
C7C H7C 0.9300 . ?
C7C C8C 1.35(2) . ?
C8C H8C 0.9300 . ?
C8C C9C 1.41(2) . ?
C9C H9C 0.9300 . ?
C9C C10C 1.363(15) . ?
C10C H10C 0.9300 . ?
C10C C11C 1.463(15) . ?
C11C C16C 1.3900 . ?
C11C C12C 1.3900 . ?
C16C H16C 0.9300 . ?
C16C C15C 1.3900 . ?
C15C H15C 0.9300 . ?
C15C C14C 1.3900 . ?
C14C C13C 1.3900 . ?
C13C H13C 0.9300 . ?
C13C C12C 1.3900 . ?
C12C H12C 0.9300 . ?
loop_
_geom_torsion_atom_site_label_1
_geom_torsion_atom_site_label_2
_geom_torsion_atom_site_label_3
_geom_torsion_atom_site_label_4
_geom_torsion
_geom_torsion_site_symmetry_1
_geom_torsion_site_symmetry_2
_geom_torsion_site_symmetry_3
_geom_torsion_site_symmetry_4
_geom_torsion_publ_flag
F1A C14A C15A C16A 177.9(10) . . . . ?
O1A N1A C1A C2A 169.6(11) . . . . ?
O1A N1A C1A C6A -11.6(15) . . . . ?
O2A N1A C1A C2A -14.1(15) . . . . ?
O2A N1A C1A C6A 164.6(10) . . . . ?
N1A C1A C2A C3A -178.3(9) . . . . ?
N1A C1A C6A C5A -179.8(9) . . . . ?
C1A C2A C3A C4A -2.5(13) . . . . ?
C2A C1A C6A C5A -1.1(13) . . . . ?
C2A C3A C4A C5A 0.4(13) . . . . ?
C2A C3A C4A C7A -178.9(8) . . . . ?
C3A C4A C5A C6A 1.5(13) . . . . ?
C3A C4A C7A C8A -3.7(18) . . . . ?
C4A C5A C6A C1A -1.1(13) . . . . ?
C4A C7A C8A C9A -178.4(12) . . . . ?
C5A C4A C7A C8A 177.0(15) . . . . ?
C6A C1A C2A C3A 3.0(14) . . . . ?
C7A C4A C5A C6A -179.1(8) . . . . ?
C7A C8A C9A C10A 178.1(14) . . . . ?
C8A C9A C10A C11A 176.6(13) . . . . ?
C9A C10A C11A C12A -174.4(10) . . . . ?
C9A C10A C11A C16A 7.0(15) . . . . ?
C10A C11A C12A C13A -178.1(8) . . . . ?
C10A C11A C16A C15A 178.0(9) . . . . ?
C11A C12A C13A C14A -0.6(13) . . . . ?
C12A C11A C16A C15A -0.5(14) . . . . ?
C12A C13A C14A F1A -178.1(8) . . . . ?
C12A C13A C14A C15A 0.9(13) . . . . ?
C13A C14A C15A C16A -1.1(14) . . . . ?
C14A C15A C16A C11A 0.8(14) . . . . ?
C16A C11A C12A C13A 0.4(14) . . . . ?
F1B C14B C15B C16B -176.3(9) . . . . ?
O1B N1B C1B C2B -169.0(10) . . . . ?
O1B N1B C1B C6B 12.0(16) . . . . ?
O2B N1B C1B C2B 15.8(16) . . . . ?
O2B N1B C1B C6B -163.3(12) . . . . ?
N1B C1B C2B C3B 179.4(9) . . . . ?
N1B C1B C6B C5B -179.2(9) . . . . ?
C1B C2B C3B C4B -0.3(13) . . . . ?
C2B C1B C6B C5B 1.8(15) . . . . ?
C2B C3B C4B C5B 2.0(12) . . . . ?
C2B C3B C4B C7B -179.6(7) . . . . ?
C3B C4B C5B C6B -1.7(11) . . . . ?
C3B C4B C7B C8B -171.1(7) . . . . ?
C4B C5B C6B C1B 0.0(13) . . . . ?
C4B C7B C8B C9B -179.8(7) . . . . ?
C5B C4B C7B C8B 7.3(11) . . . . ?
C6B C1B C2B C3B -1.6(14) . . . . ?
C7B C4B C5B C6B 179.9(8) . . . . ?
C7B C8B C9B C10B 178.5(8) . . . . ?
C8B C9B C10B C11B 178.0(7) . . . . ?
C9B C10B C11B C12B -4.3(13) . . . . ?
C9B C10B C11B C16B 174.3(9) . . . . ?
C10B C11B C12B C13B 177.1(9) . . . . ?
C10B C11B C16B C15B -176.5(8) . . . . ?
C11B C12B C13B C14B 1.2(16) . . . . ?
C12B C11B C16B C15B 2.2(14) . . . . ?
C12B C13B C14B F1B 176.8(11) . . . . ?
C12B C13B C14B C15B -1.6(17) . . . . ?
C13B C14B C15B C16B 2.1(14) . . . . ?
C14B C15B C16B C11B -2.4(14) . . . . ?
C16B C11B C12B C13B -1.5(13) . . . . ?
F1C C14C C13C C12C -179.1(19) . . . . ?
O1C N1C C1C C6C -8(3) . . . . ?
O1C N1C C1C C2C 173.1(16) . . . . ?
O2C N1C C1C C6C 175.2(18) . . . . ?
O2C N1C C1C C2C -4(3) . . . . ?
N1C C1C C2C C3C 179(2) . . . . ?
C4C C5C C6C C1C 0.0 . . . . ?
C4C C7C C8C C9C -178(2) . . . . ?
C5C C4C C3C C2C 0.0 . . . . ?
C5C C4C C7C C8C 3(3) . . . . ?
C5C C6C C1C N1C -179.1(19) . . . . ?
C5C C6C C1C C2C 0.0 . . . . ?
C6C C1C C2C C3C 0.0 . . . . ?
C1C C2C C3C C4C 0.0 . . . . ?
C3C C4C C5C C6C 0.0 . . . . ?
C3C C4C C7C C8C -176(3) . . . . ?
C7C C4C C5C C6C -179.5(12) . . . . ?
C7C C4C C3C C2C 179.5(11) . . . . ?
C7C C8C C9C C10C 173(3) . . . . ?
C8C C9C C10C C11C 177(2) . . . . ?
C9C C10C C11C C16C -174.9(14) . . . . ?
C9C C10C C11C C12C 7(2) . . . . ?
C10C C11C C16C C15C -178.2(14) . . . . ?
C10C C11C C12C C13C 178.2(14) . . . . ?
C11C C16C C15C C14C 0.0 . . . . ?
C16C C11C C12C C13C 0.0 . . . . ?
C16C C15C C14C F1C 179.0(19) . . . . ?
C16C C15C C14C C13C 0.0 . . . . ?
C15C C14C C13C C12C 0.0 . . . . ?
C14C C13C C12C C11C 0.0 . . . . ?
C12C C11C C16C C15C 0.0 . . . . ?
loop_
_exptl_oxdiff_crystal_face_indexfrac_h
_exptl_oxdiff_crystal_face_indexfrac_k
_exptl_oxdiff_crystal_face_indexfrac_l
_exptl_oxdiff_crystal_face_x
_exptl_oxdiff_crystal_face_y
_exptl_oxdiff_crystal_face_z
-3.0000 -1.0000 4.0000 -0.1509 -0.6946 0.6577
3.0000 1.0000 -4.0000 0.1509 0.6946 -0.6577
-1.0000 -1.0000 5.0000 -0.0527 -0.3304 1.0361
1.0000 1.0000 -5.0000 0.0527 0.3304 -1.0361
-0.0000 1.0000 0.0000 -0.1132 0.0382 -0.0074
0.0000 -1.0000 -0.0000 0.1132 -0.0382 0.0074
5.0000 1.0000 -1.0000 0.2065 1.0189 0.1636
-5.0000 -1.0000 1.0000 -0.2065 -1.0189 -0.1636
1.0000 -7.0000 2.0000 0.8095 -0.1155 0.5732
4.0000 -1.0000 -3.0000 0.4157 0.7903 -0.3430
-3.0000 5.0000 2.0000 -0.7875 -0.4252 0.1704
3.0000 -6.0000 -2.0000 0.9007 0.3870 -0.1630
loop_
_hkl_oxdiff_h
_hkl_oxdiff_k
_hkl_oxdiff_l
_hkl_oxdiff_f2
_hkl_oxdiff_sig
_hkl_oxdiff_ba
-9 0 3 20.6912 18.0823 6
-9 0 4 -3.30947 16.7039 6
-9 -1 2 389.150 39.2421 6
-9 1 3 494.776 48.9553 6
-9 -1 3 438.931 47.1025 6
-9 -1 4 57.0223 19.4182 6
-9 1 4 64.7234 22.2670 6
-9 2 3 -40.0601 18.4035 6
-9 -2 3 43.9965 15.6045 6
-9 -2 4 61.9890 19.6848 6
-9 2 4 26.2303 16.9772 6
-9 -3 2 437.825 39.3217 13
-9 -3 3 119.118 23.9055 6
-8 0 1 -13.3660 25.8222 6
-8 0 2 495.596 78.3589 6
-8 0 3 -33.8395 36.2852 6
-8 0 4 3507.86 191.027 6
-8 0 5 16.0364 32.3540 6
-8 0 6 51.0117 21.7698 14
-8 -1 1 1457.87 111.549 6
-8 1 1 1379.89 106.024 6
-8 1 2 300.663 62.9829 6
-8 -1 2 362.559 69.0784 6
-8 -1 3 38.4495 38.2921 6
-8 1 3 82.6046 44.2702 6
-8 -1 4 264.685 62.1563 6
-8 1 4 308.832 66.7656 6
-8 -1 5 425.324 57.3941 6
-8 1 5 476.537 61.4867 6
-8 1 6 312.335 35.3369 6
-8 1 6 326.058 42.9861 14
-8 -1 6 300.568 41.8932 14
-8 -2 1 396.462 61.8526 6
-8 -2 2 14.2719 30.5826 6
-8 2 2 -10.0754 36.9695 6
-8 -2 3 547.349 79.1929 6
-8 2 3 515.572 81.0805 6
-8 -2 4 36.8630 40.5504 6
-8 2 4 100.564 41.3794 6
-8 -2 5 2876.16 139.521 6
-8 2 5 3169.98 155.491 6
-8 2 6 691.784 61.4461 14
-8 -3 1 700.861 76.3042 6
-8 3 2 47.5245 34.0685 6
-8 -3 2 147.078 47.9680 6
-8 -3 3 135.838 51.7491 6
-8 3 3 112.005 47.3031 6
-8 -3 4 2469.22 148.208 6
-8 3 4 2477.57 155.007 6
-8 3 5 1387.58 100.210 6
-8 -3 5 1419.94 93.1826 6
-8 3 6 50.8235 20.5598 14
-8 -4 1 96.6260 33.7860 6
-8 -4 2 990.311 96.7372 6
-8 4 2 761.553 83.3986 6
-8 -4 3 251.242 54.6336 6
-8 4 3 240.445 59.2769 6
-8 -4 4 1458.76 109.180 6
-8 4 4 1461.47 111.162 6
-8 -4 5 559.036 56.5838 6
-8 4 5 526.048 64.1956 6
-8 -5 -1 390.719 39.7680 13
-8 -5 1 490.694 57.7797 6
-8 5 2 55.8968 31.5831 6
-8 -5 2 48.2626 32.3079 6
-8 -5 3 938.353 71.1069 13
-8 -5 3 1157.51 98.2187 6
-8 5 3 1071.52 98.2797 6
-8 5 4 2270.12 131.608 6
-8 -5 4 2446.06 128.123 6
-8 5 5 209.553 35.7663 6
-8 -5 5 177.554 29.3222 6
-8 -6 0 95.3421 36.7475 13
-8 -6 1 122.871 31.1235 6
-8 -6 1 70.0667 29.2513 13
-8 -6 2 152.883 44.7989 6
-8 6 2 146.920 34.5351 6
-8 -6 2 110.398 33.1256 13
-8 -6 3 404.153 43.2081 13
-8 6 3 453.519 59.2540 6
-8 6 4 -4.50853 23.5133 6
-8 -6 4 95.3988 30.1662 6
-8 6 5 294.243 37.1500 6
-8 -7 0 24.9757 16.5130 13
-8 -7 1 32.5667 21.8490 13
-8 -7 2 541.771 55.8838 6
-8 -7 2 404.980 45.7549 13
-8 7 3 270.939 41.4848 6
-8 -7 3 284.400 40.9212 6
-8 -7 3 221.416 28.6625 13
-8 -7 4 110.805 25.4962 6
-8 7 4 139.568 31.1389 6
-8 -8 1 36.9268 19.1028 13
-8 -8 2 27.8428 13.5808 13
-7 0 1 62.6907 50.5110 6
-7 0 2 13380.8 446.043 6
-7 0 3 32.4430 51.0888 6
-7 0 4 1521.63 154.160 6
-7 0 5 8.98989 43.6389 6
-7 0 6 888.816 82.0622 6
-7 0 7 13.4579 20.9800 14
-7 -1 1 4747.85 244.411 6
-7 1 1 4607.64 238.659 6
-7 -1 2 4797.64 262.433 6
-7 1 2 4940.89 265.350 6
-7 -1 3 14089.0 476.541 6
-7 1 3 13751.1 467.737 6
-7 1 4 428.205 93.1331 6
-7 -1 4 360.644 83.2120 6
-7 -1 5 111.112 51.8701 6
-7 1 5 125.801 48.3557 6
-7 -1 6 823.384 76.0928 6
-7 -1 6 823.524 95.3802 14
-7 1 6 858.480 84.0046 6
-7 1 7 55.3530 28.0224 14
-7 -1 7 -9.33776 19.5498 14
-7 2 1 270.641 66.2035 6
-7 -2 1 157.993 48.7760 6
-7 -2 2 12377.1 428.905 6
-7 2 2 11641.1 411.169 6
-7 2 3 1529.73 158.825 6
-7 -2 3 1536.36 161.323 6
-7 2 4 1023.52 128.079 6
-7 -2 4 1256.32 143.123 6
-7 2 5 2813.96 162.540 8
-7 -2 5 2571.93 171.999 6
-7 2 5 2540.15 174.642 6
-7 -2 6 383.272 50.6948 6
-7 -2 6 527.955 74.8059 14
-7 2 6 483.574 62.4963 8
-7 2 6 412.678 61.3816 6
-7 2 7 272.057 42.5069 14
-7 -2 7 269.938 38.6569 14
-7 -3 0 217.800 55.6805 6
-7 3 1 5538.20 258.754 6
-7 -3 1 5884.66 271.056 6
-7 -3 2 1241.26 132.284 6
-7 3 2 1028.01 119.761 6
-7 3 3 3865.51 235.997 6
-7 -3 3 3732.31 233.016 6
-7 3 4 10.3694 51.6732 6
-7 -3 4 43.5665 56.1574 6
-7 -3 5 1452.54 122.974 6
-7 3 5 1417.61 137.834 6
-7 3 5 1787.12 131.902 8
-7 3 6 265.440 49.0525 8
-7 -3 6 232.562 49.5492 14
-7 3 6 246.499 47.7020 6
-7 3 7 71.2000 20.2635 14
-7 -3 7 59.2631 20.7856 14
-7 -4 0 862.413 92.5353 6
-7 -4 1 133.129 59.6879 6
-7 4 1 71.9699 41.8852 6
-7 -4 2 9442.78 359.597 6
-7 4 2 8550.01 341.297 6
-7 -4 3 651.651 101.423 6
-7 4 3 699.393 111.308 6
-7 4 4 2559.22 189.600 6
-7 -4 4 2447.50 173.167 6
-7 4 5 299.400 64.9009 6
-7 -4 5 293.689 61.2320 14
-7 4 5 368.266 67.8321 8
-7 -4 5 247.303 54.7455 6
-7 -4 6 82.1324 30.2182 14
-7 4 6 79.6586 32.4640 8
-7 4 6 98.5391 28.1158 6
-7 -5 -2 472.387 51.7423 13
-7 -5 0 57.4586 38.7908 6
-7 5 1 992.421 105.451 6
-7 -5 1 1340.46 124.933 6
-7 -5 2 2021.60 161.577 6
-7 5 2 1803.18 152.531 6
-7 -5 3 1029.37 90.9178 12
-7 -5 3 1221.06 135.211 6
-7 5 3 1142.80 128.893 6
-7 -5 4 1321.23 101.439 12
-7 5 4 1340.20 138.221 6
-7 -5 4 1385.39 132.416 6
-7 5 5 463.126 72.6771 8
-7 -5 5 412.907 62.0151 6
-7 -5 5 340.426 50.7237 12
-7 5 5 365.351 70.7229 6
-7 5 6 296.511 43.3217 6
-7 5 6 358.728 52.5363 8
-7 5 6 270.883 41.7952 14
-7 -6 -2 422.681 41.8638 13
-7 -6 0 242.279 54.9142 6
-7 -6 1 86.3439 38.0221 6
-7 6 1 118.582 47.1422 6
-7 6 2 116.267 49.4192 6
-7 -6 2 126.855 51.4645 6
-7 -6 3 1686.54 118.646 12
-7 -6 3 2028.35 161.255 6
-7 6 3 1843.83 155.604 6
-7 -6 3 1924.76 122.474 13
-7 -6 4 1954.53 119.690 12
-7 6 4 2090.86 156.370 6
-7 -6 4 2242.99 149.743 6
-7 6 5 159.613 44.1347 6
-7 -6 5 199.298 37.9103 12
-7 -6 5 148.795 35.9444 6
-7 6 6 70.5254 29.5683 8
-7 6 6 57.8519 23.4728 6
-7 -7 -1 610.122 67.6477 13
-7 -7 0 98.4395 37.5296 13
-7 -7 0 178.131 43.1632 6
-7 -7 1 216.767 54.4737 13
-7 -7 1 295.526 64.7606 6
-7 7 2 618.208 87.9143 6
-7 -7 2 774.164 96.2371 6
-7 -7 2 499.025 70.5212 13
-7 7 3 1909.58 144.939 6
-7 -7 3 1719.93 109.729 13
-7 -7 3 1653.87 112.759 12
-7 7 4 75.9044 45.9937 6
-7 -7 4 45.9796 28.9697 6
-7 -7 4 47.4328 32.7896 12
-7 7 5 -5.35590 26.2876 8
-7 7 5 19.4044 25.8532 6
-7 -7 5 35.2030 22.0874 6
-7 -7 5 57.2805 25.2219 12
-7 -8 -1 187.413 33.6419 13
-7 -8 0 580.560 66.6584 13
-7 -8 1 188.464 44.4325 6
-7 -8 1 199.773 48.4046 13
-7 -8 2 123.106 42.6297 13
-7 8 2 100.225 40.8752 6
-7 -8 3 880.493 91.4101 6
-7 -8 3 632.425 63.8329 13
-7 -8 3 680.115 70.9869 12
-7 8 3 718.118 87.8937 6
-7 -8 4 992.870 80.7207 6
-7 8 4 1104.99 96.7448 6
-7 -8 4 949.288 75.5551 12
-7 8 5 31.5136 23.9442 8
-7 -8 5 47.1357 20.6462 12
-7 8 5 29.8366 22.0271 6
-7 -9 0 26.5487 23.4739 13
-7 -9 1 446.274 57.3763 13
-7 -9 2 273.947 44.9477 13
-7 9 2 311.351 48.5389 6
-7 9 3 74.1517 33.7865 6
-7 -9 3 20.4362 22.7457 12
-7 -9 3 46.2799 20.7229 13
-7 9 4 251.977 43.4565 6
-7 -9 4 236.597 34.5556 12
-7 -10 0 81.2107 21.7523 13
-7 -10 1 250.864 35.7418 13
-7 -10 2 205.098 32.2798 13
-7 -10 2 201.789 32.0884 12
-7 10 3 34.8173 19.5605 6
-7 -10 3 60.2322 22.1376 12
-6 0 0 10069.4 606.199 2
-6 0 0 9495.17 623.703 3
-6 0 1 -1.65002 62.0261 2
-6 0 1 -4.05010 40.2549 6
-6 0 2 691.275 118.854 6
-6 0 2 822.034 186.891 2
-6 0 3 -37.6338 93.2939 2
-6 0 3 42.2211 56.6858 6
-6 0 4 24.8071 50.6393 6
-6 0 5 40.9643 50.0896 6
-6 0 5 -100.802 50.3931 8
-6 0 6 809.372 100.240 8
-6 0 6 754.890 88.4976 6
-6 0 7 -7.41473 33.9836 14
-6 0 7 -0.75772 30.7570 8
-6 0 8 919.297 63.6774 14
-6 1 0 33638.6 1198.53 3
-6 -1 0 34677.2 740.369 6
-6 -1 1 1965.94 166.003 6
-6 1 1 1714.15 158.087 6
-6 -1 1 1982.16 292.030 2
-6 1 1 1459.44 220.126 2
-6 1 2 1495.29 241.424 2
-6 -1 2 1426.69 151.378 6
-6 -1 2 1044.97 212.560 2
-6 1 2 1255.05 139.439 6
-6 -1 3 3160.09 228.063 6
-6 1 3 3073.58 365.975 2
-6 1 3 3084.77 225.613 6
-6 -1 3 3456.94 387.205 2
-6 1 4 35.2260 53.7026 6
-6 -1 4 28.1796 50.2504 6
-6 -1 5 108.553 47.9278 6
-6 1 5 46.8677 48.8195 8
-6 1 5 42.4370 42.1231 6
-6 -1 6 74.9543 42.8443 8
-6 1 6 24.1028 42.8801 8
-6 1 6 5.99827 29.3623 6
-6 1 7 3931.13 201.606 14
-6 1 7 4183.61 186.056 8
-6 -1 7 4164.92 172.631 8
-6 -1 7 4046.37 202.149 14
-6 -1 8 440.995 46.6730 14
-6 -2 0 1264.79 128.225 6
-6 2 0 1084.89 211.046 3
-6 -2 1 26153.7 1070.32 2
-6 -2 1 25147.5 640.316 6
-6 2 1 24068.8 624.897 6
-6 2 2 7226.36 506.885 2
-6 -2 2 7235.17 545.637 2
-6 -2 2 7346.30 338.698 6
-6 2 2 7363.16 333.838 6
-6 2 3 1183.77 141.672 6
-6 -2 3 1265.30 146.370 6
-6 2 3 1144.88 225.196 2
-6 -2 3 1253.85 233.321 2
-6 -2 4 995.300 132.022 6
-6 2 4 846.989 119.263 6
-6 2 5 1337.68 137.835 6
-6 2 5 1230.29 134.742 8
-6 -2 5 1402.39 139.923 6
-6 2 6 1804.68 151.064 8
-6 2 6 1508.78 126.065 6
-6 -2 6 1669.40 144.712 14
-6 2 7 540.420 74.1260 14
-6 -2 7 668.726 78.6263 14
-6 2 7 690.830 82.2128 8
-6 -2 8 1330.74 73.4259 14
-6 -3 0 1249.47 125.164 6
-6 3 0 854.269 173.614 3
-6 -3 1 6308.20 298.407 6
-6 -3 1 6592.61 537.903 2
-6 3 1 6033.59 288.382 6
-6 -3 2 531.125 100.828 6
-6 -3 2 616.586 167.035 2
-6 3 2 511.686 91.6995 6
-6 3 3 1311.62 242.951 2
-6 3 3 1360.22 154.710 6
-6 -3 3 1238.77 149.563 6
-6 -3 4 182.914 72.1623 6
-6 3 4 185.941 77.2505 6
-6 3 5 251.783 76.9835 6
-6 -3 5 195.000 60.4396 6
-6 -3 5 145.533 41.8286 12
-6 3 6 151.305 49.5757 6
-6 -3 6 120.403 38.2471 12
-6 -3 6 124.225 52.1795 14
-6 3 6 128.575 55.0875 8
-6 -3 7 844.786 84.4564 14
-6 3 7 867.830 88.7049 8
-6 -4 0 13143.0 417.821 6
-6 4 1 9227.96 363.414 6
-6 -4 1 9516.52 374.677 6
-6 -4 2 63.9402 45.8035 6
-6 4 2 141.584 58.4268 6
-6 -4 3 3601.17 237.901 6
-6 4 3 3343.24 230.874 6
-6 -4 4 6792.06 319.474 6
-6 4 4 6791.52 332.098 6
-6 -4 4 6157.78 263.723 12
-6 -4 5 1310.22 128.152 14
-6 -4 5 1172.17 115.487 6
-6 -4 5 1103.42 109.725 12
-6 4 5 1150.34 129.667 6
-6 -4 6 3993.55 204.007 14
-6 -4 6 3246.10 173.750 12
-6 4 6 3460.95 188.234 6
-6 4 6 3943.05 216.331 8
-6 -4 7 150.170 31.8496 12
-6 4 7 151.479 36.2767 14
-6 4 7 168.462 45.8054 8
-6 -4 7 161.604 40.6948 14
-6 -5 0 2000.82 156.556 6
-6 -5 1 330.720 79.8429 6
-6 5 1 250.520 68.7380 6
-6 -5 2 2313.50 184.979 6
-6 5 2 2006.03 172.532 6
-6 -5 3 1150.95 133.685 6
-6 5 3 1251.18 142.187 6
-6 -5 4 40.2184 40.1292 12
-6 -5 4 97.7381 55.9914 6
-6 5 4 -16.3047 54.4729 6
-6 -5 5 56.8861 45.1167 14
-6 -5 5 41.9832 39.4943 6
-6 5 5 46.0941 49.0041 6
-6 -5 5 51.9325 42.3792 12
-6 -5 6 1859.19 129.958 14
-6 5 6 1823.78 147.471 8
-6 5 6 1659.11 125.985 6
-6 -5 6 1570.12 119.119 12
-6 -5 7 116.221 31.8808 14
-6 5 7 57.8214 31.9698 8
-6 -5 7 54.1875 23.5374 12
-6 -6 0 10326.0 358.731 6
-6 6 1 2385.97 176.123 6
-6 -6 1 2860.57 192.579 6
-6 -6 2 1272.22 138.905 6
-6 6 2 1110.61 129.666 6
-6 -6 3 392.443 89.4249 6
-6 6 3 330.054 85.5393 6
-6 -6 4 2660.00 175.002 12
-6 6 4 2957.07 210.740 6
-6 -6 4 2931.90 192.963 6
-6 -6 5 757.108 92.4942 12
-6 6 5 897.871 110.880 6
-6 -6 5 691.597 83.2986 6
-6 6 6 93.6938 42.9926 6
-6 -6 6 127.426 47.9817 12
-6 6 6 88.6101 43.7956 8
-6 -6 6 117.861 32.8795 14
-6 6 7 482.769 55.9230 8
-6 -6 7 392.773 42.8459 12
-6 -7 -2 168.463 39.3047 13
-6 -7 0 266.752 63.0652 6
-6 -7 1 972.007 113.249 6
-6 7 1 846.311 103.943 6
-6 -7 2 11686.7 407.300 6
-6 7 2 10384.5 391.137 6
-6 -7 3 2082.06 167.593 6
-6 7 3 1982.49 171.630 6
-6 -7 3 1828.60 128.342 13
-6 -7 4 127.025 52.4410 6
-6 -7 4 -37.7633 34.1425 12
-6 7 4 71.3062 58.3572 6
-6 -7 5 32.3081 37.4053 12
-6 -7 5 72.4259 30.1614 6
-6 7 5 42.4230 37.6392 6
-6 7 6 -9.18987 25.7866 6
-6 7 6 53.0899 33.3918 8
-6 -7 6 42.7817 29.8291 12
-6 -8 -2 162.524 34.8076 13
-6 -8 -1 1730.49 123.226 13
-6 -8 0 222.314 58.5150 6
-6 -8 0 186.569 58.6854 13
-6 8 1 -14.7343 42.3440 6
-6 -8 1 169.276 53.8566 6
-6 -8 1 99.7215 52.4893 13
-6 -8 2 1539.99 125.004 13
-6 -8 2 1623.14 146.423 6
-6 8 2 1515.77 140.204 6
-6 8 3 1785.77 155.457 6
-6 -8 3 1741.69 121.928 13
-6 -8 3 1849.10 152.023 6
-6 -8 4 1.33112 37.3380 6
-6 -8 4 11.5415 33.8574 12
-6 8 4 -4.14747 44.4043 6
-6 -8 5 23.5079 28.7151 12
-6 8 5 -20.1942 41.1052 6
-6 8 6 664.884 69.8828 8
-6 -8 6 581.472 58.6441 12
-6 -9 -1 959.686 83.0872 13
-6 -9 0 43.1931 35.3389 13
-6 -9 1 2845.46 169.423 13
-6 -9 1 3103.14 184.258 6
-6 9 2 212.703 58.7941 6
-6 -9 2 191.339 53.4387 13
-6 -9 2 228.401 58.6620 6
-6 -9 3 536.450 63.8863 13
-6 9 3 455.240 77.7184 6
-6 -9 3 623.218 84.2349 6
-6 -9 4 264.864 54.3195 12
-6 -9 4 234.667 48.6119 6
-6 9 4 258.960 59.9771 6
-6 -9 5 1032.69 86.4823 12
-6 9 5 1238.18 99.1056 6
-6 9 6 1179.87 71.9952 8
-6 -9 6 1113.17 65.2037 12
-6 -10 -1 27.4090 23.1550 13
-6 -10 0 92.9500 37.9483 13
-6 -10 1 98.8283 39.1384 13
-6 -10 2 274.103 52.8511 13
-6 10 2 318.368 62.0919 6
-6 -10 3 2221.49 114.860 13
-6 10 3 2168.76 145.229 6
-6 -10 3 1974.63 127.926 12
-6 -10 4 5.89586 24.7488 12
-6 10 4 23.4330 33.7921 6
-6 10 5 1188.12 83.6873 8
-6 -10 5 1359.56 81.0675 12
-6 10 5 1285.47 82.2531 6
-6 -11 0 26.2026 22.2237 13
-6 -11 1 30.9185 27.0670 13
-6 11 2 714.844 69.7999 6
-6 -11 2 771.310 69.8442 13
-6 -11 3 1075.65 68.7023 13
-6 -11 3 966.795 77.0516 12
-6 11 3 1041.18 86.3483 6
-6 11 4 124.563 32.5655 6
-6 -11 4 106.819 27.1568 12
-6 -12 1 -20.0746 17.9958 13
-6 -12 2 76.2669 22.9633 12
-6 -12 2 43.7166 21.4290 13
-6 -12 3 722.764 53.3168 12
-5 0 1 -52.5806 52.3980 2
-5 0 2 7846.45 501.976 2
-5 0 3 126.091 83.1784 2
-5 0 4 5302.26 496.120 2
-5 0 4 5463.76 283.966 6
-5 0 5 15.0390 41.4294 6
-5 0 5 30.4900 48.7756 8
-5 0 6 16971.2 512.430 8
-5 0 7 -18.0774 46.7743 14
-5 0 7 9.93022 37.2300 8
-5 0 8 1480.79 102.562 14
-5 1 -2 11292.5 721.938 3
-5 1 1 8373.69 467.364 3
-5 1 1 8646.04 492.971 2
-5 1 2 3027.34 299.577 2
-5 -1 2 2736.90 304.030 2
-5 1 3 747.455 172.861 2
-5 -1 3 964.592 196.281 2
-5 -1 4 14377.7 472.690 6
-5 1 4 13525.1 800.267 2
-5 -1 4 14200.3 817.425 2
-5 1 4 13779.4 469.099 6
-5 -1 5 190.232 64.6572 8
-5 1 5 118.123 57.9003 6
-5 1 5 184.041 70.5382 8
-5 -1 5 153.673 65.1380 6
-5 -1 6 6589.36 278.510 12
-5 1 6 6846.59 320.377 8
-5 -1 6 7072.87 309.430 8
-5 1 7 1375.61 130.024 8
-5 -1 7 1372.36 132.722 14
-5 1 7 1155.89 122.818 14
-5 -1 7 1287.99 118.134 8
-5 1 8 7415.37 233.511 8
-5 -1 8 6952.54 228.802 14
-5 2 -2 4360.70 437.065 3
-5 2 -1 9758.73 623.344 3
-5 2 0 432.076 123.854 3
-5 2 0 362.010 116.423 2
-5 2 1 467.753 119.939 2
-5 2 1 364.781 109.635 3
-5 2 2 13440.3 650.591 2
-5 -2 2 13537.6 692.845 2
-5 -2 3 8804.63 574.661 2
-5 2 3 9040.62 365.256 6
-5 2 3 8742.89 571.571 2
-5 -2 4 3805.64 422.764 2
-5 2 4 3348.37 398.335 2
-5 2 4 3968.05 242.843 6
-5 -2 4 3504.15 193.581 12
-5 -2 4 3884.98 238.713 6
-5 2 5 16234.3 508.522 6
-5 -2 5 15888.0 460.983 12
-5 -2 5 16137.2 478.031 6
-5 2 6 70.9340 47.6713 8
-5 -2 6 4.04497 49.5237 8
-5 -2 6 119.611 49.4518 12
-5 -2 6 52.3620 43.1906 14
-5 -2 7 475.863 74.2445 12
-5 -2 7 607.160 80.3582 8
-5 2 7 430.996 72.2515 14
-5 -2 7 501.790 85.8839 14
-5 2 7 540.481 88.4259 8
-5 -2 8 2397.83 126.601 14
-5 2 8 2353.79 127.691 8
-5 3 -2 21229.1 973.208 3
-5 3 -1 12660.2 693.495 3
-5 3 0 4804.99 388.698 3
-5 3 1 771.797 142.327 3
-5 3 1 1141.55 166.853 2
-5 3 2 1470.13 211.710 2
-5 -3 2 1551.79 240.210 2
-5 3 3 115.685 85.7537 2
-5 3 3 22.8408 37.0701 6
-5 -3 3 107.309 53.5734 6
-5 -3 3 57.2124 88.5940 2
-5 -3 4 901.342 101.037 12
-5 3 4 725.127 200.765 2
-5 -3 4 755.140 200.063 2
-5 3 4 836.664 116.529 6
-5 -3 4 782.291 110.210 6
-5 -3 5 4451.09 239.508 12
-5 -3 5 4559.46 234.961 6
-5 3 5 4852.79 264.793 6
-5 -3 6 216.487 61.5631 14
-5 -3 6 140.357 58.3819 12
-5 -3 6 145.762 52.5505 8
-5 3 6 221.638 73.4542 8
-5 -3 7 1638.50 129.503 12
-5 3 7 1759.94 142.339 8
-5 -3 7 1723.34 136.161 14
-5 3 7 1453.12 125.029 14
-5 -3 8 -20.1168 27.2016 14
-5 3 8 8.13367 26.7480 8
-5 4 -1 30157.2 1090.17 3
-5 4 0 16300.0 741.238 3
-5 -4 0 18939.0 498.377 6
-5 -4 1 8319.50 327.975 6
-5 4 1 7427.18 451.375 3
-5 4 2 9538.90 368.379 6
-5 -4 2 9445.54 602.349 2
-5 4 2 9942.87 547.974 2
-5 -4 2 10099.8 380.320 6
-5 4 3 11270.0 652.842 2
-5 4 3 12046.1 436.591 6
-5 -4 3 11273.9 678.500 2
-5 -4 3 11890.0 420.210 6
-5 4 4 245.858 76.4642 6
-5 -4 4 175.065 59.9338 12
-5 -4 4 131.925 56.2771 6
-5 4 4 371.810 149.093 2
-5 -4 4 219.418 105.586 2
-5 -4 5 1467.60 144.266 14
-5 -4 5 1269.29 120.064 6
-5 4 5 1342.62 142.784 6
-5 -4 5 1294.33 131.948 12
-5 4 6 142.249 63.1627 8
-5 -4 6 208.966 62.9288 12
-5 4 6 257.064 61.2199 6
-5 -4 6 165.948 63.0110 14
-5 4 7 19672.4 499.702 8
-5 -4 7 18975.7 455.354 14
-5 -4 8 4291.35 151.124 14
-5 4 8 4247.24 161.018 8
-5 5 -1 2797.10 324.445 3
-5 -5 0 1950.54 149.291 6
-5 5 0 1639.36 233.600 3
-5 5 1 3758.76 220.306 6
-5 5 1 3345.36 315.591 3
-5 -5 1 3811.41 221.782 6
-5 5 2 3463.32 219.633 6
-5 -5 2 3809.80 227.085 6
-5 -5 2 3690.30 385.652 2
-5 -5 3 178.180 64.9168 6
-5 5 3 254.040 74.8081 6
-5 -5 3 165.424 81.3881 2
-5 5 4 3892.92 250.592 6
-5 -5 4 4143.70 231.480 12
-5 -5 4 3908.53 226.722 6
-5 -5 5 227.451 64.1170 12
-5 5 5 243.424 70.8304 6
-5 -5 5 151.191 53.9819 14
-5 5 6 6008.40 258.669 6
-5 -5 6 6100.62 281.697 12
-5 5 6 6427.43 312.022 8
-5 -5 6 6643.64 275.559 14
-5 -5 7 1141.73 104.590 12
-5 -5 7 1120.05 99.3942 14
-5 5 7 1119.31 110.176 8
-5 5 8 1114.21 70.7313 8
-5 -6 -1 1355.73 124.536 6
-5 6 0 6888.08 497.118 3
-5 -6 0 6704.67 288.639 6
-5 6 1 163.894 62.5558 6
-5 6 1 100.008 76.5299 3
-5 -6 1 84.9917 56.9163 6
-5 -6 2 4014.43 394.328 2
-5 6 2 4658.78 259.252 6
-5 -6 2 4434.99 250.604 6
-5 6 3 161.581 76.9977 6
-5 -6 3 89.1218 66.1691 2
-5 -6 3 136.597 55.0051 6
-5 -6 4 191.297 66.0813 6
-5 -6 4 280.926 82.7565 12
-5 6 4 229.594 73.9126 6
-5 6 5 2341.19 187.174 6
-5 -6 5 2076.43 163.810 12
-5 -6 5 2360.02 163.886 14
-5 6 6 24.4339 35.2903 6
-5 -6 6 53.3329 33.8681 14
-5 6 6 -26.8455 57.3276 8
-5 -6 6 95.1697 55.0207 12
-5 6 7 92.0754 90.3113 8
-5 -6 7 78.5737 29.9176 14
-5 -6 7 27.2310 29.2524 12
-5 -7 -2 10421.1 320.536 13
-5 -7 -1 1547.62 128.721 6
-5 -7 0 414.779 82.6207 6
-5 -7 1 96.8025 61.9464 6
-5 7 1 87.0050 53.1267 6
-5 -7 2 2986.25 335.863 2
-5 -7 2 3073.09 206.496 6
-5 7 2 2823.33 205.898 6
-5 -7 3 14611.1 465.314 6
-5 7 3 14863.6 504.172 6
-5 -7 3 13938.5 390.278 13
-5 -7 4 15197.9 469.573 12
-5 -7 4 16443.9 465.306 6
-5 7 4 16443.2 527.743 6
-5 -7 5 37.7765 45.4175 12
-5 7 5 93.8177 51.2817 6
-5 -7 6 1626.59 129.302 12
-5 7 6 1594.53 141.002 8
-5 7 6 1434.71 115.545 6
-5 -7 6 1529.24 107.463 14
-5 7 7 937.973 82.7057 8
-5 -7 7 886.019 62.7610 14
-5 -7 7 963.813 79.8750 12
-5 -8 -2 435.151 61.5982 13
-5 -8 -1 1083.97 109.205 13
-5 -8 0 1200.96 126.418 13
-5 -8 0 1459.92 133.640 6
-5 8 1 5388.01 272.925 6
-5 -8 1 5673.25 265.985 13
-5 -8 2 1194.01 118.350 13
-5 8 2 1532.76 149.177 6
-5 -8 2 1179.96 128.609 6
-5 -8 3 4262.62 234.962 6
-5 8 3 4382.92 260.015 6
-5 -8 3 3942.19 192.744 13
-5 8 4 3014.86 218.490 6
-5 -8 4 2855.20 185.558 12
-5 -8 4 3188.04 182.421 6
-5 8 5 258.210 60.9072 6
-5 -8 5 309.523 61.5367 12
-5 8 6 17.9163 26.1833 6
-5 -8 6 8.78537 37.4931 12
-5 8 6 -36.6852 41.5855 8
-5 8 7 295.786 39.4197 8
-5 -8 7 336.675 41.4457 12
-5 -9 -2 11.1958 23.0780 13
-5 -9 -1 5674.66 236.034 13
-5 -9 0 1092.37 114.544 13
-5 -9 0 1260.29 117.310 6
-5 -9 1 25968.3 591.624 13
-5 -9 1 25962.4 626.951 6
-5 -9 2 310.544 72.7609 6
-5 -9 2 377.534 69.5892 13
-5 9 2 306.957 73.2069 6
-5 -9 3 90.7774 43.7362 6
-5 9 3 197.205 65.0610 6
-5 -9 3 127.088 45.9955 13
-5 -9 4 2946.91 180.488 12
-5 -9 4 2969.76 165.917 6
-5 9 4 3162.09 207.732 6
-5 -9 5 82.6499 39.3008 12
-5 9 5 7.71395 38.0963 6
-5 -9 6 249.076 45.7677 12
-5 9 6 194.048 43.8456 8
-5 9 6 165.193 33.1971 6
-5 -10 -2 107.198 32.1933 13
-5 -10 -1 40.1535 33.4458 13
-5 -10 0 10834.3 335.190 13
-5 10 1 2143.62 160.309 6
-5 -10 1 2567.72 163.372 13
-5 10 2 649.394 94.8401 6
-5 -10 2 652.555 96.9694 6
-5 -10 2 512.854 74.3093 13
-5 -10 3 4461.05 190.162 13
-5 10 3 4609.36 247.508 6
-5 -10 4 514.170 75.6338 12
-5 10 4 538.984 85.7328 6
-5 -10 5 4425.20 183.507 12
-5 10 5 4788.82 203.987 6
-5 -10 6 77.3705 25.5680 12
-5 10 6 89.6097 24.4322 8
-5 -11 -1 82.9504 27.3534 13
-5 -11 0 362.768 59.2135 13
-5 -11 1 2201.66 140.734 13
-5 11 1 2231.40 148.777 6
-5 11 2 872.701 103.043 6
-5 -11 2 704.813 80.1466 13
-5 -11 3 101.586 37.1327 13
-5 11 3 161.731 50.8053 6
-5 -11 3 202.395 48.7270 12
-5 -11 4 381.207 56.2409 12
-5 11 4 471.894 70.1724 6
-5 -11 4 283.872 42.2454 5
-5 11 5 62.2171 25.5672 6
-5 11 5 36.9659 20.3707 8
-5 -11 5 68.8031 24.1333 12
-5 -12 -1 144.251 29.7997 13
-5 -12 0 1994.49 112.465 13
-5 12 1 77.4827 35.6063 6
-5 -12 1 68.7726 29.1780 13
-5 12 2 6024.00 233.511 6
-5 -12 2 6612.27 216.967 13
-5 -12 3 2733.87 119.960 13
-5 -12 3 2919.44 137.842 12
-5 12 4 592.955 64.7360 6
-5 -12 4 632.575 57.9956 12
-5 -13 0 188.349 32.5920 13
-5 -13 1 2765.17 119.478 13
-5 13 2 5716.57 178.694 6
-5 -13 2 5206.26 164.946 12
-5 -13 3 174.675 30.3942 12
-5 13 3 234.187 38.1189 6
-4 0 2 71651.2 1571.63 2
-4 0 3 10.4695 57.7744 2
-4 0 4 61572.9 1714.56 2
-4 0 5 9.28467 37.7016 12
-4 0 5 -37.1692 76.2772 2
-4 0 5 119.845 57.3832 8
-4 0 6 145.194 55.5400 12
-4 0 6 94.1561 49.0380 8
-4 0 6 -7.64161 43.7960 14
-4 0 7 48.1157 59.5521 8
-4 0 7 16.0192 42.1308 14
-4 0 8 6580.75 246.979 8
-4 0 8 6291.87 241.322 14
-4 1 1 33322.3 921.107 2
-4 -1 2 27655.8 904.696 2
-4 1 2 29020.4 884.857 2
-4 -1 3 20027.6 815.261 2
-4 1 3 19805.3 813.295 2
-4 1 4 14816.7 786.079 2
-4 -1 4 13790.8 760.942 2
-4 -1 5 12532.9 408.143 12
-4 1 5 12710.6 836.553 2
-4 -1 5 13281.9 435.642 8
-4 -1 5 13085.0 827.429 2
-4 1 5 12762.9 443.788 8
-4 -1 6 1071.69 122.657 12
-4 -1 6 1161.88 130.218 8
-4 1 6 1303.08 142.385 8
-4 -1 6 910.285 125.541 14
-4 1 7 403.279 90.6970 14
-4 -1 7 285.248 65.1614 14
-4 1 7 455.566 88.0646 8
-4 -1 7 304.253 70.9825 12
-4 -1 7 330.456 76.9351 8
-4 1 8 297.263 54.4670 14
-4 1 8 329.371 62.9211 8
-4 -1 8 219.304 50.0102 14
-4 2 -3 311.651 121.589 3
-4 2 -2 25474.8 995.347 3
-4 2 -1 4162.58 358.858 3
-4 2 0 56333.2 1201.27 2
-4 2 0 53253.5 1298.09 3
-4 2 1 62198.2 1318.25 2
-4 2 1 60972.2 1295.42 3
-4 -2 2 768.005 158.847 2
-4 2 2 681.625 141.282 2
-4 -2 3 951.930 181.171 2
-4 2 3 845.559 169.480 2
-4 -2 4 852.172 186.785 2
-4 2 4 629.705 164.473 2
-4 -2 5 12343.7 417.884 12
-4 -2 5 11893.8 781.418 2
-4 -2 5 13088.7 425.413 8
-4 2 5 13689.0 884.206 2
-4 -2 6 1144.85 131.631 8
-4 -2 6 997.397 123.738 12
-4 2 6 956.451 133.492 8
-4 -2 6 1079.01 129.097 14
-4 2 7 933.315 117.385 8
-4 -2 7 894.836 114.479 14
-4 2 7 880.985 112.470 14
-4 -2 7 970.817 115.997 12
-4 -2 7 1114.28 120.036 8
-4 2 8 8881.11 289.513 8
-4 -2 8 8456.96 277.333 14
-4 3 -3 11295.2 678.130 3
-4 3 -2 962.469 185.394 3
-4 3 -1 955.981 181.812 3
-4 3 0 17320.0 684.746 3
-4 3 0 18393.5 585.329 2
-4 3 1 10384.6 465.367 3
-4 3 1 11029.9 469.086 2
-4 3 2 17365.6 572.808 3
-4 -3 2 16851.7 722.260 2
-4 3 2 17271.9 671.755 2
-4 -3 3 30003.0 1017.29 2
-4 3 3 28461.5 999.021 2
-4 -3 4 4860.58 434.907 2
-4 3 4 5215.63 475.276 2
-4 -3 5 18145.9 538.577 12
-4 3 5 21214.1 1133.12 2
-4 -3 5 21072.5 550.663 8
-4 3 5 19140.6 539.811 6
-4 -3 5 19635.1 987.612 2
-4 3 6 36087.0 863.996 8
-4 -3 6 34772.3 830.428 12
-4 -3 6 37418.6 824.558 14
-4 -3 6 38691.3 816.978 8
-4 -3 7 12673.4 409.050 14
-4 -3 7 11652.7 409.772 12
-4 3 7 12639.4 429.923 8
-4 3 7 11237.9 380.862 14
-4 -3 8 -107.356 45.2930 14
-4 3 8 -5.13034 32.8428 8
-4 4 -3 935.102 199.033 3
-4 4 -2 48952.9 1424.93 3
-4 4 -1 7354.40 477.702 3
-4 -4 -1 8995.58 537.050 1
-4 4 0 20689.7 754.357 3
-4 4 1 3053.19 262.763 3
-4 4 1 3517.18 258.090 2
-4 4 2 26588.5 778.663 3
-4 4 2 24857.7 827.677 2
-4 -4 2 24891.0 909.809 2
-4 -4 3 18350.9 785.839 2
-4 4 3 18421.1 800.384 2
-4 -4 4 2555.95 180.094 12
-4 -4 4 2367.35 306.077 2
-4 4 4 2220.97 321.705 2
-4 4 4 2504.93 185.284 6
-4 -4 5 3177.69 214.270 12
-4 -4 5 3277.09 205.934 14
-4 4 5 3093.20 209.250 6
-4 -4 5 3796.48 215.958 8
-4 4 5 3388.12 451.180 2
-4 -4 6 2943.47 200.204 14
-4 -4 6 2829.53 211.962 12
-4 4 6 2994.02 226.690 8
-4 -4 6 3096.13 197.073 8
-4 -4 7 8061.68 332.077 12
-4 4 7 8091.77 275.217 17
-4 4 7 7994.89 333.268 8
-4 -4 7 8043.92 307.296 14
-4 -4 8 2017.56 118.603 14
-4 4 8 2113.16 127.777 8
-4 5 -2 2935.44 326.168 3
-4 -5 -1 1747.65 256.495 1
-4 5 -1 1862.71 250.895 3
-4 -5 0 7048.09 516.153 1
-4 5 0 6114.35 417.156 3
-4 5 1 93447.4 1862.63 3
-4 5 2 87177.1 1738.48 3
-4 -5 2 82538.2 1892.94 2
-4 5 2 87090.6 1793.36 2
-4 -5 3 3029.98 311.942 2
-4 5 3 3084.41 341.033 2
-4 -5 4 513.661 79.5442 6
-4 -5 4 644.534 156.061 2
-4 -5 4 694.249 94.7210 14
-4 5 4 826.938 207.125 2
-4 5 4 704.895 103.346 6
-4 -5 5 3609.39 231.618 12
-4 5 5 3490.12 224.517 6
-4 -5 5 3591.33 214.365 14
-4 -5 6 877.434 122.794 12
-4 5 6 687.482 112.332 8
-4 -5 6 622.047 93.3275 14
-4 -5 7 15713.0 424.947 14
-4 5 7 14948.2 385.243 17
-4 5 7 16375.3 474.442 8
-4 -5 7 15761.1 463.275 12
-4 -5 8 649.905 63.2406 14
-4 5 8 549.598 61.1303 8
-4 6 -2 6746.63 506.299 3
-4 -6 -1 19871.2 493.378 6
-4 -6 -1 19293.6 931.052 1
-4 6 -1 18280.2 810.753 3
-4 -6 0 515.811 145.409 1
-4 6 0 514.822 127.424 3
-4 6 1 24105.2 865.653 3
-4 -6 2 10643.1 592.036 2
-4 -6 3 3618.40 339.278 2
-4 -6 3 3813.44 180.574 13
-4 -6 3 3917.21 214.495 6
-4 6 3 4333.04 402.857 2
-4 6 3 4149.71 240.684 6
-4 6 4 5816.86 294.241 6
-4 -6 4 6147.01 262.236 6
-4 6 4 6451.63 567.127 2
-4 6 5 32074.8 763.078 6
-4 -6 5 32367.9 773.745 12
-4 -6 5 34391.3 738.251 14
-4 6 6 19467.3 499.349 17
-4 6 6 18692.3 579.131 8
-4 -6 6 18838.5 501.046 14
-4 -6 6 18947.6 551.697 12
-4 -6 7 569.509 74.7642 14
-4 6 7 608.007 87.8295 8
-4 -6 7 633.019 91.5442 12
-4 6 7 503.009 63.6392 17
-4 -6 8 4098.86 135.614 14
-4 7 -1 29762.5 1080.48 3
-4 -7 -1 27323.3 1191.58 1
-4 -7 -1 29217.5 640.914 6
-4 7 0 3266.71 327.163 3
-4 -7 0 3728.05 203.019 6
-4 -7 0 3751.13 437.284 1
-4 -7 1 133.273 51.0148 6
-4 7 1 248.016 60.7011 6
-4 7 1 64.1639 74.3547 3
-4 -7 2 3275.37 175.559 13
-4 -7 2 3230.35 328.825 2
-4 7 2 3230.54 214.214 6
-4 -7 2 3341.77 198.430 6
-4 -7 3 3913.58 188.312 13
-4 -7 3 3843.57 214.565 6
-4 7 3 3932.10 242.032 6
-4 7 4 12158.8 446.604 6
-4 -7 4 12404.4 381.474 6
-4 7 5 6423.08 308.252 6
-4 -7 5 7387.50 286.889 14
-4 -7 5 6569.30 307.560 12
-4 -7 6 11825.8 400.646 12
-4 -7 6 12046.0 363.301 14
-4 7 6 11197.3 351.113 17
-4 7 6 11088.9 416.482 8
-4 -7 7 480.970 67.7945 12
-4 7 7 336.622 62.2436 8
-4 -7 7 377.562 57.8187 14
-4 -8 -2 10544.4 323.602 13
-4 -8 -1 44362.2 855.452 6
-4 -8 -1 42158.8 1584.59 1
-4 -8 -1 43339.1 825.621 13
-4 -8 0 5560.98 245.507 13
-4 -8 0 5666.20 558.372 1
-4 8 0 5233.06 449.289 3
-4 -8 0 5506.91 256.441 6
-4 -8 1 12820.3 385.217 13
-4 -8 1 12143.7 402.100 6
-4 8 1 12234.4 682.543 3
-4 8 1 12026.6 415.409 6
-4 -8 2 16617.0 483.142 6
-4 -8 2 16320.3 435.706 13
-4 8 2 16610.7 515.763 6
-4 -8 3 1565.39 122.417 13
-4 8 3 1535.31 154.885 6
-4 -8 3 1720.52 144.799 6
-4 8 4 436.761 88.7058 6
-4 -8 4 601.735 84.8702 6
-4 -8 4 403.258 75.9952 12
-4 -8 5 45.4710 41.8383 12
-4 8 5 22.5393 39.1938 6
-4 -8 5 40.4926 37.0277 5
-4 8 5 61.2896 43.5726 17
-4 8 6 6613.93 291.811 8
-4 -8 6 6947.13 278.761 12
-4 8 6 6498.10 245.236 17
-4 -8 6 7423.71 245.937 14
-4 -8 7 6964.85 185.323 14
-4 -8 7 7228.25 231.633 12
-4 -9 -2 1385.78 107.552 13
-4 -9 -1 10564.9 337.548 13
-4 -9 0 983.073 108.786 6
-4 -9 0 902.090 101.237 13
-4 9 0 1189.56 121.382 6
-4 -9 1 763.055 98.0420 6
-4 -9 1 1063.15 111.665 13
-4 9 1 896.356 114.378 6
-4 -9 2 1482.69 139.733 6
-4 -9 2 1515.38 126.326 13
-4 9 2 1458.14 149.127 6
-4 9 3 5133.04 276.365 6
-4 -9 3 5159.57 222.670 13
-4 -9 3 5214.18 246.660 6
-4 -9 4 7960.86 278.919 6
-4 -9 4 7866.33 312.314 12
-4 9 4 7259.99 335.083 6
-4 9 5 10698.3 375.074 6
-4 -9 5 10451.7 351.021 12
-4 -9 5 9456.01 315.401 5
-4 9 5 10527.7 338.140 17
-4 -9 6 110.998 44.7551 12
-4 9 6 62.8926 39.9730 8
-4 -9 7 52.2420 21.9422 12
-4 -10 -2 182.235 41.7651 13
-4 -10 -1 605.910 80.6741 13
-4 -10 0 11522.8 359.921 13
-4 10 1 1697.49 152.204 6
-4 -10 1 1713.29 136.458 13
-4 -10 2 831.690 107.541 6
-4 10 2 829.898 111.078 6
-4 -10 2 868.681 94.9910 13
-4 -10 3 4141.28 193.869 13
-4 10 3 4585.06 255.877 6
-4 10 4 403.522 69.3681 17
-4 -10 4 466.675 75.1631 12
-4 -10 4 375.018 55.9703 13
-4 10 4 393.765 78.3864 6
-4 10 5 1274.97 101.812 17
-4 10 5 1484.86 125.967 6
-4 -10 5 1232.13 101.937 5
-4 -10 5 1450.80 114.039 12
-4 -10 6 1825.51 106.987 12
-4 10 6 1478.78 94.1278 8
-4 -11 -2 6122.97 198.310 13
-4 -11 -1 1935.92 126.119 13
-4 -11 0 22630.7 521.203 13
-4 -11 1 5066.56 225.572 13
-4 11 1 4899.56 248.039 6
-4 -11 2 576.067 74.3927 13
-4 11 2 688.696 101.336 6
-4 -11 3 1161.42 100.069 13
-4 11 3 1314.75 137.115 6
-4 11 4 902.884 104.427 6
-4 -11 4 904.282 88.9958 12
-4 -11 4 812.683 69.2163 13
-4 11 4 674.363 76.4288 17
-4 -11 5 389.018 52.7054 5
-4 11 5 503.520 66.0960 6
-4 -11 5 518.598 63.0477 12
-4 -12 -1 5879.84 203.580 13
-4 -12 0 6453.10 236.303 13
-4 -12 1 321.142 56.8866 13
-4 12 1 276.706 64.9433 6
-4 -12 2 2967.29 158.340 13
-4 12 2 2847.05 182.300 6
-4 -12 3 1200.57 92.4847 13
-4 -12 3 1158.40 95.7503 12
-4 12 3 1286.78 119.045 6
-4 -12 4 86.7420 31.4746 12
-4 12 4 53.9086 35.7343 6
-4 -12 4 32.3801 23.5681 5
-4 -12 5 124.993 26.5224 5
-4 -12 5 104.899 27.0057 12
-4 12 5 129.234 30.7799 6
-4 -13 -1 909.623 67.6022 13
-4 -13 0 283.047 47.3136 13
-4 -13 1 120.751 41.7653 13
-4 13 1 35.1953 30.5854 6
-4 -13 2 152.261 37.5617 13
-4 -13 2 215.506 41.8830 12
-4 13 2 139.534 47.0898 6
-4 -13 3 495.872 54.7682 12
-4 13 3 575.277 72.4579 6
-4 -13 3 600.550 57.1337 13
-4 -13 4 35.2130 17.4718 5
-4 13 4 67.9701 29.4549 6
-4 -14 0 141.674 29.3932 13
-4 -14 1 145.090 32.9690 13
-4 14 2 1925.22 103.517 6
-4 -14 2 1943.97 96.1590 13
-4 14 3 617.282 56.1689 6
-4 -14 3 427.901 41.5883 5
-3 0 2 58165.3 961.390 3
-3 0 2 59242.7 1267.85 2
-3 0 3 221.196 88.7407 2
-3 0 4 1186.04 209.491 2
-3 0 5 11.3307 66.6152 2
-3 0 6 20421.6 592.942 12
-3 0 6 21176.5 597.540 8
-3 0 6 21951.2 610.464 14
-3 0 6 21944.7 1219.82 2
-3 0 6 23317.9 598.293 17
-3 0 7 -10.9608 44.9400 17
-3 0 7 4.89794 46.0159 8
-3 0 7 -38.1949 58.2490 14
-3 0 8 13378.8 387.080 14
-3 0 8 14714.3 385.641 17
-3 1 -4 5597.79 473.398 3
-3 1 1 4286.67 267.243 2
-3 1 2 40589.9 754.934 3
-3 1 2 39828.2 982.857 2
-3 1 3 152311. 2648.73 2
-3 -1 3 148629. 2624.52 2
-3 -1 4 39359.4 1236.90 2
-3 1 4 40160.5 1289.07 2
-3 -1 5 3436.39 408.754 2
-3 1 5 4110.92 233.756 8
-3 1 5 3944.58 218.105 15
-3 1 5 3588.13 434.663 2
-3 -1 6 514.922 93.6590 14
-3 -1 6 391.770 86.6957 8
-3 1 6 524.181 96.1815 12
-3 -1 6 634.504 217.378 2
-3 1 6 572.572 93.1262 17
-3 1 6 207.278 156.376 2
-3 1 6 447.032 89.7439 8
-3 -1 6 508.014 81.6604 17
-3 1 6 558.992 102.492 14
-3 -1 6 402.957 91.5419 12
-3 -1 7 998.703 123.770 14
-3 1 7 900.670 116.125 14
-3 -1 7 855.997 123.014 12
-3 -1 7 1011.73 118.647 17
-3 1 7 919.708 117.648 8
-3 -1 7 1004.09 121.798 8
-3 1 7 1108.57 123.289 17
-3 -1 8 555.254 78.8598 14
-3 1 8 458.491 72.5280 8
-3 1 8 535.883 74.5083 17
-3 1 8 523.735 73.3747 14
-3 2 -4 14488.2 754.724 3
-3 2 -3 5020.52 415.425 3
-3 -2 -1 1378.69 155.775 1
-3 -2 0 1371.72 170.676 1
-3 2 1 5496.20 291.628 2
-3 2 1 5189.82 276.372 3
-3 2 2 101788. 1571.89 3
-3 2 2 100534. 1808.79 2
-3 -2 2 101761. 1879.64 2
-3 -2 3 5794.75 389.642 2
-3 2 3 5351.48 379.402 2
-3 2 4 1186.22 214.445 2
-3 -2 4 891.082 175.681 2
-3 -2 5 5630.09 263.940 8
-3 -2 5 5155.74 262.836 12
-3 2 5 5178.81 253.177 15
-3 2 5 4778.45 509.593 2
-3 -2 6 16040.5 537.205 12
-3 -2 6 16311.2 511.052 14
-3 2 6 16722.5 502.018 17
-3 2 6 16057.2 522.258 14
-3 2 6 16316.0 525.416 8
-3 -2 6 16137.1 501.577 8
-3 2 6 16610.2 506.931 15
-3 -2 7 450.681 84.2795 14
-3 2 7 147.352 57.4017 14
-3 -2 7 407.873 91.7789 12
-3 2 7 191.434 61.3826 17
-3 -2 7 245.178 66.2594 17
-3 -2 7 264.059 74.1900 8
-3 2 7 115.925 62.6099 8
-3 -2 8 677.943 85.4483 14
-3 2 8 851.407 88.4606 17
-3 2 8 867.330 99.3544 8
-3 3 -4 31236.4 1111.90 3
-3 3 -3 9545.50 576.493 3
-3 3 -2 1813.41 233.727 3
-3 -3 -2 1726.06 204.770 1
-3 -3 -1 133763. 2312.32 1
-3 3 -1 134505. 2330.61 3
-3 3 0 328286. 4560.79 3
-3 3 0 330862. 4310.56 2
-3 -3 0 331012. 4684.08 1
-3 3 1 28825.9 736.269 3
-3 3 1 29101.3 729.712 2
-3 3 2 12812.0 434.791 3
-3 -3 2 12030.0 541.927 2
-3 3 2 12618.7 520.687 2
-3 -3 3 909.368 164.372 2
-3 3 3 1925.64 235.443 2
-3 3 4 372.548 140.155 2
-3 -3 4 302.890 113.281 2
-3 3 5 14241.8 909.067 2
-3 -3 5 15506.2 464.279 14
-3 -3 5 14442.3 474.331 12
-3 3 5 14937.2 456.761 17
-3 -3 5 15207.7 456.634 8
-3 3 5 14316.0 446.568 15
-3 -3 5 15649.9 828.760 2
-3 -3 6 92.6497 50.3420 17
-3 -3 6 241.994 70.2256 14
-3 3 6 39.9869 40.0202 14
-3 -3 6 99.5808 64.6378 12
-3 -3 6 69.6258 61.7885 8
-3 3 6 128.980 66.4151 8
-3 3 6 24.0171 42.2874 17
-3 3 6 26.0576 55.1285 15
-3 -3 7 10616.8 415.953 12
-3 3 7 11178.7 414.184 8
-3 -3 7 10708.8 386.260 14
-3 3 7 11178.2 381.285 17
-3 -3 8 7486.61 266.464 14
-3 3 8 7854.41 281.046 8
-3 3 8 8072.46 262.942 17
-3 4 -4 45681.9 1374.16 3
-3 4 -3 3140.20 320.107 3
-3 4 -2 10336.5 552.353 3
-3 -4 -2 11556.3 587.219 1
-3 -4 -1 46364.7 1227.04 1
-3 4 -1 44057.1 1133.98 3
-3 4 0 190553. 2961.18 3
-3 -4 0 190971. 3184.78 1
-3 4 0 195883. 2657.28 2
-3 -4 1 583.003 147.821 1
-3 4 1 705.785 109.621 2
-3 4 1 681.086 113.592 3
-3 4 2 11239.4 451.000 3
-3 -4 2 11709.4 536.345 2
-3 4 2 10638.1 483.875 2
-3 -4 3 656.611 137.861 2
-3 4 3 635.558 150.211 2
-3 4 4 3239.46 373.917 2
-3 -4 4 3391.66 336.621 2
-3 4 5 1836.32 336.046 2
-3 -4 5 1872.41 151.319 8
-3 -4 5 1941.50 155.556 14
-3 -4 5 1644.60 157.318 12
-3 4 5 1928.75 157.767 17
-3 4 5 1657.04 147.993 15
-3 -4 6 45208.3 919.679 8
-3 -4 6 43145.9 981.097 12
-3 4 6 42991.1 909.991 15
-3 -4 6 44295.3 910.059 14
-3 4 6 45185.1 994.216 8
-3 4 6 45586.0 936.885 17
-3 -4 7 543.410 103.089 12
-3 4 7 439.486 80.0608 8
-3 -4 7 465.147 87.3987 14
-3 4 7 492.687 79.6040 17
-3 4 8 114.085 43.2638 17
-3 4 8 107.491 40.2915 8
-3 -4 8 47.0640 31.6141 14
-3 5 -3 47250.6 1372.51 3
-3 -5 -2 11030.5 639.159 1
-3 5 -2 11183.6 585.201 3
-3 -5 -1 10416.1 588.921 1
-3 5 -1 10452.2 523.762 3
-3 5 0 4068.13 306.023 3
-3 -5 0 3908.49 358.733 1
-3 5 1 90745.8 1709.21 3
-3 5 1 90339.4 1572.78 2
-3 -5 1 88159.1 1992.71 1
-3 5 2 24219.9 763.435 3
-3 -5 2 23411.8 801.948 2
-3 5 2 23735.0 775.347 2
-3 5 3 18751.7 807.474 2
-3 -5 3 18540.2 717.645 2
-3 5 4 46963.8 1547.38 2
-3 5 5 7013.45 300.924 15
-3 -5 5 7215.56 305.433 14
-3 5 5 7834.82 692.867 2
-3 -5 5 6677.78 320.116 12
-3 5 5 6981.45 309.670 17
-3 -5 6 34082.8 756.042 14
-3 5 6 34416.9 850.995 8
-3 -5 6 35265.9 846.513 12
-3 5 6 34443.7 792.790 17
-3 -5 7 255.662 68.0280 14
-3 5 7 202.729 61.5035 17
-3 -5 7 243.563 68.8078 12
-3 5 7 148.137 51.7301 8
-3 -5 8 146.604 41.2369 14
-3 5 8 152.811 35.8730 17
-3 5 8 150.198 37.9788 8
-3 6 -3 82735.6 1958.33 3
-3 6 -2 8864.41 538.550 3
-3 -6 -2 9694.49 630.896 1
-3 -6 -1 30396.1 1123.63 1
-3 6 -1 30702.7 987.873 3
-3 6 0 579.544 124.424 3
-3 -6 0 627.924 167.019 1
-3 6 1 46537.1 1196.53 3
-3 -6 1 46550.0 1427.98 1
-3 6 2 5681.05 379.695 2
-3 6 2 5755.71 393.185 3
-3 6 3 3607.05 356.906 2
-3 6 4 7710.68 618.759 2
-3 -6 4 7888.35 323.213 12
-3 6 4 6896.51 307.566 6
-3 -6 4 7434.12 287.966 14
-3 6 5 101247. 1630.47 6
-3 -6 5 104252. 1608.93 14
-3 -6 5 104503. 1695.58 12
-3 6 5 102180. 1666.95 17
-3 6 6 56127.4 1133.50 8
-3 -6 6 56431.3 1125.61 12
-3 6 6 56202.8 1078.02 17
-3 -6 6 54949.9 1029.44 14
-3 -6 6 54655.0 1032.91 5
-3 -6 7 1233.23 114.212 14
-3 6 7 1336.29 128.426 8
-3 -6 7 1176.79 121.890 12
-3 6 7 1357.73 125.168 17
-3 6 8 140.106 34.6743 17
-3 -6 8 109.726 30.7994 14
-3 7 -3 41421.2 1333.32 3
-3 -7 -2 536.817 162.919 1
-3 7 -2 751.657 169.713 3
-3 -7 -1 89.9896 100.899 1
-3 7 -1 258.697 111.168 3
-3 -7 0 460.717 138.866 1
-3 7 0 628.190 151.044 3
-3 7 1 17714.5 747.453 3
-3 -7 1 17178.5 885.664 1
-3 7 2 318.119 111.936 3
-3 7 3 1559.17 143.856 6
-3 7 3 1489.51 142.322 7
-3 7 4 10064.6 716.602 2
-3 7 4 9532.20 371.084 7
-3 -7 4 10202.9 377.514 12
-3 7 4 10041.4 382.773 6
-3 -7 5 1486.72 131.594 14
-3 -7 5 1411.21 144.838 12
-3 7 5 1035.36 119.331 6
-3 7 5 1217.18 139.747 17
-3 -7 5 1228.02 126.799 5
-3 -7 6 2204.47 156.329 14
-3 -7 6 2572.36 191.404 12
-3 7 6 2356.21 186.850 8
-3 7 6 2517.65 185.120 17
-3 -7 6 2273.06 161.667 5
-3 7 7 28733.5 601.653 17
-3 -7 7 28287.6 568.230 14
-3 -7 7 28908.6 620.679 12
-3 -8 -2 6138.49 230.967 13
-3 8 -2 6147.77 490.283 3
-3 -8 -2 6432.92 569.060 1
-3 -8 -1 3179.80 167.722 13
-3 -8 -1 3360.63 417.535 1
-3 8 -1 3549.26 355.974 3
-3 8 0 10559.5 618.452 3
-3 -8 0 11164.3 327.687 13
-3 -8 0 10329.3 341.576 6
-3 -8 0 9660.05 695.735 1
-3 -8 1 802.681 94.3090 6
-3 -8 1 957.019 225.750 1
-3 -8 1 917.472 92.1548 13
-3 8 1 592.764 156.567 3
-3 8 1 861.199 113.213 7
-3 8 2 27681.9 672.026 6
-3 8 2 28656.0 1089.42 3
-3 8 2 25527.7 665.188 7
-3 -8 2 27228.0 563.277 13
-3 -8 2 26104.9 599.971 6
-3 8 3 61637.7 1158.44 6
-3 -8 3 60147.3 987.015 13
-3 -8 3 60197.0 1038.15 6
-3 8 3 58568.4 1147.36 7
-3 8 4 51863.4 1041.19 6
-3 -8 4 52809.5 1010.11 12
-3 8 4 49603.1 1025.07 7
-3 -8 5 198.426 64.5071 5
-3 8 5 250.712 64.7315 6
-3 -8 5 279.056 65.6836 14
-3 -8 5 276.773 73.9354 12
-3 8 5 186.256 75.4081 17
-3 -8 6 10181.9 321.390 14
-3 -8 6 9257.62 329.212 5
-3 8 6 8777.96 349.390 8
-3 -8 6 10252.7 359.657 12
-3 8 6 9614.81 353.979 17
-3 -8 7 43461.9 757.057 12
-3 -8 7 44216.5 717.236 14
-3 8 7 42273.6 751.663 17
-3 -9 -2 42346.8 754.023 13
-3 -9 -1 2369.70 155.024 13
-3 9 -1 1899.33 282.457 3
-3 -9 -1 1862.54 326.987 1
-3 -9 0 4030.63 195.753 13
-3 9 0 3980.55 398.001 3
-3 -9 0 3550.50 199.067 6
-3 -9 0 3915.72 463.867 1
-3 9 0 3874.32 217.464 6
-3 9 1 3278.52 216.194 7
-3 9 1 2873.05 348.777 3
-3 -9 1 2397.38 162.572 6
-3 -9 1 2507.94 156.246 13
-3 -9 1 2366.67 370.897 1
-3 9 2 2993.21 215.811 7
-3 9 2 3170.91 372.059 3
-3 -9 2 3066.74 170.621 13
-3 -9 2 3395.22 194.305 6
-3 9 3 12357.2 457.360 7
-3 -9 3 12932.4 365.823 13
-3 9 3 13166.4 465.215 6
-3 -9 3 13500.2 398.037 6
-3 -9 4 18233.1 507.834 12
-3 9 4 17757.4 541.321 7
-3 9 4 17768.5 545.352 6
-3 -9 5 1970.99 153.052 12
-3 9 5 1714.45 156.179 17
-3 -9 5 1452.13 132.434 5
-3 9 5 1565.63 142.067 6
-3 9 6 8945.24 318.493 17
-3 -9 6 9333.45 309.284 12
-3 9 6 8149.22 291.225 8
-3 -9 6 8742.89 295.983 5
-3 -9 7 15886.7 334.560 12
-3 9 7 15934.0 341.559 17
-3 -10 -2 14450.6 365.582 13
-3 -10 -1 622.498 78.9101 13
-3 -10 0 1582.42 124.579 13
-3 10 0 1430.38 133.980 6
-3 -10 1 632.901 85.9359 13
-3 10 1 518.467 93.0067 6
-3 10 1 541.445 105.549 7
-3 10 2 4141.87 249.440 6
-3 -10 2 4194.07 205.270 13
-3 10 2 3649.67 248.331 7
-3 10 3 3586.14 234.018 6
-3 10 3 3333.53 231.967 7
-3 -10 3 3647.80 185.524 13
-3 10 4 24054.4 633.071 6
-3 -10 4 23742.2 570.130 12
-3 -10 5 4691.27 217.087 12
-3 -10 5 4472.83 221.830 5
-3 10 5 4794.26 233.889 6
-3 10 5 4939.37 244.092 17
-3 10 6 2656.57 151.380 17
-3 -10 6 2597.24 139.992 5
-3 -10 6 2879.58 144.007 12
-3 -11 -2 619.998 69.1172 13
-3 -11 -1 3122.23 167.392 13
-3 -11 0 500.836 77.4851 13
-3 11 0 574.080 87.1702 6
-3 -11 1 967.694 101.747 13
-3 11 1 869.656 114.645 6
-3 11 2 7424.01 330.935 6
-3 -11 2 6990.85 269.150 13
-3 11 2 6988.80 338.608 7
-3 11 3 17532.6 527.623 6
-3 -11 3 16823.7 447.340 12
-3 11 3 16282.5 528.867 7
-3 -11 3 16983.5 426.209 13
-3 11 4 7291.54 309.070 6
-3 -11 4 6751.00 257.876 12
-3 -11 4 7187.32 233.905 13
-3 -11 5 399.883 59.5425 12
-3 -11 5 220.331 46.0372 5
-3 11 5 323.019 60.9220 17
-3 11 5 319.345 59.6043 6
-3 -11 6 5109.19 152.033 12
-3 -11 6 5084.96 168.651 5
-3 11 6 5522.99 180.233 17
-3 -12 -2 77.4344 30.1864 13
-3 -12 -1 918.968 86.9170 13
-3 12 0 3986.54 209.036 6
-3 -12 0 4374.67 202.734 13
-3 -12 1 2500.93 156.702 13
-3 12 1 2480.36 180.278 6
-3 -12 2 3216.61 173.781 13
-3 12 2 3537.15 218.475 6
-3 12 3 9646.94 359.298 6
-3 -12 3 9155.88 290.844 12
-3 -12 3 9243.57 286.440 13
-3 -12 4 8158.16 250.504 12
-3 12 4 8468.17 302.760 6
-3 -12 4 7498.24 266.091 5
-3 -12 4 8046.97 228.873 13
-3 -12 5 59.5347 22.8396 12
-3 12 5 33.1750 24.1941 6
-3 12 5 72.9349 32.5394 17
-3 -12 5 57.4276 32.5966 5
-3 -13 -1 203.389 41.1915 13
-3 -13 0 1667.07 115.064 13
-3 13 0 1710.11 122.046 6
-3 -13 1 162.403 41.0004 13
-3 13 1 223.745 56.6493 6
-3 13 2 698.739 87.9951 6
-3 -13 2 780.428 81.8241 13
-3 -13 2 717.540 72.1869 12
-3 -13 3 139.579 32.1083 12
-3 -13 3 228.469 46.1754 13
-3 13 3 129.273 46.8394 6
-3 13 4 1332.39 99.6371 6
-3 -13 4 1091.69 85.1095 5
-3 13 4 1248.39 91.6999 17
-3 -13 5 197.721 29.9078 5
-3 -14 -1 867.802 64.5203 13
-3 -14 0 395.048 54.8969 13
-3 14 1 8939.35 276.160 6
-3 -14 1 9026.45 262.009 13
-3 14 2 855.871 84.9022 6
-3 -14 2 933.050 79.1261 13
-3 -14 3 -34.7398 24.4963 13
-3 14 3 33.7627 28.8307 6
-3 -14 3 62.3102 25.8309 5
-3 14 4 146.560 24.9885 6
-3 -14 4 134.959 26.7328 5
-3 -15 0 862.764 59.2555 13
-3 -15 1 1268.82 77.6746 13
-3 -15 2 125.273 26.7429 5
-3 15 2 151.653 29.0611 6
-3 -15 2 219.321 32.5598 13
-2 0 -1 25.7189 15.8289 1
-2 0 2 5101.80 281.064 2
-2 0 3 63.1442 47.9810 2
-2 0 4 48385.6 1360.44 2
-2 0 5 124.240 109.806 2
-2 0 6 26620.2 672.673 14
-2 0 6 24904.1 680.698 12
-2 0 6 24789.5 651.375 8
-2 0 6 27232.4 627.478 9
-2 0 6 25308.2 1280.88 2
-2 0 6 25830.1 645.154 15
-2 0 6 27306.8 678.971 17
-2 0 7 -31.2545 59.5338 17
-2 0 7 51.2439 57.5830 14
-2 0 7 34.6312 53.3472 15
-2 0 7 -2.57727 47.3260 8
-2 0 8 21.4987 40.5499 17
-2 0 8 45.6431 35.6493 14
-2 1 -4 67933.1 1632.97 3
-2 -1 -2 326899. 4319.63 1
-2 -1 -1 37067.4 745.564 1
-2 -1 0 223941. 3014.04 1
-2 1 1 93535.0 1479.11 2
-2 1 1 94645.6 1386.36 3
-2 1 2 39876.6 891.933 2
-2 -1 2 39209.1 885.613 2
-2 1 2 39892.4 603.813 3
-2 -1 3 211044. 3266.03 2
-2 1 3 220789. 3316.31 2
-2 1 4 1451.12 222.482 2
-2 -1 4 1503.24 218.909 2
-2 -1 5 1215.02 235.228 2
-2 1 5 1439.66 274.477 2
-2 -1 6 42625.5 906.887 14
-2 1 6 43317.1 918.293 14
-2 -1 6 45780.7 935.448 17
-2 1 6 43610.7 1758.00 2
-2 -1 6 41812.6 953.629 12
-2 1 6 43490.9 918.514 17
-2 1 6 43184.5 888.222 15
-2 -1 6 44004.8 860.229 9
-2 1 6 43286.2 856.701 9
-2 -1 6 42497.2 900.260 8
-2 1 6 41960.7 907.917 8
-2 -1 6 42821.2 885.633 15
-2 -1 6 45044.7 1666.42 2
-2 -1 7 25967.4 651.707 17
-2 -1 7 23956.0 636.734 14
-2 1 7 24139.9 625.283 14
-2 -1 7 23444.0 619.333 8
-2 1 7 23643.0 629.292 8
-2 1 7 25550.2 645.260 17
-2 1 7 25291.4 634.889 15
-2 1 8 59.3571 51.7175 17
-2 1 8 -2.46770 27.5608 14
-2 -1 8 -10.6282 32.7324 14
-2 2 -4 14353.5 670.100 3
-2 2 -3 324633. 4747.65 3
-2 -2 -2 127430. 2102.87 1
-2 -2 -1 334.801 74.3799 1
-2 2 0 34197.8 744.935 3
-2 -2 0 33264.0 769.953 1
-2 2 1 272152. 3613.51 2
-2 2 1 278655. 3574.17 3
-2 -2 2 742.433 118.596 2
-2 2 2 661.187 71.2180 3
-2 2 2 681.292 103.179 2
-2 -2 3 6122.83 358.443 2
-2 2 3 6556.90 401.304 2
-2 2 4 147629. 2842.00 2
-2 -2 4 143732. 2651.85 2
-2 2 5 16950.7 960.748 2
-2 -2 5 17912.1 878.388 2
-2 -2 6 6338.93 302.735 14
-2 2 6 7008.98 312.495 14
-2 2 6 5828.10 622.226 2
-2 -2 6 6506.39 332.799 12
-2 -2 6 6963.75 324.083 17
-2 -2 6 6738.11 284.909 9
-2 2 6 6990.53 290.014 9
-2 -2 6 6273.36 300.121 8
-2 2 6 6735.15 318.155 8
-2 2 6 6931.50 304.275 15
-2 2 6 6632.41 316.799 17
-2 -2 7 1189.64 135.117 14
-2 2 7 1063.89 116.236 14
-2 2 7 1201.31 134.624 8
-2 2 7 1152.08 130.831 15
-2 -2 7 1164.07 135.506 17
-2 2 7 1281.72 131.905 17
-2 2 8 15.3880 36.5177 17
-2 -2 8 43.1348 35.6973 14
-2 3 -4 5032.94 382.208 3
-2 3 -3 2516.25 255.637 3
-2 -3 -3 2148.75 249.902 1
-2 3 -2 13788.6 556.369 3
-2 -3 -2 13832.2 583.944 1
-2 3 -1 37157.5 891.232 3
-2 -3 -1 36734.3 938.390 1
-2 -3 0 108554. 1876.28 1
-2 3 0 111662. 1764.39 3
-2 3 0 111461. 1549.29 2
-2 3 1 181073. 2533.64 3
-2 -3 1 176566. 2777.72 1
-2 3 1 179464. 2506.14 2
-2 3 2 103681. 1619.26 3
-2 3 2 103716. 1780.14 2
-2 -3 2 104003. 1768.14 2
-2 3 3 12644.3 583.223 2
-2 -3 3 11295.0 494.395 2
-2 3 4 281767. 4616.32 2
-2 -3 4 276697. 4257.24 2
-2 -3 5 15464.1 451.787 14
-2 3 5 14665.5 910.992 2
-2 -3 5 14091.4 470.535 12
-2 -3 5 14858.3 447.652 8
-2 3 5 15495.9 444.683 15
-2 3 6 5192.62 282.641 17
-2 -3 6 4963.37 297.477 12
-2 -3 6 5848.10 299.293 17
-2 -3 6 4648.57 253.717 8
-2 3 6 4884.27 271.962 8
-2 -3 6 4707.30 256.379 14
-2 3 6 4872.87 257.526 15
-2 -3 7 85.0327 49.0211 14
-2 -3 7 81.5772 64.9986 12
-2 3 7 188.178 70.7665 8
-2 3 7 139.988 61.1926 17
-2 3 7 230.039 74.7781 15
-2 3 8 1977.39 138.632 17
-2 -3 8 1822.44 134.168 14
-2 4 -4 2358.15 268.315 3
-2 4 -3 8788.07 482.394 3
-2 -4 -3 9330.92 560.181 1
-2 4 -2 1087.18 160.241 3
-2 -4 -2 1155.45 180.477 1
-2 4 -1 19218.5 622.114 3
-2 -4 -1 19549.9 717.234 1
-2 4 0 47640.6 1000.50 3
-2 -4 0 44637.4 1125.54 1
-2 4 0 46882.9 767.914 2
-2 4 1 31111.6 751.960 3
-2 -4 1 30707.6 902.205 1
-2 4 1 29786.8 689.260 2
-2 4 2 5203.03 320.573 2
-2 4 2 4854.35 280.958 3
-2 -4 2 4778.25 288.484 2
-2 4 3 186053. 3209.37 2
-2 -4 3 194202. 2951.74 2
-2 4 4 519226. 7637.11 2
-2 -4 4 521482. 7063.33 2
-2 -4 5 6252.01 278.718 14
-2 -4 5 5701.80 295.683 12
-2 4 5 6513.49 621.291 2
-2 4 5 6833.27 275.211 11
-2 -4 5 5869.51 282.657 5
-2 -4 5 7763.12 333.929 17
-2 4 5 6375.61 276.509 15
-2 -4 6 2564.31 185.751 14
-2 -4 6 2520.06 211.691 12
-2 4 6 2655.40 185.190 11
-2 -4 6 2724.40 198.542 5
-2 4 6 2453.43 195.614 17
-2 4 6 2636.70 200.868 8
-2 4 6 2685.90 190.623 15
-2 -4 7 5145.55 258.437 14
-2 -4 7 4858.85 277.455 12
-2 4 7 5039.71 266.192 17
-2 -4 7 5234.18 246.700 5
-2 4 7 5091.67 265.631 8
-2 4 7 5371.34 265.553 15
-2 4 8 5959.01 234.763 17
-2 -4 8 5639.01 221.640 14
-2 5 -4 50064.7 1375.57 3
-2 5 -3 2622.38 272.620 3
-2 -5 -3 3101.24 340.984 1
-2 5 -2 2879.43 261.102 3
-2 -5 -2 2532.93 291.255 1
-2 -5 -1 55357.3 1422.76 1
-2 5 -1 56960.0 1244.28 3
-2 5 0 86407.2 1589.70 3
-2 -5 0 84251.2 1787.66 1
-2 5 1 20923.2 593.744 2
-2 -5 1 19777.9 766.839 1
-2 5 1 20740.6 653.563 3
-2 5 2 22785.9 744.463 3
-2 5 2 24602.9 780.700 2
-2 -5 2 25370.4 706.798 2
-2 -5 3 13166.5 515.703 2
-2 5 3 13965.4 682.193 2
-2 5 4 24455.3 1089.82 2
-2 5 5 102944. 1678.75 17
-2 -5 5 99918.2 1597.10 14
-2 5 5 104629. 2755.16 2
-2 -5 5 102268. 1687.72 12
-2 5 5 101802. 1555.67 11
-2 -5 5 99019.4 1658.74 5
-2 5 5 102779. 1590.18 15
-2 -5 6 6231.47 292.837 14
-2 5 6 6661.60 286.451 11
-2 -5 6 6547.60 319.123 5
-2 5 6 7072.13 332.400 8
-2 5 6 6906.47 330.931 17
-2 -5 6 6610.71 337.200 12
-2 5 6 6757.97 299.609 15
-2 -5 7 845.734 102.851 14
-2 -5 7 838.023 118.994 12
-2 5 7 739.944 106.852 17
-2 5 7 599.448 86.1911 8
-2 -5 7 625.046 86.0070 5
-2 5 7 764.250 99.1931 15
-2 -5 8 150.544 40.5810 14
-2 5 8 162.443 46.2649 17
-2 6 -3 2961.55 297.734 3
-2 -6 -3 2623.35 337.351 1
-2 -6 -2 247.754 114.843 1
-2 6 -2 57.3087 65.9757 3
-2 6 -1 20008.4 717.617 3
-2 -6 -1 19971.4 858.119 1
-2 -6 0 49527.6 1372.26 1
-2 6 0 51165.7 1204.43 3
-2 6 1 29776.7 884.937 3
-2 -6 1 28970.5 1011.52 1
-2 6 2 12665.5 581.163 2
-2 -6 2 11737.4 465.359 2
-2 6 2 11785.1 573.514 3
-2 6 3 1194.76 216.719 2
-2 6 4 13240.0 815.080 2
-2 -6 5 157171. 2265.33 14
-2 6 5 163927. 3651.07 2
-2 -6 5 160685. 2375.06 12
-2 6 5 155696. 2250.42 15
-2 6 5 157810. 2382.20 17
-2 -6 6 1513.33 137.783 14
-2 -6 6 1368.45 145.164 12
-2 6 6 1499.12 129.638 11
-2 6 6 1482.24 151.063 8
-2 -6 6 1477.22 154.820 5
-2 6 6 1411.91 151.516 17
-2 6 6 1601.44 145.293 15
-2 -6 7 1495.69 127.453 14
-2 6 7 1359.40 139.130 17
-2 -6 7 1232.15 128.686 12
-2 -6 7 1285.41 117.157 5
-2 6 7 1276.20 113.603 8
-2 6 8 6.43032 30.3835 17
-2 -6 8 -8.73455 28.5496 14
-2 7 -3 3247.03 330.678 3
-2 -7 -3 3277.99 395.267 1
-2 7 -2 10876.6 583.804 3
-2 -7 -2 10503.4 697.128 1
-2 7 -1 21576.3 804.967 3
-2 -7 -1 21382.2 965.611 1
-2 -7 0 -11.6201 87.7349 1
-2 7 0 79.5032 70.9941 3
-2 7 1 3512.17 325.495 3
-2 -7 1 3748.89 377.263 1
-2 7 2 39615.2 1140.90 2
-2 7 2 38698.8 1202.96 3
-2 7 3 87717.0 2103.33 2
-2 7 4 60113.5 1883.62 2
-2 -7 4 63970.0 1125.80 12
-2 7 4 59716.4 1122.75 6
-2 -7 4 62714.8 1061.03 14
-2 7 4 58280.8 1089.38 7
-2 -7 5 115918. 1764.96 14
-2 -7 5 116732. 1839.84 12
-2 -7 5 111075. 1847.08 5
-2 7 5 113772. 1901.90 17
-2 7 5 116796. 1744.15 15
-2 7 6 6877.73 282.407 15
-2 7 6 6413.69 319.211 17
-2 -7 6 6917.08 313.973 12
-2 -7 6 6722.78 285.416 14
-2 -7 6 6510.21 311.434 5
-2 7 6 6311.38 298.427 8
-2 -7 7 422.286 68.3005 12
-2 -7 7 375.837 63.7733 14
-2 7 7 325.707 71.1101 17
-2 -7 7 417.442 67.5464 5
-2 7 8 1401.87 85.7020 17
-2 -7 8 1361.14 75.9993 14
-2 -8 -3 573.896 182.745 1
-2 8 -3 700.345 174.209 3
-2 8 -2 5980.68 460.087 3
-2 -8 -2 4603.30 498.012 1
-2 8 -1 31084.2 1068.46 3
-2 -8 -1 29404.5 1212.22 1
-2 8 0 114.819 92.3703 3
-2 -8 0 71.2793 68.0497 1
-2 8 1 1175.72 206.933 3
-2 -8 1 790.933 187.786 1
-2 8 2 8679.53 586.925 3
-2 -8 3 104422. 1504.84 13
-2 8 3 101604. 1649.39 7
-2 -8 4 138.363 50.1436 12
-2 8 4 109.868 54.1005 6
-2 8 4 64.3733 85.3235 2
-2 8 4 111.353 56.0466 7
-2 -8 5 17166.9 468.183 14
-2 -8 5 15699.4 481.871 12
-2 -8 5 15536.0 507.563 5
-2 8 5 16360.4 546.389 17
-2 -8 6 4397.76 214.718 14
-2 -8 6 4486.86 232.916 12
-2 8 6 4665.42 267.900 17
-2 -8 6 4567.71 249.958 5
-2 8 7 1795.46 134.935 17
-2 -8 7 1780.07 120.577 5
-2 -8 7 1823.35 114.289 14
-2 -9 -2 25363.1 1228.81 1
-2 9 -2 25673.2 1048.65 3
-2 -9 -1 727.880 77.6106 13
-2 9 -1 659.431 165.461 3
-2 -9 0 1699.37 118.243 13
-2 -9 0 1847.63 305.226 1
-2 9 0 1570.75 256.669 3
-2 9 0 1443.11 134.856 7
-2 -9 1 25614.4 536.720 13
-2 9 1 23899.5 1039.94 3
-2 -9 1 24195.1 1118.42 1
-2 9 1 24158.0 621.311 7
-2 -9 2 5733.42 226.104 13
-2 9 2 5313.19 269.848 7
-2 9 2 5014.02 477.171 3
-2 -9 3 2767.07 159.001 13
-2 9 3 2664.78 194.884 7
-2 9 4 6550.26 309.668 6
-2 -9 4 6813.95 287.036 12
-2 9 4 6381.60 301.788 7
-2 -9 5 738.276 98.4027 12
-2 9 5 709.556 117.403 17
-2 -9 5 861.895 97.8549 14
-2 -9 5 776.193 111.536 5
-2 9 5 808.643 102.685 6
-2 -9 6 19116.3 440.032 14
-2 -9 6 17896.7 453.635 12
-2 -9 6 17924.0 489.482 5
-2 9 6 17886.4 516.707 17
-2 -9 7 297.140 44.9101 5
-2 9 7 311.200 57.5831 17
-2 -9 7 298.874 41.6461 14
-2 -10 -2 442.040 65.0254 13
-2 -10 -1 3568.28 456.447 1
-2 -10 -1 3446.46 173.472 13
-2 10 -1 2709.45 194.789 7
-2 10 -1 3844.20 418.427 3
-2 -10 0 4132.52 196.001 13
-2 -10 0 3980.12 471.616 1
-2 10 0 3785.15 235.417 7
-2 10 0 4234.60 443.093 3
-2 -10 1 23751.1 534.999 13
-2 10 1 22656.0 626.874 7
-2 10 1 23528.4 1096.88 3
-2 -10 1 23489.0 1158.86 1
-2 10 2 176214. 2568.60 7
-2 -10 2 172066. 2383.51 13
-2 -10 3 1806.83 131.283 13
-2 -10 3 1927.46 143.797 12
-2 10 3 1889.66 169.680 7
-2 -10 4 301.908 61.9938 12
-2 10 4 354.010 78.6233 6
-2 10 4 337.938 74.4322 7
-2 10 5 1169.76 137.058 17
-2 10 5 1140.60 112.732 6
-2 -10 5 1155.01 105.862 12
-2 -10 5 1297.22 129.763 5
-2 10 5 988.027 104.607 7
-2 -10 6 12074.2 310.370 12
-2 -10 6 12339.3 356.929 5
-2 10 6 12463.2 385.033 17
-2 10 7 17.5564 20.1244 17
-2 -11 -2 922.986 86.3452 13
-2 -11 -1 2279.03 144.508 13
-2 -11 0 1111.46 109.037 13
-2 11 0 1037.92 132.062 7
-2 -11 1 9598.50 323.900 13
-2 11 1 9366.11 393.951 7
-2 -11 2 27190.2 601.573 13
-2 11 2 27667.3 718.495 7
-2 -11 3 6804.31 262.541 13
-2 -11 3 6865.98 259.878 12
-2 11 3 7249.66 336.153 7
-2 -11 4 1110.38 97.6329 12
-2 11 4 762.495 103.754 6
-2 11 4 887.928 115.177 7
-2 -11 4 863.658 83.4051 13
-2 -11 5 349.901 50.2042 12
-2 11 5 439.783 71.7397 6
-2 -11 5 389.471 67.9565 5
-2 11 5 357.929 71.9260 17
-2 11 6 114.429 40.2945 17
-2 -11 6 119.466 33.8679 5
-2 -12 -2 1056.29 84.6043 13
-2 -12 -1 24311.8 526.009 13
-2 12 0 6315.69 310.641 7
-2 -12 0 6547.92 255.961 13
-2 -12 1 5163.96 228.981 13
-2 12 1 4916.80 280.361 7
-2 12 2 2003.97 173.291 7
-2 -12 2 2066.97 143.340 13
-2 -12 3 6409.64 243.493 13
-2 12 3 6427.43 293.898 6
-2 12 3 6437.27 302.016 7
-2 12 4 8068.82 302.192 6
-2 12 4 7594.92 299.922 7
-2 -12 4 7425.06 279.476 5
-2 -12 4 7969.68 241.379 13
-2 12 5 1010.43 99.9736 17
-2 -12 5 950.718 89.7786 5
-2 12 5 936.434 78.3422 6
-2 12 6 1036.76 67.3687 17
-2 -13 -1 3846.12 173.624 13
-2 -13 0 11085.3 330.198 13
-2 13 0 11332.0 373.137 6
-2 -13 1 27804.7 590.258 13
-2 13 1 27917.0 688.781 7
-2 -13 2 227.701 57.2264 13
-2 13 2 275.871 70.1980 6
-2 13 2 177.474 68.4221 7
-2 -13 3 9189.25 278.474 13
-2 13 3 9538.05 329.883 6
-2 13 3 9014.67 338.802 7
-2 13 4 1128.41 97.1825 6
-2 -13 4 1132.17 95.5129 5
-2 -13 5 5326.83 156.166 16
-2 -13 5 5488.04 174.983 5
-2 13 5 5273.10 179.800 17
-2 -14 -1 1684.29 100.937 13
-2 -14 0 4576.40 185.954 13
-2 14 0 4665.83 201.121 6
-2 14 1 8950.51 305.998 6
-2 -14 1 9301.59 283.594 13
-2 14 2 369.329 62.6167 6
-2 -14 2 368.895 55.6182 13
-2 -14 3 2989.47 130.847 13
-2 14 3 3296.46 163.322 6
-2 -14 4 103.279 28.2443 5
-2 14 4 89.5580 26.2255 6
-2 14 4 169.427 36.0842 17
-2 -15 -1 1465.68 73.6418 13
-2 -15 0 8177.47 218.589 13
-2 15 0 6897.64 193.181 6
-2 15 1 726.103 67.8163 6
-2 -15 1 583.779 59.4863 13
-2 15 2 2192.73 115.733 6
-2 -15 2 1910.33 101.439 5
-2 15 3 2250.08 101.187 6
-2 -15 3 1987.97 91.8185 5
-1 0 -3 66.1019 56.5573 1
-1 0 -2 51857.0 949.982 1
-1 0 -1 177.474 33.7961 1
-1 0 1 48.8877 31.8564 2
-1 0 3 132.217 43.1496 2
-1 0 4 100941. 2112.99 2
-1 0 5 93.5301 64.3053 2
-1 0 6 679.380 105.951 14
-1 0 6 918.643 102.772 9
-1 0 6 920.780 116.792 8
-1 0 6 874.469 108.779 15
-1 0 6 695.862 97.4627 17
-1 0 6 806.952 99.3876 5
-1 0 7 -21.5888 45.6883 9
-1 0 7 75.8107 63.3432 17
-1 0 7 4.43734 42.9005 14
-1 0 7 -58.8717 53.6688 15
-1 0 8 1061.42 93.7310 14
-1 0 8 1052.90 110.232 17
-1 1 -4 509.128 118.190 3
-1 1 -3 3520.52 216.582 1
-1 -1 -3 3131.50 262.555 1
-1 -1 -2 148661. 2266.04 1
-1 1 -2 149117. 2007.03 1
-1 -1 -1 1346.95 112.300 1
-1 1 1 526490. 6430.98 2
-1 1 3 5181.12 335.713 2
-1 -1 3 5507.74 317.730 2
-1 -1 4 71033.2 1647.65 2
-1 1 4 69862.0 1722.74 2
-1 1 5 51495.4 1690.86 2
-1 -1 5 54375.1 1623.89 2
-1 -1 6 4853.49 258.898 14
-1 1 6 4856.77 254.605 14
-1 1 6 4935.65 560.686 2
-1 -1 6 5333.48 246.715 9
-1 -1 6 4913.13 256.486 5
-1 -1 6 4711.90 250.796 8
-1 1 6 4834.71 256.329 8
-1 1 6 5350.88 248.980 9
-1 1 6 4804.69 249.648 15
-1 1 6 4966.55 269.041 17
-1 -1 6 5302.33 278.046 17
-1 -1 6 4867.99 284.260 12
-1 -1 6 5221.93 252.786 15
-1 1 7 161.329 57.6051 15
-1 -1 7 110.413 51.7634 14
-1 -1 7 308.149 73.6761 9
-1 1 7 238.240 70.4960 9
-1 -1 7 22.6729 53.1719 17
-1 1 7 9.79345 48.3187 8
-1 1 7 66.9139 42.2361 14
-1 1 7 57.6362 52.7663 17
-1 -1 7 64.5293 49.4202 5
-1 -1 7 132.332 58.5771 15
-1 -1 8 450.614 70.6055 14
-1 1 8 506.076 79.2171 17
-1 -2 -4 11317.6 615.432 1
-1 2 -4 11461.2 505.006 3
-1 -2 -3 26490.9 883.340 1
-1 2 -3 28668.6 774.307 3
-1 -2 -2 3064.43 247.554 1
-1 2 -2 3615.45 225.962 3
-1 2 -1 1104.46 109.112 3
-1 -2 -1 1038.44 118.559 1
-1 2 0 2168.06 128.320 3
-1 -2 0 2009.45 144.666 1
-1 2 0 2367.29 91.7034 2
-1 -2 3 94498.1 1677.59 2
-1 2 3 98340.2 1875.38 2
-1 -2 4 382.430 105.639 2
-1 2 4 403.755 135.255 2
-1 -2 5 66277.8 1730.81 2
-1 2 5 60403.7 1902.78 2
-1 -2 6 5861.81 300.025 17
-1 -2 6 5201.55 271.186 14
-1 -2 6 5793.97 257.096 9
-1 2 6 5815.84 273.439 15
-1 -2 6 5023.82 294.830 12
-1 2 6 4699.38 559.165 2
-1 2 6 5902.63 280.851 11
-1 -2 6 5895.09 268.149 15
-1 2 6 5406.77 285.001 17
-1 2 6 5944.43 263.708 9
-1 -2 6 5345.78 270.075 8
-1 2 6 5440.17 275.339 8
-1 -2 6 5304.69 279.751 5
-1 -2 7 36.1595 46.7882 14
-1 2 7 -19.1033 53.7734 15
-1 2 7 1.86880 46.5327 9
-1 2 7 73.8125 50.3479 8
-1 -2 7 21.2583 43.9469 9
-1 -2 7 -23.2531 62.7403 17
-1 2 7 -3.60285 49.5733 17
-1 -2 7 69.3074 49.2134 5
-1 -2 8 3612.17 183.056 14
-1 2 8 3635.74 194.964 17
-1 -3 -4 18704.0 862.212 1
-1 3 -4 20335.4 696.084 3
-1 -3 -3 397.196 121.528 1
-1 3 -3 454.313 98.5787 3
-1 -3 -2 19965.0 720.106 1
-1 3 -2 19724.8 576.371 3
-1 3 -1 486580. 6121.63 3
-1 -3 -1 484801. 6370.36 1
-1 -3 0 70109.0 1284.48 1
-1 3 0 71760.9 1153.04 3
-1 3 0 69448.6 970.259 2
-1 3 1 21226.8 508.407 2
-1 3 1 20147.0 501.312 3
-1 -3 1 21281.1 599.710 1
-1 3 2 364655. 4954.35 2
-1 3 2 375038. 4725.21 3
-1 -3 2 361663. 4705.55 2
-1 -3 3 3475.88 211.360 4
-1 3 3 3540.46 308.712 2
-1 -3 3 3411.23 231.449 2
-1 -3 4 44556.0 1141.74 2
-1 3 4 43995.0 1396.24 2
-1 -3 5 166.126 49.0237 14
-1 -3 5 221.839 63.4016 8
-1 3 5 203.577 104.880 2
-1 3 5 166.629 51.1759 17
-1 3 6 1442.61 149.347 17
-1 -3 6 1565.46 149.154 14
-1 -3 6 1337.50 153.759 12
-1 3 6 1639.46 147.925 11
-1 -3 6 1570.37 164.947 17
-1 -3 6 1657.15 136.270 9
-1 3 6 1485.13 132.013 9
-1 -3 6 1420.00 153.379 5
-1 3 6 1487.91 145.502 8
-1 3 6 1567.55 144.114 15
-1 -3 7 34.3407 47.3809 14
-1 -3 7 7.44236 45.6662 5
-1 3 7 61.2719 59.9487 17
-1 -3 7 38.5069 45.1831 9
-1 3 7 62.7815 43.8884 9
-1 3 7 -23.5067 48.2464 8
-1 3 7 -29.5885 50.0690 15
-1 -3 8 2492.17 146.930 14
-1 -3 8 2315.22 127.603 5
-1 3 8 2547.03 157.736 17
-1 -4 -4 600.802 175.948 1
-1 -4 -3 10272.8 608.620 1
-1 4 -3 11351.7 481.703 3
-1 -4 -2 30615.9 992.374 1
-1 4 -2 33089.2 811.621 3
-1 4 -1 15217.1 481.508 3
-1 -4 -1 15148.0 601.295 1
-1 4 0 78743.5 1135.15 2
-1 4 0 80221.7 1348.84 3
-1 -4 0 79083.7 1509.85 1
-1 4 1 15108.2 464.986 2
-1 4 1 14492.8 474.288 3
-1 4 2 7363.37 390.103 2
-1 4 2 7513.82 353.627 3
-1 -4 2 6719.71 270.598 2
-1 4 3 946405. 12227.3 2
-1 -4 3 904611. 11573.3 2
-1 4 4 17987.3 891.111 2
-1 4 5 3001.59 201.828 17
-1 -4 5 3115.58 190.233 14
-1 4 5 3056.98 183.781 15
-1 4 5 3073.73 419.782 2
-1 -4 5 3049.88 208.597 12
-1 4 5 2944.90 184.820 11
-1 -4 5 3567.18 180.779 9
-1 4 5 3432.89 178.725 9
-1 -4 5 3041.75 209.427 5
-1 4 5 2855.98 195.125 8
-1 -4 5 3500.57 225.746 17
-1 -4 6 299.628 78.5612 14
-1 -4 6 213.937 64.9229 12
-1 4 6 284.854 72.2062 11
-1 -4 6 275.169 66.0277 9
-1 4 6 240.609 67.0627 9
-1 4 6 256.433 73.9085 8
-1 -4 6 147.937 70.0564 5
-1 -4 6 345.937 88.0011 17
-1 4 6 222.555 73.0098 17
-1 4 6 219.102 69.3624 15
-1 -4 7 1636.25 148.880 14
-1 -4 7 1688.92 152.020 5
-1 4 7 1426.13 126.066 8
-1 4 7 1684.56 152.982 17
-1 4 7 1472.21 138.614 15
-1 -4 8 17807.9 392.766 5
-1 -4 8 18861.5 431.452 14
-1 4 8 19327.8 461.545 17
-1 -5 -4 4499.84 455.602 1
-1 5 -3 659.671 119.699 3
-1 -5 -3 711.632 162.592 1
-1 5 -2 18072.4 617.820 3
-1 -5 -2 21752.4 873.208 1
-1 5 -1 159526. 2452.79 3
-1 -5 -1 158414. 2768.06 1
-1 -5 0 1081.84 166.646 1
-1 5 0 1298.98 148.256 3
-1 5 1 119292. 1906.86 2
-1 -5 1 114299. 2086.57 1
-1 5 1 112685. 1956.22 3
-1 5 2 220945. 3402.99 2
-1 -5 2 221768. 2920.72 2
-1 5 3 486128. 6934.86 2
-1 5 4 124022. 2778.66 2
-1 -5 5 3005.12 192.909 14
-1 5 5 2700.21 412.584 2
-1 -5 5 2871.24 202.818 12
-1 5 5 2813.26 184.858 11
-1 5 5 3050.10 185.714 15
-1 5 5 3009.85 210.243 17
-1 -5 5 2683.74 202.929 5
-1 -5 6 1036.93 124.220 14
-1 -5 6 1037.37 134.410 12
-1 5 6 1048.32 122.336 11
-1 -5 6 1050.12 103.587 9
-1 5 6 1069.01 105.472 9
-1 -5 6 848.625 126.526 5
-1 5 6 1111.52 123.816 15
-1 -5 7 534.196 87.9158 14
-1 5 7 593.252 96.6692 17
-1 -5 7 609.365 99.8339 5
-1 5 7 658.168 98.7632 15
-1 -5 8 1913.17 115.982 14
-1 -5 8 1803.41 102.925 5
-1 5 8 1988.21 128.695 17
-1 -6 -4 3341.09 426.662 1
-1 6 -3 263.382 102.689 3
-1 -6 -3 126.270 122.951 1
-1 6 -2 121493. 2167.36 3
-1 -6 -2 123185. 2597.97 1
-1 6 -1 37434.0 969.098 3
-1 -6 -1 37475.4 1173.62 1
-1 6 0 25848.0 777.123 3
-1 -6 0 25105.5 885.145 1
-1 -6 1 75796.4 1693.87 1
-1 6 1 81169.6 1524.92 2
-1 6 1 79787.3 1627.07 3
-1 6 2 3318.41 295.555 2
-1 6 2 2860.81 281.460 3
-1 6 3 83024.9 1993.35 2
-1 6 4 937.638 228.269 2
-1 -6 5 353.595 78.7727 14
-1 -6 5 331.016 79.9306 12
-1 -6 5 389.507 92.0180 5
-1 6 5 171.832 50.6228 11
-1 6 5 270.312 131.579 2
-1 6 5 308.529 79.6228 17
-1 6 5 359.597 69.0255 15
-1 -6 6 2073.55 165.303 14
-1 -6 6 2619.35 196.150 12
-1 6 6 2143.30 164.324 11
-1 -6 6 1946.46 184.260 5
-1 6 6 2098.33 161.629 15
-1 6 6 2166.52 190.283 17
-1 -6 7 13564.3 429.292 5
-1 -6 7 13002.7 389.964 14
-1 6 7 13518.6 441.037 17
-1 6 7 12654.0 382.516 15
-1 -6 8 991.762 77.0102 14
-1 6 8 976.417 84.0215 17
-1 -6 8 863.564 63.1637 5
-1 -7 -4 20915.5 1122.76 1
-1 7 -3 10873.3 578.233 3
-1 -7 -3 10340.4 740.356 1
-1 7 -2 50939.0 1300.14 3
-1 -7 -2 50930.1 1617.82 1
-1 7 -1 38959.9 1074.36 3
-1 -7 -1 36277.2 1241.13 1
-1 -7 0 79948.0 1885.73 1
-1 7 0 84937.8 1757.05 3
-1 -7 1 60955.5 1557.82 1
-1 7 1 61760.6 1509.34 3
-1 -7 2 16593.3 792.391 1
-1 7 2 16821.0 737.611 2
-1 7 2 15208.2 727.298 3
-1 7 3 24651.3 1038.25 2
-1 -7 4 14824.7 422.250 14
-1 -7 4 15078.2 442.620 12
-1 7 4 14639.3 895.751 2
-1 7 5 53.0765 39.5679 15
-1 -7 5 44.9782 53.3392 14
-1 -7 5 14.8690 46.7222 12
-1 7 5 35.0536 39.9979 11
-1 -7 5 17.7356 46.7116 5
-1 7 5 79.7698 53.8824 17
-1 -7 6 3091.97 194.616 14
-1 -7 6 3267.00 205.533 12
-1 7 6 3209.37 192.951 11
-1 -7 6 2847.25 211.545 5
-1 7 6 3183.96 233.301 17
-1 7 6 3099.33 186.237 15
-1 -7 7 9324.52 301.902 14
-1 -7 7 9926.97 340.465 5
-1 7 7 10300.5 363.203 17
-1 7 7 9301.36 297.671 15
-1 7 8 -8.51086 22.7355 17
-1 8 -3 353.157 117.959 3
-1 -8 -3 368.695 160.784 1
-1 8 -2 11054.8 611.141 3
-1 -8 -2 11577.0 766.590 1
-1 -8 -1 1123.21 230.687 1
-1 8 -1 1026.04 179.060 3
-1 8 0 99823.4 2114.26 3
-1 -8 0 95811.4 2237.79 1
-1 -8 1 60232.7 1655.22 1
-1 8 1 61852.2 1630.75 3
-1 8 3 7889.78 606.192 2
-1 8 3 7588.98 295.942 7
-1 -8 4 38158.4 755.990 14
-1 -8 4 36698.6 768.058 12
-1 8 4 36988.7 1507.02 2
-1 8 4 35885.6 770.574 7
-1 -8 5 3781.34 210.778 14
-1 -8 5 3825.68 217.280 12
-1 8 5 3069.26 194.518 11
-1 8 5 3422.46 256.080 17
-1 -8 5 3713.28 249.134 5
-1 8 5 3646.52 193.300 15
-1 -8 6 136.463 62.6139 14
-1 -8 6 54.0687 33.2030 12
-1 8 6 193.634 57.2842 11
-1 -8 6 68.7275 53.3332 5
-1 8 6 201.537 79.0130 17
-1 8 6 117.096 52.5267 15
-1 -8 7 4402.69 181.830 14
-1 -8 7 4705.53 205.296 5
-1 8 7 4546.89 222.259 17
-1 9 -3 11133.3 676.853 3
-1 -9 -3 13391.0 927.964 1
-1 -9 -2 658.881 210.554 1
-1 9 -2 655.041 164.603 3
-1 -9 -1 254.445 118.480 1
-1 9 -1 605.668 154.694 3
-1 -9 0 39728.0 1415.26 1
-1 9 0 41463.4 1355.52 3
-1 -9 1 78499.7 2045.07 1
-1 9 1 79261.7 2049.01 3
-1 9 2 1913.41 147.983 7
-1 -9 2 2941.74 157.541 13
-1 -9 3 2226.21 144.334 13
-1 9 3 2581.70 175.161 7
-1 -9 4 78.9777 42.3637 12
-1 -9 4 115.333 47.3873 5
-1 9 4 34.4748 39.3580 7
-1 9 5 165.200 77.1909 17
-1 -9 5 95.4841 48.0893 14
-1 -9 5 164.211 49.5727 12
-1 9 5 167.519 51.8606 11
-1 -9 5 194.959 82.1616 5
-1 9 6 15591.9 496.672 17
-1 -9 6 15556.9 385.455 12
-1 9 6 15814.9 394.841 11
-1 -9 6 16771.9 480.029 5
-1 -9 6 16489.5 415.499 14
-1 -9 7 286.006 46.3186 5
-1 9 7 278.936 52.7769 17
-1 -10 -2 801.308 240.124 1
-1 10 -2 801.044 187.463 3
-1 -10 -1 4750.00 202.007 13
-1 10 -1 5082.46 469.929 3
-1 -10 -1 5210.20 545.376 1
-1 10 -1 4249.12 230.536 7
-1 -10 0 1090.00 254.222 1
-1 -10 0 1543.20 115.682 13
-1 10 0 1289.78 251.873 3
-1 10 0 1353.97 130.236 7
-1 -10 1 5469.98 228.250 13
-1 10 1 5070.44 503.097 3
-1 -10 1 5083.06 505.795 1
-1 10 1 5023.23 256.805 7
-1 -10 2 4798.36 215.519 13
-1 10 2 4632.90 250.084 7
-1 10 3 4781.32 256.529 7
-1 -10 3 4661.10 217.664 13
-1 -10 4 448.076 81.8939 5
-1 10 4 495.857 85.5435 7
-1 -10 5 7396.05 317.027 5
-1 10 5 7453.73 351.675 17
-1 -10 6 1260.99 111.575 5
-1 10 6 1130.09 121.659 17
-1 10 7 134.841 30.3281 17
-1 -11 -2 115.021 40.6444 13
-1 -11 -1 9592.40 307.359 13
-1 11 -1 9548.91 365.340 7
-1 -11 0 28141.8 607.168 13
-1 -11 0 28634.7 1291.91 1
-1 11 0 29029.0 1251.38 3
-1 11 0 27969.7 693.721 7
-1 11 1 36071.5 818.291 7
-1 -11 1 36176.8 724.894 13
-1 -11 1 36826.4 1452.76 1
-1 -11 2 242.690 63.5428 13
-1 11 2 319.304 79.9141 7
-1 -11 3 10033.1 330.982 13
-1 11 3 10192.7 388.824 7
-1 11 4 2603.69 181.779 6
-1 -11 4 2504.56 176.621 5
-1 11 4 2581.44 180.149 7
-1 -11 4 2676.62 151.763 13
-1 -11 5 2299.74 160.416 5
-1 11 5 1894.29 131.834 7
-1 11 5 2114.64 171.146 17
-1 11 6 6134.70 235.027 17
-1 -11 6 6061.74 211.289 5
-1 -12 -2 541.298 67.2865 13
-1 -12 -1 11974.5 349.187 13
-1 12 -1 11782.6 401.303 7
-1 12 0 62380.1 1165.19 7
-1 -12 0 60416.1 1041.64 13
-1 12 1 7692.90 343.165 7
-1 -12 1 7563.83 285.344 13
-1 -12 2 29.1556 36.9205 13
-1 12 2 178.603 74.5916 7
-1 12 3 923.303 115.723 7
-1 -12 3 849.385 90.0961 13
-1 12 4 949.589 102.844 6
-1 -12 4 1013.26 104.521 5
-1 -12 4 889.791 77.9615 13
-1 12 4 852.538 100.558 7
-1 -12 5 23.7195 26.5547 5
-1 12 5 -0.09081 36.1108 17
-1 12 6 104.393 28.4093 17
-1 -12 6 51.2304 23.5812 5
-1 -13 -2 4394.07 170.364 13
-1 -13 -1 572.951 72.3041 13
-1 -13 0 27830.5 594.947 13
-1 13 0 28732.7 681.928 7
-1 -13 1 50.6682 36.6288 13
-1 13 1 83.5885 55.6631 7
-1 -13 2 522.795 75.1118 13
-1 13 2 570.438 94.0581 7
-1 -13 3 5543.13 214.311 13
-1 -13 3 5281.85 225.880 5
-1 13 3 5810.71 262.104 7
-1 13 4 486.640 65.0835 6
-1 13 4 535.273 73.1123 7
-1 -13 4 454.161 64.5745 5
-1 13 5 47.8035 29.3445 17
-1 -13 5 24.4828 18.8940 16
-1 -13 5 14.7396 20.3862 5
-1 -14 -1 4612.82 179.504 13
-1 -14 0 1944.90 127.856 13
-1 14 0 2014.59 146.105 7
-1 -14 1 37.6719 36.1992 13
-1 14 1 62.9370 51.6271 7
-1 -14 2 1248.74 100.063 13
-1 14 2 1341.74 122.939 7
-1 14 3 1825.78 129.309 7
-1 -14 3 1723.30 101.643 13
-1 14 3 1881.66 123.681 6
-1 -14 3 1482.97 103.518 5
-1 14 4 2709.94 117.075 6
-1 14 4 2666.24 136.404 17
-1 -14 4 2772.82 122.689 5
-1 -14 4 3097.82 125.916 16
-1 -15 -1 17873.4 348.800 13
-1 -15 0 138.157 33.5432 13
-1 15 0 277.720 46.5555 6
-1 -15 1 466.459 59.2354 13
-1 15 1 549.766 67.5738 6
-1 -15 2 973.386 73.2557 13
-1 15 2 953.912 80.0549 6
-1 -15 2 740.108 62.0172 5
-1 -15 3 2078.78 96.6038 16
-1 15 3 1948.42 97.8152 6
-1 -15 3 1795.23 85.6036 5
0 0 1 0.10920 14.9671 4
0 0 1 11.5392 14.9532 2
0 0 2 97563.6 1549.71 2
0 0 2 94319.4 1402.98 4
0 0 3 0.42360 36.6448 4
0 0 3 52.3394 51.0976 2
0 0 4 6772.33 465.671 2
0 0 5 67.4576 80.6626 2
0 0 6 17516.9 518.078 14
0 0 6 17587.9 533.478 5
0 0 6 17944.5 493.824 9
0 0 6 18620.0 546.293 17
0 0 6 18558.6 501.844 15
0 0 7 -110.594 56.7109 14
0 0 7 4.85258 46.3885 9
0 0 7 55.4447 51.9407 5
0 0 7 -17.9244 55.0563 17
0 0 7 -57.3991 52.1750 15
0 -1 -4 1751.56 239.509 1
0 1 -3 3995.54 207.457 3
0 -1 0 878.096 60.6174 1
0 1 0 947.740 47.0086 2
0 1 0 967.386 50.9861 3
0 1 1 308097. 3907.95 2
0 -1 2 45434.2 859.633 2
0 1 2 46362.1 964.949 2
0 -1 2 44241.4 815.123 4
0 -1 3 3530.15 262.499 2
0 -1 3 3787.53 224.468 4
0 1 3 4321.58 318.732 2
0 -1 4 1457.82 205.582 2
0 1 4 2043.58 270.964 2
0 1 5 316.965 142.652 2
0 -1 5 34.8793 65.0393 2
0 -1 6 169.260 60.2008 14
0 1 6 124.469 59.7177 11
0 -1 6 308.458 69.9636 9
0 1 6 155.650 59.1600 9
0 1 6 455.545 84.3952 8
0 1 6 137.909 64.5154 17
0 -1 6 89.1501 48.4840 17
0 1 6 104.291 56.4512 5
0 -1 6 148.881 60.7946 5
0 -1 6 278.844 66.0186 15
0 1 6 -8.46736 39.6374 15
0 -1 7 349.861 77.2329 14
0 1 7 373.961 84.6343 17
0 -1 7 350.673 76.7932 9
0 1 7 364.672 78.0649 9
0 1 7 339.255 71.4488 5
0 -1 7 325.722 79.1028 5
0 -1 7 277.081 78.0581 17
0 -1 7 269.705 60.7693 15
0 1 7 330.437 68.3489 15
0 -1 8 217.876 50.4272 14
0 -1 8 119.726 42.2119 5
0 1 8 236.982 59.0900 17
0 1 8 205.599 50.3460 15
0 -2 -5 3927.38 429.557 1
0 -2 -4 998.973 193.050 1
0 -2 -3 99661.0 2024.70 1
0 2 -3 107442. 1615.84 3
0 2 -2 253367. 3282.81 3
0 -2 -2 256344. 3665.99 1
0 -2 0 57425.1 942.671 1
0 2 0 56235.5 841.250 2
0 2 0 57080.1 866.535 3
0 -2 2 254525. 3335.57 2
0 2 2 256988. 3645.01 2
0 -2 2 258520. 3456.68 4
0 -2 3 105430. 1796.80 2
0 2 3 103973. 2032.68 2
0 -2 3 108056. 1787.73 4
0 -2 4 1090.54 165.092 2
0 2 4 958.292 198.080 2
0 2 5 3305.73 415.356 2
0 2 5 3922.89 209.622 11
0 2 5 3833.99 195.183 15
0 -2 5 4070.99 226.834 17
0 2 5 3647.70 217.465 17
0 -2 6 7147.14 322.191 14
0 2 6 8013.19 335.681 11
0 2 6 7648.40 317.034 5
0 -2 6 8150.05 305.380 9
0 2 6 7934.60 304.407 9
0 -2 6 7878.68 359.871 5
0 2 6 7309.98 307.927 8
0 -2 6 7920.55 342.960 17
0 2 6 7475.69 340.126 17
0 -2 6 8487.84 307.822 15
0 2 6 7948.11 317.292 15
0 -2 7 143.630 58.4676 14
0 -2 7 264.321 61.9830 9
0 2 7 347.869 71.5007 9
0 2 7 457.596 75.5965 5
0 -2 7 273.506 75.8731 5
0 -2 7 683.427 103.685 17
0 2 7 491.950 86.1402 17
0 2 7 408.085 83.9108 15
0 -2 8 800.783 80.8445 14
0 -2 8 750.131 77.9815 5
0 2 8 798.785 90.4335 17
0 2 8 707.126 79.8808 15
0 -3 -5 3488.88 432.749 1
0 -3 -4 25251.8 1050.57 1
0 3 -3 146882. 2175.35 3
0 -3 -3 146363. 2718.72 1
0 3 -2 7508.04 285.196 3
0 -3 -2 7291.89 419.561 1
0 3 0 117.732 40.5036 3
0 -3 0 91.3961 44.1692 1
0 3 2 7080.72 383.693 2
0 -3 2 7008.03 230.030 2
0 -3 3 148010. 2257.07 2
0 3 3 148277. 2699.65 2
0 3 4 26400.7 1073.66 2
0 -3 5 4534.16 231.286 14
0 -3 5 4473.27 251.850 12
0 3 5 4104.13 479.224 2
0 3 5 4914.13 237.000 11
0 -3 5 4843.12 211.062 9
0 3 5 4317.75 204.630 9
0 -3 5 4918.93 274.470 5
0 -3 5 4815.88 253.983 17
0 3 5 4678.87 253.418 17
0 3 5 4882.83 228.220 15
0 -3 6 3174.37 214.035 14
0 3 6 3712.02 226.320 11
0 3 6 3437.31 206.462 5
0 -3 6 3273.99 189.007 9
0 3 6 3436.14 194.904 9
0 -3 6 3532.40 243.953 5
0 -3 6 3640.64 230.669 17
0 3 6 3456.00 233.477 17
0 3 6 3457.57 210.938 15
0 -3 7 3347.94 179.970 9
0 3 7 3364.69 184.675 9
0 -3 7 3165.12 215.302 5
0 -3 7 2916.05 195.648 14
0 3 7 3393.08 215.613 17
0 3 7 3055.96 193.041 15
0 -3 8 3752.40 168.483 5
0 3 8 4221.32 191.126 17
0 -3 8 4028.42 175.075 14
0 3 8 4165.23 184.019 15
0 -4 -5 1172.40 252.353 1
0 -4 -4 3357.18 397.495 1
0 -4 -3 10564.5 642.795 1
0 4 -3 11651.5 435.058 3
0 4 -2 20119.2 543.816 3
0 -4 -2 18281.4 760.201 1
0 -4 -1 694254. 8985.95 1
0 4 0 3275.60 206.493 3
0 -4 0 3403.63 237.532 1
0 -4 1 676162. 8600.72 1
0 4 1 683763. 8655.16 2
0 4 1 695021. 8620.00 3
0 4 2 18844.0 694.015 2
0 -4 3 11081.6 548.759 4
0 4 3 10221.5 586.170 2
0 4 4 3717.12 410.463 2
0 -4 5 1112.07 120.121 14
0 -4 5 1115.73 127.083 12
0 4 5 1232.35 118.528 11
0 4 5 1317.36 119.734 15
0 -4 5 1123.89 101.785 9
0 4 5 1224.64 106.563 9
0 4 5 963.942 105.000 5
0 -4 5 1272.11 140.400 17
0 4 5 1058.13 272.887 2
0 -4 5 896.945 123.242 5
0 4 5 999.428 119.831 17
0 -4 6 3580.62 226.190 14
0 4 6 4105.02 234.553 11
0 -4 6 3725.23 199.150 9
0 4 6 3729.49 200.288 9
0 -4 6 3634.01 254.049 5
0 4 6 3816.56 247.943 17
0 4 6 3927.99 226.218 15
0 -4 7 7332.09 299.303 14
0 -4 7 7650.85 266.758 9
0 4 7 7492.53 267.484 9
0 -4 7 7170.27 325.536 5
0 4 7 7394.43 297.984 15
0 4 7 7612.79 327.191 17
0 -4 8 43.7002 27.1308 5
0 4 8 50.3121 39.6743 15
0 4 8 114.815 43.4621 17
0 -5 -5 817.674 230.598 1
0 -5 -4 12175.8 818.390 1
0 -5 -3 22202.8 1011.69 1
0 5 -3 23094.2 695.917 3
0 -5 -2 77054.1 1846.13 1
0 5 -2 74523.9 1399.16 3
0 -5 -1 37597.2 1068.36 1
0 5 -1 35937.0 849.319 3
0 5 0 8710.70 381.467 3
0 -5 0 2002.37 212.037 1
0 -5 1 38131.9 950.955 1
0 5 1 36299.0 948.328 2
0 5 1 39086.1 977.313 3
0 5 2 73077.9 1634.94 2
0 5 3 21019.5 907.676 2
0 -5 3 21747.4 856.933 4
0 5 4 12417.6 791.880 2
0 5 5 1020.49 245.652 2
0 -5 5 882.607 111.836 14
0 -5 5 744.577 104.976 12
0 5 5 855.856 89.9769 9
0 5 5 862.201 102.618 15
0 5 5 902.257 122.169 17
0 5 6 17401.9 497.569 15
0 -5 6 17313.0 515.046 14
0 5 6 17763.4 517.798 11
0 -5 6 18599.8 459.300 9
0 5 6 18095.9 453.938 9
0 -5 6 16672.7 571.022 5
0 5 6 17132.7 557.139 17
0 -5 7 16030.1 451.839 14
0 5 7 16943.3 469.107 11
0 5 7 16355.7 452.513 15
0 -5 7 16250.4 497.213 5
0 5 7 17123.1 497.796 17
0 -5 8 3546.38 144.499 5
0 5 8 3778.90 163.142 17
0 5 8 3800.73 158.865 15
0 -6 -5 137.938 122.601 1
0 -6 -4 2083.62 339.604 1
0 -6 -3 67200.9 1945.12 1
0 6 -3 62641.9 1410.49 3
0 -6 -2 290982. 4714.67 1
0 6 -2 280178. 4073.61 3
0 -6 -1 59940.9 1503.35 1
0 6 -1 57434.0 1258.53 3
0 6 0 95195.5 1799.48 3
0 -6 0 94048.2 1876.42 1
0 -6 1 59755.0 1347.55 1
0 6 1 56073.9 1358.32 3
0 6 2 274060. 4333.26 2
0 -6 3 65367.6 1703.04 4
0 6 3 60909.3 1736.68 2
0 6 4 2644.42 376.598 2
0 -6 4 2496.95 189.874 5
0 6 5 182.110 60.9453 15
0 -6 5 52.7474 48.2094 12
0 6 5 143.950 61.7729 17
0 -6 5 110.268 64.4997 14
0 6 5 201.939 156.142 2
0 -6 5 172.936 71.0705 5
0 -6 6 13505.3 435.336 14
0 6 6 13786.4 443.943 11
0 6 6 13471.2 420.395 15
0 -6 6 13852.2 505.017 5
0 6 6 13846.6 493.002 17
0 -6 7 9770.63 324.003 14
0 6 7 9831.22 329.848 11
0 -6 7 9730.21 356.584 5
0 6 7 9585.04 353.670 17
0 6 7 9235.86 314.726 15
0 6 8 434.905 51.0967 17
0 -7 -4 17856.3 1076.75 1
0 -7 -3 640.990 203.065 1
0 7 -3 549.489 133.652 3
0 -7 -2 35732.0 1320.50 1
0 7 -2 33681.7 1004.11 3
0 7 -1 6334.84 403.314 3
0 -7 -1 4986.69 435.659 1
0 -7 0 241.101 102.898 1
0 7 0 220.897 94.6536 3
0 -7 1 4409.39 354.418 1
0 7 1 4088.64 356.434 3
0 -7 3 591.633 163.480 4
0 7 3 696.920 210.874 2
0 -7 4 16892.0 467.482 14
0 7 4 15865.9 980.104 2
0 -7 4 16449.2 510.514 5
0 7 4 17150.3 433.766 15
0 -7 5 2001.83 163.187 14
0 -7 5 1730.30 148.870 12
0 -7 5 1742.26 181.224 5
0 7 5 2000.18 147.999 15
0 7 5 2071.53 191.006 17
0 -7 6 3845.64 215.215 14
0 7 6 3713.80 213.783 11
0 7 6 3688.06 200.793 15
0 -7 6 3695.23 249.363 5
0 7 6 4176.35 258.408 17
0 -7 7 45.8637 40.7921 14
0 7 7 -4.21123 34.0680 11
0 -7 7 112.603 51.6381 5
0 7 7 8.38548 40.0361 17
0 7 7 37.4153 34.9390 15
0 -8 -4 48234.8 1882.24 1
0 -8 -3 22887.3 1204.52 1
0 8 -3 22469.6 896.813 3
0 8 -2 1446.36 212.956 3
0 -8 -2 2057.74 334.855 1
0 8 -1 1619.01 227.761 3
0 -8 -1 1285.38 239.932 1
0 -8 0 480.982 155.409 1
0 8 0 599.173 150.247 3
0 -8 1 1314.14 212.783 1
0 8 3 21878.6 577.226 10
0 8 3 21235.0 520.681 7
0 -8 4 43417.5 929.343 5
0 8 4 42869.7 842.485 7
0 -8 5 9977.93 360.286 14
0 8 5 10131.7 434.943 17
0 -8 5 10785.9 428.653 5
0 8 5 9951.12 335.631 15
0 -8 6 141.942 61.2979 14
0 8 6 160.544 64.4866 11
0 8 6 67.1283 58.4862 17
0 -8 6 152.659 58.6078 5
0 8 6 80.7934 40.8979 15
0 -8 7 809.608 82.1380 5
0 8 7 810.701 89.4730 17
0 8 7 602.961 65.3337 15
0 9 -3 13432.4 738.573 3
0 -9 -3 15014.2 1009.28 1
0 9 -2 4254.52 405.445 3
0 -9 -2 4325.81 506.538 1
0 9 -1 47538.0 1444.15 3
0 -9 -1 45881.9 1568.08 1
0 9 0 2550.54 314.079 3
0 -9 0 531.682 154.637 1
0 -9 1 46761.6 1428.59 1
0 -9 2 4027.63 192.207 13
0 9 2 4035.99 209.205 7
0 -9 3 14264.5 853.033 4
0 -9 3 13084.0 390.595 13
0 9 3 13218.8 438.415 10
0 9 3 13058.1 408.813 7
0 -9 4 12418.2 382.963 14
0 -9 4 11567.8 415.244 5
0 9 4 11062.9 375.887 7
0 -9 5 31774.1 680.148 14
0 -9 5 31076.6 760.763 5
0 9 5 30099.4 799.967 17
0 9 6 667.898 100.271 17
0 -9 6 625.937 88.9016 5
0 9 6 617.771 80.6672 11
0 9 6 538.479 64.3341 15
0 9 7 367.039 53.5015 17
0 -9 7 515.400 55.8981 5
0 10 -2 3094.64 376.024 3
0 -10 -2 3058.98 443.105 1
0 -10 -1 484.444 67.8559 13
0 -10 -1 475.953 181.882 1
0 10 -1 463.723 150.660 3
0 -10 0 317.990 58.7722 13
0 -10 0 286.099 137.870 1
0 -10 1 562.628 76.7597 13
0 -10 1 471.599 156.713 1
0 10 1 443.922 75.6470 7
0 -10 2 2443.61 155.987 13
0 10 2 2335.74 179.358 10
0 10 2 2643.09 179.600 7
0 -10 3 57.6241 42.3548 13
0 10 3 56.5797 42.6604 10
0 10 3 37.9301 51.6514 7
0 -10 4 1250.74 135.422 5
0 10 4 1168.87 119.202 7
0 10 5 10405.9 341.848 11
0 -10 5 10681.9 384.408 5
0 10 5 10032.7 410.095 17
0 10 6 551.201 66.7145 11
0 -10 6 599.842 77.3735 5
0 10 6 583.127 84.2476 17
0 -11 -2 3503.61 174.992 13
0 -11 -1 30242.8 624.299 13
0 -11 -1 29585.7 1348.61 1
0 11 -1 29632.9 684.896 7
0 -11 0 -20.9664 38.4756 13
0 -11 0 -146.507 157.135 1
0 11 0 -29.7689 48.2236 7
0 -11 1 29902.9 652.701 13
0 11 1 31406.9 730.265 10
0 11 1 30659.9 713.848 7
0 -11 2 3340.47 193.788 13
0 11 2 3551.92 218.183 10
0 11 2 3321.83 210.564 7
0 -11 3 150.158 50.0675 13
0 11 3 213.892 69.3537 7
0 -11 3 212.951 63.9439 5
0 -11 4 2717.26 179.693 5
0 11 4 2386.81 166.554 7
0 11 5 11538.4 319.822 11
0 -11 5 11950.2 366.099 5
0 11 5 10771.1 392.047 17
0 -11 5 11678.2 328.216 16
0 -11 6 76.0154 27.5858 5
0 11 6 91.1851 32.7236 17
0 -12 -2 439.840 64.7884 13
0 -12 -1 12692.2 371.454 13
0 12 -1 13549.0 424.007 7
0 -12 0 835.135 98.6730 13
0 12 0 882.297 111.960 7
0 -12 1 13126.7 396.704 13
0 12 1 13088.2 437.998 7
0 -12 2 364.457 68.6237 13
0 12 2 283.760 55.1461 10
0 12 2 338.986 74.9180 7
0 -12 3 3352.36 181.331 13
0 -12 3 3465.41 192.405 5
0 12 3 3351.43 203.600 7
0 12 4 13390.2 390.455 6
0 12 4 12549.3 379.286 7
0 -12 4 13549.0 390.286 5
0 -12 5 3981.85 173.491 5
0 12 5 3510.03 187.132 17
0 -12 5 4001.34 157.527 16
0 -13 -2 19934.5 433.922 13
0 -13 -1 4363.66 199.224 13
0 -13 0 70.3452 43.9899 13
0 13 0 54.9689 40.2127 7
0 -13 1 4248.23 211.337 13
0 13 1 4514.21 245.425 7
0 -13 2 19935.4 487.327 13
0 13 2 20080.9 542.330 7
0 -13 3 3149.39 169.409 5
0 13 3 3508.85 193.590 7
0 13 4 278.607 46.3354 6
0 13 4 298.685 63.3924 17
0 13 4 351.681 56.9582 7
0 -13 4 381.070 56.0337 16
0 -13 4 326.633 53.3964 5
0 -13 5 404.373 37.4631 16
0 13 5 387.585 48.0034 17
0 -13 5 449.689 45.5954 5
0 -14 -1 3179.29 152.299 13
0 -14 0 474.225 67.6493 13
0 14 0 544.118 81.7395 7
0 -14 1 3491.58 175.927 13
0 14 1 3370.12 194.636 7
0 -14 2 30768.1 590.856 13
0 14 2 32323.0 660.979 7
0 14 3 2036.69 127.189 6
0 -14 3 1937.32 114.256 5
0 -14 3 2150.54 123.890 16
0 14 3 2319.93 138.838 7
0 -14 4 293.847 36.4858 5
0 -14 4 353.868 42.4420 16
0 14 4 269.785 44.6806 17
0 14 4 370.658 44.7058 7
0 -15 0 70.5840 29.0202 13
0 15 0 139.422 43.4455 7
0 -15 1 734.057 60.3189 16
0 15 1 734.498 77.1025 7
0 -15 2 8199.50 220.590 16
0 15 2 8261.43 255.971 7
0 15 3 82.3366 28.1321 17
0 15 3 117.979 27.4207 6
0 -15 3 147.547 29.6868 16
0 15 3 75.7537 27.9841 7
0 16 1 303.173 37.4409 6
1 0 -1 26.8670 10.7061 4
1 0 0 16243.6 367.672 4
1 0 1 68.4072 43.0026 4
1 0 2 52230.4 1094.38 2
1 0 2 49387.2 1047.41 4
1 0 3 -40.5600 62.8974 4
1 0 3 -5.06297 58.4178 2
1 0 4 144166. 2788.64 2
1 0 4 145703. 2551.69 4
1 0 5 -3.01021 34.3148 15
1 0 5 124.205 55.1987 14
1 0 5 60.0841 44.9262 11
1 0 5 -4.62680 31.7527 9
1 0 5 80.1177 53.3114 5
1 0 5 75.3066 48.3230 17
1 0 6 2366.80 168.961 14
1 0 6 2480.85 205.525 5
1 0 6 2178.91 159.891 9
1 0 6 2172.51 172.965 17
1 0 6 2376.92 160.831 15
1 0 7 -74.9291 57.2594 9
1 0 7 80.1296 53.0153 5
1 0 7 90.1853 55.9418 17
1 0 7 44.0252 48.1976 15
1 0 8 94948.6 1334.93 9
1 -1 0 317519. 3978.68 4
1 1 0 314058. 3967.20 4
1 -1 1 967.097 114.766 4
1 1 1 1315.42 135.359 2
1 1 1 1311.21 124.923 4
1 1 2 152767. 2427.45 2
1 -1 2 148980. 2243.57 2
1 -1 2 144174. 2325.00 4
1 1 2 150052. 2287.30 4
1 1 3 3515.90 311.371 2
1 -1 3 3396.54 274.222 2
1 -1 3 3299.39 278.325 4
1 1 3 3355.24 259.712 4
1 -1 4 453.555 118.656 4
1 -1 4 551.350 143.976 2
1 1 4 503.381 143.531 2
1 -1 5 1538.02 135.601 14
1 -1 5 1752.24 141.327 11
1 1 5 1702.10 138.137 11
1 1 5 1988.09 160.691 5
1 -1 5 1694.16 128.666 9
1 1 5 1654.60 126.111 9
1 -1 5 1498.70 151.697 5
1 -1 5 1606.07 138.897 17
1 1 5 1530.11 141.752 17
1 -1 5 1603.41 123.143 15
1 1 5 1685.48 130.040 15
1 -1 6 1905.71 162.109 14
1 1 6 1809.24 157.233 11
1 1 6 2139.17 182.102 5
1 -1 6 1926.34 184.653 5
1 -1 6 1864.34 146.431 9
1 1 6 1773.99 145.780 9
1 -1 6 1968.55 166.750 17
1 1 6 1794.63 158.711 17
1 -1 6 2077.34 147.497 15
1 1 6 2015.14 156.759 15
1 -1 7 481.703 84.3293 14
1 -1 7 252.748 72.2784 9
1 1 7 310.302 75.7614 9
1 1 7 358.536 77.4636 5
1 -1 7 348.294 82.7945 5
1 -1 7 452.104 82.5559 17
1 1 7 371.914 76.3911 17
1 -1 7 270.466 53.2568 15
1 1 7 392.020 66.7748 15
1 -1 8 8817.76 260.009 5
1 -1 8 9359.68 254.088 9
1 1 8 9302.29 259.153 9
1 -2 -5 60818.9 1880.86 1
1 -2 0 1998.99 117.872 1
1 -2 1 950.929 119.574 4
1 2 1 1000.41 133.142 2
1 2 2 3397.02 277.803 2
1 -2 2 3552.48 263.617 4
1 -2 3 28701.5 906.458 4
1 2 3 28461.6 980.600 2
1 -2 3 28538.2 780.028 2
1 2 4 11593.3 709.640 2
1 -2 4 11617.2 604.910 4
1 -2 5 24046.0 606.400 14
1 2 5 25435.4 611.482 11
1 2 5 25329.7 632.562 5
1 -2 5 26161.7 574.955 9
1 2 5 25795.3 577.031 9
1 -2 5 25722.8 681.013 5
1 2 5 25654.3 585.726 15
1 -2 5 25301.9 630.069 17
1 2 5 24742.8 632.047 17
1 -2 6 31273.8 751.295 14
1 2 6 34855.9 770.074 11
1 2 6 33953.3 779.294 5
1 -2 6 34135.7 712.350 9
1 2 6 33077.5 715.427 9
1 -2 6 34217.1 835.520 5
1 2 6 34669.7 742.987 15
1 -2 6 33586.1 774.623 17
1 2 6 32921.3 769.309 17
1 -2 7 49797.4 946.150 14
1 2 7 51542.3 954.415 5
1 -2 7 49849.0 1005.04 5
1 -2 7 50666.4 893.823 9
1 2 7 52250.2 920.348 9
1 2 7 49337.1 943.415 17
1 2 7 50435.6 926.381 15
1 -2 8 1459.96 100.330 5
1 2 8 1438.69 92.3885 15
1 -3 -5 198.180 123.556 1
1 -3 -4 44782.3 1458.40 1
1 3 -3 3637.24 180.432 3
1 3 -2 370524. 4673.14 3
1 3 -1 20970.8 502.209 3
1 -3 -1 22114.9 643.941 1
1 -3 0 66047.1 1145.70 1
1 -3 1 484950. 5940.97 1
1 -3 2 19550.9 691.091 4
1 3 2 20868.0 762.368 2
1 -3 3 438.185 126.461 4
1 3 3 560.330 155.502 2
1 3 4 20698.0 999.420 2
1 -3 4 21723.6 882.413 4
1 -3 5 69931.2 1250.83 14
1 3 5 71853.8 1248.72 11
1 3 5 71264.7 1257.68 5
1 -3 5 73903.2 1176.75 9
1 3 5 73231.1 1180.23 9
1 -3 5 72223.7 1349.88 5
1 -3 5 73397.0 1286.30 17
1 3 5 70071.0 1280.79 17
1 3 5 73849.5 1214.07 15
1 -3 6 2839.51 200.857 14
1 3 6 3180.50 199.162 15
1 3 6 3075.52 206.541 11
1 3 6 3191.78 206.620 5
1 -3 6 2813.57 173.335 9
1 3 6 2863.98 181.834 9
1 -3 6 2961.59 227.864 5
1 -3 6 3125.96 211.864 17
1 3 6 2871.85 205.499 17
1 -3 7 47679.2 908.888 14
1 -3 7 48027.7 842.272 9
1 -3 7 46833.9 963.896 5
1 3 7 47533.7 914.852 17
1 3 7 48862.2 906.367 15
1 -3 8 408.308 53.5806 5
1 3 8 342.878 48.7765 15
1 -4 -5 3149.05 451.109 1
1 -4 -4 18238.8 967.453 1
1 4 -3 972653. 11910.2 3
1 -4 -3 985655. 12877.0 1
1 4 -2 6819.43 301.026 3
1 -4 -2 7742.03 480.498 1
1 4 -1 14446.3 460.306 3
1 -4 -1 13997.4 577.009 1
1 -4 0 75919.2 1379.83 1
1 -4 1 15415.2 445.481 1
1 -4 2 32111.8 983.173 4
1 4 2 33281.3 1051.18 2
1 4 3 11051.2 658.259 2
1 -4 3 11129.0 612.791 4
1 4 4 359.738 136.574 2
1 -4 5 25596.1 633.706 14
1 4 5 25210.7 631.540 11
1 4 5 25569.8 625.791 5
1 -4 5 25580.2 556.230 9
1 4 5 25088.5 554.786 9
1 -4 5 23854.2 688.470 5
1 4 5 24868.7 657.618 17
1 4 5 24488.0 590.312 15
1 4 6 130.832 54.8634 15
1 -4 6 199.192 76.9846 14
1 4 6 147.829 59.4679 11
1 -4 6 142.473 50.3877 9
1 4 6 15.4493 44.5006 9
1 -4 6 101.671 70.6698 5
1 4 6 94.7471 54.8539 17
1 -4 7 2696.56 172.008 14
1 -4 7 2605.30 141.478 9
1 4 7 2775.65 151.475 9
1 -4 7 2366.84 179.536 5
1 4 7 2644.97 171.337 17
1 4 7 2636.83 165.679 15
1 -4 8 3.26137 22.7086 5
1 4 8 -50.7065 25.7298 15
1 -5 -5 2583.92 429.549 1
1 -5 -4 129585. 3076.90 1
1 5 -3 481805. 6402.10 3
1 -5 -3 511686. 7469.98 1
1 -5 -2 217748. 3721.95 1
1 5 -2 213969. 3132.02 3
1 -5 -1 118167. 2224.41 1
1 5 -1 117130. 1958.09 3
1 -5 0 1191.42 154.711 1
1 -5 1 165417. 2487.54 1
1 -5 2 18214.3 778.850 4
1 -5 3 556.039 157.893 4
1 -5 4 4275.93 222.591 14
1 -5 5 2828.64 199.268 14
1 -5 5 2890.93 159.846 9
1 5 5 2884.42 159.900 9
1 -5 5 2354.91 204.110 5
1 5 5 2726.20 204.316 17
1 5 5 2612.97 177.636 15
1 -5 6 2263.65 176.025 14
1 5 6 2454.26 187.192 11
1 -5 6 2213.89 142.674 9
1 5 6 2492.54 152.550 9
1 -5 6 2323.24 205.689 5
1 5 6 2299.56 183.564 17
1 5 6 2289.94 171.441 15
1 5 7 1609.22 131.277 11
1 -5 7 1415.46 90.7874 9
1 5 7 1584.01 102.740 9
1 -5 7 1487.45 135.855 5
1 5 7 1283.60 117.862 17
1 5 7 1459.46 122.134 15
1 -6 -5 454.798 227.194 1
1 -6 -4 688.196 220.475 1
1 -6 -3 88722.0 2363.47 1
1 6 -3 85427.2 1689.63 3
1 -6 -2 3295.81 385.343 1
1 6 -2 3386.15 269.323 3
1 -6 -1 78616.4 1777.73 1
1 6 -1 74787.2 1547.29 3
1 -6 0 23015.3 774.994 1
1 -6 1 36195.1 941.218 1
1 -6 2 126708. 2595.40 4
1 -6 3 108.207 78.1496 4
1 -6 4 3328.25 198.605 14
1 -6 4 3312.17 225.179 5
1 6 4 2872.24 208.392 17
1 6 4 3550.81 187.055 15
1 -6 5 1284.42 139.707 14
1 6 5 1277.53 149.895 17
1 -6 5 1238.38 153.655 5
1 6 5 1358.23 128.525 15
1 -6 6 49493.0 955.444 14
1 6 6 51697.3 988.770 11
1 -6 6 49119.8 1049.03 5
1 6 6 48292.1 1002.24 17
1 6 6 49536.2 931.132 15
1 6 7 4730.92 214.876 11
1 -6 7 4667.95 224.040 5
1 6 7 4316.01 203.391 17
1 6 7 4699.20 205.406 15
1 -7 -4 14805.9 1034.73 1
1 -7 -3 27459.5 1300.08 1
1 7 -3 24928.3 869.133 3
1 -7 -2 16134.7 884.814 1
1 7 -2 15683.4 666.133 3
1 -7 -1 59698.9 1583.83 1
1 7 -1 54634.9 1375.25 3
1 -7 0 80472.2 1739.90 1
1 -7 1 37788.5 1037.56 1
1 -7 3 10741.7 739.417 4
1 -7 4 20862.7 550.969 14
1 -7 4 21799.2 626.085 5
1 7 4 21344.7 509.364 15
1 -7 5 6578.27 295.176 14
1 -7 5 6860.82 296.556 16
1 -7 5 6577.74 341.965 5
1 7 5 6555.07 332.838 17
1 7 5 6338.04 269.255 15
1 -7 6 6159.93 265.447 14
1 7 6 5286.65 262.245 11
1 -7 6 5836.94 297.044 5
1 7 6 4802.76 261.115 17
1 7 6 5100.64 230.923 15
1 7 7 698.630 76.2877 17
1 -7 7 697.054 77.9717 5
1 7 7 664.442 72.7540 15
1 -8 -4 41530.2 1808.72 1
1 -8 -3 8674.58 752.307 1
1 -8 -2 14817.5 891.749 1
1 8 -2 14240.5 695.196 3
1 -8 -1 60556.0 1691.69 1
1 8 -1 55661.6 1495.89 3
1 -8 0 94169.0 2055.94 1
1 -8 3 469.708 72.2019 14
1 -8 3 402.648 110.544 4
1 -8 3 489.956 78.2373 13
1 8 3 442.561 90.8592 10
1 -8 3 544.330 87.4276 5
1 8 3 525.413 82.1813 7
1 -8 4 19526.3 524.209 14
1 -8 4 20312.9 593.198 5
1 8 4 18198.4 482.261 7
1 8 4 19252.6 472.541 15
1 8 5 252.923 59.8411 15
1 -8 5 208.100 74.9207 14
1 -8 5 253.932 77.5050 5
1 -8 5 215.465 53.6871 16
1 8 5 131.661 61.8034 17
1 8 6 2111.14 154.942 11
1 -8 6 2320.03 167.393 5
1 8 6 2070.77 163.683 17
1 8 6 2066.39 131.723 15
1 -8 7 112.379 34.7756 5
1 8 7 88.7603 27.3064 17
1 8 7 60.0141 25.9602 15
1 -9 -3 3006.47 452.103 1
1 9 -2 1702.89 251.830 3
1 -9 -2 2163.65 363.125 1
1 -9 -1 76637.6 2052.17 1
1 -9 0 43104.5 1345.76 1
1 -9 2 751.178 192.390 4
1 -9 2 623.298 82.3616 13
1 9 2 673.325 115.017 10
1 9 2 626.636 79.0419 7
1 -9 3 11428.7 823.733 4
1 -9 3 11053.1 369.078 13
1 9 3 12218.7 454.481 10
1 -9 3 10762.2 385.165 5
1 9 3 11782.3 378.792 7
1 -9 4 193.441 68.6088 5
1 9 4 298.603 62.1382 7
1 -9 5 138.000 53.8386 16
1 9 5 66.2725 53.1146 17
1 -9 5 163.982 58.8707 5
1 9 5 44.0567 31.6127 15
1 9 6 995.961 100.540 11
1 -9 6 1065.74 102.591 5
1 9 6 811.697 94.4960 17
1 9 6 955.217 80.1744 15
1 -10 -2 4659.69 532.298 1
1 -10 -1 5200.27 222.512 13
1 10 -1 5741.54 244.862 7
1 -10 -1 4686.03 482.282 1
1 -10 0 1322.06 113.597 13
1 10 0 1477.72 130.477 7
1 -10 1 4901.33 227.505 13
1 10 1 5309.39 246.048 7
1 -10 2 823.495 224.799 4
1 -10 2 702.038 90.0605 13
1 10 2 595.219 104.759 10
1 10 2 595.041 86.4621 7
1 -10 3 56784.9 1023.91 13
1 10 3 59573.3 1158.47 10
1 -10 3 54897.5 1032.92 5
1 10 3 57846.1 1040.46 7
1 -10 4 626.478 94.2643 5
1 10 4 539.331 83.5417 7
1 -10 5 224.850 63.0091 5
1 10 5 127.715 54.0383 17
1 -10 5 186.138 46.3362 16
1 10 6 81.3613 33.1855 11
1 -10 6 42.9579 31.0197 5
1 10 6 58.9589 31.1342 17
1 -11 -2 316.764 63.8862 13
1 -11 -1 36258.3 723.290 13
1 11 -1 35912.2 750.744 7
1 -11 0 27534.2 625.193 13
1 11 0 29442.4 666.010 7
1 -11 1 9550.03 340.769 13
1 11 1 10180.4 421.273 10
1 11 1 10435.9 368.014 7
1 -11 2 118.969 55.2962 13
1 11 2 95.4073 57.4435 10
1 11 2 169.440 62.1122 7
1 11 3 17798.4 536.478 10
1 -11 3 17680.2 490.883 5
1 11 3 17692.8 490.663 7
1 -11 4 304.216 66.8307 5
1 11 4 158.817 65.3798 17
1 11 4 238.490 57.6414 7
1 -11 4 363.136 68.7030 16
1 11 5 59.7476 33.1176 11
1 -11 5 79.3724 39.0989 5
1 11 5 49.4795 42.0522 17
1 -11 5 69.2862 32.5513 16
1 -11 6 139.227 27.3267 5
1 -12 -2 138.296 43.2427 13
1 -12 -1 7218.69 275.516 13
1 12 -1 7705.05 302.604 7
1 -12 0 60722.0 1068.52 13
1 12 0 63135.4 1119.24 7
1 -12 1 11728.2 380.648 13
1 12 1 12506.3 446.664 10
1 12 1 12095.1 402.751 7
1 12 2 567.377 89.1436 7
1 -12 2 447.490 72.5033 13
1 12 2 454.102 87.6755 10
1 -12 2 458.421 73.0959 5
1 -12 3 291.814 59.9182 5
1 12 3 368.050 74.6866 7
1 -12 4 1288.39 104.999 16
1 -12 4 1089.53 97.9877 5
1 12 4 1114.79 100.799 7
1 12 4 1052.30 114.984 17
1 12 5 1566.50 90.4142 11
1 -12 5 1701.84 95.6642 5
1 -12 5 1482.94 83.9601 16
1 -13 -1 148.795 51.6486 13
1 13 -1 83.4701 42.0465 7
1 -13 0 27140.9 605.738 13
1 13 0 27434.0 662.259 10
1 -13 1 581.644 83.4551 13
1 13 1 567.915 94.8739 10
1 13 1 635.742 88.0128 7
1 13 2 3835.08 201.454 10
1 -13 2 3806.00 174.954 5
1 -13 3 1600.75 109.444 5
1 13 3 1763.68 131.433 7
1 -13 3 1837.55 124.355 16
1 13 4 608.661 58.7199 11
1 -13 4 808.287 72.4103 16
1 -13 4 715.992 63.7826 5
1 13 4 650.093 68.4496 7
1 13 4 557.707 67.6700 17
1 14 -1 -4.06962 30.9659 10
1 14 0 1864.64 130.383 10
1 14 0 2146.23 147.858 7
1 14 1 4064.28 185.169 10
1 14 1 4622.13 218.648 7
1 -14 1 4660.61 187.332 16
1 14 2 23863.2 536.675 7
1 -14 2 24731.7 504.499 16
1 14 3 335.883 54.1004 17
1 14 3 505.927 62.6678 7
1 -14 3 496.001 60.5665 16
1 -14 4 184.098 26.6999 16
1 15 0 123.703 32.5091 7
1 -15 1 17331.3 342.188 16
1 15 1 17888.9 404.465 7
1 15 2 3168.29 144.469 7
1 -15 2 3081.54 122.364 16
2 0 -1 -16.3753 23.9011 4
2 0 0 140419. 2125.21 4
2 0 1 8.37260 42.4837 4
2 0 2 15421.1 624.657 4
2 0 3 -1.93721 62.2710 4
2 0 4 22984.5 949.794 4
2 0 5 64.0864 42.7758 15
2 0 5 144.326 60.3483 11
2 0 5 -51.4720 35.5097 9
2 0 5 82.2735 53.7551 5
2 0 5 39.8925 45.9416 17
2 0 6 55682.2 1112.48 5
2 0 6 54531.8 998.514 9
2 0 6 54093.1 1011.11 17
2 0 6 53958.7 963.939 15
2 0 7 -40.4701 42.5378 9
2 0 7 -17.9578 52.3029 5
2 0 7 27.1629 29.4986 15
2 -1 -6 40213.2 1655.27 1
2 -1 -2 39395.5 626.442 4
2 1 -1 96606.7 1421.54 4
2 -1 -1 91918.4 1439.11 4
2 1 0 221000. 3093.60 4
2 -1 0 220778. 3107.52 4
2 -1 1 37241.5 939.516 4
2 1 1 37042.0 912.356 4
2 1 2 319450. 4595.79 4
2 -1 2 317392. 4670.59 4
2 -1 3 73862.2 1757.22 4
2 1 3 72567.5 1675.30 4
2 -1 4 71888.0 1875.04 4
2 -1 5 1086.56 123.321 14
2 1 5 1315.43 123.276 11
2 -1 5 1051.62 111.640 9
2 1 5 1075.27 115.209 9
2 1 5 1180.61 134.963 5
2 -1 5 1077.47 118.972 17
2 1 5 1056.48 114.593 17
2 -1 5 1050.20 134.606 5
2 -1 5 998.468 99.3380 15
2 1 5 1102.08 110.452 15
2 -1 6 40516.5 834.956 14
2 1 6 41532.3 912.509 5
2 -1 6 40414.5 922.158 5
2 -1 6 42453.8 816.171 9
2 1 6 43704.4 833.831 9
2 -1 6 40427.3 834.774 17
2 1 6 39371.3 824.751 17
2 -1 6 41554.4 772.899 15
2 1 6 40726.1 806.960 15
2 -1 7 36.1345 39.1208 9
2 1 7 13.3864 42.2715 9
2 1 7 52.3708 57.8866 5
2 -1 7 -34.2067 54.3279 5
2 -2 -6 5117.10 591.496 1
2 -2 -2 712.066 78.1997 4
2 -2 -1 269126. 3601.88 4
2 -2 0 33787.2 827.863 4
2 2 0 36217.5 819.447 4
2 2 1 394.415 101.376 4
2 -2 1 405.332 96.2709 4
2 -2 2 124093. 2332.42 4
2 2 2 121639. 2202.25 4
2 -2 3 330979. 5149.02 4
2 -2 4 15681.8 835.707 4
2 2 5 8470.05 321.789 15
2 -2 5 7950.59 332.687 14
2 2 5 8312.30 327.013 11
2 2 5 8632.84 360.055 5
2 -2 5 8458.26 377.328 5
2 -2 5 9179.18 320.494 9
2 2 5 9732.67 336.588 9
2 -2 5 8646.83 338.155 17
2 2 5 8767.15 338.930 17
2 -2 6 22193.2 583.831 14
2 2 6 22625.3 578.392 11
2 2 6 22462.7 613.784 5
2 -2 6 21881.2 641.474 5
2 -2 6 23074.4 542.944 9
2 2 6 24059.6 564.920 9
2 2 6 22325.8 566.278 17
2 2 6 21923.1 557.522 15
2 -2 7 8115.44 315.608 5
2 -2 7 8399.86 268.376 9
2 2 7 8897.07 286.063 9
2 2 7 7810.86 264.972 17
2 2 7 8096.56 275.629 15
2 -3 -5 15170.2 964.616 1
2 -3 0 108155. 1851.77 4
2 -3 0 103111. 1595.54 1
2 -3 1 38269.0 1037.59 4
2 -3 2 13142.2 650.461 4
2 -3 3 2560.89 327.088 4
2 -3 4 5353.17 250.125 14
2 3 4 5231.11 261.312 5
2 -3 4 4990.18 263.934 5
2 3 4 5381.06 235.831 15
2 -3 4 5099.87 492.612 4
2 3 5 24097.4 592.236 15
2 -3 5 24220.3 623.617 14
2 3 5 24109.0 612.359 11
2 3 5 25560.5 651.281 5
2 -3 5 24356.7 563.070 9
2 3 5 24310.0 570.927 9
2 -3 5 25231.3 693.339 5
2 3 5 24109.4 612.756 17
2 3 6 96.4988 53.4158 15
2 -3 6 136.362 63.8378 14
2 3 6 168.196 64.8203 11
2 -3 6 83.7500 39.5841 9
2 3 6 143.877 58.4747 9
2 3 6 174.082 82.5071 5
2 -3 6 219.744 81.6836 5
2 3 6 178.720 59.2485 17
2 -3 7 1994.10 154.541 5
2 -3 7 1960.34 117.375 9
2 3 7 2107.06 130.975 9
2 3 7 2004.37 124.999 17
2 3 7 2122.33 138.537 15
2 -4 -5 5962.12 625.643 1
2 -4 -4 519150. 7947.76 1
2 -4 -3 199161. 3627.77 1
2 -4 -2 5150.62 408.051 1
2 -4 -1 29355.5 860.230 1
2 -4 0 44094.0 936.593 1
2 -4 1 19630.9 754.687 4
2 -4 2 1243.93 211.886 4
2 -4 3 9848.95 670.070 4
2 -4 4 2444.53 172.850 14
2 4 4 2764.26 189.807 5
2 -4 4 2563.11 148.899 9
2 4 4 2835.14 158.927 9
2 -4 4 2623.28 195.751 5
2 -4 4 2255.60 342.548 4
2 4 4 2814.18 174.038 15
2 -4 5 113834. 1828.92 14
2 4 5 116745. 1834.71 11
2 4 5 118923. 1864.42 5
2 -4 5 116958. 1711.98 9
2 4 5 118270. 1732.72 9
2 -4 5 113595. 1923.88 5
2 4 5 116763. 1827.66 17
2 4 5 116865. 1786.97 15
2 4 6 4401.00 234.290 11
2 -4 6 4406.72 200.247 9
2 4 6 4312.81 209.188 9
2 -4 6 3962.70 250.155 5
2 4 6 4334.59 225.888 17
2 4 6 4300.81 228.209 15
2 -4 7 105.319 32.5420 9
2 4 7 138.690 40.7554 9
2 -4 7 64.8276 42.2617 5
2 4 7 112.560 42.3949 15
2 -5 -5 99107.4 2887.68 1
2 -5 -4 23889.8 1200.95 1
2 -5 -3 14696.3 834.628 1
2 -5 -2 24241.3 975.351 1
2 -5 -1 18465.1 735.858 1
2 -5 0 84057.5 1533.24 1
2 -5 1 56518.8 1468.25 4
2 -5 2 2819.99 331.217 4
2 -5 3 2595.96 359.712 4
2 -5 4 53520.7 1003.02 14
2 -5 4 50776.7 1045.06 5
2 5 4 51146.4 992.685 17
2 -5 4 50770.7 976.822 16
2 -5 4 52121.1 1816.79 4
2 5 4 52694.1 957.694 15
2 -5 5 40062.9 867.819 14
2 -5 5 41165.8 751.810 9
2 5 5 40556.1 760.818 9
2 -5 5 37536.9 915.604 5
2 5 5 40243.1 862.140 17
2 5 5 40913.1 831.874 15
2 5 6 8303.89 329.927 11
2 -5 6 8025.69 257.053 9
2 5 6 8773.66 278.943 9
2 -5 6 7647.57 342.412 5
2 5 6 7694.08 303.589 17
2 5 6 8348.45 316.746 15
2 5 7 75.2737 28.5073 9
2 -5 7 126.299 50.4479 5
2 5 7 105.678 40.0739 15
2 -6 -5 159964. 3963.51 1
2 -6 -4 13340.0 962.152 1
2 -6 -3 1393.43 275.576 1
2 -6 -2 12788.6 750.951 1
2 -6 -1 29649.3 1010.96 1
2 -6 0 48633.9 1157.98 1
2 -6 1 19841.3 871.150 4
2 -6 2 167.011 86.2325 4
2 -6 3 2889.57 416.580 4
2 -6 4 19327.7 532.935 14
2 -6 4 18064.9 518.061 16
2 -6 4 17943.5 554.969 5
2 6 4 17819.0 526.353 17
2 6 4 17314.7 482.428 15
2 -6 5 1737.20 157.597 14
2 -6 5 1866.83 180.465 5
2 6 5 1883.58 161.688 17
2 6 5 1762.70 144.492 15
2 6 6 6610.58 287.510 11
2 -6 6 6470.39 296.114 5
2 6 6 6053.78 258.490 17
2 6 6 6541.64 268.042 15
2 -6 7 1138.74 90.5943 5
2 6 7 1164.40 91.4553 15
2 -7 -4 62774.3 2262.28 1
2 -7 -3 88596.1 2548.61 1
2 -7 -2 37005.7 1397.66 1
2 -7 -1 3472.94 346.982 1
2 -7 1 22574.7 997.998 4
2 -7 2 10766.9 749.824 4
2 -7 3 3064.57 195.787 14
2 7 3 3423.74 232.893 10
2 -7 3 3026.06 199.875 5
2 7 3 3481.08 185.645 7
2 7 3 3296.07 179.138 15
2 -7 3 2844.91 407.153 4
2 -7 4 29277.7 687.585 14
2 -7 4 28483.4 726.330 5
2 7 4 28162.8 708.337 17
2 7 4 28614.1 618.434 7
2 -7 4 27593.6 678.943 16
2 7 4 27833.1 626.778 15
2 7 5 1006.47 116.959 17
2 -7 5 993.614 129.296 5
2 -7 5 866.460 98.4363 16
2 7 5 920.785 102.839 15
2 7 6 2827.66 177.219 11
2 -7 6 2951.13 181.224 5
2 7 6 2595.54 155.073 17
2 7 6 2723.98 159.656 15
2 -7 7 2263.27 106.511 5
2 7 7 2105.70 103.814 15
2 -8 -4 353.532 238.059 1
2 -8 -3 111448. 2995.57 1
2 -8 -2 9097.10 694.664 1
2 -8 -1 862.028 183.673 1
2 -8 1 32480.5 1285.57 4
2 -8 2 5760.07 572.671 4
2 -8 2 5544.53 247.072 13
2 8 2 6218.09 334.839 10
2 8 2 5798.49 240.357 7
2 8 3 659.383 80.3657 15
2 -8 3 623.832 198.123 4
2 8 3 504.718 99.3395 10
2 -8 3 534.292 88.1620 5
2 8 3 656.205 90.2897 7
2 -8 4 13396.9 462.232 5
2 8 4 13632.6 471.337 17
2 8 4 13701.3 400.543 7
2 -8 4 13262.2 438.611 16
2 8 4 13804.7 395.433 15
2 8 5 468.879 72.8497 15
2 -8 5 530.394 90.5969 5
2 8 5 349.704 68.3259 17
2 -8 5 597.376 83.7811 16
2 8 6 479.240 73.1405 11
2 -8 6 603.497 72.6963 5
2 8 6 501.414 66.6575 15
2 -9 -3 3218.39 473.943 1
2 -9 -2 5407.74 548.564 1
2 -9 -1 24661.1 1040.95 1
2 -9 0 1570.50 125.042 13
2 9 0 1863.65 132.842 7
2 -9 1 766.187 190.413 4
2 -9 1 719.614 89.9255 13
2 9 1 677.023 85.8256 7
2 -9 2 24472.5 1223.64 4
2 9 2 26079.6 740.516 10
2 9 2 24691.5 577.615 7
2 9 3 1989.79 192.482 10
2 -9 3 1979.91 157.090 5
2 9 3 1888.13 147.048 7
2 -9 3 2149.71 166.203 16
2 -9 4 3497.36 217.025 5
2 9 4 3650.82 230.992 17
2 9 4 3545.02 191.451 7
2 -9 4 3521.63 212.845 16
2 9 4 3626.59 181.578 15
2 -9 5 3373.35 175.391 16
2 -9 5 3168.67 187.741 5
2 9 5 2967.24 178.513 17
2 9 5 3210.98 161.910 15
2 9 6 6071.66 219.667 11
2 -9 6 6353.76 205.507 5
2 -10 -2 173058. 2391.97 13
2 -10 -2 173796. 3721.57 1
2 -10 -1 22535.6 546.136 13
2 10 -1 23587.7 548.284 7
2 -10 0 4315.27 217.269 13
2 10 0 4396.21 221.663 7
2 -10 1 3858.36 469.808 4
2 -10 1 3437.65 201.389 13
2 10 1 3700.05 203.974 7
2 10 2 531.038 110.812 10
2 10 2 375.861 73.5582 7
2 10 3 512.200 80.4680 7
2 10 3 635.210 114.520 10
2 -10 3 500.871 75.6177 5
2 -10 3 603.941 89.2189 16
2 -10 4 664.998 89.3397 5
2 10 4 406.968 76.6964 17
2 10 4 557.995 75.4096 7
2 -10 4 678.520 89.0129 16
2 10 5 201.204 58.1388 11
2 -10 5 284.720 54.0206 5
2 -10 5 223.517 43.1819 16
2 10 6 1318.71 80.8735 11
2 -11 -1 8983.75 322.816 13
2 11 -1 9337.95 327.816 7
2 -11 0 1048.55 113.393 13
2 11 0 1177.75 120.132 7
2 -11 1 2166.74 164.095 13
2 11 1 2230.56 215.214 10
2 11 2 821.357 131.615 10
2 11 2 716.244 91.8648 7
2 -11 2 756.530 101.126 16
2 -11 3 590.303 77.2643 5
2 11 3 424.473 71.5919 7
2 -11 3 440.873 71.8496 16
2 -11 4 993.257 92.0586 5
2 11 4 758.640 89.7641 17
2 11 4 910.821 88.9982 7
2 -11 4 1026.30 96.3430 16
2 11 5 688.223 73.8816 11
2 -11 5 670.869 60.8711 5
2 -11 5 601.205 56.8843 16
2 12 -1 5210.49 235.338 7
2 12 0 6557.86 276.288 7
2 -12 0 6681.75 261.541 16
2 12 1 23894.8 684.032 10
2 12 1 24548.1 590.389 7
2 -12 1 24249.8 571.420 16
2 12 2 889.172 122.324 10
2 12 2 980.333 108.306 7
2 -12 2 1105.39 111.784 16
2 12 3 2077.26 139.450 7
2 -12 3 2187.74 141.929 16
2 -12 4 726.121 63.4408 5
2 12 4 524.815 61.6801 7
2 -12 4 683.939 70.8492 16
2 13 -1 27261.2 584.296 7
2 13 0 10220.0 392.552 10
2 13 0 10995.9 351.094 7
2 -13 0 10679.7 312.136 16
2 13 1 3668.42 222.111 10
2 13 1 3968.71 204.339 7
2 -13 1 4062.68 193.268 16
2 13 2 6376.60 272.305 10
2 13 2 6903.99 263.050 7
2 -13 2 6918.00 254.660 16
2 13 3 868.418 81.5973 7
2 -13 3 928.979 85.6353 16
2 13 4 -6.98721 19.8580 11
2 13 4 4.58554 17.8383 7
2 -13 4 -31.3194 23.7562 16
2 14 -1 7712.89 288.054 10
2 14 0 3997.93 204.038 10
2 14 0 4291.68 190.856 7
2 14 1 1629.62 121.460 10
2 14 1 1685.67 119.139 7
2 -14 1 1708.37 107.266 16
2 -14 2 239.248 42.2581 16
2 14 2 157.579 42.5161 7
2 -14 3 215.410 35.3947 16
2 14 3 184.893 35.3295 7
2 15 -2 1816.27 91.5616 10
2 15 -1 427.515 48.5315 10
2 15 0 6675.45 200.430 10
2 15 0 6816.52 201.371 7
2 15 1 1552.06 95.6765 7
2 15 2 50.3778 21.5208 7
3 0 -2 57439.3 991.842 4
3 0 -1 55.9720 46.8864 4
3 0 0 14084.2 564.862 4
3 0 1 108.700 92.6613 4
3 0 2 360860. 5476.04 4
3 0 3 143.113 93.0657 4
3 0 4 112.534 41.0441 15
3 0 4 305.532 146.331 4
3 0 4 139.560 54.3801 9
3 0 4 222.002 63.5664 5
3 0 5 22.7251 30.1356 15
3 0 5 28.6882 36.3838 9
3 0 5 82.9112 67.5343 5
3 0 6 10187.7 385.290 5
3 0 6 10064.9 341.934 9
3 0 6 9798.69 302.536 15
3 0 7 -0.35077 27.2199 9
3 -1 -2 40473.8 818.476 4
3 1 -1 4137.70 262.905 4
3 -1 -1 4148.52 271.054 4
3 1 0 27630.0 815.096 4
3 -1 0 25494.0 808.801 4
3 1 1 391505. 5587.50 4
3 -1 1 391056. 5628.78 4
3 -1 2 25180.9 984.619 4
3 1 2 25353.2 954.776 4
3 1 3 13407.8 748.652 4
3 -1 3 13999.1 804.354 4
3 1 4 5778.28 246.782 11
3 1 4 6687.81 307.744 5
3 -1 4 6223.47 298.793 5
3 -1 4 5880.76 255.626 9
3 1 4 6104.52 263.819 9
3 -1 4 6153.66 577.650 4
3 1 4 6518.24 266.489 15
3 1 5 2921.43 179.305 11
3 1 5 2893.45 214.929 5
3 -1 5 2991.79 220.041 5
3 -1 5 3086.82 190.130 9
3 1 5 3207.37 193.019 9
3 -1 5 3264.56 171.272 15
3 1 5 2947.82 181.516 15
3 1 6 2212.25 178.054 5
3 -1 6 2057.50 174.445 5
3 -1 6 2192.01 149.597 9
3 1 6 2460.88 161.930 9
3 1 6 2235.73 146.851 15
3 -1 7 1050.69 82.6684 9
3 1 7 1039.03 84.9405 9
3 -2 -2 102978. 1698.24 4
3 -2 -1 5350.40 320.030 4
3 -2 0 1415.62 189.230 4
3 2 0 1880.53 208.341 4
3 2 1 1139.60 187.606 4
3 -2 1 1378.63 217.764 4
3 2 2 39313.8 1215.65 4
3 -2 2 39352.9 1303.08 4
3 -2 3 4959.75 497.699 4
3 2 4 15039.3 429.872 11
3 2 4 15922.2 492.620 5
3 -2 4 15335.3 489.802 5
3 -2 4 15297.4 428.391 9
3 2 4 15280.7 442.089 9
3 -2 4 15189.0 933.585 4
3 2 4 15839.7 453.758 15
3 2 5 4674.93 231.151 11
3 2 5 4836.51 273.450 5
3 -2 5 4518.42 274.349 5
3 -2 5 4789.59 231.618 9
3 2 5 4912.37 245.141 9
3 2 5 4880.99 239.608 15
3 -2 6 2462.52 186.599 5
3 -2 6 2569.70 155.786 9
3 2 6 2747.88 168.206 9
3 2 6 2735.26 164.532 15
3 -2 7 4331.00 188.333 5
3 -2 7 4567.73 162.625 9
3 2 7 4556.29 174.788 9
3 2 7 4237.01 157.633 15
3 -3 -2 12679.3 490.060 4
3 -3 -1 29374.2 851.358 4
3 -3 0 330279. 4811.14 4
3 -3 1 135276. 2615.95 4
3 -3 2 1920.80 289.096 4
3 -3 3 10988.3 753.294 4
3 3 4 34446.8 786.250 5
3 -3 4 33026.2 779.010 5
3 -3 4 32798.8 677.125 9
3 3 4 33609.9 704.863 9
3 -3 4 34692.1 1480.94 4
3 3 4 34022.1 738.490 15
3 3 5 896.759 107.607 11
3 -3 5 936.119 100.013 9
3 3 5 904.692 106.554 9
3 3 5 1055.73 134.996 5
3 -3 5 938.674 129.821 5
3 3 5 1015.44 111.514 15
3 3 6 1445.86 118.615 11
3 -3 6 1370.41 137.740 5
3 -3 6 1379.46 107.155 9
3 3 6 1383.32 114.896 9
3 3 6 1375.67 123.189 15
3 -3 7 7738.77 242.647 5
3 3 7 7896.60 215.600 9
3 3 7 7186.45 215.371 15
3 -4 -5 1678.33 327.965 1
3 -4 -2 10828.0 490.939 4
3 -4 -1 656.920 127.631 1
3 -4 -1 687.564 136.306 4
3 -4 0 188581. 3195.79 4
3 -4 1 45495.6 1363.88 4
3 -4 2 10165.1 684.894 4
3 -4 3 2412.47 379.762 4
3 4 3 1986.64 152.499 15
3 -4 4 47476.3 990.415 5
3 -4 4 47145.5 854.020 9
3 4 4 49023.2 885.447 9
3 -4 4 47443.6 1819.25 4
3 4 4 49306.9 950.842 15
3 4 5 117.700 53.2637 15
3 4 5 116.256 48.9346 11
3 -4 5 179.304 49.8711 9
3 4 5 176.122 55.9371 9
3 -4 5 240.291 76.7333 5
3 4 6 79.1957 45.8019 15
3 4 6 134.649 45.3605 11
3 -4 6 147.275 44.0807 9
3 4 6 224.393 51.2053 9
3 -4 6 98.3871 51.9162 5
3 -4 7 157.343 39.7484 5
3 4 7 179.161 37.7010 15
3 -5 -5 6386.99 675.532 1
3 -5 -4 44905.5 1696.89 1
3 -5 -3 18538.7 965.394 1
3 -5 -2 25494.7 847.460 4
3 -5 -2 23317.9 960.007 1
3 -5 -1 88363.2 1865.86 4
3 -5 -1 86012.4 1816.01 1
3 -5 0 3853.37 355.138 4
3 -5 1 9584.77 624.876 4
3 -5 2 10950.9 745.813 4
3 -5 3 48351.2 943.203 5
3 -5 3 48477.2 936.889 16
3 5 3 48071.4 863.028 7
3 -5 3 48107.2 1799.22 4
3 5 3 48059.8 927.276 15
3 -5 4 28070.1 707.915 5
3 -5 4 27918.0 578.190 9
3 5 4 28602.3 598.621 9
3 -5 4 27542.7 664.597 16
3 5 4 28582.1 665.390 15
3 5 5 370.574 71.8655 15
3 5 5 194.589 59.2875 11
3 -5 5 266.365 50.9350 9
3 5 5 210.338 48.3843 9
3 -5 5 278.574 75.5943 5
3 5 6 1874.99 132.576 11
3 -5 6 2000.50 148.050 5
3 -5 6 1755.31 99.7026 9
3 5 6 1969.78 114.647 9
3 5 6 1915.79 137.757 15
3 -5 7 221.851 32.5370 5
3 5 7 171.543 34.1145 15
3 -6 -4 7565.71 724.671 1
3 -6 -3 3497.65 429.191 1
3 -6 -2 4979.74 467.643 1
3 -6 -2 5198.11 395.434 4
3 -6 -1 47194.1 1342.29 4
3 -6 -1 44013.1 1261.50 1
3 -6 0 724.221 171.831 4
3 -6 1 29387.0 1193.64 4
3 -6 2 9019.21 707.921 4
3 6 3 88483.6 1497.30 10
3 -6 3 84507.0 1409.96 5
3 6 3 84646.3 1327.63 7
3 -6 3 82793.4 1414.25 16
3 -6 3 82189.5 2519.86 4
3 6 3 82362.2 1379.55 15
3 -6 4 1247.47 137.461 5
3 -6 4 1004.64 121.455 16
3 6 4 1255.43 126.421 15
3 6 5 3032.57 199.580 11
3 -6 5 3395.44 213.144 5
3 6 5 3079.89 188.424 15
3 6 6 319.160 60.5937 15
3 6 6 333.211 61.1095 11
3 -6 6 413.818 69.9299 5
3 -7 -4 10403.9 900.150 1
3 -7 -3 1346.61 279.021 1
3 -7 -2 177.698 89.6480 1
3 -7 -1 17746.4 844.052 4
3 -7 0 621.227 179.787 4
3 -7 1 91.1151 96.6781 4
3 7 2 620.578 81.1191 15
3 -7 2 375.101 166.305 4
3 7 2 768.696 115.070 10
3 -7 2 643.618 90.3558 16
3 7 2 659.698 81.9520 7
3 7 3 43575.8 963.384 10
3 -7 3 42463.0 859.164 5
3 7 3 40241.9 801.655 7
3 -7 3 40513.2 875.324 16
3 -7 3 40889.9 1744.99 4
3 7 3 41026.6 824.509 15
3 -7 4 11970.5 416.646 5
3 7 4 11717.6 360.068 7
3 -7 4 11339.5 399.300 16
3 7 4 11212.6 379.663 15
3 7 5 3454.31 208.544 11
3 -7 5 3037.11 168.869 16
3 -7 5 3262.29 194.944 5
3 7 5 3543.35 190.412 15
3 7 6 5784.90 218.379 11
3 -7 6 6303.66 213.219 5
3 7 6 6170.37 217.863 15
3 -8 -3 60736.3 2113.66 1
3 -8 -2 26931.7 1178.74 1
3 -8 -1 1279.81 239.074 4
3 -8 0 10683.2 725.271 4
3 8 0 11536.4 347.241 7
3 -8 1 3149.69 419.631 4
3 8 1 3578.07 188.313 7
3 -8 1 3453.81 200.800 16
3 8 2 6668.01 361.168 10
3 8 2 6499.78 268.617 7
3 -8 2 6537.08 293.854 16
3 8 2 5946.27 249.976 15
3 -8 2 6636.74 648.346 4
3 8 3 336.471 64.1599 15
3 8 3 288.949 91.7642 10
3 -8 3 291.525 67.0432 5
3 -8 3 238.151 79.4094 16
3 8 3 178.729 50.0464 7
3 8 4 740.661 87.3924 15
3 -8 4 778.723 97.4542 5
3 -8 4 717.533 97.1370 16
3 8 4 680.235 84.0571 7
3 8 5 33574.2 726.142 11
3 -8 5 34896.3 676.198 5
3 -8 5 33445.7 644.230 16
3 8 5 34522.1 658.179 15
3 8 6 117.832 35.1577 11
3 -8 6 205.013 34.2814 5
3 8 6 117.345 30.1180 15
3 -9 -3 12666.3 911.063 1
3 -9 -2 2650.99 340.404 4
3 -9 -1 2625.37 356.214 4
3 9 -1 2574.15 159.689 7
3 -9 0 3690.57 438.652 4
3 9 0 4378.79 214.497 7
3 -9 0 4095.02 216.449 16
3 -9 1 2132.61 371.333 4
3 9 1 2127.96 152.869 7
3 -9 1 1963.78 155.095 16
3 9 2 43635.6 1044.01 10
3 9 2 42622.4 845.716 7
3 -9 2 43244.8 890.270 16
3 9 3 7788.44 377.837 10
3 9 3 7549.44 297.243 7
3 -9 3 8046.94 331.052 16
3 9 3 8273.35 282.890 15
3 -9 4 2321.17 149.869 5
3 9 4 2062.12 137.216 7
3 -9 4 2115.69 153.969 16
3 9 4 2006.96 129.943 15
3 9 5 5976.90 246.019 11
3 -9 5 6436.56 211.393 5
3 -9 5 5867.58 201.097 16
3 9 5 6093.87 204.283 15
3 10 -1 597.283 82.2075 7
3 10 0 1634.31 137.270 7
3 -10 0 1762.10 141.838 16
3 10 1 632.846 126.067 10
3 -10 1 661.713 93.1136 16
3 10 1 806.582 102.638 7
3 10 2 14803.3 555.194 10
3 10 2 14367.5 427.796 7
3 -10 2 14932.9 458.300 16
3 -10 3 620.490 91.6844 16
3 10 3 359.977 69.2728 7
3 10 4 2105.59 131.098 7
3 -10 4 2116.66 138.716 16
3 10 4 2249.23 117.300 15
3 10 5 308.511 56.5887 11
3 -10 5 267.027 36.9127 16
3 11 -1 1073.44 103.708 7
3 -11 0 601.899 85.9879 16
3 11 0 560.982 84.5186 7
3 11 1 3146.57 253.843 10
3 -11 1 3528.83 200.578 16
3 11 1 3287.30 193.863 7
3 11 2 828.484 122.863 10
3 -11 2 667.902 93.1367 16
3 11 2 711.181 90.4316 7
3 11 3 631.469 81.6530 7
3 -11 3 683.711 87.0799 16
3 11 4 2928.26 140.122 7
3 -11 4 3001.34 145.453 16
3 11 5 2498.07 104.851 11
3 12 -1 2564.17 155.066 7
3 12 0 4246.01 211.867 7
3 -12 0 4459.60 205.545 16
3 12 1 869.371 127.253 10
3 12 1 966.289 106.315 7
3 -12 1 819.602 93.4577 16
3 12 2 16.2938 53.4944 10
3 12 2 25.8448 34.4027 7
3 -12 2 28.2536 43.0024 16
3 12 3 130.650 41.5171 7
3 -12 3 177.840 47.0469 16
3 12 4 1430.57 81.1089 7
3 -12 4 1575.10 86.7946 16
3 13 -1 238.993 50.4576 7
3 13 0 1537.15 150.052 10
3 13 0 1573.09 118.528 7
3 -13 0 1545.08 104.500 16
3 13 1 142.004 58.7952 10
3 13 1 168.672 47.8210 7
3 -13 1 158.942 42.9581 16
3 13 2 340.820 58.5087 7
3 -13 2 240.392 49.5349 16
3 13 3 101.321 33.6896 7
3 -13 3 98.8930 29.9486 16
3 14 -1 7703.77 280.646 10
3 14 0 353.795 63.3052 10
3 14 0 356.005 52.5005 7
3 14 1 726.755 77.3408 10
3 14 1 846.236 75.1448 7
3 -14 1 809.361 64.9216 16
3 14 2 117.444 29.1917 7
3 -14 2 145.796 30.0778 16
3 15 -1 907.126 66.4852 10
3 15 0 667.622 56.3803 10
4 0 -1 157.551 66.5726 4
4 0 0 61362.0 1541.89 4
4 0 1 -3.10318 57.6014 4
4 0 2 26291.0 1142.08 4
4 0 3 21.1514 29.0672 15
4 0 3 -37.6720 54.5977 5
4 0 4 468.168 73.7933 15
4 0 4 316.032 72.0901 5
4 0 5 -0.07623 31.1689 15
4 0 5 46.4257 49.1150 9
4 0 6 1156.45 102.047 9
4 -1 -1 32867.3 992.101 4
4 1 -1 33810.4 977.969 4
4 1 0 29307.0 1003.40 4
4 -1 0 29976.2 1033.00 4
4 1 1 15755.8 781.777 4
4 -1 1 16273.2 817.655 4
4 1 2 828.218 214.456 4
4 -1 2 742.877 194.045 4
4 1 3 6068.42 291.435 5
4 -1 3 6615.09 291.451 5
4 -1 3 6330.07 264.914 16
4 1 3 7282.91 625.991 4
4 -1 3 6825.76 635.284 4
4 1 3 6624.31 284.132 15
4 1 4 5292.45 285.821 5
4 -1 4 5204.43 281.013 5
4 -1 4 5293.22 257.619 9
4 1 4 5165.25 261.082 9
4 1 4 4945.92 239.605 15
4 1 5 10494.0 388.532 5
4 -1 5 10189.9 380.500 5
4 -1 5 11129.7 359.700 9
4 1 5 11383.6 371.183 9
4 1 5 10400.4 332.272 15
4 -1 6 371.489 58.5890 9
4 1 6 393.786 59.6008 9
4 1 6 327.836 47.4018 15
4 -2 -2 492.049 114.291 4
4 -2 -1 64528.6 1536.24 4
4 2 0 59527.9 1508.64 4
4 -2 0 57384.0 1546.95 4
4 2 1 3908.97 388.231 4
4 -2 1 3782.09 395.230 4
4 2 2 25670.0 1109.20 4
4 -2 2 26939.8 1201.25 4
4 2 3 707.564 99.7327 15
4 -2 3 446.698 181.843 4
4 2 3 724.167 114.039 5
4 -2 3 650.543 97.1965 5
4 -2 3 583.078 84.4276 16
4 2 4 9712.80 388.697 5
4 -2 4 9422.19 375.583 5
4 -2 4 9844.35 345.898 9
4 2 4 9452.38 359.704 9
4 2 4 10289.7 365.138 15
4 -2 5 3510.14 216.029 5
4 -2 5 3511.54 191.679 9
4 2 5 3890.32 210.563 9
4 2 5 3711.15 197.496 15
4 -2 6 1033.14 100.978 5
4 -2 6 1215.32 93.7821 9
4 2 6 1249.45 100.688 9
4 2 6 1212.96 92.3262 15
4 -3 -2 17632.7 688.719 4
4 -3 -1 10793.0 581.812 4
4 -3 0 18599.1 848.928 4
4 -3 1 797.461 191.341 4
4 -3 2 940.080 242.369 4
4 -3 3 10402.5 367.187 16
4 -3 3 10372.1 372.086 5
4 3 3 10567.6 343.842 7
4 -3 3 11446.6 862.856 4
4 3 3 10790.6 391.235 15
4 3 4 718.887 101.120 15
4 3 4 603.303 83.3073 11
4 -3 4 672.302 87.6830 9
4 3 4 634.000 93.6579 9
4 -3 4 506.255 90.3111 5
4 3 5 144.476 49.2075 15
4 3 5 64.6554 38.3803 11
4 -3 5 42.4452 30.2528 9
4 3 5 123.496 43.7221 9
4 3 6 334.835 53.8426 15
4 -3 6 327.321 47.2992 9
4 3 6 342.556 56.9827 9
4 -3 6 298.419 62.1480 5
4 -4 -5 2604.60 419.600 1
4 -4 -2 23821.8 865.617 4
4 -4 -1 3433.21 338.912 4
4 -4 0 22129.2 958.896 4
4 -4 1 7798.19 618.576 4
4 4 2 48921.3 892.055 7
4 -4 2 52186.9 1814.60 4
4 -4 2 50038.7 956.134 16
4 4 3 796.955 94.3488 7
4 4 3 623.531 93.4548 15
4 -4 3 702.110 232.951 4
4 -4 3 875.888 111.821 16
4 4 4 6812.18 283.060 11
4 -4 4 7040.48 307.513 5
4 -4 4 6422.38 255.639 9
4 4 4 7061.08 285.244 9
4 -4 4 6677.82 288.137 16
4 4 4 7152.85 312.750 15
4 4 5 453.204 78.5826 15
4 4 5 275.984 53.8815 11
4 -4 5 385.765 60.0721 9
4 4 5 359.390 61.2477 9
4 -4 5 407.321 76.3955 5
4 -4 6 118.876 28.2287 9
4 4 6 74.3716 28.1697 9
4 -4 6 18.0372 28.5067 5
4 4 6 91.6265 36.8669 15
4 -5 -4 630.297 219.118 1
4 -5 -3 2986.94 386.826 1
4 -5 -2 83303.2 2036.01 1
4 -5 -2 87847.2 1947.40 4
4 -5 -1 94801.3 2166.76 4
4 -5 0 6068.89 509.041 4
4 -5 1 1620.60 301.220 4
4 5 2 2706.91 191.867 10
4 -5 2 2880.05 187.508 16
4 -5 2 2862.40 425.465 4
4 5 2 2724.06 171.469 7
4 5 3 5350.09 243.780 7
4 -5 3 4703.49 251.482 16
4 5 3 5521.74 277.329 15
4 -5 4 3545.66 212.008 5
4 -5 4 3752.16 178.273 9
4 5 4 4004.19 193.808 9
4 -5 4 3370.36 202.731 16
4 5 4 3728.31 224.352 15
4 5 5 6463.08 248.359 11
4 -5 5 6590.88 264.128 5
4 -5 5 6117.22 203.467 9
4 5 5 6837.10 232.317 9
4 5 5 6909.57 274.143 15
4 -5 6 692.472 61.2791 5
4 5 6 773.911 74.3521 15
4 -6 -4 6044.80 642.599 1
4 -6 -3 3746.40 461.841 1
4 -6 -2 11870.0 675.301 4
4 -6 -1 24487.2 1036.81 4
4 -6 0 559.330 172.515 4
4 6 1 20723.0 613.596 10
4 6 1 20175.2 494.102 7
4 -6 1 20399.9 540.342 16
4 -6 1 19198.8 1050.29 4
4 6 2 7369.98 338.571 10
4 6 2 6762.07 279.389 7
4 -6 2 6978.93 306.325 16
4 -6 2 7453.39 702.622 4
4 6 3 18267.8 481.386 7
4 -6 3 17572.0 519.408 16
4 6 3 17908.7 522.555 15
4 -6 4 9046.70 320.816 5
4 6 4 8940.91 296.889 7
4 -6 4 8409.03 326.479 16
4 6 4 9117.12 341.892 15
4 6 5 246.930 61.0624 15
4 6 5 279.747 52.9997 11
4 6 6 36.0160 21.9722 15
4 -7 -3 3542.09 460.740 1
4 -7 -1 158.506 131.742 4
4 7 -1 162.191 45.5435 7
4 -7 0 3886.55 450.883 4
4 7 0 3755.34 194.774 7
4 -7 0 3973.51 217.420 16
4 7 1 28778.5 783.687 10
4 7 1 29163.1 638.171 7
4 -7 1 29024.1 686.275 16
4 -7 1 29681.5 1359.81 4
4 7 2 5287.69 306.576 10
4 7 2 5354.52 245.772 7
4 -7 2 5352.30 269.918 16
4 7 2 4688.06 247.066 15
4 7 3 20659.4 521.457 7
4 -7 3 21075.6 569.342 16
4 7 3 19970.0 543.510 15
4 7 4 162.387 48.1655 15
4 -7 4 205.733 50.1258 16
4 7 4 101.974 35.6593 7
4 7 5 36.5360 29.3762 15
4 7 5 45.6153 32.0766 11
4 -7 5 70.4438 28.8284 5
4 -8 -1 12519.4 809.151 4
4 8 -1 13136.5 381.172 7
4 -8 -1 12922.7 404.480 16
4 8 0 5558.40 248.436 7
4 -8 0 5097.49 532.814 4
4 -8 0 5723.88 268.513 16
4 8 1 42525.7 1031.33 10
4 8 1 43459.8 847.687 7
4 -8 1 44304.7 902.746 16
4 8 2 10013.1 435.688 10
4 8 2 11398.7 368.631 7
4 -8 2 11034.3 399.010 16
4 8 2 10569.4 361.288 15
4 8 3 472.248 76.1034 15
4 -8 3 419.179 83.3049 16
4 8 3 463.679 75.2637 7
4 8 4 9847.89 300.206 7
4 -8 4 9700.21 323.715 16
4 8 4 10751.4 322.608 15
4 8 5 83.5294 33.7264 15
4 8 5 23.4284 26.8223 11
4 -9 -1 1226.41 115.755 16
4 9 -1 1012.74 105.109 7
4 9 0 1097.72 113.811 7
4 -9 0 889.572 109.705 16
4 9 1 9780.13 452.717 10
4 9 1 10480.6 353.004 7
4 -9 1 10145.6 371.730 16
4 9 1 10026.2 322.768 15
4 9 2 1279.30 155.140 10
4 9 2 1379.35 125.449 7
4 -9 2 1338.43 129.696 16
4 9 2 1609.16 124.789 15
4 9 3 175.112 50.4776 15
4 -9 3 222.192 65.9259 16
4 9 3 226.477 49.9250 7
4 9 4 1621.90 106.084 7
4 -9 4 1502.81 113.217 16
4 9 4 1540.80 101.735 15
4 9 5 888.808 65.8915 11
4 10 -1 2036.42 145.180 7
4 10 0 11590.5 372.095 7
4 -10 0 11510.5 377.205 16
4 10 1 663.136 121.765 10
4 -10 1 868.012 108.363 16
4 10 1 626.545 87.2790 7
4 10 2 112.806 60.2396 10
4 -10 2 244.658 67.7457 16
4 10 2 157.767 52.3242 7
4 10 3 5735.89 231.411 7
4 -10 3 5851.84 239.770 16
4 10 3 6336.79 203.580 15
4 10 4 4442.64 160.572 7
4 -10 4 4731.77 174.918 16
4 10 4 4646.36 145.333 15
4 11 -1 5174.14 222.389 7
4 11 0 21395.9 655.469 10
4 11 0 21971.9 527.918 7
4 -11 0 22192.8 523.249 16
4 11 1 2018.71 181.939 10
4 11 1 1800.37 135.726 7
4 -11 1 1872.35 140.039 16
4 11 2 6163.13 287.627 10
4 11 2 6539.91 250.582 7
4 -11 2 6666.53 255.484 16
4 11 3 1216.85 95.2481 7
4 -11 3 1297.27 97.8162 16
4 11 4 183.624 35.1561 11
4 -11 4 170.939 29.8584 16
4 12 -1 425.859 63.0989 7
4 12 0 6011.33 301.797 10
4 12 0 6224.59 239.780 7
4 -12 0 6106.64 224.324 16
4 12 1 5186.68 259.458 10
4 12 1 5222.85 215.108 7
4 -12 1 4987.01 207.807 16
4 12 2 3461.96 161.813 7
4 -12 2 3391.23 159.978 16
4 12 3 1173.05 77.9686 7
4 -12 3 1175.84 77.9022 16
4 13 -1 150.577 60.3681 10
4 13 0 221.835 54.9716 10
4 13 0 152.824 38.9835 7
4 13 1 858.828 87.5213 10
4 -13 1 891.536 72.6813 16
4 13 1 916.185 77.4727 7
4 13 2 2430.70 113.655 7
4 -13 2 2213.70 102.998 16
4 14 -3 621.995 60.3653 10
4 14 -2 1763.77 110.385 10
4 14 -1 86.8998 28.9459 10
4 14 0 130.757 37.2155 10
4 14 0 174.416 30.4309 7
4 14 1 196.044 30.3352 7
5 0 -1 -12.4001 62.2201 4
5 0 0 26872.4 1107.11 4
5 0 1 125.024 127.915 4
5 0 1 56.9279 41.2532 16
5 0 2 5150.01 250.645 16
5 0 2 6085.88 601.230 4
5 0 3 15.2868 31.8187 15
5 0 3 48.0572 51.2741 5
5 0 3 -27.8663 45.8437 16
5 0 4 474.811 67.2350 15
5 0 4 421.920 81.1452 9
5 0 5 27.5216 32.1653 9
5 0 6 71.0723 25.5034 9
5 1 -1 8422.21 545.992 4
5 -1 -1 8044.16 553.379 4
5 1 0 7341.12 552.794 4
5 -1 0 7418.07 573.818 4
5 1 1 490.769 172.445 4
5 -1 1 638.893 216.963 4
5 1 1 795.510 94.8758 16
5 -1 1 697.476 87.6489 16
5 1 2 10926.9 366.781 16
5 -1 2 11117.3 378.579 16
5 1 2 11828.6 815.112 4
5 -1 2 12525.7 870.169 4
5 -1 3 4057.90 234.696 5
5 -1 3 4120.76 220.837 16
5 1 3 4297.25 232.496 15
5 1 4 128.902 41.6248 15
5 -1 4 88.7447 50.4540 9
5 1 4 85.7791 56.2804 9
5 -1 4 180.826 64.8500 5
5 1 5 24.2861 24.1325 15
5 -1 5 51.8832 35.5658 9
5 1 5 -23.4261 31.7618 9
5 -1 6 24.3802 17.9575 9
5 1 6 22.6371 20.3977 9
5 -2 -1 259.151 116.983 4
5 -2 0 437.957 137.960 4
5 2 1 10430.5 349.970 16
5 -2 1 10075.9 358.533 16
5 -2 1 9869.08 736.994 4
5 2 2 4233.92 219.742 16
5 -2 2 4418.69 235.237 16
5 -2 2 4572.12 531.244 4
5 2 3 241.574 56.7585 15
5 -2 3 204.524 60.9046 16
5 2 3 325.537 68.6432 7
5 2 4 77.7041 41.1018 15
5 -2 4 193.825 55.8376 9
5 2 4 159.630 56.9525 9
5 -2 4 187.478 60.8179 5
5 2 5 241.198 46.8657 15
5 -2 5 302.439 51.6897 9
5 2 5 274.741 50.3805 9
5 -3 -1 891.090 207.105 4
5 -3 0 5222.01 505.092 4
5 3 1 12789.3 397.273 16
5 -3 1 13039.3 418.697 16
5 -3 1 12865.9 855.221 4
5 -3 2 19626.8 545.257 16
5 3 2 19742.7 506.279 16
5 3 2 19728.3 519.556 7
5 -3 2 20901.7 1169.51 4
5 -3 3 3869.36 221.068 16
5 3 3 3855.13 209.211 7
5 3 3 4243.65 246.627 15
5 3 4 235.137 63.3349 15
5 -3 4 197.177 52.4070 9
5 3 4 193.114 54.6552 9
5 -3 4 249.109 60.8910 5
5 3 5 42.2714 29.7189 15
5 -3 5 -28.5495 25.8478 9
5 3 5 43.4665 31.3599 9
5 -4 -4 24.3820 82.2315 1
5 4 -1 8337.90 314.628 16
5 -4 -1 7853.57 591.843 4
5 -4 0 19429.9 526.810 16
5 -4 0 18952.7 1001.56 4
5 4 0 18973.2 502.481 16
5 4 1 29777.7 668.617 16
5 -4 1 30782.1 705.680 16
5 4 1 29929.0 662.018 7
5 -4 1 29922.0 1353.22 4
5 4 2 102.672 47.8352 16
5 -4 2 54.9615 50.6477 16
5 4 2 68.4868 44.5055 7
5 -4 3 6661.07 292.955 16
5 4 3 7092.08 285.392 7
5 4 3 6687.38 313.971 15
5 4 4 85.1143 42.1976 15
5 -4 4 135.409 39.9272 9
5 4 4 162.747 50.1087 9
5 -4 4 76.1610 34.6958 16
5 4 5 94.6964 34.5883 15
5 -4 5 92.8031 26.8438 9
5 4 5 96.9816 30.8393 9
5 5 -2 3491.93 180.948 7
5 -5 -1 3582.79 208.781 16
5 5 -1 3409.47 184.401 7
5 -5 -1 3647.21 422.820 4
5 -5 0 1839.57 315.044 4
5 5 0 1954.69 155.398 16
5 -5 0 2019.17 162.698 16
5 5 0 1890.20 143.733 7
5 -5 1 2548.50 386.615 4
5 5 1 2528.64 173.519 16
5 -5 1 2652.17 189.472 16
5 5 1 2728.74 177.856 7
5 -5 2 2172.21 174.022 16
5 5 2 2351.13 165.826 7
5 5 3 275.207 75.2105 15
5 -5 3 148.610 39.9212 9
5 5 3 336.971 66.5530 9
5 -5 3 255.173 66.7676 16
5 5 3 242.612 54.8643 7
5 5 4 164.755 56.1018 15
5 -5 4 170.042 35.4342 9
5 5 4 181.328 41.5514 9
5 -5 4 127.249 42.4861 16
5 5 5 33.2139 30.1610 15
5 6 -2 4384.90 208.929 7
5 -6 -1 120.179 49.9970 16
5 6 -1 112.342 43.4681 7
5 6 0 7132.38 287.830 7
5 -6 0 7309.18 315.075 16
5 -6 0 6435.16 606.176 4
5 6 1 1342.39 142.709 10
5 -6 1 1415.93 141.189 16
5 6 1 1386.21 130.695 7
5 -6 2 15507.2 478.333 16
5 6 2 15875.1 451.996 7
5 6 2 15235.4 488.013 15
5 6 3 1963.56 141.293 7
5 -6 3 1601.01 142.683 16
5 6 3 1908.82 160.140 15
5 6 4 -23.6225 42.1349 15
5 -6 4 -10.1385 32.6307 16
5 6 5 605.900 63.8733 15
5 7 -2 2879.37 169.558 7
5 -7 -1 18.7661 42.6605 16
5 7 -1 -22.9589 39.5243 7
5 -7 0 530.882 92.1333 16
5 7 0 467.420 77.7796 7
5 7 1 1404.64 149.703 10
5 7 1 1527.54 137.590 7
5 -7 1 1166.14 127.992 16
5 7 2 11429.4 369.728 7
5 -7 2 10659.6 388.422 16
5 7 2 10603.4 382.500 15
5 7 3 265.000 61.5552 15
5 -7 3 123.516 43.4291 16
5 7 3 166.850 49.9816 7
5 7 4 3104.76 143.562 11
5 -7 4 3000.60 151.414 16
5 7 4 3459.33 168.223 15
5 7 5 250.900 36.8102 15
5 8 -1 5955.22 255.788 7
5 -8 -1 6118.82 269.913 16
5 8 0 1294.90 161.468 10
5 8 0 1342.80 123.680 7
5 -8 0 1439.69 136.711 16
5 8 1 1101.90 137.849 10
5 8 1 1319.91 122.322 7
5 -8 1 1056.57 118.838 16
5 8 2 726.225 96.5667 15
5 -8 2 618.086 99.1696 16
5 8 2 568.957 84.1097 7
5 8 3 132.171 46.9408 15
5 -8 3 104.613 37.1207 16
5 8 3 138.130 46.1749 7
5 8 4 302.749 46.1815 15
5 8 4 260.177 39.3282 11
5 -8 4 280.486 41.7729 16
5 9 -1 25731.6 576.917 7
5 -9 -1 25277.6 583.362 16
5 9 0 903.433 131.800 10
5 9 0 1011.76 107.487 7
5 -9 0 1036.47 114.652 16
5 9 1 5878.97 253.603 7
5 -9 1 6048.18 265.912 16
5 9 1 5475.39 229.872 15
5 9 2 66.8392 37.8403 15
5 -9 2 69.8914 42.1324 16
5 9 2 82.3346 47.5244 7
5 9 3 2259.79 129.833 7
5 -9 3 2261.47 134.283 16
5 9 3 2479.76 126.214 15
5 -9 4 370.925 39.9128 16
5 9 4 413.389 43.3651 15
5 10 -1 2393.94 150.520 7
5 10 0 10811.0 336.406 7
5 -10 0 10314.2 337.744 16
5 10 1 -0.11541 42.7042 10
5 -10 1 -39.7862 35.0261 16
5 10 1 56.2522 36.5119 7
5 10 2 158.235 37.0090 15
5 -10 2 128.028 40.9147 16
5 10 2 117.497 41.5511 7
5 10 3 5755.26 188.706 7
5 -10 3 5752.87 192.856 16
5 10 3 5566.62 153.341 15
5 11 -1 2037.09 169.601 10
5 11 -1 2185.90 134.196 7
5 11 0 322.835 71.2335 10
5 -11 0 244.158 51.1630 16
5 11 0 234.205 51.9117 7
5 11 1 79.8410 47.9911 10
5 -11 1 119.011 40.1814 16
5 11 1 121.543 42.8158 7
5 11 2 1016.08 82.8794 7
5 -11 2 811.680 76.5181 16
5 -11 3 100.087 23.5612 16
5 12 -1 115.475 49.2486 10
5 12 -1 144.275 34.0354 7
5 12 0 1741.20 128.568 10
5 12 0 1874.55 111.634 7
5 -12 0 1655.58 95.0996 16
5 -12 1 115.493 30.2271 16
5 12 1 166.504 37.8426 7
5 12 2 969.924 66.4534 7
5 -12 2 996.029 63.1241 16
5 13 -3 156.484 36.4034 10
5 13 -2 5490.18 198.526 10
5 13 -1 2196.62 121.521 10
5 13 0 72.9618 29.4540 10
5 13 0 126.611 27.8679 7
6 0 -3 -8.79706 37.9189 16
6 0 -2 1004.23 117.646 16
6 0 -1 24.3124 39.0063 16
6 0 0 10567.0 380.385 16
6 0 0 10084.9 724.257 4
6 0 1 3.99882 45.0547 16
6 0 2 106.164 44.3431 15
6 0 2 153.367 51.7273 16
6 0 3 2.76381 29.4660 15
6 0 3 46.1638 36.9208 16
6 0 4 58.8672 38.3789 9
6 0 5 -10.7455 17.0587 9
6 1 -3 2932.38 193.855 16
6 1 -2 1284.97 130.368 16
6 -1 -2 1371.47 134.431 16
6 1 -1 1740.76 157.866 16
6 -1 -1 1737.50 154.474 16
6 1 0 36235.3 780.717 16
6 -1 0 35861.4 783.176 16
6 -1 0 34801.3 1416.46 4
6 1 1 1557.71 142.594 16
6 -1 1 1862.94 157.224 16
6 1 2 166.782 54.3817 16
6 -1 2 176.829 53.4485 16
6 1 3 271.182 61.3589 15
6 -1 3 219.528 55.8748 16
6 1 3 191.622 48.1228 7
6 1 4 309.998 45.7427 15
6 -1 4 271.043 54.9391 9
6 1 4 291.279 60.4989 9
6 -1 5 -6.27007 16.6291 9
6 1 5 -10.2407 15.2069 9
6 2 -2 7083.12 313.059 16
6 -2 -2 7027.30 300.138 16
6 2 -1 26463.6 643.076 16
6 -2 -1 24945.8 628.944 16
6 -2 0 1563.28 306.399 4
6 2 0 1600.62 145.932 16
6 -2 0 1333.62 136.807 16
6 2 1 5942.54 276.422 16
6 -2 1 5970.07 280.854 16
6 2 2 61.3479 46.5191 16
6 -2 2 141.991 54.1933 16
6 2 2 59.9008 37.1668 7
6 2 3 336.783 67.3599 15
6 -2 3 257.880 59.3250 16
6 2 3 258.429 49.3961 7
6 2 4 -20.2594 24.4585 15
6 -2 4 37.2223 23.4328 9
6 2 4 39.1426 24.6955 9
6 -2 5 145.002 24.3804 9
6 2 5 130.230 26.5405 9
6 3 -2 560.154 95.2991 16
6 -3 -2 431.890 82.6125 16
6 3 -1 6963.26 306.483 16
6 -3 -1 6603.38 296.544 16
6 3 0 1046.84 122.848 16
6 -3 0 1194.80 134.247 16
6 3 1 4757.77 253.551 16
6 -3 1 4975.44 258.216 16
6 3 1 4800.35 242.875 7
6 3 2 1246.65 119.563 16
6 -3 2 1177.08 125.010 16
6 3 2 1410.74 130.205 7
6 3 3 177.768 54.6581 15
6 -3 3 123.934 41.5101 16
6 3 3 129.148 45.4413 7
6 3 4 37.2731 30.2284 15
6 -3 4 12.2811 19.7290 9
6 3 4 19.6680 31.0284 9
6 -4 -2 86.0424 45.4613 16
6 4 -1 9585.00 369.055 16
6 -4 -1 9582.65 365.877 16
6 4 0 13140.5 433.109 16
6 -4 0 13945.9 450.914 16
6 4 0 12481.9 402.988 7
6 4 1 1522.46 143.735 16
6 -4 1 1505.53 146.371 16
6 4 1 1742.71 146.621 7
6 4 2 512.398 91.9612 15
6 -4 2 403.608 79.8908 16
6 4 2 582.495 87.7472 7
6 4 3 233.246 55.7268 15
6 -4 3 176.064 43.0172 9
6 4 3 190.143 45.7915 9
6 -4 3 72.8279 36.7232 16
6 4 3 195.394 45.5887 7
6 4 4 35.0602 24.8841 15
6 -4 4 -5.45730 18.1542 9
6 4 4 0.34647 20.7695 9
6 -5 -2 2323.13 164.157 16
6 5 -2 2158.06 152.317 7
6 -5 -1 216.978 64.9241 16
6 5 -1 264.446 67.9655 7
6 -5 0 2008.92 164.503 16
6 5 0 2083.34 159.937 7
6 -5 1 3466.24 216.031 16
6 5 1 3574.28 205.888 7
6 -5 2 1409.36 129.820 16
6 5 2 1459.30 129.132 7
6 5 2 1453.00 143.756 15
6 5 3 -36.2202 53.2241 15
6 -5 3 53.9868 26.6211 9
6 5 3 33.0162 21.5185 9
6 -5 3 64.6382 32.4246 16
6 5 3 26.7406 29.3558 7
6 5 4 138.956 36.1702 15
6 6 -2 1127.87 106.881 7
6 -6 -1 2716.90 184.967 16
6 6 -1 2344.94 165.491 7
6 -6 0 9814.13 366.161 16
6 6 0 9998.31 351.917 7
6 -6 1 10.2676 45.3762 16
6 6 1 -17.2760 47.1451 7
6 6 2 577.503 90.2961 15
6 -6 2 488.297 79.3732 16
6 6 2 611.437 85.9710 7
6 6 3 225.742 51.8073 15
6 -6 3 162.380 46.3079 16
6 6 3 144.706 35.7194 7
6 6 4 440.077 51.1436 15
6 7 -2 10298.7 331.905 7
6 -7 -1 1013.83 112.671 16
6 7 -1 981.560 106.414 7
6 -7 0 293.851 66.9506 16
6 7 0 253.002 60.0149 7
6 -7 1 3700.46 207.552 16
6 7 1 3720.03 199.447 7
6 7 2 241.320 59.6877 15
6 -7 2 293.144 61.6719 16
6 7 2 200.225 49.9242 7
6 7 3 138.761 40.5998 15
6 -7 3 70.7053 26.4351 16
6 7 3 127.269 34.6832 7
6 7 4 2212.00 90.3155 15
6 8 -2 1535.81 114.844 7
6 8 -1 109.132 47.0170 10
6 -8 -1 75.2417 44.2108 16
6 8 -1 121.359 46.3738 7
6 -8 0 231.341 63.1687 16
6 8 0 256.524 62.6447 7
6 8 1 1913.02 134.006 7
6 -8 1 1685.12 131.984 16
6 8 1 1685.87 128.945 15
6 8 2 240.930 49.3793 15
6 -8 2 268.532 54.9469 16
6 8 2 133.396 42.9321 7
6 8 3 505.804 52.4145 15
6 8 3 434.671 48.6914 7
6 -8 3 498.973 54.5476 16
6 9 -1 2176.96 159.887 10
6 -9 -1 2407.27 142.620 16
6 9 0 38.0535 27.9994 15
6 9 0 61.5102 39.5084 10
6 -9 0 38.9785 29.9463 16
6 9 0 28.7523 30.1298 7
6 9 1 1093.92 96.4380 7
6 -9 1 946.904 94.2061 16
6 9 1 979.356 81.3224 15
6 9 2 323.071 45.3735 15
6 -9 2 263.352 45.9287 16
6 9 2 266.848 47.2763 7
6 -9 3 210.717 31.5487 16
6 10 -2 290.104 58.0198 10
6 10 -1 -42.1269 39.7970 10
6 10 -1 23.8616 24.9160 7
6 10 0 117.060 36.1993 10
6 -10 0 118.789 34.1979 16
6 10 0 89.5009 34.5841 7
6 -10 1 63.3402 29.4664 16
6 10 1 55.7509 27.2359 7
6 -10 2 28.5713 18.7838 16
6 10 2 17.7041 18.7297 7
6 11 -3 824.735 74.7242 10
6 11 -2 701.078 72.6581 10
6 11 -1 24.6425 27.0631 10
6 11 -1 7.85575 20.6450 7
6 -11 0 85.3957 18.1836 16
6 11 0 14.9912 20.7099 7
6 -11 1 73.5084 22.3606 16
6 11 1 14.8552 19.8256 7
7 0 -3 63.4167 50.3354 16
7 0 -2 13559.3 440.716 16
7 0 -1 -20.6235 52.6274 16
7 0 0 2509.37 184.321 16
7 0 1 79.7687 49.3776 16
7 0 2 227.225 42.8989 15
7 0 2 222.286 53.1887 16
7 0 2 215.468 48.9789 7
7 0 3 -10.2258 23.8257 9
7 0 4 34.4319 15.2640 9
7 -1 -3 12257.6 397.454 16
7 1 -2 4222.78 242.645 16
7 -1 -2 4387.36 239.680 16
7 1 -1 5090.22 269.468 16
7 -1 -1 4844.74 257.193 16
7 1 0 1862.66 158.280 16
7 -1 0 1980.46 163.412 16
7 1 1 68.2703 44.6653 16
7 -1 1 82.8645 50.2209 16
7 1 2 17.0330 26.2138 15
7 1 2 34.1918 33.2239 16
7 -1 2 63.1966 35.8567 16
7 1 2 11.9547 34.3317 7
7 -1 2 73.4542 31.4326 7
7 1 3 37.6761 20.7128 15
7 -1 3 -32.6151 26.9227 9
7 1 3 25.2895 30.4328 9
7 -1 3 1.54495 19.2080 16
7 -2 -3 959.996 108.861 16
7 2 -2 12562.8 427.259 16
7 -2 -2 12442.6 409.494 16
7 2 -1 292.415 71.7018 16
7 -2 -1 266.078 62.7478 16
7 2 0 14.5858 40.7374 16
7 -2 0 122.558 62.9491 16
7 2 1 663.866 97.6963 16
7 -2 1 630.127 92.3834 16
7 2 1 745.826 95.1147 7
7 2 2 644.474 80.2841 15
7 2 2 499.634 73.2691 16
7 -2 2 412.760 70.7540 16
7 2 2 567.665 74.2371 7
7 2 3 62.7195 25.4816 15
7 -2 3 94.2537 29.5378 9
7 2 3 60.1482 31.7523 9
7 -2 3 15.8480 17.3749 16
7 3 -3 3460.32 179.908 7
7 -3 -2 851.657 106.246 16
7 3 -1 5863.42 285.262 16
7 -3 -1 5791.35 275.342 16
7 3 0 64.0347 46.7998 16
7 -3 0 153.032 61.6600 16
7 3 0 130.805 44.9703 7
7 3 1 783.089 100.315 16
7 -3 1 937.654 106.492 16
7 3 1 867.954 100.006 7
7 -3 2 1436.30 118.646 16
7 3 2 1585.99 118.017 7
7 3 2 1754.79 128.211 15
7 3 3 38.5193 24.7721 15
7 -3 3 47.2709 21.5064 9
7 3 3 -12.2037 19.9194 9
7 -3 3 13.4474 21.6846 16
7 -4 -2 7993.69 309.810 16
7 4 -2 8948.53 310.221 7
7 -4 -1 104.720 54.7752 16
7 4 -1 16.0402 38.3622 7
7 -4 0 988.275 110.839 16
7 4 0 934.778 105.718 7
7 -4 1 49.9420 43.6396 16
7 4 1 50.1586 36.9600 7
7 4 2 109.830 44.0364 15
7 -4 2 60.2210 37.3796 16
7 4 2 45.8690 32.1911 7
7 4 3 127.114 32.9519 15
7 -4 3 121.974 22.8142 9
7 4 3 180.690 29.9879 9
7 -4 3 135.776 29.2139 16
7 -5 -2 1745.01 136.984 16
7 5 -2 1827.20 133.078 7
7 -5 -1 1237.64 123.443 16
7 5 -1 1297.16 116.048 7
7 -5 0 45.5235 37.6445 16
7 5 0 4.64127 36.1933 7
7 -5 1 2110.91 144.577 16
7 5 1 1920.51 137.438 7
7 5 2 674.882 77.6566 15
7 -5 2 581.452 51.0416 9
7 5 2 685.118 60.4903 9
7 -5 2 724.370 77.4600 16
7 5 2 736.977 73.6780 7
7 5 3 163.845 30.2563 15
7 -5 3 145.365 27.3951 16
7 -6 -2 94.1419 35.4652 16
7 6 -2 63.8361 33.3940 7
7 -6 -1 98.1937 47.9146 16
7 6 -1 147.769 50.2967 7
7 -6 0 161.162 52.8182 16
7 6 0 327.353 62.3649 7
7 6 1 121.903 43.6393 15
7 -6 1 140.864 45.6734 16
7 6 1 159.016 45.9890 7
7 6 2 603.407 67.1960 15
7 6 2 523.987 58.3921 7
7 -6 2 525.339 61.4922 16
7 6 3 1019.87 61.1575 15
7 7 -2 573.790 68.9558 7
7 -7 -1 295.506 59.0443 16
7 7 -1 278.547 55.6200 7
7 -7 0 180.326 48.5950 16
7 7 0 95.4102 34.0624 7
7 7 1 689.384 74.3062 15
7 -7 1 672.764 75.3528 16
7 7 1 763.417 78.7131 7
7 7 2 47.3042 27.0543 15
7 -7 2 19.6658 18.8018 16
7 7 2 13.1154 20.5413 7
7 8 -2 126.749 35.7799 7
7 -8 -1 164.016 37.4222 16
7 8 -1 206.093 43.2707 7
7 8 0 489.635 60.8112 15
7 -8 0 432.280 62.8567 16
7 8 0 483.749 63.1777 7
7 8 1 291.909 41.1857 15
7 -8 1 247.184 42.6645 16
7 8 1 287.399 44.8027 7
7 -8 2 205.259 31.1939 16
7 8 2 268.988 33.2008 7
7 9 -1 395.602 44.2057 15
7 9 -1 409.183 48.5183 7
7 9 0 61.8198 22.2240 15
7 -9 0 59.7761 24.6052 16
7 9 0 94.3210 29.8605 7
7 -9 1 310.931 38.1426 16
7 9 1 390.680 42.4963 7
8 0 -2 499.737 80.7816 16
8 0 -1 60.5674 35.0246 16
8 0 0 2478.21 156.749 16
8 0 1 -14.7769 24.2993 16
8 0 1 7.81377 26.6785 7
8 0 2 423.462 48.2708 9
8 -1 -2 163.605 47.8102 16
8 1 -1 1921.12 145.363 16
8 -1 -1 1289.71 127.303 16
8 1 0 3236.74 175.944 16
8 -1 0 3080.03 172.659 16
8 1 0 3023.28 161.149 7
8 1 1 59.9059 25.2623 15
8 1 1 47.8461 28.9329 16
8 -1 1 90.4063 33.6081 16
8 1 1 96.2080 34.2855 7
8 -1 1 114.896 35.9668 7
8 -1 2 389.233 44.1683 9
8 1 2 395.649 45.7773 9
8 2 -3 403.769 56.4597 7
8 -2 -2 -6.27076 29.6642 16
8 2 -2 -11.4805 28.1755 7
8 -2 -1 425.964 74.3463 16
8 2 -1 414.383 64.4651 7
8 -2 0 65.0602 41.5135 16
8 2 0 103.026 39.9978 7
8 -2 1 1544.36 105.919 16
8 2 1 1575.75 103.596 7
8 -2 1 1344.51 93.0658 7
8 2 1 1622.91 101.776 15
8 -2 2 523.386 45.3628 9
8 2 2 526.232 47.5088 9
8 -3 -2 52.9296 31.9581 16
8 3 -2 60.7317 37.7231 7
8 -3 -1 820.304 93.5594 16
8 3 -1 802.344 85.7064 7
8 -3 0 148.605 46.8637 16
8 3 0 98.1246 34.7807 7
8 3 1 46.0584 28.6516 15
8 -3 1 52.9544 29.1718 16
8 3 1 41.1857 26.5951 7
8 -3 2 34.2785 18.8701 16
8 -4 -2 754.352 81.0062 16
8 4 -2 1015.11 85.7450 7
8 -4 -1 69.1288 39.6511 16
8 4 -1 58.1064 37.9697 7
8 -4 0 119.777 42.5109 16
8 4 0 178.402 43.2665 7
8 -4 1 550.835 60.2176 16
8 4 1 635.003 60.8429 7
8 4 1 700.705 65.2947 15
8 -5 -2 -11.8513 23.0839 16
8 5 -2 3.40864 21.4519 7
8 -5 -1 362.760 58.3130 16
8 5 -1 428.388 59.6856 7
8 5 0 -9.11178 25.3742 15
8 -5 0 -3.91745 22.3240 16
8 5 0 28.4386 25.7115 7
8 -5 1 641.329 59.1159 16
8 5 1 672.559 56.2920 7
8 5 1 696.542 58.6027 15
8 6 -2 117.414 31.5259 7
8 -6 -1 50.2238 25.1334 16
8 6 -1 109.829 30.9008 7
8 6 0 39.0527 26.8913 15
8 -6 0 18.5053 21.1904 16
8 6 0 52.1213 24.3010 7
8 6 1 112.169 24.1866 15
8 -6 1 79.2142 22.2309 16
8 6 1 107.620 23.1911 7
8 7 -1 32.3035 22.8543 15
8 7 -1 69.2115 24.7276 7
8 7 0 41.2395 17.7243 15
8 -7 0 28.7688 17.7085 16
8 7 0 41.5570 17.2539 7
9 0 -2 568.008 50.5731 7
9 0 -1 8.26530 16.5378 7
9 1 -2 348.848 40.7867 7
9 -1 -2 352.033 40.6444 7
9 1 -1 1393.51 77.6134 7
9 -1 -1 1406.27 78.0084 7
9 2 -2 103.190 22.6214 7
9 2 -1 33.0440 15.3796 15
9 2 -1 36.8522 17.3026 7
9 -2 -1 23.1770 16.2867 7
9 3 -1 562.218 42.5988 7
9 -3 -1 579.047 45.7200 7
