#------------------------------------------------------------------------------
#$Date: 2021-02-05 01:27:14 +0200 (Fri, 05 Feb 2021) $
#$Revision: 261737 $
#$URL: file:///home/coder/svn-repositories/cod/cif/7/06/02/7060275.cif $
#------------------------------------------------------------------------------
#
# This file is available in the Crystallography Open Database (COD),
# http://www.crystallography.net/
#
# All data on this site have been placed in the public domain by the
# contributors.
#
data_7060275
loop_
_publ_author_name
'Gettings, Matthew L.'
'Byrd, Edward F. C.'
'Zeller, Matthias'
'Piercey, Davin'
_publ_section_title
;
 Methyl sydnone imine and its energetic salts
;
_journal_issue                   4
_journal_name_full               'New Journal of Chemistry'
_journal_page_first              2228
_journal_page_last               2236
_journal_paper_doi               10.1039/D0NJ05354F
_journal_volume                  45
_journal_year                    2021
_chemical_absolute_configuration ukn
_chemical_formula_sum            'C3 H4 N4 O2'
_chemical_formula_weight         128.10
_space_group_crystal_system      orthorhombic
_space_group_IT_number           36
_space_group_name_Hall           'C 2c -2'
_space_group_name_H-M_alt        'C m c 21'
_atom_sites_solution_hydrogens   geom
_atom_sites_solution_primary     direct
_atom_sites_solution_secondary   difmap
_audit_creation_method           SHELXL-2018/3
_audit_update_record
;
2020-09-23 deposited with the CCDC.	2021-01-11 downloaded from the CCDC.
;
_cell_angle_alpha                90
_cell_angle_beta                 90
_cell_angle_gamma                90
_cell_formula_units_Z            4
_cell_length_a                   6.1158(7)
_cell_length_b                   9.1928(9)
_cell_length_c                   9.3984(10)
_cell_measurement_reflns_used    3960
_cell_measurement_temperature    150(2)
_cell_measurement_theta_max      33.1430
_cell_measurement_theta_min      4.0027
_cell_volume                     528.39(10)
_computing_cell_refinement       'SAINT V8.40A (Bruker, 2019)'
_computing_data_collection       'Apex3 v2019.1-0 (Bruker, 2019)'
_computing_data_reduction        'SAINT V8.40A (Bruker, 2019)'
_computing_structure_refinement
;  
SHELXL-2018/3 (Sheldrick, 2015, 2018), 
SHELXLE Rev1117 (H\"ubschle et al., 2011)
;
_computing_structure_solution    'SHELXS-97 (Sheldrick, 2008)'
_diffrn_ambient_temperature      150(2)
_diffrn_detector_area_resol_mean 7.4074
_diffrn_measured_fraction_theta_full 0.993
_diffrn_measured_fraction_theta_max 0.993
_diffrn_measurement_device_type
;
Bruker AXS D8 Quest diffractometer with PhotonII charge-integrating pixel 
array detector (CPAD)
;
_diffrn_measurement_method       'omega and phi scans'
_diffrn_radiation_monochromator  'Triumph curved graphite crystal'
_diffrn_radiation_type           MoK\a
_diffrn_radiation_wavelength     0.71073
_diffrn_reflns_av_R_equivalents  0.0418
_diffrn_reflns_av_unetI/netI     0.0431
_diffrn_reflns_Laue_measured_fraction_full 0.993
_diffrn_reflns_Laue_measured_fraction_max 0.993
_diffrn_reflns_limit_h_max       9
_diffrn_reflns_limit_h_min       -8
_diffrn_reflns_limit_k_max       14
_diffrn_reflns_limit_k_min       -14
_diffrn_reflns_limit_l_max       14
_diffrn_reflns_limit_l_min       -13
_diffrn_reflns_number            4289
_diffrn_reflns_point_group_measured_fraction_full 0.992
_diffrn_reflns_point_group_measured_fraction_max 0.979
_diffrn_reflns_theta_full        25.242
_diffrn_reflns_theta_max         33.198
_diffrn_reflns_theta_min         4.002
_diffrn_source                   'fine focus sealed tube X-ray source'
_diffrn_source_current           '30 mA'
_diffrn_source_voltage           '50 kV'
_exptl_absorpt_coefficient_mu    0.137
_exptl_absorpt_correction_T_max  0.7465
_exptl_absorpt_correction_T_min  0.6304
_exptl_absorpt_correction_type   multi-scan
_exptl_absorpt_process_details
;
 SADABS 2016/2: Krause, L., Herbst-Irmer, R., Sheldrick G.M. & Stalke D.,
 J. Appl. Cryst. 48 (2015) 3-10
;
_exptl_crystal_colour            yellow
_exptl_crystal_density_diffrn    1.610
_exptl_crystal_description       block
_exptl_crystal_F_000             264
_exptl_crystal_size_max          0.310
_exptl_crystal_size_mid          0.220
_exptl_crystal_size_min          0.200
_refine_diff_density_max         0.273
_refine_diff_density_min         -0.223
_refine_diff_density_rms         0.048
_refine_ls_abs_structure_details
;
 Flack x determined using 434 quotients [(I+)-(I-)]/[(I+)+(I-)]
 (Parsons, Flack and Wagner, Acta Cryst. B69 (2013) 249-259).
;
_refine_ls_abs_structure_Flack   -0.1(7)
_refine_ls_extinction_method     none
_refine_ls_goodness_of_fit_ref   1.066
_refine_ls_hydrogen_treatment    constr
_refine_ls_matrix_type           full
_refine_ls_number_parameters     56
_refine_ls_number_reflns         1077
_refine_ls_number_restraints     1
_refine_ls_restrained_S_all      1.066
_refine_ls_R_factor_all          0.0380
_refine_ls_R_factor_gt           0.0342
_refine_ls_shift/su_max          0.000
_refine_ls_shift/su_mean         0.000
_refine_ls_structure_factor_coef Fsqd
_refine_ls_weighting_details
'w=1/[\s^2^(Fo^2^)+(0.0557P)^2^] where P=(Fo^2^+2Fc^2^)/3'
_refine_ls_weighting_scheme      calc
_refine_ls_wR_factor_gt          0.0889
_refine_ls_wR_factor_ref         0.0913
_reflns_Friedel_coverage         0.873
_reflns_Friedel_fraction_full    0.992
_reflns_Friedel_fraction_max     0.964
_reflns_number_gt                989
_reflns_number_total             1077
_reflns_threshold_expression     'I > 2\s(I)'
_cod_data_source_file            d0nj05354f2.cif
_cod_data_source_block           G117c3_MSI_NO2BF4_0m
_cod_depositor_comments
'Adding full bibliography for 7060272--7060278.cif.'
_cod_database_code               7060275
_shelx_shelxl_version_number     2018/3
_shelx_space_group_comment
;
The symmetry employed for this shelxl refinement is uniquely defined
by the following loop, which should always be used as a source of
symmetry information in preference to the above space-group names.
They are only intended as comments.
;
_shelx_estimated_absorpt_t_min   0.959
_shelx_estimated_absorpt_t_max   0.973
_shelx_res_file
;
TITL G117c3_MSI_NO2BF4_0m in Cmc2(1)
    G117c3_MSI_NO2BF4_0m.res
    created by SHELXL-2018/3 at 13:41:15 on 12-Sep-2020
CELL 0.71073   6.11580   9.19280   9.39840  90.0000  90.0000  90.0000
ZERR    4.00   0.00070   0.00090   0.00100   0.0000   0.0000   0.0000
LATT -7
SYMM -X, -Y, 0.5+Z
SYMM X, -Y, 0.5+Z
SYMM -X, Y, Z
SFAC C H N O
UNIT 12 16 16 8
LIST 6 ! automatically inserted. Change 6 to 4 for CHECKCIF!!
TEMP -123.150
SIZE 0.20 0.22 0.31
L.S. 4
BOND $H
ACTA
CONF
HTAB
EQIV $2 x, y+1, z
HTAB C1 O2_$2
EQIV $3 -x, -y+1, z+1/2
HTAB C6 N3_$3

FMAP 2
PLAN 20
WGHT    0.055700
FVAR       1.24451
O1    4    0.000000    0.725576   -0.120180    10.50000    0.03723    0.02414 =
         0.01825    0.00303    0.00000    0.00000
O2    4    0.000000    0.255320   -0.016679    10.50000    0.03598    0.02242 =
         0.04147   -0.00401    0.00000    0.00000
N1    3    0.000000    0.856937   -0.051567    10.50000    0.03260    0.02307 =
         0.02312    0.00380    0.00000    0.00000
N2    3    0.000000    0.822981    0.083293    10.50000    0.02411    0.01973 =
         0.02119    0.00225    0.00000    0.00000
N3    3    0.000000    0.480092   -0.078958    10.50000    0.03497    0.02107 =
         0.02169   -0.00263    0.00000    0.00000
N4    3    0.000000    0.384036    0.026046    10.50000    0.02983    0.02412 =
         0.02608    0.00139    0.00000    0.00000
C1    1    0.000000    0.941846    0.186709    10.50000    0.03872    0.01897 =
         0.02998   -0.00407    0.00000    0.00000
AFIX 137
H1A   2   -0.144379    0.948728    0.231439    10.50000   -1.50000
H1B   2    0.033664    1.033517    0.138201    10.50000   -1.50000
H1C   2    0.110714    0.922947    0.259789    10.50000   -1.50000
AFIX   0
C5    1    0.000000    0.614805   -0.023857    10.50000    0.02402    0.02171 =
         0.01794    0.00078    0.00000    0.00000
C6    1    0.000000    0.678694    0.109778    10.50000    0.02705    0.01969 =
         0.01795    0.00080    0.00000    0.00000
AFIX  43
H6    2    0.000000    0.631530    0.199718    10.50000   -1.20000
AFIX   0
HKLF 4




REM  G117c3_MSI_NO2BF4_0m in Cmc2(1)
REM wR2 = 0.0913, GooF = S = 1.066, Restrained GooF = 1.066 for all data
REM R1 = 0.0342 for 989 Fo > 4sig(Fo) and 0.0380 for all 1077 data
REM 56 parameters refined using 1 restraints

END

WGHT      0.0557      0.0000

REM Instructions for potential hydrogen bonds
HTAB C1 O2_$2
HTAB C6 N3_$3

REM Highest difference peak  0.273,  deepest hole -0.223,  1-sigma level  0.048
Q1    1   0.0000  0.6411  0.0485  10.50000  0.05    0.27
Q2    1   0.0000  0.2716 -0.1135  10.50000  0.05    0.25
Q3    1   0.0000  0.5423 -0.0469  10.50000  0.05    0.24
Q4    1   0.0000  0.3156 -0.0146  10.50000  0.05    0.23
Q5    1   0.0000  0.6655 -0.0750  10.50000  0.05    0.22
Q6    1   0.0000  0.7567  0.1017  10.50000  0.05    0.22
Q7    1   0.0000  0.8441  0.0135  10.50000  0.05    0.22
Q8    1   0.0000  0.2969  0.0645  10.50000  0.05    0.19
Q9    1   0.0000  0.4076  0.1130  10.50000  0.05    0.18
Q10   1  -0.1316  0.2503 -0.0138  11.00000  0.05    0.17
Q11   1   0.0000  0.2018  0.0593  10.50000  0.05    0.17
Q12   1   0.0000  0.9934  0.2167  10.50000  0.05    0.16
Q13   1   0.0000  0.7817 -0.0759  10.50000  0.05    0.16
Q14   1  -0.1326  0.7252 -0.1238  11.00000  0.05    0.15
Q15   1  -0.1262  0.9441  0.1924  11.00000  0.05    0.15
Q16   1  -0.1430  0.8610 -0.0466  11.00000  0.05    0.15
Q17   1   0.0000  0.8791  0.1389  10.50000  0.05    0.15
Q18   1   0.0000  0.4760 -0.1203  10.50000  0.05    0.14
Q19   1   0.0000  0.4573  0.2345  10.50000  0.05    0.13
Q20   1   0.0000  0.4249 -0.0314  10.50000  0.05    0.13
;
_shelx_res_checksum              22960
_shelx_hkl_file
;
  -4   0   0 9830.70 589.709   4
   4   0   0 9999.99 589.842   4
   6   0   0 2522.47 151.370   1
   6   0   0 2545.86 148.928   2
   8   0   0 749.257 45.0095   2
   1   1   0 761.462 43.9632   1
   1  -1   0 735.909 44.0222   1
  -1  -1   0 731.432 43.9459   1
  -1   1   0 748.121 44.0345   1
   3  -1   0 403.539 24.4975   2
   3  -1   0 407.137 25.1676   1
   3   1   0 385.445 23.9087   2
  -3  -1   0 402.982 25.0612   1
  -3   1   0 419.552 25.2462   1
   3   1   0 406.996 25.1073   1
   5   1   0 93.9080 8.10939   1
   5  -1   0 93.9155 8.13069   1
   5   1   0 93.2737 6.24495   2
  -5   1   0 91.3468 8.14367   1
   5  -1   0 96.7836 6.67393   2
  -7  -1   0 18.9568 5.26909   1
   7   1   0 29.2503 3.08057   2
   7  -1   0 25.9273 4.94688   1
   7  -1   0 23.6388 3.60944   2
  -7   1   0 24.1751 5.48573   1
   9   1   0 5.60596 2.02621   2
   9  -1   0 8.32675 3.00325   2
   0  -2   0 2179.05 131.845   4
   0   2   0 2263.06 131.844   4
  -2   2   0 1556.66 90.0402   1
   2   2   0 1535.95 89.8491   1
  -2  -2   0 1490.55 89.8026   1
   2  -2   0 1503.06 89.9830   1
   4  -2   0 475.790 28.4396   2
   4  -2   0 472.999 29.7023   1
  -4   2   0 477.558 29.7982   1
   4   2   0 481.156 29.6104   1
   4   2   0 463.678 27.8359   2
  -4  -2   0 457.847 29.4534   1
   6   2   0 107.675 9.38545   1
  -6   2   0 96.8311 9.36388   1
  -6  -2   0 97.0811 8.97147   1
   6  -2   0 138.074 12.1117   1
   6  -2   0 97.7073 7.73633   2
  -8   2   0 25.6195 5.37466   1
   8  -2   0 36.0165 6.28978   1
   8  -2   0 31.1001 4.52504   2
   8   2   0 27.5724 2.80651   2
   1  -3   0 30.7126 2.30708   3
  -1  -3   0 29.9838 2.03624   2
   1  -3   0 30.3845 2.54471   2
  -1  -3   0 30.7532 2.57842   1
  -1   3   0 27.4938 2.36464   3
  -1   3   0 29.4100 2.71508   1
   1   3   0 26.3690 2.18694   3
   1   3   0 30.5127 2.52350   1
   3   3   0 2.99790 1.40173   1
   3  -3   0 3.07722 1.45870   1
  -3   3   0 2.09742 1.31776   1
   3  -3   0 5.08881 1.67009   2
  -3  -3   0 2.52288 1.23139   1
   5  -3   0 2.53719 1.91171   2
  -5  -3   0 2.06439 1.67280   1
   5  -3   0 2.57603 1.81689   1
   5   3   0 1.38323 1.71930   1
  -5   3   0 1.47718 1.78010   1
   7  -3   0 -0.3164 1.76166   1
  -7   3   0 -1.1525 1.86600   1
   7  -3   0 1.04873 2.12155   2
   9  -3   0 -2.2108 2.71937   2
   0   4   0 4.89094 1.17176   1
   0   4   0 5.65938 0.98452   3
   0  -4   0 6.46219 1.26967   1
   0  -4   0 6.36903 1.29321   2
   0  -4   0 6.19417 1.03134   3
  -2  -4   0 2.34300 1.05419   1
   2   4   0 1.66954 1.00808   1
  -2   4   0 1.56606 1.11310   1
   2  -4   0 1.54158 1.32013   2
   2  -4   0 0.77993 0.99624   3
   4  -4   0 0.96032 1.41234   1
   4   4   0 1.17848 1.34825   1
  -4   4   0 1.88352 1.94644   1
  -4  -4   0 2.44703 1.39495   1
   4  -4   0 0.20988 1.81794   2
   6  -4   0 5.61037 2.24343   1
   6  -4   0 4.80370 2.26391   2
  -6  -4   0 6.48707 2.40275   1
  -6   4   0 6.88082 2.65291   1
   6   4   0 5.22830 2.49038   1
   8  -4   0 4.80287 3.33554   2
   1   5   0 88.3553 5.69985   3
   1  -5   0 93.0802 6.52906   1
  -1   5   0 87.8261 6.46160   1
   1   5   0 84.6409 6.17226   1
   1   5   0 89.6054 7.72505   1
  -1  -5   0 87.9032 5.69528   2
  -1   5   0 88.3810 5.84047   3
   1  -5   0 87.8599 6.12861   2
   1  -5   0 88.8671 5.61826   3
  -3   5   0 22.1725 3.37434   1
   3   5   0 20.0539 2.83079   1
   3  -5   0 18.6497 3.00995   2
   3  -5   0 17.6507 3.04855   1
  -3  -5   0 17.9370 2.84977   1
   3  -5   0 18.5200 2.60647   3
  -5  -5   0 2.79920 1.71056   1
   5  -5   0 0.50340 1.67993   1
   5  -5   0 3.72149 2.76037   3
  -5   5   0 3.22472 2.24824   1
   5   5   0 1.67895 1.75413   1
   5  -5   0 1.91010 2.36503   2
   7  -5   0 2.35168 2.91637   2
  -7   5   0 -3.0331 2.33935   1
   7  -5   0 -2.7345 2.33231   1
   0   6   0 0.65667 0.99700   1
   0  -6   0 3.77891 1.41957   2
   2  -6   0 0.49684 1.00161   3
   2  -6   0 -0.1454 1.06231   1
   2  -6   0 1.29511 1.68233   2
   2   6   0 1.24931 1.11088   1
  -2   6   0 1.00867 1.23202   1
  -2  -6   0 0.75014 0.72722   2
   2   6   0 0.97935 1.07875   3
   4  -6   0 3.55056 2.46985   2
   4  -6   0 3.39293 1.85718   1
  -4   6   0 5.85899 2.30973   1
   4   6   0 3.48311 1.91484   1
  -4  -6   0 2.50682 1.62480   1
   4   6   0 3.53035 1.64203   3
   4  -6   0 1.82166 1.52958   3
   6  -6   0 3.02423 2.14284   1
  -6   6   0 4.04623 2.54034   1
   6  -6   0 3.03366 2.32417   2
   8  -6   0 2.63341 3.22063   2
   8   6   0 0.58127 2.50465   3
   1  -7   0 9.19831 2.03413   2
   1   7   0 8.34494 1.53302   3
  -1  -7   0 10.4555 1.77747   2
  -1   7   0 7.49700 1.91252   1
   1  -7   0 8.75053 1.12380   3
   1   7   0 9.13576 1.93369   1
   1  -7   0 8.14112 2.60584   1
   1   7   0 7.15146 1.70667   1
  -1   7   0 8.70576 1.64067   3
  -3   7   0 6.14194 2.15156   1
   3  -7   0 9.10798 2.42994   1
   3   7   0 8.49291 1.86246   3
   3  -7   0 4.22665 2.00441   2
   3   7   0 5.89037 1.84525   1
   3  -7   0 6.77580 1.58207   3
   5  -7   0 3.52947 3.06358   2
   5  -7   0 -0.9065 1.53937   1
   5   7   0 1.52029 1.95401   3
  -5   7   0 0.77434 2.02429   1
   7  -7   0 2.14256 3.40589   2
   7   7   0 -1.1638 2.22298   3
   0   8   0 200.804 13.6787   1
   0   8   0 218.494 12.9501   3
   0   8   0 203.140 13.8082   1
   0  -8   0 203.142 13.2538   2
   2  -8   0 164.120 11.2377   2
   2   8   0 165.313 11.2986   1
   2   8   0 166.925 10.4014   3
   2   8   0 157.138 11.0595   1
  -2   8   0 158.961 11.6921   1
   2  -8   0 152.290 9.91496   3
  -2  -8   0 173.349 10.3526   2
   2  -8   0 146.363 14.0716   1
   4   8   0 73.3674 5.98644   3
  -4   8   0 69.6023 7.37311   1
   4  -8   0 76.0842 7.11735   2
   6   8   0 20.1004 3.49982   3
   6  -8   0 26.0181 5.07615   2
   1   9   0 951.329 58.3764   1
  -1   9   0 970.216 58.7385   1
   1  -9   0 1016.97 58.9177   1
  -1   9   0 1002.71 57.6028   3
  -1  -9   0 963.082 57.6455   2
   1   9   0 1015.70 57.4976   3
   1  -9   0 949.843 58.1216   2
   1   9   0 888.791 58.8418   1
   3   9   0 645.902 37.2792   3
   3  -9   0 597.071 38.2180   2
   3   9   0 629.795 38.4375   1
  -3   9   0 598.159 39.2062   1
   3  -9   0 629.996 42.2465   1
   5  -9   0 337.110 21.7802   2
   5   9   0 312.461 20.4289   3
   7  -9   0 120.151 11.2392   2
   7   9   0 128.783 10.3544   3
   0  10   0 48.8887 5.11468   1
   0 -10   0 49.1910 5.06688   2
   0  10   0 57.2263 4.80989   3
  -2  10   0 36.9392 4.80717   1
   2  10   0 36.9746 3.95469   3
   2 -10   0 35.7553 4.44119   1
   2 -10   0 30.2743 4.88150   2
  -2 -10   0 35.0330 3.32502   2
   2  10   0 31.1763 4.23911   1
   4 -10   0 11.5142 3.47457   2
   4  10   0 14.5423 2.64017   3
   4 -10   0 8.39340 3.88059   1
   4  10   0 15.1762 3.16802   1
   6  10   0 6.10655 2.60579   3
   6 -10   0 7.08373 4.18060   2
  -1  11   0 0.92899 2.05578   1
   1 -11   0 1.12798 2.53257   2
  -1  11   0 -0.2051 1.90767   3
   1  11   0 2.33882 1.98745   3
   1  11   0 1.93806 1.62190   1
  -1 -11   0 0.80838 1.87287   2
   3  11   0 1.28128 1.85464   3
   3  11   0 -0.4126 1.62047   1
   3 -11   0 1.09306 3.27454   2
   3 -11   0 -0.6978 2.12616   1
   5 -11   0 -3.5699 4.84005   2
   5  11   0 0.66640 2.11750   3
   0  12   0 1.16867 1.89843   1
   0  12   0 2.53280 2.05624   3
   0 -12   0 0.54508 2.42408   2
  -2 -12   0 3.43735 1.75399   2
   2  12   0 0.73793 2.02553   3
   2  12   0 1.22265 1.93587   1
   2 -12   0 0.11813 2.99911   2
   4  12   0 1.73262 2.06683   3
   4 -12   0 3.85993 3.12333   2
   1 -13   0 20.4891 4.36917   2
   1  13   0 21.8711 3.41738   3
  -1 -13   0 18.8635 3.37825   2
   3 -13   0 20.6150 5.39248   2
   0 -14   0 55.9482 6.33861   2
   0  14   0 62.6623 6.20626   3
  -2   0  -1 3.20586 1.23151   1
   2   0  -1 9.09991 1.33887   2
  -2   0   1 3.93208 1.61604   1
   2   0  -1 4.63036 1.37911   1
   2   0   1 9.37287 1.57573   2
   2   0   1 4.63170 1.31197   1
  -4   0   1 5.55162 2.18448   1
   4   0  -1 15.3592 2.32310   2
   4   0   1 20.7557 2.52916   2
  -6   0   1 2.11066 1.83057   1
   6   0   1 6.94320 2.32286   2
   6   0   1 2.90007 2.31032   1
   6   0  -1 4.03218 2.19550   1
  -6   0  -1 1.22840 2.25071   1
   8   0   1 4.87534 2.64401   2
   8   0  -1 1.06021 3.88251   1
  -8   0   1 -0.4291 2.70958   1
   8   0  -1 5.06668 2.66010   2
  -1  -1  -1 2249.11 126.380   1
   1   1   1 2063.33 126.572   1
   3   1  -1 657.502 40.2091   1
   3  -1   1 699.175 39.3793   2
   3  -1   1 648.081 40.1865   1
  -3   1   1 688.804 41.2131   1
  -3  -1  -1 670.236 40.0988   1
   3   1  -1 631.061 38.9286   2
   3  -1  -1 657.252 40.2410   1
  -3  -1   1 655.069 40.1650   1
   3   1   1 647.335 39.0147   2
   3   1   1 661.678 40.0702   1
   5   1  -1 207.636 15.0363   1
   5   1  -1 188.267 12.4384   2
   5  -1   1 193.306 12.8754   2
  -5   1   1 263.938 16.3454   1
   5  -1   1 195.526 14.4135   1
  -5  -1  -1 190.324 14.3122   1
   5  -1  -1 199.154 14.4962   1
   5  -1  -1 199.719 12.7883   2
  -5   1  -1 208.538 14.6899   1
  -5  -1   1 203.833 14.4667   1
   5   1   1 203.043 14.4132   1
   5   1   1 192.158 12.5297   2
   7   1  -1 71.2204 7.83746   1
   7   1  -1 72.0593 5.25942   2
  -7  -1  -1 44.3553 6.63822   1
   7  -1   1 68.8435 7.86391   1
   7  -1   1 72.7695 6.02506   2
  -7   1  -1 69.7185 7.85643   1
   7   1   1 72.5641 7.88313   1
   7   1   1 72.4578 5.40900   2
   7  -1  -1 75.8430 5.90180   2
  -7  -1   1 62.3093 7.30412   1
   7  -1  -1 101.553 10.1603   1
   9   1  -1 24.1134 3.18946   2
   9  -1   1 28.6933 4.39787   2
   9  -1  -1 28.5581 4.22909   2
   9   1   1 23.9371 3.34996   2
   0   2   1 2166.54 129.244   4
   0   2  -1 2146.45 132.033   4
   0  -2  -1 2287.28 129.327   4
   2   2  -1 952.245 57.8048   1
  -2  -2  -1 950.937 57.5335   1
   2  -2   1 965.572 57.9334   1
  -2   2   1 971.971 57.8049   1
   2  -2   1 989.103 57.2764   2
  -2  -2   1 968.477 57.8315   1
   2  -2  -1 926.570 57.7287   1
   2   2   1 959.698 57.5610   1
  -2   2  -1 1002.16 58.0139   1
   2   2   1 1019.15 56.9117   2
   2  -2  -1 970.074 57.2320   2
   4  -2   1 264.616 15.5407   2
   4  -2   1 311.312 18.1691   1
   4   2  -1 245.829 16.6368   1
  -4   2   1 243.544 16.6398   1
  -4  -2  -1 241.957 16.4066   1
   4   2  -1 230.874 14.7762   2
  -4   2  -1 250.941 16.8200   1
   4  -2  -1 244.930 16.6462   1
   4   2   1 232.331 14.8948   2
   4   2   1 252.112 16.6050   1
  -4  -2   1 231.064 16.4332   1
   4  -2  -1 243.449 15.4278   2
   6  -2   1 57.8465 6.57744   1
   6   2  -1 61.5893 4.58088   2
   6  -2   1 56.7641 5.33297   2
   6   2  -1 62.1522 6.59814   1
  -6  -2  -1 52.8864 6.16461   1
  -6   2   1 61.2892 6.83653   1
   6  -2  -1 61.2915 5.19279   2
   6  -2  -1 53.3004 6.48378   1
   6   2   1 59.1621 6.59150   1
   6   2   1 56.1427 4.29802   2
  -6  -2   1 57.6639 6.30855   1
  -6   2  -1 60.2943 6.94740   1
   8  -2   1 14.8817 3.31238   2
   8  -2   1 15.5175 3.80915   1
  -8   2   1 4.05646 2.19143   1
   8   2  -1 16.9770 2.87363   2
   8   2   1 14.0389 2.33091   2
  -8   2  -1 12.9900 4.83403   1
   8  -2  -1 13.9719 4.58228   1
   8  -2  -1 15.6377 3.47519   2
  -1  -3  -1 543.432 32.2415   1
   1  -3   1 559.192 32.3692   2
   1  -3   1 538.087 32.9420   1
  -1  -3  -1 538.990 32.0891   2
   1   3  -1 532.522 32.7398   1
   1   3  -1 511.644 32.1518   3
  -1   3   1 551.828 32.5406   1
   1  -3   1 534.853 32.1895   3
  -1   3  -1 522.472 32.2089   3
  -1   3  -1 570.065 32.9473   1
  -1  -3   1 545.904 32.7828   1
  -1  -3   1 546.323 32.0412   2
   1   3   1 562.546 32.2692   1
   1  -3  -1 566.703 32.0178   3
   1  -3  -1 547.212 32.5478   1
  -3  -3  -1 100.764 7.25270   1
   3  -3   1 101.712 6.91020   2
   3  -3   1 93.9582 7.82385   1
   3  -3   1 98.2351 6.76019   3
   3   3  -1 95.6567 7.47174   1
  -3   3   1 103.657 7.65178   1
  -3   3  -1 105.332 8.63333   1
   3  -3  -1 102.450 7.56680   1
  -3  -3   1 105.369 7.60579   1
   3   3   1 101.275 6.12919   2
   3   3   1 99.6526 7.30412   1
   3  -3  -1 99.4224 6.85687   2
   5  -3   1 50.4449 6.60128   1
  -5   3   1 25.5009 4.35983   1
   5   3  -1 28.7549 4.32060   1
   5  -3   1 26.8625 3.76744   2
  -5  -3  -1 30.1972 4.02360   1
   5  -3  -1 31.9476 3.62768   2
   5   3   1 28.9314 2.26725   2
  -5   3  -1 28.9748 4.52296   1
   5   3   1 30.1393 4.17265   1
  -5  -3   1 28.3658 4.40352   1
   5  -3  -1 29.8003 4.35682   1
  -7   3   1 3.13764 1.62646   1
   7  -3   1 6.94990 2.62048   2
   7  -3   1 5.19376 2.50420   1
   7  -3  -1 8.83372 2.93667   2
   7   3   1 8.72075 1.34028   2
  -7  -3   1 5.73151 2.87768   1
   7  -3  -1 10.2726 3.30527   1
  -7   3  -1 6.50005 2.62473   1
   9   3  -1 -2.1600 2.14688   3
   9  -3   1 -0.1884 2.87762   2
   9  -3  -1 5.39470 3.18202   2
   0   4  -1 141.781 9.28051   3
   0  -4   1 128.792 9.76274   1
   0   4   1 162.206 9.39078   1
   0   4   1 152.606 9.02184   3
   0  -4  -1 156.748 9.82198   1
   0  -4   1 152.121 9.21310   3
   0  -4  -1 160.160 9.42076   2
   0   4  -1 154.027 9.96853   1
   0  -4   1 147.601 9.37547   2
   2   4  -1 43.6310 3.42577   3
  -2  -4  -1 43.3957 3.53706   1
  -2   4   1 44.4413 3.94272   1
   2   4  -1 40.7620 3.90346   1
   2  -4   1 41.8546 4.16609   1
   2  -4   1 41.0541 3.71031   2
   2  -4   1 44.3764 3.46728   3
   2  -4  -1 43.2387 3.70128   2
   2   4   1 40.8063 3.51421   1
   2  -4  -1 44.2319 3.83479   1
   2  -4  -1 40.9498 3.20334   3
  -2   4  -1 48.1656 4.36031   1
  -2  -4   1 41.5884 3.98406   1
   4   4  -1 11.9644 2.56211   1
   4  -4   1 14.1804 2.70351   2
   4  -4   1 13.1135 2.24865   3
  -4  -4  -1 11.5961 2.58448   1
   4  -4   1 10.6164 2.54202   1
  -4   4   1 9.57290 2.50049   1
   4  -4  -1 12.4572 2.53854   2
   4  -4  -1 5.71220 1.96626   1
   4   4   1 12.3072 2.63366   1
  -4  -4   1 11.4767 2.62081   1
  -4   4  -1 8.38534 2.37802   1
  -6  -4  -1 5.24875 1.95057   1
   6  -4   1 8.32423 2.83901   3
   6   4  -1 3.78977 2.34590   1
   6  -4   1 5.31184 2.45649   2
  -6   4   1 3.31609 1.93413   1
   6  -4   1 7.98240 3.74200   1
   6  -4  -1 5.01061 2.44924   2
   6  -4  -1 6.52361 2.46957   1
   6   4   1 5.93654 2.62367   1
  -6   4  -1 7.59640 4.56426   1
  -6  -4   1 1.86609 2.10722   1
   8   4  -1 1.09704 2.27331   3
   8  -4   1 0.46913 2.70436   2
   8  -4  -1 -0.2466 2.80186   2
   1   5  -1 1503.41 91.2581   1
  -1  -5  -1 1542.13 90.4831   2
   1  -5   1 1495.71 90.7712   2
   1  -5   1 1564.01 90.4689   3
   1   5  -1 1511.55 91.3232   1
   1   5  -1 1481.16 90.5044   3
   1  -5  -1 1504.08 90.7696   2
   1  -5  -1 1598.43 91.1267   1
   1   5   1 1515.50 90.2663   3
  -1  -5   1 1532.05 90.4522   2
   1   5   1 1679.13 90.7719   1
   1   5   1 1553.98 90.6699   1
  -1   5  -1 1552.41 91.5125   1
   3  -5   1 685.450 40.4059   2
   3   5  -1 669.005 39.9207   3
  -3   5   1 674.006 41.1735   1
   3  -5   1 641.386 39.9156   3
   3   5  -1 673.944 41.0652   1
  -3  -5  -1 682.323 40.6633   1
   3  -5   1 674.729 41.4226   1
   3  -5  -1 688.904 40.3832   2
   3  -5  -1 661.185 39.7904   3
  -3   5  -1 662.579 41.4793   1
  -3  -5   1 651.372 40.9993   1
   3   5   1 686.989 40.6883   1
   5   5  -1 230.011 14.7240   3
   5  -5   1 227.602 14.8618   3
  -5  -5  -1 246.856 16.2926   1
   5  -5   1 218.630 17.2154   2
   5   5  -1 231.899 16.3079   1
  -5   5   1 215.447 17.8778   1
   5  -5   1 221.792 16.4555   1
   5  -5  -1 235.011 15.0617   3
   5  -5  -1 230.373 17.6938   1
   5  -5  -1 234.116 15.8908   2
  -5  -5   1 237.996 16.3599   1
  -5   5  -1 225.020 16.7427   1
   5   5   1 225.686 19.2061   1
  -7   5   1 64.9384 8.17165   1
   7   5  -1 93.1001 7.20031   3
   7  -5   1 77.1766 7.33665   2
   7  -5   1 66.3482 7.99561   1
   7  -5  -1 77.6104 7.21842   2
  -7   5  -1 59.2640 7.91052   1
   7  -5  -1 74.3927 8.12835   1
   0   6   1 163.494 10.7698   3
   0  -6   1 161.464 10.1882   3
   0   6  -1 180.487 11.4282   1
   0   6   1 169.477 10.6815   1
   0  -6   1 161.470 10.6001   2
   0  -6  -1 166.258 10.6022   2
   2  -6   1 90.8203 6.72567   2
   2   6  -1 90.1096 6.96926   1
  -2  -6  -1 86.1791 5.78720   2
   2   6  -1 93.3655 7.14326   1
   2   6  -1 89.8077 6.21417   3
   2  -6   1 89.0725 6.13412   3
  -2   6   1 91.7970 6.95042   1
  -2   6  -1 86.7022 7.28883   1
   2   6   1 88.1274 5.89665   3
   2  -6  -1 107.143 8.86015   1
   2   6   1 87.8120 6.36095   1
   2  -6  -1 90.4566 6.65367   2
   2  -6  -1 92.8921 5.78786   3
  -2  -6   1 86.8676 5.67375   2
   4   6  -1 25.1533 3.55341   3
   4  -6   1 27.2669 4.33381   1
   4  -6   1 29.7319 4.07218   2
  -4   6   1 27.0281 4.18103   1
   4  -6   1 24.0542 3.50907   3
  -4  -6  -1 28.5604 3.66154   1
   4   6  -1 25.2370 4.00752   1
  -4  -6   1 33.6005 4.15175   1
   4  -6  -1 28.9060 3.32372   3
   4   6   1 28.8379 3.72498   1
   4  -6  -1 27.8602 3.93786   2
  -4   6  -1 23.5851 6.15192   1
   4  -6  -1 31.9513 6.30730   1
  -6   6   1 8.33951 3.05505   1
   6   6  -1 8.46971 2.48635   3
   6  -6   1 14.5945 3.91689   2
   6  -6   1 6.83871 2.50241   1
   6  -6  -1 10.0482 3.02672   1
  -6   6  -1 6.94078 3.12546   1
   6  -6  -1 6.30047 2.83616   2
   8   6  -1 -0.5301 2.29243   3
   8  -6   1 6.19832 3.90582   2
   8  -6  -1 1.45394 3.27995   2
  -1  -7  -1 763.479 46.0116   2
   1  -7   1 737.632 45.7512   3
  -1   7   1 802.402 45.8917   3
  -1   7   1 786.006 46.6703   1
   1   7  -1 757.965 45.9651   3
   1  -7   1 785.342 47.2822   1
   1  -7   1 765.975 46.4067   2
   1   7  -1 775.859 47.0213   1
   1   7  -1 771.684 47.4837   1
   1   7   1 729.287 46.1888   1
   1  -7  -1 816.718 46.7640   1
   1   7   1 808.819 46.3439   1
  -1   7  -1 786.576 46.0580   3
  -1  -7   1 769.268 46.0064   2
   1  -7  -1 761.232 46.3831   2
   1   7   1 799.639 45.7545   3
  -1   7  -1 763.650 47.2272   1
   3  -7   1 420.807 26.0332   3
   3  -7   1 442.923 26.8607   2
  -3   7   1 437.481 27.5311   1
   3   7  -1 443.184 26.1571   3
   3   7  -1 433.125 27.3561   1
   3  -7  -1 434.824 26.7770   2
   3  -7  -1 417.474 25.7550   3
   3   7   1 434.263 26.7674   1
  -3   7  -1 417.068 27.8550   1
   3  -7  -1 426.939 27.5095   1
   3   7   1 435.084 25.9231   3
   5   7  -1 210.150 12.7794   3
   5  -7   1 189.869 13.4942   2
  -5   7   1 182.317 14.4078   1
   5  -7   1 187.759 14.5735   1
  -5   7  -1 174.232 15.1621   1
   5  -7  -1 187.628 14.3352   1
   5  -7  -1 195.120 13.4168   2
   7   7  -1 78.1082 7.27349   3
   7  -7   1 73.4571 8.07421   2
   7   7   1 81.4137 7.23598   3
   7  -7  -1 78.9297 8.05445   2
   0   8   1 375.770 23.5849   1
   0   8  -1 386.649 23.2129   3
   0   8   1 405.012 22.9771   3
   0  -8  -1 362.417 23.4111   2
   0  -8   1 381.127 23.4712   2
   0   8  -1 392.007 24.4064   1
   0   8  -1 385.713 24.4677   1
   0   8   1 366.240 23.4915   1
   2  -8   1 274.784 19.0441   1
   2   8  -1 293.320 17.5735   3
   2   8  -1 275.257 18.5626   1
   2   8  -1 276.284 18.6420   1
   2  -8   1 279.598 18.2282   2
  -2  -8  -1 278.705 17.2498   2
   2  -8   1 289.687 17.3101   3
  -2   8   1 287.388 18.5704   1
   2   8   1 273.872 17.7668   1
   2  -8  -1 283.108 18.2131   2
   2   8   1 296.942 17.3018   3
  -2   8  -1 281.967 19.1254   1
   2  -8  -1 278.748 18.5944   1
   2   8   1 292.726 17.9482   1
   4   8  -1 141.752 9.82551   3
   4  -8   1 136.978 11.4637   1
   4  -8   1 143.369 10.7747   2
  -4   8   1 136.934 11.2760   1
   4  -8  -1 148.422 10.6840   2
   4   8   1 154.233 9.60818   3
  -4   8  -1 127.002 11.4173   1
   4  -8  -1 136.636 11.1406   1
   6   8  -1 58.8665 6.22135   3
   6  -8   1 61.3627 7.39359   2
   6  -8  -1 64.0153 7.28990   2
   6   8   1 63.0959 6.14602   3
   1   9  -1 148.623 11.0277   1
   1   9  -1 146.665 11.0452   1
  -1   9   1 156.950 9.98675   3
   1  -9   1 154.533 10.7164   2
  -1  -9  -1 150.761 10.0795   2
  -1   9   1 148.238 10.6176   1
   1   9  -1 162.537 10.1619   3
   1  -9   1 156.680 11.4640   1
   1   9   1 140.365 10.8579   1
   1  -9  -1 151.548 10.6444   2
  -1   9  -1 143.782 11.2199   1
  -1   9  -1 159.035 10.3153   3
   1   9   1 154.794 9.78571   3
  -1  -9   1 154.020 10.0671   2
   1   9   1 143.303 10.8246   1
   3  -9   1 97.4018 8.48533   2
   3   9  -1 102.102 8.50452   1
  -3   9   1 95.5797 8.45423   1
   3  -9   1 95.9702 8.84623   1
   3   9  -1 108.108 7.58508   3
   3   9   1 105.161 7.23564   3
   3   9   1 104.552 7.79884   1
   3  -9  -1 101.988 8.56789   1
   3  -9  -1 100.533 8.42288   2
  -3   9  -1 92.3179 8.89950   1
   5  -9   1 56.1137 6.99818   2
   5   9  -1 50.7834 5.69543   3
   5   9   1 50.7215 5.33337   3
   5  -9  -1 78.4158 9.50005   2
   7   9  -1 15.0979 3.64969   3
   7  -9   1 9.93105 3.66809   2
   7  -9  -1 11.2840 4.02293   2
   0  10   1 6.96807 1.83487   3
   0  10  -1 4.71782 2.05842   3
   0  10   1 6.43314 1.77938   1
   0 -10  -1 3.95953 2.26850   2
   0 -10   1 10.5681 2.72577   2
   0  10  -1 6.96407 2.41326   1
   2  10  -1 3.41496 2.15044   1
   2 -10   1 8.85975 3.21291   2
  -2 -10  -1 6.45057 1.80198   2
   2 -10   1 1.69693 1.88499   1
  -2  10   1 4.72716 2.19399   1
   2  10  -1 5.29658 1.98721   3
   2  10   1 5.46475 1.69220   1
   2 -10  -1 3.24186 1.76232   1
   2  10   1 3.69409 1.76164   3
  -2  10  -1 3.36070 1.93724   1
   2 -10  -1 7.64893 3.16611   2
  -2 -10   1 7.36148 1.71693   2
   4  10  -1 3.33969 2.18293   3
   4 -10   1 4.14303 4.36115   1
   4 -10   1 3.51349 3.09807   2
   4  10  -1 4.09270 2.37052   1
  -4  10   1 2.95381 3.16242   1
   4 -10  -1 2.89909 2.34668   1
   4 -10  -1 1.94518 3.40975   2
   4  10   1 1.80743 1.74397   1
   4  10   1 1.48269 1.85808   3
   6  10  -1 -0.8160 2.17551   3
   6 -10   1 2.01977 3.84258   2
   6 -10  -1 -0.7455 3.33017   2
   6  10   1 1.25235 2.09855   3
  -1 -11  -1 36.8218 4.20466   2
  -1  11   1 36.2044 4.25146   1
   1 -11   1 38.3761 4.96478   2
   1  11  -1 40.6059 4.51736   3
  -1  11  -1 47.1114 5.33312   3
   1  11   1 40.9071 4.17713   3
   1 -11  -1 33.8458 5.06336   2
  -1 -11   1 38.0138 4.21424   2
  -1  11  -1 31.1073 4.78513   1
   3  11  -1 23.0627 4.25877   1
   3 -11   1 19.3066 3.97300   2
   3  11  -1 25.3128 4.00640   3
   3 -11  -1 27.8567 5.25767   2
   3 -11  -1 19.5540 4.47500   1
   3  11   1 22.2988 3.60260   3
   5 -11   1 8.72714 3.21547   2
   5  11  -1 14.9036 3.06375   3
   5  11   1 12.6734 2.75688   3
   5 -11  -1 8.91838 3.71603   2
   0  12   1 37.8249 4.33342   3
   0  12  -1 38.1139 4.68445   3
   0 -12   1 31.4554 4.76676   2
   0 -12  -1 31.7856 4.66129   2
   0  12  -1 30.2337 4.78440   1
   2 -12   1 28.1161 5.28445   2
  -2 -12  -1 22.7471 3.28717   2
   2  12  -1 28.9233 4.44364   3
  -2 -12   1 25.4480 3.08909   2
   2  12   1 26.5147 3.88454   3
   2 -12  -1 20.6535 4.20356   2
   4 -12   1 10.8021 3.74883   2
   4  12  -1 13.5371 2.78582   3
   4 -12  -1 7.93090 3.63358   2
   4  12   1 17.6926 2.87230   3
   1  13  -1 41.7118 5.30295   3
   1 -13   1 37.7351 5.87336   2
  -1 -13  -1 39.9939 4.85290   2
  -1 -13   1 38.3712 4.69782   2
   1 -13  -1 42.6492 5.80399   2
   1  13   1 40.5703 4.68644   3
   3 -13   1 32.8650 6.13137   2
   3 -13  -1 26.1630 5.56117   2
   0 -14   1 13.0261 3.55842   2
   0  14  -1 8.35369 3.06894   3
   0 -14  -1 8.47293 3.47284   2
  -2   0   2 8441.66 491.375   4
  -2   0  -2 8546.39 490.749   4
   2   0  -2 8129.98 490.883   4
   2   0   2 8090.38 490.515   4
  -4   0   2 2932.94 146.161   1
   4   0   2 2284.75 143.499   2
   4   0   2 2326.57 144.778   1
  -4   0  -2 2396.25 144.914   1
   4   0  -2 2293.54 144.884   1
   6   0  -2 610.772 39.2311   1
  -6   0   2 747.726 41.1944   1
   6   0   2 581.803 36.8618   2
  -6   0  -2 591.240 39.1258   1
   6   0  -2 584.946 36.6661   2
   6   0   2 575.199 38.9284   1
  -8   0   2 165.042 14.8063   1
   8   0  -2 191.053 15.2475   1
   8   0  -2 181.981 11.8501   2
  -1   1   2 3386.34 200.291   4
  -1  -1  -2 3424.31 199.408   4
   1  -1   2 3398.57 201.447   4
   1   1  -2 3322.64 201.140   4
   1   1   2 3450.50 199.596   4
  -1  -1   2 3412.67 201.453   4
  -1   1  -2 3156.04 204.684   4
  -3  -1  -2 808.747 50.1126   1
   3  -1   2 819.186 49.3881   2
   3   1  -2 778.195 50.2488   1
   3   1  -2 730.014 48.9970   2
   3  -1   2 779.409 50.2516   1
  -3   1  -2 1131.06 51.8370   1
  -3  -1   2 953.072 51.0529   1
   3   1   2 828.816 49.1994   2
   3  -1  -2 777.964 49.2474   2
   3  -1  -2 793.472 50.2571   1
   3   1   2 789.502 50.0668   1
   5   1  -2 219.978 14.6432   2
   5   1  -2 225.526 16.6895   1
  -5  -1  -2 236.100 16.6508   1
   5  -1   2 233.299 15.1784   2
   5   1   2 216.105 14.8311   2
   5   1   2 232.194 16.5717   1
  -5   1  -2 231.113 16.9159   1
   5  -1  -2 236.699 15.0206   2
   5  -1  -2 303.305 18.5129   1
  -5  -1   2 295.746 18.2999   1
  -7  -1  -2 57.8712 7.29451   1
   7  -1   2 71.1119 6.14100   2
  -7   1   2 60.9172 7.39627   1
   7   1  -2 65.4355 7.77392   1
   7   1  -2 71.5324 5.26343   2
   7  -1   2 100.839 10.9654   1
   7   1   2 63.7760 7.77432   1
  -7   1  -2 64.5927 7.68403   1
   7  -1  -2 68.1558 5.82840   2
   7  -1  -2 79.3490 9.35230   1
   7   1   2 71.2119 5.58589   2
  -7  -1   2 99.7930 10.5979   1
   9   1  -2 21.5732 4.14323   3
   9   1  -2 17.1045 3.35822   2
   9  -1   2 21.0812 3.92494   2
   9   1   2 21.8050 3.98840   2
   9  -1  -2 19.2346 3.76615   2
   9  -1  -2 19.9474 3.88027   3
   0  -2   2 2944.87 143.064   1
   0   2  -2 1897.84 142.021   1
   2  -2   2 792.204 49.6680   1
   2   2  -2 773.257 48.7492   3
   2  -2   2 821.814 48.9498   2
   2  -2   2 742.494 48.7483   3
   2   2  -2 768.476 49.4851   1
  -2  -2  -2 790.617 49.1064   1
  -2   2   2 788.454 49.3812   1
   2   2   2 793.657 49.1146   1
  -2   2  -2 1013.42 51.9671   1
  -2  -2   2 1022.30 50.4794   1
   2  -2  -2 807.144 48.9091   2
   4  -2   2 187.354 12.2359   2
  -4   2   2 184.940 14.1974   1
   4   2  -2 180.878 11.4764   2
   4   2  -2 191.386 13.4010   1
  -4  -2  -2 189.905 13.4123   1
   4   2   2 190.100 11.7497   2
   4  -2  -2 188.268 12.1048   2
  -4  -2   2 202.141 13.5563   1
  -4   2  -2 198.950 13.6312   1
   4  -2  -2 192.512 13.3110   1
   4   2   2 193.666 13.1017   1
  -6  -2  -2 57.2241 6.36426   1
   6  -2   2 51.5034 6.28382   1
   6   2  -2 60.6141 6.51156   1
   6   2  -2 58.9709 4.80042   2
   6  -2   2 52.2925 5.27969   2
   6  -2  -2 56.6728 6.34318   1
  -6   2  -2 60.1439 6.79537   1
   6   2   2 56.1567 4.36997   2
   6   2   2 57.6539 6.43905   1
   6  -2  -2 54.4802 5.05063   2
  -6  -2   2 51.0675 6.43996   1
  -8   2   2 10.4919 4.13053   1
   8   2  -2 8.69082 2.64477   3
   8  -2   2 16.3599 3.65153   2
   8  -2  -2 5.14442 3.01306   1
   8   2   2 13.2439 2.39217   2
   8  -2  -2 19.6667 3.38467   2
   1   3  -2 769.566 48.9239   3
   1  -3   2 712.886 49.4729   2
   1  -3   2 851.315 49.8575   1
  -1  -3  -2 841.366 48.9079   2
   1   3  -2 792.898 49.6325   1
  -1   3   2 835.563 49.1818   1
   1  -3   2 803.093 48.9593   3
  -1   3  -2 859.238 49.8842   1
   1  -3  -2 981.038 49.6709   2
  -1  -3   2 834.149 48.8434   2
   1  -3  -2 859.966 48.6071   3
   1  -3  -2 848.604 48.6020   3
  -1  -3   2 805.677 48.9190   3
   1  -3  -2 833.406 49.1801   1
   3  -3   2 218.321 13.9143   2
   3  -3   2 213.767 13.7082   3
   3  -3   2 226.434 14.9511   1
  -3  -3  -2 228.473 14.2838   1
   3   3  -2 217.017 13.6844   3
   3   3  -2 218.522 14.7353   1
  -3   3   2 225.845 14.6473   1
   3  -3  -2 214.584 13.8199   2
  -3  -3   2 222.708 14.7861   1
   3   3   2 227.776 14.3008   1
   3   3   2 227.218 13.3668   2
   3  -3  -2 211.735 14.5335   1
  -5  -3  -2 63.4149 6.02973   1
   5  -3   2 62.6848 5.43440   2
   5   3  -2 65.1077 6.42469   1
   5  -3   2 62.4800 6.40180   1
   5   3  -2 63.4137 5.23723   3
  -5   3   2 58.8505 6.32373   1
   5  -3  -2 62.4750 6.25668   1
   5   3   2 58.7710 5.95820   1
   5  -3  -2 57.5339 5.21052   2
  -5   3  -2 60.1884 6.64040   1
  -5  -3   2 57.3085 6.25842   1
   5   3   2 60.1068 4.23757   2
   7  -3   2 15.3791 3.22677   2
   7   3  -2 14.8336 2.82389   3
  -7   3   2 4.42520 1.81220   1
   7  -3   2 13.1920 3.88410   1
   7   3  -2 19.4177 6.04788   1
   7  -3  -2 20.1099 3.58041   2
   7   3   2 14.3654 2.36069   2
  -7   3  -2 21.2921 5.14065   1
  -7  -3   2 18.0377 3.91104   1
   7  -3  -2 12.6075 4.98353   1
   9   3  -2 5.07171 2.64290   3
   9  -3   2 4.09469 3.37531   2
   9  -3  -2 3.08360 3.01140   2
   0  -4  -2 1340.08 80.1781   2
   0  -4   2 1336.81 79.3588   3
   0  -4   2 1345.82 79.4796   2
   0   4  -2 1373.75 80.3269   1
   0  -4   2 1359.16 80.3702   1
   2   4  -2 801.275 48.8893   3
  -2   4   2 815.144 49.5400   1
   2   4  -2 818.357 49.8798   1
  -2  -4  -2 825.095 49.0397   1
   2  -4   2 838.694 50.1333   1
   2  -4   2 830.812 49.1773   2
   2  -4   2 829.109 48.9323   3
   2   4   2 835.713 49.0481   1
  -2  -4   2 824.081 49.9291   1
  -2   4  -2 810.236 50.0977   1
   2  -4  -2 827.354 49.1404   2
   2  -4  -2 853.659 48.6478   3
  -2  -4   2 833.062 48.5338   2
   2  -4  -2 831.748 49.5463   1
   4   4  -2 267.106 17.6582   3
   4  -4   2 267.873 17.7065   3
  -4   4   2 293.929 19.1108   1
   4  -4   2 292.008 19.3675   1
   4  -4   2 285.982 18.0596   2
   4   4  -2 289.919 19.1088   1
  -4  -4  -2 277.111 18.4443   1
  -4   4  -2 315.337 19.7178   1
   4   4   2 292.317 18.6049   1
   4   4   2 283.731 17.0474   2
  -4  -4   2 277.955 19.0730   1
   4  -4  -2 287.628 17.9558   2
   4  -4  -2 285.345 18.9734   1
   6  -4   2 90.8665 7.51121   2
   6   4  -2 98.5178 9.84824   1
   6  -4   2 59.6672 7.90698   3
   6   4  -2 90.4705 7.15941   3
  -6  -4  -2 97.4348 8.16904   1
  -6   4   2 90.0906 8.66512   1
   6  -4   2 94.7092 9.94863   1
  -6   4  -2 93.0437 12.3041   1
  -6  -4   2 55.0990 9.60692   1
   6  -4  -2 91.0055 8.52380   1
   6  -4  -2 96.4854 7.29593   2
   6   4   2 81.9670 11.2206   1
   8  -4   2 38.2698 5.67599   2
   8   4  -2 38.3336 5.50382   3
   8  -4  -2 31.2440 5.29506   2
   1  -5   2 911.780 52.4751   3
   1   5  -2 850.178 53.1063   1
  -1   5   2 885.204 52.4155   1
   1   5  -2 891.226 52.4881   3
   1   5  -2 873.561 53.2003   1
   1  -5   2 853.720 53.2947   1
   1  -5   2 832.448 52.3913   2
  -1   5  -2 878.204 53.3539   1
   1  -5  -2 967.438 52.5411   1
  -1   5  -2 861.517 52.2182   3
   1  -5  -2 908.647 52.4462   2
  -1  -5   2 882.514 52.0990   2
   3  -5   2 335.687 21.3976   3
   3   5  -2 341.790 21.3882   3
  -3  -5  -2 356.744 21.8225   1
  -3   5   2 350.731 22.4461   1
   3  -5   2 330.015 25.6625   1
   3  -5   2 362.789 21.8635   2
   3   5  -2 351.315 22.6065   1
   3  -5  -2 352.376 21.7615   2
   3  -5  -2 346.105 22.3361   1
  -3   5  -2 366.168 23.2790   1
  -3  -5   2 369.738 22.8095   1
   3   5   2 354.188 21.8186   1
   3  -5  -2 347.843 21.1039   3
   5   5  -2 117.908 9.84132   1
  -5  -5  -2 122.947 10.0662   1
   5   5  -2 114.554 8.28253   3
  -5   5   2 105.616 9.53878   1
   5  -5   2 113.868 8.43986   3
   5  -5   2 111.256 9.83081   1
   5  -5   2 117.897 8.98152   2
  -5  -5   2 116.802 9.74444   1
   5  -5  -2 109.771 10.2097   2
   5  -5  -2 111.075 9.44522   1
  -5   5  -2 111.348 9.95143   1
   5   5   2 112.724 9.10974   1
   7  -5   2 39.3665 6.31803   1
   7   5  -2 42.4640 5.36618   3
   7  -5   2 41.0494 5.69849   2
   7  -5  -2 37.0425 5.49877   2
   7  -5  -2 34.6668 5.84606   1
  -7   5  -2 30.9956 5.96796   1
   0   6   2 184.677 12.2267   3
   0   6  -2 155.733 13.4857   3
   0  -6  -2 214.324 12.4632   2
   0  -6   2 202.594 12.4277   2
   0  -6   2 212.190 12.1913   3
   0   6  -2 206.326 13.4321   1
   2   6  -2 145.468 9.52561   3
  -2  -6  -2 134.695 9.34478   2
   2  -6   2 158.147 10.9536   1
  -2   6   2 143.254 10.0542   1
   2   6  -2 152.257 10.6935   1
   2   6  -2 148.710 10.5537   1
   2  -6   2 152.461 9.98125   2
   2  -6   2 142.314 9.47118   3
   2  -6  -2 144.039 9.88025   2
  -2  -6   2 147.269 9.02263   2
  -2   6  -2 141.121 9.64336   3
  -2   6  -2 146.379 10.8063   1
   2   6   2 141.517 9.31452   1
   2  -6  -2 158.242 10.2022   1
   4  -6   2 64.2285 6.67053   1
   4   6  -2 66.4571 5.42738   3
   4   6  -2 60.7552 6.22867   1
   4  -6   2 63.8899 5.41090   3
   4  -6   2 67.0888 5.93343   2
  -4  -6  -2 66.2515 5.58683   1
  -4   6   2 63.5667 6.20085   1
   4  -6  -2 65.5842 5.80085   2
   4   6   2 64.3538 5.56097   1
  -4   6  -2 65.2476 6.84522   1
   4  -6  -2 42.3720 5.27339   1
  -4  -6   2 65.8936 6.42169   1
   6  -6   2 32.8395 5.07443   2
  -6   6   2 19.3138 4.38385   1
   6   6  -2 31.5417 4.58339   3
   6  -6   2 24.8405 4.79038   1
   6  -6  -2 29.4383 6.76783   1
  -6   6  -2 20.8040 4.86257   1
   6  -6  -2 31.3377 4.74464   2
   8   6  -2 8.01598 3.00178   3
   8  -6   2 17.5166 4.78298   2
   8  -6  -2 10.8499 4.25585   2
   1   7  -2 299.852 18.3712   3
  -1  -7  -2 300.822 18.3266   2
   1   7  -2 303.523 19.5556   1
   1  -7   2 291.783 18.1735   3
  -1   7   2 305.165 18.5724   1
   1  -7   2 288.689 18.6736   2
   1   7  -2 284.990 19.5328   1
   1  -7  -2 293.841 18.6781   2
  -1   7  -2 296.059 19.6822   1
  -1  -7   2 304.238 18.3060   2
   1   7   2 307.886 17.8462   3
   1  -7  -2 321.061 18.6823   1
  -1   7  -2 286.197 18.4090   3
   3  -7   2 143.539 10.1050   2
   3  -7   2 132.601 9.31555   3
   3   7  -2 138.186 10.5757   1
  -3   7   2 143.743 10.3701   1
   3   7  -2 136.605 9.46676   3
   3  -7   2 138.030 10.9730   1
   3   7   2 142.946 9.42258   1
   3  -7  -2 138.012 9.93611   2
  -3   7  -2 140.847 11.1556   1
   3  -7  -2 132.559 8.59023   3
   3  -7  -2 139.241 11.6237   1
  -5   7   2 45.9329 5.96411   1
   5   7  -2 51.4860 5.41240   3
   5  -7   2 53.4718 6.40857   1
   5  -7   2 53.0404 6.17154   2
   5  -7  -2 48.9119 5.89454   2
  -5   7  -2 49.6653 6.56139   1
   7  -7   2 10.7698 3.45433   2
   7   7  -2 16.2435 3.42083   3
   7  -7  -2 14.9816 4.07242   2
   0  -8   2 1296.67 79.7213   3
   0   8  -2 1299.58 81.4499   1
   0   8  -2 1323.59 81.6055   1
   0  -8   2 1377.93 80.3423   2
   0   8  -2 1388.27 80.1180   3
   0  -8  -2 1356.41 80.2949   2
   0   8   2 1445.54 79.6791   3
  -2  -8  -2 1025.80 60.7240   2
   2   8  -2 1002.94 62.6262   1
   2   8  -2 989.676 62.3004   1
   2  -8   2 1025.42 61.5652   2
  -2   8   2 1023.69 61.6996   1
   2   8  -2 1018.94 60.9421   3
  -2  -8   2 1177.21 61.4124   2
   2  -8  -2 1002.68 61.4775   2
  -2   8  -2 937.609 62.5163   1
   2   8   2 1043.60 60.4837   3
  -2   8  -2 1026.10 61.0479   3
   2  -8  -2 1042.54 61.7690   1
   4  -8   2 547.525 35.6832   1
   4  -8   2 556.326 34.3086   2
   4   8  -2 562.894 33.4309   3
  -4   8   2 534.228 35.0029   1
   4  -8  -2 556.128 34.1727   2
   4  -8  -2 603.876 38.9964   1
  -4   8  -2 472.478 35.3898   1
   4   8   2 563.467 33.0023   3
   6   8  -2 243.709 16.4119   3
   6  -8   2 236.927 17.4302   2
   6   8   2 250.891 16.0857   3
   6  -8  -2 253.235 17.3681   2
   1  -9   2 191.972 14.9436   1
  -1   9   2 205.750 13.8493   1
   1   9  -2 206.066 14.3892   1
  -1  -9  -2 200.016 12.8808   2
   1   9  -2 182.845 14.0702   1
   1  -9   2 184.530 12.4059   3
   1   9  -2 200.282 12.9716   3
   1  -9   2 200.266 13.4639   2
  -1  -9   2 202.123 12.8940   2
   1   9   2 217.946 12.3983   3
  -1   9  -2 215.812 13.1482   3
   1  -9  -2 197.443 13.4034   2
  -1   9  -2 188.751 14.3230   1
   3   9  -2 138.816 11.1349   1
   3   9  -2 147.291 10.0770   3
  -3   9   2 148.628 10.9719   1
   3  -9   2 138.850 10.8436   2
   3  -9  -2 143.307 10.8239   1
   3  -9  -2 157.581 10.9458   2
   3   9   2 150.046 9.47441   3
  -3   9  -2 127.642 11.4126   1
   5   9  -2 73.4075 6.91778   3
   5  -9   2 79.2708 8.02563   2
   5  -9  -2 76.5855 7.90378   2
   5  -9  -2 75.2801 5.50893   3
   5   9   2 80.0886 6.35308   3
   7  -9   2 16.9451 5.00300   2
   7   9  -2 38.5974 6.25483   3
   7  -9  -2 26.6228 5.44566   2
   7   9   2 31.4763 4.88603   3
   0 -10  -2 0.94601 2.21516   2
   0  10   2 1.83031 1.52489   3
   0 -10   2 2.63635 2.18850   2
   0  10  -2 0.82273 1.93623   3
   2  10  -2 2.48314 1.93094   1
  -2  10   2 0.58396 1.63844   1
   2 -10   2 1.81922 3.30032   1
  -2 -10  -2 1.09965 1.59469   2
   2 -10   2 -1.0131 2.22906   2
   2  10  -2 0.21165 1.81199   3
  -2  10  -2 0.72857 2.41524   1
  -2 -10   2 0.36976 1.39424   2
   2  10   2 1.63220 1.45430   3
   2 -10  -2 1.01479 2.52535   2
   2 -10  -2 3.24286 1.58391   1
  -4  10   2 -0.1645 3.38224   1
   4 -10   2 1.06830 3.21049   2
   4  10  -2 1.35534 2.17083   3
   4 -10  -2 0.95376 1.94131   1
   4  10   2 1.95037 1.75508   3
   4 -10  -2 0.68682 2.64099   2
   6  10  -2 0.44998 2.15183   3
   6 -10   2 1.25483 3.79674   2
   6  10   2 0.73322 2.19921   3
   6 -10  -2 -0.5190 2.87055   2
   1 -11   2 25.1746 4.57179   2
   1  11  -2 29.1443 4.37521   3
  -1 -11  -2 24.5605 3.73426   2
   1  11  -2 28.0702 4.60632   1
  -1  11  -2 18.6766 3.97627   1
  -1 -11   2 24.8655 3.62572   2
  -1  11  -2 33.3071 4.59886   3
   1 -11  -2 25.7144 4.64373   2
   1  11   2 25.0129 3.38842   3
  -3  11   2 16.9936 3.59970   1
   3 -11   2 12.8956 3.65917   2
   3  11  -2 19.0319 3.37284   3
   3  11   2 19.1867 3.23238   3
   3 -11  -2 12.9458 2.99603   1
   3 -11  -2 19.7249 4.59973   2
   5 -11   2 3.99166 2.97522   2
   5  11  -2 6.06672 2.55851   3
   5 -11  -2 6.72660 3.86952   2
   5  11   2 5.95491 2.27410   3
   0  12  -2 19.5344 3.62938   3
   0  12   2 21.5477 3.59252   3
   0 -12   2 20.8761 3.83803   2
   0 -12  -2 18.2129 3.64682   2
  -2 -12  -2 17.8998 2.90521   2
   2 -12   2 12.3880 3.47673   2
  -2  12   2 12.1320 2.96532   1
   2  12  -2 13.1224 2.97466   3
  -2 -12   2 14.5499 2.63350   2
   2  12   2 15.0602 2.58358   3
   2 -12  -2 17.7053 4.30302   2
   4 -12   2 5.97686 3.38445   2
   4  12  -2 7.44183 2.62461   3
   4 -12  -2 9.59211 4.12223   2
   4  12   2 8.61550 2.48747   3
  -1 -13  -2 32.8321 4.66687   2
   1 -13   2 29.0560 5.65806   2
   1  13  -2 32.7756 5.33077   3
  -1  13  -2 35.3724 5.58055   3
   1  13   2 33.7684 4.24496   3
   1 -13  -2 33.6450 5.67030   2
  -1 -13   2 34.5376 4.42615   2
   3  13  -2 36.4010 6.48263   3
   3 -13   2 27.3067 5.76403   2
   3 -13  -2 14.3619 4.52244   2
   0 -14  -2 103.099 8.87459   2
   0  14  -2 112.106 9.10283   3
   0 -14   2 93.9033 8.68057   2
   0   0  -3 0.44730 0.73731   1
   0   0   3 -0.0653 0.87465   3
   2   0  -3 1.45255 1.27471   1
  -2   0  -3 0.84209 1.04015   1
   2   0   3 2.26383 1.67138   2
  -2   0   3 -0.1224 0.93069   1
   2   0  -3 1.41024 1.01188   2
   2   0   3 0.13811 1.07718   1
   2   0  -3 1.87647 1.09521   3
   4   0  -3 2.10272 1.67269   1
  -4   0  -3 0.11844 1.39424   1
   4   0  -3 1.39170 1.38944   3
  -4   0   3 0.19782 1.11727   1
   4   0   3 0.56735 1.48093   2
   4   0   3 1.40123 1.34399   1
   4   0  -3 1.73407 1.27551   2
   6   0   3 2.36996 2.09495   1
   6   0   3 -0.3057 1.85579   2
  -6   0   3 0.25039 2.30328   1
  -6   0  -3 -0.3953 1.70381   1
   6   0  -3 1.97642 2.08055   3
   6   0  -3 -1.2147 2.13199   1
   6   0  -3 0.51785 1.66395   2
   8   0  -3 -0.4867 2.30015   1
   8   0  -3 0.35315 2.22929   3
   8   0  -3 0.72565 2.06341   2
   8   0   3 -0.7062 2.25123   2
   1   1  -3 2399.29 144.925   1
   1  -1   3 2529.37 145.029   1
  -1   1   3 2380.38 144.688   1
  -1  -1  -3 2529.97 144.596   1
   1   1   3 2541.77 144.614   1
  -1  -1   3 2381.69 144.946   1
  -1   1  -3 2475.28 144.994   1
   3   1  -3 801.224 49.6917   3
   3  -1   3 851.738 49.8913   2
   3  -1   3 829.118 50.8479   1
   3   1  -3 822.593 50.8579   1
  -3   1   3 1057.73 51.9513   1
  -3  -1  -3 842.178 50.6183   1
   3   1  -3 778.872 49.4754   2
   3  -1  -3 782.709 49.6060   3
  -3  -1   3 843.895 50.9521   1
   3  -1  -3 802.222 49.6873   2
   3   1   3 828.924 50.5750   1
   3  -1  -3 824.501 50.7761   1
   3   1   3 826.607 49.7158   2
  -3   1  -3 874.817 51.0039   1
  -5   1   3 246.982 16.0310   1
   5   1  -3 188.076 12.4774   2
   5  -1   3 207.251 14.6708   1
   5   1  -3 205.389 14.7498   1
   5  -1   3 209.882 13.1415   2
   5   1  -3 186.577 12.9800   3
  -5  -1  -3 211.079 14.6032   1
   5  -1  -3 191.592 14.5335   1
   5  -1  -3 193.835 12.8236   2
  -5  -1   3 188.074 14.6156   1
   5   1   3 203.687 14.4379   1
  -5   1  -3 202.208 14.7967   1
   5   1   3 200.185 12.8324   2
  -7   1   3 40.8594 6.10729   1
   7   1  -3 48.0478 4.05004   2
   7   1  -3 45.3427 6.16696   1
   7   1  -3 44.9660 5.43903   3
   7  -1   3 51.2242 6.71630   1
   7  -1   3 40.5627 6.14056   2
   7  -1  -3 47.4594 6.11389   1
  -7   1  -3 33.8216 5.91072   1
  -7  -1   3 71.4606 9.30728   1
   7   1   3 48.8044 4.54940   2
   7  -1  -3 42.0322 4.50767   2
   9   1  -3 10.0415 2.90421   3
   9  -1   3 13.2715 3.47966   2
   9  -1  -3 7.52140 2.88092   2
   9   1   3 8.03625 2.47744   2
   9  -1  -3 8.12773 2.64032   3
   0  -2   3 402.202 29.2806   1
   0  -2   3 465.700 26.9402   2
   0  -2  -3 467.124 26.9202   2
   0   2  -3 465.512 27.6790   1
   0  -2  -3 441.113 27.3771   1
   0   2  -3 444.415 26.8491   3
   0  -2   3 432.590 26.8331   3
   0   2   3 447.260 26.5318   3
   0  -2  -3 493.362 26.8925   1
  -2   2   3 261.646 16.5795   1
   2  -2   3 267.292 16.2131   2
   2  -2   3 261.908 17.0059   1
   2  -2   3 254.774 15.9660   3
   2   2  -3 264.406 15.9838   3
   2   2  -3 249.972 16.8205   1
  -2  -2  -3 271.847 16.3001   1
   2  -2  -3 250.097 15.7282   3
   2  -2  -3 263.968 16.0449   2
   2   2   3 266.849 16.3055   1
  -2   2  -3 270.888 17.0331   1
   4   2  -3 82.1743 7.46733   1
   4   2  -3 63.6096 4.70425   2
   4  -2   3 72.1457 6.58219   1
  -4   2   3 78.1658 7.13900   1
   4   2  -3 71.5996 5.54170   3
   4  -2   3 71.5597 5.64630   2
  -4  -2  -3 66.8956 6.07380   1
   4   2   3 74.5465 6.18420   1
  -4   2  -3 74.1819 6.77536   1
  -4  -2   3 72.6270 6.66888   1
   4  -2  -3 72.8004 5.43232   2
   4  -2  -3 69.9370 7.25719   1
   4   2   3 70.6147 5.19491   2
  -6   2   3 9.24869 2.98179   1
   6   2  -3 11.9963 3.24055   1
   6   2  -3 14.7084 2.85744   3
   6  -2   3 19.0093 3.45866   2
  -6  -2  -3 16.5814 3.92875   1
   6   2  -3 11.4466 2.06630   2
   6  -2   3 15.3643 3.82435   1
  -6  -2   3 13.5428 3.43328   1
   6  -2  -3 14.1500 2.78710   2
   6  -2  -3 16.0777 3.53993   1
   6   2   3 11.9977 3.08819   1
  -6   2  -3 13.2309 3.35454   1
   6   2   3 16.2216 2.64545   2
   8   2  -3 4.31960 2.65670   3
   8  -2   3 1.97159 3.02174   2
   8   2   3 4.61901 2.10272   2
   8  -2  -3 2.07552 2.61364   3
   8  -2  -3 -0.2597 2.37618   2
   1  -3   3 971.503 63.0252   1
   1   3  -3 1315.70 62.2401   1
  -1   3   3 1043.55 60.6842   1
   1  -3   3 986.694 60.3520   2
   1  -3   3 949.187 60.1741   3
  -1  -3  -3 993.796 60.1712   2
  -1  -3   3 967.582 60.1619   3
  -1   3  -3 1006.65 61.2833   1
   1  -3  -3 1018.60 60.5357   1
  -1  -3   3 1013.46 60.1290   2
   1  -3  -3 1018.12 60.3135   2
  -1   3  -3 978.600 60.2012   3
   3  -3   3 336.073 20.7226   2
   3   3  -3 323.928 20.4322   3
   3  -3   3 321.759 20.4496   3
   3  -3   3 338.717 21.8315   1
  -3  -3  -3 349.131 22.0573   1
   3   3  -3 329.501 21.5914   1
  -3   3   3 330.337 21.3803   1
   3  -3  -3 319.000 20.1752   3
  -3  -3   3 325.684 21.6590   1
  -3   3  -3 361.172 22.0343   1
   3   3   3 345.200 21.2475   1
   3   3   3 350.337 20.2560   2
   3  -3  -3 337.415 20.5806   2
   5   3  -3 91.5187 7.34900   3
  -5   3   3 95.5150 8.53954   1
   5   3  -3 99.5326 8.64298   1
   5  -3   3 92.2352 7.38634   3
   5  -3   3 99.9108 7.60504   2
   5  -3   3 104.194 9.03237   1
  -5  -3  -3 102.572 8.27168   1
   5   3   3 103.167 6.67636   2
   5   3   3 95.4861 8.13486   1
   5  -3  -3 96.9197 7.35015   2
  -5   3  -3 98.1878 8.92641   1
   5  -3  -3 101.013 8.54119   1
  -5  -3   3 96.4011 8.78471   1
   7   3  -3 30.2364 5.52645   1
   7   3  -3 34.2539 4.99527   3
  -7   3   3 29.7843 5.00515   1
   7  -3   3 28.9331 5.52898   1
   7  -3   3 37.5318 5.04334   2
   7  -3   3 33.2595 4.79067   3
  -7  -3   3 34.2989 5.82721   1
  -7   3  -3 32.2996 6.02829   1
   7  -3  -3 32.5153 4.60185   2
   7  -3  -3 35.0382 5.36643   1
   7   3   3 30.9675 3.14865   2
   9   3  -3 9.94453 3.23609   3
   0  -4  -3 1407.72 78.6116   2
   0   4  -3 1284.95 78.4992   3
   0  -4   3 1314.57 78.5686   2
   0   4  -3 1337.70 79.6169   1
   0  -4   3 1313.94 78.4663   3
   0  -4   3 1344.39 79.6839   1
   2   4  -3 707.257 42.3219   1
   2  -4   3 722.610 41.4781   2
  -2   4   3 720.666 41.7701   1
   2  -4   3 700.020 41.1788   3
  -2  -4  -3 694.681 41.0614   1
   2   4  -3 694.372 41.1475   3
   2  -4   3 731.461 42.6015   1
  -2  -4   3 736.717 40.8641   2
  -2  -4   3 682.455 42.3506   1
  -2   4  -3 693.979 42.5828   1
   2   4   3 753.631 41.1640   1
  -2   4  -3 708.440 41.2043   3
   2  -4  -3 442.176 40.9537   3
   2  -4  -3 702.270 41.8201   1
   2  -4  -3 677.308 40.6957   3
   2  -4  -3 709.351 41.3637   2
  -4  -4  -3 255.364 16.5216   1
   4  -4   3 251.748 16.2105   2
   4   4  -3 252.506 15.8590   3
   4  -4   3 260.142 17.5868   1
  -4   4   3 248.068 17.0826   1
   4   4  -3 251.758 17.3283   1
   4  -4   3 238.779 15.8669   3
   4  -4  -3 254.548 16.0615   2
   4  -4  -3 247.014 16.9866   1
   4   4   3 255.460 15.4325   2
  -4   4  -3 258.485 17.7070   1
  -4  -4   3 248.445 17.3654   1
   4   4   3 246.908 16.5037   1
   6  -4   3 89.8063 7.38445   2
   6  -4   3 90.4593 8.61919   1
   6   4  -3 74.5544 9.99932   1
   6   4  -3 95.3961 7.14640   3
   6  -4   3 69.2896 8.59069   3
  -6   4   3 78.1263 8.07031   1
  -6  -4   3 66.6941 9.40123   1
   6  -4  -3 80.6088 8.04085   1
  -6   4  -3 85.8625 8.78421   1
   6  -4  -3 82.3078 7.11018   2
   8   4  -3 32.4811 5.73648   3
   8  -4   3 29.0886 5.50617   2
   8  -4  -3 25.4303 4.98538   2
   8  -4  -3 28.3729 4.37028   3
   1   5  -3 1026.90 62.0745   1
   1   5  -3 1008.75 61.9858   1
   1  -5   3 954.777 61.2784   3
   1  -5   3 994.465 62.1271   1
  -1   5   3 1066.10 60.8800   1
   1  -5   3 1022.27 61.0627   2
  -1  -5  -3 1033.23 60.8172   2
   1  -5  -3 1066.56 61.0611   2
  -1  -5   3 1024.16 60.7826   3
   1  -5  -3 1093.91 60.9297   1
  -1   5  -3 1016.04 60.8701   3
  -1  -5   3 748.580 61.3763   2
  -1   5  -3 1334.77 63.4670   1
  -3  -5  -3 484.129 28.5902   1
   3  -5   3 446.077 28.3690   3
   3   5  -3 463.374 29.6986   1
   3   5  -3 466.366 28.3881   3
   3  -5   3 465.882 30.0506   1
  -3   5   3 462.476 29.2896   1
   3  -5   3 474.895 28.8017   2
  -3  -5   3 477.509 27.6233   2
   3  -5  -3 464.072 27.9100   3
   3   5   3 478.356 28.5884   1
  -3   5  -3 488.220 30.2141   1
   3  -5  -3 467.193 28.6744   2
   3  -5  -3 457.656 27.8871   3
  -3  -5   3 479.121 29.9154   1
   3  -5  -3 465.397 29.2589   1
   5   5  -3 179.556 12.9991   1
  -5  -5  -3 169.162 11.8745   1
   5  -5   3 163.350 13.0117   1
   5  -5   3 164.965 11.2331   3
  -5   5   3 150.235 12.3654   1
   5  -5   3 164.027 11.6992   2
   5   5  -3 161.683 11.1079   3
  -5  -5   3 147.103 12.4309   1
   5  -5  -3 162.528 12.4579   1
  -5   5  -3 165.850 13.1820   1
   5  -5  -3 167.734 11.4981   2
   5   5   3 158.294 9.99445   2
   5   5   3 165.257 11.9576   1
   7   5  -3 56.4944 5.85104   3
   7  -5   3 50.0257 7.27863   1
   7  -5   3 46.6294 6.35824   2
  -7   5  -3 29.5639 6.28799   1
   7  -5  -3 52.7801 5.99135   2
   0   6  -3 22.8889 3.60830   3
   0  -6   3 23.2624 2.80218   3
   0  -6  -3 25.4126 2.91105   2
   0   6  -3 22.2039 3.36934   1
   0  -6   3 21.5665 2.79106   2
  -2   6   3 13.4258 2.35954   1
   2   6  -3 13.7989 3.06516   1
   2  -6   3 12.3808 2.41777   2
   2   6  -3 14.2630 2.34304   3
  -2  -6  -3 12.2918 2.13522   2
   2   6  -3 13.5214 3.04334   1
   2  -6   3 11.2748 2.99125   1
   2  -6   3 14.3866 2.25206   3
  -2   6  -3 16.1831 2.55310   3
   2  -6  -3 15.6796 2.42676   1
  -2  -6   3 11.0868 1.81146   2
   2  -6  -3 13.0729 2.38257   2
  -2   6  -3 10.4104 2.71084   1
   4   6  -3 4.83932 1.97532   3
   4  -6   3 7.99440 2.23158   3
  -4  -6  -3 5.39866 1.76600   1
  -4   6   3 7.30911 2.26168   1
   4  -6   3 9.81522 4.15810   2
   4  -6   3 7.40734 2.69268   1
   4   6  -3 5.53625 2.18356   1
  -4  -6   3 7.81388 2.81009   1
   4  -6  -3 6.78353 2.18354   1
   4   6   3 7.75276 1.58457   2
  -4   6  -3 10.4260 3.58529   1
   4  -6  -3 8.43764 1.60938   3
   4  -6  -3 6.76884 1.59716   3
   4  -6  -3 9.13811 4.02582   2
   6   6  -3 3.77244 2.51360   3
  -6   6   3 3.40967 2.00334   1
   6  -6   3 3.25145 2.85348   1
   6  -6   3 4.57822 3.48555   2
   6  -6  -3 5.76880 3.28672   2
   6  -6  -3 4.76406 1.95326   3
   6  -6  -3 1.94942 2.07535   1
   8  -6   3 4.61626 3.97749   2
   8   6  -3 2.30369 2.78238   3
   8  -6  -3 2.52723 3.19661   2
   1  -7   3 726.515 43.7564   3
   1  -7   3 684.322 45.3011   1
   1  -7   3 727.362 44.2023   2
  -1  -7  -3 756.095 43.9046   2
   1   7  -3 724.827 43.8966   3
   1   7  -3 705.289 45.3220   1
   1   7  -3 721.121 45.2810   1
   1  -7  -3 801.493 43.8613   1
  -1   7  -3 722.046 45.4874   1
   1  -7  -3 746.242 44.1856   2
  -1  -7   3 739.744 43.8165   2
  -1  -7   3 727.724 43.6866   3
   1   7   3 765.508 43.1820   3
  -1   7  -3 741.830 43.9541   3
  -3   7   3 443.351 27.6623   1
   3  -7   3 439.224 32.2473   1
   3   7  -3 437.719 28.3075   1
   3   7  -3 453.411 26.7945   3
   3  -7   3 475.688 27.1021   3
   3   7  -3 446.404 28.5511   1
   3  -7   3 471.285 27.7034   2
  -3   7  -3 404.133 28.8522   1
   3  -7  -3 354.311 28.1643   2
   3  -7  -3 446.489 27.6673   1
  -5   7   3 191.963 16.0078   1
   5  -7   3 212.805 16.7897   1
   5   7  -3 209.629 14.7465   3
   5  -7   3 321.337 17.8358   2
   5  -7  -3 285.257 17.0252   2
  -5   7  -3 190.955 16.7129   1
   5  -7  -3 208.310 14.0208   3
   5  -7  -3 213.723 16.1020   1
   7  -7   3 80.0414 8.75760   2
   7   7  -3 91.7249 7.97128   3
   7  -7  -3 85.6175 6.72952   3
   7  -7  -3 83.0162 8.39996   2
   0   8  -3 308.465 20.8684   1
   0  -8   3 303.612 19.3099   2
   0   8   3 327.335 18.4578   3
   0   8  -3 308.037 19.2257   3
   0   8  -3 290.614 20.5897   1
   0  -8  -3 312.984 19.3104   2
   0  -8   3 303.849 18.8818   3
   2  -8   3 221.732 16.4518   1
   2   8  -3 227.261 14.7610   3
   2  -8   3 228.144 14.5953   3
  -2   8   3 230.231 15.0085   1
  -2  -8  -3 242.829 14.4969   2
   2   8  -3 232.650 16.4849   1
   2  -8   3 231.589 15.3536   2
   2   8  -3 224.778 16.1949   1
  -2  -8   3 226.868 14.2259   2
   2  -8  -3 224.429 15.7396   2
  -2   8  -3 199.881 16.1718   1
  -2   8  -3 234.743 14.9824   3
   2  -8  -3 243.083 15.1052   1
   2   8   3 245.489 13.9613   3
  -4   8   3 122.009 9.71578   1
   4  -8   3 109.959 9.58197   2
   4  -8   3 118.022 10.5274   1
   4   8  -3 117.500 10.2174   1
   4   8  -3 126.227 8.94079   3
   4  -8  -3 113.490 9.54494   1
   4  -8  -3 121.709 7.31885   3
  -4   8  -3 103.160 10.4015   1
   4  -8  -3 116.369 9.51690   2
   6  -8   3 43.1737 6.85792   2
   6   8  -3 52.4433 6.16474   3
   6  -8  -3 59.8842 7.11112   2
   6  -8  -3 51.4748 4.47932   3
   1   9  -3 22.9682 4.49972   1
   1   9  -3 28.5357 4.14009   3
   1   9  -3 27.6020 4.31568   1
  -1  -9  -3 28.6005 3.62333   2
   1  -9   3 30.9725 4.31511   2
  -1   9  -3 28.2463 4.27731   3
  -1  -9   3 28.5735 3.50909   2
  -1   9  -3 26.4521 4.44087   1
   1   9   3 30.7171 2.70768   3
   1  -9  -3 22.3541 4.17859   2
   3  -9   3 19.6978 3.93724   2
  -3   9   3 24.5211 3.92628   1
   3  -9   3 22.8432 4.67741   1
   3   9  -3 26.5883 4.16701   3
   3   9  -3 18.0735 3.93594   1
  -3   9  -3 23.1429 4.82914   1
   3  -9  -3 24.2427 3.51548   1
   3   9   3 25.4749 2.93055   3
   3  -9  -3 23.8237 4.19602   2
   5  -9   3 10.1784 3.26474   2
   5   9  -3 12.9797 3.08738   3
   5   9   3 12.8790 2.47647   3
   5  -9  -3 13.4133 5.01367   2
   7   9  -3 7.07457 3.12386   3
   7   9   3 5.83973 2.56404   3
   0  10   3 53.8301 4.18810   3
   0  10  -3 46.2500 6.64461   1
   0 -10   3 55.2620 5.29218   2
   0  10  -3 47.6569 5.32166   3
   2  10  -3 39.9236 4.74722   3
   2 -10   3 41.2362 5.29259   2
  -2 -10  -3 42.7466 3.98655   2
   2  10  -3 32.8715 4.79630   1
   2 -10   3 31.4510 4.81060   1
  -2  10   3 32.1788 3.86914   1
   2 -10  -3 35.7399 3.69722   1
  -2  10  -3 29.6932 4.97861   1
   2 -10  -3 37.5383 5.15985   2
  -2 -10   3 37.1962 3.43847   2
  -2  10  -3 36.0079 5.07254   3
   2  10   3 40.2973 3.42582   3
   4  10  -3 18.2926 3.39589   3
   4 -10   3 23.5896 5.00989   2
   4  10   3 21.3594 3.22424   3
   4 -10  -3 13.1720 4.54487   1
   4 -10  -3 21.4817 4.76845   2
   6  10  -3 7.28239 3.02887   3
   6 -10   3 3.53752 3.42864   2
   6 -10  -3 3.53839 3.46368   2
   1 -11   3 35.1877 5.00535   2
   1  11  -3 27.8185 4.81629   1
   1  11  -3 35.6659 4.91672   3
  -1 -11   3 30.2702 4.02197   2
  -1  11  -3 26.0804 4.61807   1
   1 -11  -3 32.7747 4.93460   2
  -1  11  -3 38.5151 5.05322   3
   1  11   3 37.7478 3.44381   3
  -3  11   3 20.5472 3.86123   1
   3  11  -3 21.4778 3.60887   3
   3 -11   3 19.2788 4.45206   2
   3 -11  -3 17.2127 3.83330   2
   3  11   3 24.2492 3.20636   3
   3 -11  -3 17.2573 3.27754   1
   5  11  -3 9.19268 3.19256   3
   5 -11   3 8.22146 4.02353   2
   5  11   3 10.4232 2.66330   3
   5 -11  -3 12.5970 4.71044   2
   0 -12  -3 1.73171 2.60687   2
   0 -12   3 0.71146 2.44967   2
   0  12  -3 0.36738 2.49295   3
   2  12  -3 3.94460 2.68285   3
  -2 -12  -3 1.57027 2.17132   2
   2 -12   3 0.22450 2.95905   2
   2  12   3 1.71676 1.70002   3
  -2 -12   3 0.98502 1.59988   2
   2 -12  -3 2.75676 3.09115   2
   4  12  -3 2.17008 2.69301   3
   4 -12   3 0.42870 3.38859   2
   4 -12  -3 -1.4156 3.61457   2
   4  12   3 0.64120 3.00186   3
  -1 -13  -3 183.023 13.2230   2
   1  13  -3 193.688 13.5954   3
   1 -13   3 190.607 14.0229   2
  -1 -13   3 188.257 12.9708   2
  -1  13  -3 188.645 13.6646   3
   1 -13  -3 189.524 14.0017   2
   1  13   3 195.283 12.2778   3
   3 -13   3 141.660 11.8994   2
   3  13  -3 142.845 10.8439   3
   3  13   3 130.279 9.92924   3
   3 -13  -3 130.865 11.7920   2
   0   0  -4 1837.19 108.467   1
   2   0   4 939.930 54.6273   1
   2   0   4 966.380 53.8913   2
  -2   0   4 884.050 53.6363   3
   2   0   4 857.602 53.5573   3
  -2   0  -4 965.507 54.6486   1
   2   0  -4 862.252 54.4918   1
   2   0  -4 890.043 53.5896   3
  -2   0   4 924.380 54.6890   1
   2   0  -4 887.339 53.6662   2
   4   0  -4 266.908 18.1177   1
  -4   0  -4 277.433 18.1664   1
   4   0   4 272.629 16.8810   2
   4   0  -4 265.283 16.6697   3
   4   0   4 274.073 18.0611   1
   4   0  -4 257.791 16.4995   2
  -4   0   4 267.508 18.2491   1
   6   0  -4 71.5738 6.11710   3
   6   0  -4 71.9018 8.79034   1
   6   0   4 66.2094 5.86432   2
  -6   0   4 67.8591 7.52627   1
  -6   0  -4 65.0427 7.15857   1
   6   0  -4 66.0238 5.38677   2
   6   0   4 71.5598 7.63004   1
   8   0  -4 18.4715 6.37337   1
   8   0  -4 16.0267 3.39493   3
   8   0   4 14.5990 3.38538   2
   8   0  -4 21.3602 3.67450   2
  -1  -1  -4 31.3293 3.03102   1
  -1   1   4 28.1822 2.77268   3
   1   1  -4 39.4294 4.29599   1
   1  -1   4 34.0376 3.39309   2
   1  -1   4 28.8147 2.91484   3
  -1   1   4 32.5989 3.22266   1
   1  -1   4 32.7081 3.59463   1
   1   1  -4 29.7293 2.90434   3
  -1   1  -4 30.1349 3.38887   1
   1  -1  -4 28.7591 2.89171   2
   1  -1  -4 30.3925 2.62954   3
   1   1   4 31.4650 2.63594   3
  -1   1  -4 41.1817 2.92366   3
   1   1   4 32.4646 3.13303   1
  -1  -1   4 41.6862 3.94344   3
  -3  -1  -4 35.5913 3.77584   1
   3  -1   4 32.0680 3.93827   1
   3   1  -4 30.4866 3.31455   3
   3  -1   4 29.2902 3.25188   3
  -3   1   4 37.1630 4.04558   1
   3   1  -4 27.6675 2.83036   2
   3   1  -4 32.6117 3.99516   1
   3  -1   4 34.8800 3.69918   2
  -3  -1   4 32.4403 3.95562   1
  -3   1  -4 34.8962 4.08526   1
   3  -1  -4 32.1345 3.79526   1
   3  -1  -4 34.4593 3.16382   2
   3   1   4 33.6092 3.79183   1
   3  -1  -4 34.7359 3.09308   3
   3   1   4 31.0125 3.43467   2
  -5  -1  -4 10.4008 2.92142   1
   5   1  -4 10.4358 3.17082   1
   5  -1   4 6.91376 2.55043   1
   5   1  -4 6.76744 1.92218   3
  -5   1   4 9.58793 2.82935   1
   5  -1   4 10.3337 2.82009   2
   5   1  -4 11.3315 1.98257   2
   5   1   4 11.2090 2.63421   2
   5   1   4 5.90487 2.23787   1
  -5   1  -4 7.94433 2.70468   1
  -5  -1   4 10.0936 2.82025   1
   5  -1  -4 11.6580 2.15192   3
   5  -1  -4 10.6307 2.27714   2
   5  -1  -4 11.6798 3.15388   1
   7   1  -4 3.03322 2.38367   3
   7  -1   4 1.90168 2.37573   2
   7   1  -4 3.59389 1.90830   2
  -7   1   4 1.16719 1.99468   1
   7   1  -4 6.32496 2.79822   1
   7  -1  -4 -0.8604 2.21118   3
  -7  -1   4 -2.2492 3.17775   1
   7   1   4 3.83451 2.28251   2
   7  -1  -4 1.74806 2.16210   2
  -7   1  -4 4.35057 3.06639   1
   7  -1  -4 2.55141 2.04584   1
   9  -1   4 1.78524 2.97790   2
   9   1  -4 0.61759 2.11843   3
   9   1   4 1.32226 2.38816   2
   9  -1  -4 3.60042 2.55562   3
   9  -1  -4 2.33818 2.43320   2
   0  -2  -4 857.830 50.1101   1
   0  -2  -4 888.555 49.9056   1
   0  -2  -4 824.289 49.7428   2
   0   2   4 817.152 49.3536   3
   0   2  -4 853.243 50.6693   1
   0  -2   4 811.838 49.6438   3
   0   2  -4 827.578 49.6530   3
   0  -2   4 844.073 49.7977   2
   2   2  -4 395.737 24.8953   3
   2  -2   4 424.590 26.1684   1
   2   2  -4 400.882 25.9607   1
   2  -2   4 433.217 25.2669   2
  -2   2   4 425.376 25.7004   1
   2  -2   4 394.173 24.9014   3
  -2  -2  -4 433.098 25.3775   1
  -2  -2   4 409.911 24.9456   3
  -2   2  -4 422.085 26.1199   1
  -2  -2   4 408.865 26.0713   1
   2   2   4 431.113 25.4178   1
   2  -2  -4 407.955 25.0210   2
   2  -2  -4 404.939 24.6528   3
  -4   2   4 139.058 10.9567   1
   4  -2   4 137.339 10.0175   2
   4  -2   4 131.071 9.71420   3
   4   2  -4 172.310 12.0316   1
  -4  -2  -4 156.751 10.7784   1
   4   2  -4 145.306 9.78690   3
   4  -2   4 141.553 11.1552   1
   4  -2  -4 147.104 10.9378   1
   4  -2  -4 143.617 9.72473   2
   4   2   4 145.411 9.68700   2
  -4  -2   4 144.463 11.1673   1
  -4   2  -4 158.594 11.4340   1
   4  -2  -4 145.918 9.49856   3
   4   2   4 150.024 10.6590   1
  -6   2   4 53.3215 6.45851   1
   6   2  -4 54.2251 6.67463   1
   6  -2   4 56.7156 6.84807   1
  -6  -2  -4 64.1651 6.60338   1
   6   2  -4 52.5111 5.42273   3
   6  -2   4 78.0687 7.57676   3
   6  -2   4 45.5880 6.54589   2
  -6   2  -4 52.0024 6.58721   1
   6  -2  -4 50.7955 5.06986   2
  -6  -2   4 55.7223 6.86224   1
   6   2   4 55.3085 4.82338   2
   6   2   4 60.6556 6.47871   1
   6  -2  -4 56.8560 6.42376   1
   6  -2  -4 55.5725 5.25737   3
   8   2  -4 9.27753 2.54773   3
   8  -2   4 14.4441 3.66311   2
   8   2   4 19.0764 3.23169   2
   8  -2  -4 22.1288 3.93900   2
   8  -2  -4 17.5023 3.17669   3
   1   3  -4 107.226 7.48557   3
   1  -3   4 109.919 7.50747   3
   1   3  -4 114.286 8.51555   1
   1  -3   4 111.883 8.52371   1
   1  -3   4 113.904 7.86862   2
  -1   3   4 106.889 7.53402   1
  -1   3   4 113.708 7.08230   3
   1   3  -4 147.748 9.73287   1
  -1  -3  -4 120.305 7.21961   1
  -1   3  -4 109.883 8.47449   1
   1  -3  -4 113.563 7.60870   2
   1  -3  -4 105.617 8.57734   1
  -1  -3   4 108.051 7.53751   3
  -3   3   4 48.0540 4.82908   1
  -3  -3  -4 49.1253 4.43984   1
   3   3  -4 57.5627 6.03752   1
   3  -3   4 51.9600 4.86183   2
   3   3  -4 49.1880 4.49502   3
   3  -3   4 51.5540 4.48384   3
   3  -3   4 49.0807 5.43387   1
   3   3   4 52.6612 4.56702   1
   3  -3  -4 49.2563 3.93516   3
  -3   3  -4 54.8609 5.55460   1
   3  -3  -4 51.6354 4.43695   2
  -3  -3   4 54.9932 5.45274   1
   5   3  -4 19.2804 2.91351   3
   5  -3   4 14.9240 2.70629   3
  -5  -3  -4 16.4767 3.41780   1
  -5   3   4 12.0717 3.24424   1
   5  -3   4 18.5816 4.40389   1
   5   3  -4 26.2830 5.46817   1
   5  -3   4 22.5591 3.80092   2
   5  -3  -4 12.6064 2.21063   3
  -5   3  -4 15.4373 3.49434   1
   5   3   4 13.3668 2.50588   2
  -5  -3   4 13.0642 3.48363   1
   5  -3  -4 10.2240 3.75173   1
   5   3   4 17.5368 3.79042   1
   5  -3  -4 22.9815 3.39691   2
  -7   3   4 1.03515 2.06368   1
   7  -3   4 7.13056 3.14505   1
   7   3  -4 8.57390 2.85748   3
   7  -3   4 3.04280 2.55581   3
   7   3  -4 7.38018 3.12900   1
   7  -3   4 3.06794 2.72323   2
   7  -3  -4 3.09597 2.69757   1
  -7  -3   4 3.52653 2.01026   1
  -7   3  -4 4.85863 5.21647   1
   7  -3  -4 7.72580 2.66103   2
   7  -3  -4 3.95792 2.30353   3
   7   3   4 4.10771 1.99556   2
   0   4  -4 877.728 52.5383   3
   0  -4   4 874.782 52.4937   3
   0   4   4 907.308 51.9411   3
   0  -4  -4 907.759 52.6291   2
   0  -4   4 866.262 52.6087   2
   2  -4   4 537.299 32.5535   3
   2   4  -4 526.598 32.5239   3
  -2  -4  -4 538.022 32.3318   1
   2  -4   4 545.922 32.8672   2
  -2   4   4 514.022 33.3578   1
   2   4  -4 533.211 33.8101   1
   2  -4  -4 544.058 32.7199   2
  -2  -4   4 541.950 33.6435   3
  -2   4  -4 532.321 32.5590   3
  -2   4  -4 661.371 35.1654   1
  -2  -4   4 546.593 32.3042   2
   2  -4  -4 508.048 33.1425   1
   2  -4  -4 533.845 31.9188   3
   4   4  -4 186.049 12.9316   3
   4  -4   4 197.701 13.0003   3
   4   4  -4 204.334 14.5149   1
  -4  -4  -4 206.435 13.4830   1
  -4   4   4 188.264 13.9664   1
   4  -4   4 199.921 13.3421   2
   4  -4   4 210.127 14.8371   1
   4  -4  -4 201.562 13.1200   2
  -4   4  -4 211.148 14.9487   1
  -4  -4   4 193.515 14.4945   1
   4   4   4 202.070 12.5764   2
   4   4   4 199.752 13.4816   1
   4  -4  -4 189.966 12.4723   3
   6  -4   4 118.789 11.4023   1
   6   4  -4 73.1314 6.49976   3
   6  -4   4 57.3607 7.68173   3
   6  -4   4 64.8567 6.78011   2
  -6   4   4 63.2359 7.34668   1
   6   4  -4 59.5816 9.07646   1
   6  -4  -4 65.2891 7.11923   1
   6  -4  -4 69.3926 6.46158   2
   6   4   4 68.8209 5.17327   2
  -6   4  -4 90.9426 10.5950   1
   8  -4   4 18.3499 4.16406   2
   8   4  -4 12.1669 3.43865   3
   8  -4  -4 24.5891 3.66735   3
   8  -4  -4 26.6385 4.49647   2
   1  -5   4 1097.77 64.8990   2
  -1  -5  -4 1097.31 64.6561   2
  -1   5   4 1111.47 64.5398   1
   1  -5   4 1048.81 66.0555   1
   1   5  -4 1074.75 65.9918   1
   1  -5   4 1072.55 64.6264   3
  -1  -5   4 1059.84 64.5768   3
  -1  -5   4 1094.75 64.5744   2
   1  -5  -4 1160.15 64.5810   1
  -1   5  -4 1090.13 64.6799   3
   1  -5  -4 1109.69 64.8384   2
   3  -5   4 592.553 37.2263   1
  -3  -5  -4 596.695 35.3377   1
   3   5  -4 588.157 36.9223   1
   3  -5   4 579.559 35.3879   3
  -3   5   4 564.806 37.0844   1
   3  -5   4 595.823 35.8050   2
   3   5  -4 595.426 35.3980   3
   3   5   4 595.977 35.4207   1
   3  -5  -4 593.324 35.6483   2
  -3   5  -4 591.569 37.2187   1
   3  -5  -4 585.516 34.7245   3
   3  -5  -4 566.365 34.7181   3
  -3  -5   4 607.845 34.7840   2
   3  -5  -4 574.737 36.5711   1
  -3  -5   4 582.182 37.0796   1
   5  -5   4 213.805 19.7171   1
   5   5  -4 234.059 16.9563   1
  -5  -5  -4 232.131 15.6891   1
   5   5  -4 242.471 15.1413   3
   5  -5   4 241.705 15.6725   2
   5  -5   4 239.246 15.2676   3
  -5   5   4 214.073 16.3504   1
   5  -5  -4 233.197 15.3501   2
   5  -5  -4 229.492 14.4935   3
   5  -5  -4 247.013 18.1253   1
   5   5   4 226.422 14.2392   2
  -5   5  -4 221.034 17.3287   1
  -5  -5   4 211.701 16.7295   1
   7   5  -4 92.6788 7.61626   3
   7  -5   4 80.5960 13.8601   1
   7  -5   4 70.1215 8.09582   2
   7  -5  -4 88.6958 7.70780   2
  -7   5  -4 63.2473 9.75287   1
   7  -5  -4 82.1713 6.53613   3
   0   6  -4 463.788 31.8056   1
   0  -6   4 506.541 30.2850   3
   0   6  -4 524.745 30.7609   3
   0  -6   4 501.004 30.4708   2
   0  -6  -4 520.788 30.5087   2
   2  -6   4 348.404 22.0013   2
   2   6  -4 348.705 21.6391   3
   2  -6   4 356.422 23.4321   1
  -2   6   4 344.643 21.8526   1
   2   6  -4 339.505 23.0924   1
   2   6  -4 347.923 23.1176   1
   2  -6   4 336.841 21.5951   3
  -2   6  -4 355.063 21.7634   3
   2  -6  -4 363.691 21.9269   1
  -2   6  -4 340.146 23.2441   1
  -2  -6   4 376.755 21.3671   2
   2  -6  -4 359.780 21.9350   2
   4  -6   4 174.669 13.7511   1
   4   6  -4 175.263 11.9182   3
   4  -6   4 181.676 12.0917   3
   4   6  -4 183.455 13.5996   1
  -4   6   4 166.960 12.9174   1
   4  -6   4 187.433 12.4942   2
  -4  -6  -4 185.807 12.0192   1
   4   6   4 177.729 11.1364   2
   4  -6  -4 165.445 10.9449   3
  -4  -6   4 166.920 13.4324   1
   4  -6  -4 179.364 11.0191   3
  -4   6  -4 174.560 13.8814   1
   4  -6  -4 170.827 12.1312   2
   4   6   4 175.139 11.8486   1
   6   6  -4 85.3771 7.41082   3
  -6   6   4 80.5652 8.65786   1
   6  -6   4 87.8511 8.01090   2
   6  -6   4 108.390 11.6063   1
  -6   6  -4 55.4560 7.99112   1
   6  -6  -4 80.3599 7.89323   1
   6  -6  -4 89.5997 7.66007   2
   6  -6  -4 78.7132 6.19551   3
   8  -6   4 40.1538 6.61022   2
   8   6  -4 30.1819 5.41992   3
   8  -6  -4 30.7934 5.75742   2
   1   7  -4 51.0184 5.78597   1
   1  -7   4 50.4762 5.14392   2
   1   7  -4 57.0842 6.02016   1
  -1  -7  -4 55.5478 4.75450   2
   1   7  -4 60.0340 5.13291   3
   1  -7   4 56.1316 4.87359   3
   1  -7   4 51.5396 5.92347   1
  -1   7  -4 53.5614 5.21403   3
  -1   7  -4 52.8683 6.03016   1
  -1  -7   4 56.3636 4.76823   3
   1  -7  -4 55.3391 5.08827   2
  -1  -7   4 59.5611 4.65089   2
   3   7  -4 24.4263 4.27375   1
  -3   7   4 27.4532 3.58824   1
   3   7  -4 26.7312 3.49518   3
   3   7  -4 21.4286 4.26617   1
   3  -7   4 26.9637 4.41160   2
   3  -7   4 21.8186 4.63586   1
  -3   7  -4 24.6812 4.74354   1
   3  -7  -4 22.8260 3.42923   1
  -3  -7   4 24.9543 2.20117   2
   3  -7  -4 21.3604 4.11678   2
  -5   7   4 7.95994 2.96559   1
   5   7  -4 13.6406 2.94312   3
   5  -7   4 5.61951 2.86806   1
   5  -7   4 9.81999 3.22542   2
   5  -7  -4 14.1710 2.54695   3
   5   7   4 12.5553 1.89746   2
  -5   7  -4 6.96818 2.97814   1
   5  -7  -4 8.02331 3.02293   2
   7   7  -4 0.80067 2.43143   3
   7  -7   4 0.78145 3.39509   2
   7  -7  -4 2.82858 3.35080   2
   0  -8  -4 508.249 30.8810   2
   0   8  -4 513.747 30.7989   3
   0   8  -4 445.087 32.2066   1
   0  -8   4 504.640 30.8804   2
   0  -8   4 542.084 30.9501   3
   0   8  -4 517.301 32.7630   1
  -2   8   4 419.716 25.7837   1
   2  -8   4 419.118 25.1753   3
   2  -8   4 357.370 28.5916   2
   2   8  -4 371.813 26.8189   1
   2  -8   4 419.763 27.3694   1
   2   8  -4 432.044 25.3529   3
  -2  -8  -4 427.926 25.0873   2
   2  -8  -4 411.142 25.6972   2
  -2  -8   4 439.126 24.8601   2
  -2   8  -4 361.920 30.6370   1
  -2   8  -4 424.860 25.4402   3
   4  -8   4 261.254 17.0535   2
   4   8  -4 212.733 17.6340   1
   4   8  -4 257.143 16.2554   3
   4  -8   4 255.341 18.5857   1
  -4   8   4 264.960 17.3309   1
  -4   8  -4 216.353 18.2015   1
   4  -8  -4 256.241 17.0894   1
   4  -8  -4 249.011 16.7996   2
   6   8  -4 133.513 9.92708   3
   6  -8   4 130.610 11.0477   2
   6  -8  -4 111.680 8.73975   3
   6  -8  -4 125.389 10.5588   2
   1   9  -4 52.6653 6.21049   1
   1   9  -4 65.2415 5.85254   3
  -1  -9  -4 64.0731 5.37182   2
   1   9  -4 57.2226 6.57643   1
   1  -9   4 53.0759 7.11920   2
  -1  -9   4 58.4605 5.16583   2
  -1   9  -4 61.4580 5.83683   3
   1  -9  -4 60.1934 5.72241   2
   1   9   4 62.8976 4.03122   3
  -1   9  -4 50.2834 6.35506   1
   3  -9   4 37.7820 8.64478   1
   3   9  -4 29.6907 4.90594   1
   3  -9   4 41.2393 5.44411   2
  -3   9   4 40.4005 4.45989   1
   3   9  -4 39.4655 4.83205   3
  -3   9  -4 33.9116 6.14921   1
   3   9   4 42.3585 3.44453   3
  -3  -9   4 37.1361 2.86275   2
   3  -9  -4 37.0959 4.21850   1
   3  -9  -4 43.8393 5.43008   2
   5  -9   4 19.5807 4.60448   2
   5   9  -4 22.6452 3.67343   3
   5  -9  -4 24.6536 4.97033   2
   0 -10   4 112.783 8.47252   2
   0 -10  -4 108.336 8.36282   2
   0  10  -4 96.6935 9.26284   1
   0  10  -4 112.471 8.45911   3
   2 -10   4 77.6502 8.43766   1
   2 -10   4 86.0717 7.92719   2
   2  10  -4 83.3786 8.25695   1
   2  10  -4 94.7601 7.73869   3
  -2 -10  -4 89.5780 6.84002   2
  -2  10  -4 96.5023 7.76301   3
  -2  10  -4 69.6614 8.05647   1
  -2 -10   4 88.3380 6.46411   2
   2  10   4 102.509 5.97096   3
   2 -10  -4 90.3242 7.91111   2
   4  10  -4 46.5277 5.61158   3
   4 -10   4 48.1019 6.70025   2
   4 -10  -4 38.2788 6.19033   2
   4  10   4 54.7999 4.39153   3
   6  10  -4 27.6922 4.82774   3
   6 -10   4 28.3313 10.8115   2
   6 -10  -4 22.8094 6.68735   2
   6  10   4 19.8617 3.30937   3
   1 -11   4 52.6681 6.22832   2
  -1 -11  -4 54.4900 5.51523   2
   1  11  -4 56.2940 5.98816   3
   1  11   4 54.2164 4.16745   3
  -1  11  -4 57.6164 6.20447   3
   1 -11  -4 53.7368 6.02600   2
  -1 -11   4 54.3377 5.30417   2
   3  11  -4 33.0314 5.30008   3
   3 -11   4 35.0748 6.07104   2
   3 -11  -4 27.7919 4.18582   1
   3  11   4 37.4509 3.56933   3
   3 -11  -4 36.2388 5.82041   2
   5  11  -4 14.6562 3.28230   3
   5 -11   4 24.9308 6.10029   2
   5 -11  -4 17.7974 5.06246   2
   0 -12   4 23.6014 4.56242   2
   0  12  -4 23.3891 4.24393   3
   0 -12  -4 19.3791 3.94838   2
   2 -12   4 16.2406 4.22711   2
   2  12  -4 20.5216 4.01237   3
  -2 -12  -4 23.0281 3.81433   2
  -2 -12   4 16.1630 2.98805   2
   2 -12  -4 27.0714 5.22741   2
   2  12   4 18.6207 2.86647   3
   4 -12   4 16.0288 5.20523   2
   4  12  -4 10.3886 6.56863   3
   4 -12  -4 16.3628 5.04903   2
   1  13  -4 47.7297 6.24502   3
  -1 -13  -4 32.4192 5.27347   2
   1 -13   4 37.9721 6.18132   2
  -1 -13   4 32.9420 4.83277   2
   1 -13  -4 39.9602 6.16328   2
  -1  13  -4 45.5904 6.36126   3
   0   0  -5 -0.7468 0.91065   1
   0   0  -5 0.30060 1.25112   3
   0   0   5 -0.5480 0.99218   3
  -2   0   5 0.99800 1.14969   1
   2   0   5 0.02072 1.10964   3
  -2   0  -5 0.10029 0.93773   1
   2   0  -5 -0.0639 1.10370   2
   2   0   5 -0.7453 1.49019   2
  -2   0   5 -0.6931 1.19943   3
   2   0  -5 0.65585 1.28148   1
   2   0   5 0.67288 1.13303   1
  -4   0  -5 0.34969 1.28857   1
   4   0   5 -1.0417 1.98129   2
   4   0  -5 0.57499 1.45207   2
   4   0  -5 1.38741 1.38484   3
   4   0   5 -0.5802 1.52285   1
  -4   0   5 -0.0199 1.40605   1
   4   0  -5 0.08469 1.28380   1
   6   0   5 0.51890 2.10124   2
   6   0  -5 4.87563 2.17845   1
  -6   0  -5 1.82442 2.04592   1
  -6   0   5 -1.9411 2.66464   1
   6   0   5 -1.0151 1.95699   1
   6   0  -5 0.21250 1.73903   3
   6   0  -5 0.98429 1.81276   2
   8   0   5 0.79182 2.65185   2
   8   0  -5 0.07711 2.09839   2
   8   0  -5 -0.1421 2.13669   3
  -1   1   5 2137.13 121.991   1
   1  -1   5 2159.40 122.311   1
  -1  -1  -5 2214.27 121.888   1
   1   1  -5 2111.81 122.196   1
  -1   1  -5 2203.72 122.316   1
   1   1   5 2265.79 121.916   1
   1  -1  -5 1354.11 121.371   1
   3  -1   5 914.404 57.5766   3
  -3  -1  -5 1013.45 58.7994   1
   3  -1   5 967.236 57.9661   2
   3  -1   5 1048.02 59.5215   1
   3   1  -5 949.716 58.9914   1
  -3   1   5 962.145 58.9815   1
   3   1  -5 931.995 57.5838   3
   3  -1  -5 939.504 57.6866   2
   3   1   5 1012.43 58.8299   1
   3  -1  -5 957.658 58.8494   1
  -3   1  -5 995.245 59.1247   1
  -3  -1   5 954.274 59.1049   1
   3   1   5 1000.01 57.8423   2
   5   1  -5 319.207 21.8354   1
   5  -1   5 323.357 20.3575   2
   5  -1   5 329.463 21.9570   1
   5  -1   5 305.154 19.9172   3
  -5  -1  -5 336.989 21.7655   1
   5   1  -5 309.015 19.9445   3
   5   1  -5 319.424 19.5955   2
  -5   1   5 310.276 21.8589   1
  -5   1  -5 320.577 21.9627   1
   5   1   5 327.312 21.6791   1
  -5  -1   5 321.926 22.0986   1
   5  -1  -5 308.137 19.8387   2
   5  -1  -5 315.754 19.8533   3
   5  -1  -5 317.592 21.7987   1
   5   1   5 328.645 20.0945   2
   7  -1   5 95.8569 8.30615   3
   7   1  -5 106.579 7.22452   2
   7   1  -5 99.7858 8.10979   3
   7  -1   5 99.2232 8.24936   2
  -7   1   5 90.0826 9.55362   1
   7   1  -5 102.247 9.75267   1
   7  -1  -5 91.0909 9.36477   1
   7  -1  -5 99.3703 8.00393   3
  -7  -1   5 120.668 11.4407   1
   7   1   5 91.5894 8.57302   2
   7  -1  -5 104.722 7.68875   2
   0  -2  -5 78.0829 5.53388   1
   0  -2  -5 76.6536 5.48166   1
   0  -2   5 69.0354 5.34627   3
   0  -2  -5 70.8806 5.39820   2
   0   2  -5 79.5955 6.33205   1
   0   2   5 74.2137 4.95083   3
   0   2  -5 75.2451 5.35868   3
   2   2  -5 34.0364 3.48591   3
   2  -2   5 34.1083 3.51444   3
  -2   2   5 36.7056 3.82968   1
   2  -2   5 37.2950 4.40673   1
  -2  -2  -5 37.0872 3.55576   1
   2   2  -5 41.8654 4.85912   1
   2  -2   5 35.5675 4.04941   2
  -2  -2   5 35.3135 4.21719   1
   2  -2  -5 39.5856 3.73759   1
  -2   2  -5 33.7525 4.07251   1
   2   2   5 32.1737 5.15718   1
   2  -2  -5 33.8245 3.47137   2
  -2  -2   5 33.6791 3.51068   3
   2  -2  -5 33.8861 2.93089   3
  -4  -2  -5 18.6436 3.18416   1
   4   2  -5 18.2025 3.73618   1
   4  -2   5 22.7910 3.70859   2
  -4   2   5 16.5602 3.55265   1
   4  -2   5 20.6325 3.97913   1
   4  -2   5 18.4228 2.88654   3
   4   2  -5 19.2318 2.77443   3
  -4  -2   5 17.0749 3.58391   1
   4  -2  -5 17.3680 3.42227   1
  -4   2  -5 18.9834 3.75579   1
   4   2   5 14.8665 3.33248   1
   4  -2  -5 16.2179 3.02526   2
   4   2   5 16.6567 2.84761   2
   6  -2   5 4.81692 2.89304   1
   6  -2   5 7.77052 2.51521   3
   6   2  -5 7.74779 2.67782   3
   6   2  -5 6.91522 2.74591   1
   6  -2   5 11.9299 3.38748   2
  -6   2   5 7.03900 2.64763   1
  -6  -2   5 15.0658 6.13679   1
   6  -2  -5 8.10063 3.16496   1
  -6   2  -5 7.32788 2.49520   1
   6   2   5 10.7750 2.73264   2
   6  -2  -5 6.94933 2.12037   3
   8  -2   5 2.52535 3.14016   2
   8   2  -5 4.43067 2.80476   3
   8   2   5 2.40814 2.41429   2
   8  -2  -5 7.13186 2.90859   2
   8  -2  -5 1.34472 1.96331   3
   1   3  -5 2611.46 161.626   1
  -1   3   5 2686.08 160.800   1
   1  -3   5 2761.80 161.877   1
   1   3  -5 2688.17 161.771   1
  -1  -3  -5 2919.43 160.528   1
  -1   3  -5 2695.69 161.804   1
   1  -3  -5 2773.98 160.800   1
  -3  -3  -5 1376.41 81.0114   1
   3   3  -5 1295.48 80.3918   3
   3  -3   5 1246.32 80.3764   3
   3  -3   5 1350.90 80.8301   2
  -3   3   5 1357.77 81.5759   1
   3  -3   5 1344.51 82.1705   1
   3  -3  -5 1346.47 81.4614   1
  -3  -3   5 1337.90 82.1598   1
   3  -3  -5 1306.51 80.5743   2
  -3   3  -5 1726.32 83.7868   1
   3  -3  -5 1273.71 80.0203   3
   3   3   5 1387.23 81.0973   1
   5   3  -5 476.247 31.5139   1
  -5   3   5 427.126 31.4387   1
   5  -3   5 474.685 31.6674   1
   5  -3   5 508.553 30.3625   2
  -5  -3  -5 501.680 30.9016   1
   5   3  -5 464.516 29.5028   3
   5  -3   5 465.473 29.5157   3
  -5  -3   5 582.577 33.4148   1
   5   3   5 472.244 29.2571   2
   5   3   5 484.292 30.8132   1
   5  -3  -5 465.977 29.5801   2
   5  -3  -5 479.359 31.2252   1
  -5   3  -5 464.277 31.7390   1
   7   3  -5 161.180 16.1327   1
   7   3  -5 156.262 11.2798   3
   7  -3   5 153.941 11.6762   3
   7  -3   5 138.032 11.5640   2
   7  -3  -5 158.476 11.1971   2
   7   3   5 150.548 10.4497   2
   7  -3  -5 155.251 10.7452   3
  -7  -3   5 164.434 14.1632   1
   0   4  -5 10.2201 2.09108   3
   0   4   5 8.54741 1.43401   3
   0  -4  -5 10.4841 1.97976   2
   0  -4   5 7.07631 1.93306   2
   0  -4   5 9.22811 1.79323   3
   0   4  -5 17.4980 3.73343   1
   2  -4   5 3.35645 1.72981   3
   2  -4   5 4.67515 2.16538   1
   2  -4   5 1.80014 1.85746   2
   2   4  -5 9.57683 3.85796   1
   2   4  -5 4.23075 1.54604   3
  -2  -4  -5 5.21327 1.12866   1
  -2   4   5 5.73706 1.65518   1
  -2   4  -5 7.09643 2.16457   3
   2  -4  -5 3.68825 1.75784   2
   2   4   5 5.33927 1.23729   1
  -2   4  -5 4.08320 1.88702   1
  -2  -4   5 3.66885 1.58197   3
  -2  -4   5 6.83729 1.88293   2
   2  -4  -5 4.83152 1.51881   1
   4  -4   5 2.38081 2.04775   2
   4   4  -5 3.76352 2.17457   3
   4   4  -5 5.41487 3.04310   1
  -4   4   5 4.83828 1.94800   1
   4  -4   5 2.08710 1.78255   3
   4  -4   5 2.30722 3.15298   1
  -4  -4  -5 2.67879 1.50510   1
  -4   4  -5 0.42320 1.95728   1
  -4  -4   5 6.20368 3.01669   1
   4   4   5 3.14365 1.72726   1
   4  -4  -5 1.70415 2.07532   2
   4  -4  -5 1.77289 1.20080   1
   4   4   5 3.55584 2.06691   2
   4  -4  -5 4.73512 1.55508   3
   6  -4   5 1.89810 2.30148   1
   6  -4   5 0.05770 2.27376   2
   6  -4   5 1.06305 3.02987   3
   6   4  -5 0.83293 2.27621   1
   6   4  -5 0.98640 2.43426   3
  -6   4   5 -2.4992 1.98888   1
   6   4   5 -0.5281 1.81768   2
   6  -4  -5 -0.3727 2.72811   1
   6  -4  -5 2.49239 2.59460   2
  -6   4  -5 1.00573 1.92469   1
   6  -4  -5 0.61302 1.64974   3
  -6  -4   5 2.30657 3.20148   1
   8   4  -5 1.98582 4.51729   3
   8  -4   5 1.32758 3.61972   2
   8  -4  -5 -0.3932 2.93921   2
   8   4   5 -2.0529 2.91291   2
  -1  -5  -5 616.950 38.1844   2
  -1   5   5 642.309 38.0483   1
   1   5  -5 790.480 41.2262   1
   1  -5   5 610.861 38.1562   3
   1  -5   5 614.201 38.4360   2
   1   5  -5 736.992 40.7645   1
   1  -5   5 604.372 39.7097   1
   1  -5  -5 642.481 38.0113   1
   1  -5  -5 616.885 38.3537   2
  -1  -5   5 594.478 38.1147   2
  -1   5  -5 610.500 39.7869   1
  -1   5  -5 610.698 38.2035   3
  -1  -5   5 609.251 38.1307   3
   3  -5   5 310.655 21.2722   1
   3  -5   5 313.363 19.8480   2
   3   5  -5 300.932 19.3187   3
  -3  -5  -5 302.618 19.0154   1
   3  -5   5 292.504 19.3467   3
  -3   5   5 314.918 20.1676   1
   3   5  -5 310.535 21.0121   1
   3  -5  -5 306.445 19.5577   2
  -3  -5   5 323.211 19.3261   2
  -3   5  -5 345.036 22.1435   1
   3  -5  -5 303.366 19.9657   1
   3  -5  -5 285.587 18.3834   3
   3   5   5 315.972 19.1647   1
   5   5  -5 132.452 9.59633   3
   5   5  -5 132.086 11.2168   1
   5  -5   5 131.299 11.3769   1
   5  -5   5 135.110 10.4172   3
   5  -5   5 136.627 10.1422   2
  -5   5   5 120.572 10.4502   1
  -5   5  -5 124.174 11.3157   1
  -5  -5   5 96.7520 10.5082   1
   5  -5  -5 130.157 8.66296   3
   5   5   5 135.025 8.79421   2
   5  -5  -5 133.029 9.70032   2
   7  -5   5 59.3896 9.97148   1
   7  -5   5 47.8217 6.66599   2
   7   5  -5 54.1568 6.03500   3
   7  -5  -5 49.5818 4.77104   3
   7  -5  -5 51.3666 6.10427   2
  -7   5  -5 33.4481 7.76675   1
   7   5   5 46.4893 3.91629   2
   0   6  -5 219.915 15.9176   1
   0  -6  -5 240.126 14.5030   2
   0   6  -5 233.157 14.5270   3
   0  -6   5 218.720 14.4386   2
   0  -6   5 214.569 14.2400   3
   0   6  -5 219.856 15.8039   1
   2   6  -5 176.784 11.5851   3
   2   6  -5 172.158 13.0789   1
   2  -6   5 164.821 13.1991   1
   2  -6   5 171.035 11.9985   2
   2  -6   5 169.485 11.6020   3
   2   6  -5 172.205 13.0107   1
  -2   6   5 175.378 11.5881   1
  -2  -6   5 174.659 11.1925   2
   2  -6  -5 180.188 11.5726   1
   2  -6  -5 178.499 11.8362   2
  -2   6  -5 174.938 13.2123   1
  -2   6  -5 176.278 11.7911   3
  -2  -6   5 175.514 11.5075   3
   4  -6   5 93.4456 8.90504   1
   4  -6   5 86.3565 7.83949   2
   4   6  -5 99.3093 7.39241   3
   4   6  -5 83.7308 8.40205   1
  -4   6   5 91.9440 7.89360   1
  -4  -6  -5 90.8504 6.67318   1
   4  -6   5 73.2258 9.15789   3
   4  -6  -5 89.4986 5.93589   3
   4  -6  -5 88.7933 7.69311   1
   4   6   5 84.6964 6.74956   1
   4  -6  -5 82.2171 6.08455   3
  -4   6  -5 87.2771 8.95503   1
  -4  -6   5 89.8440 5.62460   2
   4  -6  -5 119.929 9.01615   2
   6  -6   5 28.7213 5.24796   2
   6  -6   5 34.5913 6.44683   1
   6   6  -5 38.6090 5.26511   3
  -6   6  -5 26.0866 5.58241   1
   6  -6  -5 36.5544 4.03358   3
   6  -6  -5 32.9503 5.37597   2
   6   6   5 31.4530 3.17140   2
  -1  -7  -5 64.0453 5.48351   2
   1   7  -5 61.6411 6.99039   1
   1  -7   5 67.4755 5.88129   2
   1   7  -5 63.3673 5.72187   3
   1  -7   5 64.0543 6.95434   1
   1  -7   5 67.9601 5.62327   3
   1   7  -5 70.1481 6.95243   1
  -1   7  -5 62.8764 5.77766   3
   1  -7  -5 66.3768 5.74843   2
  -1   7  -5 58.0033 6.56041   1
  -1  -7   5 65.9796 5.38358   2
  -1  -7   5 62.6408 5.49303   3
   3  -7   5 30.1645 4.69083   3
   3   7  -5 32.2822 5.19194   1
   3  -7   5 34.1303 4.96269   2
   3   7  -5 37.1515 4.52910   3
  -3   7   5 35.7549 4.26099   1
   3   7  -5 28.4685 6.75398   1
   3  -7   5 39.7373 5.57884   1
   3  -7  -5 37.1689 3.97087   1
   3  -7  -5 38.9726 4.72210   2
  -3   7  -5 27.6054 4.92867   1
  -5   7   5 21.9199 4.26443   1
   5  -7   5 11.4233 3.37229   2
   5   7  -5 13.1058 2.92485   3
   5  -7   5 23.0967 5.09306   1
   5  -7  -5 15.6300 2.15649   3
   5  -7  -5 16.2271 3.97008   2
   5  -7  -5 18.0531 3.80534   1
   5   7   5 17.7310 2.63476   2
  -5   7  -5 9.07411 4.01072   1
   7  -7   5 7.96626 4.64127   2
   7   7  -5 3.72986 2.75901   3
   7  -7  -5 9.49775 3.88486   2
   0   8  -5 113.702 13.1782   1
   0   8  -5 119.961 10.3935   1
   0  -8   5 120.106 8.55532   3
   0  -8   5 120.208 8.77213   2
   0   8  -5 120.349 8.85599   3
   0  -8  -5 122.203 8.82956   2
   2  -8   5 86.8126 8.57683   3
   2   8  -5 93.2496 7.34195   3
   2   8  -5 85.6474 8.47290   1
   2   8  -5 79.3696 8.19658   1
   2  -8   5 95.7251 7.70437   2
   2  -8   5 91.1451 8.69115   1
  -2   8  -5 94.5247 7.58435   3
  -2   8  -5 75.4745 8.24743   1
  -2  -8   5 93.4090 6.51613   2
   2  -8  -5 93.3027 7.54104   2
  -4   8   5 52.8238 5.66448   1
   4   8  -5 37.5500 7.50087   1
   4  -8   5 52.0332 6.89021   1
   4   8  -5 53.9058 5.76930   3
   4  -8   5 50.6776 6.31825   2
   4  -8  -5 49.6616 6.04167   2
  -4   8  -5 40.5565 6.67291   1
   4  -8  -5 49.7746 5.21417   1
   6  -8   5 20.6493 5.10269   2
   6   8  -5 21.7224 4.00346   3
   6  -8  -5 15.3253 4.03208   2
  -1  -9  -5 6.83987 2.37493   2
   1   9  -5 6.49296 2.69823   1
   1   9  -5 6.44968 2.43398   3
   1  -9   5 13.9584 3.38342   2
   1   9  -5 1.92954 3.69337   1
   1  -9  -5 8.26372 2.65057   2
  -1  -9   5 8.82895 2.59214   2
  -1   9  -5 10.4958 2.88214   3
   3  -9   5 9.36458 3.18476   1
   3   9  -5 4.47981 2.51380   1
  -3   9   5 9.50540 2.24358   1
   3   9  -5 9.12327 2.90147   3
   3  -9   5 4.74671 3.25554   2
   3  -9  -5 6.69523 1.95515   1
  -3   9  -5 6.82271 3.30591   1
   3  -9  -5 6.73520 3.02784   2
   5  -9   5 9.33277 4.50348   2
   5   9  -5 4.10291 2.68684   3
   5  -9  -5 2.09927 2.87203   2
   0 -10   5 46.4738 5.26083   2
   0 -10  -5 48.1076 5.31328   2
   0  10  -5 55.6301 5.80010   3
   0  10  -5 38.2920 5.81038   1
   2 -10   5 30.0106 5.70433   1
   2 -10   5 38.4847 5.34882   2
   2  10  -5 24.4749 5.62736   1
   2  10  -5 23.1385 6.80729   3
  -2 -10   5 35.9130 3.79875   2
   2 -10  -5 33.7171 5.25299   2
  -2  10  -5 41.6447 5.58149   3
   4 -10   5 23.6237 6.34280   2
   4  10  -5 18.0981 3.62876   3
   4 -10  -5 20.8488 4.77778   2
   4  10   5 19.7356 2.96871   3
   1  11  -5 45.7628 5.69471   3
   1 -11   5 35.4466 5.57333   2
  -1 -11  -5 37.7155 5.03370   2
   1 -11  -5 35.9364 5.50519   2
  -1  11  -5 38.7486 5.78540   3
   3  11  -5 33.2641 5.56950   3
   3 -11   5 23.4859 4.96540   2
   3 -11  -5 30.5920 5.83940   2
   3  11   5 30.2014 3.08948   3
   0 -12  -5 179.708 13.4286   2
   0 -12   5 191.677 13.3874   2
   0  12  -5 186.511 13.4560   3
   2 -12   5 161.952 12.6520   2
   2  12  -5 160.107 12.0347   3
   2 -12  -5 166.070 12.6637   2
  -2 -12   5 151.623 10.6610   2
   1  13  -5 82.6309 8.92000   3
   1 -13   5 72.9573 8.24255   2
  -1 -13  -5 86.8896 7.69694   2
   1 -13  -5 82.0109 8.37344   2
  -1 -13   5 80.7877 7.11006   2
  -1  13  -5 86.9082 8.66537   3
   0   0   6 111.202 7.52649   3
   0   0  -6 112.763 7.42664   3
   0   0  -6 121.218 8.56066   1
   2   0  -6 62.0401 5.70221   1
  -2   0  -6 62.6765 5.90384   1
   2   0   6 57.1314 4.73735   3
  -2   0   6 65.6823 5.86540   1
  -2   0   6 59.7657 4.88978   3
   2   0   6 68.4367 5.88544   1
   2   0   6 66.3969 5.38714   2
   4   0   6 30.8818 3.80952   3
   4   0  -6 30.6237 3.50138   2
   4   0   6 26.6683 4.42211   1
   4   0  -6 31.8715 3.76121   3
  -4   0  -6 30.0496 4.35750   1
  -4   0   6 28.4848 4.50207   1
   4   0  -6 32.2548 4.47712   1
   4   0   6 33.3025 4.51017   2
   6   0  -6 19.9904 4.32314   1
  -6   0   6 15.6853 3.75971   1
   6   0   6 21.9001 3.38999   3
   6   0  -6 16.7334 3.26068   2
   6   0   6 12.8094 3.13307   2
   6   0  -6 21.1402 3.31177   3
   8   0  -6 9.17210 2.78493   2
   8   0   6 11.0331 3.50339   2
   8   0  -6 5.87554 2.63214   3
   1   1  -6 5.08512 1.40224   3
   1  -1   6 4.44661 1.43750   3
   1  -1   6 3.80543 1.75994   1
   1   1  -6 4.59445 1.70007   1
  -1   1   6 4.21219 1.37421   3
  -1  -1  -6 4.98720 1.56361   1
   1   1  -6 3.55564 1.65043   1
  -1   1  -6 0.24187 0.74361   3
   1  -1  -6 4.78807 1.45523   1
  -1   1  -6 4.68745 1.67317   1
   1   1   6 6.03386 1.39336   3
  -1  -1   6 3.36854 1.42538   3
   1  -1  -6 4.86094 1.20242   3
   3   1  -6 8.31746 2.01313   3
   3  -1   6 2.84465 1.91680   1
   3  -1   6 5.31121 2.57006   2
   3   1  -6 6.04008 2.33726   1
  -3   1   6 4.24997 1.88418   1
   3  -1   6 3.63166 1.47687   3
  -3  -1  -6 3.85997 1.70513   1
   3  -1  -6 5.90693 1.99595   2
   3   1   6 5.76798 1.85855   3
   3   1   6 3.28569 1.98105   2
   3   1   6 4.13572 1.88101   1
  -3  -1   6 5.70678 3.59667   1
   3  -1  -6 5.36117 2.06377   1
  -3   1  -6 3.09622 1.77829   1
   5  -1   6 1.91330 2.15696   3
   5   1  -6 2.88959 1.84632   3
  -5   1   6 -0.1960 1.63757   1
   5   1  -6 4.26500 1.95428   1
   5  -1   6 1.31389 2.62022   2
   5  -1   6 2.61394 2.35182   1
  -5  -1  -6 3.53478 2.00476   1
   5  -1  -6 -0.8893 1.63316   1
   5  -1  -6 2.93470 1.93698   3
  -5  -1   6 1.95837 2.19714   1
  -5   1  -6 0.51985 1.77741   1
   5   1   6 6.80502 2.61968   1
   5  -1  -6 4.59105 2.25045   2
   5   1   6 0.64799 2.41636   2
   7  -1   6 0.75689 2.94619   2
   7   1  -6 1.10862 2.47134   1
   7   1  -6 1.57629 2.54733   3
   7  -1   6 -0.2544 2.41798   3
   7  -1  -6 -0.1334 1.76854   3
  -7  -1   6 -0.5142 1.66386   1
   7  -1  -6 1.27834 2.30679   2
   7   1   6 -0.6083 2.41997   2
   7  -1  -6 2.58254 3.05362   1
   0  -2  -6 8.18189 1.78220   1
   0   2   6 6.99421 1.35097   3
   0  -2   6 8.15078 1.81460   3
   0   2  -6 8.20886 2.38284   1
   0   2  -6 5.85973 1.37251   3
   0   2  -6 6.42890 2.17189   1
   2  -2   6 2.61430 1.89793   2
  -2   2   6 2.54489 1.39787   3
   2   2  -6 3.72875 2.35774   1
  -2  -2  -6 3.18582 1.33346   1
   2  -2   6 1.98226 1.79576   1
   2  -2   6 6.53252 1.90594   3
  -2   2   6 2.00528 1.43125   1
   2   2  -6 2.44486 1.62180   3
   2  -2  -6 3.04023 1.15913   3
  -2   2  -6 2.96269 1.63304   1
  -2  -2   6 1.84929 1.60991   3
   2  -2  -6 2.69214 1.38456   1
   2   2   6 2.29769 1.44142   1
   2  -2  -6 5.79215 2.02823   2
   2   2   6 3.51974 1.22194   3
  -4   2   6 7.28056 2.43825   1
   4  -2   6 3.42757 2.49305   2
   4   2  -6 1.89040 1.68846   1
   4  -2   6 3.83816 2.32755   1
  -4  -2  -6 4.11297 1.94368   1
   4  -2   6 3.63323 2.03704   3
   4   2  -6 6.55495 2.11046   3
   4   2   6 9.45178 2.74325   2
  -4  -2   6 4.81887 1.97321   1
   4   2   6 4.06840 2.22017   1
   4  -2  -6 4.63421 2.21775   2
   4  -2  -6 5.36074 2.48798   1
   4  -2  -6 3.57406 1.91128   3
  -4   2  -6 3.87429 2.40702   1
   6   2  -6 4.20243 3.75367   1
   6   2  -6 5.63309 2.86590   3
   6  -2   6 3.91740 3.19593   2
  -6   2   6 3.16419 2.28317   1
   6  -2   6 7.16743 3.16725   1
   6  -2   6 5.51979 2.95840   3
   6  -2  -6 6.00997 2.06488   3
  -6  -2   6 6.55002 2.51412   1
  -6   2  -6 2.31717 2.48933   1
   6  -2  -6 3.75789 2.18252   1
   6  -2  -6 5.22556 2.39531   2
   6   2   6 4.94577 2.59454   2
   8  -2   6 0.48978 2.96403   2
   8   2  -6 -0.8813 2.15546   3
   8  -2  -6 0.86264 2.68440   2
   8   2   6 3.21557 2.66727   2
   8  -2  -6 2.92779 2.09688   3
   1  -3   6 931.060 56.9208   2
   1  -3   6 902.177 56.5613   3
   1   3  -6 1155.98 59.4210   1
   1   3  -6 867.025 56.4964   3
   1  -3   6 941.664 58.1709   1
  -1  -3  -6 962.705 56.7596   1
  -1   3   6 928.469 56.2192   3
  -1  -3  -6 970.546 56.7551   1
   1   3  -6 931.368 58.1066   1
   1   3   6 909.629 56.1150   3
  -1   3  -6 909.617 56.5539   3
  -1  -3   6 880.796 56.5305   3
  -1   3  -6 1219.45 59.7648   1
   1  -3  -6 898.320 56.7465   2
   1  -3  -6 920.692 56.9475   1
   3  -3   6 496.219 32.7376   1
   3  -3   6 448.780 30.5507   3
   3   3  -6 613.699 33.8589   1
   3   3  -6 488.584 30.5894   3
   3  -3   6 501.579 31.1332   2
  -3  -3  -6 505.286 31.1839   1
  -3   3   6 488.881 31.7265   1
   3   3   6 485.142 31.1951   1
  -3  -3   6 659.062 34.9024   1
  -3   3  -6 430.645 34.9754   1
   3  -3  -6 492.414 31.6434   1
   3  -3  -6 497.385 30.8200   2
   3  -3  -6 480.890 30.1042   3
  -5  -3  -6 199.272 14.5257   1
   5  -3   6 189.463 13.3561   2
  -5   3   6 174.680 14.1548   1
   5   3  -6 202.473 13.5198   3
   5  -3   6 187.139 12.8123   3
   5   3  -6 208.953 15.4852   1
   5  -3   6 188.528 14.8634   1
  -5  -3   6 184.224 14.7754   1
   5   3   6 184.868 12.6347   2
  -5   3  -6 163.612 14.3958   1
   5  -3  -6 197.982 14.3204   1
   5  -3  -6 190.151 12.8338   2
   5  -3  -6 180.145 12.2120   3
   7   3  -6 67.4157 6.76650   3
   7  -3   6 58.8697 8.83363   3
   7  -3   6 68.6560 7.24396   2
  -7  -3   6 67.3127 8.53454   1
   7   3   6 64.1000 7.31701   2
   7  -3  -6 66.7659 6.64345   2
   0  -4  -6 129.832 8.46226   1
   0  -4  -6 126.975 8.39717   1
   0   4  -6 130.193 8.90359   3
   0  -4  -6 124.094 8.92096   2
   0   4  -6 160.456 11.4080   1
   0   4  -6 125.572 10.1344   1
   0  -4   6 129.224 9.14360   2
   0   4   6 128.226 8.11159   3
   0  -4   6 124.098 8.84286   3
   2   4  -6 92.5273 7.07203   3
   2   4  -6 92.4432 8.40598   1
   2  -4   6 68.2971 7.84709   3
  -2  -4  -6 97.7747 6.61470   1
   2  -4   6 99.4469 7.73878   2
  -2   4   6 94.7426 7.31998   1
   2   4  -6 97.0219 8.34526   1
   2  -4   6 98.0838 8.61404   1
  -2  -4   6 99.0505 7.22767   3
  -2   4  -6 101.107 7.26897   3
   2  -4  -6 100.571 7.32330   1
  -2   4  -6 120.990 9.83074   1
  -2  -4   6 96.2304 6.98563   2
   2   4   6 90.3799 6.24281   3
   2  -4  -6 95.6246 7.29386   2
   4  -4   6 53.3040 5.98407   2
  -4  -4  -6 54.4942 5.14394   1
   4  -4   6 58.9199 6.62896   1
   4  -4   6 53.3818 5.54298   3
   4   4  -6 56.9828 5.47956   3
   4   4  -6 58.5458 6.29057   1
  -4   4   6 61.1697 6.03062   1
   4  -4  -6 55.9930 5.71921   1
  -4   4  -6 54.8558 6.68488   1
   4   4   6 49.7087 5.08557   2
   4  -4  -6 53.8889 4.36120   3
   4   4   6 52.3596 5.26994   1
   4  -4  -6 55.5379 5.64904   2
  -4  -4   6 49.2537 6.40080   1
   6   4  -6 28.9659 4.75579   3
   6  -4   6 26.7560 5.16113   2
   6   4  -6 25.9945 5.35871   1
   6  -4   6 27.2555 4.07682   3
   6  -4   6 26.2832 5.48319   1
  -6   4   6 30.4045 5.28351   1
  -6   4  -6 25.0004 5.55192   1
   6  -4  -6 31.8900 4.63545   2
   6  -4  -6 24.4884 3.47892   3
  -6  -4   6 27.7008 5.98690   1
   6  -4  -6 25.0634 4.52414   1
   6   4   6 24.7772 3.86214   2
   8  -4   6 2.94246 4.12837   2
   8   4  -6 18.7401 5.61929   3
   8  -4  -6 6.94400 3.36850   2
   8   4   6 9.04805 2.47902   2
   1  -5   6 116.510 8.85671   2
   1   5  -6 113.536 9.72875   1
   1  -5   6 125.195 10.1812   1
   1   5  -6 115.658 9.83017   1
   1  -5   6 116.417 8.54218   3
  -1   5  -6 118.758 8.62172   3
  -1  -5   6 106.947 8.44998   3
  -1  -5   6 115.494 8.53936   2
  -1   5  -6 186.120 13.0795   1
   1  -5  -6 115.198 7.93220   1
   1   5   6 118.157 7.43108   3
   1  -5  -6 121.217 8.65807   2
   3   5  -6 81.1303 8.15577   1
  -3   5   6 65.8478 6.07703   1
  -3  -5  -6 63.6640 4.90673   1
   3  -5   6 63.7229 6.02219   3
   3  -5   6 63.5480 7.16687   1
   3   5  -6 68.8357 5.97834   3
   3  -5   6 60.8956 9.64313   2
   3  -5  -6 54.1891 7.73709   2
   3  -5  -6 64.6953 5.84705   1
  -3  -5   6 62.5821 5.25994   2
  -3   5  -6 74.5124 7.96373   1
   5   5  -6 34.2164 4.93954   3
   5  -5   6 34.6281 4.97195   3
  -5   5   6 26.0160 4.64717   1
   5  -5   6 28.3179 5.34816   1
   5  -5   6 39.9810 7.52937   2
   5   5  -6 26.3635 7.09949   1
  -5  -5   6 28.4850 5.30034   1
   5   5   6 30.9911 4.12363   2
   5  -5  -6 27.3331 4.44885   1
   5  -5  -6 28.8198 3.29435   3
  -5   5  -6 32.2912 6.67346   1
  -5  -5   6 28.0838 2.75981   2
   5  -5  -6 28.8381 4.73353   2
   7  -5   6 12.2965 4.64354   2
   7   5  -6 9.97283 2.91533   3
   7   5   6 10.5221 2.43088   2
   7  -5  -6 7.57380 2.13029   3
   7  -5  -6 8.51203 3.36089   2
   0  -6   6 836.777 52.8458   2
   0  -6   6 841.063 52.6363   3
   0   6  -6 878.277 52.8033   3
   0   6  -6 1052.16 56.3557   1
   0   6   6 879.223 51.8604   3
   0  -6  -6 867.735 52.8900   2
   0   6  -6 833.506 54.6152   1
   2   6  -6 677.860 41.2590   3
   2   6  -6 677.783 43.2030   1
   2  -6   6 675.577 43.3746   1
  -2   6   6 682.644 41.3508   1
   2  -6   6 685.253 41.2742   3
  -2  -6   6 691.170 41.0066   2
  -2   6  -6 637.801 43.1846   1
  -2  -6   6 709.374 41.2494   3
   2  -6  -6 682.293 41.2987   1
  -2   6  -6 716.514 41.5252   3
   4  -6   6 401.814 24.8269   3
   4   6  -6 376.664 24.5437   3
   4   6  -6 467.181 28.6797   1
   4  -6   6 396.857 25.2963   2
  -4   6   6 390.418 25.6819   1
   4  -6   6 407.898 27.1639   1
   4  -6  -6 386.071 25.4640   1
   4  -6  -6 361.316 24.7810   2
  -4   6  -6 360.207 26.7496   1
  -4  -6   6 386.945 24.5070   2
   6   6  -6 171.417 11.9686   3
   6  -6   6 161.279 12.8232   2
   6   6   6 164.687 10.7278   2
   6  -6  -6 169.247 12.3421   2
   6  -6  -6 161.017 10.5532   3
  -6   6  -6 138.587 15.9087   1
   1   7  -6 39.7803 5.50412   1
  -1  -7  -6 37.7246 4.24357   2
   1  -7   6 32.4638 4.67069   2
   1   7  -6 33.8107 5.08844   1
   1   7  -6 39.1390 4.84779   3
   1  -7   6 39.4584 4.89165   3
   1  -7  -6 39.4095 5.52690   2
  -1  -7   6 26.4317 5.32973   3
  -1   7  -6 28.0973 4.90226   1
  -1  -7   6 36.7236 4.29012   2
  -1   7  -6 36.2033 4.79535   3
   3   7  -6 19.9347 5.53574   1
  -3   7   6 26.2747 3.70947   1
   3  -7   6 20.3585 3.39897   3
   3   7  -6 28.9962 4.30752   3
   3   7  -6 19.7683 4.38854   1
   3  -7   6 25.0579 4.91499   1
   3  -7   6 27.5493 4.89815   2
  -3  -7   6 29.0167 3.05963   2
   3  -7  -6 26.5508 3.28984   1
   3  -7  -6 30.7464 4.55200   2
  -3   7  -6 18.5796 4.22848   1
   5   7  -6 16.9740 3.68104   3
   5  -7   6 20.4649 4.91002   2
   5  -7   6 8.47890 3.47753   1
   5  -7  -6 8.16139 4.91106   1
   5  -7  -6 13.2166 3.84074   2
  -5   7  -6 5.72705 3.31132   1
   5   7   6 14.0598 2.85508   2
   7   7  -6 0.16610 2.66643   3
   7  -7   6 1.68376 3.58581   2
   7  -7  -6 6.38434 3.90488   2
   0  -8   6 107.939 8.38907   2
   0   8  -6 114.383 8.57449   3
   0   8  -6 93.8305 9.60185   1
   0   8  -6 116.153 10.3641   1
   0  -8  -6 119.081 8.60163   2
   2   8  -6 74.9307 8.14993   1
   2  -8   6 87.0928 8.76687   1
   2   8  -6 91.7856 7.45442   3
   2   8  -6 84.9315 8.60375   1
   2  -8   6 88.5509 7.72659   2
  -2   8  -6 71.9467 8.16251   1
  -2  -8   6 92.7706 6.52525   2
   2  -8  -6 86.9942 7.43937   2
  -2   8  -6 89.4097 7.47606   3
   4  -8   6 54.5680 6.51745   2
   4   8  -6 51.1866 5.67326   3
   4   8  -6 44.4266 6.81971   1
  -4   8   6 54.9160 6.14434   1
   4  -8   6 40.3221 9.34517   1
  -4   8  -6 36.0713 6.80763   1
   4  -8  -6 51.8028 6.14268   2
   6  -8   6 30.3151 5.96784   2
   6   8  -6 27.5747 5.17812   3
   6  -8  -6 35.8852 5.93559   2
   1  -9   6 95.5745 8.25410   2
   1   9  -6 77.2334 10.0519   1
   1   9  -6 104.342 8.23290   3
  -1  -9  -6 106.408 8.00555   2
  -1  -9   6 103.673 7.74394   2
  -1   9  -6 107.761 8.41912   3
  -1   9  -6 88.8043 9.40071   1
   1  -9  -6 111.129 8.43372   2
   3  -9   6 63.3887 6.96172   2
   3   9  -6 66.5834 6.59254   3
   3  -9   6 50.2785 7.02131   1
   3  -9  -6 65.9735 6.69143   2
   3  -9  -6 63.8271 5.16457   1
  -3   9  -6 44.3463 6.96317   1
  -3  -9   6 65.6678 4.70141   2
   5   9  -6 22.6117 4.02743   3
   5  -9   6 32.0842 6.07706   2
   5   9   6 21.9343 3.16739   2
   5  -9  -6 31.1915 5.52797   2
   0 -10  -6 19.4078 3.62943   2
   0  10  -6 15.0596 5.67372   1
   0 -10   6 21.4030 4.01816   2
   0  10  -6 21.0657 3.95099   3
   2 -10   6 21.7034 4.69662   2
   2  10  -6 13.7066 3.24043   3
  -2  10  -6 19.5798 3.93535   3
   2 -10  -6 12.3219 3.61822   2
  -2 -10   6 17.3198 3.18067   2
   4  10  -6 10.5328 3.51074   3
   4 -10   6 12.0538 4.74367   2
   4 -10  -6 3.94088 3.27444   2
   1 -11   6 58.9399 6.98068   2
  -1 -11  -6 61.1452 6.46792   2
   1  11  -6 72.4456 7.23946   3
  -1  11  -6 60.4262 7.12533   3
  -1 -11   6 65.7796 6.19068   2
   1 -11  -6 66.5485 7.04337   2
   3  11  -6 46.3842 6.39186   3
   3 -11   6 42.1853 6.81269   2
   3 -11  -6 44.9097 6.51032   2
   0 -12  -6 45.4465 6.24421   2
   0 -12   6 46.9275 6.01305   2
   0  12  -6 43.6849 6.57402   3
   2 -12   6 37.2423 6.45410   2
   2  12  -6 35.8694 6.09667   3
  -2 -12   6 31.3301 5.01102   2
   2 -12  -6 35.1736 6.30911   2
   0   0  -7 0.24159 1.17421   3
   0   0  -7 -0.5326 1.02344   1
   0   0   7 1.24379 1.23738   3
  -2   0   7 1.15946 1.50820   3
   2   0   7 0.87299 1.47253   3
   2   0   7 -1.3629 1.34468   1
  -2   0  -7 0.12138 1.19220   1
   2   0  -7 0.30774 1.39397   1
   2   0   7 0.03400 2.20091   2
   4   0  -7 -1.0870 1.51826   3
   4   0   7 -1.3010 1.78674   1
   4   0   7 1.59874 2.93080   2
  -4   0  -7 -0.1403 1.37184   1
  -4   0   7 0.27870 1.51560   1
   4   0  -7 0.30801 1.62470   2
   4   0   7 0.52000 1.44724   3
   4   0  -7 0.02964 1.74916   1
   6   0  -7 2.41837 3.42466   2
  -6   0   7 0.62778 2.06986   1
   6   0   7 -0.2338 2.33926   3
   6   0   7 2.04277 2.98157   2
   6   0  -7 -1.2135 1.73851   3
   6   0  -7 2.70551 2.53584   1
   8   0   7 -1.6715 2.86207   2
   8   0  -7 -2.0121 2.21233   3
   1   1  -7 236.957 16.3983   1
   1   1  -7 254.629 17.9658   1
   1  -1   7 224.398 15.1041   3
   1   1  -7 254.530 15.0779   3
  -1  -1  -7 251.205 16.1351   1
   1  -1  -7 237.779 14.7995   3
  -1   1  -7 248.839 16.5393   1
  -1  -1   7 231.883 15.1412   3
   1  -1  -7 243.935 16.0447   1
   1  -1  -7 248.238 16.1918   1
   1   1   7 235.248 14.9490   3
   3  -1   7 127.863 9.37499   3
   3   1  -7 134.933 9.31978   3
  -3  -1  -7 143.383 10.5212   1
   3   1  -7 131.852 10.7004   1
   3  -1   7 137.173 10.1136   2
   3  -1   7 140.997 11.0565   1
  -3   1   7 132.148 10.6696   1
   3   1   7 140.461 9.87600   2
   3  -1  -7 140.222 9.18196   3
   3  -1  -7 140.242 10.6583   1
  -3  -1   7 139.113 11.0417   1
   3   1   7 144.820 10.6819   1
   3   1   7 144.189 10.1891   3
  -3   1  -7 134.061 10.7192   1
   3  -1  -7 136.400 9.51509   2
  -5  -1  -7 66.5371 8.15030   1
   5  -1   7 78.2315 7.04877   2
  -5   1   7 64.9335 7.46006   1
   5  -1   7 79.1368 7.96071   1
   5  -1   7 67.2141 6.36647   3
   5   1  -7 71.2716 6.24612   3
   5   1  -7 117.063 10.8192   1
   5   1   7 60.8974 9.70243   2
  -5  -1   7 67.9972 7.64789   1
   5  -1  -7 76.9486 7.59410   2
  -5   1  -7 68.6790 7.48612   1
   5  -1  -7 77.9808 5.93531   3
   5  -1  -7 75.8607 7.62678   1
   5   1   7 68.9446 6.16643   3
   7   1  -7 37.3334 6.63021   3
   7  -1   7 35.3028 5.54627   2
   7  -1   7 30.7111 5.28975   3
   7  -1  -7 30.0294 4.48856   3
   7   1   7 41.2252 5.33664   3
   7   1   7 31.8635 4.96512   2
   7  -1  -7 33.0201 4.53783   2
   0  -2  -7 465.478 30.5040   1
   0  -2  -7 479.859 28.8600   1
   0   2  -7 467.854 28.0362   3
   0   2   7 437.595 27.7482   3
   0   2  -7 472.543 29.7256   1
   0   2  -7 475.056 29.6389   1
   0  -2   7 451.163 28.0644   3
   2  -2   7 347.481 21.1107   3
   2   2  -7 344.343 22.6028   1
   2   2  -7 330.645 20.9888   3
   2   2  -7 305.546 24.8934   1
  -2  -2  -7 360.309 21.8740   1
  -2   2   7 332.099 21.0411   3
   2  -2   7 348.132 21.6393   2
  -2   2   7 344.485 22.1666   1
   2  -2   7 359.595 22.9074   1
   2  -2  -7 333.277 21.2673   2
  -2   2  -7 343.196 22.7255   1
  -2  -2   7 338.834 21.1015   3
   2   2   7 329.424 20.6937   3
   2  -2  -7 350.963 20.5812   3
   2   2   7 348.038 21.8581   1
   2  -2  -7 337.763 21.9708   1
   4  -2   7 196.562 13.5083   2
   4   2  -7 195.332 14.4356   1
   4   2  -7 199.242 12.7300   3
  -4   2   7 176.447 14.0253   1
   4  -2   7 188.678 12.7451   3
   4  -2   7 187.853 14.6635   1
  -4  -2  -7 203.827 13.9166   1
  -4  -2   7 188.223 14.6593   1
   4   2   7 197.288 13.0386   2
   4   2   7 187.473 12.3533   3
   4  -2  -7 190.817 12.8672   2
   4  -2  -7 182.411 12.2239   3
  -4   2  -7 185.302 14.4876   1
   4  -2  -7 192.578 14.0967   1
   4   2   7 190.826 13.8220   1
   6  -2   7 85.6756 7.43686   3
   6  -2   7 80.6789 7.87487   2
   6   2  -7 87.9756 8.81128   1
   6   2  -7 77.7485 8.26303   3
  -6   2   7 76.0087 8.55245   1
  -6  -2   7 72.7956 8.55548   1
   6  -2  -7 84.9990 8.34308   1
   6   2   7 87.5266 7.41453   2
   6   2   7 87.5715 7.09351   3
   6  -2  -7 91.8570 7.34123   2
   8  -2   7 33.6705 6.07125   2
   8   2  -7 29.0897 5.02081   3
   8  -2  -7 29.0408 4.98993   2
   8   2   7 30.3643 4.82421   2
  -1   3   7 457.262 27.3497   3
   1   3  -7 447.591 27.7237   3
   1  -3   7 475.351 31.5595   1
   1   3  -7 441.607 29.4219   1
  -1  -3  -7 471.455 27.9990   1
   1  -3   7 443.021 27.7420   3
  -1  -3  -7 484.693 28.1107   1
   1  -3   7 446.064 28.1721   2
   1   3  -7 449.089 29.2729   1
  -1  -3   7 446.487 27.7472   3
   1   3   7 459.391 27.2669   3
   1  -3  -7 460.336 28.2993   1
   1  -3  -7 457.909 28.2141   1
  -1   3  -7 469.351 27.7689   3
   1  -3  -7 441.352 27.9584   2
  -1   3  -7 444.680 29.4312   1
   3  -3   7 232.355 15.9046   2
   3   3  -7 238.567 15.2029   3
   3   3  -7 234.382 16.8874   1
   3  -3   7 246.750 17.2294   1
  -3  -3  -7 243.274 15.7393   1
   3  -3   7 229.809 15.2766   3
  -3   3   7 226.058 16.2272   1
   3  -3  -7 239.810 14.5500   3
   3  -3  -7 241.867 16.2362   1
   3   3   7 231.255 14.6987   3
   3  -3  -7 228.257 15.4209   2
  -3   3  -7 236.910 17.0834   1
   3   3   7 240.313 15.8364   1
   5  -3   7 93.0549 8.63274   2
   5   3  -7 89.3119 10.7674   3
  -5   3   7 94.5617 9.03759   1
   5  -3   7 101.886 8.11158   3
   5   3  -7 97.3187 9.28078   1
   5  -3   7 95.4893 11.3200   1
   5   3   7 90.9716 7.94463   2
   5  -3  -7 103.347 8.03767   2
  -5  -3   7 91.7620 9.56122   1
   5  -3  -7 98.0157 7.12908   3
   5  -3  -7 109.271 9.06960   1
   7  -3   7 36.7529 6.24478   2
   7   3  -7 37.4366 5.31926   3
   7  -3  -7 33.4864 4.18694   3
   7   3   7 35.2185 4.89600   2
   7  -3  -7 40.9522 5.52739   2
   0  -4  -7 252.752 16.5717   2
   0  -4   7 256.084 17.5034   3
   0   4   7 269.000 15.7656   3
   0   4  -7 258.765 16.4250   3
   0  -4  -7 261.672 16.2186   1
   0  -4  -7 260.430 16.2942   1
   0   4  -7 260.131 18.1326   1
   0   4  -7 256.938 18.0843   1
   0  -4   7 256.379 16.7992   2
   2  -4   7 205.559 13.9613   3
   2   4  -7 205.749 15.4319   1
   2  -4   7 213.019 14.5812   2
   2  -4   7 212.455 15.8528   1
  -2   4   7 213.529 14.4667   1
  -2  -4  -7 217.222 13.7116   1
   2   4  -7 209.380 13.9432   3
   2   4  -7 269.835 17.2890   1
  -2   4  -7 205.999 16.7345   1
  -2   4  -7 216.738 14.0082   3
   2  -4  -7 202.865 14.1285   2
   2  -4  -7 212.493 14.3175   1
   2   4   7 213.249 13.2077   3
  -2  -4   7 222.515 13.9486   2
  -2  -4   7 199.912 13.9156   3
   4   4  -7 98.4848 8.62298   3
   4  -4   7 106.330 9.94739   1
   4  -4   7 110.307 8.82470   2
  -4  -4  -7 95.9685 8.05308   1
   4  -4   7 106.059 8.22828   3
  -4   4   7 98.8756 8.80851   1
   4   4  -7 111.865 10.0774   1
   4  -4  -7 100.298 8.58947   1
   4  -4  -7 103.228 6.98229   3
  -4  -4   7 105.177 9.87316   1
  -4   4  -7 101.530 9.64160   1
   4  -4  -7 106.023 8.22408   2
   4   4   7 92.9326 7.81628   2
   6  -4   7 38.6132 6.21812   2
   6  -4   7 49.2092 6.21190   3
   6   4  -7 39.4140 5.45621   3
   6   4  -7 54.9088 9.47247   1
  -6  -4   7 52.8177 7.71858   1
   6  -4  -7 34.2541 3.98610   3
   6  -4  -7 38.5291 5.42051   2
   1   5  -7 879.890 57.7020   1
   1  -5   7 920.036 55.8082   3
   1   5  -7 854.399 60.6287   1
   1  -5   7 929.326 56.2250   2
  -1   5   7 989.834 55.2080   3
  -1  -5   7 946.829 55.8269   3
   1   5   7 985.315 55.0466   3
  -1   5  -7 904.896 57.8540   1
   1  -5  -7 943.927 56.1151   2
   1  -5  -7 972.352 55.7971   1
  -1   5  -7 967.538 55.8863   3
  -1  -5   7 922.835 55.9251   2
   1  -5  -7 916.949 55.6462   1
   3  -5   7 607.486 37.7710   2
   3   5  -7 600.917 39.4111   1
   3   5  -7 591.003 37.0773   3
   3  -5   7 608.070 39.4871   1
   3  -5   7 632.712 37.2224   3
  -3   5   7 600.282 37.9035   1
  -3  -5   7 640.840 36.8473   2
   3  -5  -7 597.872 37.3897   2
   3  -5  -7 613.525 37.8559   1
   5   5  -7 297.159 19.0240   3
   5  -5   7 298.832 19.8377   2
   5  -5   7 292.272 19.0991   3
  -5   5   7 301.621 20.6855   1
   5  -5   7 284.570 21.5257   1
   5  -5  -7 296.745 19.3333   2
  -5  -5   7 279.511 24.5417   1
   5  -5  -7 284.557 17.9131   3
  -5  -5   7 312.367 17.9870   2
   5   5   7 285.399 18.6802   2
  -5   5  -7 276.339 21.4701   1
   5  -5  -7 288.403 20.9623   1
   7   5  -7 114.752 9.34782   3
   7  -5   7 115.090 10.6511   2
   7  -5  -7 111.762 9.77621   2
   0   6  -7 115.853 9.66202   1
   0   6  -7 97.4075 8.04980   3
   0   6  -7 96.7164 9.27956   1
   0  -6   7 106.169 7.98511   3
   0  -6   7 100.446 8.26533   2
   0  -6  -7 103.518 8.19779   2
   0   6   7 110.769 6.77356   3
   2   6  -7 66.0980 7.55853   1
   2  -6   7 76.9904 7.93518   1
   2   6  -7 78.0268 7.78205   1
   2  -6   7 81.8587 7.27777   2
   2   6  -7 70.3161 6.55708   3
   2  -6   7 79.9052 6.75338   3
   2   6   7 82.2528 5.50695   3
  -2   6  -7 63.7425 7.75484   1
   2  -6  -7 73.6246 5.98039   1
  -2  -6   7 83.3754 8.17089   3
  -2   6  -7 78.8493 7.06719   3
  -2  -6   7 70.1282 6.25650   2
   2  -6  -7 72.3522 6.74931   2
   4   6  -7 45.6809 8.32796   1
   4   6  -7 40.6101 5.21564   3
   4  -6   7 35.2634 5.56733   3
   4  -6   7 32.1700 6.06762   1
  -4   6   7 43.7709 5.29344   1
   4   6  -7 37.5560 6.03519   1
   4  -6   7 56.2459 8.42493   2
   4  -6  -7 44.7466 4.84079   1
   4  -6  -7 34.2426 5.27258   2
  -4   6  -7 33.7269 6.14319   1
  -4  -6   7 42.1259 3.86251   2
   6  -6   7 5.05890 3.45179   2
   6   6  -7 11.3819 2.95094   3
   6  -6  -7 22.4140 4.74887   2
   6   6   7 14.4953 3.21313   2
   6  -6  -7 13.8869 3.34238   3
   1   7  -7 20.3965 5.50776   1
   1  -7   7 16.4359 3.67344   2
   1   7  -7 18.2408 3.31919   3
   1  -7   7 15.7065 3.18651   3
   1   7  -7 18.2758 4.26135   1
  -1   7  -7 10.1515 3.16541   1
  -1  -7   7 14.9575 3.18678   2
  -1  -7   7 18.1542 3.12317   3
   1  -7  -7 11.2996 2.90192   2
  -1   7  -7 13.4571 2.75907   3
   3   7  -7 14.0564 4.47486   1
   3   7  -7 8.01167 3.46728   1
   3  -7   7 5.94364 2.91903   2
   3   7  -7 8.15475 2.98475   3
   3  -7   7 8.14691 2.77726   1
  -3   7   7 9.47829 2.55938   1
   3  -7  -7 8.34080 3.24221   2
   3  -7  -7 10.8045 2.23358   1
  -3  -7   7 13.2440 2.52636   2
  -3   7  -7 7.92441 3.89650   1
   5  -7   7 1.08767 2.98702   2
   5  -7   7 -1.5415 3.54182   1
   5   7  -7 4.79053 2.62292   3
   5  -7  -7 2.92650 2.85747   2
   5   7   7 1.55503 2.63285   2
  -5   7  -7 4.08617 3.39080   1
   0  -8   7 43.1112 5.15950   2
   0  -8  -7 45.1915 5.13677   2
   0   8  -7 37.7691 6.48298   1
   0   8  -7 41.1818 5.35584   3
   0   8  -7 36.6863 5.65841   1
   2  -8   7 38.4554 5.41677   2
   2   8  -7 27.5808 5.17260   1
   2  -8   7 29.7134 5.56293   1
   2   8  -7 30.0758 5.63452   1
   2   8  -7 32.7756 5.25611   3
  -2   8  -7 34.2112 5.36149   3
   2  -8  -7 30.3522 4.99192   2
  -2   8  -7 39.4184 7.12405   1
  -2  -8   7 33.4939 4.09310   2
   4  -8   7 12.4526 3.64202   2
  -4   8   7 21.4399 4.10596   1
   4  -8   7 9.94541 4.14668   1
  -4   8  -7 23.8787 6.38968   1
   4  -8  -7 19.5168 4.22594   2
  -4  -8   7 17.9356 3.21775   2
   4  -8  -7 14.6617 3.00662   1
   6   8  -7 4.44744 2.61613   3
   6  -8   7 4.92982 3.75284   2
   6   8   7 8.69296 4.17855   2
   6  -8  -7 4.64019 3.18120   2
  -1  -9  -7 0.73077 2.32138   2
   1   9  -7 0.50425 2.54016   3
   1   9  -7 -0.7157 1.87271   1
   1  -9   7 0.29857 2.79084   2
  -1   9  -7 -1.0273 2.09937   1
  -1   9  -7 0.37567 2.35664   3
  -1  -9   7 3.18379 4.34340   2
   1  -9  -7 4.38921 3.08983   2
   3   9  -7 0.64093 2.10006   3
   3  -9   7 0.85571 3.29300   2
  -3  -9   7 0.29680 1.67798   2
   3  -9  -7 1.03195 2.73738   2
   5   9  -7 -1.4958 2.35749   3
   5  -9   7 0.41136 3.46860   2
   5   9   7 -0.8615 2.30579   2
   5  -9  -7 0.66038 4.59705   2
   0  10  -7 12.0750 3.97701   3
   0 -10  -7 7.13856 3.14772   2
   0 -10   7 9.45834 3.38397   2
   2 -10   7 1.20119 3.01648   2
   2  10  -7 6.84984 3.29336   3
  -2 -10   7 6.27537 2.44179   2
   2 -10  -7 7.71660 3.66738   2
  -2  10  -7 6.79924 4.35759   3
   4 -10   7 0.88826 3.74691   2
   4  10  -7 0.47506 2.45137   3
   4 -10  -7 1.63169 3.49466   2
   1  11  -7 157.144 12.2571   3
   1 -11   7 147.150 12.1574   2
  -1 -11  -7 171.472 12.0693   2
   1 -11  -7 159.184 12.4735   2
  -1 -11   7 164.504 11.6093   2
  -1  11  -7 166.466 12.2723   3
   3  11  -7 112.093 9.74320   3
   3 -11   7 111.246 10.3504   2
   3 -11  -7 105.673 9.98267   2
   0 -12  -7 85.5713 8.33826   2
   0  12  -7 84.7182 8.54745   3
   0 -12   7 83.7843 8.04960   2
   2 -12   7 64.6282 8.13161   2
   2  12  -7 66.9123 7.49768   3
   2 -12  -7 77.7389 8.32222   2
  -2 -12   7 65.5042 5.92621   2
   0   0  -8 179.247 11.3255   3
   0   0   8 175.134 11.5410   3
   0   0  -8 180.933 12.8966   1
   2   0  -8 131.732 10.5901   1
   2   0   8 135.226 9.13895   3
   2   0   8 134.872 10.5532   1
   2   0  -8 124.375 10.3171   1
  -2   0  -8 137.893 10.4095   1
  -2   0   8 129.588 9.21152   3
   2   0   8 128.922 9.79246   2
   2   0  -8 143.248 9.32657   3
  -4   0  -8 83.1397 7.74935   1
   4   0  -8 84.6429 6.23893   3
   4   0  -8 81.2714 7.77907   1
   4   0   8 76.5501 6.45951   3
  -4   0   8 71.3833 7.76680   1
   4   0   8 80.1291 7.89841   1
   4   0   8 77.0931 7.39970   2
   6   0   8 44.7649 5.28262   3
   6   0  -8 38.9810 4.59751   3
   6   0  -8 38.4462 7.22304   1
  -6   0   8 22.8707 6.46430   1
   6   0   8 41.9775 5.77303   2
   1   1  -8 227.749 15.9300   1
   1   1  -8 218.253 15.7257   1
  -1   1   8 210.732 14.2554   3
  -1  -1  -8 227.310 15.4434   1
   1  -1   8 227.105 14.4062   3
  -1  -1  -8 221.695 15.3444   1
   1  -1  -8 220.433 13.9130   3
  -1   1  -8 239.391 15.2310   3
   1   1   8 214.355 14.1636   3
   1  -1  -8 231.700 15.5429   1
   1  -1  -8 229.383 15.3953   1
  -1  -1   8 234.309 14.4356   3
  -1   1  -8 229.377 15.8851   1
   3   1  -8 139.902 11.3949   1
   3  -1   8 121.891 12.3009   2
  -3   1   8 137.917 11.3245   1
   3  -1   8 141.638 9.96863   3
  -3  -1  -8 160.765 11.6303   1
   3   1  -8 142.891 9.80997   3
   3  -1   8 151.499 11.8462   1
  -3   1  -8 144.206 11.4920   1
  -3  -1   8 149.468 10.2200   3
   3   1   8 150.805 10.5895   2
   3  -1  -8 145.462 11.2334   1
   3  -1  -8 140.882 9.59868   3
  -5   1   8 70.4223 7.72869   1
   5  -1   8 72.9970 6.61085   3
   5   1  -8 65.9566 6.27540   3
   5   1  -8 72.7723 7.56709   1
   5  -1   8 73.3660 7.38314   2
   5   1   8 69.2105 6.37933   3
   5   1   8 70.7969 7.15319   2
  -5  -1   8 106.265 10.9342   1
   5  -1  -8 70.3725 6.37804   2
   5  -1  -8 71.3429 7.57169   1
   7  -1   8 32.3478 5.55378   2
   7   1  -8 27.6374 5.45781   3
   7  -1  -8 25.0970 3.80162   3
   7   1   8 22.3689 4.56426   2
   7  -1  -8 25.4752 4.41241   2
   0   2  -8 758.766 46.6402   1
   0   2  -8 740.328 44.6573   3
   0  -2  -8 744.817 45.6055   1
   0   2  -8 747.746 46.4994   1
   0  -2  -8 747.338 45.6586   1
   0  -2   8 740.524 44.7481   3
   0   2   8 753.403 44.4734   3
   2   2  -8 576.019 35.7017   3
  -2  -2  -8 583.386 36.6995   1
   2  -2   8 575.735 35.8162   3
   2  -2   8 551.525 36.3241   2
   2   2  -8 583.560 37.5562   1
   2   2  -8 767.163 40.0235   1
   2  -2   8 593.734 37.8211   1
  -2  -2   8 590.144 35.8681   3
   2   2   8 555.995 35.4461   3
   2  -2  -8 585.438 36.9079   1
  -2   2  -8 587.993 37.7435   1
   2  -2  -8 578.447 35.2291   3
   4  -2   8 279.945 18.4008   2
   4  -2   8 296.439 20.8490   1
   4  -2   8 265.700 17.6239   3
   4   2  -8 283.850 17.5719   3
  -4   2   8 274.877 19.3795   1
   4   2  -8 283.699 19.6112   1
   4  -2  -8 286.625 17.8561   2
  -4  -2   8 256.689 19.7470   1
   4   2   8 272.528 17.2625   3
   4  -2  -8 281.967 17.1258   3
   4   2   8 271.672 18.1307   2
  -4   2  -8 202.529 21.1233   1
   4  -2  -8 289.241 19.3049   1
   6  -2   8 115.124 8.86328   3
   6   2  -8 148.895 12.8758   1
   6  -2   8 93.6873 9.46291   2
   6  -2  -8 104.443 7.88904   3
   6   2   8 101.518 8.37889   3
   6  -2  -8 107.600 8.73728   2
   6   2   8 91.3470 8.80358   2
  -6  -2   8 107.147 10.9929   1
   1   3  -8 476.140 32.4995   1
   1   3  -8 489.960 30.6346   3
   1   3  -8 633.221 34.6172   1
   1  -3   8 486.026 30.7036   3
  -1  -3  -8 488.108 31.0849   1
  -1  -3  -8 492.471 30.9961   1
  -1   3   8 483.550 30.2705   3
   1  -3   8 484.289 31.1826   2
   1   3   8 485.000 30.1911   3
   1  -3  -8 483.693 31.2242   1
  -1  -3   8 459.924 30.6768   3
   1  -3  -8 491.577 31.3619   1
  -1   3  -8 506.613 30.6761   3
  -1   3  -8 630.491 34.6219   1
  -3  -3  -8 309.692 19.9424   1
   3  -3   8 252.900 20.2436   3
   3   3  -8 408.164 23.6829   1
   3   3  -8 296.757 19.2186   3
   3  -3   8 306.964 20.1091   2
   3  -3   8 311.425 21.6244   1
  -3   3   8 309.722 20.6217   1
   3  -3  -8 298.907 19.5801   2
  -3  -3   8 314.425 19.4888   3
   3   3   8 299.336 19.9576   1
  -3   3  -8 278.731 21.1095   1
   3  -3  -8 300.248 20.8964   1
   3   3   8 288.210 18.7668   3
   3  -3  -8 303.728 18.5045   3
   5   3  -8 138.946 12.4178   1
   5  -3   8 212.691 14.6704   2
   5  -3   8 155.521 10.9699   3
  -5   3   8 156.807 12.4466   1
   5   3  -8 151.601 11.0512   3
   5  -3  -8 145.937 9.91143   3
   5  -3  -8 146.482 10.9467   2
  -5   3  -8 141.642 13.8045   1
   5  -3  -8 138.300 11.9013   1
  -5  -3   8 133.393 12.5854   1
   5   3   8 135.369 10.9044   2
   5   3   8 143.484 10.2670   3
   7  -3   8 58.8250 7.49318   2
   7   3  -8 60.1069 6.28205   3
   7  -3  -8 54.2854 6.67069   2
   7   3   8 59.5854 6.41040   2
   0  -4   8 107.199 8.41113   3
   0  -4   8 112.489 9.03839   2
   0   4  -8 120.400 10.0904   1
   0   4   8 118.646 7.73236   3
   0  -4  -8 116.917 8.23648   1
   0   4  -8 118.163 10.0731   1
   0  -4  -8 117.658 8.13227   1
  -2  -4  -8 92.4357 6.85804   1
   2   4  -8 88.1717 8.50119   1
   2   4  -8 88.4669 7.24740   3
   2  -4   8 92.4874 7.56654   3
   2  -4   8 86.3219 8.14811   2
   2  -4   8 94.0960 8.85073   1
   2   4  -8 89.2252 8.65919   1
   2  -4  -8 91.4649 7.37761   1
   2   4   8 86.8928 6.43354   3
   2  -4  -8 93.2941 7.51276   2
  -2  -4   8 90.2973 7.41011   3
  -2   4  -8 121.568 11.0212   1
  -2  -4   8 89.3046 7.38811   2
   4  -4   8 46.1928 6.25451   2
   4  -4   8 50.8753 5.87949   3
  -4   4   8 43.7139 7.57728   1
   4  -4   8 46.9496 6.94884   1
   4   4  -8 30.7551 5.73875   3
   4   4  -8 42.9721 5.83454   1
   4   4   8 42.8207 5.37676   2
  -4   4  -8 53.2780 6.65763   1
   4  -4  -8 51.0861 6.49733   1
   4   4   8 48.3105 4.54460   3
   4  -4  -8 50.6127 5.67489   2
   4  -4  -8 50.7491 4.11795   3
   6   4  -8 21.4841 3.82079   3
   6   4  -8 13.7789 4.08513   1
   6  -4   8 16.7273 4.66123   2
  -6  -4   8 31.1047 7.97170   1
   6   4   8 25.8671 4.42834   2
   6  -4  -8 14.3030 2.52291   3
   6  -4  -8 11.2973 3.48152   2
   6   4   8 21.9723 3.34133   3
   1  -5   8 18.0303 2.99658   3
  -1   5   8 20.1858 3.01496   3
   1   5  -8 23.8148 4.48477   1
   1  -5   8 32.0906 5.41663   2
   1   5  -8 24.5062 6.08208   1
  -1   5  -8 19.5605 3.10434   3
  -1   5  -8 26.7079 5.86338   1
  -1  -5   8 23.6104 3.48772   3
   1  -5  -8 22.4281 4.08682   2
   1   5   8 20.9430 2.74770   3
   1  -5  -8 19.9408 2.85396   1
  -1  -5   8 23.2431 4.02153   2
   1  -5  -8 18.3820 2.99452   1
   3  -5   8 15.6433 3.27086   3
   3   5  -8 10.4039 3.38609   1
   3  -5   8 15.4353 4.08289   1
  -3   5   8 10.5219 2.80796   1
   3  -5   8 9.53455 3.60597   2
   3   5  -8 19.4469 3.56603   3
   3   5  -8 7.04079 2.42707   1
  -3  -5   8 17.9454 3.25672   2
   3  -5  -8 18.0357 3.75168   2
  -3   5  -8 15.6096 4.16924   1
   3  -5  -8 9.42641 2.40553   1
   3   5   8 13.3117 2.12845   3
   5  -5   8 6.39226 4.17315   1
   5  -5   8 10.9652 4.44112   2
   5   5  -8 -2.1512 5.76899   1
   5   5  -8 5.48442 2.39321   3
   5  -5  -8 5.06713 3.08279   2
  -5  -5   8 10.6729 2.57773   2
  -5   5  -8 7.75726 4.36202   1
   5   5   8 7.88308 2.31191   3
   5  -5  -8 9.31827 1.67974   3
   5   5   8 3.87114 3.07731   2
   7  -5   8 0.29743 3.65775   2
   7   5  -8 5.36639 2.86783   3
   7   5   8 3.26621 2.91269   2
   7  -5  -8 10.7498 3.87233   2
   0   6  -8 136.385 9.92641   3
   0  -6  -8 129.357 9.86694   2
   0   6   8 126.802 9.60334   3
   0  -6   8 125.679 9.73078   3
   0   6  -8 161.652 13.1137   1
   2   6  -8 71.0669 11.2654   1
   2  -6   8 98.4693 8.75297   2
   2   6  -8 105.204 8.22914   3
   2  -6   8 103.384 8.87191   3
   2  -6   8 107.988 9.98546   1
   2   6  -8 118.423 10.7723   1
  -2  -6   8 95.7291 7.90331   2
  -2   6  -8 99.5770 9.64283   1
   2  -6  -8 92.9549 7.28757   1
   2   6   8 109.148 6.78018   3
   2  -6  -8 102.821 8.33084   2
  -2  -6   8 98.9547 8.06341   3
  -2   6  -8 98.2579 9.19844   3
   4   6  -8 52.2249 5.89368   3
   4   6  -8 57.4144 8.36643   1
  -4   6   8 54.9106 6.27274   1
   4  -6   8 49.0446 6.86784   2
   4  -6   8 47.8440 7.34545   1
   4  -6  -8 53.5225 6.25884   2
   4   6   8 51.7150 5.46821   3
  -4   6  -8 45.2309 7.11439   1
   4  -6  -8 68.4009 5.98738   1
  -4  -6   8 57.4721 5.00926   2
   6  -6   8 16.9946 4.83138   2
   6   6  -8 27.1862 4.74185   3
   6   6   8 23.6843 4.17213   2
   6  -6  -8 16.0403 4.08483   2
   1   7  -8 76.5410 6.98738   3
   1   7  -8 98.2171 10.8045   1
   1   7  -8 99.9466 11.1039   1
   1  -7   8 76.5886 7.45641   2
   1  -7   8 83.1170 7.96057   3
  -1   7  -8 76.2400 7.17317   3
   1  -7  -8 65.4160 6.83921   2
  -1   7  -8 62.9046 8.05169   1
   1   7   8 76.2065 5.15806   3
  -1  -7   8 64.4725 7.47352   2
  -1   7  -8 99.3516 13.1472   1
   3  -7   8 43.8434 6.32735   2
   3   7  -8 38.4683 6.08378   1
   3  -7   8 38.0266 6.23317   1
   3   7  -8 50.9656 5.76140   3
  -3   7  -8 24.8201 5.43267   1
   3   7   8 49.5850 3.83067   3
   3  -7  -8 39.9196 4.28101   1
   3  -7  -8 42.3525 5.74657   2
  -3  -7   8 46.2581 4.59012   2
   5   7  -8 12.1729 2.46328   3
   5  -7   8 11.7674 3.91588   2
   5  -7  -8 22.7731 4.85445   2
   5   7   8 23.6847 4.08799   2
   0   8  -8 62.6316 7.50228   1
   0  -8  -8 64.3726 6.39743   2
   0   8  -8 44.4516 6.86776   1
   0   8  -8 68.5688 6.53260   3
   0  -8   8 57.9202 6.25849   2
   2  -8   8 54.7466 6.52085   2
   2   8  -8 37.2953 6.11748   1
   2   8  -8 50.0013 6.01748   3
   2  -8  -8 51.6121 6.12214   2
  -2  -8   8 50.6192 5.26842   2
  -2   8  -8 52.3492 6.24623   3
  -2   8  -8 35.7207 6.15760   1
   2   8   8 55.5331 3.61673   3
   4  -8   8 12.4589 3.88047   2
   4   8  -8 30.5419 5.39810   3
  -4  -8   8 28.8771 2.90527   2
   4  -8  -8 29.2183 5.44794   2
   4   8   8 27.9036 3.22293   3
   1   9  -8 0.53009 2.31271   3
   1  -9   8 5.15880 3.53211   2
  -1  -9   8 5.35754 2.72115   2
   1  -9  -8 2.61126 2.48699   2
  -1   9  -8 5.53932 3.09962   3
   3  -9   8 5.80422 4.15958   2
   3   9  -8 1.76619 3.80181   3
   3  -9  -8 2.97169 3.60051   2
  -3  -9   8 4.23031 2.14201   2
   3   9   8 4.03206 1.32290   3
   5   9  -8 -1.6513 2.57418   3
   5   9   8 -0.5239 2.69099   2
   0 -10  -8 29.9770 5.31364   2
   0  10  -8 31.3105 5.66221   3
   0 -10   8 26.2252 5.08764   2
   2  10  -8 18.6904 3.88616   3
   2 -10   8 17.3330 4.28646   2
  -2 -10   8 20.6468 3.80793   2
  -2  10  -8 14.8780 3.95496   3
   2 -10  -8 11.6010 3.62667   2
   4  10  -8 13.9242 3.85196   3
   4 -10   8 9.40094 4.94105   2
   4  10   8 11.3755 1.74242   3
   4 -10  -8 4.09371 4.21189   2
   1  11  -8 8.15593 3.35739   3
   1 -11   8 11.1829 4.03599   2
  -1  11  -8 10.4983 3.40492   3
   1 -11  -8 10.9851 4.02912   2
  -1 -11   8 12.2707 3.53406   2
   0   0  -9 -0.8896 1.35996   1
   0   0  -9 -0.3807 1.46930   3
   0   0   9 1.28671 1.69244   3
   2   0  -9 -0.8027 1.58619   1
   2   0  -9 -0.6282 1.48689   3
   2   0   9 -1.1322 1.66785   3
   2   0  -9 0.27525 1.52789   1
  -2   0   9 -1.9295 1.68555   3
  -2   0  -9 1.59864 2.46917   1
   2   0   9 -1.1779 2.64335   2
   4   0  -9 0.63465 2.11956   1
   4   0   9 -0.2905 1.77218   3
  -4   0   9 -0.1820 2.00112   1
   4   0   9 -0.5891 3.31168   2
   6   0  -9 0.86344 1.71914   3
   6   0   9 3.41257 3.81541   2
   6   0   9 -0.1534 2.42967   3
   1   1  -9 306.035 21.0899   1
  -1  -1  -9 309.973 21.5885   1
  -1  -1  -9 317.541 20.7216   1
   1   1  -9 296.954 20.8857   1
  -1   1   9 307.481 19.2451   3
   1  -1   9 316.970 19.4210   3
  -1   1  -9 291.317 20.9755   1
   1  -1  -9 308.036 18.8364   3
  -1  -1   9 315.476 19.4400   3
   1  -1  -9 319.759 20.8181   1
  -1   1  -9 310.192 21.0904   1
   1   1   9 302.655 19.2569   3
   1  -1  -9 310.881 20.5947   1
   3   1  -9 202.168 15.5276   1
   3  -1   9 212.480 15.9271   1
   3   1  -9 217.351 13.7234   3
   3  -1   9 212.337 14.8048   2
  -3  -1  -9 212.142 15.2536   1
   3  -1   9 210.119 14.0055   3
  -3   1  -9 205.459 15.6219   1
   3  -1  -9 212.084 15.4731   1
   3  -1  -9 211.402 13.4853   3
  -3  -1   9 217.787 14.1673   3
   3   1   9 204.916 14.3311   3
   3   1   9 210.279 14.5457   2
   5   1  -9 108.851 8.47687   3
   5  -1   9 102.834 9.58957   2
  -5   1   9 109.985 11.6384   1
   5   1  -9 188.153 14.8077   1
   5  -1   9 108.819 8.80129   3
   5  -1  -9 110.007 8.20179   3
   5   1   9 101.916 9.48627   2
  -5  -1   9 97.1369 10.5064   1
   5  -1  -9 109.329 9.96360   1
   5   1   9 109.717 8.57331   3
   7  -1   9 41.7813 6.67674   2
   7   1  -9 46.9640 5.39525   3
   7   1   9 43.5735 6.43814   2
   0   2  -9 239.151 17.2976   1
   0   2  -9 223.789 17.1321   1
   0  -2   9 242.309 15.6248   3
   0  -2  -9 237.816 17.5764   1
   0  -2  -9 242.873 16.3545   1
   0   2   9 242.178 15.2503   3
   0   2  -9 262.601 15.4769   3
   2   2  -9 196.887 12.7480   3
   2  -2   9 196.055 14.9829   1
   2   2  -9 179.121 14.4414   1
   2  -2   9 182.132 13.5503   2
   2  -2   9 188.494 12.9625   3
  -2  -2  -9 200.672 13.6755   1
  -2   2   9 188.190 13.0084   3
   2   2  -9 202.562 14.6116   1
   2   2   9 209.333 12.5795   3
   2  -2  -9 186.147 13.8480   1
  -2  -2   9 190.148 12.9390   3
   2  -2  -9 194.092 11.9858   3
  -2   2  -9 172.894 14.3185   1
   2  -2  -9 190.420 13.8889   1
   4  -2   9 99.8316 9.38077   2
   4   2  -9 130.639 10.7658   1
   4   2  -9 106.334 8.25443   3
   4  -2   9 109.436 9.22593   3
  -4   2   9 97.0542 9.52701   1
   4  -2  -9 106.314 7.64696   3
   4   2   9 104.868 8.07326   3
   4   2   9 104.000 8.92868   2
   4  -2  -9 108.929 8.65037   2
   6   2  -9 43.8734 5.64290   3
   6  -2   9 48.9009 5.89972   3
   6  -2   9 39.9475 6.88978   2
   6  -2  -9 44.2754 4.70246   3
   6   2   9 50.1011 5.54021   3
   6  -2  -9 53.5900 5.88997   2
   6   2   9 48.4398 6.38672   2
   1   3  -9 262.459 19.8400   1
   1   3  -9 273.936 19.8378   1
  -1  -3  -9 284.215 18.5611   1
   1   3  -9 290.057 18.0366   3
  -1   3   9 286.334 17.6703   3
   1  -3   9 291.733 18.3300   3
  -1  -3  -9 285.779 18.4838   1
   1  -3   9 281.095 18.7661   2
  -1  -3   9 276.612 18.5068   2
  -1  -3   9 302.330 18.8128   3
  -1   3  -9 285.875 20.1381   1
   1  -3  -9 284.348 18.8161   1
  -1   3  -9 258.663 19.8535   1
   1  -3  -9 273.528 18.6383   1
  -1   3  -9 296.363 18.0550   3
   1   3   9 297.153 17.6253   3
   3  -3   9 296.602 16.1575   3
   3  -3   9 282.164 17.4968   2
   3   3  -9 200.282 13.8215   3
   3  -3   9 205.013 16.5661   1
   3   3  -9 186.347 15.4759   1
   3   3  -9 265.354 18.8633   1
   3   3   9 191.437 13.3329   3
   3  -3  -9 194.000 14.1545   2
   3  -3  -9 202.424 16.0008   1
   3  -3  -9 181.515 12.9118   3
  -3   3  -9 144.505 16.7906   1
  -3  -3   9 199.578 14.0372   3
   5   3  -9 99.2645 9.77920   1
   5   3  -9 114.445 10.5471   3
   5  -3   9 87.4569 8.14171   3
   5  -3   9 94.3401 9.21738   2
   5   3   9 95.1494 8.54179   2
   5  -3  -9 95.3561 7.32339   3
   5  -3  -9 91.2557 8.32759   2
   5   3   9 92.8587 7.55381   3
   7   3  -9 32.5079 5.10214   3
   7  -3   9 28.2597 5.85853   2
   7  -3  -9 44.0219 5.85099   2
   7   3   9 42.2207 5.94493   2
   0   4   9 103.906 7.07105   3
   0  -4  -9 97.4720 7.41426   1
   0  -4   9 97.2995 8.45332   2
   0   4  -9 98.2953 9.25874   1
   0  -4  -9 98.8566 7.58456   1
   0   4  -9 99.3793 9.20132   1
   0   4  -9 104.095 7.84861   3
   0  -4   9 100.215 7.93631   3
   2  -4   9 70.9693 8.51025   1
   2   4  -9 83.4838 8.27774   1
   2  -4   9 80.0377 7.23224   3
  -2  -4  -9 84.3278 6.97437   1
   2   4  -9 73.3319 7.98952   1
  -2  -4  -9 81.8870 6.37235   1
   2  -4   9 72.5538 7.85016   2
   2   4  -9 76.9560 6.91856   3
  -2  -4   9 80.4620 7.06154   2
   2  -4  -9 81.6608 6.81823   1
   2   4   9 86.9443 6.08535   3
  -2   4  -9 69.6025 7.89154   1
  -2  -4   9 80.5386 7.05115   3
   2  -4  -9 77.4564 7.01956   2
   4   4  -9 31.4948 6.39936   3
  -4   4   9 53.5996 6.11916   1
   4  -4   9 45.3733 6.67589   2
   4  -4   9 52.1876 10.4057   1
   4   4  -9 45.0982 6.15486   1
   4  -4   9 48.3939 6.04714   3
   4   4  -9 48.0808 6.89077   1
   4   4   9 45.0822 4.80290   3
   4  -4  -9 49.5310 5.98407   2
   4   4   9 47.3539 5.86191   2
   4  -4  -9 57.6202 5.88117   1
   4  -4  -9 50.7529 3.83330   3
  -4   4  -9 62.3078 9.57112   1
   6   4  -9 16.1011 3.31948   3
   6  -4   9 10.8431 3.98638   2
   6   4   9 30.3071 4.93622   2
   6  -4  -9 27.7770 5.12030   2
  -6  -4   9 27.0887 3.82756   2
   6   4   9 15.6000 2.93157   3
   1   5  -9 15.3337 4.24670   1
  -1   5   9 23.5746 3.29109   3
   1   5  -9 23.2464 4.71656   1
   1   5  -9 8.65934 2.84308   3
   1  -5   9 17.3961 3.61203   2
   1  -5   9 20.0634 3.27547   3
  -1  -5   9 16.6516 2.96888   3
   1  -5  -9 21.7587 2.79761   1
  -1  -5   9 26.2696 4.69911   2
   1  -5  -9 23.9577 4.33920   2
   1   5   9 23.2664 3.23762   3
  -1   5  -9 25.8731 5.64887   1
  -1   5  -9 34.1635 5.56443   3
  -1   5  -9 20.4978 6.64617   1
   3  -5   9 7.96420 4.41225   1
   3   5  -9 19.1456 4.39716   1
   3   5  -9 16.8907 4.34611   1
   3  -5   9 12.9522 3.14026   3
   3  -5   9 19.2634 4.79911   2
   3   5  -9 8.43311 2.51426   3
  -3  -5   9 19.5466 3.73097   3
  -3  -5   9 22.1541 3.76944   2
  -3   5  -9 10.1337 3.12005   1
   3  -5  -9 12.6950 2.77972   1
   3   5   9 14.6554 2.57772   3
   3  -5  -9 18.2663 4.72466   2
   5   5  -9 18.4783 7.36940   1
   5  -5   9 12.6281 4.45974   2
   5   5  -9 5.98336 2.77840   3
   5   5   9 10.0701 2.57476   3
   5  -5  -9 9.24523 3.80630   2
   5   5   9 13.4335 3.96552   2
  -5  -5   9 12.4395 3.02764   2
   0   6  -9 79.4705 6.86929   3
   0  -6   9 75.6626 7.30250   2
   0  -6   9 79.4441 7.41636   3
   0   6  -9 64.5773 7.75178   1
   0   6   9 69.1726 6.63257   3
   0   6  -9 68.0847 7.92415   1
   2  -6   9 64.8776 7.19599   2
   2  -6   9 91.9776 8.30671   3
   2   6  -9 53.6574 7.38228   1
   2   6  -9 64.1495 6.48346   3
   2   6  -9 71.4523 8.70979   1
   2  -6  -9 59.7933 5.23359   1
  -2  -6   9 57.6771 8.77638   2
   2   6   9 67.5936 4.95590   3
  -2   6  -9 63.2119 9.44951   3
  -2   6  -9 49.4474 7.29834   1
   2  -6  -9 67.5298 6.68587   2
   4  -6   9 52.8391 8.67600   1
   4   6  -9 35.5063 6.65000   1
   4  -6   9 38.2674 6.69174   2
   4   6  -9 37.8494 5.79488   3
   4  -6  -9 46.7108 6.04928   2
  -4   6  -9 31.0933 6.21988   1
   4   6   9 40.4969 4.43349   3
  -4  -6   9 42.8432 4.80346   2
   6   6  -9 11.9667 2.94442   3
   6  -6   9 7.55055 4.24831   2
   6  -6  -9 23.1886 5.18314   2
   6   6   9 15.7406 3.94782   2
   1   7  -9 24.6347 6.63907   1
   1   7  -9 17.7436 3.49891   3
   1  -7   9 22.1378 4.65808   2
   1   7  -9 19.6977 4.45728   1
   1   7   9 22.1060 2.66382   3
  -1   7  -9 25.9270 5.24104   1
   1  -7  -9 13.2580 3.10233   2
  -1   7  -9 17.4634 3.40435   3
  -1   7  -9 16.0970 4.47442   1
  -1  -7   9 25.4027 4.71665   2
   3  -7   9 11.4429 3.83383   2
   3   7  -9 16.1050 6.88544   1
   3   7  -9 19.7644 3.87581   3
   3  -7   9 10.1370 5.16985   1
   3   7   9 15.0014 2.76969   3
   3  -7  -9 11.1499 2.51780   1
   3  -7  -9 17.2849 4.47167   2
  -3  -7   9 17.2099 3.49704   2
  -3   7  -9 12.4318 4.81619   1
   5   7  -9 9.53228 3.11088   3
   5  -7   9 5.85590 4.10459   2
   5   7   9 11.6051 3.81086   2
   5   7   9 5.35912 2.15642   3
   5  -7  -9 8.60188 3.49486   2
   0   8  -9 10.6508 4.88715   1
   0   8  -9 22.2654 5.01350   1
   0  -8   9 31.3651 5.15500   2
   0   8  -9 28.6889 5.17870   3
   2  -8   9 17.7655 4.23959   2
   2   8  -9 18.9550 3.70351   3
  -2  -8   9 23.0246 4.32070   2
   2   8   9 22.5168 2.48735   3
  -2   8  -9 16.5458 5.16251   1
  -2   8  -9 16.0898 3.42692   3
   2  -8  -9 24.0146 4.94225   2
   4   8  -9 3.33162 4.89471   3
   4  -8   9 12.6498 4.25999   2
   4   8   9 10.4581 2.13237   3
  -4  -8   9 14.7231 2.79775   2
   4  -8  -9 12.9102 4.01348   2
   1  -9   9 31.9563 5.57698   2
   1   9  -9 28.0657 4.44576   3
  -1  -9   9 24.9885 4.53238   2
  -1   9  -9 31.8971 5.47459   3
   1  -9  -9 29.9182 5.58865   2
   3  -9   9 14.6198 4.96823   2
   3   9  -9 22.1601 4.35448   3
   3   9   9 16.8307 2.62225   3
  -3  -9   9 20.4897 5.30104   2
   3  -9  -9 6.54371 3.23468   2
   0 -10   9 168.227 12.6037   2
   0  10  -9 163.172 12.5587   3
   2 -10   9 125.268 11.6911   2
   2  10  -9 141.948 11.1107   3
  -2 -10   9 135.441 10.1372   2
   2 -10  -9 139.693 11.5715   2
   0   0 -10 207.297 13.3532   3
   0   0  10 220.173 13.8774   3
   0   0 -10 205.491 15.3341   1
   2   0 -10 161.580 13.3080   1
   2   0 -10 166.790 11.5012   3
   2   0 -10 191.160 13.8756   1
   2   0  10 178.517 12.0036   3
  -2   0 -10 171.530 15.8545   1
  -2   0  10 183.775 12.1027   3
   2   0  10 176.391 12.8112   2
   4   0  10 98.8612 8.08425   3
   4   0 -10 102.171 7.59875   3
   4   0 -10 100.713 9.29396   1
   4   0  10 97.6807 9.13885   2
   6   0  10 19.6695 4.49351   2
  -1  -1 -10 103.961 9.30933   1
   1  -1  10 107.912 7.98132   3
   1   1 -10 105.905 7.53628   3
   1   1 -10 108.196 9.36299   1
   1   1 -10 100.333 9.03125   1
   1  -1  10 97.4040 8.65188   2
  -1  -1 -10 93.1875 8.69146   1
  -1   1  10 105.437 7.79189   3
   1  -1 -10 102.055 8.83999   1
  -1   1 -10 96.9573 9.09650   1
   1  -1 -10 101.297 8.71603   1
  -1  -1  10 105.788 8.01264   3
   1  -1 -10 102.518 7.01921   3
  -1   1 -10 91.5987 8.94401   1
   3  -1  10 66.8091 6.35715   3
   3  -1  10 59.8539 7.14797   2
   3   1 -10 75.0673 8.24609   1
   3   1 -10 63.2639 7.08760   1
   3  -1 -10 69.1549 5.43116   3
  -3  -1  10 62.7967 8.11448   3
   3   1  10 63.0298 7.06359   2
   3   1  10 64.4127 6.09221   3
   3  -1 -10 66.8377 8.68587   1
   5  -1  10 24.4203 4.73018   3
   5  -1  10 39.2135 6.33493   2
   5   1 -10 33.1797 4.32467   3
   5  -1 -10 27.5102 3.92376   3
   5   1  10 36.5050 6.17938   2
   5   1  10 25.1113 4.76255   3
   0  -2 -10 204.573 15.5885   1
   0  -2 -10 202.441 13.9436   1
   0  -2  10 205.160 13.2140   3
   0   2  10 211.800 12.8038   3
   0  -2  10 202.647 13.7758   2
   0   2 -10 123.391 15.6980   1
   0   2 -10 202.240 14.8509   1
  -2   2  10 158.760 10.6361   3
  -2  -2 -10 161.806 11.5993   1
   2   2 -10 125.894 12.0822   1
   2   2 -10 153.028 10.5687   3
   2   2 -10 155.610 12.4121   1
   2  -2  10 157.315 11.0321   3
   2  -2  10 153.378 11.7848   2
   2  -2 -10 145.844 12.5853   1
  -2  -2  10 161.757 11.4703   3
   2  -2 -10 148.537 9.97919   3
   2   2  10 153.028 10.4744   3
  -2   2 -10 152.702 12.5172   1
   4  -2  10 83.8343 7.84907   3
   4  -2  10 76.2285 8.40870   2
   4   2 -10 81.3642 6.98272   3
   4   2 -10 77.8033 8.23269   1
   4  -2 -10 82.1818 6.20842   3
   4   2  10 82.0286 6.86678   3
   4   2  10 75.9724 7.83625   2
   6  -2  10 42.7278 7.00635   2
   6   2 -10 30.8934 4.72023   3
   6   2  10 30.6573 5.43900   2
   1  -3  10 54.8642 5.81544   3
  -1  -3 -10 51.3222 4.95241   1
   1   3 -10 44.9871 6.10970   1
   1   3 -10 34.8506 5.94653   1
   1  -3  10 50.9781 6.40533   2
  -1   3  10 51.2834 4.82412   3
   1   3 -10 50.9742 5.21352   3
   1  -3 -10 45.7983 5.05973   1
  -1  -3  10 46.1756 5.61384   3
  -1  -3  10 51.1493 6.08081   2
  -1   3 -10 33.3668 6.14886   1
  -1   3 -10 49.9254 6.41250   1
  -1   3 -10 53.0531 5.26931   3
   1   3  10 48.2384 4.69377   3
   3  -3  10 35.9948 5.45872   3
   3   3 -10 34.5499 4.81054   3
   3   3 -10 24.5792 5.13569   1
   3   3 -10 35.1127 5.96671   1
   3  -3  10 28.9312 5.49964   2
   3  -3 -10 29.6166 2.89586   3
  -3  -3  10 30.6989 5.04846   3
   3  -3 -10 31.6291 4.63695   1
   3   3  10 33.3479 4.25781   3
   5  -3  10 14.6407 3.87980   3
   5  -3  10 15.1764 4.75406   2
   5   3 -10 8.48359 2.93246   3
   5   3  10 12.7914 2.82351   3
   5  -3 -10 19.7853 4.35859   2
   5   3  10 14.0579 4.35841   2
   5  -3 -10 19.8280 2.81360   3
   0   4  10 82.2533 5.90175   3
   0   4 -10 62.7740 7.44063   1
   0  -4 -10 73.6808 6.65733   1
   0   4 -10 76.8388 6.61898   3
   0  -4  10 72.6861 7.47347   2
   0   4 -10 62.7072 7.50148   1
   0  -4  10 70.8402 6.76203   3
   2   4 -10 57.1779 8.03254   1
   2   4 -10 52.2508 5.78343   3
  -2  -4 -10 52.6583 4.92475   1
   2   4 -10 59.1806 9.10159   1
   2  -4  10 55.4491 6.15233   3
   2  -4  10 49.7904 6.93721   2
  -2   4 -10 38.3617 6.40137   1
   2   4  10 54.8108 5.00551   3
  -2  -4  10 58.5693 6.10251   3
  -2  -4  10 59.8091 6.21379   2
   2  -4 -10 55.3719 5.43908   1
   4   4 -10 31.7153 6.38398   1
   4   4 -10 41.2704 9.10951   1
   4  -4  10 22.9781 4.78774   3
   4  -4  10 33.1585 6.09244   2
   4   4 -10 27.6460 5.13033   3
   4   4  10 30.2818 4.15600   3
   4   4  10 26.7477 5.09444   2
  -4  -4  10 27.6514 4.81984   2
   4  -4 -10 28.1881 5.22271   2
   6  -4  10 7.78727 4.45649   2
   6   4 -10 6.92671 2.58259   3
   6  -4 -10 5.00626 3.45415   2
   6   4  10 7.06449 4.05478   2
  -6  -4  10 8.62705 3.05801   2
   1  -5  10 28.8307 4.95900   3
   1   5 -10 24.5681 5.31554   1
  -1   5  10 26.9023 3.76366   3
   1  -5  10 24.5403 5.21601   2
   1   5 -10 29.9068 5.46273   3
   1   5 -10 25.5648 5.01333   1
  -1  -5  10 35.4143 8.40973   3
  -1   5 -10 35.0523 7.16941   1
  -1  -5  10 29.2106 5.02098   2
  -1   5 -10 30.3923 4.91326   3
  -1   5 -10 30.4695 7.34557   1
   1  -5 -10 21.8734 3.27455   1
   3   5 -10 15.2875 4.82461   1
   3  -5  10 25.0688 4.26833   3
   3   5 -10 16.9537 4.24633   1
   3   5 -10 16.7678 3.46705   3
   3  -5  10 8.33059 3.65267   2
  -3  -5  10 25.2551 4.43618   2
   3  -5 -10 22.1483 4.49316   2
   3  -5 -10 17.3421 3.80921   1
   3   5  10 17.8881 5.01177   3
   5  -5  10 4.13974 3.66320   2
   5   5 -10 10.9780 3.20182   3
   5   5  10 9.62511 2.63632   3
  -5  -5  10 18.1579 3.68656   2
   5  -5 -10 7.43580 3.32934   2
   5   5  10 14.4862 4.38761   2
   0   6 -10 91.0450 9.64619   1
   0   6 -10 83.0223 9.58560   1
   0   6  10 108.384 7.12788   3
   0  -6  10 91.4268 8.98421   2
   0   6 -10 113.393 8.89015   3
   2  -6  10 92.4929 8.59134   2
   2   6 -10 73.2664 7.25371   3
   2   6 -10 69.3842 8.52378   1
   2   6 -10 50.2849 7.84596   1
   2  -6 -10 75.1670 6.19452   1
  -2  -6  10 79.5251 7.46551   2
  -2   6 -10 69.6253 8.58132   1
   2  -6 -10 103.115 9.71647   2
   2   6  10 89.2736 5.99353   3
   4   6 -10 41.7819 5.90501   3
   4  -6  10 44.1317 7.10842   2
   4   6  10 44.4762 6.18169   2
  -4  -6  10 45.2609 5.24323   2
   4  -6 -10 43.5732 6.31220   2
   4   6  10 34.5640 4.35903   3
   1   7 -10 43.9323 7.47203   1
   1  -7  10 59.1862 7.09800   2
   1   7 -10 57.0905 8.93887   1
   1   7 -10 60.1897 6.40859   3
  -1   7 -10 47.0770 10.6112   1
   1   7  10 60.9230 4.53204   3
  -1  -7  10 59.2185 6.67042   2
  -1   7 -10 51.5602 6.38004   3
  -1   7 -10 40.0388 7.74675   1
   3  -7  10 38.4770 6.80818   2
   3   7 -10 35.9279 5.72461   3
   3  -7 -10 39.3618 6.14060   2
   3   7  10 30.8813 3.69819   3
  -3  -7  10 36.9423 5.13384   2
   0   8 -10 34.8796 5.05667   3
   0  -8  10 19.2147 4.42240   2
   2  -8  10 21.0605 5.11729   2
   2   8 -10 17.2804 3.38169   3
   2   8  10 27.2037 2.88893   3
   2  -8 -10 14.3105 3.90889   2
  -2  -8  10 30.6234 4.92484   2
   4  -8  10 21.6308 6.70069   2
   4   8 -10 16.8141 5.92424   3
   4  -8 -10 14.2428 5.85909   2
   4   8  10 14.7209 2.78220   3
   1  -9  10 66.6814 8.08628   2
   1   9 -10 72.5294 7.80029   3
  -1  -9  10 76.2601 7.64206   2
  -1   9 -10 76.2408 7.78934   3
   1  -9 -10 80.7031 8.06820   2
   3  -9  10 52.5810 7.85532   2
   3   9 -10 45.5645 6.65166   3
  -3  -9  10 51.5552 5.37162   2
   3   9  10 48.3286 3.84127   3
   0 -10  10 10.2961 3.97210   2
   0  10 -10 11.9815 3.72588   3
   0   0  11 -0.5195 2.05999   3
  -2   0  11 -1.4071 2.07351   3
   2   0 -11 0.23843 1.58364   3
   2   0 -11 -1.6518 1.75937   1
   2   0  11 -1.4102 2.55926   2
  -2   0 -11 -1.5761 1.88353   1
   2   0  11 0.51871 2.09382   3
   4   0 -11 -0.1436 1.60635   3
   4   0  11 1.88581 2.32487   3
   4   0  11 -1.1540 3.73556   2
   6   0  11 2.00882 4.20179   2
  -1  -1 -11 19.0019 4.19651   1
   1  -1  11 19.9663 3.50638   3
   1   1 -11 22.8468 4.11585   1
   1   1 -11 24.1192 3.22500   3
   1  -1  11 15.8957 3.79028   2
  -1   1  11 23.6284 4.13214   3
  -1  -1  11 24.3691 3.83672   3
  -1   1 -11 19.1955 4.28283   1
   1  -1 -11 20.2172 4.37962   1
   1   1  11 16.8690 2.92413   3
   3   1 -11 11.6813 2.69564   3
   3  -1  11 7.35561 3.54189   2
   3  -1  11 11.6282 2.96874   3
   3   1 -11 6.67223 2.80750   1
  -3  -1  11 9.57401 2.81470   3
   3   1  11 13.5198 4.37912   2
   3   1  11 14.3198 3.05965   3
   3  -1 -11 13.3233 2.25895   3
   5  -1  11 9.88415 4.69601   2
   5   1  11 5.20371 3.73597   3
   5  -1 -11 7.06746 2.69830   3
   5   1  11 4.46603 4.34895   2
   0   2 -11 85.3897 7.62099   3
   0  -2  11 74.5073 6.95985   3
   0  -2 -11 65.5664 6.52578   1
   0  -2  11 61.6982 7.21500   2
   0   2 -11 57.1306 7.32256   1
   0   2  11 75.4931 6.18948   3
  -2   2  11 54.7092 5.75288   3
   2  -2  11 53.2039 6.41496   3
   2  -2  11 74.0665 9.86757   2
   2   2 -11 55.3631 6.70605   1
  -2  -2 -11 53.8103 6.07882   1
   2  -2 -11 55.1992 4.24460   3
  -2   2 -11 63.1960 9.66135   1
   2  -2 -11 54.4033 6.48173   1
   2   2  11 59.2519 5.62482   3
  -2  -2  11 53.2894 6.18021   3
   4   2 -11 31.8386 4.65887   3
   4  -2  11 32.5965 6.03190   2
   4  -2  11 34.1038 5.73043   3
   4   2  11 37.5396 6.20049   2
   4  -2 -11 32.2984 3.43008   3
   4   2  11 32.0075 4.70371   3
  -1  -3 -11 33.8442 4.31742   1
   1   3 -11 30.4869 4.58028   3
  -1   3  11 27.6679 4.31196   3
   1   3 -11 28.8849 5.32343   1
   1  -3  11 30.3103 5.06397   3
   1  -3  11 28.3033 5.29105   2
   1   3  11 34.5218 4.28604   3
  -1   3 -11 27.7613 5.28647   1
  -1  -3  11 31.1872 5.62265   2
   1  -3 -11 36.0720 4.50887   1
  -1  -3  11 39.5784 5.38130   3
  -3  -3 -11 21.0534 4.21567   1
   3   3 -11 23.8716 8.21002   1
   3   3 -11 22.7850 3.65672   3
   3  -3  11 23.4542 3.87630   3
   3  -3  11 14.8274 5.04635   2
   3   3  11 26.5577 4.11453   3
   3   3  11 29.8256 5.42860   2
  -3  -3  11 28.0140 5.14880   3
   5   3 -11 19.8150 3.64651   3
   5  -3  11 16.1059 5.39253   2
   5   3  11 19.6667 5.09199   3
   5   3  11 16.4381 5.16100   2
   0   4  11 69.6913 5.84561   3
   0  -4  11 65.0555 7.56227   2
   0   4 -11 63.5601 11.0197   1
   0  -4  11 65.5511 6.71667   3
   0  -4 -11 58.7272 5.78184   1
   0   4 -11 71.1488 7.84884   1
   0   4 -11 76.2203 6.62127   3
  -2  -4 -11 54.8527 5.28945   1
   2  -4  11 59.1077 7.58874   2
   2  -4  11 55.0008 6.39556   3
   2   4 -11 59.8365 5.90892   3
   2   4 -11 53.2288 7.05140   1
  -2  -4  11 55.8802 7.63987   3
   2  -4 -11 51.8653 6.19025   1
   2   4  11 48.2951 5.21794   3
  -2   4 -11 62.9261 8.01173   1
  -2  -4  11 53.1644 6.49536   2
   4  -4  11 39.4222 6.98204   2
   4  -4  11 38.7219 6.14101   3
   4   4  11 35.1503 6.25133   2
  -4  -4  11 38.6060 5.72999   2
   4   4  11 33.3144 4.60188   3
   1  -5  11 1.09264 3.85337   2
  -1   5  11 0.52925 1.87770   3
   1   5 -11 -5.6623 4.92770   1
   1   5 -11 4.91553 4.12223   1
   1  -5  11 2.09280 2.87488   3
   1   5 -11 2.20682 2.52634   3
   1  -5 -11 3.94520 1.79617   1
  -1  -5  11 3.28370 3.82669   2
  -1   5 -11 2.58172 2.67341   1
  -1   5 -11 -0.1767 2.46697   3
   1   5  11 -0.1235 2.12214   3
  -1  -5  11 1.67692 2.75398   3
   3   5 -11 0.16775 3.02864   3
   3  -5  11 2.53028 3.84124   2
  -3  -5  11 2.35820 3.36552   2
   5  -5  11 1.34979 4.42989   2
   5   5 -11 -1.2558 2.27908   3
  -5  -5  11 1.21776 3.12252   2
   5   5  11 2.59614 3.84426   2
   5  -5 -11 1.05799 3.53501   2
   0  -6  11 124.397 10.5745   2
   0   6 -11 127.556 14.1906   1
   0   6 -11 121.013 12.8597   3
   0   6 -11 100.248 11.4583   1
   0   6  11 124.701 8.45826   3
   2  -6  11 96.1614 9.72706   2
   2   6 -11 101.441 8.44973   3
  -2  -6  11 90.5297 8.91071   2
   2  -6 -11 93.5429 8.22113   1
   2   6  11 98.5350 7.16419   3
   4   6 -11 61.9367 6.75899   3
   4  -6  11 60.7789 8.37989   2
  -4  -6  11 64.9227 6.51129   2
   4   6  11 48.1958 5.30229   3
   4  -6 -11 52.1434 7.25874   2
   4   6  11 58.2509 7.39742   2
   1   7 -11 70.2649 7.17572   3
   1  -7  11 61.6279 8.06549   2
   1   7  11 62.0740 5.15441   3
  -1  -7  11 60.0959 7.38059   2
  -1   7 -11 65.9815 7.16020   3
   3   7 -11 46.7997 6.10961   3
   3  -7  11 48.1750 7.78954   2
  -3  -7  11 49.4916 6.16216   2
   3  -7 -11 51.5682 6.86484   2
   3   7  11 40.2755 4.33441   3
   0   8 -11 9.95707 3.14530   3
   0  -8  11 16.1078 5.03722   2
   2   8 -11 13.2933 3.79496   3
   2  -8  11 10.3992 4.51636   2
  -2  -8  11 12.2943 3.93555   2
   1  -9  11 50.1823 7.33884   2
   1   9 -11 34.9681 7.93083   3
  -1   9 -11 53.6579 6.60789   3
  -1  -9  11 50.9922 6.70232   2
   0   0  12 40.7321 5.29559   3
   2   0  12 32.8325 6.21210   2
   2   0  12 36.7617 5.13826   3
  -2   0  12 36.0162 5.30906   3
   2   0 -12 34.5595 3.81187   3
   4   0  12 13.0452 4.71531   2
   4   0 -12 11.1913 3.37379   3
   1   1 -12 8.25140 2.13410   3
   1  -1  12 1.60389 2.93449   2
  -1   1  12 5.14504 2.53469   3
   1  -1  12 0.90024 2.47532   3
   1   1  12 4.39106 2.22599   3
  -1  -1  12 7.72533 3.10374   3
   3  -1  12 2.75314 4.00865   2
   3   1 -12 3.22268 1.92365   3
   3  -1  12 4.64041 3.04253   3
   3   1  12 2.23735 3.08921   2
   3  -1 -12 3.83120 1.68525   3
   3   1  12 1.88933 2.49629   3
  -3  -1  12 0.54636 2.68348   3
   5  -1  12 5.84318 4.78150   2
   5   1  12 0.37075 3.92891   2
   0  -2  12 53.0777 7.20653   2
   0   2 -12 56.6585 5.33161   3
   0   2  12 54.8952 5.69934   3
   0  -2  12 59.3860 6.37424   3
   2  -2  12 47.4358 7.16113   2
   2  -2  12 44.1866 5.93014   3
   2   2 -12 49.7099 5.45491   3
  -2   2  12 50.3141 5.45906   3
   2   2  12 42.3735 5.35513   3
  -2  -2  12 48.9184 6.06702   3
   4  -2  12 13.6799 4.63442   2
   4   2  12 10.5237 4.04323   2
   4   2  12 22.4255 4.14358   3
   1   3 -12 74.3050 7.23669   3
  -1   3  12 98.0315 7.60758   3
   1  -3  12 91.3116 8.32525   3
   1  -3  12 95.2695 9.22080   2
   1   3  12 94.7042 7.49701   3
  -1  -3  12 99.0340 9.01461   2
  -1  -3  12 98.3750 8.44616   3
   3   3 -12 59.3935 5.96412   3
   3  -3  12 62.5142 7.57745   3
   3  -3  12 56.8823 8.24347   2
  -3  -3  12 66.8446 10.3140   3
   3   3  12 63.4655 7.68266   2
   3   3  12 60.0319 5.97079   3
   0   4 -12 39.4400 5.34985   3
   0   4  12 47.4267 4.93454   3
   0  -4  12 39.3619 6.85681   2
   2  -4  12 28.2103 6.11711   3
   2  -4  12 41.4096 6.86823   2
   2   4 -12 36.4277 4.91969   3
  -2  -4  12 18.9331 4.65037   2
   2   4  12 32.2281 4.36996   3
   4   4 -12 12.6549 3.25942   3
   4  -4  12 15.7274 5.20848   2
   4   4  12 13.4852 4.30227   2
  -4  -4  12 17.9140 4.54800   2
   1  -5  12 16.6131 4.74381   2
   1   5 -12 25.0250 4.01049   3
  -1   5  12 26.4980 4.09212   3
  -1  -5  12 16.5825 4.48736   2
  -1   5 -12 28.7246 4.73001   3
   3   5 -12 8.12293 4.49249   3
   3  -5  12 13.3230 4.85789   2
   3   5  12 17.7458 3.20261   3
  -3  -5  12 21.2720 5.08766   2
   0   6  12 76.8043 6.24758   3
   0  -6  12 81.5732 9.01067   2
   0   6 -12 68.0410 8.88743   3
   2  -6  12 60.4925 8.46529   2
   2   6 -12 56.7619 6.63407   3
  -2  -6  12 67.6330 7.75110   2
   2   6  12 61.8106 5.41042   3
   1   7 -12 43.9249 6.04097   3
   1  -7  12 38.6361 7.45998   2
  -1  -7  12 42.4751 7.06633   2
  -1   7 -12 40.2355 5.90007   3
   1   7  12 41.6440 4.21280   3
   0   0  13 1.56248 2.66534   3
   2   0  13 4.44211 2.73443   3
   2   0  13 -0.3209 4.14137   2
   2   0 -13 -3.9204 2.49715   3
   4   0  13 2.43406 4.37194   2
  -1   1  13 68.8467 6.95943   3
   1  -1  13 68.0188 8.33759   2
   1   1 -13 65.7948 6.30714   3
   1  -1  13 74.6521 7.35655   3
   1   1  13 70.1990 6.81263   3
  -1  -1  13 75.2744 7.48979   3
   3  -1  13 45.3144 7.68573   2
   3   1  13 42.6624 7.47860   2
   0  -2  13 80.4457 9.10849   2
   0  -2  13 93.7711 8.54292   3
   0   2  13 87.0145 7.75558   3
  -2   2  13 88.9956 9.11805   3
   2   2 -13 64.3930 6.71373   3
   2   2  13 69.3979 6.69898   3
   2   2  13 67.7287 8.51450   2
   1   3 -13 41.3068 5.99134   3
  -1   3  13 41.3470 5.10805   3
   1  -3  13 37.5448 7.22804   2
  -1  -3  13 36.2179 6.81999   2
   1   3  13 30.7623 4.96738   3
   3  -3  13 23.4110 5.98439   2
  -3  -3  13 39.4582 6.36344   2
   3   3  13 26.4983 5.99213   2
   0  -4  13 65.2293 8.27485   2
   0   4  13 52.9381 5.72862   3
   0   4 -13 52.4684 5.48616   3
   2  -4  13 53.8386 8.43742   2
   2   4  13 59.8480 6.04978   3
  -2  -4  13 56.0683 7.69716   2
   1   5 -13 30.5679 5.08624   3
  -1   5  13 40.4936 5.92860   3
   1  -5  13 28.9979 6.36390   2
   1   5  13 19.3080 3.45808   3
  -1  -5  13 30.8262 6.36980   2
   0   6  13 83.9654 7.25355   3
   0  -6  13 101.681 9.89924   2
   2   0  14 34.2369 8.56432   2
   1  -1  14 8.84618 4.72075   2
  -1  -1  14 17.4265 5.13273   2
   1   1  14 12.1390 5.46859   2
   0  -2  14 43.6010 7.76374   2
   1  -3  14 68.3188 12.1982   2
  -1  -3  14 91.4006 9.47956   2
   0   0   0    0.00    0.00   0

 _exptl_absorpt_process_details
)
 SADABS 2016/2: Krause, L., Herbst-Irmer, R., Sheldrick G.M. & Stalke D.,
 J. Appl. Cryst. 48 (2015) 3-10
)
 _exptl_absorpt_correction_type   multi-scan
 _exptl_absorpt_correction_T_max  0.7465
 _exptl_absorpt_correction_T_min  0.6304
 _exptl_special_details
)
 The following wavelength and cell were deduced by SADABS from the
 direction cosines etc. They are given here for emergency use only:
 CELL 0.71076    6.117    9.200    9.400   89.990   90.003   89.979
)

;
_shelx_hkl_checksum              71236
loop_
_space_group_symop_operation_xyz
'x, y, z'
'-x, -y, z+1/2'
'x, -y, z+1/2'
'-x, y, z'
'x+1/2, y+1/2, z'
'-x+1/2, -y+1/2, z+1/2'
'x+1/2, -y+1/2, z+1/2'
'-x+1/2, y+1/2, z'
loop_
_atom_site_label
_atom_site_type_symbol
_atom_site_fract_x
_atom_site_fract_y
_atom_site_fract_z
_atom_site_U_iso_or_equiv
_atom_site_adp_type
_atom_site_occupancy
_atom_site_site_symmetry_order
_atom_site_calc_flag
_atom_site_refinement_flags_posn
_atom_site_refinement_flags_adp
_atom_site_refinement_flags_occupancy
_atom_site_disorder_assembly
_atom_site_disorder_group
O1 O 0.000000 0.72558(15) -0.12018(15) 0.0265(3) Uani 1 2 d S T P . .
O2 O 0.000000 0.25532(16) -0.0167(2) 0.0333(4) Uani 1 2 d S T P . .
N1 N 0.000000 0.85694(18) -0.05157(17) 0.0263(4) Uani 1 2 d S T P . .
N2 N 0.000000 0.82298(15) 0.08329(16) 0.0217(3) Uani 1 2 d S T P . .
N3 N 0.000000 0.48009(19) -0.07896(16) 0.0259(4) Uani 1 2 d S T P . .
N4 N 0.000000 0.38404(18) 0.0260(2) 0.0267(3) Uani 1 2 d S T P . .
C1 C 0.000000 0.9418(2) 0.1867(2) 0.0292(4) Uani 1 2 d S T P . .
H1A H -0.144379 0.948728 0.231439 0.044 Uiso 0.5 1 calc R U P . .
H1B H 0.033664 1.033517 0.138201 0.044 Uiso 0.5 1 calc R U P . .
H1C H 0.110714 0.922947 0.259789 0.044 Uiso 0.5 1 calc R U P . .
C5 C 0.000000 0.6148(2) -0.02386(17) 0.0212(3) Uani 1 2 d S T P . .
C6 C 0.000000 0.67869(18) 0.10978(19) 0.0216(4) Uani 1 2 d S T P . .
H6 H 0.000000 0.631530 0.199718 0.026 Uiso 1 2 calc R U P . .
loop_
_atom_site_aniso_label
_atom_site_aniso_U_11
_atom_site_aniso_U_22
_atom_site_aniso_U_33
_atom_site_aniso_U_23
_atom_site_aniso_U_13
_atom_site_aniso_U_12
O1 0.0372(8) 0.0241(6) 0.0182(6) 0.0030(6) 0.000 0.000
O2 0.0360(8) 0.0224(7) 0.0415(9) -0.0040(5) 0.000 0.000
N1 0.0326(8) 0.0231(7) 0.0231(8) 0.0038(6) 0.000 0.000
N2 0.0241(7) 0.0197(7) 0.0212(8) 0.0023(6) 0.000 0.000
N3 0.0350(8) 0.0211(7) 0.0217(7) -0.0026(6) 0.000 0.000
N4 0.0298(7) 0.0241(7) 0.0261(7) 0.0014(6) 0.000 0.000
C1 0.0387(9) 0.0190(7) 0.0300(10) -0.0041(7) 0.000 0.000
C5 0.0240(7) 0.0217(7) 0.0179(7) 0.0008(6) 0.000 0.000
C6 0.0271(8) 0.0197(8) 0.0180(8) 0.0008(6) 0.000 0.000
loop_
_atom_type_symbol
_atom_type_description
_atom_type_scat_dispersion_real
_atom_type_scat_dispersion_imag
_atom_type_scat_source
C C 0.0033 0.0016 'International Tables Vol C Tables 4.2.6.8 and 6.1.1.4'
H H 0.0000 0.0000 'International Tables Vol C Tables 4.2.6.8 and 6.1.1.4'
N N 0.0061 0.0033 'International Tables Vol C Tables 4.2.6.8 and 6.1.1.4'
O O 0.0106 0.0060 'International Tables Vol C Tables 4.2.6.8 and 6.1.1.4'
loop_
_geom_angle_atom_site_label_1
_geom_angle_atom_site_label_2
_geom_angle_atom_site_label_3
_geom_angle
_geom_angle_site_symmetry_1
_geom_angle_site_symmetry_3
_geom_angle_publ_flag
C5 O1 N1 110.26(14) . . ?
N2 N1 O1 104.27(14) . . ?
N1 N2 C6 114.46(15) . . ?
N1 N2 C1 117.82(15) . . ?
C6 N2 C1 127.72(16) . . ?
N4 N3 C5 109.13(15) . . ?
O2 N4 N3 113.08(19) . . ?
N2 C1 H1A 109.5 . . ?
N2 C1 H1B 109.5 . . ?
H1A C1 H1B 109.5 . . ?
N2 C1 H1C 109.5 . . ?
H1A C1 H1C 109.5 . . ?
H1B C1 H1C 109.5 . . ?
N2 C1 H1A 109.5(3) . 4 ?
H1A C1 H1A 128.6 . 4 ?
H1B C1 H1A 87.4 . 4 ?
H1C C1 H1A 24.3 . 4 ?
N2 C1 H1B 109.5(2) . 4 ?
H1A C1 H1B 87.4 . 4 ?
H1B C1 H1B 24.3 . 4 ?
H1C C1 H1B 128.6 . 4 ?
H1A C1 H1B 109.5 4 4 ?
N2 C1 H1C 109.5(5) . 4 ?
H1A C1 H1C 24.3 . 4 ?
H1B C1 H1C 128.6 . 4 ?
H1C C1 H1C 87.4 . 4 ?
H1A C1 H1C 109.5 4 4 ?
H1B C1 H1C 109.5 4 4 ?
N3 C5 O1 115.67(16) . . ?
N3 C5 C6 137.76(18) . . ?
O1 C5 C6 106.58(15) . . ?
N2 C6 C5 104.43(16) . . ?
N2 C6 H6 127.8 . . ?
C5 C6 H6 127.8 . . ?
loop_
_geom_bond_atom_site_label_1
_geom_bond_atom_site_label_2
_geom_bond_distance
_geom_bond_site_symmetry_2
_geom_bond_publ_flag
O1 C5 1.363(2) . ?
O1 N1 1.369(2) . ?
O2 N4 1.250(2) . ?
N1 N2 1.305(2) . ?
N2 C6 1.350(2) . ?
N2 C1 1.462(2) . ?
N3 N4 1.324(2) . ?
N3 C5 1.342(2) . ?
C1 H1A 0.9800 . ?
C1 H1B 0.9800 . ?
C1 H1C 0.9800 . ?
C1 H1A 0.980(13) 4 ?
C1 H1B 0.980(10) 4 ?
C1 H1C 0.98(2) 4 ?
C5 C6 1.386(3) . ?
C6 H6 0.9500 . ?
loop_
_geom_hbond_atom_site_label_D
_geom_hbond_atom_site_label_H
_geom_hbond_atom_site_label_A
_geom_hbond_distance_DH
_geom_hbond_distance_HA
_geom_hbond_distance_DA
_geom_hbond_angle_DHA
_geom_hbond_site_symmetry_A
_geom_hbond_publ_flag
C1 H1B O2 0.98 2.51 3.458(3) 161.7 1_565 yes
C6 H6 N3 0.95 2.32 3.269(2) 179.1 2_565 yes
loop_
_geom_torsion_atom_site_label_1
_geom_torsion_atom_site_label_2
_geom_torsion_atom_site_label_3
_geom_torsion_atom_site_label_4
_geom_torsion
_geom_torsion_site_symmetry_1
_geom_torsion_site_symmetry_2
_geom_torsion_site_symmetry_3
_geom_torsion_site_symmetry_4
_geom_torsion_publ_flag
C5 O1 N1 N2 0.000(0) . . . . ?
O1 N1 N2 C6 0.000(0) . . . . ?
O1 N1 N2 C1 180.000(0) . . . . ?
C5 N3 N4 O2 180.000(0) . . . . ?
N4 N3 C5 O1 180.000(0) . . . . ?
N4 N3 C5 C6 0.000(0) . . . . ?
N1 O1 C5 N3 180.000(0) . . . . ?
N1 O1 C5 C6 0.000(0) . . . . ?
N1 N2 C6 C5 0.000(0) . . . . ?
C1 N2 C6 C5 180.000(0) . . . . ?
N3 C5 C6 N2 180.000(0) . . . . ?
O1 C5 C6 N2 0.000(0) . . . . ?
