#------------------------------------------------------------------------------
#$Date: 2021-02-05 01:28:10 +0200 (Fri, 05 Feb 2021) $
#$Revision: 261743 $
#$URL: file:///home/coder/svn-repositories/cod/cif/7/06/01/7060158.cif $
#------------------------------------------------------------------------------
#
# This file is available in the Crystallography Open Database (COD),
# http://www.crystallography.net/
#
# All data on this site have been placed in the public domain by the
# contributors.
#
data_7060158
loop_
_publ_author_name
'Lu, Tian'
'He, Yuna'
'Song, Jia'
'Hou, Zhengwen'
'Yin, Hongquan'
'Fan, Guijuan'
'Chen, Fu-Xue'
_publ_section_title
;
 Synthesis and properties of gem-dinitro energetic salts based on
 1,2,4-oxadiazole with low impact sensitivity
;
_journal_issue                   2
_journal_name_full               'New Journal of Chemistry'
_journal_page_first              526
_journal_page_last               529
_journal_paper_doi               10.1039/D0NJ05530A
_journal_volume                  45
_journal_year                    2021
_chemical_formula_sum            'C4 H3 Cl N4 O5'
_chemical_formula_weight         222.55
_space_group_crystal_system      monoclinic
_space_group_IT_number           14
_space_group_name_Hall           '-P 2ybc'
_space_group_name_H-M_alt        'P 1 21/c 1'
_atom_sites_solution_hydrogens   geom
_audit_creation_method           SHELXL-2014
_audit_update_record
;
2020-07-24 deposited with the CCDC.	2020-12-14 downloaded from the CCDC.
;
_cell_angle_alpha                90
_cell_angle_beta                 97.794(9)
_cell_angle_gamma                90
_cell_formula_units_Z            4
_cell_length_a                   8.898(3)
_cell_length_b                   15.100(5)
_cell_length_c                   6.171(2)
_cell_measurement_reflns_used    6704
_cell_measurement_temperature    296(2)
_cell_measurement_theta_max      28.23
_cell_measurement_theta_min      2.31
_cell_volume                     821.5(5)
_computing_structure_refinement  'SHELXL-2014 (Sheldrick, 2014)'
_diffrn_ambient_temperature      296(2)
_diffrn_measured_fraction_theta_full 0.997
_diffrn_measured_fraction_theta_max 0.994
_diffrn_measurement_device_type  'Bruker APEX-II CCD'
_diffrn_measurement_method       '\f and \w scans'
_diffrn_radiation_type           MoK\a
_diffrn_radiation_wavelength     0.71073
_diffrn_reflns_av_R_equivalents  0.0281
_diffrn_reflns_av_unetI/netI     0.0200
_diffrn_reflns_Laue_measured_fraction_full 0.997
_diffrn_reflns_Laue_measured_fraction_max 0.994
_diffrn_reflns_limit_h_max       11
_diffrn_reflns_limit_h_min       -11
_diffrn_reflns_limit_k_max       20
_diffrn_reflns_limit_k_min       -19
_diffrn_reflns_limit_l_max       8
_diffrn_reflns_limit_l_min       -8
_diffrn_reflns_number            9114
_diffrn_reflns_point_group_measured_fraction_full 0.997
_diffrn_reflns_point_group_measured_fraction_max 0.994
_diffrn_reflns_theta_full        25.242
_diffrn_reflns_theta_max         28.294
_diffrn_reflns_theta_min         2.310
_exptl_absorpt_coefficient_mu    0.471
_exptl_crystal_colour            coulourness
_exptl_crystal_density_diffrn    1.799
_exptl_crystal_description       block
_exptl_crystal_F_000             448
_exptl_crystal_size_max          0.7
_exptl_crystal_size_mid          0.4
_exptl_crystal_size_min          0.3
_refine_diff_density_max         0.444
_refine_diff_density_min         -0.329
_refine_diff_density_rms         0.068
_refine_ls_extinction_method     none
_refine_ls_goodness_of_fit_ref   1.066
_refine_ls_hydrogen_treatment    constr
_refine_ls_matrix_type           full
_refine_ls_number_parameters     128
_refine_ls_number_reflns         2032
_refine_ls_number_restraints     0
_refine_ls_restrained_S_all      1.066
_refine_ls_R_factor_all          0.0311
_refine_ls_R_factor_gt           0.0293
_refine_ls_shift/su_max          0.002
_refine_ls_shift/su_mean         0.000
_refine_ls_structure_factor_coef Fsqd
_refine_ls_weighting_details
'w=1/[\s^2^(Fo^2^)+(0.0504P)^2^+0.4137P] where P=(Fo^2^+2Fc^2^)/3'
_refine_ls_weighting_scheme      calc
_refine_ls_wR_factor_gt          0.0888
_refine_ls_wR_factor_ref         0.0905
_reflns_Friedel_coverage         0.000
_reflns_number_gt                1916
_reflns_number_total             2032
_reflns_threshold_expression     'I > 2\s(I)'
_cod_data_source_file            d0nj05530a2.cif
_cod_data_source_block           -Cl-
_cod_depositor_comments
'Adding full bibliography for 7060157--7060159.cif.'
_cod_original_sg_symbol_H-M      'P 21/c'
_cod_database_code               7060158
_shelx_space_group_comment
;
The symmetry employed for this shelxl refinement is uniquely defined
by the following loop, which should always be used as a source of
symmetry information in preference to the above space-group names.
They are only intended as comments.
;
_shelxl_version_number           2014-3
_shelx_res_file
;
TITL zjt-0724 in P2(1)/c
CELL 0.71073   8.8976  15.0999   6.1714  90.000  97.794  90.000
ZERR    4.00   0.0032   0.0054   0.0022   0.000   0.009   0.000
LATT 1
SYMM -X, 0.5+Y, 0.5-Z
SFAC C  H  N  O  Cl
UNIT 16 12 16 20 4
L.S. 13
ACTA
BOND
FMAP 2
PLAN 5
FREE C9   C1
TEMP 23.000
WGHT    0.050400    0.413700
FVAR       0.26332
MOLE 1
CL1   5    0.705416    0.594291    1.220273    11.00000    0.03453    0.02610 =
         0.01193   -0.00024    0.00480   -0.00366
O2    4    0.966396    0.638715    0.998971    11.00000    0.01815    0.03697 =
         0.03390   -0.00152   -0.00289   -0.00455
O5    4    0.528877    0.709558    0.901298    11.00000    0.02650    0.01905 =
         0.03436   -0.00097    0.00912    0.00515
N3    3    0.568533    0.641801    0.820941    11.00000    0.01592    0.01852 =
         0.01939    0.00294    0.00503    0.00073
O4    4    0.511097    0.605820    0.653574    11.00000    0.02353    0.03309 =
         0.02139   -0.00222   -0.00408    0.00489
N2    3    0.801749    0.492196    0.668966    11.00000    0.02111    0.01914 =
         0.01571    0.00067    0.00385    0.00236
C6    1    0.710775    0.594831    0.942416    11.00000    0.01585    0.01562 =
         0.01323    0.00184    0.00278   -0.00105
O3    4    0.822083    0.700175    0.729451    11.00000    0.02713    0.02568 =
         0.03780    0.01533    0.01226    0.00137
O1    4    0.713711    0.367499    0.790441    11.00000    0.02440    0.01567 =
         0.02741   -0.00136    0.00343   -0.00076
C9    1    0.729071    0.504777    0.848087    11.00000    0.01514    0.01558 =
         0.01407    0.00136    0.00086    0.00026
N4    3    0.846105    0.651320    0.886087    11.00000    0.01705    0.01548 =
         0.02262   -0.00068    0.00504   -0.00207
N1    3    0.674874    0.434253    0.931250    11.00000    0.02364    0.01624 =
         0.02320    0.00006    0.00589   -0.00159
C1    1    0.788966    0.406520    0.641512    11.00000    0.01892    0.01946 =
         0.01889   -0.00020   -0.00123    0.00447
C14   1    0.847803    0.349998    0.476331    11.00000    0.03384    0.02861 =
         0.02894   -0.00853    0.00315    0.01118
AFIX 137
H14A  2    0.850543    0.383365    0.344513    11.00000   -1.50000
H14B  2    0.782718    0.299556    0.445669    11.00000   -1.50000
H14C  2    0.948349    0.330379    0.531567    11.00000   -1.50000
AFIX   0
HKLF 4

REM  zjt-0724 in P2(1)/c
REM R1 =  0.0293 for    1916 Fo > 4sig(Fo)  and  0.0311 for all    2032 data
REM    128 parameters refined using      0 restraints

END

WGHT      0.0503      0.4151

REM Highest difference peak  0.444,  deepest hole -0.329,  1-sigma level  0.068
Q1    1   0.7249  0.5448  0.8987  11.00000  0.05    0.44
Q2    1   0.6421  0.6194  0.8833  11.00000  0.05    0.36
Q3    1   0.8184  0.3825  0.5590  11.00000  0.05    0.31
Q4    1   0.7758  0.6262  0.9131  11.00000  0.05    0.30
Q5    1   0.8847  0.2950  0.5480  11.00000  0.05    0.24
;
_shelx_res_checksum              76795
_shelx_hkl_file
;
   0   0   1   -0.18    0.02
   0   0  -1   -0.17    0.02
   0   0   1   -0.21    0.02
   0   0   1   -0.19    0.03
   0   0  -1   -0.16    0.02
   0   0   2  220.82    6.99
   0   0   2  204.32    6.99
   0   0  -2  202.55    7.05
   0   0   2  194.87    7.04
   0   0  -2  206.78    6.98
   0   0  -3    0.02    0.05
   0   0   3   -0.05    0.04
   0   0   3    0.00    0.03
   0   0  -3    0.08    0.04
   0   0  -4    4.26    0.25
   0   0  -4    4.23    0.21
   0   0   4    4.41    0.19
   0   0  -5   -0.02    0.06
   0   0  -5    0.13    0.09
   0   0   5   -0.02    0.04
   0   0   6    0.66    0.09
   0   0  -6    0.74    0.12
   0   0  -6    0.67    0.14
   0   0   7    0.10    0.06
   0   0  -7    0.07    0.10
   0   1   0    0.00    0.01
   0  -1   0    0.01    0.00
   0   1   1  170.82    6.03
   0   1  -1  181.38    6.03
   0   1  -1  174.93    6.02
   0   1   1  180.47    6.00
   0   1  -1  179.46    6.01
   0  -1  -1  169.98    6.03
   0  -1  -1  190.22    6.00
   0  -1   1  173.49    6.01
   0  -1   1  180.39    6.02
   0  -1   1  180.67    6.02
   0  -1  -1  159.99    6.05
   0   1   2   13.88    0.49
   0   1  -2   14.68    0.52
   0   1   2   14.41    0.54
   0   1  -2   14.19    0.50
   0  -1  -2   13.00    0.53
   0  -1  -2   14.23    0.49
   0  -1   2   13.55    0.50
   0  -1   2   13.68    0.50
   0  -1  -2   13.56    0.51
   0  -1   2   14.88    0.51
   0   1  -3    0.03    0.05
   0   1  -3    0.05    0.04
   0   1   3    0.07    0.03
   0   1   3    0.04    0.06
   0  -1   3    0.10    0.04
   0  -1  -3    0.00    0.06
   0  -1  -3    0.07    0.03
   0  -1   3   -0.02    0.04
   0  -1  -3    0.00    0.03
   0   1   4   52.82    1.82
   0   1  -4   52.79    1.84
   0   1  -4   50.73    1.87
   0  -1   4   53.24    1.82
   0  -1  -4   53.59    1.85
   0   1  -5   12.97    0.53
   0   1   5   12.82    0.49
   0  -1   5   12.68    0.50
   0  -1  -5   12.98    0.53
   0  -1  -5   13.02    0.59
   0   1  -6   40.24    1.58
   0   1   6   42.40    1.50
   0   1  -6   43.70    1.55
   0  -1   6   43.33    1.51
   0  -1  -6   42.17    1.61
   0  -1  -6   42.53    1.55
   0   1  -7   52.23    1.89
   0   1   7   51.39    1.83
   0  -1   7   51.55    1.84
   0   1  -8    6.28    0.37
   0   1   8    6.35    0.35
   0  -1   8    6.12    0.32
   0   2  -1    6.72    0.24
   0   2   1    6.61    0.23
   0   2  -1    6.78    0.24
   0   2   1    6.68    0.24
   0   2  -1    6.44    0.24
   0  -2  -1    6.44    0.23
   0  -2   1    6.75    0.23
   0  -2  -1    6.12    0.27
   0  -2   1    6.32    0.24
   0  -2   1    6.61    0.24
   0   2  -2   26.91    0.93
   0   2   2   26.23    0.92
   0   2  -2   26.32    0.93
   0   2   2   26.87    0.92
   0   2  -2   26.20    0.93
   0   2   2   27.19    0.98
   0  -2   2   26.35    0.93
   0  -2   2   27.15    0.92
   0  -2  -2   26.23    0.93
   0   2  -3  205.99    7.02
   0   2   3  209.21    7.07
   0   2  -3  208.82    7.07
   0  -2   3  223.64    7.02
   0  -2   3  202.80    7.09
   0  -2  -3  205.63    7.02
   0  -2  -3  192.44    7.07
   0   2   4    5.85    0.24
   0   2  -4    6.10    0.27
   0   2  -4    5.67    0.28
   0  -2  -4    5.99    0.33
   0  -2  -4    5.62    0.27
   0  -2   4    6.63    0.28
   0  -2   4    5.95    0.26
   0   2  -5   25.85    1.02
   0   2   5   27.05    0.96
   0   2  -5   26.77    1.00
   0  -2   5   27.93    0.98
   0  -2  -5   26.95    1.08
   0  -2  -5   27.51    1.01
   0   2   6    4.83    0.23
   0   2  -6    4.93    0.28
   0   2  -6    4.72    0.30
   0  -2   6    5.08    0.25
   0  -2  -6    4.59    0.33
   0   2  -7    5.68    0.34
   0   2   7    5.40    0.27
   0   2   7    5.58    0.31
   0  -2  -7    6.51    0.48
   0  -2   7    5.49    0.29
   0   2   8    2.00    0.22
   0   2  -8    2.29    0.24
   0  -2   8    2.10    0.19
   0   3   0    0.00    0.03
   0   3   0    0.01    0.02
   0  -3   0    0.01    0.02
   0  -3   0   -0.01    0.01
   0  -3   0   -0.02    0.03
   0   3  -1   76.58    2.64
   0   3   1   78.79    2.64
   0   3   1   78.78    2.65
   0   3  -1   75.64    2.68
   0   3  -1   78.93    2.67
   0  -3  -1   80.09    2.65
   0  -3  -1   79.49    2.65
   0  -3  -1   75.43    2.69
   0  -3   1   78.87    2.64
   0  -3   1   76.50    2.65
   0   3   2   71.99    2.49
   0   3   2   72.13    2.55
   0   3   2   74.03    2.48
   0   3  -2   71.67    2.49
   0   3  -2   72.68    2.49
   0   3   2   73.54    2.48
   0  -3   2   77.01    2.48
   0  -3   2   67.92    2.49
   0  -3  -2   69.14    2.55
   0  -3   2   79.59    2.51
   0   3   3   27.70    0.96
   0   3  -3   28.45    0.98
   0   3  -3   26.90    0.98
   0   3   3   27.62    0.95
   0   3   3   26.36    0.97
   0  -3  -3   26.88    1.05
   0  -3   3   28.67    0.96
   0  -3   3   27.08    0.97
   0   3  -4   20.19    0.74
   0   3   4   19.32    0.70
   0   3  -4   18.70    0.74
   0  -3  -4   19.94    0.81
   0  -3   4   20.54    0.71
   0  -3   4   19.27    0.72
   0   3  -5    4.40    0.24
   0   3   5    4.33    0.22
   0   3  -5    4.00    0.24
   0   3   5    4.08    0.19
   0  -3  -5    4.17    0.30
   0  -3   5    4.31    0.22
   0   3  -6   30.19    1.12
   0   3   6   29.82    1.10
   0   3   6   29.02    1.06
   0  -3   6   29.57    1.09
   0  -3  -6   29.50    1.20
   0   3  -7    3.63    0.27
   0   3   7    3.87    0.26
   0  -3   7    3.51    0.23
   0  -3  -7    3.87    0.32
   0   3   8   25.94    1.04
   0   3  -8   27.07    1.08
   0  -3   8   26.87    1.02
   0   4  -1  463.78   16.76
   0   4  -1  512.46   16.76
   0   4  -1  417.03   16.73
   0   4   1  543.61   16.78
   0  -4  -1  468.74   16.92
   0  -4   1  508.60   16.76
   0  -4   1  498.58   16.79
   0  -4  -1  513.35   16.71
   0  -4  -1  514.81   16.76
   0   4   2    7.19    0.28
   0   4   2    7.81    0.27
   0   4  -2    7.31    0.29
   0  -4  -2    6.95    0.34
   0  -4   2    7.70    0.27
   0  -4   2    7.19    0.29
   0   4   3    3.04    0.13
   0   4  -3    2.97    0.16
   0   4  -3    3.38    0.16
   0   4   3    2.81    0.15
   0   4   3    3.07    0.13
   0  -4  -3    2.95    0.22
   0  -4   3    3.63    0.14
   0  -4   3    3.03    0.16
   0   4   4   45.56    1.65
   0   4  -4   47.38    1.66
   0   4   4   46.95    1.62
   0   4  -4   47.47    1.66
   0  -4   4   48.54    1.63
   0  -4   4   47.60    1.65
   0  -4  -4   45.57    1.74
   0   4  -5   14.92    0.59
   0   4  -5   13.85    0.59
   0   4   5   14.70    0.58
   0   4   5   14.68    0.54
   0  -4  -5   14.47    0.68
   0  -4   5   15.53    0.58
   0   4   6    0.06    0.08
   0   4   6   -0.01    0.04
   0   4  -6    0.25    0.09
   0  -4  -6   -0.04    0.10
   0  -4   6    0.17    0.07
   0   4   7    5.30    0.32
   0   4  -7    5.24    0.33
   0  -4  -7    4.99    0.38
   0  -4   7    5.38    0.29
   0   5   0   -0.23    0.01
   0   5   0   -0.21    0.04
   0  -5   0   -0.21    0.02
   0  -5   0   -0.19    0.03
   0   5  -1    5.72    0.23
   0   5   1    5.72    0.21
   0   5  -1    5.64    0.23
   0   5   1    5.99    0.23
   0   5  -1    5.67    0.22
   0   5  -1    4.87    0.23
   0  -5  -1    6.06    0.23
   0  -5  -1    5.88    0.21
   0  -5   1    5.03    0.22
   0  -5   1    5.56    0.23
   0   5   2    5.52    0.22
   0   5  -2    5.44    0.23
   0   5  -2    5.49    0.22
   0   5   2    5.76    0.20
   0   5  -2    5.64    0.22
   0  -5  -2    5.74    0.21
   0  -5  -2    5.46    0.29
   0  -5   2    5.45    0.23
   0   5   3    0.95    0.08
   0   5   3    1.13    0.06
   0   5  -3    1.00    0.09
   0   5  -3    1.09    0.09
   0   5   3    1.03    0.06
   0  -5  -3    0.91    0.14
   0  -5   3    1.22    0.07
   0   5   4    2.38    0.12
   0   5   4    2.15    0.11
   0   5   4    2.03    0.14
   0   5  -4    2.10    0.15
   0   5  -4    2.25    0.14
   0  -5   4    2.36    0.15
   0  -5  -4    2.11    0.21
   0  -5   4    2.22    0.12
   0   5  -5  100.40    3.40
   0   5   5   96.85    3.34
   0   5   5   98.99    3.39
   0   5  -5   91.53    3.38
   0  -5  -5   96.67    3.51
   0  -5   5  104.03    3.39
   0   5  -6    0.19    0.09
   0   5   6    0.23    0.05
   0   5   6    0.18    0.09
   0  -5  -6    0.36    0.14
   0  -5   6    0.47    0.09
   0   5   7   82.21    2.85
   0   5  -7   81.51    2.88
   0  -5   7   83.44    2.85
   0  -5  -7   76.23    2.97
   0   6   0    0.67    0.09
   0   6  -1   59.76    2.05
   0   6  -1   59.86    2.05
   0   6   1   59.41    2.04
   0  -6  -1   60.67    2.04
   0  -6   1   59.94    2.05
   0   6  -2   21.72    0.77
   0   6  -2   21.61    0.76
   0   6   2   22.01    0.77
   0   6  -2   22.12    0.76
   0   6   2   21.77    0.74
   0  -6  -2   21.93    0.75
   0  -6  -2   19.87    0.85
   0  -6   2   21.93    0.78
   0   6   3   86.79    2.88
   0   6   3   86.63    2.88
   0   6   3   85.25    2.91
   0   6  -3   85.98    2.92
   0   6  -3   84.25    2.90
   0  -6   3   84.34    2.92
   0  -6  -3   80.63    3.01
   0   6  -4   12.26    0.49
   0   6  -4   12.33    0.47
   0   6   4   11.93    0.44
   0   6   4   11.92    0.47
   0   6   4   11.82    0.44
   0  -6   4   12.72    0.44
   0  -6   4   11.83    0.48
   0  -6  -4   11.57    0.58
   0   6  -5   12.51    0.53
   0   6   5   13.24    0.53
   0   6  -5   13.55    0.55
   0   6   5   12.96    0.48
   0  -6   5   13.86    0.54
   0  -6  -5   12.96    0.64
   0   6  -6   37.22    1.39
   0   6   6   37.85    1.37
   0  -6  -6   36.19    1.49
   0  -6   6   38.57    1.37
   0   6   7   10.77    0.48
   0   6  -7   10.29    0.50
   0  -6  -7    9.86    0.58
   0  -6   7   10.20    0.47
   0   7   0   -0.09    0.02
   0  -7   0   -0.08    0.04
   0  -7   0   -0.08    0.02
   0   7  -2   26.38    1.10
   0   7  -2   31.73    1.10
   0   7   2   31.17    1.07
   0   7  -2   33.52    1.10
   0   7   2   33.91    1.10
   0  -7  -2   28.33    1.18
   0  -7  -2   33.09    1.08
   0  -7   2   32.20    1.11
   0   7  -3   16.13    0.59
   0   7   3   16.33    0.60
   0   7   3   16.42    0.57
   0   7   3   16.92    0.57
   0   7  -3   16.42    0.58
   0   7  -3   15.61    0.60
   0  -7   3   15.73    0.61
   0  -7  -3   15.27    0.70
   0   7  -4   54.80    1.87
   0   7  -4   53.99    1.89
   0   7   4   54.54    1.83
   0   7   4   53.43    1.87
   0   7   4   53.14    1.83
   0  -7  -4   50.95    2.00
   0  -7   4   54.50    1.89
   0   7   5    2.73    0.13
   0   7   5    2.83    0.18
   0   7  -5    2.65    0.19
   0  -7   5    2.72    0.18
   0  -7  -5    2.74    0.27
   0   7  -6    5.29    0.30
   0   7   6    5.38    0.29
   0  -7  -6    5.12    0.39
   0  -7   6    5.15    0.29
   0   7   7   20.93    0.81
   0   7  -7   19.88    0.84
   0  -7  -7   19.51    0.94
   0  -7   7   21.01    0.82
   0  -8   0  122.94    4.29
   0  -8   0  129.75    4.33
   0   8   1   30.20    1.06
   0   8  -1   30.04    1.07
   0  -8   1   30.87    1.09
   0  -8  -1   30.48    1.06
   0  -8   1   31.15    1.07
   0   8  -2   15.90    0.60
   0   8   2   17.13    0.61
   0   8   2   15.64    0.57
   0   8  -2   16.28    0.60
   0  -8  -2   16.66    0.58
   0  -8   2   16.37    0.61
   0   8  -3   25.45    0.88
   0   8  -3   22.03    0.87
   0   8   3   25.48    0.89
   0   8  -3   24.68    0.89
   0   8   3   24.67    0.85
   0  -8  -3   23.96    1.00
   0  -8   3   25.70    0.90
   0   8   4    1.01    0.07
   0   8  -4    1.14    0.11
   0   8   4    0.94    0.11
   0   8  -4    1.04    0.12
   0  -8  -4    0.87    0.18
   0  -8   4    1.07    0.12
   0   8   5    1.04    0.12
   0   8  -5    0.94    0.12
   0  -8   5    1.05    0.13
   0  -8  -5    1.07    0.20
   0   8   6   32.61    1.18
   0   8  -6   32.02    1.21
   0  -8  -6   30.49    1.32
   0  -8   6   32.45    1.20
   0   8  -7    1.34    0.18
   0   8   7    1.00    0.15
   0  -8   7    1.32    0.17
   0  -8  -7    0.77    0.18
   0   9   0   -0.03    0.03
   0  -9   0    0.03    0.05
   0  -9   0   -0.02    0.03
   0   9  -1    0.25    0.04
   0   9   1    0.37    0.04
   0  -9  -1    0.38    0.08
   0  -9  -1    0.28    0.04
   0  -9   1    0.21    0.05
   0  -9   1    0.18    0.05
   0   9   2   12.98    0.48
   0   9  -2   14.12    0.51
   0   9  -2   13.95    0.51
   0  -9   2   13.57    0.52
   0  -9  -2   12.32    0.60
   0  -9  -2   13.93    0.48
   0   9  -3    3.57    0.19
   0   9   3    3.56    0.18
   0   9   3    3.48    0.14
   0   9  -3    3.64    0.18
   0  -9   3    3.56    0.19
   0  -9  -3    3.20    0.14
   0  -9  -3    2.68    0.24
   0   9  -4   41.46    1.49
   0   9   4   42.96    1.48
   0   9   4   40.32    1.42
   0   9  -4   41.94    1.47
   0  -9  -4   40.08    1.62
   0  -9   4   42.95    1.50
   0   9  -5    9.62    0.43
   0   9   5    9.35    0.41
   0  -9  -5    9.14    0.53
   0  -9   5    9.71    0.43
   0   9  -6    6.95    0.37
   0   9   6    7.03    0.34
   0  -9   6    7.16    0.36
   0  -9  -6    6.66    0.46
   0   9  -7    9.89    0.50
   0   9   7   10.23    0.47
   0  -9   7   10.55    0.49
   0  -9  -7   10.15    0.60
   0 -10   0  144.89    5.20
   0 -10   0  161.70    5.26
   0  10  -1   12.52    0.47
   0 -10  -1   12.53    0.46
   0 -10  -1   13.01    0.55
   0 -10   1   12.40    0.48
   0  10  -2  132.79    4.55
   0  10   2  128.11    4.51
   0  10  -2  137.59    4.55
   0 -10  -2  135.53    4.52
   0 -10   2  134.26    4.56
   0 -10  -2  131.76    4.65
   0  10  -3    4.91    0.24
   0  10  -3    4.93    0.23
   0  10   3    5.08    0.24
   0 -10   3    4.87    0.25
   0 -10  -3    4.80    0.20
   0 -10  -3    4.90    0.33
   0  10  -4    0.14    0.07
   0  10   4    0.04    0.06
   0  10  -4    0.01    0.07
   0 -10   4   -0.04    0.07
   0 -10  -4    0.03    0.10
   0  10  -5    0.37    0.10
   0  10   5    0.41    0.09
   0 -10  -5    0.14    0.13
   0 -10   5    0.48    0.10
   0  10  -6    2.02    0.20
   0  10   6    1.95    0.19
   0 -10   6    2.17    0.19
   0 -10  -6    1.92    0.27
   0  10  -7    1.04    0.17
   0  10   7    0.88    0.15
   0 -10   7    1.04    0.15
   0 -10  -7    1.02    0.21
   0  11   0   -0.02    0.04
   0 -11   0    0.03    0.04
   0 -11   0    0.10    0.06
   0  11  -1   16.09    0.61
   0 -11   1   16.46    0.62
   0 -11  -1   16.47    0.60
   0 -11  -1   17.35    0.69
   0  11   2    0.18    0.06
   0  11  -2    0.23    0.06
   0  11  -2    0.15    0.06
   0 -11   2    0.20    0.06
   0 -11  -2    0.17    0.04
   0 -11  -2    0.06    0.09
   0  11  -3    9.01    0.38
   0  11  -3    9.24    0.37
   0  11   3    7.79    0.38
   0 -11  -3    8.92    0.33
   0 -11  -3    8.50    0.48
   0 -11   3    9.23    0.39
   0  11  -4   22.81    0.88
   0  11   4   23.82    0.88
   0 -11   4   23.31    0.89
   0  11   5    1.05    0.13
   0  11  -5    1.01    0.14
   0 -11   5    0.84    0.12
   0 -11  -5    1.02    0.20
   0  11  -6    0.05    0.09
   0  11   6   -0.04    0.08
   0 -11   6    0.03    0.08
   0 -11  -6    0.12    0.13
   0  12   0    5.41    0.29
   0 -12   0    7.24    0.33
   0 -12   0    6.83    0.27
   0  12  -1   13.26    0.54
   0  12  -1   13.73    0.52
   0 -12  -1   13.83    0.59
   0 -12   1   13.33    0.52
   0 -12  -1   13.24    0.50
   0  12  -2    2.83    0.17
   0  12  -2    2.86    0.18
   0 -12   2    2.82    0.18
   0 -12  -2    2.88    0.14
   0 -12  -2    3.19    0.24
   0  12  -3    8.24    0.37
   0  12  -3    8.15    0.36
   0 -12  -3    8.53    0.47
   0 -12   3    8.38    0.37
   0  12   4    0.76    0.12
   0  12  -4    0.59    0.10
   0 -12   4    0.83    0.12
   0 -12  -4    0.47    0.16
   0  12  -5    0.36    0.10
   0  12   5    0.26    0.09
   0 -12   5    0.39    0.10
   0 -12  -5    0.28    0.13
   0  12  -6    1.05    0.17
   0  12   6    1.18    0.16
   0 -12   6    1.35    0.17
   0 -12  -6    1.11    0.22
   0  13   0    0.06    0.06
   0 -13   0    0.28    0.06
   0 -13   0   -0.03    0.05
   0  13  -1    9.70    0.42
   0  13  -1    9.71    0.40
   0 -13  -1    9.35    0.38
   0 -13  -1   10.97    0.48
   0 -13   1    9.39    0.40
   0  13  -2    0.21    0.07
   0  13  -2    0.31    0.07
   0 -13  -2    0.37    0.11
   0 -13  -2    0.27    0.05
   0 -13   2    0.27    0.07
   0  13  -3   11.98    0.49
   0  13  -3   11.05    0.48
   0 -13  -3   12.69    0.61
   0 -13   3   11.81    0.50
   0  13  -4   12.59    0.56
   0 -13  -4   14.98    0.70
   0 -13   4   13.28    0.56
   0  13   5    0.23    0.11
   0  13  -5    0.32    0.10
   0 -13   5    0.05    0.08
   0 -13  -5    0.15    0.14
   0  13  -6    1.38    0.18
   0  13   6    1.36    0.17
   0 -13   6    1.31    0.17
   0 -13  -6    1.84    0.27
   0  14   0   59.31    2.15
   0 -14   0   67.34    2.21
   0 -14   0   57.78    2.12
   0  14  -1   25.89    0.97
   0  14  -1   25.14    0.93
   0 -14  -1   24.56    0.92
   0 -14  -1   28.50    1.03
   0 -14   1   24.25    0.93
   0  14  -2    4.00    0.24
   0  14  -2    3.84    0.22
   0 -14  -2    4.62    0.31
   0 -14   2    3.94    0.22
   0  14  -3   29.18    1.23
   0  14  -3   28.72    1.11
   0 -14  -3   33.36    1.25
   0 -14   3   30.21    1.12
   0  14  -4    1.58    0.17
   0 -14   4    1.88    0.18
   0 -14  -4    1.78    0.24
   0  14  -5    0.17    0.09
   0  14   5    0.00    0.10
   0 -14   5    0.19    0.10
   0 -14  -5    0.18    0.12
   0  15   0    0.05    0.07
   0 -15   0    0.08    0.08
   0 -15   0    0.05    0.05
   0  15  -1   10.69    0.44
   0  15  -1   10.81    0.47
   0 -15   1   10.60    0.44
   0 -15  -1   10.16    0.42
   0 -15  -1   11.36    0.53
   0  15  -2   28.14    1.06
   0  15  -2   29.14    1.08
   0 -15   2   28.29    1.07
   0 -15  -2   30.64    1.17
   0  15  -3    0.46    0.10
   0 -15  -3    0.46    0.14
   0 -15   3    0.38    0.10
   0  15   4   -0.04    0.04
   0  15  -4    0.09    0.08
   0 -15   4    0.09    0.09
   0 -15  -4   -0.02    0.10
   0  15  -5    3.87    0.27
   0 -15   5    3.46    0.27
   0 -15  -5    4.66    0.37
   0  16   0   23.94    0.90
   0 -16   0   25.32    0.96
   0 -16   0   22.74    0.88
   0  16  -1    1.78    0.18
   0  16  -1    1.76    0.15
   0 -16  -1    1.97    0.16
   0 -16   1    1.78    0.14
   0 -16  -1    1.94    0.20
   0  16  -2    1.23    0.15
   0  16  -2    1.24    0.14
   0 -16  -2    0.91    0.16
   0 -16   2    1.24    0.14
   0  16  -3    0.15    0.08
   0  16   3    0.02    0.03
   0 -16  -3    0.10    0.11
   0 -16   3    0.15    0.08
   0  16  -4    1.89    0.19
   0 -16  -4    2.20    0.27
   0 -16   4    2.02    0.20
   0  17   0    0.10    0.07
   0 -17   0    0.04    0.06
   0  17  -1    4.29    0.23
   0  17  -1    3.88    0.27
   0 -17  -1    4.45    0.30
   0 -17   1    4.18    0.23
   0  17   2    0.07    0.05
   0  17  -2    0.23    0.10
   0  17  -2    0.16    0.08
   0 -17  -2    0.11    0.10
   0 -17   2    0.20    0.07
   0  17  -3    5.50    0.31
   0 -17   3    5.92    0.32
   0 -17  -3    6.43    0.42
   0  17  -4    9.63    0.48
   0 -17   4   10.54    0.50
   0 -17  -4   12.04    0.62
   0  18   0    8.20    0.37
   0  18   0    7.89    0.42
   0  18   1    0.68    0.13
   0  18  -1    0.82    0.12
   0  18  -1    0.67    0.13
   0 -18   1    0.61    0.10
   0 -18  -1    0.61    0.15
   0  18  -2    2.55    0.19
   0 -18  -2    2.78    0.26
   0 -18   2    2.41    0.19
   0  18  -3   20.60    0.84
   0 -18  -3   22.67    0.97
   0 -18   3   20.85    0.84
   0  19   0    0.04    0.07
   0  19   0    0.03    0.10
   0  19   1    0.26    0.11
   0  19  -1    0.20    0.09
   0  19  -1    0.13    0.11
   0 -19   1    0.18    0.08
   0 -19  -1    0.31    0.13
   0  19  -2    1.10    0.14
   0 -19  -2    1.01    0.19
   0 -19   2    0.92    0.13
   0  20   0   54.42    1.93
   0  20   0   53.32    1.99
   1   0  -8   35.67    1.36
  -1   0   8   34.58    1.29
   1   0  -7   -0.01    0.09
  -1   0   7   -0.03    0.06
   1   0  -6    3.29    0.23
  -1   0   6    3.59    0.20
  -1   0   5    0.00    0.05
   1   0  -5    0.03    0.06
   1   0  -5    0.08    0.07
   1   0  -4  313.33   10.27
   1   0  -4  284.73   10.28
  -1   0   4  310.65   10.40
   1   0  -2  313.69   10.38
  -1   0   2  271.20   10.36
  -1   0   2  294.90   10.36
   1   0  -2  333.60   10.33
  -1   0   1   -0.10    0.02
   1   0  -1   -0.10    0.02
  -1   0   1   -0.09    0.02
   1   0   0  103.14    3.25
  -1   0   0   91.95    3.24
   1   0   0   85.13    3.23
  -1   0   0   96.23    3.24
  -1   0  -1   -0.39    0.03
  -1   0  -1   -0.44    0.05
   1   0   1   -0.42    0.04
   1   0   1   -0.34    0.03
   1   0   1   -0.27    0.06
  -1   0  -1   -0.54    0.03
  -1   0  -2   21.89    0.77
   1   0   2   21.82    0.77
  -1   0  -2   21.18    0.78
   1   0   2   21.67    0.78
   1   0   2   23.59    0.81
  -1   0  -2   22.17    0.81
  -1   0  -3    0.00    0.04
  -1   0  -3    0.02    0.06
  -1   0  -4   23.95    0.86
   1   0   4   22.96    0.83
  -1   0  -4   23.31    0.92
   1   0   5    0.03    0.04
  -1   0  -5   -0.02    0.06
  -1   0  -5   -0.02    0.08
  -1   0  -6   18.34    0.82
   1   0   6   18.92    0.71
  -1   0  -6   19.26    0.76
   1   0   7    0.04    0.06
   1   0   8    2.05    0.20
   1   1  -8    0.20    0.12
  -1  -1   8    0.35    0.10
  -1   1   7   32.18    1.16
   1   1  -7   29.41    1.21
  -1  -1   7   32.99    1.18
   1  -1  -7   32.50    1.22
  -1   1   6    6.69    0.31
   1   1  -6    6.57    0.34
   1  -1  -6    6.50    0.34
  -1  -1   6    7.30    0.32
   1   1  -5   53.86    1.89
  -1   1   5   54.33    1.86
   1   1  -5   50.51    1.89
   1  -1  -5   55.76    1.89
  -1  -1   5   55.21    1.87
   1  -1  -5   50.43    1.92
   1   1  -4   21.31    0.83
   1   1  -4   21.70    0.82
  -1   1   4   22.54    0.80
  -1  -1   4   22.88    0.81
   1  -1  -4   22.68    0.83
  -1  -1   4   24.01    0.83
   1  -1  -4   21.21    0.85
   1   1  -3  242.57    7.88
   1   1  -3  210.33    7.94
  -1   1   3  238.78    7.87
  -1   1   3  229.05    7.90
  -1  -1   3  231.93    7.94
   1  -1  -3  205.41    7.86
   1  -1  -3  235.13    7.84
  -1  -1   3  256.90    7.84
  -1   1   2   61.84    2.03
   1   1  -2   62.87    2.03
  -1   1   2   61.31    2.03
   1   1  -2   60.23    2.03
  -1   1   2   62.84    2.03
   1   1  -2   52.02    2.02
   1  -1  -2   60.10    2.03
   1  -1  -2   53.62    2.05
  -1  -1   2   59.95    2.03
   1   1  -1  142.67    4.57
  -1   1   1  134.73    4.57
  -1   1   1  127.63    4.56
  -1   1   1  133.28    4.56
   1   1  -1  130.54    4.57
   1  -1  -1  127.73    4.55
  -1  -1   1  136.16    4.53
  -1  -1   1  131.96    4.58
   1  -1  -1  138.84    4.58
   1  -1  -1  132.13    4.57
  -1   1   0  134.00    4.62
   1   1   0  140.22    4.67
  -1   1   0  137.75    4.66
   1   1   0  126.97    4.62
  -1  -1   0  140.39    4.62
   1  -1   0  129.86    4.64
  -1  -1   0  144.43    4.68
   1  -1   0  130.31    4.67
  -1   1  -1  232.76    7.95
   1   1   1  223.88    7.90
  -1   1  -1  228.38    7.95
  -1   1  -1  240.84    8.03
   1   1   1  235.65    7.96
  -1  -1  -1  203.78    7.94
  -1  -1  -1  230.79    7.91
   1  -1   1  248.66    7.96
   1  -1   1  250.84    7.97
   1  -1   1  229.77    7.95
  -1  -1  -1  242.16    8.05
  -1   1  -2   95.63    3.29
   1   1   2  101.12    3.33
  -1   1  -2   91.45    3.30
   1   1   2  104.76    3.35
   1   1   2   88.37    3.32
  -1   1  -2   97.82    3.33
   1  -1   2   92.69    3.31
   1  -1   2  100.72    3.32
  -1  -1  -2   97.69    3.35
  -1  -1  -2   97.67    3.29
   1  -1   2   99.34    3.30
  -1   1  -3   64.29    2.19
   1   1   3   59.99    2.12
  -1   1  -3   61.77    2.15
   1  -1   3   60.93    2.13
  -1  -1  -3   65.02    2.13
  -1  -1  -3   62.05    2.21
  -1  -1  -3   61.45    2.15
  -1   1  -4    0.85    0.12
   1   1   4    0.68    0.06
  -1   1  -4    0.51    0.07
   1  -1   4    0.67    0.07
  -1  -1  -4    0.70    0.12
  -1  -1  -4    0.49    0.07
  -1   1  -5   19.91    0.75
   1   1   5   19.53    0.70
  -1   1  -5   19.03    0.80
  -1  -1  -5   19.57    0.75
  -1  -1  -5   18.32    0.81
   1  -1   5   19.31    0.71
   1   1   6   11.22    0.44
  -1   1  -6   10.61    0.54
  -1   1  -6   11.34    0.49
   1  -1   6   11.29    0.45
  -1  -1  -6   10.74    0.57
  -1   1  -7    0.06    0.09
   1   1   7    0.10    0.07
   1   1   7    0.47    0.11
  -1  -1  -7    0.31    0.16
   1  -1   7    0.07    0.07
   1   1   8   -0.13    0.10
   1  -1   8    0.11    0.08
   1   2  -8    0.98    0.17
  -1   2   8    1.07    0.15
  -1  -2   8    0.90    0.14
  -1   2   7   -0.07    0.05
   1   2  -7    0.13    0.10
  -1  -2   7    0.05    0.07
   1   2  -6    0.80    0.12
  -1   2   6    0.55    0.08
   1  -2  -6    0.44    0.12
  -1  -2   6    0.70    0.10
   1  -2  -6    0.89    0.13
   1   2  -5    7.61    0.35
  -1   2   5    8.31    0.33
   1   2  -5    7.58    0.35
   1  -2  -5    7.72    0.36
  -1  -2   5    7.71    0.34
  -1  -2   5    8.58    0.38
   1  -2  -5    7.13    0.38
  -1   2   4    0.61    0.07
   1   2  -4    0.47    0.07
   1   2  -4    0.63    0.08
  -1  -2   4    0.46    0.07
   1  -2  -4    0.72    0.11
  -1  -2   4    0.61    0.07
   1  -2  -4    0.52    0.08
  -1   2   3    0.07    0.03
   1   2  -3    0.00    0.04
   1   2  -3    0.20    0.05
   1  -2  -3    0.02    0.04
  -1  -2   3    0.05    0.03
   1  -2  -3    0.03    0.06
  -1  -2   3    0.12    0.05
  -1   2   2    3.38    0.19
   1   2  -2    3.61    0.16
   1   2  -2    4.16    0.16
  -1   2   2    3.67    0.16
  -1   2   2    3.68    0.15
   1  -2  -2    3.14    0.18
   1  -2  -2    3.54    0.16
  -1   2   1  278.12   10.54
  -1   2   1  315.85   10.47
  -1   2   1  299.97   10.45
   1   2  -1  305.43   10.46
   1  -2  -1  316.21   10.46
  -1  -2   1  311.84   10.50
   1  -2  -1  313.75   10.54
   1  -2  -1  318.06   10.46
  -1   2   0    3.10    0.11
   1   2   1  135.65    4.57
  -1   2  -1  134.60    4.54
  -1   2  -1  129.40    4.58
  -1   2  -1  127.41    4.57
  -1  -2  -1  131.74    4.51
   1  -2   1  140.63    4.51
   1  -2   1  131.37    4.55
  -1  -2  -1  135.09    4.55
   1   2   2   10.79    0.37
  -1   2  -2    9.92    0.39
   1   2   2    9.59    0.35
  -1   2  -2   10.17    0.37
  -1   2  -2    9.57    0.37
   1   2   2   10.34    0.43
  -1  -2  -2   10.47    0.36
  -1  -2  -2   10.44    0.43
   1  -2   2   10.08    0.37
   1  -2   2    9.59    0.37
   1  -2   2   10.01    0.38
   1   2   3   44.07    1.64
  -1   2  -3   48.09    1.67
  -1   2  -3   46.86    1.65
   1   2   3   44.19    1.62
   1  -2   3   46.45    1.64
  -1  -2  -3   46.83    1.72
  -1  -2  -3   49.87    1.62
   1  -2   3   51.84    1.67
   1   2   4   58.09    2.04
  -1   2  -4   59.41    2.05
  -1   2  -4   60.86    2.09
   1   2   4   57.05    2.01
  -1  -2  -4   58.22    2.13
   1  -2   4   58.52    2.03
   1   2   5   61.96    2.13
  -1   2  -5   61.57    2.23
   1   2   5   59.45    2.16
  -1   2  -5   64.76    2.18
  -1  -2  -5   61.02    2.27
   1  -2   5   62.73    2.15
  -1   2  -6    1.56    0.20
   1   2   6    1.37    0.11
   1   2   6    1.38    0.14
  -1   2  -6    1.43    0.16
  -1  -2  -6    1.57    0.22
   1  -2   6    1.45    0.13
   1   2   7   11.37    0.51
  -1   2  -7   11.72    0.53
  -1  -2  -7   11.01    0.61
   1  -2   7   11.53    0.48
  -1   3   8    1.19    0.17
   1   3  -8    0.81    0.17
  -1  -3   8    1.44    0.16
  -1   3   7   -0.03    0.07
  -1   3   7   -0.09    0.05
   1   3  -7   -0.01    0.09
  -1  -3   7   -0.05    0.07
   1   3  -6    4.99    0.29
  -1   3   6    5.02    0.24
  -1  -3   6    5.58    0.27
   1  -3  -6    4.35    0.31
  -1   3   5    1.41    0.10
   1   3  -5    1.24    0.14
   1   3  -5    1.23    0.11
  -1  -3   5    1.28    0.12
   1  -3  -5    1.40    0.17
   1  -3  -5    1.34    0.14
  -1   3   4   49.87    1.66
   1   3  -4   47.64    1.68
   1   3  -4   44.73    1.66
   1  -3  -4   47.81    1.68
  -1  -3   4   49.83    1.64
  -1  -3   4   48.72    1.67
   1  -3  -4   45.62    1.73
  -1   3   3   -0.04    0.03
  -1   3   3   -0.02    0.03
   1   3  -3    0.01    0.03
   1   3  -3   -0.05    0.04
  -1  -3   3   -0.10    0.05
   1   3  -2  250.23    8.32
  -1   3   2  246.63    8.21
  -1   3   2  232.93    8.26
  -1   3   2  246.61    8.27
  -1  -3   2  239.20    8.33
   1  -3  -2  242.61    8.30
   1  -3  -2  237.01    8.29
   1  -3  -2  245.32    8.33
   1   3  -1   23.34    0.82
  -1   3   1   23.75    0.82
  -1   3   1   23.80    0.81
   1   3  -1   23.68    0.82
  -1   3   1   23.87    0.82
   1  -3  -1   23.28    0.84
   1  -3  -1   23.53    0.82
  -1  -3   1   23.70    0.82
  -1  -3   1   24.12    0.82
   1   3   0    4.49    0.16
  -1   3   0    4.26    0.17
  -1   3   0    4.46    0.18
  -1   3   0    4.40    0.18
   1  -3   0    4.28    0.17
  -1  -3   0    4.50    0.16
  -1  -3   0    4.13    0.20
  -1   3  -1    3.76    0.16
  -1   3  -1    3.61    0.15
  -1   3  -1    3.65    0.16
   1   3   1    4.10    0.15
   1  -3   1    3.95    0.15
  -1  -3  -1    3.72    0.20
   1  -3   1    3.89    0.16
  -1   3  -2   39.62    1.39
   1   3   2   39.38    1.37
  -1   3  -2   39.72    1.37
   1   3   2   38.22    1.35
   1  -3   2   41.44    1.37
   1  -3   2   39.91    1.38
  -1  -3  -2   39.81    1.45
   1  -3   2   40.17    1.38
   1   3   3   26.25    0.97
   1   3   3   26.74    0.94
  -1   3  -3   26.92    0.97
  -1   3  -3   27.03    0.99
  -1  -3  -3   26.61    1.05
   1  -3   3   28.97    0.98
  -1  -3  -3   29.43    0.95
   1  -3   3   26.60    0.97
  -1   3  -4   13.07    0.52
   1   3   4   12.01    0.45
   1   3   4   12.78    0.49
  -1   3  -4   12.41    0.49
   1  -3   4   12.43    0.48
  -1  -3  -4   11.81    0.57
  -1   3  -5    4.61    0.28
   1   3   5    4.72    0.21
  -1   3  -5    4.89    0.26
   1   3   5    4.94    0.25
   1  -3   5    5.02    0.24
  -1  -3  -5    4.78    0.34
   1   3   6    5.97    0.26
  -1   3  -6    5.98    0.32
   1   3   6    6.01    0.30
  -1   3  -6    5.63    0.34
   1  -3   6    5.94    0.29
  -1  -3  -6    5.80    0.40
  -1   3  -7   16.80    0.72
   1   3   7   16.61    0.69
  -1  -3  -7   16.80    0.82
   1  -3   7   17.04    0.67
   1   4  -8   15.58    0.72
  -1   4   8   15.98    0.70
  -1  -4   8   16.79    0.68
   1   4  -7    7.82    0.42
  -1   4   7    7.98    0.40
  -1  -4   7    8.52    0.39
  -1   4   6    0.73    0.09
   1   4  -6    0.55    0.11
  -1   4   6    0.77    0.11
   1  -4  -6    0.41    0.12
  -1  -4   6    0.85    0.11
  -1   4   5   17.92    0.67
  -1   4   5   18.13    0.64
   1   4  -5   17.76    0.68
   1   4  -5   15.76    0.63
  -1  -4   5   17.78    0.67
   1  -4  -5   16.96    0.74
   1   4  -4   12.94    0.50
   1   4  -4   13.76    0.54
  -1   4   4   14.23    0.51
  -1  -4   4   14.23    0.53
   1  -4  -4   13.42    0.59
  -1   4   3   99.47    3.45
   1   4  -3  102.78    3.46
  -1   4   3  103.43    3.44
  -1   4   3  105.02    3.43
   1  -4  -3   93.48    3.50
  -1  -4   3  101.42    3.45
   1   4  -2  347.01   11.80
  -1   4   2  338.63   11.70
  -1   4   2  339.33   11.71
  -1  -4   2  358.14   11.74
   1  -4  -2  353.49   11.71
   1  -4  -2  328.18   11.83
   1   4  -1   11.13    0.41
  -1   4   1   11.64    0.40
  -1   4   1   11.63    0.41
   1   4  -1   11.06    0.41
   1   4  -1   11.08    0.42
  -1  -4   1   10.84    0.41
   1  -4  -1   11.99    0.41
   1  -4  -1   11.28    0.41
   1  -4  -1   11.89    0.44
  -1   4   0    5.83    0.21
   1   4   0    5.29    0.25
  -1   4   0    5.58    0.23
  -1   4   0    5.69    0.23
   1   4   0    5.53    0.21
  -1  -4   0    5.49    0.25
  -1  -4   0    5.68    0.21
   1  -4   0    5.93    0.21
   1   4   1    4.38    0.23
  -1   4  -1    4.23    0.17
   1   4   1    4.50    0.18
  -1   4  -1    4.33    0.18
   1  -4   1    4.39    0.16
  -1  -4  -1    4.31    0.17
   1  -4   1    4.35    0.18
  -1  -4  -1    4.03    0.23
  -1   4  -2  120.82    4.13
   1   4   2  117.56    4.13
  -1   4  -2  122.40    4.14
   1  -4   2  116.40    4.13
   1  -4   2  129.88    4.15
  -1  -4  -2  116.96    4.21
   1  -4   2  127.02    4.13
  -1   4  -3   30.19    1.06
   1   4   3   28.73    1.02
   1   4   3   30.02    1.02
   1   4   3   29.75    1.05
  -1   4  -3   30.11    1.07
   1  -4   3   29.56    1.05
   1  -4   3   31.09    1.05
  -1  -4  -3   28.63    1.15
   1   4   4    1.94    0.10
  -1   4  -4    2.05    0.15
   1   4   4    2.23    0.10
  -1   4  -4    2.12    0.14
   1   4   4    1.82    0.13
  -1  -4  -4    1.89    0.21
   1  -4   4    1.80    0.13
  -1   4  -5   44.96    1.69
   1   4   5   46.10    1.62
   1   4   5   47.69    1.66
  -1   4  -5   47.88    1.68
   1  -4   5   48.24    1.66
  -1  -4  -5   45.95    1.79
   1   4   6    0.99    0.12
   1   4   6    0.85    0.12
  -1   4  -6    0.98    0.14
   1  -4   6    1.22    0.13
  -1  -4  -6    1.30    0.21
  -1   4  -7   13.58    0.61
   1   4   7   14.52    0.60
  -1  -4  -7   13.37    0.72
   1  -4   7   13.90    0.58
  -1   5   7   15.42    0.64
   1   5  -7   14.44    0.66
  -1  -5   7   14.98    0.63
   1  -5  -7   15.67    0.71
   1   5  -6    5.06    0.29
  -1   5   6    5.12    0.28
  -1   5   6    5.29    0.24
   1  -5  -6    4.89    0.34
  -1  -5   6    5.37    0.28
  -1   5   5    9.42    0.37
   1   5  -5    9.28    0.42
  -1   5   5    9.38    0.40
  -1  -5   5    9.71    0.40
   1  -5  -5    9.17    0.48
   1   5  -4   49.16    1.70
  -1   5   4   48.75    1.66
  -1   5   4   48.89    1.68
  -1  -5   4   47.76    1.69
   1  -5  -4   45.30    1.75
  -1   5   3   90.69    3.08
  -1   5   3   90.49    3.07
   1   5  -3   91.98    3.09
   1  -5  -3   87.39    3.16
  -1  -5   3   89.93    3.09
   1   5  -2   24.35    0.80
  -1   5   2   23.88    0.81
   1   5  -2   22.83    0.83
  -1   5   2   23.60    0.82
   1   5  -2   19.57    0.81
   1  -5  -2   23.88    0.82
   1  -5  -2   23.56    0.88
  -1  -5   2   24.66    0.83
  -1   5   1   75.53    2.52
   1   5  -1   70.98    2.55
  -1   5   1   78.50    2.52
   1   5  -1   74.65    2.53
   1   5  -1   72.97    2.53
   1  -5  -1   76.93    2.53
  -1  -5   1   66.73    2.53
  -1  -5   1   73.28    2.53
   1  -5  -1   77.37    2.52
   1  -5  -1   75.34    2.56
   1   5   0    0.41    0.08
   1   5   0    0.48    0.04
  -1   5   0    0.52    0.06
  -1   5   0    0.33    0.04
  -1  -5   0    0.42    0.04
  -1  -5   0    0.46    0.08
   1  -5   0    0.37    0.05
  -1   5  -1  499.01   15.80
   1   5   1  397.92   15.77
  -1   5  -1  494.55   15.70
  -1   5  -1  451.18   15.76
   1  -5   1  478.46   15.69
  -1  -5  -1  444.72   15.74
   1  -5   1  467.53   15.75
   1   5   2   18.24    0.66
  -1   5  -2   18.46    0.66
  -1   5  -2   18.97    0.67
   1  -5   2   18.19    0.67
  -1  -5  -2   17.74    0.75
   1  -5   2   19.00    0.66
  -1   5  -3  197.84    6.65
  -1   5  -3  198.07    6.66
   1   5   3  182.15    6.63
   1   5   3  193.91    6.64
   1   5   3  203.94    6.64
   1  -5   3  187.74    6.65
  -1  -5  -3  191.76    6.76
   1  -5   3  211.58    6.68
   1   5   4   15.27    0.58
   1   5   4   14.80    0.54
  -1   5  -4   15.87    0.61
  -1   5  -4   15.29    0.59
   1   5   4   15.46    0.54
   1  -5   4   15.47    0.59
  -1  -5  -4   14.81    0.70
  -1   5  -5   -0.02    0.07
   1   5   5   -0.01    0.06
  -1   5  -5    0.09    0.07
   1   5   5    0.04    0.03
  -1  -5  -5    0.11    0.11
   1  -5   5    0.07    0.06
  -1   5  -6    3.23    0.23
   1   5   6    3.26    0.21
   1  -5   6    3.17    0.20
  -1  -5  -6    3.94    0.33
  -1   5  -7    2.14    0.23
   1   5   7    2.65    0.21
   1  -5   7    2.35    0.19
  -1  -5  -7    2.81    0.34
   1   6  -7    0.08    0.10
  -1   6   7    0.13    0.10
  -1  -6   7    0.15    0.09
   1  -6  -7    0.21    0.12
  -1   6   6    1.14    0.10
   1   6  -6    1.07    0.14
  -1   6   6    0.77    0.12
  -1  -6   6    0.97    0.13
   1  -6  -6    0.92    0.16
   1   6  -5    0.92    0.12
  -1   6   5    0.83    0.11
  -1   6   5    0.84    0.08
  -1  -6   5    0.74    0.10
   1  -6  -5    0.94    0.16
  -1   6   4   33.39    1.15
   1   6  -4   34.08    1.20
  -1   6   4   33.26    1.18
   1  -6  -4   30.93    1.26
  -1  -6   4   33.56    1.19
   1   6  -3    5.84    0.22
   1   6  -3    5.77    0.26
  -1   6   3    5.88    0.23
  -1   6   3    5.72    0.24
   1  -6  -3    5.24    0.31
  -1  -6   3    5.82    0.26
   1  -6  -3    5.91    0.23
  -1   6   2   64.28    2.20
   1   6  -2   62.95    2.21
   1   6  -2   57.71    2.20
   1   6  -2   66.19    2.19
  -1   6   2   65.41    2.19
   1  -6  -2   68.04    2.27
   1  -6  -2   65.94    2.20
  -1  -6   2   63.36    2.21
   1   6  -1   73.76    2.50
   1   6  -1   67.61    2.53
  -1   6   1   66.57    2.50
  -1   6   1   74.20    2.49
   1  -6  -1   79.30    2.54
   1  -6  -1   76.66    2.49
   1  -6  -1   73.83    2.50
  -1  -6   1   74.16    2.50
  -1   6   0  180.02    5.91
   1   6   0  175.73    5.98
   1   6   0  170.25    5.94
  -1  -6   0  180.22    5.99
   1  -6   0  179.69    5.95
   1  -6   0  166.99    6.04
  -1  -6   0  169.07    5.97
  -1   6  -1   25.17    0.84
  -1   6  -1   24.14    0.82
  -1   6  -1   24.38    0.84
   1   6   1   23.12    0.81
  -1  -6  -1   23.78    0.81
  -1  -6  -1   20.21    0.90
   1  -6   1   23.87    0.83
  -1   6  -2   13.16    0.48
  -1   6  -2   12.84    0.49
   1   6   2   13.30    0.48
   1  -6   2   13.94    0.49
  -1  -6  -2   12.35    0.57
   1  -6   2   12.62    0.49
   1   6   3   13.17    0.49
  -1   6  -3   13.07    0.50
  -1   6  -3   12.82    0.50
  -1  -6  -3   12.54    0.60
   1  -6   3   13.26    0.50
   1   6   4   73.48    2.41
  -1   6  -4   72.44    2.47
   1   6   4   71.17    2.46
   1   6   4   69.73    2.41
  -1   6  -4   71.08    2.48
  -1  -6  -4   68.45    2.59
   1  -6   4   70.08    2.46
  -1   6  -5    6.49    0.33
  -1   6  -5    6.58    0.32
   1   6   5    6.38    0.30
   1   6   5    6.44    0.25
  -1  -6  -5    5.96    0.41
   1  -6   5    6.35    0.30
   1   6   6    2.30    0.18
  -1   6  -6    2.39    0.20
   1  -6   6    2.59    0.18
  -1  -6  -6    2.31    0.28
   1   6   7   11.84    0.51
  -1   6  -7   11.32    0.53
   1  -6   7   11.61    0.50
  -1  -6  -7   10.13    0.63
  -1   7   7    0.50    0.12
   1   7  -7    0.43    0.13
   1  -7  -7    0.67    0.16
  -1  -7   7    0.37    0.11
  -1   7   6    8.01    0.37
   1   7  -6    7.40    0.38
   1  -7  -6    7.75    0.45
  -1  -7   6    7.59    0.37
   1   7  -5   40.04    1.46
  -1   7   5   40.98    1.44
  -1   7   5   40.18    1.40
   1  -7  -5   38.43    1.54
  -1  -7   5   41.56    1.46
   1   7  -4   72.23    2.49
  -1   7   4   72.10    2.44
  -1   7   4   71.53    2.47
   1  -7  -4   69.50    2.57
   1   7  -3    8.46    0.35
   1   7  -3    8.62    0.31
  -1   7   3    8.51    0.34
  -1   7   3    9.02    0.33
   1   7  -3    7.89    0.33
   1  -7  -3    7.93    0.41
   1  -7  -3    9.05    0.33
  -1  -7   3    8.45    0.35
  -1   7   2   26.53    0.91
   1   7  -2   26.62    0.92
  -1   7   2   27.17    0.93
   1   7  -2   24.57    0.94
   1   7  -2   25.57    0.93
   1  -7  -2   26.58    0.92
   1  -7  -2   26.97    1.00
   1   7  -1  289.16   10.52
   1   7  -1  323.20   10.63
  -1   7   1  312.23   10.54
   1  -7  -1  319.62   10.73
   1  -7  -1  306.75   10.62
  -1  -7   1  311.06   10.58
   1  -7   0   15.50    0.56
  -1   7  -1    7.45    0.30
   1   7   1    7.04    0.26
  -1   7  -1    7.34    0.27
   1  -7   1    7.29    0.29
  -1  -7  -1    7.17    0.26
  -1  -7  -1    6.90    0.36
   1   7   2   13.16    0.47
  -1   7  -2   12.38    0.47
  -1   7  -2   11.85    0.45
  -1  -7  -2   11.92    0.56
   1  -7   2   11.49    0.46
  -1   7  -3   91.70    3.10
  -1   7  -3   89.79    3.10
   1   7   3   92.44    3.09
  -1  -7  -3   87.92    3.23
   1  -7   3   88.91    3.10
   1   7   4    2.22    0.15
  -1   7  -4    2.82    0.18
  -1   7  -4    2.40    0.16
  -1  -7  -4    2.36    0.26
   1  -7   4    2.36    0.16
  -1   7  -5    1.08    0.13
   1   7   5    0.92    0.11
  -1   7  -5    1.13    0.14
  -1  -7  -5    1.19    0.22
   1  -7   5    1.11    0.13
   1   7   6    3.09    0.21
  -1   7  -6    2.95    0.22
   1  -7   6    2.85    0.20
  -1  -7  -6    2.95    0.32
  -1   7  -7    1.14    0.17
   1   7   7    1.30    0.16
  -1  -7  -7    1.41    0.25
   1  -7   7    1.40    0.16
  -1   8   7   35.16    1.33
   1   8  -7   34.50    1.37
  -1  -8   7   35.94    1.35
   1  -8  -7   38.38    1.46
   1   8  -6    0.19    0.09
  -1   8   6    0.05    0.07
   1  -8  -6    0.17    0.11
  -1  -8   6    0.09    0.08
   1   8  -5    4.23    0.25
  -1   8   5    4.35    0.23
  -1   8   5    4.29    0.19
   1  -8  -5    4.14    0.31
  -1  -8   5    4.41    0.25
  -1   8   4   10.60    0.40
   1   8  -4   10.69    0.45
  -1   8   4   10.60    0.42
   1  -8  -4   10.26    0.52
  -1  -8   4   10.40    0.44
  -1   8   3   14.46    0.54
   1   8  -3   14.50    0.56
   1   8  -3   14.88    0.52
   1   8  -3   13.69    0.54
  -1  -8   3   14.85    0.56
   1  -8  -3   13.82    0.53
   1  -8  -3   15.47    0.64
   1   8  -2   84.88    2.85
  -1   8   2   79.41    2.84
   1   8  -2   83.80    2.86
  -1   8   2   88.49    2.86
   1   8  -2   74.87    2.88
  -1  -8   2   83.87    2.86
   1  -8  -2   88.03    2.93
   1  -8  -2   83.76    2.84
   1   8  -1    2.20    0.12
   1  -8  -1    2.12    0.15
  -1  -8   1    2.07    0.13
  -1  -8   1    2.10    0.12
   1  -8  -1    2.15    0.11
  -1   8   0    0.73    0.07
  -1   8  -1    0.96    0.10
  -1   8  -1    0.72    0.06
   1   8   1    0.81    0.05
   1  -8   1    0.66    0.07
  -1  -8  -1    0.76    0.05
  -1  -8  -1    0.72    0.12
   1   8   2   29.06    1.12
  -1   8  -2   32.09    1.12
  -1   8  -2   32.44    1.11
   1  -8   2   32.31    1.12
  -1  -8  -2   31.79    1.24
  -1   8  -3  112.67    3.85
  -1   8  -3  113.79    3.86
   1   8   3  113.92    3.85
   1  -8   3  114.06    3.86
  -1  -8  -3  107.58    3.99
   1   8   4   17.71    0.67
  -1   8  -4   17.41    0.67
  -1   8  -4   17.91    0.68
   1  -8   4   18.28    0.68
  -1  -8  -4   16.32    0.80
  -1   8  -5   26.34    0.99
   1   8   5   26.54    0.97
   1  -8   5   25.77    0.98
  -1  -8  -5   26.40    1.15
  -1   8  -6    1.94    0.19
   1   8   6    1.94    0.18
   1  -8   6    2.35    0.19
  -1  -8  -6    1.87    0.27
  -1   8  -7   19.34    0.82
   1   8   7   20.32    0.80
   1  -8   7   20.37    0.81
  -1  -8  -7   19.11    0.96
  -1   9   7   13.05    0.58
   1   9  -7   13.03    0.61
   1  -9  -7   14.35    0.69
  -1  -9   7   13.54    0.60
  -1   9   6   18.54    0.73
   1   9  -6   17.90    0.76
   1  -9  -6   19.53    0.85
  -1  -9   6   18.58    0.75
  -1   9   5    7.48    0.34
   1   9  -5    7.46    0.36
   1  -9  -5    8.00    0.44
  -1  -9   5    7.34    0.36
  -1   9   4  123.81    4.19
   1   9  -4  121.80    4.24
  -1   9   4  122.86    4.22
   1  -9  -4  122.39    4.33
  -1  -9   4  125.15    4.24
  -1   9   3    5.88    0.26
   1   9  -3    5.93    0.24
   1   9  -3    5.59    0.27
   1   9  -3    5.60    0.27
   1  -9  -3    6.15    0.25
  -1  -9   3    6.16    0.28
   1  -9  -3    6.96    0.36
   1   9  -2   92.90    3.11
  -1   9   2   87.18    3.12
   1   9  -2   84.55    3.16
   1   9  -2   90.70    3.12
   1  -9  -2   92.53    3.10
  -1  -9   2   92.51    3.12
   1  -9  -2   96.20    3.19
   1   9  -1    0.87    0.08
  -1  -9   1    0.74    0.08
   1  -9  -1    0.86    0.07
   1  -9  -1    0.82    0.10
  -1  -9   1    0.73    0.08
  -1   9   0   57.87    2.00
  -1   9  -1    5.06    0.21
   1   9   1    4.65    0.19
  -1   9  -1    5.14    0.23
  -1  -9  -1    4.94    0.19
   1  -9   1    5.16    0.22
   1   9   2   77.14    2.71
  -1   9  -2   81.08    2.77
  -1   9  -2   79.09    2.75
   1  -9   2   80.12    2.77
  -1  -9  -2   83.82    2.72
  -1   9  -3    0.82    0.09
   1   9   3    0.69    0.09
  -1   9  -3    0.76    0.10
   1  -9   3    0.65    0.09
  -1  -9  -3    0.69    0.16
  -1   9  -4   32.85    1.19
   1   9   4   34.93    1.19
  -1   9  -4   31.94    1.19
   1  -9   4   32.44    1.19
  -1  -9  -4   31.58    1.34
  -1   9  -5   16.21    0.66
   1   9   5   16.72    0.65
   1  -9   5   16.89    0.66
  -1  -9  -5   16.00    0.81
  -1   9  -6    0.90    0.14
   1   9   6    1.04    0.14
  -1  -9  -6    1.00    0.22
   1  -9   6    1.08    0.14
   1   9   7    1.03    0.15
  -1   9  -7    0.84    0.16
  -1  -9  -7    0.80    0.20
   1  -9   7    0.94    0.14
   1  10  -7    2.47    0.25
  -1  10   7    2.52    0.23
   1 -10  -7    3.15    0.30
  -1 -10   7    2.67    0.23
   1  10  -6   13.23    0.60
  -1  10   6   13.49    0.57
   1 -10  -6   15.17    0.70
  -1 -10   6   13.52    0.59
   1  10  -5    7.45    0.37
  -1  10   5    7.20    0.34
  -1 -10   5    7.47    0.36
   1 -10  -5    7.96    0.45
   1  10  -4   44.18    1.61
  -1  10   4   44.45    1.55
  -1  10   4   44.59    1.59
   1 -10  -4   46.65    1.71
  -1 -10   4   45.10    1.61
   1  10  -3    9.68    0.37
   1  10  -3    9.36    0.40
  -1  10   3    9.66    0.39
  -1 -10   3    9.65    0.41
   1 -10  -3    9.33    0.37
   1 -10  -3   10.56    0.48
   1  10  -2  126.04    4.38
   1  10  -2  128.53    4.37
   1 -10  -2  129.00    4.45
  -1 -10   2  129.91    4.39
   1 -10  -2  127.88    4.36
   1  10  -1   22.74    0.84
   1 -10  -1   24.32    0.89
   1 -10  -1   21.66    0.83
  -1 -10   1   25.13    0.87
  -1 -10   1   22.57    0.83
  -1 -10   0   37.46    1.66
   1 -10   0   49.30    1.66
  -1 -10   0   49.60    1.60
   1 -10   0   49.06    1.61
  -1  10  -1    4.05    0.20
   1  10   1    3.62    0.16
  -1  10  -1    3.67    0.17
  -1 -10  -1    3.51    0.15
   1 -10   1    4.03    0.19
   1  10   2   12.73    0.46
  -1  10  -2   13.53    0.52
  -1  10  -2   13.79    0.50
  -1 -10  -2   10.57    0.60
   1 -10   2   13.45    0.51
  -1 -10  -2   14.26    0.46
  -1  10  -3    0.01    0.05
   1  10   3    0.04    0.06
  -1  10  -3   -0.01    0.06
  -1 -10  -3    0.01    0.09
   1 -10   3    0.24    0.07
  -1  10  -4   33.94    1.24
   1  10   4   35.21    1.24
  -1  10  -4   33.89    1.24
   1 -10   4   35.18    1.25
  -1 -10  -4   32.16    1.39
  -1  10  -5    2.19    0.18
   1  10   5    2.37    0.18
   1 -10   5    2.24    0.18
  -1 -10  -5    2.20    0.29
   1  10   6   17.90    0.71
  -1  10  -6   17.66    0.73
  -1 -10  -6   16.79    0.88
   1 -10   6   18.49    0.73
   1  11  -6    5.64    0.34
  -1  11   6    5.53    0.31
   1 -11  -6    6.26    0.41
  -1 -11   6    5.95    0.33
   1  11  -5   27.80    1.09
  -1  11   5   28.62    1.07
  -1 -11   5   28.57    1.09
   1 -11  -5   31.04    1.20
  -1  11   4   44.23    1.55
   1  11  -4   41.97    1.57
   1 -11  -4   44.96    1.67
  -1 -11   4   43.60    1.57
   1  11  -3   31.30    1.09
   1  11  -3   29.52    1.11
  -1  11   3   29.50    1.11
   1 -11  -3   31.76    1.20
   1 -11  -3   30.34    1.08
  -1 -11   3   31.25    1.12
   1  11  -2    2.43    0.15
   1  11  -2    2.27    0.14
   1 -11  -2    2.05    0.12
  -1 -11   2    2.11    0.15
   1 -11  -2    2.46    0.19
   1  11  -1   37.02    1.30
   1 -11  -1   34.53    1.28
  -1 -11   1   37.72    1.32
   1 -11  -1   38.25    1.36
  -1 -11   1   36.22    1.29
  -1  11   0   14.35    0.61
   1 -11   0   16.50    0.61
  -1 -11   0   18.04    0.69
   1 -11   0   17.87    0.66
  -1 -11   0   16.60    0.60
  -1  11  -1   12.67    0.48
  -1  11  -1   12.98    0.51
  -1 -11  -1   12.76    0.46
   1 -11   1   12.55    0.49
   1  11   2    0.88    0.06
  -1  11  -2    0.98    0.09
  -1  11  -2    0.85    0.10
   1 -11   2    0.65    0.09
  -1 -11  -2    0.99    0.06
  -1 -11  -2    1.01    0.17
  -1  11  -3   82.53    2.72
  -1  11  -3   80.49    2.71
  -1 -11  -3   66.55    2.84
   1 -11   3   82.09    2.72
   1  11   4    0.05    0.07
  -1  11  -4    0.10    0.06
  -1  11  -4   -0.01    0.07
  -1 -11  -4    0.10    0.14
   1 -11   4    0.12    0.07
  -1  11  -5   10.49    0.47
   1  11   5   10.98    0.47
  -1 -11  -5   10.24    0.62
   1 -11   5   10.69    0.48
   1  11   6    1.22    0.16
  -1  11  -6    1.47    0.18
   1 -11   6    1.35    0.17
  -1 -11  -6    0.94    0.22
  -1  12   6    4.83    0.29
   1  12  -6    4.96    0.32
   1 -12  -6    5.46    0.38
  -1 -12   6    4.95    0.31
  -1  12   5    1.94    0.17
   1  12  -5    1.98    0.19
  -1 -12   5    2.02    0.19
   1 -12  -5    2.28    0.25
  -1  12   4    2.83    0.19
   1  12  -4    2.78    0.20
   1 -12  -4    2.85    0.26
  -1 -12   4    2.74    0.20
   1  12  -3    0.76    0.09
   1  12  -3    0.61    0.10
   1 -12  -3    0.70    0.08
  -1 -12   3    0.66    0.10
   1 -12  -3    0.68    0.13
   1  12  -2    2.22    0.15
   1  12  -2    2.37    0.15
  -1 -12   2    2.26    0.15
   1 -12  -2    2.09    0.13
   1 -12  -2    2.54    0.20
   1  12  -1    5.63    0.26
  -1 -12   1    6.04    0.29
  -1 -12   1    5.99    0.26
   1 -12  -1    5.88    0.31
   1 -12  -1    5.34    0.25
  -1  12   0    2.91    0.16
   1 -12   0    2.75    0.15
  -1 -12   0    2.70    0.14
   1 -12   0    2.72    0.19
  -1 -12   0    2.91    0.20
  -1  12  -1    3.43    0.20
  -1  12  -1    3.16    0.16
   1 -12   1    3.17    0.17
  -1 -12  -1    3.02    0.14
  -1 -12  -1    2.54    0.23
  -1  12  -2    5.09    0.24
  -1  12  -2    5.09    0.27
   1 -12   2    5.37    0.26
  -1 -12  -2    5.18    0.35
  -1 -12  -2    5.52    0.21
  -1  12  -3   43.53    1.56
  -1  12  -3   44.79    1.58
   1 -12   3   43.51    1.57
   1  12   4   49.31    1.86
  -1  12  -4   56.44    1.85
  -1 -12  -4   43.18    1.98
   1 -12   4   57.56    1.86
  -1  12  -5    6.79    0.35
   1  12   5    7.23    0.36
  -1 -12  -5    6.54    0.48
   1 -12   5    6.96    0.36
   1  12   6    7.81    0.39
  -1  12  -6    7.55    0.40
  -1 -12  -6    7.29    0.53
   1 -12   6    7.73    0.40
  -1  13   6   11.84    0.52
   1  13  -6   10.87    0.54
   1 -13  -6   12.55    0.63
  -1 -13   6   10.78    0.53
   1  13  -5   16.80    0.71
  -1  13   5   16.84    0.69
  -1 -13   5   16.69    0.70
   1 -13  -5   17.66    0.80
  -1  13   4   39.63    1.67
   1  13  -4   47.20    1.69
  -1 -13   4   47.98    1.69
   1 -13  -4   53.07    1.81
   1  13  -3   22.93    0.91
   1 -13  -3   26.61    1.01
  -1 -13   3   23.52    0.91
   1  13  -2   43.84    1.64
   1  13  -2   47.24    1.64
   1 -13  -2   43.86    1.62
  -1 -13   2   46.68    1.64
   1 -13  -2   50.84    1.73
   1  13  -1    0.45    0.08
   1 -13  -1    0.44    0.06
   1 -13  -1    0.43    0.10
  -1 -13   1    0.39    0.08
  -1 -13   1    0.30    0.06
  -1  13   0   39.30    1.38
  -1 -13   0   41.51    1.45
   1 -13   0   38.49    1.38
  -1 -13   0   37.10    1.36
  -1  13  -1    5.44    0.29
  -1  13  -1    5.38    0.25
  -1 -13  -1    6.13    0.35
   1 -13   1    5.80    0.27
  -1 -13  -1    5.49    0.23
  -1  13  -2    0.54    0.10
  -1  13  -2    0.75    0.09
  -1 -13  -2    0.68    0.15
   1 -13   2    0.63    0.09
  -1  13  -3    4.95    0.27
  -1  13  -3    4.96    0.25
  -1 -13  -3    4.15    0.35
   1 -13   3    4.87    0.26
  -1  13  -4    5.14    0.28
   1 -13   4    5.23    0.29
  -1 -13  -4    5.29    0.41
   1  13   5    3.63    0.28
  -1  13  -5    4.24    0.27
   1 -13   5    4.58    0.27
  -1 -13  -5    3.98    0.38
   1  13   6    7.24    0.40
  -1  13  -6    7.27    0.40
  -1 -13  -6    7.52    0.53
   1 -13   6    7.50    0.40
  -1  14   5    9.02    0.48
   1  14  -5   10.70    0.50
   1 -14  -5   12.13    0.60
  -1 -14   5   10.91    0.49
  -1  14   4   -0.14    0.06
   1  14  -4    0.05    0.08
   1 -14  -4    0.01    0.10
  -1 -14   4   -0.15    0.07
   1  14  -3   24.56    0.97
  -1 -14   3   26.39    0.98
   1 -14  -3   26.83    1.06
   1  14  -2   25.96    0.98
   1  14  -2   27.01    0.99
   1 -14  -2   29.44    1.08
   1 -14  -2   24.76    0.96
  -1 -14   2   26.58    0.99
   1  14  -1   29.01    1.05
   1 -14  -1   26.32    1.03
  -1 -14   1   30.60    1.09
   1 -14  -1   30.90    1.13
  -1 -14   1   27.72    1.04
  -1  14   0    1.77    0.14
   1  14   0    1.41    0.16
  -1  14   0    1.41    0.15
   1 -14   0    1.52    0.12
  -1 -14   0    1.45    0.11
  -1 -14   0    1.53    0.17
  -1  14  -1   33.95    1.21
  -1  14  -1   34.26    1.25
  -1 -14  -1   34.27    1.32
  -1 -14  -1   32.59    1.19
   1 -14   1   34.52    1.22
  -1  14  -2   15.33    0.62
  -1  14  -2   15.50    0.59
  -1 -14  -2   13.46    0.69
   1 -14   2   15.79    0.60
  -1  14  -3   22.82    0.88
  -1  14  -3   23.87    0.90
  -1 -14  -3   22.97    1.03
   1 -14   3   23.47    0.89
  -1  14  -4    9.08    0.41
  -1 -14  -4    7.58    0.52
   1 -14   4    9.62    0.43
  -1  14  -5   13.60    0.60
   1 -14   5   14.60    0.62
  -1 -14  -5   13.98    0.76
   1  15  -5    5.04    0.32
  -1 -15   5    5.69    0.33
   1 -15  -5    6.14    0.41
   1  15  -4    1.62    0.18
  -1 -15   4    1.32    0.16
   1 -15  -4    1.44    0.20
   1  15  -3    6.12    0.32
  -1 -15   3    6.09    0.31
   1 -15  -3    6.65    0.39
   1  15  -2    0.71    0.11
   1  15  -2    0.87    0.12
   1 -15  -2    0.70    0.14
  -1 -15   2    0.65    0.10
   1  15  -1   49.32    1.75
   1 -15  -1   53.09    1.83
  -1 -15   1   50.70    1.79
   1 -15  -1   45.58    1.73
  -1 -15   1   48.26    1.73
  -1  15   0   11.25    0.51
  -1  15   0   11.33    0.46
   1  15   0   11.78    0.49
  -1 -15   0   12.34    0.53
   1 -15   0   10.68    0.45
  -1 -15   0   10.94    0.44
  -1  15  -1   90.57    3.22
  -1  15  -1   91.84    3.27
  -1 -15  -1  103.21    3.35
   1 -15   1   89.17    3.23
  -1  15  -2    9.99    0.43
  -1  15  -2   10.22    0.47
  -1 -15  -2   11.66    0.57
   1 -15   2   10.42    0.45
  -1  15  -3   58.45    2.17
  -1 -15  -3   65.28    2.35
   1 -15   3   61.96    2.19
   1  15   4    0.02    0.05
  -1  15  -4    0.12    0.08
   1 -15   4    0.09    0.09
  -1 -15  -4   -0.05    0.12
  -1  15  -5    0.41    0.12
   1 -15   5    0.33    0.11
  -1 -15  -5    0.42    0.16
   1  16  -4    8.97    0.45
  -1 -16   4    9.33    0.45
   1 -16  -4   10.62    0.55
   1  16  -3    0.22    0.09
  -1 -16   3    0.12    0.08
   1 -16  -3    0.33    0.13
  -1  16   2    0.03    0.04
   1  16  -2    0.11    0.08
   1  16  -2    0.17    0.07
  -1 -16   2    0.14    0.07
   1 -16  -2    0.18    0.10
   1  16  -1    1.81    0.15
   1 -16  -1    1.73    0.13
  -1 -16   1    1.76    0.14
   1 -16  -1    2.09    0.21
   1  16   0    1.58    0.15
  -1  16   0    1.31    0.16
  -1  16   0    1.21    0.12
  -1 -16   0    1.47    0.17
  -1 -16   0    1.31    0.11
   1 -16   0    1.42    0.12
  -1  16  -1    1.26    0.12
  -1  16  -1    1.09    0.15
   1 -16   1    1.29    0.13
  -1 -16  -1    1.38    0.19
  -1  16  -2    9.56    0.45
  -1  16  -2    9.49    0.41
   1 -16   2    9.45    0.42
  -1 -16  -2    9.69    0.52
  -1  16  -3    0.95    0.13
   1 -16   3    0.72    0.12
  -1 -16  -3    1.07    0.20
  -1  16  -4   15.24    0.65
   1 -16   4   15.55    0.66
  -1 -16  -4   16.23    0.80
   1  17  -4    9.98    0.49
   1 -17  -4   11.32    0.59
  -1 -17   4   10.31    0.49
   1  17  -3   12.37    0.56
  -1 -17   3   12.83    0.56
   1 -17  -3   14.10    0.66
   1  17  -2    7.45    0.36
  -1 -17   2    7.33    0.35
   1 -17  -2    8.08    0.44
  -1  17   1    6.92    0.38
   1  17  -1    8.92    0.38
   1  17  -1    8.49    0.40
  -1 -17   1    8.32    0.36
   1 -17  -1    8.74    0.45
  -1  17   0   18.58    0.79
  -1  17   0   19.35    0.73
   1  17   0   19.56    0.76
   1 -17   0   17.94    0.73
  -1 -17   0   20.29    0.81
  -1  17  -1    1.42    0.13
  -1  17  -1    1.25    0.17
   1 -17   1    1.41    0.14
  -1 -17  -1    1.27    0.18
  -1  17  -2    0.87    0.15
  -1  17  -2    0.94    0.12
   1 -17   2    0.75    0.12
  -1 -17  -2    0.97    0.17
  -1  17  -3    1.11    0.14
   1 -17   3    0.76    0.12
  -1 -17  -3    0.73    0.17
   1  17   4   -0.04    0.05
  -1  17  -4    0.11    0.12
   1 -17   4    0.13    0.09
  -1 -17  -4    0.07    0.13
   1  18  -3    0.96    0.15
  -1 -18   3    0.89    0.13
   1 -18  -3    0.98    0.19
   1  18  -2    1.26    0.15
   1 -18  -2    1.09    0.18
  -1 -18   2    0.93    0.13
  -1  18   1   15.23    0.68
   1  18  -1   15.46    0.62
  -1  18   1   14.60    0.62
   1  18  -1   15.72    0.65
  -1 -18   1   14.88    0.60
  -1  18   0    0.82    0.15
   1  18   0    0.91    0.13
  -1  18   0    0.98    0.12
  -1 -18   0    1.13    0.17
   1 -18   0    0.88    0.12
  -1  18  -1   15.31    0.68
  -1  18  -1   15.44    0.62
   1 -18   1   15.09    0.63
  -1 -18  -1   16.87    0.73
  -1  18  -2    3.17    0.21
   1 -18   2    3.17    0.22
  -1 -18  -2    3.78    0.31
   1 -18   3    7.17    0.38
  -1 -18  -3    8.31    0.50
   1  19  -2    2.46    0.20
  -1 -19   2    2.56    0.19
   1 -19  -2    2.63    0.27
   1  19  -1    0.25    0.11
  -1  19   1    0.33    0.10
   1  19  -1    0.35    0.10
  -1  19   1    0.28    0.12
  -1  19   0   29.10    1.18
  -1  19   0   28.14    1.15
   1  19   0   30.50    1.11
  -1  19  -1    1.24    0.18
   1  19   1    1.24    0.17
   1 -19   1    0.81    0.12
  -1 -19  -1    1.33    0.19
  -1 -19  -2   10.41    0.55
   1 -19   2    9.13    0.44
  -1  20   0    0.02    0.11
   1  20   0    0.12    0.08
  -2   0   8    2.34    0.20
   2   0  -8    2.59    0.26
   2   0  -7   -0.03    0.09
  -2   0   7   -0.05    0.07
   2   0  -6   17.88    0.72
  -2   0   6   17.57    0.68
   2   0  -5    0.05    0.04
   2   0  -5   -0.03    0.05
  -2   0   5    0.00    0.05
   2   0  -4   29.39    0.94
  -2   0   4   26.19    0.95
  -2   0   4   24.70    0.97
   2   0  -4   25.07    0.96
   2   0  -3    0.01    0.02
   2   0  -3    0.05    0.04
  -2   0   3   -0.01    0.03
  -2   0   3    0.05    0.04
  -2   0   2  136.58    4.61
  -2   0   2  128.10    4.62
  -2   0   2  138.17    4.62
  -2   0   2  137.35    4.68
  -2   0   2  137.77    4.64
   2   0  -2  138.51    4.62
  -2   0   1   -0.02    0.02
  -2   0   1    0.01    0.02
   2   0  -1   -0.02    0.02
   2   0  -1    0.00    0.02
   2   0  -1    0.02    0.02
  -2   0   0  557.77   19.30
  -2   0   0  558.83   19.22
   2   0   0  534.65   19.22
   2   0   0  615.65   19.32
   2   0   1   -0.06    0.02
  -2   0  -2  486.90   17.46
   2   0   2  478.77   17.44
  -2   0  -2  564.49   17.64
   2   0   2  526.77   17.50
  -2   0  -3    0.05    0.06
   2   0   3    0.03    0.03
  -2   0  -4   31.59    1.20
   2   0   4   31.14    1.10
  -2   0  -5    0.06    0.08
   2   0   5    0.00    0.04
   2   0   6    9.13    0.37
   2   0   6    9.08    0.40
  -2   0  -6    8.68    0.49
   2   0   7    0.13    0.08
  -2   0  -7    0.28    0.16
   2   0   7    0.13    0.09
  -2   1   8   23.36    0.91
   2   1  -8   23.15    0.97
   2  -1  -8   24.03    0.97
  -2  -1   8   23.56    0.92
   2   1  -7   10.59    0.49
  -2   1   7   10.00    0.45
   2  -1  -7   10.38    0.49
  -2  -1   7   10.25    0.46
  -2   1   6   42.91    1.54
   2   1  -6   42.58    1.58
  -2  -1   6   42.58    1.55
   2  -1  -6   41.49    1.57
   2  -1  -6   46.97    1.56
   2   1  -5    8.64    0.32
   2   1  -5    7.90    0.36
  -2   1   5    7.75    0.34
   2  -1  -5    7.59    0.36
  -2  -1   5    8.34    0.38
  -2  -1   5    7.72    0.35
   2  -1  -5    8.43    0.35
   2   1  -4   15.34    0.52
   2   1  -4   12.66    0.54
  -2   1   4   14.05    0.54
   2  -1  -4   15.04    0.55
  -2  -1   4   14.01    0.54
   2  -1  -4   13.94    0.55
  -2  -1   4   14.61    0.54
  -2   1   3    0.03    0.04
  -2   1   3    0.02    0.03
   2   1  -3    0.01    0.04
   2   1  -3    0.04    0.02
  -2  -1   3   -0.03    0.03
   2  -1  -3    0.13    0.04
   2  -1  -3    0.01    0.04
  -2  -1   3    0.01    0.03
   2   1  -2   47.99    1.62
  -2   1   2   44.25    1.63
  -2   1   2   46.46    1.62
  -2  -1   2   44.81    1.61
  -2  -1   2   48.44    1.60
  -2  -1   2   47.15    1.63
   2  -1  -2   48.94    1.62
   2  -1  -2   47.06    1.62
   2  -1  -2   48.47    1.62
   2   1  -1    1.41    0.07
  -2   1   1    1.39    0.06
   2   1  -1    1.30    0.08
   2   1  -1    1.31    0.07
  -2   1   1    1.47    0.08
  -2  -1   1    1.34    0.07
   2  -1  -1    1.43    0.08
  -2  -1   1    1.44    0.07
   2  -1  -1    1.30    0.08
   2  -1  -1    1.31    0.07
  -2   1   0    5.70    0.21
   2   1   0    5.56    0.21
  -2   1   0    5.61    0.19
   2   1   0    5.68    0.22
  -2   1   0    5.43    0.22
  -2  -1   0    5.13    0.20
   2  -1   0    5.27    0.22
   2  -1   0    5.40    0.21
  -2  -1   0    5.18    0.22
  -2   1  -1   66.07    2.32
   2   1   1   64.86    2.29
  -2   1  -1   67.59    2.30
   2   1   1   67.71    2.29
   2  -1   1   69.42    2.32
   2  -1   1   69.64    2.29
   2  -1   1   65.33    2.29
  -2  -1  -1   68.26    2.29
  -2  -1  -1   67.12    2.34
   2  -1   1   65.89    2.29
  -2  -1  -1   68.33    2.30
  -2   1  -2   11.95    0.45
  -2   1  -2   11.86    0.49
   2   1   2   12.33    0.44
   2   1   2   12.29    0.45
  -2   1  -2   12.72    0.45
   2  -1   2   12.96    0.46
   2  -1   2   12.48    0.45
  -2  -1  -2   12.19    0.51
  -2  -1  -2   12.67    0.44
  -2   1  -3  141.50    4.77
   2   1   3  136.08    4.71
   2   1   3  130.37    4.73
  -2   1  -3  138.65    4.72
   2  -1   3  135.62    4.70
  -2  -1  -3  147.11    4.70
  -2  -1  -3  140.31    4.79
   2   1   4    9.79    0.39
  -2   1  -4    9.86    0.40
  -2   1  -4   10.15    0.46
   2   1   4    9.46    0.37
  -2  -1  -4    9.59    0.47
   2  -1   4    9.40    0.38
   2   1   5    1.21    0.10
  -2   1  -5    0.97    0.12
   2   1   5    1.27    0.12
  -2   1  -5    1.50    0.19
   2  -1   5    1.31    0.11
  -2  -1  -5    1.38    0.20
   2   1   6   11.83    0.49
   2   1   6   11.51    0.45
  -2   1  -6   11.30    0.58
  -2  -1  -6   11.40    0.60
   2  -1   6   11.90    0.47
   2   1   7   40.72    1.47
   2  -1   7   40.15    1.43
  -2  -1  -7   38.74    1.61
   2  -1   7   39.35    1.46
   2   2  -8    1.93    0.23
  -2  -2   8    2.09    0.20
  -2   2   7   16.30    0.65
   2   2  -7   16.72    0.70
   2  -2  -7   16.60    0.70
  -2  -2   7   16.59    0.67
  -2   2   6    1.31    0.12
   2   2  -6    1.26    0.15
  -2  -2   6    1.31    0.15
   2  -2  -6    1.17    0.15
   2  -2  -6    1.40    0.14
   2   2  -5    6.67    0.32
   2   2  -5    7.23    0.27
  -2   2   5    6.88    0.30
  -2  -2   5    6.87    0.31
   2  -2  -5    7.29    0.33
   2  -2  -5    6.40    0.32
  -2   2   4    2.14    0.12
   2   2  -4    2.21    0.10
   2   2  -4    2.16    0.15
  -2  -2   4    1.97    0.13
  -2  -2   4    1.99    0.11
   2  -2  -4    2.11    0.14
   2  -2  -4    2.42    0.14
   2   2  -3  150.67    5.19
  -2   2   3  152.21    5.18
   2  -2  -3  159.06    5.19
  -2  -2   3  149.81    5.18
  -2  -2   3  150.06    5.18
  -2  -2   3  155.03    5.16
   2  -2  -3  150.27    5.18
  -2   2   2   14.83    0.53
   2   2  -2   14.69    0.54
  -2   2   2   14.00    0.56
  -2   2   2   14.49    0.54
   2  -2  -2   15.10    0.54
  -2  -2   2   14.72    0.51
  -2  -2   2   14.96    0.54
   2  -2  -2   14.26    0.54
   2  -2  -2   15.10    0.54
  -2   2   1  219.55    7.15
  -2   2   1  203.55    7.15
  -2   2   1  212.63    7.21
   2   2  -1  217.15    7.19
   2   2  -1  201.13    7.19
  -2   2   1  207.50    7.24
  -2  -2   1  213.63    7.17
   2  -2  -1  207.60    7.16
   2  -2  -1  207.58    7.17
  -2  -2   1  202.79    7.19
  -2  -2   1  214.99    7.17
  -2  -2   1  215.79    7.22
  -2   2   0  364.45   12.74
   2   2   0  393.95   12.81
   2   2   0  379.41   12.66
  -2   2   0  368.58   12.68
  -2  -2   0  372.70   12.81
  -2  -2   0  370.74   12.64
   2  -2   0  358.78   12.68
  -2   2  -1 1000.00   32.77
  -2  -2  -1  971.87   32.61
  -2  -2  -1  969.41   32.93
   2  -2   1  995.16   32.75
   2  -2   1  882.53   32.60
  -2   2  -2   11.74    0.44
   2   2   2   12.26    0.44
   2   2   2   11.77    0.42
  -2   2  -2   12.08    0.47
  -2  -2  -2   12.04    0.51
  -2  -2  -2   12.05    0.42
   2  -2   2   11.82    0.44
   2  -2   2   12.19    0.44
  -2   2  -3    2.94    0.15
   2   2   3    2.96    0.13
   2   2   3    2.90    0.15
  -2   2  -3    2.97    0.19
  -2  -2  -3    3.17    0.13
  -2  -2  -3    2.96    0.22
   2  -2   3    3.14    0.15
  -2   2  -4   23.34    0.90
   2   2   4   22.81    0.84
   2   2   4   22.71    0.81
  -2   2  -4   23.65    0.85
  -2  -2  -4   22.69    0.94
   2  -2   4   22.94    0.83
   2   2   5   18.64    0.68
  -2   2  -5   19.28    0.73
  -2   2  -5   19.05    0.79
   2   2   5   18.79    0.72
  -2  -2  -5   18.07    0.82
   2  -2   5   18.93    0.70
  -2   2  -6    3.40    0.23
   2   2   6    3.37    0.22
   2   2   6    3.48    0.17
  -2   2  -6    3.07    0.27
  -2  -2  -6    3.22    0.31
   2  -2   6    3.25    0.19
   2   2   7   11.02    0.50
   2  -2   7   11.43    0.48
  -2  -2  -7   10.91    0.63
  -2   3   8   23.47    0.94
   2   3  -8   23.65    0.97
  -2  -3   8   23.59    0.93
  -2   3   7    1.18    0.13
   2   3  -7    1.45    0.19
  -2  -3   7    1.18    0.14
  -2   3   6   49.09    1.77
   2   3  -6   48.26    1.81
   2  -3  -6   55.02    1.83
  -2  -3   6   48.99    1.79
   2  -3  -6   50.09    1.81
   2   3  -5    0.32    0.09
  -2   3   5    0.32    0.06
   2  -3  -5    0.35    0.08
   2  -3  -5    0.24    0.08
  -2  -3   5    0.35    0.08
   2   3  -4    1.73    0.13
  -2   3   4    1.89    0.11
   2  -3  -4    1.92    0.14
   2  -3  -4    1.86    0.13
  -2  -3   4    2.04    0.13
   2   3  -3   24.35    0.89
  -2  -3   3   24.11    0.88
   2  -3  -3   25.93    0.90
   2  -3  -3   24.04    0.88
  -2   3   2  293.66    9.75
   2   3  -2  284.62    9.83
  -2   3   2  285.99    9.72
  -2   3   2  274.57    9.86
   2  -3  -2  288.01    9.83
   2  -3  -2  281.87    9.80
  -2  -3   2  292.22    9.83
   2  -3  -2  289.80    9.80
  -2   3   1   61.21    2.15
  -2   3   1   62.84    2.17
  -2   3   1   61.28    2.16
   2   3  -1   67.45    2.16
   2   3  -1   66.24    2.16
  -2   3   1   64.05    2.18
   2   3  -1   61.08    2.16
  -2  -3   1   64.70    2.17
   2  -3  -1   62.00    2.16
  -2  -3   1   62.45    2.16
   2   3   0   75.79    2.49
  -2   3   0   71.32    2.47
   2  -3   0   70.03    2.45
  -2  -3   0   73.03    2.45
  -2  -3   0   69.56    2.45
  -2  -3   0   72.71    2.49
  -2   3  -1   57.69    1.95
   2   3   1   56.82    1.94
  -2   3  -1   57.69    1.98
   2   3   1   55.64    2.02
  -2   3  -1   54.87    1.96
   2   3   1   59.66    1.97
   2  -3   1   56.05    1.97
   2  -3   1   54.87    1.96
   2  -3   1   59.31    1.95
  -2  -3  -1   60.00    1.96
  -2  -3  -1   58.75    2.03
  -2  -3  -1   57.56    1.95
   2   3   2   11.76    0.41
  -2   3  -2   11.90    0.44
   2   3   2   11.76    0.44
  -2   3  -2   11.41    0.47
   2  -3   2   10.94    0.44
  -2  -3  -2   12.47    0.52
  -2  -3  -2   11.92    0.41
   2  -3   2   12.57    0.44
  -2   3  -3   20.51    0.75
   2   3   3   20.54    0.72
   2   3   3   20.71    0.75
  -2   3  -3   20.75    0.79
  -2  -3  -3   20.41    0.84
   2  -3   3   20.10    0.74
  -2  -3  -3   21.86    0.72
  -2   3  -4   60.90    2.15
   2   3   4   59.40    2.09
  -2   3  -4   60.75    2.11
   2   3   4   58.39    2.06
  -2  -3  -4   58.54    2.21
  -2  -3  -4   64.55    2.09
   2  -3   4   59.57    2.09
   2   3   5    3.13    0.15
  -2   3  -5    3.02    0.24
  -2   3  -5    2.88    0.19
   2   3   5    3.12    0.19
  -2  -3  -5    3.04    0.28
   2  -3   5    3.20    0.18
  -2   3  -6   39.81    1.40
   2   3   6   37.79    1.37
  -2   3  -6   36.53    1.45
  -2  -3  -6   36.41    1.52
   2  -3   6   38.20    1.36
   2   3   7   23.39    0.91
  -2   3  -7   23.64    0.94
  -2  -3  -7   22.83    1.06
   2  -3   7   23.20    0.89
   2   4  -8    1.06    0.18
  -2   4   8    1.04    0.17
  -2  -4   8    0.87    0.14
   2   4  -7    2.00    0.22
  -2   4   7    2.28    0.16
  -2   4   7    2.50    0.20
  -2  -4   7    2.08    0.19
   2   4  -6   56.80    2.10
  -2   4   6   57.23    2.06
  -2  -4   6   58.31    2.09
   2  -4  -6   63.30    2.13
   2   4  -5   12.46    0.52
  -2   4   5   12.44    0.49
  -2  -4   5   12.77    0.52
   2  -4  -5   13.88    0.55
   2  -4  -5   11.82    0.52
  -2   4   4   23.74    0.85
   2   4  -4   22.99    0.88
  -2  -4   4   24.23    0.88
   2  -4  -4   24.83    0.90
   2  -4  -4   23.34    0.87
   2   4  -3   21.92    0.81
   2  -4  -3   22.96    0.83
   2  -4  -3   22.19    0.80
  -2  -4   3   22.34    0.81
   2  -4  -3   21.60    0.80
   2   4  -2   97.49    3.32
  -2   4   2   96.34    3.32
   2  -4  -2   97.52    3.34
  -2  -4   2   97.41    3.33
   2  -4  -2   98.61    3.32
   2   4  -1  130.44    4.60
  -2   4   1  135.97    4.57
  -2   4   1  132.49    4.60
   2   4  -1  145.10    4.58
  -2   4   1  129.23    4.60
   2   4  -1  139.12    4.57
  -2   4   1  131.90    4.58
   2  -4  -1  134.16    4.60
  -2  -4   1  134.27    4.57
   2   4   0    1.35    0.11
  -2   4   0    1.14    0.08
  -2   4   0    1.23    0.05
   2  -4   0    1.19    0.07
  -2  -4   0    1.68    0.13
   2  -4   0    1.22    0.05
  -2  -4   0    1.27    0.06
  -2   4  -1  124.96    4.19
  -2   4  -1  121.27    4.19
   2  -4   1  125.22    4.19
   2  -4   1  126.79    4.17
   2  -4   1  118.26    4.19
  -2  -4  -1  120.54    4.24
  -2   4  -2    0.01    0.03
  -2   4  -2    0.15    0.06
   2   4   2    0.14    0.05
   2  -4   2    0.03    0.03
   2  -4   2    0.01    0.03
  -2  -4  -2   -0.01    0.06
   2   4   3   62.39    2.15
  -2   4  -3   63.33    2.19
  -2   4  -3   63.35    2.22
   2   4   3   61.67    2.18
  -2  -4  -3   68.35    2.15
   2  -4   3   61.07    2.18
  -2  -4  -3   63.11    2.30
   2   4   4   11.53    0.42
   2   4   4   11.73    0.47
  -2   4  -4   11.89    0.47
  -2   4  -4   11.83    0.51
   2  -4   4   11.97    0.46
  -2  -4  -4   12.12    0.59
  -2   4  -5    0.58    0.10
  -2   4  -5    0.79    0.14
   2   4   5    0.54    0.09
   2   4   5    0.61    0.06
   2  -4   5    0.61    0.09
  -2  -4  -5    0.79    0.17
  -2   4  -6   39.62    1.41
   2   4   6   37.91    1.38
  -2   4  -6   36.42    1.45
   2  -4   6   39.12    1.38
  -2  -4  -6   37.23    1.55
  -2   4  -7    0.06    0.10
   2   4   7    0.14    0.09
   2  -4   7    0.10    0.08
  -2  -4  -7    0.12    0.15
  -2   5   7   26.78    1.05
   2   5  -7   26.34    1.07
   2  -5  -7   30.07    1.10
  -2  -5   7   26.95    1.05
   2   5  -6    4.41    0.28
  -2   5   6    4.61    0.23
  -2   5   6    4.79    0.26
   2  -5  -6    4.86    0.29
  -2  -5   6    4.54    0.26
  -2   5   5   18.39    0.68
  -2   5   5   17.76    0.70
   2   5  -5   17.70    0.72
  -2  -5   5   18.49    0.71
   2  -5  -5   19.63    0.75
  -2   5   4    7.85    0.32
  -2   5   4    7.80    0.33
   2   5  -4    7.29    0.34
  -2  -5   4    7.96    0.34
   2  -5  -4    8.45    0.37
  -2   5   3   43.06    1.50
   2   5  -3   41.67    1.51
   2  -5  -3   44.80    1.54
   2  -5  -3   42.82    1.50
   2   5  -2   14.74    0.49
   2   5  -2   13.61    0.51
  -2   5   2   13.98    0.50
   2  -5  -2   14.19    0.54
   2  -5  -2   14.39    0.51
  -2  -5   2   12.54    0.48
  -2  -5   2   13.37    0.51
   2   5  -1  151.92    4.93
  -2   5   1  145.32    4.89
   2   5  -1  133.29    4.92
  -2   5   1  157.74    4.92
   2   5  -1  144.13    4.92
  -2   5   1  147.76    4.93
   2  -5  -1  142.00    4.91
  -2  -5   1  137.85    4.93
  -2  -5   1  142.10    4.90
   2   5   0    0.87    0.06
  -2   5   0    0.83    0.05
   2   5   0    0.81    0.10
  -2   5   0    0.84    0.08
  -2  -5   0    0.90    0.06
   2  -5   0    0.82    0.07
  -2  -5   0    0.91    0.11
   2  -5   0    0.94    0.05
  -2   5  -1   57.77    1.98
  -2   5  -1   57.05    2.02
   2  -5   1   57.37    2.00
  -2  -5  -1   58.59    2.09
   2  -5   1   60.67    1.98
  -2   5  -2    2.65    0.13
   2   5   2    2.49    0.13
  -2  -5  -2    2.27    0.20
   2  -5   2    2.57    0.14
   2  -5   2    2.64    0.13
  -2   5  -3   69.86    2.42
  -2   5  -3   70.01    2.39
   2   5   3   69.62    2.38
   2  -5   3   69.79    2.39
  -2  -5  -3   66.68    2.51
  -2   5  -4   21.92    0.85
   2   5   4   22.05    0.76
   2   5   4   21.67    0.81
  -2   5  -4   22.21    0.82
   2   5   4   21.72    0.76
  -2  -5  -4   22.30    0.95
   2  -5   4   21.94    0.81
   2   5   5   15.46    0.59
   2   5   5   14.86    0.56
  -2   5  -5   15.37    0.60
  -2   5  -5   14.98    0.64
   2  -5   5   14.61    0.59
  -2  -5  -5   14.25    0.73
   2   5   6    0.31    0.09
  -2   5  -6    0.14    0.09
   2  -5   6    0.21    0.08
  -2  -5  -6    0.31    0.14
  -2   5  -7   61.40    2.18
   2   5   7   61.05    2.15
   2  -5   7   60.07    2.15
  -2  -5  -7   58.49    2.34
   2   6  -7    0.55    0.14
  -2   6   7    0.57    0.13
   2  -6  -7    0.82    0.15
  -2  -6   7    0.70    0.12
  -2   6   6   53.76    1.93
  -2   6   6   52.60    1.90
   2   6  -6   53.25    1.96
   2  -6  -6   58.51    2.00
  -2  -6   6   54.13    1.94
  -2   6   5   -0.02    0.06
  -2   6   5    0.04    0.04
   2   6  -5    0.03    0.07
   2  -6  -5    0.11    0.08
  -2  -6   5   -0.04    0.06
  -2   6   4  226.88    7.92
   2   6  -4  230.96    7.94
  -2   6   4  230.95    7.91
   2  -6  -4  246.31    7.99
  -2  -6   4  232.29    7.94
   2   6  -3  126.18    4.41
  -2   6   3  127.05    4.39
   2  -6  -3  136.14    4.45
  -2  -6   3  128.36    4.41
   2  -6  -3  128.18    4.40
   2   6  -2    0.91    0.07
  -2   6   2    0.96    0.07
   2   6  -2    0.75    0.08
  -2  -6   2    0.78    0.05
   2  -6  -2    0.74    0.09
  -2  -6   2    0.96    0.09
   2   6  -1   56.81    1.97
  -2   6   1   57.79    1.96
   2  -6  -1   54.88    1.99
   2  -6  -1   57.26    1.97
   2  -6  -1   58.82    1.95
  -2  -6   1   58.31    1.97
  -2   6   0   25.20    0.89
  -2   6   0   23.14    0.85
   2   6   0   25.18    0.86
   2  -6   0   24.10    0.87
  -2  -6   0   24.94    0.86
  -2  -6   0   24.79    0.94
   2  -6   0   25.62    0.85
  -2   6  -1  212.01    6.75
  -2   6  -1  199.76    6.70
  -2  -6  -1  207.94    6.65
  -2  -6  -1  196.63    6.65
  -2  -6  -1  195.74    6.74
   2  -6   1  167.40    6.68
   2  -6   1  193.99    6.72
  -2   6  -2    0.02    0.03
   2   6   2    0.05    0.04
   2  -6   2    0.05    0.04
  -2  -6  -2    0.05    0.06
  -2   6  -3   70.65    2.47
  -2   6  -3   71.23    2.44
   2   6   3   71.40    2.44
  -2  -6  -3   70.55    2.58
   2  -6   3   69.55    2.44
   2   6   4    1.90    0.14
  -2   6  -4    2.08    0.17
  -2   6  -4    2.00    0.15
   2  -6   4    1.99    0.14
  -2  -6  -4    1.83    0.23
  -2   6  -5    1.96    0.16
   2   6   5    1.86    0.15
  -2   6  -5    1.83    0.18
  -2  -6  -5    1.93    0.26
   2  -6   5    1.86    0.15
  -2   6  -6    1.76    0.18
   2   6   6    1.91    0.18
  -2  -6  -6    1.63    0.26
   2  -6   6    2.01    0.17
   2   6   7    4.36    0.28
  -2   6  -7    4.25    0.30
  -2  -6  -7    4.36    0.40
   2  -6   7    4.10    0.26
  -2   7   7   10.66    0.49
   2   7  -7   10.24    0.52
   2  -7  -7   11.35    0.54
  -2  -7   7   10.70    0.50
  -2   7   6    2.41    0.19
   2   7  -6    2.19    0.20
  -2   7   6    2.40    0.15
   2  -7  -6    2.70    0.23
  -2  -7   6    2.47    0.20
  -2   7   5   13.26    0.51
   2   7  -5   13.33    0.56
  -2   7   5   13.57    0.54
   2  -7  -5   14.47    0.61
  -2  -7   5   13.17    0.55
   2   7  -4   10.47    0.45
  -2   7   4   10.65    0.43
   2  -7  -4   11.45    0.50
  -2  -7   4   10.54    0.45
  -2   7   3  170.31    5.83
   2   7  -3  169.98    5.85
   2  -7  -3  176.37    5.90
   2  -7  -3  171.69    5.84
  -2  -7   3  171.07    5.85
   2   7  -2   60.57    2.13
  -2   7   2   62.23    2.11
   2  -7  -2   63.16    2.13
   2  -7  -2   61.77    2.17
  -2  -7   2   61.79    2.13
  -2  -7   2   60.92    2.11
   2   7  -1    5.00    0.21
   2  -7  -1    4.98    0.21
  -2  -7   1    4.83    0.21
   2  -7  -1    5.13    0.20
  -2  -7   1    4.38    0.24
  -2   7   0   70.92    2.42
  -2   7   0   65.04    2.38
   2   7   0   70.28    2.39
   2  -7   0   72.66    2.38
  -2  -7   0   70.89    2.48
  -2  -7   0   71.55    2.39
   2  -7   0   69.19    2.40
  -2   7  -1   55.88    1.95
  -2   7  -1   56.92    1.91
  -2  -7  -1   56.52    1.90
  -2  -7  -1   53.78    2.03
   2  -7   1   56.93    1.94
  -2   7  -2    0.86    0.07
   2   7   2    0.87    0.09
  -2   7  -2    1.02    0.11
   2  -7   2    0.94    0.08
  -2  -7  -2    0.83    0.14
   2   7   3   17.97    0.65
  -2   7  -3   17.66    0.67
  -2   7  -3   17.39    0.64
   2  -7   3   16.67    0.65
  -2  -7  -3   16.46    0.77
  -2   7  -4   24.58    0.93
  -2   7  -4   24.91    0.90
   2   7   4   24.66    0.90
   2  -7   4   23.99    0.90
  -2  -7  -4   23.68    1.05
  -2   7  -5   29.75    1.11
   2   7   5   29.87    1.10
  -2   7  -5   29.94    1.14
  -2  -7  -5   29.76    1.28
   2  -7   5   30.20    1.10
  -2   7  -6   27.69    1.05
   2   7   6   27.86    1.04
   2  -7   6   27.55    1.04
  -2  -7  -6   26.90    1.22
  -2   7  -7    0.99    0.16
   2   7   7    1.10    0.15
  -2  -7  -7    0.82    0.21
   2  -7   7    0.86    0.14
   2   8  -7   26.93    1.11
  -2   8   7   27.89    1.07
  -2  -8   7   27.74    1.09
   2  -8  -7   30.31    1.15
  -2   8   6    0.06    0.07
   2   8  -6    0.03    0.08
  -2  -8   6    0.05    0.07
   2  -8  -6    0.09    0.08
  -2   8   5    2.45    0.14
  -2   8   5    2.28    0.16
   2   8  -5    2.49    0.19
   2  -8  -5    2.44    0.21
  -2  -8   5    2.39    0.18
  -2   8   4   37.76    1.33
   2   8  -4   37.35    1.36
   2  -8  -4   38.23    1.40
  -2  -8   4   36.29    1.35
   2  -8  -4   38.14    1.33
   2   8  -3    0.05    0.05
  -2   8   3    0.15    0.05
   2  -8  -3    0.10    0.07
  -2  -8   3    0.05    0.05
   2  -8  -3    0.12    0.05
  -2   8   2   22.85    0.79
   2   8  -2   21.26    0.80
   2  -8  -2   21.39    0.79
  -2  -8   2   23.12    0.79
   2  -8  -2   22.77    0.85
  -2  -8   2   21.62    0.80
   2   8  -1  225.77    7.91
   2  -8  -1  231.71    7.85
   2  -8  -1  228.01    7.83
  -2  -8   1  223.09    7.81
   2  -8  -1  237.68    7.88
  -2   8   0    0.43    0.08
   2   8   0    0.51    0.05
  -2  -8   0    0.49    0.10
   2  -8   0    0.46    0.05
   2  -8   0    0.53    0.06
  -2  -8   0    0.48    0.05
  -2   8  -1    6.55    0.25
   2   8   1    6.67    0.24
  -2   8  -1    6.65    0.29
  -2  -8  -1    6.45    0.24
   2  -8   1    6.59    0.27
  -2  -8  -1    5.89    0.35
  -2   8  -2   10.80    0.40
  -2   8  -2   10.79    0.44
  -2  -8  -2   10.26    0.53
   2  -8   2   10.50    0.42
   2   8   3    0.65    0.09
  -2   8  -3    0.73    0.10
  -2   8  -3    0.72    0.08
  -2  -8  -3    0.58    0.15
   2  -8   3    0.74    0.09
  -2   8  -4    1.93    0.18
  -2   8  -4    2.38    0.16
   2   8   4    2.15    0.15
  -2  -8  -4    1.95    0.26
   2  -8   4    2.21    0.16
  -2   8  -5    6.07    0.31
   2   8   5    6.35    0.30
  -2   8  -5    6.17    0.34
  -2  -8  -5    5.98    0.45
   2  -8   5    6.25    0.31
  -2   8  -6    0.34    0.11
   2   8   6    0.42    0.10
   2  -8   6    0.39    0.10
  -2  -8  -6    0.49    0.17
  -2   8  -7    0.05    0.09
   2   8   7   -0.06    0.09
   2  -8   7   -0.05    0.08
  -2  -8  -7    0.20    0.16
  -2   9   7    3.21    0.23
   2   9  -7    3.11    0.27
   2  -9  -7    3.28    0.28
  -2  -9   7    3.36    0.26
   2   9  -6   -0.01    0.08
  -2   9   6    0.13    0.08
   2  -9  -6    0.49    0.13
  -2  -9   6    0.05    0.08
  -2   9   5    4.89    0.23
  -2   9   5    5.08    0.25
   2   9  -5    4.80    0.28
  -2  -9   5    5.19    0.28
   2  -9  -5    5.36    0.32
  -2   9   4    0.84    0.10
   2   9  -4    0.85    0.11
   2  -9  -4    0.67    0.12
   2  -9  -4    0.98    0.10
  -2  -9   4    0.66    0.11
  -2   9   3    0.02    0.04
   2   9  -3    0.02    0.03
   2   9  -3    0.05    0.05
   2   9  -3    0.05    0.05
   2  -9  -3   -0.02    0.06
  -2  -9   3    0.06    0.06
   2  -9  -3    0.05    0.05
   2   9  -2    0.44    0.07
  -2   9   2    0.41    0.06
  -2  -9   2    0.36    0.07
   2  -9  -2    0.32    0.08
  -2  -9   2    0.49    0.06
   2  -9  -2    0.47    0.06
   2   9  -1    7.62    0.31
  -2  -9   1    7.75    0.30
   2  -9  -1    7.49    0.34
   2  -9  -1    7.30    0.30
  -2   9   0    6.00    0.24
  -2   9   0    6.02    0.28
  -2  -9   0    6.38    0.24
  -2  -9   0    6.00    0.33
   2  -9   0    6.15    0.26
   2   9   1    8.85    0.32
  -2   9  -1    8.86    0.37
  -2   9  -1    8.83    0.33
   2  -9   1    8.66    0.35
  -2  -9  -1    8.84    0.32
  -2  -9  -1    8.44    0.44
  -2   9  -2    2.10    0.16
  -2   9  -2    1.89    0.11
   2  -9   2    1.89    0.13
  -2  -9  -2    1.75    0.20
  -2   9  -3   30.36    1.07
   2   9   3   29.45    1.09
  -2   9  -3   30.39    1.10
   2  -9   3   28.78    1.08
  -2  -9  -3   29.59    1.23
   2   9   4    0.70    0.10
  -2   9  -4    0.68    0.10
  -2   9  -4    0.68    0.11
   2  -9   4    0.75    0.11
  -2  -9  -4    0.70    0.17
  -2   9  -5   28.35    1.06
   2   9   5   29.06    1.06
   2  -9   5   29.01    1.07
  -2  -9  -5   26.92    1.24
   2   9   6    8.56    0.40
  -2   9  -6    8.19    0.41
  -2  -9  -6    8.46    0.57
   2  -9   6    8.48    0.41
   2  10  -7    2.76    0.26
  -2  10   7    2.74    0.23
  -2 -10   7    3.04    0.25
   2 -10  -7    3.29    0.28
   2  10  -6    3.63    0.26
  -2  10   6    3.52    0.23
  -2 -10   6    3.70    0.25
   2 -10  -6    3.83    0.29
   2  10  -5   12.51    0.55
  -2  10   5   12.54    0.52
  -2 -10   5   13.41    0.55
   2 -10  -5   13.16    0.61
   2  10  -4   59.62    2.17
  -2  10   4   62.63    2.14
   2 -10  -4   65.06    2.23
   2 -10  -4   59.21    2.13
  -2 -10   4   60.66    2.16
  -2  10   3    2.44    0.14
   2  10  -3    2.21    0.16
   2  10  -3    2.28    0.12
   2 -10  -3    2.21    0.14
  -2 -10   3    2.25    0.16
   2 -10  -3    2.35    0.19
   2  10  -2   13.17    0.53
   2 -10  -2   14.37    0.58
   2 -10  -2   13.53    0.52
  -2 -10   2   14.40    0.52
  -2 -10   2   13.59    0.53
   2  10  -1   10.05    0.39
  -2 -10   1   10.25    0.38
  -2 -10   1    8.05    0.41
   2 -10  -1    9.47    0.38
   2 -10  -1   10.35    0.43
  -2  10   0   81.55    2.81
  -2  10   0   81.42    2.76
   2 -10   0   79.14    2.78
  -2 -10   0   81.04    2.76
  -2  10  -1    2.45    0.12
   2  10   1    2.12    0.10
  -2  10  -1    2.23    0.16
  -2 -10  -1    2.21    0.10
   2 -10   1    2.29    0.14
  -2  10  -2   69.00    2.39
  -2  10  -2   69.35    2.42
   2 -10   2   70.46    2.41
  -2 -10  -2   68.55    2.56
  -2  10  -3    0.01    0.07
  -2  10  -3    0.05    0.05
   2  10   3    0.01    0.07
  -2 -10  -3    0.06    0.10
   2 -10   3    0.01    0.05
   2  10   4    2.80    0.20
  -2  10  -4    2.49    0.20
  -2  10  -4    2.87    0.18
   2 -10   4    2.91    0.19
  -2 -10  -4    2.67    0.30
  -2  10  -5    0.83    0.12
   2  10   5    0.72    0.12
   2 -10   5    0.74    0.11
  -2 -10  -5    0.95    0.21
  -2  10  -6   10.98    0.49
   2  10   6   10.77    0.48
   2 -10   6   10.73    0.49
  -2 -10  -6    9.77    0.65
  -2  11   6    0.47    0.10
   2  11  -6    0.44    0.12
   2 -11  -6    0.48    0.14
  -2 -11   6    0.52    0.12
  -2  11   5    4.28    0.24
   2  11  -5    4.51    0.28
   2 -11  -5    4.66    0.32
  -2 -11   5    4.48    0.27
   2  11  -4    8.75    0.41
  -2  11   4    8.98    0.38
  -2 -11   4    9.02    0.41
   2 -11  -4    8.39    0.36
   2 -11  -4    9.76    0.47
   2  11  -3   17.25    0.69
   2  11  -3   17.82    0.64
  -2  11   3   17.75    0.67
   2 -11  -3   17.19    0.66
  -2 -11   3   18.00    0.69
   2 -11  -3   18.86    0.75
   2  11  -2    0.64    0.09
   2 -11  -2    0.68    0.11
  -2 -11   2    0.70    0.09
   2 -11  -2    0.72    0.08
  -2 -11   2    0.72    0.09
   2  11  -1    6.92    0.31
   2 -11  -1    7.29    0.35
  -2 -11   1    7.65    0.34
   2 -11  -1    6.56    0.30
  -2 -11   1    7.20    0.30
  -2  11   0   10.42    0.38
  -2  11   0   10.00    0.43
  -2 -11   0   10.36    0.38
   2 -11   0    9.72    0.40
  -2 -11   0    9.22    0.47
  -2  11  -1  123.55    4.16
  -2  11  -1  123.67    4.21
   2  11   1  117.17    4.14
   2 -11   1  123.13    4.18
  -2 -11  -1  123.80    4.14
  -2  11  -2    8.34    0.34
  -2  11  -2    8.36    0.38
  -2 -11  -2    8.20    0.48
   2 -11   2    8.63    0.36
  -2  11  -3   13.04    0.55
  -2  11  -3   13.70    0.52
  -2 -11  -3   12.61    0.68
   2 -11   3   13.75    0.54
  -2  11  -4   10.24    0.43
  -2  11  -4   10.43    0.47
   2  11   4    9.78    0.45
   2 -11   4   10.36    0.45
  -2 -11  -4    9.71    0.60
  -2  11  -5   11.52    0.51
   2  11   5   12.81    0.53
   2 -11   5   11.67    0.52
  -2 -11  -5   11.64    0.69
   2  11   6    2.19    0.21
  -2  11  -6    2.26    0.21
   2 -11   6    2.47    0.21
  -2 -11  -6    2.43    0.34
  -2  12   6    0.75    0.13
   2  12  -6    0.89    0.16
  -2 -12   6    1.15    0.16
   2 -12  -6    1.25    0.20
   2  12  -5    0.12    0.09
  -2  12   5    0.03    0.07
  -2 -12   5    0.06    0.09
   2 -12  -5    0.15    0.11
  -2  12   4    0.15    0.07
   2  12  -4    0.19    0.08
  -2 -12   4    0.20    0.08
   2 -12  -4    0.20    0.10
   2  12  -3    0.66    0.10
   2 -12  -3    1.24    0.16
  -2 -12   3    0.62    0.10
   2 -12  -3    0.62    0.08
   2  12  -2    0.54    0.08
   2 -12  -2    0.52    0.11
  -2 -12   2    0.45    0.08
   2 -12  -2    0.51    0.07
  -2 -12   2    0.56    0.08
   2  12  -1   56.94    1.93
  -2 -12   1   54.36    1.91
   2 -12  -1   51.99    1.91
  -2 -12   1   56.99    1.97
  -2  12   0   94.87    3.10
  -2  12   0   89.20    3.15
  -2 -12   0   89.19    3.09
   2 -12   0   88.35    3.11
  -2  12  -1    2.59    0.19
  -2  12  -1    2.59    0.14
  -2 -12  -1    3.22    0.13
   2 -12   1    2.42    0.16
  -2  12  -2    0.51    0.10
  -2  12  -2    0.32    0.06
  -2 -12  -2    0.40    0.15
   2 -12   2    0.48    0.09
  -2  12  -3   11.78    0.50
  -2  12  -3   11.60    0.46
  -2 -12  -3   10.16    0.61
   2 -12   3   11.64    0.48
  -2  12  -4    7.76    0.35
  -2  12  -4    7.90    0.38
  -2 -12  -4    5.77    0.47
   2 -12   4    7.82    0.37
   2  12   5    3.86    0.27
  -2  12  -5    4.17    0.26
  -2 -12  -5    4.39    0.41
   2 -12   5    4.03    0.26
  -2  12  -6    4.70    0.29
   2  12   6    4.16    0.30
  -2 -12  -6    4.03    0.41
   2 -12   6    4.91    0.30
   2  13  -6    0.24    0.11
  -2  13   6    0.06    0.09
   2 -13  -6    0.35    0.14
  -2 -13   6    0.25    0.12
  -2  13   5    0.40    0.10
   2  13  -5    0.33    0.11
   2 -13  -5    0.41    0.13
  -2 -13   5    0.33    0.11
   2  13  -4    0.74    0.12
  -2  13   4    0.74    0.12
   2 -13  -4    1.09    0.17
  -2 -13   4    0.86    0.13
   2  13  -3    0.52    0.10
   2 -13  -3    0.63    0.13
  -2 -13   3    0.55    0.10
   2 -13  -3    0.64    0.09
   2  13  -2   75.11    2.63
  -2 -13   2   75.54    2.63
   2 -13  -2   78.46    2.70
  -2 -13   2   76.65    2.63
   2 -13  -2   72.35    2.61
  -2  13   1   -0.03    0.04
   2  13  -1    0.02    0.05
   2 -13  -1    0.04    0.05
  -2 -13   1    0.01    0.06
  -2 -13   1   -0.01    0.05
  -2  13   0   46.71    1.54
  -2  13   0   44.04    1.60
   2 -13   0   43.55    1.55
  -2 -13   0   40.55    1.63
  -2 -13   0   44.87    1.53
  -2  13  -1   -0.02    0.04
   2  13   1   -0.04    0.04
  -2  13  -1    0.00    0.07
  -2 -13  -1    0.02    0.03
   2 -13   1    0.05    0.06
  -2 -13  -1   -0.07    0.07
  -2  13  -2    9.67    0.44
  -2  13  -2    9.67    0.39
   2 -13   2    9.69    0.42
   2  13   3    0.01    0.04
  -2  13  -3    0.18    0.07
  -2  13  -3    0.15    0.09
   2 -13   3    0.21    0.08
  -2 -13  -3    0.32    0.16
  -2  13  -4   11.59    0.50
   2 -13   4   12.33    0.52
  -2  13  -5    5.62    0.31
  -2 -13  -5    4.85    0.44
   2 -13   5    5.68    0.32
   2  14  -5    1.42    0.18
  -2  14   5    0.89    0.15
  -2 -14   5    1.49    0.18
   2 -14  -5    1.65    0.22
   2  14  -4   17.90    0.77
   2 -14  -4   20.67    0.85
  -2 -14   4   19.47    0.77
   2  14  -3   18.03    0.74
  -2 -14   3   18.51    0.73
   2 -14  -3   19.87    0.81
   2  14  -2    0.41    0.08
   2  14  -2    0.32    0.08
   2 -14  -2    0.52    0.12
  -2 -14   2    0.45    0.08
   2 -14  -2    0.49    0.08
  -2  14   1    9.05    0.43
   2  14  -1    9.00    0.39
   2 -14  -1    8.22    0.37
  -2 -14   1   10.01    0.43
  -2 -14   1    9.19    0.38
   2  14   0    0.22    0.09
  -2  14   0   -0.05    0.07
  -2  14   0    0.06    0.05
  -2 -14   0    0.06    0.04
  -2 -14   0    0.04    0.08
   2 -14   0    0.12    0.06
  -2  14  -1   12.81    0.54
  -2  14  -1   12.95    0.48
   2 -14   1   12.99    0.51
  -2 -14  -1   10.66    0.59
  -2  14  -2   11.43    0.50
  -2  14  -2   11.40    0.46
  -2 -14  -2   10.43    0.60
   2 -14   2   11.82    0.48
  -2  14  -3   20.48    0.79
  -2  14  -3   21.62    0.83
   2 -14   3   20.98    0.81
  -2 -14  -3   19.74    0.96
  -2  14  -4    0.19    0.08
   2  14   4   -0.01    0.05
   2 -14   4    0.11    0.08
  -2 -14  -4    0.11    0.13
  -2  14  -5    1.51    0.17
  -2 -14  -5    1.46    0.27
   2 -14   5    1.63    0.19
   2  15  -5    2.85    0.24
   2 -15  -5    3.54    0.30
  -2 -15   5    3.06    0.24
   2  15  -4    0.22    0.10
  -2 -15   4    0.23    0.10
   2 -15  -4    0.25    0.12
   2  15  -3    0.23    0.09
   2 -15  -3    0.54    0.14
  -2 -15   3    0.52    0.10
   2  15  -2    0.47    0.09
   2  15  -2    0.46    0.09
   2 -15  -2    0.55    0.08
  -2 -15   2    0.40    0.08
   2 -15  -2    0.48    0.12
  -2  15   1    0.26    0.10
   2  15  -1    0.51    0.09
  -2  15   1    0.40    0.08
  -2 -15   1    0.47    0.10
  -2 -15   1    0.35    0.07
   2 -15  -1    0.52    0.08
  -2  15   0    8.20    0.34
  -2  15   0    8.50    0.41
   2  15   0    7.80    0.39
   2 -15   0    8.04    0.36
  -2 -15   0    8.59    0.43
  -2 -15   0    7.72    0.33
  -2  15  -1   27.01    1.00
  -2  15  -1   25.10    0.93
  -2 -15  -1   24.90    1.06
   2 -15   1   25.64    0.96
  -2  15  -2    1.26    0.12
  -2  15  -2    1.51    0.17
  -2 -15  -2    0.84    0.19
   2 -15   2    1.48    0.15
  -2  15  -3    0.81    0.11
  -2  15  -3    0.79    0.15
   2 -15   3    0.76    0.12
  -2 -15  -3    0.67    0.19
  -2  15  -4    2.68    0.21
  -2 -15  -4    3.00    0.34
   2 -15   4    2.89    0.22
  -2 -15  -5    7.46    0.54
   2 -15   5    7.51    0.40
   2  16  -4   19.14    0.81
  -2 -16   4   19.55    0.80
   2 -16  -4   21.62    0.90
   2  16  -3    0.11    0.08
  -2 -16   3    0.34    0.09
   2 -16  -3    0.25    0.12
   2  16  -2   12.12    0.52
  -2 -16   2   11.90    0.51
   2 -16  -2   12.82    0.59
  -2  16   1    0.17    0.10
  -2  16   1    0.13    0.07
   2  16  -1    0.19    0.08
   2 -16  -1    0.22    0.07
  -2 -16   1    0.23    0.09
  -2 -16   1    0.11    0.06
  -2  16   0    1.98    0.14
  -2  16   0    2.55    0.21
   2  16   0    2.10    0.18
  -2 -16   0    1.99    0.21
   2 -16   0    1.77    0.15
  -2  16  -1    4.04    0.28
  -2  16  -1    3.93    0.21
  -2 -16  -1    4.66    0.33
   2 -16   1    3.80    0.23
  -2  16  -2    2.50    0.17
  -2  16  -2    2.34    0.22
   2 -16   2    2.44    0.19
  -2 -16  -2    2.93    0.29
   2 -16   3    1.73    0.17
  -2 -16  -3    1.29    0.23
   2 -16   4    1.23    0.16
  -2 -16  -4    1.12    0.23
   2  17  -4    1.90    0.20
   2 -17  -4    2.12    0.26
  -2 -17   4    1.75    0.19
   2  17  -3    1.29    0.16
  -2 -17   3    0.83    0.13
   2 -17  -3    1.04    0.18
   2  17  -2    2.63    0.20
  -2 -17   2    2.21    0.18
   2  17  -1   16.36    0.64
  -2  17   1   15.39    0.69
  -2  17   1   15.39    0.62
  -2 -17   1   15.39    0.61
  -2 -17   1   17.33    0.69
   2 -17  -1   15.22    0.62
  -2  17   0    8.21    0.35
  -2  17   0    7.91    0.42
   2  17   0    8.41    0.40
   2 -17   0    7.61    0.37
  -2 -17   0    8.55    0.44
  -2  17  -1    0.12    0.10
   2  17   1    0.03    0.08
   2 -17   1    0.23    0.08
  -2 -17  -1    0.24    0.12
  -2  17  -2    0.54    0.14
  -2 -17  -2    0.67    0.16
   2 -17   2    0.56    0.11
  -2 -17  -3    0.39    0.17
   2 -17   3    0.46    0.11
   2  18  -3    6.27    0.34
   2 -18  -3    5.99    0.41
  -2 -18   3    5.84    0.32
   2  18  -2    3.83    0.25
  -2  18   2    3.43    0.28
  -2 -18   2    3.29    0.22
   2  18  -1    7.94    0.38
  -2  18   1    7.43    0.43
  -2 -18   1    8.34    0.42
  -2  18   0    0.50    0.14
   2  18   0    0.66    0.12
  -2 -18   0    0.68    0.14
   2 -18   0    0.48    0.09
   2  18   1    2.55    0.25
  -2  18  -1    3.03    0.26
   2 -18   1    2.81    0.20
  -2 -18  -1    3.42    0.30
  -2  18  -2    3.01    0.27
   2 -18   2    3.00    0.22
  -2 -18  -2    3.43    0.31
   2  18   3    0.01    0.06
   2 -18   3    0.26    0.10
  -2 -18  -3    0.32    0.15
  -2  19   2    0.90    0.18
   2  19  -2    0.90    0.14
  -2 -19   2    0.75    0.12
  -2  19   1    1.90    0.24
   2  19  -1    2.20    0.19
   2  19   0    4.99    0.29
  -2  19   0    4.20    0.33
   2 -19   0    4.08    0.25
  -2 -19   0    4.72    0.32
  -2  19  -1    4.07    0.31
   2  19   1    3.82    0.29
  -2 -19  -1    4.78    0.35
   2 -19   1    4.18    0.26
   2  19   2    0.40    0.13
   2 -19   2    0.72    0.13
  -2 -19  -2    0.83    0.19
   3   0  -8   20.78    0.88
  -3   0   8   20.75    0.83
  -3   0   7    0.02    0.08
   3   0  -7    0.05    0.09
   3   0  -6    2.59    0.21
  -3   0   6    3.29    0.20
   3   0  -5    0.12    0.08
  -3   0   5    0.03    0.06
   3   0  -4   37.08    1.34
  -3   0   4   37.85    1.33
  -3   0   4   38.14    1.31
   3   0  -3   -0.02    0.04
  -3   0   3    0.11    0.04
  -3   0   3   -0.04    0.02
  -3   0   3   -0.02    0.03
   3   0  -2   72.42    2.49
  -3   0   2   74.59    2.48
   3   0  -2   70.37    2.48
  -3   0   2   72.91    2.48
  -3   0   1   -0.04    0.03
  -3   0   1   -0.08    0.03
   3   0  -1   -0.03    0.03
  -3   0   1   -0.07    0.02
   3   0  -1   -0.06    0.02
   3   0  -1   -0.01    0.03
   3   0   0   49.86    1.78
  -3   0   0   52.52    1.78
   3   0   0   53.92    1.80
  -3   0   0   51.25    1.81
  -3   0  -1   -0.03    0.05
  -3   0  -1   -0.02    0.03
   3   0   1   -0.06    0.02
   3   0   1    0.05    0.03
  -3   0  -1   -0.02    0.03
  -3   0  -2    9.71    0.36
  -3   0  -2    9.61    0.43
   3   0   2    9.92    0.36
   3   0   2    9.78    0.36
  -3   0  -3    0.02    0.06
   3   0   3    0.00    0.04
   3   0   3   -0.06    0.02
  -3   0  -4  212.61    7.29
   3   0   4  212.04    7.18
   3   0   4  209.42    7.16
  -3   0  -5    0.13    0.10
   3   0   5    0.01    0.04
   3   0   5   -0.01    0.06
   3   0   6   29.21    1.06
  -3   0  -6   28.13    1.19
   3   0   6   27.99    1.03
   3   0   7    0.07    0.09
  -3   0  -7    0.20    0.14
  -3   1   8   11.02    0.51
   3   1  -8   11.77    0.57
   3  -1  -8   11.32    0.56
  -3  -1   8   11.35    0.52
  -3   1   7   19.45    0.77
   3   1  -7   19.56    0.81
   3  -1  -7   19.65    0.80
  -3  -1   7   19.56    0.78
   3   1  -6    6.68    0.34
  -3   1   6    6.68    0.32
   3  -1  -6    6.59    0.34
  -3  -1   6    6.99    0.32
   3  -1  -6    5.86    0.34
   3   1  -5   94.75    3.33
  -3   1   5   96.92    3.31
  -3  -1   5   96.88    3.32
   3  -1  -5   93.52    3.32
  -3  -1   5   96.76    3.27
   3  -1  -5   97.04    3.29
   3   1  -4   22.00    0.81
  -3   1   4   22.02    0.80
  -3  -1   4   22.03    0.80
   3  -1  -4   21.60    0.80
  -3  -1   4   22.27    0.76
  -3  -1   4   20.33    0.79
  -3   1   3  145.49    4.96
  -3   1   3  132.52    4.97
  -3   1   3  151.32    4.95
   3   1  -3  150.90    4.95
  -3  -1   3  147.78    4.95
  -3  -1   3  135.65    4.95
   3  -1  -3  152.61    4.95
  -3  -1   3  147.32    4.97
   3   1  -2   78.00    2.68
  -3   1   2   81.27    2.69
  -3   1   2   77.45    2.67
  -3   1   2   76.89    2.68
  -3  -1   2   78.03    2.69
  -3  -1   2   79.28    2.67
   3  -1  -2   77.73    2.68
   3  -1  -2   79.58    2.69
  -3   1   1  248.49    8.73
   3   1  -1  248.71    8.78
   3   1  -1  260.87    8.78
  -3   1   1  257.65    8.84
   3   1  -1  263.33    8.76
   3  -1  -1  256.23    8.70
   3  -1  -1  268.66    8.75
  -3  -1   1  237.44    8.74
   3  -1  -1  268.17    8.75
  -3  -1   1  261.07    8.84
   3   1   0   70.62    2.40
  -3   1   0   71.23    2.42
   3   1   0   73.87    2.42
  -3   1   0   67.89    2.40
  -3   1   0   74.50    2.41
   3  -1   0   70.60    2.41
  -3  -1   0   68.27    2.42
  -3  -1   0   68.44    2.39
   3  -1   0   67.33    2.40
  -3   1  -1  280.57    9.70
  -3   1  -1  277.80    9.62
   3   1   1  279.65    9.59
   3   1   1  296.56    9.67
  -3  -1  -1  294.53    9.62
   3  -1   1  279.43    9.60
   3  -1   1  269.15    9.62
  -3  -1  -1  284.74    9.61
   3  -1   1  293.36    9.58
  -3  -1  -1  267.96    9.62
  -3   1  -2   25.69    0.94
   3   1   2   24.79    0.87
   3   1   2   24.75    0.86
   3  -1   2   24.49    0.87
  -3  -1  -2   25.05    0.95
   3  -1   2   24.53    0.87
  -3  -1  -2   24.99    0.87
  -3   1  -3    0.73    0.12
   3   1   3    0.73    0.06
   3   1   3    0.69    0.08
   3  -1   3    0.77    0.07
   3  -1   3    0.86    0.07
  -3  -1  -3    0.70    0.12
   3   1   4    6.32    0.28
  -3   1  -4    6.16    0.36
   3   1   4    6.55    0.26
   3  -1   4    6.16    0.28
  -3  -1  -4    6.84    0.38
   3  -1   4    6.54    0.27
  -3   1  -5   11.01    0.56
   3   1   5   11.36    0.43
   3   1   5   11.26    0.46
   3  -1   5   11.36    0.46
  -3  -1  -5   10.74    0.57
   3  -1   5   11.56    0.44
   3   1   6    5.00    0.23
   3   1   6    4.88    0.26
  -3   1  -6    4.66    0.35
  -3  -1  -6    4.44    0.36
   3  -1   6    4.88    0.24
   3  -1   6    4.86    0.27
   3   1   7    0.07    0.08
   3  -1   7    0.11    0.09
  -3  -1  -7   -0.03    0.13
   3   2  -8    0.62    0.16
  -3   2   8    0.85    0.14
   3  -2  -8    0.89    0.17
  -3  -2   8    0.78    0.14
   3   2  -7    1.10    0.16
  -3   2   7    1.11    0.13
  -3  -2   7    1.01    0.14
   3  -2  -7    1.03    0.16
  -3   2   6    8.87    0.39
   3   2  -6    8.91    0.42
   3  -2  -6    8.32    0.41
   3  -2  -6    9.09    0.38
  -3  -2   6    8.56    0.40
   3   2  -5   11.59    0.49
  -3   2   5   11.67    0.47
   3  -2  -5   11.42    0.46
   3  -2  -5   11.25    0.48
  -3  -2   5   11.78    0.41
  -3  -2   5   11.61    0.48
   3   2  -4    0.34    0.07
  -3   2   4    0.29    0.06
  -3  -2   4    0.29    0.06
   3  -2  -4    0.28    0.05
   3  -2  -4    0.19    0.06
  -3  -2   4    0.33    0.04
  -3  -2   4    0.28    0.05
  -3   2   3    3.24    0.17
   3   2  -3    3.64    0.18
  -3  -2   3    4.15    0.18
   3  -2  -3    3.61    0.17
  -3  -2   3    3.24    0.15
   3  -2  -3    3.31    0.17
  -3  -2   3    3.38    0.14
  -3   2   2   10.88    0.41
   3   2  -2   10.81    0.42
  -3   2   2   12.60    0.45
   3   2  -2   12.37    0.40
  -3   2   2   10.46    0.42
   3  -2  -2   10.99    0.43
  -3  -2   2   10.97    0.41
   3  -2  -2   10.84    0.41
  -3  -2   2   11.01    0.42
   3   2  -1  719.34   23.63
   3   2  -1  719.66   23.63
   3   2  -1  639.02   23.55
  -3   2   1  678.47   23.66
  -3   2   1  683.88   23.48
   3  -2  -1  691.18   23.63
  -3  -2   1  697.77   23.62
   3  -2  -1  719.98   23.64
   3  -2  -1  704.48   23.51
  -3  -2   1  695.15   23.67
  -3   2   0  188.52    6.17
   3   2   0  180.93    6.23
  -3   2   0  179.38    6.21
  -3   2   0  188.06    6.18
   3   2   0  196.12    6.20
   3  -2   0  170.25    6.21
  -3  -2   0  172.03    6.19
  -3  -2   0  183.04    6.20
   3   2   1  321.31   11.40
  -3   2  -1  345.95   11.51
   3   2   1  310.40   11.47
  -3  -2  -1  339.82   11.52
  -3  -2  -1  331.82   11.41
  -3  -2  -1  336.04   11.40
   3  -2   1  333.10   11.47
   3  -2   1  340.38   11.39
   3  -2   1  363.34   11.40
  -3   2  -2    5.16    0.26
   3   2   2    4.82    0.21
   3   2   2    5.11    0.19
   3  -2   2    4.88    0.21
  -3  -2  -2    5.01    0.19
  -3  -2  -2    5.00    0.27
   3  -2   2    4.59    0.20
   3  -2   2    5.54    0.22
  -3   2  -3   28.48    1.08
   3   2   3   27.94    0.99
   3   2   3   28.10    1.01
  -3  -2  -3   30.29    0.99
   3  -2   3   27.88    1.01
  -3  -2  -3   28.42    1.11
   3   2   4   16.51    0.59
  -3   2  -4   16.35    0.70
   3   2   4   16.70    0.62
   3  -2   4   16.18    0.61
  -3  -2  -4   16.05    0.73
   3   2   5    3.26    0.20
   3   2   5    3.40    0.16
  -3  -2  -5    3.50    0.30
   3  -2   5    3.52    0.19
  -3   2  -6   24.43    1.07
   3   2   6   26.62    0.97
  -3  -2  -6   25.02    1.12
   3  -2   6   26.23    0.95
   3  -2   6   26.03    0.97
   3   2   7    9.37    0.43
  -3  -2  -7    8.58    0.56
   3  -2   7    9.16    0.40
   3  -2   7    8.91    0.43
   3   3  -8   15.50    0.69
  -3  -3   8   14.41    0.64
  -3   3   7   -0.02    0.06
   3   3  -7    0.00    0.09
  -3  -3   7   -0.03    0.08
   3  -3  -7    0.06    0.09
   3   3  -6   76.80    2.73
  -3   3   6   77.77    2.70
  -3  -3   6   77.31    2.71
   3  -3  -6   76.02    2.73
   3  -3  -6   79.46    2.71
   3   3  -5    7.55    0.35
  -3   3   5    7.75    0.33
   3  -3  -5    7.84    0.34
  -3  -3   5    7.72    0.35
   3  -3  -5    7.31    0.35
   3   3  -4   72.19    2.55
  -3   3   4   74.21    2.53
  -3  -3   4   74.46    2.55
   3  -3  -4   74.10    2.54
   3  -3  -4   72.00    2.54
   3   3  -3   70.87    2.46
   3  -3  -3   70.38    2.45
  -3  -3   3   71.76    2.46
   3  -3  -3   72.10    2.46
   3   3  -2   11.02    0.37
  -3   3   2   11.00    0.41
   3   3  -2    9.93    0.39
  -3   3   2   10.22    0.38
  -3  -3   2   10.35    0.38
   3  -3  -2   10.38    0.40
   3  -3  -2   10.13    0.39
  -3  -3   2    9.80    0.40
   3   3  -1   60.94    2.08
   3   3  -1   63.23    2.09
  -3   3   1   60.55    2.06
  -3   3   1   60.48    2.10
  -3  -3   1   61.26    2.09
   3  -3  -1   59.30    2.07
  -3  -3   1   61.24    2.10
   3  -3  -1   60.24    2.09
   3   3   0    1.70    0.09
   3   3   0    1.87    0.13
  -3   3   0    1.69    0.11
  -3  -3   0    1.89    0.13
   3  -3   0    1.90    0.10
  -3  -3   0    1.82    0.09
  -3   3  -1   39.68    1.41
   3   3   1   39.58    1.36
   3  -3   1   39.46    1.38
   3  -3   1   42.27    1.36
  -3  -3  -1   38.24    1.44
  -3  -3  -1   40.91    1.36
   3  -3   1   38.53    1.36
   3   3   2    0.69    0.07
  -3   3  -2    0.54    0.06
   3   3   2    0.62    0.04
  -3   3  -2    0.39    0.09
  -3  -3  -2    0.66    0.12
   3  -3   2    0.69    0.07
  -3  -3  -2    0.51    0.04
   3  -3   2    0.62    0.06
   3   3   3    6.90    0.28
  -3   3  -3    7.03    0.34
   3   3   3    6.92    0.26
  -3   3  -3    7.06    0.29
  -3  -3  -3    6.86    0.26
   3  -3   3    6.73    0.28
  -3  -3  -3    7.07    0.39
  -3   3  -4    0.76    0.10
  -3   3  -4    0.74    0.13
   3   3   4    0.65    0.09
  -3  -3  -4    0.62    0.15
   3  -3   4    0.86    0.09
  -3   3  -5   73.94    2.53
   3   3   5   72.32    2.47
   3   3   5   72.50    2.51
  -3   3  -5   71.88    2.61
  -3  -3  -5   70.40    2.67
   3  -3   5   71.91    2.50
   3   3   6    0.15    0.08
  -3   3  -6    0.06    0.10
   3  -3   6    0.12    0.07
  -3  -3  -6    0.30    0.14
   3   3   7    2.90    0.22
   3  -3   7    2.99    0.21
   3  -3   7    2.71    0.19
  -3  -3  -7    2.01    0.29
   3   4  -7    5.77    0.34
  -3   4   7    5.70    0.29
  -3  -4   7    5.73    0.32
   3   4  -6    4.97    0.30
  -3   4   6    5.39    0.26
   3  -4  -6    5.00    0.29
   3  -4  -6    5.50    0.28
  -3  -4   6    5.05    0.28
  -3   4   5    2.00    0.13
   3   4  -5    1.80    0.16
   3  -4  -5    1.72    0.14
  -3  -4   5    1.70    0.15
   3  -4  -5    1.62    0.15
   3   4  -4   23.81    0.91
  -3   4   4   25.20    0.90
   3  -4  -4   25.23    0.92
  -3  -4   4   25.49    0.92
   3  -4  -4   24.64    0.91
   3   4  -3    3.60    0.18
   3  -4  -3    3.47    0.18
   3  -4  -3    3.65    0.18
   3  -4  -3    3.36    0.17
  -3  -4   3    3.34    0.18
  -3   4   2    4.79    0.22
   3   4  -2    4.77    0.21
  -3   4   2    4.61    0.19
   3   4  -2    4.60    0.18
   3  -4  -2    4.75    0.21
  -3  -4   2    4.51    0.21
  -3  -4   2    5.06    0.21
   3  -4  -2    5.54    0.20
   3   4  -1  136.83    4.84
  -3   4   1  137.13    4.82
   3   4  -1  150.71    4.82
  -3   4   1  142.02    4.81
  -3   4   1  137.16    4.81
  -3  -4   1  143.93    4.80
   3  -4  -1  138.73    4.81
  -3  -4   1  145.73    4.83
  -3   4   0   68.95    2.41
   3   4   0   68.23    2.47
  -3  -4   0   72.21    2.38
   3  -4   0   70.15    2.39
  -3  -4   0   71.30    2.45
  -3  -4   0   68.41    2.38
  -3   4  -1   29.30    1.03
  -3   4  -1   29.27    1.08
   3   4   1   30.76    1.03
  -3  -4  -1   30.42    1.03
   3  -4   1   29.17    1.05
  -3  -4  -1   29.59    1.12
   3  -4   1   31.10    1.02
   3   4   2   45.98    1.53
   3   4   2   42.78    1.49
  -3   4  -2   43.21    1.51
  -3   4  -2   43.34    1.56
  -3  -4  -2   43.20    1.62
  -3  -4  -2   43.41    1.49
   3  -4   2   45.56    1.51
   3  -4   2   43.72    1.53
   3   4   3   57.23    1.95
   3   4   3   56.97    1.98
  -3   4  -3   57.23    1.98
  -3   4  -3   56.52    2.04
   3  -4   3   57.02    1.99
  -3  -4  -3   59.49    1.95
  -3  -4  -3   56.64    2.11
  -3   4  -4  121.66    4.12
   3   4   4  119.47    4.06
   3   4   4  120.37    4.11
  -3   4  -4  119.84    4.18
  -3  -4  -4  119.68    4.26
   3  -4   4  118.76    4.10
  -3   4  -5   17.20    0.65
   3   4   5   15.96    0.63
  -3   4  -5   16.36    0.71
   3  -4   5   16.29    0.63
  -3  -4  -5   15.53    0.78
  -3   4  -6    7.72    0.38
   3   4   6    7.80    0.36
   3  -4   6    7.47    0.35
  -3  -4  -6    7.21    0.49
   3   4   7    2.22    0.20
  -3  -4  -7    1.59    0.28
   3  -4   7    2.07    0.17
   3   5  -7   11.69    0.55
  -3   5   7   11.57    0.51
  -3   5   7   11.69    0.49
  -3  -5   7   11.84    0.53
  -3   5   6    0.48    0.08
   3   5  -6    0.62    0.12
   3  -5  -6    0.47    0.10
  -3  -5   6    0.39    0.10
   3   5  -5   -0.01    0.07
  -3   5   5    0.08    0.05
  -3  -5   5    0.01    0.06
   3  -5  -5    0.05    0.06
   3   5  -4    0.11    0.06
  -3  -5   4    0.10    0.07
   3  -5  -4    0.15    0.06
   3  -5  -4    0.18    0.06
   3   5  -3  122.06    4.19
  -3  -5   3  123.15    4.19
   3  -5  -3  122.40    4.19
   3  -5  -3  122.41    4.20
  -3   5   2   26.22    0.94
   3   5  -2   26.97    0.96
   3   5  -2   27.19    0.93
  -3   5   2   27.13    0.94
  -3   5   2   26.73    0.97
  -3  -5   2   27.10    0.96
   3  -5  -2   26.97    0.96
  -3   5   1  313.25   10.54
  -3   5   1  305.23   10.55
   3   5  -1  325.71   10.56
  -3   5   1  291.63   10.68
   3   5  -1  303.66   10.70
  -3  -5   1  310.65   10.58
   3  -5  -1  319.20   10.62
  -3  -5   1  319.99   10.67
  -3   5   0   92.03    3.14
  -3  -5   0   90.86    3.10
  -3  -5   0   91.71    3.10
   3  -5   0   89.96    3.12
  -3  -5   0   92.31    3.18
  -3   5  -1   11.46    0.41
  -3   5  -1   11.81    0.47
  -3  -5  -1   11.78    0.41
   3  -5   1   11.83    0.41
   3  -5   1   11.28    0.44
  -3  -5  -1   11.59    0.41
  -3   5  -2    7.60    0.30
   3   5   2    8.15    0.32
  -3   5  -2    7.32    0.34
   3  -5   2    7.38    0.31
   3  -5   2    7.97    0.29
  -3  -5  -2    7.58    0.40
  -3   5  -3   16.86    0.68
   3   5   3   17.28    0.63
  -3   5  -3   17.42    0.63
   3  -5   3   17.00    0.64
  -3  -5  -3   16.69    0.76
  -3   5  -4   13.31    0.52
   3   5   4   13.23    0.51
  -3   5  -4   12.39    0.56
  -3  -5  -4   12.69    0.65
   3  -5   4   12.95    0.51
   3   5   5    2.11    0.16
  -3   5  -5    2.11    0.17
  -3   5  -5    2.01    0.21
   3  -5   5    2.05    0.16
  -3  -5  -5    1.66    0.25
  -3   5  -6    5.86    0.38
   3   5   6    6.28    0.32
  -3   5  -6    6.69    0.34
  -3  -5  -6    5.70    0.45
   3  -5   6    6.39    0.31
   3   5   7    9.60    0.44
  -3  -5  -7    9.09    0.60
   3  -5   7    8.68    0.42
   3   6  -7    7.70    0.41
  -3   6   7    6.77    0.37
   3  -6  -7    7.63    0.41
  -3  -6   7    7.35    0.38
  -3   6   6    5.89    0.28
   3   6  -6    6.16    0.34
  -3   6   6    6.06    0.31
  -3  -6   6    6.37    0.33
   3  -6  -6    6.13    0.33
  -3   6   5    0.04    0.04
   3   6  -5    0.07    0.07
  -3   6   5    0.11    0.06
   3  -6  -5   -0.01    0.06
  -3  -6   5    0.30    0.09
  -3   6   4    0.04    0.05
   3   6  -4    0.13    0.07
   3  -6  -4    0.06    0.05
  -3  -6   4    0.01    0.06
   3  -6  -4   -0.04    0.05
   3   6  -3   17.05    0.64
  -3   6   3   16.95    0.62
  -3  -6   3   16.97    0.64
   3  -6  -3   17.23    0.64
   3  -6  -3   17.13    0.66
  -3   6   2    2.29    0.15
   3   6  -2    2.51    0.13
  -3   6   2    2.41    0.11
   3   6  -2    2.39    0.14
  -3   6   2    2.55    0.12
  -3  -6   2    2.57    0.14
  -3  -6   2    2.43    0.13
  -3   6   1   20.30    0.74
   3   6  -1   23.39    0.80
   3   6  -1   21.02    0.77
  -3   6   1   21.28    0.79
  -3   6   1   20.79    0.74
  -3  -6   1   21.56    0.76
   3  -6  -1   21.32    0.77
  -3   6   0  152.10    5.24
  -3  -6   0  157.34    5.30
  -3  -6   0  153.15    5.21
  -3  -6   0  155.74    5.21
   3  -6   0  150.27    5.22
  -3   6  -1    3.99    0.21
  -3   6  -1    4.05    0.15
  -3  -6  -1    3.68    0.14
  -3  -6  -1    3.98    0.15
  -3  -6  -1    4.16    0.26
   3  -6   1    3.44    0.15
   3  -6   1    3.95    0.18
   3   6   2   11.84    0.49
  -3   6  -2   12.44    0.46
  -3   6  -2   12.75    0.51
   3  -6   2   13.11    0.46
  -3  -6  -2   12.58    0.59
   3  -6   2   12.49    0.48
   3   6   3    8.34    0.34
  -3   6  -3    8.17    0.33
  -3   6  -3    8.10    0.38
  -3  -6  -3    8.12    0.46
   3  -6   3    7.82    0.34
  -3   6  -4   53.42    1.82
  -3   6  -4   51.72    1.88
   3   6   4   52.06    1.82
   3  -6   4   50.52    1.82
  -3  -6  -4   50.79    1.98
   3   6   5   18.81    0.73
  -3   6  -5   19.24    0.74
  -3   6  -5   19.17    0.80
  -3  -6  -5   18.64    0.90
   3  -6   5   19.14    0.73
   3   6   6   15.90    0.63
  -3   6  -6   15.52    0.65
   3  -6   6   15.80    0.63
  -3  -6  -6   14.87    0.81
  -3   6  -7    0.21    0.10
   3   6   7    0.08    0.10
   3  -6   7    0.03    0.07
  -3  -6  -7   -0.06    0.13
  -3   7   7   16.01    0.67
   3   7  -7   15.40    0.70
   3  -7  -7   17.46    0.71
  -3  -7   7   16.52    0.69
  -3   7   6   39.59    1.45
   3   7  -6   39.47    1.49
  -3   7   6   39.41    1.43
  -3  -7   6   40.18    1.47
   3  -7  -6   41.89    1.50
  -3   7   5    0.59    0.08
  -3   7   5    0.49    0.09
   3   7  -5    0.64    0.11
   3  -7  -5    0.64    0.11
  -3  -7   5    0.54    0.10
  -3   7   4   52.81    1.85
   3   7  -4   52.44    1.88
   3  -7  -4   53.70    1.90
   3  -7  -4   53.15    1.86
  -3  -7   4   53.16    1.87
  -3   7   3   27.48    0.97
   3   7  -3   27.44    1.00
   3  -7  -3   27.69    0.99
   3  -7  -3   27.10    1.02
  -3  -7   3   27.29    0.99
  -3   7   2    0.55    0.05
   3   7  -2    0.55    0.07
   3   7  -2    0.53    0.07
   3  -7  -2    0.53    0.07
  -3  -7   2    0.46    0.07
  -3  -7   2    0.45    0.06
  -3   7   1   11.30    0.40
  -3   7   1   11.49    0.45
   3   7  -1   11.32    0.43
   3   7  -1   10.77    0.49
  -3  -7   1   10.88    0.42
   3  -7  -1   11.01    0.43
  -3  -7   1   10.85    0.47
  -3   7   0    6.08    0.29
  -3   7   0    6.27    0.23
  -3  -7   0    6.26    0.25
   3  -7   0    6.45    0.27
  -3  -7   0    6.41    0.25
   3  -7   0    6.45    0.23
  -3   7  -1   48.08    1.68
  -3   7  -1   47.92    1.62
  -3  -7  -1   47.03    1.61
  -3  -7  -1   47.50    1.61
  -3  -7  -1   47.00    1.76
   3  -7   1   46.77    1.65
  -3   7  -2   11.20    0.45
  -3   7  -2   10.85    0.40
   3  -7   2   10.22    0.42
  -3  -7  -2   10.54    0.53
  -3   7  -3   -0.06    0.07
  -3   7  -3    0.03    0.04
   3   7   3    0.05    0.05
   3  -7   3    0.03    0.05
  -3  -7  -3   -0.08    0.08
   3   7   4    1.09    0.12
  -3   7  -4    1.03    0.12
  -3   7  -4    1.12    0.15
  -3  -7  -4    1.19    0.21
   3  -7   4    0.82    0.10
  -3   7  -5    4.57    0.31
  -3   7  -5    4.80    0.26
   3   7   5    5.00    0.26
   3  -7   5    4.90    0.26
  -3  -7  -5    3.95    0.37
  -3   7  -6    1.36    0.17
   3   7   6    1.11    0.14
   3  -7   6    1.19    0.14
  -3  -7  -6    1.02    0.23
   3   7   7    6.08    0.34
  -3   7  -7    6.52    0.36
   3  -7   7    6.30    0.34
  -3  -7  -7    5.92    0.50
  -3   8   7    1.58    0.18
   3   8  -7    1.45    0.19
   3  -8  -7    1.65    0.20
  -3  -8   7    1.53    0.18
   3   8  -6    0.03    0.09
  -3   8   6    0.10    0.08
  -3   8   6    0.18    0.06
  -3  -8   6    0.09    0.08
  -3   8   5    8.29    0.37
  -3   8   5    8.51    0.36
   3   8  -5    8.32    0.40
  -3  -8   5    8.27    0.39
   3  -8  -5    9.05    0.42
  -3   8   4   22.05    0.81
   3   8  -4   22.11    0.84
   3  -8  -4   22.32    0.87
  -3  -8   4   22.36    0.84
   3  -8  -4   22.31    0.82
   3   8  -3   11.60    0.48
  -3   8   3   12.12    0.45
  -3  -8   3   11.92    0.48
   3  -8  -3   12.38    0.51
   3  -8  -3   11.83    0.47
  -3   8   2   12.42    0.44
   3   8  -2   11.58    0.46
   3   8  -2   12.41    0.47
   3  -8  -2   11.69    0.46
  -3  -8   2   11.42    0.46
  -3   8   1    5.56    0.27
   3   8  -1    5.66    0.25
  -3  -8   1    5.54    0.29
   3  -8  -1    5.77    0.25
  -3  -8   1    5.82    0.24
  -3   8   0    0.74    0.10
  -3   8   0    0.80    0.05
  -3  -8   0    0.74    0.12
   3  -8   0    0.81    0.08
  -3  -8   0    0.79    0.06
   3  -8   0    0.94    0.05
  -3   8  -1  144.58    4.98
  -3   8  -1  145.10    4.93
  -3  -8  -1  144.77    4.92
   3  -8   1  144.17    4.96
  -3  -8  -1  147.85    5.09
  -3  -8  -1  147.16    4.93
  -3   8  -2    1.29    0.14
  -3   8  -2    1.29    0.09
  -3  -8  -2    1.40    0.19
   3  -8   2    1.69    0.12
  -3   8  -3   76.97    2.71
  -3   8  -3   79.55    2.65
   3   8   3   76.67    2.68
  -3  -8  -3   75.12    2.83
   3  -8   3   76.58    2.67
  -3   8  -4    7.05    0.37
   3   8   4    7.53    0.33
  -3   8  -4    6.96    0.32
   3  -8   4    7.20    0.33
  -3  -8  -4    6.56    0.46
   3   8   5   31.34    1.12
  -3   8  -5   30.10    1.18
  -3   8  -5   30.39    1.12
  -3  -8  -5   29.20    1.32
   3  -8   5   30.40    1.12
  -3   8  -6    0.41    0.11
   3   8   6    0.53    0.11
   3  -8   6    0.42    0.10
  -3  -8  -6    0.53    0.19
  -3   9   7    2.66    0.21
   3   9  -7    2.63    0.25
  -3  -9   7    2.72    0.23
   3  -9  -7    2.61    0.25
   3   9  -6    2.66    0.23
  -3   9   6    2.93    0.20
   3  -9  -6    3.00    0.24
  -3  -9   6    2.50    0.21
   3   9  -5   32.50    1.22
  -3   9   5   32.43    1.18
  -3   9   5   32.08    1.17
   3  -9  -5   33.53    1.25
  -3  -9   5   33.11    1.22
   3   9  -4   12.28    0.52
  -3   9   4   12.56    0.49
   3  -9  -4   12.47    0.50
   3  -9  -4   13.07    0.56
  -3  -9   4   12.68    0.52
   3   9  -3   80.40    2.82
  -3   9   3   80.33    2.78
   3  -9  -3   81.93    2.81
  -3  -9   3   81.66    2.81
   3  -9  -3   81.70    2.85
   3   9  -2   34.89    1.20
  -3   9   2   33.35    1.16
   3   9  -2   32.76    1.18
  -3  -9   2   33.78    1.18
  -3  -9   2   30.56    1.17
   3  -9  -2   32.62    1.17
   3   9  -1    0.35    0.07
  -3   9   1    0.32    0.08
   3  -9  -1    0.49    0.05
  -3  -9   1    0.34    0.09
  -3  -9   1    0.28    0.05
   3  -9  -1    0.25    0.06
  -3   9   0   99.62    3.44
  -3   9   0   98.89    3.38
  -3  -9   0  101.04    3.39
   3  -9   0   98.29    3.42
   3  -9   0  101.33    3.38
  -3  -9   0   98.55    3.52
  -3   9  -1    8.65    0.33
  -3   9  -1    8.74    0.39
   3  -9   1    8.70    0.36
  -3  -9  -1    8.98    0.32
  -3  -9  -1    8.77    0.31
  -3  -9  -1    8.76    0.47
  -3   9  -2   28.78    1.06
  -3   9  -2   29.08    1.00
  -3  -9  -2   27.89    1.17
   3  -9   2   27.51    1.03
  -3   9  -3   28.23    1.05
  -3   9  -3   28.22    0.99
   3  -9   3   27.31    1.01
  -3  -9  -3   26.35    1.17
  -3   9  -4   29.43    1.05
   3   9   4   29.12    1.07
  -3   9  -4   28.64    1.11
  -3  -9  -4   27.68    1.24
   3  -9   4   28.78    1.07
  -3   9  -5   -0.10    0.09
  -3   9  -5    0.06    0.07
   3   9   5    0.06    0.08
  -3  -9  -5    0.25    0.14
   3  -9   5    0.01    0.07
   3   9   6    0.59    0.12
  -3   9  -6    0.70    0.14
  -3  -9  -6    0.55    0.19
   3  -9   6    0.76    0.13
  -3  10   7    3.93    0.27
   3  10  -7    4.06    0.31
  -3 -10   7    4.09    0.29
   3 -10  -7    4.39    0.32
  -3  10   6    0.05    0.07
   3  10  -6    0.02    0.09
   3 -10  -6   -0.02    0.08
  -3 -10   6    0.01    0.08
  -3  10   5    1.04    0.12
  -3  10   5    1.09    0.11
   3  10  -5    1.12    0.14
  -3 -10   5    1.08    0.15
   3 -10  -5    1.12    0.16
   3  10  -4   -0.01    0.06
  -3  10   4   -0.02    0.05
  -3 -10   4   -0.02    0.07
   3 -10  -4   -0.03    0.05
   3 -10  -4    0.01    0.07
   3  10  -3    1.31    0.09
   3  10  -3    1.30    0.13
  -3  10   3    1.45    0.11
   3 -10  -3    1.25    0.15
   3 -10  -3    1.36    0.12
  -3 -10   3    1.27    0.13
  -3  10   2   -0.06    0.03
   3  10  -2    0.01    0.05
  -3 -10   2    0.05    0.05
   3 -10  -2   -0.03    0.04
  -3 -10   2    0.10    0.06
  -3  10   1    9.31    0.42
   3  10  -1    9.90    0.40
   3 -10  -1    9.99    0.40
  -3 -10   1   10.16    0.38
  -3 -10   1    9.29    0.45
  -3  10   0    4.83    0.19
  -3  10   0    4.71    0.26
   3 -10   0    4.81    0.19
  -3 -10   0    4.32    0.29
   3 -10   0    5.00    0.23
  -3 -10   0    4.95    0.20
  -3  10  -1    3.91    0.17
  -3  10  -1    4.97    0.25
  -3 -10  -1    3.86    0.30
  -3 -10  -1    4.05    0.16
  -3 -10  -1    3.90    0.16
   3 -10   1    3.80    0.20
  -3  10  -2    0.76    0.13
  -3  10  -2    0.75    0.08
  -3 -10  -2    0.98    0.18
   3 -10   2    0.86    0.10
  -3  10  -3    1.68    0.13
  -3  10  -3    1.65    0.18
  -3 -10  -3    1.74    0.25
   3 -10   3    1.63    0.14
  -3  10  -4   26.10    0.94
   3  10   4   23.95    0.96
  -3  10  -4   25.55    0.99
  -3 -10  -4   25.00    1.14
   3 -10   4   25.28    0.95
  -3  10  -5    7.24    0.36
   3  10   5    7.64    0.37
   3 -10   5    7.58    0.37
  -3 -10  -5    7.05    0.52
   3  10   6   13.84    0.59
  -3  10  -6   12.83    0.58
   3 -10   6   13.71    0.58
  -3 -10  -6   12.58    0.76
  -3  11   6    0.97    0.13
   3  11  -6    1.31    0.18
  -3 -11   6    1.07    0.15
   3 -11  -6    1.18    0.18
   3  11  -5   31.04    1.20
  -3  11   5   31.50    1.15
   3 -11  -5   33.00    1.24
  -3 -11   5   31.27    1.19
  -3  11   4    2.58    0.16
   3  11  -4    2.52    0.19
   3 -11  -4    2.62    0.22
   3 -11  -4    2.55    0.17
  -3 -11   4    2.65    0.19
  -3  11   3  170.38    5.75
   3  11  -3  164.07    5.77
   3 -11  -3  173.31    5.83
  -3 -11   3  170.91    5.77
   3 -11  -3  164.96    5.76
   3  11  -2    1.93    0.14
  -3  11   2    1.93    0.17
  -3 -11   2    2.04    0.14
   3 -11  -2    1.97    0.14
  -3 -11   2    1.81    0.13
  -3  11   1    9.28    0.43
   3  11  -1   10.16    0.41
  -3 -11   1    9.68    0.38
  -3 -11   1    9.11    0.45
   3 -11  -1    9.83    0.40
   3  11   0    0.12    0.08
  -3  11   0    0.27    0.04
  -3 -11   0    0.20    0.05
  -3 -11   0    0.18    0.09
   3 -11   0    0.40    0.07
  -3  11  -1    5.38    0.22
  -3  11  -1    5.23    0.29
  -3 -11  -1    4.75    0.34
  -3 -11  -1    5.03    0.20
   3 -11   1    5.16    0.25
  -3  11  -2    6.08    0.26
  -3  11  -2    6.05    0.32
  -3 -11  -2    6.33    0.42
   3 -11   2    6.21    0.29
  -3  11  -3    3.29    0.23
  -3  11  -3    3.11    0.18
   3 -11   3    2.91    0.20
  -3 -11  -3    3.01    0.32
   3  11   4   -0.02    0.08
  -3  11  -4    0.13    0.10
  -3  11  -4   -0.01    0.06
   3 -11   4    0.03    0.07
  -3 -11  -4   -0.02    0.12
   3  11   5    7.79    0.43
  -3  11  -5    9.37    0.41
  -3 -11  -5    8.74    0.59
   3 -11   5    9.26    0.42
  -3  11  -6    0.54    0.12
   3  11   6    0.28    0.12
  -3 -11  -6    0.71    0.23
   3 -11   6    0.55    0.12
   3  12  -6    2.41    0.24
  -3  12   6    2.39    0.19
  -3 -12   6    2.84    0.23
   3 -12  -6    3.06    0.27
   3  12  -5    7.69    0.39
  -3  12   5    7.47    0.35
   3 -12  -5    7.79    0.43
  -3 -12   5    7.61    0.39
  -3  12   4    2.40    0.16
   3  12  -4    2.41    0.19
   3 -12  -4    2.29    0.22
  -3 -12   4    2.52    0.20
   3 -12  -4    2.15    0.16
   3  12  -3    6.84    0.34
   3 -12  -3    6.93    0.32
   3 -12  -3    7.77    0.39
  -3 -12   3    7.36    0.34
  -3  12   2    5.27    0.30
   3  12  -2    5.18    0.27
   3 -12  -2    5.07    0.26
  -3 -12   2    6.25    0.27
  -3 -12   2    5.58    0.27
  -3  12   1   19.63    0.79
   3  12  -1   20.70    0.76
  -3 -12   1   19.88    0.73
   3 -12  -1   19.05    0.74
  -3  12   0   10.62    0.38
  -3  12   0   10.35    0.46
  -3 -12   0    9.47    0.51
   3 -12   0    9.84    0.42
  -3 -12   0   10.51    0.39
  -3  12  -1   37.72    1.27
  -3  12  -1   36.42    1.34
  -3 -12  -1   36.99    1.25
   3 -12   1   37.17    1.31
  -3 -12  -1   32.87    1.42
  -3  12  -2    5.36    0.24
  -3  12  -2    5.47    0.31
  -3 -12  -2    5.66    0.40
   3 -12   2    5.44    0.27
  -3  12  -3   84.83    2.95
  -3  12  -3   83.35    2.89
   3 -12   3   83.67    2.92
  -3 -12  -3   82.41    3.11
  -3  12  -4   17.33    0.73
  -3  12  -4   17.03    0.67
   3 -12   4   17.71    0.70
  -3 -12  -4   17.27    0.89
  -3  12  -5    8.20    0.39
   3 -12   5    8.09    0.40
  -3 -12  -5    8.16    0.58
  -3  13   6    8.65    0.41
   3  13  -6    8.37    0.46
  -3 -13   6    8.78    0.45
   3 -13  -6    9.63    0.51
   3  13  -5    4.55    0.30
  -3  13   5    4.79    0.27
   3 -13  -5    4.85    0.34
  -3 -13   5    5.39    0.30
   3  13  -4   44.00    1.61
  -3  13   4   40.60    1.58
   3 -13  -4   46.56    1.67
  -3 -13   4   45.40    1.60
   3  13  -3    0.47    0.09
   3 -13  -3    0.28    0.07
  -3 -13   3    0.49    0.10
   3 -13  -3    0.41    0.12
  -3  13   2    0.51    0.11
   3  13  -2    0.46    0.09
   3 -13  -2    0.69    0.09
  -3 -13   2    0.90    0.11
  -3 -13   2    0.61    0.09
   3  13  -1    2.29    0.17
  -3  13   1    2.01    0.19
  -3 -13   1    2.09    0.14
  -3 -13   1    2.35    0.19
   3 -13  -1    2.02    0.15
  -3  13   0   58.49    2.08
  -3  13   0   59.45    1.99
  -3 -13   0   56.24    2.14
   3 -13   0   57.92    2.03
  -3 -13   0   57.30    2.00
  -3  13  -1    1.40    0.10
  -3  13  -1    1.73    0.17
  -3 -13  -1    1.49    0.22
   3 -13   1    1.32    0.13
  -3  13  -2   20.83    0.81
  -3  13  -2   20.44    0.74
   3 -13   2   20.51    0.78
  -3 -13  -2   18.37    0.91
  -3  13  -3   10.68    0.42
  -3  13  -3   10.18    0.48
  -3 -13  -3    8.11    0.57
   3 -13   3   10.54    0.45
   3  13   4   -0.03    0.06
  -3  13  -4    0.40    0.18
  -3  13  -4    0.22    0.09
   3 -13   4    0.21    0.09
  -3 -13  -4    0.27    0.16
   3  13   5   -0.14    0.09
  -3 -13  -5    0.19    0.15
   3 -13   5    0.24    0.09
  -3  14   5    2.88    0.24
   3  14  -5    3.79    0.27
   3 -14  -5    4.19    0.32
  -3 -14   5    4.03    0.27
   3  14  -4    0.62    0.13
   3 -14  -4    0.60    0.14
  -3 -14   4    0.50    0.11
   3  14  -3    1.60    0.16
   3 -14  -3    1.62    0.14
  -3 -14   3    1.67    0.16
   3  14  -2    5.08    0.28
  -3  14   2    5.31    0.32
  -3 -14   2    5.84    0.28
   3 -14  -2    5.28    0.26
  -3 -14   2    5.55    0.27
  -3  14   1   11.19    0.50
   3  14  -1   13.70    0.54
  -3  14   1   13.63    0.58
  -3 -14   1   14.50    0.59
   3 -14  -1   12.80    0.53
  -3 -14   1   13.60    0.51
  -3  14   0    4.32    0.28
   3  14   0    4.52    0.28
  -3  14   0    4.69    0.21
  -3 -14   0    4.59    0.21
   3 -14   0    4.59    0.24
  -3  14  -1    4.84    0.22
  -3  14  -1    5.10    0.30
   3 -14   1    5.07    0.26
  -3  14  -2    0.59    0.08
  -3  14  -2    0.64    0.13
  -3 -14  -2    0.71    0.18
   3 -14   2    0.71    0.11
  -3  14  -3   24.60    0.97
  -3 -14  -3   22.43    1.10
   3 -14   3   25.42    0.94
  -3 -14  -4    2.65    0.36
   3 -14   4    2.92    0.22
  -3 -14  -5    8.08    0.60
   3 -14   5    9.26    0.44
   3  15  -5    0.78    0.15
   3 -15  -5    0.78    0.17
  -3 -15   5    0.80    0.15
   3  15  -4   17.35    0.75
   3 -15  -4   18.53    0.81
  -3 -15   4   18.57    0.74
   3  15  -3   21.39    0.86
  -3 -15   3   22.65    0.85
  -3  15   2   22.78    0.95
   3  15  -2   23.62    0.91
   3 -15  -2   22.21    0.88
  -3 -15   2   23.84    0.89
  -3 -15   2   26.33    0.98
   3  15  -1   11.74    0.49
  -3  15   1   11.00    0.52
  -3  15   1   10.86    0.45
   3 -15  -1   10.72    0.47
  -3 -15   1   12.32    0.53
  -3 -15   1   11.13    0.45
  -3  15   0    0.09    0.09
   3  15   0    0.08    0.08
  -3  15   0    0.10    0.06
  -3 -15   0    0.17    0.10
   3 -15   0    0.23    0.07
  -3 -15  -1    7.33    0.46
  -3  15  -2    7.66    0.40
  -3 -15  -2    6.94    0.48
   3 -15   2    7.43    0.36
  -3 -15  -3    0.96    0.21
   3  15   4   -0.07    0.05
   3 -15   4    0.17    0.10
  -3 -15  -4    0.11    0.13
   3  16  -4    0.36    0.11
  -3 -16   4    0.21    0.11
   3  16  -3    0.01    0.08
  -3  16   3    0.08    0.09
  -3 -16   3    0.01    0.08
   3  16  -2    0.51    0.11
  -3  16   2    0.51    0.13
   3 -16  -2    0.77    0.11
  -3 -16   2    0.61    0.10
  -3  16   1   10.95    0.52
   3  16  -1   11.04    0.48
  -3 -16   1   11.77    0.52
  -3 -16   1   10.59    0.44
   3 -16  -1   10.12    0.46
   3  16   0    1.58    0.19
  -3  16   0    1.35    0.18
  -3 -16   0    1.41    0.20
   3 -16   0    1.59    0.15
  -3  16  -1    0.13    0.11
   3  16   1    0.20    0.10
   3 -16   1    0.21    0.08
  -3 -16  -1    0.17    0.12
  -3  16  -3    0.53    0.15
  -3 -16  -3    0.49    0.19
   3 -16   3    0.77    0.13
  -3 -16  -4   22.64    1.23
   3 -16   4   32.39    1.10
   3  17  -4    9.31    0.47
  -3 -17   4    9.53    0.46
   3  17  -3    0.16    0.09
  -3  17   3    0.05    0.10
  -3 -17   3    0.08    0.08
   3  17  -2    1.58    0.17
  -3  17   2    1.56    0.21
  -3 -17   2    1.67    0.15
   3  17  -1    7.30    0.35
  -3  17   1    6.45    0.39
   3 -17  -1    6.55    0.33
  -3 -17   1    7.45    0.38
   3  17   0    7.46    0.38
  -3  17   0    7.03    0.41
   3 -17   0    7.38    0.35
  -3 -17   0    7.29    0.42
  -3  17  -1   15.98    0.72
  -3 -17  -1   17.08    0.79
   3 -17   1   16.39    0.67
  -3  17  -2    3.94    0.30
   3 -17   2    3.84    0.25
  -3 -17  -2    4.17    0.37
  -3 -17  -3    6.56    0.50
   3 -17   3    7.46    0.38
   3  18  -3    1.83    0.20
  -3  18   3    2.31    0.25
  -3 -18   3    2.23    0.19
  -3  18   2    0.94    0.17
   3  18  -2    1.10    0.15
  -3 -18   2    0.87    0.12
   3  18  -1   11.91    0.52
  -3  18   1   11.41    0.57
   3 -18  -1   11.04    0.50
  -3 -18   1   13.20    0.65
  -3  18   0    0.74    0.16
   3  18   0    0.88    0.14
  -3 -18   0    0.65    0.15
   3 -18   0    1.10    0.14
  -3  18  -1   14.58    0.69
   3 -18   1   14.84    0.64
  -3 -18  -1   16.72    0.76
  -3  18  -2    3.01    0.28
   3 -18   2    2.93    0.23
  -3 -18  -2    3.28    0.33
  -3  19   2    1.41    0.21
  -3  19   1    0.01    0.12
   3  19  -1    0.06    0.08
  -3  19   0    1.13    0.19
   3  19   0    1.04    0.16
   3 -19   0    1.23    0.15
  -3 -19   0    1.02    0.18
   3  19   1    0.23    0.13
  -3  19  -1    0.36    0.14
   3 -19   1    0.14    0.08
  -3 -19  -1    0.31    0.14
  -4   0   8   20.74    0.84
   4   0  -8   21.29    0.89
  -4   0   7    0.07    0.08
   4   0  -7    0.06    0.09
   4   0  -6    0.71    0.12
  -4   0   6    0.66    0.11
  -4   0   5    0.03    0.06
   4   0  -5    0.06    0.07
   4   0  -4    1.99    0.14
  -4   0   4    1.91    0.13
  -4   0   4    1.74    0.15
  -4   0   4    1.96    0.11
  -4   0   3    0.01    0.04
   4   0  -3    0.06    0.04
  -4   0   3    0.02    0.04
  -4   0   3    0.00    0.03
   4   0  -2    9.50    0.37
   4   0  -2    9.82    0.39
   4   0  -2    9.82    0.37
  -4   0   1   -0.06    0.05
   4   0  -1   -0.11    0.03
  -4   0   1   -0.10    0.02
   4   0  -1   -0.02    0.03
  -4   0   0  332.01   11.32
  -4   0   0  323.20   11.45
   4   0   0  343.01   11.31
  -4   0  -1    0.08    0.03
   4   0   1    0.06    0.05
  -4   0  -1    0.09    0.07
   4   0   1    0.01    0.03
  -4   0  -2   59.59    2.15
   4   0   2   60.52    2.07
   4   0   2   61.02    2.07
   4   0   3   -0.02    0.04
  -4   0  -3   -0.04    0.06
   4   0   3    0.06    0.03
   4   0   4    4.72    0.21
  -4   0  -4    4.86    0.32
   4   0   4    4.71    0.23
   4   0   5    0.20    0.05
   4   0   5   -0.03    0.05
  -4   0  -5   -0.02    0.08
  -4   0  -6   13.83    0.72
   4   0   6   14.61    0.58
   4   0   6   14.60    0.56
   4   0   7    0.13    0.09
  -4   0  -7    0.04    0.12
   4   1  -8    0.17    0.13
  -4   1   8    0.31    0.11
  -4  -1   8    0.16    0.11
   4  -1  -8    0.38    0.13
  -4   1   7    2.27    0.19
   4   1  -7    2.48    0.22
   4  -1  -7    2.49    0.23
  -4  -1   7    2.47    0.20
  -4   1   6    1.82    0.15
   4   1  -6    1.82    0.18
  -4  -1   6    1.85    0.17
   4  -1  -6    1.58    0.17
  -4   1   5   38.74    1.36
   4   1  -5   38.38    1.40
  -4   1   5   38.72    1.39
  -4  -1   5   39.00    1.34
   4  -1  -5   38.03    1.39
  -4  -1   5   38.63    1.39
  -4   1   4    0.31    0.06
  -4   1   4    0.25    0.05
   4   1  -4    0.30    0.07
  -4  -1   4    0.43    0.07
  -4  -1   4    0.30    0.05
   4  -1  -4    0.26    0.07
  -4  -1   4    0.31    0.07
   4   1  -3  108.32    3.77
  -4   1   3  106.93    3.76
  -4  -1   3  109.23    3.77
  -4  -1   3  119.13    3.76
   4  -1  -3  110.27    3.76
  -4  -1   3  108.38    3.75
   4  -1  -3  108.91    3.78
   4   1  -2   49.37    1.71
   4   1  -2   50.02    1.69
   4   1  -2   48.14    1.69
   4  -1  -2   47.43    1.68
   4  -1  -2   47.68    1.70
  -4  -1   2   51.01    1.70
   4   1  -1   96.91    3.37
  -4   1   1   98.58    3.39
   4   1  -1  102.67    3.41
   4   1  -1   97.84    3.36
   4  -1  -1   98.67    3.38
  -4  -1   1   98.15    3.39
   4  -1  -1   99.10    3.35
  -4   1   0   28.99    1.01
   4   1   0   28.74    0.98
   4  -1   0   27.14    0.98
  -4  -1   0   26.75    1.02
   4   1   1  181.95    6.15
  -4   1  -1  178.04    6.20
  -4  -1  -1  182.31    6.21
   4  -1   1  185.23    6.15
   4  -1   1  180.01    6.23
   4   1   2   11.93    0.43
   4   1   2   11.81    0.43
  -4   1  -2   11.21    0.50
  -4  -1  -2   11.40    0.51
   4  -1   2   11.57    0.43
   4  -1   2   11.50    0.42
   4   1   3   14.01    0.50
   4   1   3   14.12    0.52
  -4   1  -3   13.89    0.61
   4  -1   3   13.82    0.51
  -4  -1  -3   13.30    0.61
   4  -1   3   13.83    0.51
   4   1   4   64.15    2.23
   4   1   4   66.18    2.25
  -4   1  -4   64.66    2.36
   4  -1   4   65.45    2.25
  -4  -1  -4   64.06    2.38
   4  -1   4   64.75    2.24
   4   1   5    1.63    0.11
   4   1   5    1.45    0.13
   4  -1   5    1.70    0.12
  -4  -1  -5    1.43    0.22
   4  -1   5    1.57    0.14
  -4   1  -6    0.19    0.11
   4   1   6    0.06    0.07
   4  -1   6    0.11    0.06
   4  -1   6    0.03    0.07
  -4  -1  -6    0.06    0.12
   4   1   7    7.26    0.36
  -4   1  -7    7.22    0.49
  -4  -1  -7    7.14    0.51
   4  -1   7    7.70    0.37
   4   2  -7   24.88    0.98
  -4   2   7   24.33    0.94
  -4  -2   7   24.48    0.96
   4  -2  -7   25.02    0.98
  -4   2   6    1.22    0.13
   4   2  -6    0.90    0.13
  -4  -2   6    1.00    0.13
   4  -2  -6    0.85    0.13
   4   2  -5   47.28    1.71
  -4   2   5   47.11    1.70
  -4   2   5   48.65    1.69
  -4  -2   5   49.01    1.71
   4  -2  -5   47.74    1.71
   4   2  -4    7.50    0.33
  -4   2   4    7.72    0.32
  -4   2   4    7.54    0.31
   4  -2  -4    7.28    0.32
  -4  -2   4    7.59    0.33
  -4  -2   4    7.21    0.28
  -4   2   3    4.02    0.19
   4   2  -3    4.10    0.20
   4  -2  -3    4.26    0.21
   4  -2  -3    3.95    0.19
  -4  -2   3    3.89    0.20
  -4  -2   3    4.34    0.17
   4   2  -2   23.50    0.84
  -4   2   2   23.26    0.83
  -4   2   2   23.59    0.85
   4   2  -2   24.65    0.84
  -4  -2   2   24.01    0.85
   4  -2  -2   24.44    0.86
  -4  -2   2   23.11    0.85
   4  -2  -2   23.08    0.83
   4   2  -1    9.28    0.36
  -4   2   1    8.64    0.33
   4   2  -1    9.24    0.34
   4   2  -1    9.47    0.36
  -4   2   1    8.86    0.37
   4  -2  -1    9.14    0.33
  -4  -2   1    9.47    0.38
   4  -2  -1    9.55    0.36
  -4   2   0   34.27    1.22
   4   2   0   34.22    1.19
  -4   2   0   35.75    1.16
  -4  -2   0   31.76    1.23
   4  -2   0   33.62    1.20
   4  -2   0   35.12    1.16
  -4   2  -1   53.16    1.99
   4   2   1   55.11    1.94
   4  -2   1   61.21    1.93
  -4  -2  -1   53.91    2.01
   4  -2   1   59.38    1.93
  -4  -2  -1   57.87    1.93
   4  -2   1   54.84    1.95
   4   2   2  142.31    4.79
   4   2   2  151.96    4.81
  -4   2  -2  140.69    4.87
   4  -2   2  138.01    4.81
   4  -2   2  142.24    4.79
  -4  -2  -2  136.29    4.79
  -4  -2  -2  138.42    4.90
  -4   2  -3   61.85    2.25
   4   2   3   64.37    2.14
   4   2   3   64.37    2.16
   4  -2   3   62.94    2.16
  -4  -2  -3   60.80    2.28
   4  -2   3   61.52    2.16
  -4   2  -4    4.70    0.31
   4   2   4    4.78    0.20
   4   2   4    4.65    0.23
   4  -2   4    4.95    0.22
   4  -2   4    4.51    0.22
  -4  -2  -4    4.46    0.34
   4   2   5    6.06    0.29
  -4   2  -5    6.35    0.39
   4   2   5    6.08    0.25
   4  -2   5    6.27    0.28
   4  -2   5    6.03    0.29
  -4  -2  -5    5.75    0.40
   4   2   6   13.08    0.53
  -4   2  -6   12.65    0.65
  -4  -2  -6   12.10    0.68
   4  -2   6   12.93    0.53
   4  -2   6   13.20    0.52
   4   2   7    3.99    0.25
   4  -2   7    3.83    0.25
  -4  -2  -7    3.75    0.37
  -4   3   7    0.12    0.08
   4   3  -7    0.00    0.09
   4  -3  -7   -0.12    0.09
  -4  -3   7    0.08    0.09
  -4   3   6    1.69    0.14
   4   3  -6    1.52    0.17
  -4   3   6    1.65    0.13
   4  -3  -6    1.41    0.16
  -4  -3   6    1.47    0.16
   4   3  -5    8.56    0.40
  -4   3   5    9.14    0.38
  -4   3   5    8.92    0.38
   4  -3  -5    9.05    0.40
  -4  -3   5    9.26    0.40
  -4   3   4    0.18    0.06
   4   3  -4    0.29    0.07
  -4   3   4    0.21    0.06
   4  -3  -4    0.13    0.06
  -4  -3   4    0.26    0.07
  -4   3   3   17.47    0.65
   4   3  -3   17.24    0.65
  -4  -3   3   17.17    0.65
   4  -3  -3   16.71    0.65
  -4  -3   3   17.49    0.62
   4  -3  -3   17.09    0.64
  -4  -3   3   18.92    0.62
  -4   3   2    0.79    0.06
  -4   3   2    0.87    0.10
   4   3  -2    0.82    0.07
   4   3  -2    0.89    0.07
   4  -3  -2    1.23    0.09
  -4  -3   2    0.59    0.07
   4  -3  -2    0.79    0.06
   4   3  -1   13.23    0.48
  -4   3   1   13.01    0.51
  -4   3   1   13.44    0.46
   4   3  -1   13.46    0.50
  -4  -3   1   13.59    0.52
   4  -3  -1   12.95    0.46
   4  -3  -1   12.79    0.50
  -4   3   0  148.28    4.92
   4   3   0  145.96    4.88
  -4  -3   0  132.84    4.89
   4  -3   0  148.32    4.90
  -4  -3   0  144.43    4.94
  -4   3  -1   90.92    3.19
   4   3   1   90.85    3.13
   4  -3   1   94.60    3.14
   4  -3   1   90.48    3.15
   4  -3   1   96.81    3.12
  -4  -3  -1   92.37    3.13
  -4  -3  -1   88.78    3.22
  -4   3  -2   73.43    2.61
   4   3   2   79.33    2.56
   4   3   2   72.01    2.53
  -4  -3  -2   71.52    2.65
  -4  -3  -2   70.41    2.53
   4  -3   2   73.24    2.55
   4  -3   2   72.63    2.53
   4  -3   2   82.07    2.56
   4   3   3   27.40    0.93
   4   3   3   27.56    0.96
  -4   3  -3   26.17    1.03
  -4  -3  -3   26.95    1.08
  -4  -3  -3   26.67    0.93
   4  -3   3   25.75    0.95
   4  -3   3   26.45    0.94
   4   3   4   74.49    2.61
   4   3   4   77.23    2.58
  -4   3  -4   75.89    2.71
   4  -3   4   74.41    2.60
  -4  -3  -4   75.69    2.77
   4  -3   4   75.17    2.61
  -4   3  -5    4.87    0.33
   4   3   5    4.81    0.25
   4  -3   5    4.62    0.24
  -4  -3  -5    4.38    0.36
   4  -3   5    4.91    0.24
  -4   3  -6    6.11    0.42
   4   3   6    6.49    0.32
   4  -3   6    6.19    0.32
  -4  -3  -6    6.26    0.46
   4  -3   6    6.63    0.31
   4   3   7    9.44    0.44
  -4  -3  -7    8.79    0.60
   4  -3   7    9.08    0.43
   4  -3   7    9.64    0.46
   4   4  -7   13.64    0.60
  -4   4   7   12.95    0.55
  -4  -4   7   13.05    0.58
   4  -4  -7   13.41    0.59
  -4   4   6    8.33    0.37
   4   4  -6    8.06    0.41
   4  -4  -6    8.36    0.40
  -4  -4   6    8.46    0.40
  -4   4   5    5.02    0.25
  -4   4   5    5.59    0.27
   4   4  -5    4.91    0.28
  -4  -4   5    5.05    0.27
   4  -4  -5    5.39    0.27
  -4   4   4  118.27    4.06
   4   4  -4  116.71    4.07
  -4  -4   4  118.69    4.07
   4  -4  -4  119.50    4.06
   4   4  -3   23.63    0.89
  -4   4   3   24.21    0.90
  -4  -4   3   25.60    0.85
   4  -4  -3   24.67    0.90
   4  -4  -3   24.39    0.88
  -4  -4   3   24.79    0.90
   4   4  -2   61.73    2.09
  -4   4   2   59.56    2.08
  -4   4   2   59.84    2.12
   4   4  -2   60.40    2.10
   4  -4  -2   62.66    2.12
  -4  -4   2   60.90    2.11
  -4  -4   2   61.83    2.11
   4  -4  -2   60.33    2.08
  -4   4   1    4.52    0.23
  -4   4   1    4.51    0.17
   4   4  -1    4.78    0.20
  -4  -4   1    4.68    0.20
  -4  -4   1    4.39    0.23
   4  -4  -1    4.55    0.21
   4   4   0   25.40    0.90
  -4   4   0   28.42    0.95
  -4  -4   0   25.07    0.96
   4  -4   0   24.71    0.91
  -4  -4   0   24.53    0.90
   4   4   1    2.52    0.11
  -4   4  -1    2.33    0.17
   4  -4   1    2.57    0.10
   4  -4   1    2.37    0.10
  -4  -4  -1    2.50    0.11
   4  -4   1    2.48    0.14
  -4  -4  -1    2.49    0.19
  -4   4  -2    0.12    0.07
   4   4   2    0.19    0.03
   4   4   2    0.23    0.05
   4  -4   2    0.30    0.06
  -4  -4  -2    0.12    0.09
   4  -4   2    0.12    0.04
   4  -4   2    0.18    0.04
  -4  -4  -2    0.17    0.03
  -4   4  -3    0.69    0.12
   4   4   3    0.61    0.08
   4   4   3    0.62    0.05
   4  -4   3    0.62    0.08
  -4  -4  -3    0.55    0.05
  -4  -4  -3    0.66    0.15
   4   4   4    2.38    0.11
   4   4   4    2.45    0.16
  -4   4  -4    2.18    0.22
  -4  -4  -4    2.13    0.25
   4  -4   4    2.43    0.15
  -4   4  -5    2.19    0.23
   4   4   5    2.28    0.17
   4  -4   5    2.47    0.16
   4  -4   5    2.28    0.15
  -4  -4  -5    1.94    0.27
  -4   4  -6    3.86    0.33
   4   4   6    4.14    0.25
   4  -4   6    4.30    0.24
  -4  -4  -6    4.27    0.39
   4  -4   6    4.12    0.23
   4   4   7    1.85    0.18
   4  -4   7    1.65    0.18
   4  -4   7    1.72    0.16
  -4  -4  -7    1.55    0.28
  -4   5   7    7.91    0.38
   4   5  -7    8.31    0.44
  -4   5   7    8.99    0.41
  -4  -5   7    8.43    0.42
  -4   5   6    6.33    0.30
   4   5  -6    6.40    0.34
  -4  -5   6    6.30    0.33
   4   5  -5   22.65    0.86
  -4   5   5   22.36    0.84
  -4  -5   5   22.18    0.85
   4  -5  -5   22.45    0.85
   4   5  -4    2.97    0.19
  -4   5   4    2.85    0.19
  -4  -5   4    2.78    0.18
   4  -5  -4    3.02    0.19
   4  -5  -4    2.76    0.17
  -4   5   3   85.01    2.94
   4   5  -3   81.85    2.92
  -4  -5   3   85.10    2.93
   4  -5  -3   87.73    2.93
   4  -5  -3   84.61    2.91
  -4   5   2  238.23    8.40
   4   5  -2  250.67    8.40
   4   5  -2  238.58    8.44
  -4   5   2  244.27    8.35
  -4  -5   2  250.40    8.35
   4  -5  -2  245.91    8.36
  -4  -5   2  257.00    8.37
  -4   5   1   17.05    0.65
   4   5  -1   17.34    0.63
  -4  -5   1   16.99    0.63
  -4  -5   1   17.46    0.67
   4  -5  -1   17.50    0.64
  -4   5   0   13.66    0.54
  -4  -5   0   13.35    0.57
  -4  -5   0   13.32    0.49
  -4  -5   0   13.44    0.51
   4  -5   0   13.89    0.51
  -4   5  -1    2.69    0.18
   4  -5   1    2.62    0.15
  -4  -5  -1    2.81    0.12
  -4  -5  -1    2.83    0.21
   4   5   2   20.08    0.68
  -4   5  -2   19.04    0.77
   4  -5   2   19.28    0.72
  -4  -5  -2   19.45    0.83
  -4  -5  -2   19.46    0.68
   4  -5   2   20.66    0.70
   4   5   3    0.78    0.09
  -4   5  -3    0.74    0.08
  -4   5  -3    0.70    0.13
  -4  -5  -3    0.90    0.16
   4  -5   3    0.69    0.08
  -4   5  -4    7.68    0.34
  -4   5  -4    7.80    0.41
   4   5   4    7.90    0.34
   4  -5   4    7.76    0.34
  -4  -5  -4    7.42    0.47
  -4   5  -5    5.12    0.34
   4   5   5    4.91    0.26
  -4  -5  -5    5.32    0.40
   4  -5   5    5.00    0.26
  -4   5  -6    0.27    0.13
   4   5   6    0.27    0.09
   4  -5   6    0.36    0.08
  -4  -5  -6    0.00    0.13
   4  -5   6    0.23    0.08
   4   5   7   21.63    0.83
  -4  -5  -7   17.99    1.01
   4  -5   7   21.64    0.83
   4  -5   7   21.69    0.82
  -4   6   7    4.35    0.27
  -4   6   7    4.26    0.24
   4   6  -7    4.14    0.29
  -4  -6   7    3.75    0.27
  -4   6   6   26.58    1.00
  -4   6   6   27.26    1.01
   4   6  -6   26.93    1.04
  -4  -6   6   26.74    1.03
  -4   6   5   -0.02    0.04
   4   6  -5   -0.02    0.07
  -4   6   5    0.04    0.05
  -4  -6   5    0.02    0.07
  -4   6   4   73.72    2.60
   4   6  -4   75.60    2.63
  -4   6   4   75.06    2.64
   4  -6  -4   79.17    2.63
  -4  -6   4   73.85    2.63
   4   6  -3   28.92    1.06
  -4   6   3   29.36    1.08
  -4   6   3   29.53    1.03
   4  -6  -3   29.18    1.06
  -4  -6   3   29.76    1.06
  -4   6   2    0.56    0.05
  -4   6   2    0.42    0.08
   4   6  -2    0.63    0.08
  -4   6   2    0.49    0.05
   4   6  -2    0.76    0.07
  -4  -6   2    0.49    0.07
  -4  -6   2    0.42    0.08
   4  -6  -2    0.56    0.08
  -4   6   1   62.02    2.23
   4   6  -1   62.98    2.21
  -4  -6   1   65.83    2.27
  -4  -6   1   64.90    2.20
   4  -6  -1   64.17    2.22
  -4   6   0   36.44    1.37
  -4  -6   0   39.70    1.43
   4  -6   0   38.34    1.35
  -4  -6   0   39.01    1.33
  -4   6  -1   -0.01    0.06
   4   6   1   -0.04    0.02
  -4  -6  -1    0.01    0.02
   4  -6   1    0.01    0.04
  -4  -6  -1   -0.01    0.08
  -4  -6  -1    0.05    0.02
  -4   6  -2    9.67    0.36
  -4   6  -2    9.64    0.44
   4  -6   2   10.13    0.36
  -4  -6  -2    9.79    0.50
   4  -6   2    9.44    0.39
  -4   6  -3    5.14    0.23
  -4   6  -3    5.02    0.30
   4   6   3    5.58    0.26
  -4  -6  -3    4.72    0.35
   4  -6   3    5.02    0.24
  -4   6  -4   39.99    1.40
   4   6   4   40.95    1.40
  -4   6  -4   38.63    1.48
  -4  -6  -4   37.70    1.57
   4  -6   4   38.38    1.40
  -4   6  -5    3.13    0.21
   4   6   5    3.30    0.20
  -4   6  -5    3.21    0.27
  -4  -6  -5    3.39    0.34
   4  -6   5    3.10    0.20
  -4   6  -6    4.22    0.38
   4   6   6    3.74    0.24
   4  -6   6    3.57    0.23
  -4  -6  -6    3.46    0.38
   4   7  -7    0.11    0.10
  -4   7   7   -0.09    0.09
  -4  -7   7   -0.04    0.09
  -4   7   6    2.68    0.20
  -4   7   6    3.24    0.19
   4   7  -6    2.87    0.23
  -4  -7   6    3.06    0.23
  -4   7   5   28.22    1.03
  -4   7   5   28.34    1.03
   4   7  -5   27.33    1.06
  -4  -7   5   28.31    1.05
  -4   7   4    0.09    0.06
  -4   7   4    0.14    0.08
   4   7  -4    0.14    0.07
   4  -7  -4    0.15    0.07
  -4  -7   4    0.17    0.07
  -4   7   3   14.71    0.54
   4   7  -3   14.55    0.57
  -4   7   3   14.50    0.59
  -4  -7   3   15.02    0.58
   4  -7  -3   14.91    0.57
   4   7  -2    0.45    0.07
  -4   7   2    0.44    0.05
  -4   7   2    0.37    0.07
   4   7  -2    0.45    0.07
  -4   7   2    0.40    0.04
   4  -7  -2    0.46    0.07
  -4  -7   2    0.35    0.06
  -4   7   1   31.03    1.17
   4   7  -1   31.53    1.15
  -4  -7   1   32.89    1.21
   4  -7  -1   32.06    1.15
  -4  -7   1   33.38    1.13
  -4   7   0   83.68    2.93
  -4  -7   0   85.80    2.88
   4  -7   0   81.98    2.90
  -4  -7   0   86.12    3.00
  -4   7  -1    7.91    0.36
   4  -7   1    7.79    0.33
  -4  -7  -1    8.08    0.43
  -4  -7  -1    7.88    0.29
  -4  -7  -1    7.65    0.29
  -4   7  -2   37.98    1.36
  -4   7  -2   37.43    1.29
   4  -7   2   36.06    1.32
  -4  -7  -2   36.39    1.45
   4  -7   2   37.59    1.28
   4   7   3   53.29    1.98
  -4   7  -3   58.21    1.95
  -4   7  -3   57.13    2.02
  -4  -7  -3   55.88    2.13
   4  -7   3   55.67    1.96
  -4   7  -4   35.92    1.38
   4   7   4   37.02    1.31
  -4   7  -4   35.97    1.29
  -4  -7  -4   36.32    1.49
   4  -7   4   35.57    1.31
  -4   7  -5   -0.06    0.06
   4   7   5    0.14    0.08
  -4   7  -5    0.02    0.09
   4  -7   5    0.08    0.07
  -4  -7  -5    0.07    0.14
   4   7   6   13.31    0.57
  -4   7  -6   14.26    0.58
   4  -7   6   13.70    0.57
  -4  -7  -6   12.38    0.76
   4   8  -7   30.16    1.20
  -4   8   7   30.96    1.15
  -4  -8   7   30.72    1.18
  -4   8   6    0.30    0.08
   4   8  -6    0.42    0.11
  -4   8   6    0.48    0.10
  -4  -8   6    0.55    0.13
  -4   8   5   45.49    1.62
   4   8  -5   45.28    1.66
  -4   8   5   45.58    1.62
  -4  -8   5   46.34    1.65
   4   8  -4    2.80    0.19
  -4   8   4    2.90    0.16
  -4  -8   4    2.85    0.19
   4  -8  -4    3.05    0.19
  -4   8   3  124.56    4.29
   4   8  -3  122.03    4.27
  -4   8   3  124.23    4.23
   4  -8  -3  123.92    4.26
  -4  -8   3  126.62    4.27
   4   8  -2    1.93    0.14
  -4   8   2    1.77    0.12
  -4   8   2    1.91    0.10
  -4   8   2    1.86    0.16
   4   8  -2    1.72    0.13
   4  -8  -2    1.77    0.13
  -4  -8   2    1.61    0.14
  -4  -8   2    1.72    0.13
   4   8  -1    1.65    0.13
  -4   8   1    1.69    0.08
  -4   8   1    1.93    0.15
  -4  -8   1    1.79    0.11
   4  -8  -1    1.62    0.12
  -4   8   0   34.65    1.25
  -4  -8   0   33.88    1.32
   4  -8   0   34.31    1.23
  -4  -8   0   34.64    1.20
  -4   8  -1   12.97    0.43
  -4   8  -1   12.10    0.51
  -4  -8  -1   11.35    0.43
  -4  -8  -1   11.56    0.58
   4  -8   1   12.17    0.48
  -4  -8  -1   12.33    0.43
  -4   8  -2    6.13    0.25
  -4   8  -2    5.84    0.32
   4  -8   2    6.37    0.28
  -4  -8  -2    5.80    0.39
   4  -8   2    6.25    0.24
  -4   8  -3    0.68    0.13
   4   8   3    0.50    0.10
  -4   8  -3    0.69    0.08
   4  -8   3    0.52    0.08
  -4  -8  -3    0.49    0.15
  -4   8  -4    5.29    0.26
   4   8   4    5.22    0.28
  -4   8  -4    5.28    0.33
  -4  -8  -4    4.66    0.40
   4  -8   4    5.00    0.27
  -4   8  -5   13.54    0.55
  -4   8  -5   13.42    0.63
   4   8   5   13.34    0.55
   4  -8   5   12.98    0.55
  -4  -8  -5   12.18    0.72
  -4   8  -6    7.10    0.37
   4   8   6    7.29    0.37
  -4  -8  -6    7.20    0.54
   4  -8   6    7.47    0.37
  -4   9   7    2.65    0.21
   4   9  -7    2.59    0.26
  -4  -9   7    2.51    0.24
   4   9  -6    0.60    0.13
  -4   9   6    0.79    0.11
  -4   9   6    0.60    0.09
  -4  -9   6    0.75    0.14
   4   9  -5    6.76    0.36
  -4   9   5    7.03    0.32
  -4  -9   5    7.14    0.36
   4   9  -4    1.97    0.16
  -4   9   4    2.05    0.13
  -4  -9   4    1.69    0.16
   4  -9  -4    1.92    0.15
   4   9  -3    0.90    0.11
  -4   9   3    0.36    0.10
  -4   9   3    0.79    0.08
  -4  -9   3    0.50    0.09
   4  -9  -3    0.50    0.09
  -4  -9   3    0.50    0.05
  -4   9   2   77.65    2.86
  -4   9   2   87.83    2.94
   4   9  -2   86.82    2.90
  -4  -9   2   89.83    2.90
   4  -9  -2   89.10    2.91
  -4  -9   2   72.78    2.91
  -4   9   1   14.60    0.51
   4   9  -1   14.54    0.56
  -4   9   1   14.25    0.59
   4  -9  -1   14.34    0.56
  -4  -9   1   14.08    0.62
  -4  -9   1   15.04    0.54
  -4   9   0   16.86    0.67
   4  -9   0   17.39    0.65
  -4  -9   0   17.18    0.61
  -4  -9   0   16.22    0.73
  -4   9  -1   55.56    1.99
  -4   9  -1   59.05    1.91
  -4  -9  -1   54.56    2.09
  -4  -9  -1   54.80    1.91
   4  -9   1   55.49    1.96
  -4  -9  -1   56.63    1.91
  -4   9  -2   19.80    0.79
  -4   9  -2   20.65    0.72
   4  -9   2   19.88    0.76
  -4  -9  -2   19.58    0.90
  -4   9  -3    3.46    0.25
  -4   9  -3    3.19    0.17
  -4  -9  -3    3.59    0.33
   4  -9   3    3.41    0.20
  -4   9  -4    2.96    0.25
  -4   9  -4    3.30    0.19
   4   9   4    2.84    0.22
  -4  -9  -4    2.67    0.31
   4  -9   4    3.25    0.21
  -4   9  -5    0.64    0.11
   4   9   5    0.59    0.12
  -4   9  -5    0.61    0.15
   4  -9   5    0.68    0.11
  -4  -9  -5    0.70    0.20
   4   9   6    4.72    0.29
  -4   9  -6    4.58    0.32
   4  -9   6    4.48    0.28
  -4  -9  -6    5.03    0.46
  -4  10   6    7.54    0.35
   4  10  -6    7.43    0.40
  -4 -10   6    7.55    0.39
   4  10  -5    3.03    0.23
  -4  10   5    2.97    0.18
   4 -10  -5    3.23    0.20
  -4 -10   5    2.88    0.22
  -4  10   4   11.11    0.50
  -4  10   4   10.81    0.43
   4  10  -4   11.29    0.49
   4 -10  -4   11.00    0.47
  -4 -10   4   11.23    0.48
   4  10  -3   14.12    0.56
  -4  10   3   13.52    0.59
  -4  10   3   14.46    0.52
   4 -10  -3   13.79    0.55
  -4 -10   3   13.08    0.55
  -4  10   2    5.28    0.29
   4  10  -2    5.70    0.26
   4 -10  -2    5.15    0.25
  -4 -10   2    5.45    0.25
  -4 -10   2    4.36    0.26
   4  10  -1    0.28    0.08
  -4  10   1    0.22    0.04
  -4  10   1    0.11    0.03
  -4  10   1    0.08    0.09
   4 -10  -1    0.12    0.06
  -4 -10   1    0.29    0.06
  -4 -10   1    0.13    0.07
  -4  10   0  106.63    3.71
  -4  10   0  109.42    3.62
  -4 -10   0  103.81    3.79
   4 -10   0  104.66    3.68
  -4 -10   0  110.65    3.65
  -4  10  -1    1.01    0.07
  -4  10  -1    0.82    0.13
  -4 -10  -1    0.77    0.16
  -4 -10  -1    0.93    0.06
   4 -10   1    0.98    0.11
  -4  10  -2   23.27    0.81
  -4  10  -2   22.59    0.89
  -4 -10  -2   21.95    1.00
   4 -10   2   22.67    0.85
  -4  10  -3   13.78    0.52
  -4  10  -3   13.72    0.60
  -4 -10  -3   12.27    0.70
   4 -10   3   13.52    0.55
  -4  10  -4    9.02    0.38
  -4  10  -4    8.12    0.44
  -4 -10  -4    8.13    0.56
   4 -10   4    8.66    0.40
  -4  10  -5    9.43    0.45
   4  10   5    8.25    0.44
  -4  10  -5    9.77    0.61
   4 -10   5    9.46    0.43
  -4 -10  -5    9.02    0.61
   4  10   6    9.19    0.47
  -4 -10  -6    9.10    0.64
   4 -10   6    9.76    0.46
   4  11  -6    2.04    0.21
  -4  11   6    2.06    0.18
  -4 -11   6    2.10    0.21
   4  11  -5    3.18    0.24
  -4  11   5    2.96    0.18
  -4 -11   5    3.10    0.23
   4 -11  -5    2.63    0.19
  -4  11   4    6.39    0.28
   4  11  -4    6.11    0.33
  -4  11   4    6.39    0.35
  -4 -11   4    6.29    0.32
   4 -11  -4    6.33    0.31
  -4  11   3   20.72    0.77
  -4  11   3   21.54    0.84
   4  11  -3   20.29    0.80
  -4 -11   3   21.46    0.80
   4 -11  -3   20.53    0.79
  -4  11   2    0.82    0.12
   4  11  -2    1.21    0.12
   4 -11  -2    0.96    0.11
  -4 -11   2    1.08    0.12
   4  11  -1   54.45    1.88
  -4  11   1   52.22    1.90
  -4 -11   1   53.64    1.85
   4 -11  -1   51.84    1.87
  -4  11   0    1.59    0.08
  -4  11   0    1.68    0.17
  -4 -11   0    1.53    0.20
   4 -11   0    1.54    0.13
  -4 -11   0    1.56    0.10
  -4  11  -1   26.45    0.90
  -4  11  -1   25.71    0.98
  -4 -11  -1   25.20    1.08
   4 -11   1   25.20    0.95
  -4 -11  -1   25.43    0.89
  -4  11  -2    2.01    0.12
  -4  11  -2    2.00    0.20
   4 -11   2    1.95    0.16
  -4 -11  -2    1.94    0.27
  -4  11  -3   45.08    1.52
  -4  11  -3   43.55    1.60
  -4 -11  -3   40.01    1.73
   4 -11   3   42.90    1.55
  -4  11  -4    0.87    0.16
  -4 -11  -4    1.27    0.26
   4 -11   4    0.87    0.13
   4 -11   5    1.02    0.15
  -4 -11  -5    1.03    0.26
   4  12  -6    5.46    0.34
  -4  12   6    5.30    0.29
  -4 -12   6    5.94    0.34
   4  12  -5   11.93    0.55
  -4  12   5   11.89    0.49
  -4 -12   5   12.27    0.54
   4  12  -4    7.63    0.38
  -4  12   4    8.04    0.34
  -4  12   4    8.07    0.41
   4 -12  -4    7.63    0.36
  -4 -12   4    8.22    0.39
  -4  12   3   31.72    1.23
   4  12  -3   31.85    1.19
   4 -12  -3   32.32    1.18
  -4 -12   3   32.73    1.18
   4  12  -2    0.49    0.09
  -4  12   2    0.29    0.10
   4 -12  -2    0.34    0.08
  -4 -12   2    0.41    0.08
  -4 -12   2    0.32    0.08
  -4  12   1   10.22    0.46
   4  12  -1   10.53    0.43
  -4  12   1    9.59    0.37
   4 -12  -1    9.55    0.42
  -4 -12   1   10.06    0.39
  -4 -12   1    8.51    0.47
  -4  12   0    0.52    0.12
   4  12   0    0.33    0.09
  -4  12   0    0.47    0.05
  -4 -12   0    0.35    0.06
  -4 -12   0    0.37    0.12
   4 -12   0    0.43    0.08
  -4  12  -1   23.82    0.82
  -4  12  -1   22.90    0.90
  -4 -12  -1   20.24    0.99
   4 -12   1   24.19    0.87
  -4  12  -2   18.78    0.78
  -4 -12  -2   18.57    0.90
   4 -12   2   19.10    0.74
  -4  12  -3    0.97    0.16
   4 -12   3    0.87    0.12
  -4 -12  -3    1.24    0.23
  -4  12  -4    3.05    0.27
  -4 -12  -4    3.01    0.35
   4 -12   4    2.84    0.22
  -4 -12  -5    0.49    0.21
   4 -12   5    0.58    0.12
   4  13  -5   11.50    0.54
  -4  13   5   11.82    0.57
  -4  13   5   11.67    0.49
  -4 -13   5   11.65    0.53
  -4  13   4    2.03    0.17
   4  13  -4    2.55    0.21
  -4  13   4    2.96    0.24
  -4 -13   4    2.66    0.20
   4 -13  -4    2.50    0.19
   4  13  -3    0.20    0.08
  -4  13   3    0.19    0.09
   4 -13  -3    0.08    0.07
  -4 -13   3    0.16    0.08
   4  13  -2   33.12    1.20
  -4  13   2   30.69    1.23
  -4 -13   2   33.20    1.18
   4 -13  -2   31.02    1.18
  -4 -13   2   34.08    1.20
   4  13  -1    0.14    0.07
  -4  13   1    0.05    0.09
  -4  13   1   -0.03    0.06
  -4 -13   1    0.06    0.05
   4 -13  -1    0.08    0.06
  -4 -13   1    0.12    0.09
  -4  13   0  142.04    4.84
  -4 -13   0  143.81    4.75
  -4 -13   0  131.63    4.91
   4 -13   0  141.00    4.80
  -4  13  -1    1.82    0.20
   4 -13   1    2.10    0.17
  -4 -13  -1    2.00    0.25
  -4  13  -2   38.95    1.46
  -4 -13  -2   37.82    1.59
   4 -13   2   40.10    1.43
  -4  13  -3    0.38    0.13
   4 -13   3    0.37    0.10
  -4 -13  -3    0.15    0.12
  -4  13  -4    1.10    0.18
   4 -13   4    0.87    0.14
  -4 -13  -4    0.92    0.23
   4  13   5   -0.13    0.07
  -4 -13  -5   -0.06    0.13
   4 -13   5    0.12    0.10
   4  14  -5    3.19    0.26
  -4  14   5    3.03    0.27
  -4 -14   5    3.32    0.25
   4  14  -4    2.57    0.22
  -4  14   4    2.44    0.24
  -4 -14   4    2.59    0.21
   4  14  -3    0.01    0.07
  -4  14   3    0.01    0.09
  -4 -14   3    0.05    0.07
   4 -14  -3    0.05    0.07
   4  14  -2    0.27    0.08
  -4  14   2    0.10    0.10
   4 -14  -2    0.26    0.08
  -4 -14   2    0.23    0.10
  -4 -14   2    0.20    0.07
  -4  14   1    3.81    0.27
   4  14  -1    4.17    0.24
   4 -14  -1    3.73    0.22
  -4 -14   1    3.79    0.20
   4  14   0    0.94    0.14
  -4  14   0    1.10    0.16
  -4 -14   0    0.72    0.16
   4 -14   0    1.20    0.13
  -4 -14  -1    0.55    0.16
  -4  14  -2    0.40    0.13
   4 -14   2    0.21    0.09
  -4 -14  -2    0.28    0.15
   4  14   3    0.00    0.05
  -4  14  -3    0.25    0.12
   4 -14   3    0.11    0.08
  -4 -14  -3    0.19    0.13
  -4 -14  -4    2.14    0.33
   4 -14   4    2.22    0.21
   4  15  -5    0.56    0.14
  -4  15   5    0.47    0.14
  -4 -15   5    0.43    0.12
   4  15  -4    1.58    0.19
  -4  15   4    1.45    0.20
  -4 -15   4    1.43    0.17
   4  15  -3    9.96    0.45
  -4  15   3    9.75    0.49
   4 -15  -3    9.00    0.43
  -4 -15   3    9.89    0.44
  -4  15   2    2.77    0.25
   4  15  -2    3.15    0.22
  -4 -15   2    3.02    0.20
   4 -15  -2    3.09    0.20
  -4  15   1   17.84    0.76
   4  15  -1   19.03    0.72
   4 -15  -1   17.12    0.71
  -4 -15   1   17.67    0.68
  -4 -15   1   18.37    0.77
   4  15   0    6.24    0.34
  -4  15   0    6.32    0.36
  -4 -15   0    5.14    0.38
   4 -15   0    6.29    0.31
  -4  15  -1    0.75    0.15
   4 -15   1    0.82    0.12
  -4 -15  -1    0.86    0.19
  -4  15  -2    0.11    0.11
   4  15   2    0.02    0.06
   4 -15   2   -0.04    0.07
  -4 -15  -2    0.13    0.15
  -4  15  -3   -0.10    0.10
   4  15   3   -0.04    0.05
  -4 -15  -3    0.38    0.18
   4 -15   3   -0.06    0.07
   4 -15   4    5.22    0.31
  -4 -15  -4    4.40    0.45
  -4  16   4   12.81    0.64
   4  16  -4   12.94    0.60
  -4 -16   4   13.51    0.58
  -4  16   3    3.15    0.28
   4  16  -3    3.37    0.25
  -4 -16   3    3.35    0.23
   4  16  -2   18.84    0.75
  -4  16   2   18.81    0.80
   4 -16  -2   17.77    0.72
  -4 -16   2   18.27    0.72
   4  16  -1    0.41    0.10
  -4  16   1    0.14    0.11
  -4 -16   1    0.00    0.08
   4 -16  -1    0.08    0.07
   4  16   0    0.79    0.13
  -4  16   0    0.74    0.15
  -4 -16   0    0.42    0.13
   4 -16   0    0.91    0.12
   4  16   1    4.38    0.30
  -4 -16  -1    4.52    0.37
  -4  16  -2    7.51    0.44
  -4 -16  -2    7.20    0.52
   4 -16   2    7.93    0.39
  -4  16  -3    9.77    0.52
  -4 -16  -3    9.11    0.62
   4 -16   3    9.85    0.47
   4  17  -3    6.93    0.37
  -4  17   3    6.53    0.41
  -4 -17   3    6.79    0.35
  -4  17   2    1.88    0.24
   4  17  -2    1.86    0.19
   4 -17  -2    1.94    0.17
  -4 -17   2    1.79    0.16
  -4  17   1   11.73    0.59
   4  17  -1   12.96    0.55
   4 -17  -1   11.77    0.53
  -4 -17   1   13.69    0.62
   4  17   0   14.08    0.59
  -4  17   0   12.49    0.61
  -4 -17   0   13.84    0.65
   4 -17   0   11.83    0.55
  -4  17  -1   34.08    1.30
   4 -17   1   31.89    1.23
  -4 -17  -2    2.96    0.33
  -4  18   2    0.89    0.18
   4  18  -2    1.30    0.17
  -4  18   1    2.09    0.25
   4  18  -1    2.39    0.21
   4 -18  -1    2.41    0.20
  -4  18   0    0.03    0.11
   4  18   0   -0.01    0.09
   4 -18   0    0.05    0.08
  -4 -18   0   -0.06    0.09
   4  18   1    0.52    0.14
  -4  18  -1    0.52    0.16
  -4 -18  -1    0.51    0.16
   4 -18   1    0.52    0.11
  -4  18  -2    1.45    0.22
   5   0  -7    0.12    0.10
  -5   0   7    0.24    0.10
   5   0  -6   35.39    1.32
  -5   0   6   35.40    1.30
  -5   0   5   -0.05    0.04
   5   0  -5    0.06    0.07
  -5   0   5    0.08    0.06
   5   0  -4   36.01    1.30
  -5   0   4   36.39    1.28
  -5   0   4   36.72    1.31
  -5   0   3    0.06    0.05
   5   0  -3    0.06    0.05
   5   0  -3    0.03    0.04
   5   0  -2   28.79    1.06
   5   0  -2   29.92    1.04
  -5   0   2   29.75    1.06
  -5   0   1    0.43    0.09
  -5   0   0  132.10    4.23
  -5   0   0  120.06    4.30
   5   0   0  122.27    4.26
  -5   0  -1   -0.04    0.07
   5   0   1   -0.03    0.01
   5   0   1   -0.02    0.04
   5   0   2   17.66    0.60
  -5   0  -2   15.70    0.69
   5   0   2   16.17    0.61
   5   0   3    0.03    0.04
   5   0   3   -0.03    0.04
  -5   0  -3    0.07    0.09
   5   0   4    0.03    0.05
  -5   0  -4   -0.01    0.09
   5   0   4    0.03    0.05
   5   0   5    0.01    0.04
   5   0   5    0.02    0.06
  -5   0  -5   -0.15    0.10
  -5   0  -6   10.91    0.62
   5   0   6   11.30    0.47
   5   1  -7   49.26    1.82
  -5   1   7   50.23    1.79
  -5  -1   7   49.22    1.80
   5  -1  -7   48.88    1.81
   5   1  -6    0.29    0.10
  -5   1   6    0.50    0.09
   5  -1  -6    0.65    0.12
  -5  -1   6    0.59    0.11
   5   1  -5   40.08    1.43
  -5   1   5   39.95    1.43
  -5   1   5   39.13    1.40
  -5  -1   5   39.69    1.43
   5  -1  -5   39.94    1.43
  -5  -1   5   38.73    1.39
  -5   1   4   50.74    1.78
   5   1  -4   50.68    1.80
  -5   1   4   51.18    1.80
  -5  -1   4   51.22    1.80
   5  -1  -4   51.18    1.79
  -5  -1   4   50.76    1.77
   5   1  -3   47.20    1.67
  -5   1   3   47.07    1.67
  -5  -1   3   47.77    1.68
   5  -1  -3   49.41    1.69
   5  -1  -3   48.06    1.66
  -5  -1   3   46.97    1.66
   5   1  -2    3.22    0.18
  -5   1   2    3.54    0.19
   5   1  -2    3.53    0.16
  -5  -1   2    3.60    0.19
   5  -1  -2    3.59    0.16
   5  -1  -2    3.54    0.19
   5   1  -1   17.86    0.63
   5   1  -1   18.25    0.66
  -5   1   1   17.77    0.68
   5  -1  -1   18.31    0.63
  -5  -1   1   17.36    0.68
   5  -1  -1   17.46    0.66
  -5   1   0   34.49    1.25
   5   1   0   34.48    1.21
  -5   1   0   36.21    1.18
  -5  -1   0   34.31    1.26
   5  -1   0   32.69    1.18
   5  -1   0   33.72    1.21
   5   1   1   65.01    2.31
  -5   1  -1   70.34    2.29
  -5   1  -1   67.91    2.38
   5  -1   1   67.53    2.32
  -5  -1  -1   65.33    2.39
  -5   1  -2   82.08    3.02
   5   1   2   89.89    2.93
   5   1   2   84.14    2.92
  -5  -1  -2   82.50    3.03
   5  -1   2   84.08    2.93
   5  -1   2   90.28    2.92
   5   1   3   27.67    0.97
   5   1   3   28.37    0.98
  -5   1  -3   26.82    1.09
   5  -1   3   27.10    0.97
   5  -1   3   27.86    0.98
  -5  -1  -3   26.89    1.10
   5   1   4   15.88    0.59
  -5   1  -4   15.64    0.71
   5   1   4   15.52    0.57
  -5  -1  -4   15.23    0.73
   5  -1   4   15.34    0.58
   5  -1   4   15.34    0.58
   5   1   5    0.59    0.08
  -5   1  -5    0.67    0.17
   5   1   5    0.64    0.10
   5  -1   5    0.86    0.10
  -5  -1  -5    0.76    0.18
   5  -1   5    0.73    0.10
   5   1   6    8.97    0.40
  -5   1  -6    8.19    0.52
  -5  -1  -6    8.61    0.55
   5  -1   6    8.97    0.39
  -5   2   7    0.09    0.08
   5   2  -7    0.10    0.10
   5  -2  -7    0.06    0.11
  -5  -2   7    0.06    0.09
  -5   2   6    0.95    0.12
   5   2  -6    0.77    0.13
   5  -2  -6    0.79    0.12
  -5  -2   6    0.86    0.13
   5   2  -5   13.34    0.56
  -5   2   5   13.60    0.53
  -5   2   5   14.03    0.55
   5  -2  -5   13.74    0.56
  -5  -2   5   13.59    0.56
  -5   2   4   23.26    0.83
   5   2  -4   22.44    0.84
  -5   2   4   22.28    0.84
   5  -2  -4   23.66    0.84
  -5  -2   4   21.09    0.84
  -5  -2   4   22.11    0.84
  -5  -2   4   22.90    0.81
  -5   2   3  140.51    4.85
   5   2  -3  142.60    4.84
  -5  -2   3  140.82    4.85
   5  -2  -3  144.54    4.84
  -5  -2   3  143.73    4.84
   5  -2  -3  139.67    4.86
  -5   2   2    0.76    0.09
   5   2  -2    0.39    0.06
   5   2  -2    0.65    0.07
  -5  -2   2    0.62    0.08
   5  -2  -2    0.65    0.06
   5  -2  -2    0.58    0.08
   5   2  -1   28.80    1.00
   5   2  -1   27.80    1.02
  -5   2   1   28.22    1.04
  -5  -2   1   28.28    1.05
   5  -2  -1   29.67    0.98
   5  -2  -1   28.45    1.02
   5   2   0   23.72    0.86
  -5   2   0   25.04    0.91
  -5   2   0   24.71    0.82
   5  -2   0   22.89    0.86
  -5  -2   0   23.10    0.91
   5  -2   0   24.41    0.82
  -5   2  -1  128.36    4.45
   5   2   1  128.12    4.38
   5  -2   1  125.99    4.39
  -5  -2  -1  122.80    4.46
   5  -2   1  138.01    4.37
  -5   2  -2   11.53    0.52
   5   2   2   11.16    0.45
   5   2   2   11.56    0.43
   5  -2   2   11.82    0.45
   5  -2   2   12.10    0.43
  -5  -2  -2   11.22    0.54
   5   2   3   70.16    2.39
  -5   2  -3   66.99    2.50
   5   2   3   71.58    2.40
  -5  -2  -3   67.06    2.53
   5  -2   3   70.39    2.39
   5  -2   3   70.85    2.40
  -5   2  -4    5.15    0.35
   5   2   4    5.61    0.23
   5   2   4    5.30    0.25
  -5  -2  -4    5.28    0.38
   5  -2   4    5.40    0.25
   5  -2   4    5.31    0.24
  -5   2  -5   41.71    1.63
   5   2   5   42.13    1.48
   5  -2   5   41.08    1.47
   5  -2   5   42.50    1.48
  -5  -2  -5   39.78    1.65
   5   2   6    5.00    0.27
  -5   2  -6    4.40    0.38
  -5  -2  -6    4.96    0.41
   5  -2   6    5.07    0.25
   5  -2   6    5.20    0.27
  -5   3   7   33.34    1.24
   5   3  -7   32.75    1.27
  -5  -3   7   33.11    1.26
   5  -3  -7   33.67    1.27
  -5   3   6   12.27    0.50
   5   3  -6   11.81    0.53
  -5   3   6   12.14    0.51
  -5  -3   6   12.34    0.53
   5  -3  -6   12.15    0.53
  -5   3   5    0.63    0.09
   5   3  -5    0.88    0.12
  -5   3   5    0.79    0.10
   5  -3  -5    0.69    0.10
  -5  -3   5    0.78    0.11
   5   3  -4  125.32    4.32
  -5   3   4  126.54    4.31
  -5  -3   4  125.09    4.27
   5  -3  -4  128.63    4.33
  -5  -3   4  124.00    4.32
   5  -3  -4  124.37    4.30
   5   3  -3    0.20    0.06
  -5  -3   3    0.22    0.06
  -5  -3   3    0.18    0.06
   5  -3  -3    0.20    0.07
   5  -3  -3    0.16    0.05
   5   3  -2  112.19    3.78
  -5   3   2  110.36    3.80
  -5   3   2  109.50    3.76
   5  -3  -2  111.32    3.80
  -5  -3   2  108.74    3.79
   5  -3  -2  113.37    3.76
  -5  -3   2  109.77    3.80
   5   3  -1    8.83    0.34
   5   3  -1    8.19    0.32
  -5   3   1    8.10    0.36
  -5  -3   1    7.95    0.37
   5  -3  -1    8.55    0.35
   5  -3  -1    8.33    0.30
   5   3   0   32.72    1.14
  -5   3   0   32.61    1.19
  -5  -3   0   32.31    1.21
   5  -3   0   32.29    1.15
   5   3   1    5.46    0.23
  -5   3  -1    5.19    0.28
   5  -3   1    5.47    0.24
  -5  -3  -1    5.28    0.31
   5  -3   1    5.55    0.21
   5   3   2   95.58    3.25
  -5   3  -2   95.06    3.35
   5  -3   2   95.80    3.27
   5  -3   2  100.35    3.24
  -5  -3  -2   89.98    3.37
   5   3   3    3.28    0.15
  -5   3  -3    2.86    0.25
   5   3   3    3.21    0.17
  -5  -3  -3    2.81    0.26
   5  -3   3    2.98    0.15
  -5   3  -4   14.46    0.68
   5   3   4   15.37    0.55
   5   3   4   15.29    0.58
   5  -3   4   14.83    0.58
  -5  -3  -4   14.81    0.73
   5  -3   4   14.77    0.56
  -5   3  -5    1.08    0.19
   5   3   5    1.29    0.14
   5  -3   5    1.26    0.12
  -5  -3  -5    1.09    0.21
   5  -3   5    1.14    0.12
   5   3   6    7.62    0.35
  -5   3  -6    7.40    0.48
   5  -3   6    6.89    0.34
  -5  -3  -6    6.66    0.49
   5  -3   6    7.37    0.34
   5   4  -7    1.82    0.22
  -5   4   7    2.20    0.18
   5  -4  -7    1.85    0.21
  -5  -4   7    2.18    0.22
  -5   4   6   16.82    0.67
  -5   4   6   17.07    0.67
   5   4  -6   16.78    0.70
  -5  -4   6   16.32    0.68
   5  -4  -6   17.08    0.69
  -5   4   5   17.75    0.69
  -5   4   5   17.55    0.69
   5   4  -5   17.38    0.70
  -5  -4   5   17.61    0.70
   5  -4  -5   17.71    0.69
   5   4  -4   34.57    1.26
  -5   4   4   34.96    1.26
  -5  -4   4   34.31    1.26
   5  -4  -4   34.77    1.26
   5  -4  -4   34.76    1.24
   5   4  -3    4.30    0.22
  -5   4   3    4.85    0.24
   5   4  -3    4.71    0.19
  -5  -4   3    4.70    0.23
   5  -4  -3    4.59    0.24
  -5  -4   3    4.43    0.21
   5  -4  -3    4.49    0.21
  -5   4   2   20.53    0.78
   5   4  -2   20.67    0.75
  -5   4   2   20.60    0.72
  -5  -4   2   20.81    0.76
   5  -4  -2   20.61    0.77
   5  -4  -2   20.92    0.73
  -5  -4   2   20.81    0.78
  -5   4   1    3.91    0.22
  -5  -4   1    3.97    0.23
   5  -4  -1    3.84    0.20
  -5  -4   1    3.94    0.18
  -5   4   0   86.33    2.98
   5   4   0   86.75    2.94
   5  -4   0   86.24    2.95
  -5  -4   0   83.71    3.01
  -5   4  -1    1.09    0.13
   5   4   1    1.04    0.08
   5  -4   1    1.03    0.09
  -5  -4  -1    0.88    0.13
   5  -4   1    1.05    0.06
   5   4   2  154.95    5.25
  -5   4  -2  151.25    5.34
  -5  -4  -2  148.74    5.39
   5  -4   2  168.39    5.25
   5  -4   2  153.73    5.25
  -5  -4  -2  151.69    5.24
   5  -4   2  154.93    5.28
   5   4   3    1.44    0.13
  -5   4  -3    1.56    0.19
   5   4   3    1.22    0.08
   5  -4   3    1.36    0.10
   5  -4   3    1.30    0.12
  -5  -4  -3    1.28    0.19
   5   4   4    6.89    0.31
  -5   4  -4    6.56    0.40
  -5  -4  -4    6.82    0.45
   5  -4   4    6.68    0.29
   5  -4   4    6.92    0.31
   5   4   5    6.13    0.30
  -5   4  -5    5.58    0.39
   5  -4   5    5.97    0.29
   5  -4   5    6.20    0.29
  -5  -4  -5    5.73    0.44
   5   4   6   -0.07    0.07
  -5   4  -6    0.02    0.11
   5  -4   6   -0.04    0.07
   5  -4   6    0.10    0.07
  -5  -4  -6   -0.04    0.12
  -5   5   7   44.19    1.64
   5   5  -7   45.45    1.69
  -5  -5   7   46.39    1.68
  -5   5   6   13.88    0.58
  -5   5   6   13.83    0.57
   5   5  -6   13.95    0.61
   5  -5  -6   14.23    0.59
  -5  -5   6   14.40    0.60
  -5   5   5    6.81    0.32
  -5   5   5    6.76    0.33
   5   5  -5    6.79    0.34
  -5  -5   5    7.22    0.34
   5  -5  -5    6.86    0.32
   5   5  -4   29.17    1.07
  -5   5   4   29.52    1.08
   5  -5  -4   28.89    1.05
   5  -5  -4   28.69    1.08
  -5  -5   4   29.45    1.07
  -5   5   3   18.76    0.73
   5   5  -3   18.85    0.72
   5   5  -3   19.64    0.67
   5  -5  -3   19.19    0.69
   5  -5  -3   18.80    0.73
  -5  -5   3   18.60    0.72
  -5  -5   3   19.79    0.71
   5   5  -2    1.16    0.10
  -5   5   2    1.14    0.07
  -5   5   2    1.10    0.13
  -5  -5   2    1.08    0.10
   5  -5  -2    1.26    0.11
  -5  -5   2    1.48    0.13
  -5   5   1    2.45    0.17
   5   5  -1    2.51    0.14
   5  -5  -1    2.40    0.15
  -5  -5   1    2.45    0.18
  -5  -5   1    2.60    0.14
   5   5   0   -0.07    0.04
  -5   5   0    0.02    0.07
  -5  -5   0   -0.02    0.07
   5  -5   0    0.06    0.05
   5   5   1    0.00    0.03
  -5   5  -1    0.08    0.08
   5   5   1    0.02    0.03
  -5  -5  -1    0.02    0.03
  -5  -5  -1   -0.02    0.07
   5  -5   1    0.02    0.04
   5   5   2    9.82    0.36
  -5   5  -2    9.35    0.45
  -5  -5  -2    9.41    0.50
   5  -5   2    9.92    0.35
  -5  -5  -2    9.60    0.35
   5  -5   2    9.94    0.36
   5  -5   2    9.69    0.40
   5   5   3    0.53    0.09
  -5   5  -3    0.52    0.12
   5   5   3    0.63    0.05
  -5  -5  -3    0.65    0.17
   5  -5   3    0.69    0.08
   5  -5   3    0.48    0.08
  -5   5  -4    3.96    0.29
   5   5   4    3.48    0.21
  -5  -5  -4    3.04    0.31
   5  -5   4    3.26    0.18
   5  -5   4    3.50    0.20
   5   5   5    5.12    0.27
  -5   5  -5    4.61    0.35
   5  -5   5    4.72    0.24
   5  -5   5    4.72    0.25
  -5  -5  -5    4.47    0.39
  -5   5  -6    8.15    0.50
   5   5   6    7.97    0.39
   5  -5   6    8.18    0.38
  -5  -5  -6    8.35    0.57
   5  -5   6    8.28    0.38
  -5   6   7    1.64    0.16
   5   6  -7    1.25    0.18
  -5   6   7    1.53    0.15
  -5  -6   7    1.36    0.18
  -5   6   6    0.58    0.12
   5   6  -6    0.61    0.13
  -5   6   6    0.71    0.10
  -5   6   6    0.65    0.10
  -5  -6   6    0.55    0.12
   5   6  -5    6.29    0.33
  -5   6   5    6.26    0.33
  -5   6   5    6.53    0.30
  -5  -6   5    6.26    0.32
   5   6  -4    0.38    0.09
  -5   6   4    0.39    0.10
  -5  -6   4    0.34    0.08
   5  -6  -4    0.36    0.09
  -5   6   3   24.92    0.94
   5   6  -3   24.75    0.92
  -5   6   3   24.55    0.88
   5  -6  -3   25.40    0.93
  -5  -6   3   25.07    0.92
   5   6  -2    4.17    0.21
  -5   6   2    4.19    0.17
  -5   6   2    4.40    0.24
  -5   6   2    4.14    0.17
   5  -6  -2    4.48    0.22
  -5  -6   2    4.56    0.21
  -5  -6   2    4.30    0.24
   5   6  -1   39.74    1.38
  -5   6   1   38.92    1.41
  -5  -6   1   39.60    1.45
  -5  -6   1   39.12    1.37
   5  -6  -1   38.60    1.39
  -5   6   0  154.70    5.37
   5  -6   0  156.42    5.34
  -5  -6   0  155.22    5.31
  -5  -6   0  159.37    5.42
  -5   6  -1    0.58    0.11
  -5  -6  -1    0.58    0.06
  -5  -6  -1    0.55    0.05
  -5  -6  -1    0.64    0.14
   5  -6   1    0.39    0.07
  -5   6  -2   39.20    1.48
   5  -6   2   38.45    1.42
  -5  -6  -2   38.12    1.55
  -5  -6  -2   42.28    1.39
   5  -6   2   41.18    1.39
   5  -6   2   40.54    1.37
  -5   6  -3    0.79    0.15
   5   6   3    0.51    0.10
  -5  -6  -3    0.75    0.18
   5  -6   3    0.71    0.07
   5  -6   3    0.88    0.10
  -5   6  -4   46.07    1.76
   5   6   4   49.46    1.67
  -5  -6  -4   45.39    1.84
   5  -6   4   45.72    1.66
   5  -6   4   45.93    1.63
  -5   6  -5    6.78    0.43
   5   6   5    6.72    0.33
  -5  -6  -5    6.51    0.49
   5  -6   5    6.68    0.33
   5  -6   5    6.61    0.31
   5   6   6    3.83    0.25
  -5   6  -6    3.97    0.34
   5  -6   6    3.55    0.23
  -5  -6  -6    3.43    0.38
   5  -6   6    3.65    0.28
  -5   7   7    0.18    0.11
  -5   7   7    0.37    0.09
   5   7  -7    0.28    0.12
  -5  -7   7    0.22    0.12
  -5   7   6    9.00    0.44
  -5   7   6    8.76    0.40
   5   7  -6    9.16    0.44
  -5   7   6    8.85    0.40
  -5  -7   6    9.00    0.43
  -5   7   5    1.60    0.15
  -5   7   5    1.60    0.18
   5   7  -5    1.84    0.18
  -5  -7   5    1.64    0.17
  -5   7   4   49.04    1.74
  -5   7   4   48.12    1.69
   5   7  -4   47.46    1.73
  -5  -7   4   48.21    1.72
   5  -7  -4   48.63    1.73
  -5   7   3    7.81    0.31
  -5   7   3    8.03    0.37
   5   7  -3    8.06    0.35
   5  -7  -3    8.05    0.36
  -5  -7   3    7.51    0.32
  -5  -7   3    7.90    0.35
  -5   7   2   40.87    1.43
  -5   7   2   41.56    1.42
  -5   7   2   41.03    1.50
   5   7  -2   41.35    1.47
   5  -7  -2   41.95    1.49
  -5  -7   2   43.20    1.52
  -5  -7   2   41.45    1.47
  -5   7   1   71.12    2.61
   5   7  -1   75.88    2.59
   5  -7  -1   74.07    2.59
  -5  -7   1   76.08    2.57
  -5  -7   1   76.62    2.66
  -5   7   0    4.49    0.27
   5  -7   0    4.54    0.23
  -5  -7   0    4.62    0.30
  -5  -7   0    4.51    0.20
  -5   7  -1    0.22    0.09
  -5  -7  -1    0.28    0.04
   5  -7   1    0.19    0.06
  -5  -7  -1    0.38    0.04
  -5  -7  -1    0.32    0.13
  -5   7  -2   13.59    0.60
   5  -7   2   13.86    0.49
  -5  -7  -2   13.70    0.48
   5  -7   2   13.49    0.54
  -5   7  -3   19.00    0.82
  -5  -7  -3   19.16    0.90
   5  -7   3   20.39    0.75
   5  -7   3   19.77    0.70
  -5   7  -4   26.69    1.06
   5   7   4   25.99    0.98
   5  -7   4   25.69    0.93
  -5  -7  -4   24.12    1.14
   5  -7   4   25.92    0.96
   5   7   5    0.60    0.12
  -5   7  -5    0.34    0.14
  -5  -7  -5    0.69    0.20
   5  -7   5    0.67    0.11
   5  -7   5    0.70    0.10
   5   7   6    1.06    0.15
  -5  -7  -6    1.02    0.24
   5  -7   6    1.33    0.15
  -5   8   7    0.19    0.09
   5   8  -7    0.13    0.11
  -5  -8   7    0.19    0.11
  -5   8   6    0.90    0.15
  -5   8   6    0.90    0.12
   5   8  -6    0.75    0.14
  -5   8   6    0.84    0.12
  -5  -8   6    0.78    0.14
  -5   8   5   32.83    1.18
   5   8  -5   32.20    1.22
  -5   8   5   32.53    1.23
  -5  -8   5   34.04    1.22
   5  -8  -5   31.33    1.21
  -5   8   4    6.18    0.27
   5   8  -4    6.16    0.31
  -5   8   4    6.29    0.33
   5  -8  -4    6.61    0.32
  -5  -8   4    6.14    0.31
  -5   8   3   59.38    2.01
  -5   8   3   59.56    2.09
   5   8  -3   58.32    2.06
  -5  -8   3   60.19    2.06
  -5  -8   3   54.91    2.02
   5  -8  -3   58.97    2.07
   5   8  -2   33.36    1.24
  -5   8   2   36.44    1.19
  -5   8   2   34.36    1.19
  -5   8   2   34.29    1.27
   5  -8  -2   34.79    1.25
  -5  -8   2   33.99    1.23
  -5   8   1    1.35    0.15
   5   8  -1    1.50    0.13
  -5  -8   1    1.36    0.17
  -5  -8   1    1.33    0.11
   5  -8  -1    1.30    0.12
   5   8   0    0.03    0.06
  -5   8   0    0.13    0.09
  -5  -8   0    0.26    0.12
   5  -8   0    0.22    0.06
  -5  -8   0    0.23    0.05
  -5   8  -1   25.49    0.98
  -5  -8  -1   25.97    1.07
  -5  -8  -1   25.30    0.89
   5  -8   1   25.29    0.94
  -5   8  -2    6.47    0.35
   5  -8   2    6.29    0.30
   5  -8   2    6.48    0.24
  -5  -8  -2    6.29    0.42
  -5   8  -3   56.05    2.00
  -5  -8  -3   52.65    2.10
   5  -8   3   54.70    1.93
  -5   8  -4    0.21    0.12
   5   8   4    0.22    0.10
   5  -8   4    0.40    0.09
  -5  -8  -4    0.24    0.15
   5   8   5    3.24    0.24
  -5   8  -5    3.27    0.30
   5  -8   5    3.15    0.21
  -5  -8  -5    2.89    0.35
   5   8   6    0.21    0.11
  -5  -8  -6    0.03    0.15
   5  -8   6    0.21    0.09
   5   9  -6   11.69    0.54
  -5   9   6   10.87    0.48
  -5   9   6   11.65    0.54
  -5   9   6   11.71    0.48
  -5  -9   6   11.51    0.53
   5   9  -5   16.02    0.67
  -5   9   5   15.71    0.61
  -5   9   5   16.08    0.68
   5  -9  -5   15.93    0.65
  -5  -9   5   16.19    0.66
  -5   9   4    1.05    0.15
   5   9  -4    1.15    0.14
  -5   9   4    1.28    0.11
   5  -9  -4    1.16    0.14
  -5  -9   4    0.99    0.13
  -5   9   3   62.91    2.14
   5   9  -3   61.30    2.19
  -5   9   3   61.56    2.22
  -5  -9   3   62.86    2.19
   5  -9  -3   63.15    2.20
  -5   9   2   -0.01    0.03
  -5   9   2    0.16    0.09
   5   9  -2    0.01    0.05
   5  -9  -2    0.00    0.05
  -5  -9   2    0.04    0.06
  -5  -9   2    0.01    0.06
   5   9  -1    1.30    0.12
  -5   9   1    1.68    0.17
   5  -9  -1    1.14    0.12
  -5  -9   1    1.18    0.10
   5   9   0    0.51    0.10
  -5   9   0    0.53    0.12
  -5  -9   0    0.71    0.08
  -5  -9   0    0.57    0.14
   5  -9   0    0.76    0.10
  -5   9  -1   26.08    1.01
   5  -9   1   25.61    0.97
  -5  -9  -1   26.54    0.91
  -5  -9  -1   26.02    1.10
  -5   9  -2    1.20    0.16
   5  -9   2    1.16    0.13
  -5  -9  -2    1.23    0.22
   5   9   3   -0.06    0.05
  -5   9  -3    0.07    0.07
  -5   9  -3    0.08    0.10
  -5  -9  -3    0.03    0.13
   5  -9   3    0.20    0.08
  -5   9  -4   11.68    0.57
  -5  -9  -4   10.81    0.66
   5  -9   4   11.20    0.49
  -5   9  -5    0.58    0.16
   5   9   5    0.46    0.13
   5  -9   5    0.56    0.11
  -5  -9  -5    0.55    0.20
   5  10  -6    0.29    0.11
  -5  10   6    0.26    0.08
  -5  10   6    0.21    0.08
  -5  10   6    0.20    0.12
  -5 -10   6    0.23    0.11
  -5  10   5    0.07    0.06
   5  10  -5   -0.03    0.08
  -5  10   5    0.02    0.09
   5 -10  -5    0.05    0.07
  -5 -10   5    0.32    0.11
   5  10  -4    2.54    0.20
  -5  10   4    2.70    0.15
  -5  10   4    2.54    0.22
   5 -10  -4    2.95    0.20
  -5 -10   4    2.57    0.20
  -5  10   3    1.62    0.18
   5  10  -3    1.68    0.16
  -5  10   3    1.73    0.11
  -5 -10   3    1.64    0.15
   5 -10  -3    1.95    0.16
   5  10  -2   17.29    0.69
  -5  10   2   17.22    0.72
   5 -10  -2   18.03    0.70
  -5 -10   2   17.34    0.72
  -5 -10   2   19.30    0.68
   5  10  -1    3.87    0.22
  -5  10   1    3.74    0.25
   5 -10  -1    3.66    0.21
  -5 -10   1    3.70    0.19
  -5 -10   1    3.52    0.26
  -5  10   0   35.38    1.33
  -5 -10   0   36.64    1.25
   5 -10   0   35.50    1.30
  -5  10  -1    0.56    0.13
  -5 -10  -1    0.44    0.05
  -5 -10  -1    0.41    0.15
   5 -10   1    0.62    0.10
  -5  10  -2    1.84    0.20
  -5 -10  -2    1.53    0.23
   5 -10   2    1.67    0.15
  -5  10  -3    0.06    0.10
   5  10   3   -0.01    0.04
  -5 -10  -3   -0.13    0.09
   5 -10   3    0.28    0.09
  -5  10  -4   20.93    0.88
   5 -10   4   20.13    0.80
  -5 -10  -4   19.68    1.00
   5  10   5   -0.14    0.10
  -5  10  -5   -0.09    0.12
   5 -10   5    0.06    0.09
  -5 -10  -5   -0.08    0.14
  -5  11   6    0.21    0.13
  -5  11   6    0.38    0.09
   5  11  -6    0.23    0.12
  -5 -11   6    0.14    0.11
   5  11  -5   25.11    0.99
  -5  11   5   25.00    0.92
  -5  11   5   25.09    1.01
  -5 -11   5   26.21    0.98
   5 -11  -5   24.20    0.96
  -5  11   4    0.42    0.07
   5  11  -4    0.35    0.10
  -5  11   4    0.36    0.12
   5 -11  -4    0.44    0.10
  -5 -11   4    0.37    0.11
   5  11  -3   33.83    1.27
  -5  11   3   35.20    1.31
  -5 -11   3   35.55    1.26
   5 -11  -3   33.66    1.27
  -5  11   2    0.21    0.09
   5  11  -2    0.30    0.08
  -5 -11   2    0.35    0.08
   5 -11  -2    0.30    0.08
  -5 -11   2    0.27    0.09
  -5  11   1   32.93    1.23
   5  11  -1   33.79    1.19
   5 -11  -1   31.43    1.19
  -5 -11   1   32.62    1.16
  -5 -11   1   31.26    1.27
  -5  11   0    0.15    0.10
   5  11   0    0.24    0.09
  -5 -11   0    0.14    0.10
   5 -11   0    0.31    0.08
  -5 -11   0    0.24    0.05
  -5  11  -1    7.45    0.39
  -5 -11  -1    6.67    0.45
   5 -11   1    7.03    0.34
   5  11   2   -0.13    0.05
  -5  11  -2    0.00    0.09
  -5 -11  -2   -0.01    0.11
   5 -11   2    0.02    0.07
  -5  11  -3    0.57    0.15
   5 -11   3    0.42    0.10
  -5 -11  -3    0.55    0.18
  -5  11  -4   29.77    1.20
   5 -11   4   30.60    1.13
  -5 -11  -4   28.33    1.33
  -5 -11  -5    2.88    0.39
   5 -11   5    3.09    0.24
   5  12  -6    1.68    0.21
  -5  12   6    1.61    0.22
  -5 -12   6    1.72    0.20
  -5  12   5    9.35    0.48
   5  12  -5    9.03    0.46
   5 -12  -5    8.86    0.43
  -5 -12   5    9.56    0.45
   5  12  -4   13.58    0.59
  -5  12   4   13.12    0.62
   5 -12  -4   13.26    0.57
  -5 -12   4   14.17    0.58
   5  12  -3   16.19    0.67
  -5  12   3   16.66    0.71
  -5 -12   3   17.70    0.66
   5 -12  -3   15.71    0.66
   5  12  -2    0.03    0.06
  -5  12   2    0.05    0.09
   5 -12  -2    0.09    0.07
  -5 -12   2   -0.02    0.06
  -5 -12   2    0.19    0.08
  -5  12   1    1.21    0.16
   5  12  -1    1.29    0.15
  -5 -12   1    1.12    0.18
   5 -12  -1    1.33    0.14
  -5 -12   1    1.17    0.11
  -5  12   0    2.46    0.22
   5  12   0    1.88    0.20
   5 -12   0    2.50    0.18
  -5 -12   0    2.44    0.26
  -5 -12   0    2.49    0.14
  -5  12  -1    0.83    0.15
   5 -12   1    0.87    0.12
  -5 -12  -1    0.80    0.18
  -5  12  -2    6.89    0.39
  -5 -12  -2    7.19    0.49
   5 -12   2    7.11    0.35
  -5  12  -3   25.50    1.03
   5 -12   3   25.48    0.96
  -5 -12  -3   23.52    1.15
  -5  12  -4    9.22    0.51
   5 -12   4    9.57    0.45
  -5 -12  -4    8.91    0.61
  -5 -12  -5    4.19    0.44
   5 -12   5    4.28    0.28
   5  13  -5    0.02    0.10
  -5  13   5   -0.03    0.11
  -5 -13   5    0.07    0.10
  -5  13   4   22.26    0.92
   5  13  -4   21.45    0.88
   5 -13  -4   21.96    0.86
  -5 -13   4   22.64    0.87
  -5  13   3    0.05    0.10
   5  13  -3    0.09    0.07
  -5 -13   3   -0.01    0.07
   5 -13  -3    0.05    0.07
  -5  13   2   24.12    0.98
   5  13  -2   25.24    0.94
  -5 -13   2   24.72    0.91
   5 -13  -2   24.11    0.93
   5  13  -1    2.56    0.18
  -5  13   1    2.36    0.22
   5 -13  -1    1.96    0.17
  -5 -13   1    2.10    0.14
  -5 -13   1    2.04    0.22
   5  13   0    2.09    0.20
  -5  13   0    2.24    0.23
  -5 -13   0    2.65    0.28
   5 -13   0    2.39    0.19
  -5  13  -1    2.54    0.24
  -5 -13  -1    2.32    0.27
   5 -13   1    2.65    0.19
  -5  13  -2    0.52    0.14
  -5 -13  -2    0.90    0.21
   5 -13   2    0.55    0.11
  -5  13  -3    6.29    0.40
  -5 -13  -3    5.49    0.46
   5 -13   3    6.24    0.33
  -5  13  -4    6.96    0.44
  -5 -13  -4    6.93    0.54
   5 -13   4    6.82    0.37
   5  14  -5    1.14    0.18
  -5  14   5    0.92    0.18
  -5 -14   5    1.21    0.17
  -5  14   4    1.52    0.21
   5  14  -4    1.62    0.19
   5 -14  -4    1.51    0.17
  -5 -14   4    1.40    0.16
   5  14  -3    1.81    0.18
  -5  14   3    1.76    0.22
   5 -14  -3    1.73    0.17
  -5 -14   3    1.85    0.17
  -5  14   2    0.38    0.12
   5  14  -2    0.53    0.10
   5 -14  -2    0.56    0.10
  -5 -14   2    0.37    0.09
   5  14  -1    0.65    0.11
  -5  14   1    0.66    0.14
  -5 -14   1    0.66    0.09
   5 -14  -1    0.67    0.11
  -5 -14   1    0.67    0.15
   5  14   0    5.47    0.32
  -5  14   0    5.06    0.33
   5 -14   0    5.37    0.29
  -5 -14   0    5.54    0.39
  -5  14  -1    2.64    0.25
   5 -14   1    2.67    0.20
  -5 -14  -1    2.75    0.30
  -5  14  -2   10.10    0.52
   5 -14   2   10.45    0.47
  -5 -14  -2    9.90    0.62
  -5  14  -3   11.94    0.59
   5 -14   3   11.53    0.52
  -5 -14  -3   11.40    0.70
  -5  14  -4   15.28    0.84
   5 -14   4   14.48    0.64
  -5 -14  -4   13.91    0.84
   5  15  -4   17.11    0.73
  -5  15   4   16.58    0.77
  -5 -15   4   17.48    0.71
  -5  15   3    0.58    0.15
   5  15  -3    0.59    0.13
   5 -15  -3    0.64    0.12
  -5 -15   3    0.81    0.12
   5  15  -2    0.29    0.09
  -5  15   2    0.23    0.12
  -5 -15   2    0.38    0.09
   5 -15  -2    0.25    0.09
  -5  15   1    0.59    0.14
   5  15  -1    0.72    0.12
  -5 -15   1    0.31    0.12
   5 -15  -1    0.66    0.11
  -5  15   0    4.55    0.32
   5  15   0    4.70    0.30
  -5 -15   0    4.27    0.35
   5 -15   0    4.53    0.27
  -5  15  -1    0.99    0.17
   5  15   1    0.51    0.13
  -5 -15  -1    0.98    0.23
   5 -15   1    1.07    0.14
  -5  15  -2    1.25    0.20
   5 -15   2    1.40    0.17
  -5 -15  -2    1.39    0.26
  -5  15  -3    3.98    0.33
   5 -15   3    4.06    0.27
  -5 -15  -3    3.19    0.37
   5  16  -4    0.17    0.11
  -5  16   4    0.17    0.13
  -5  16   3   -0.10    0.11
   5  16  -3   -0.01    0.09
  -5 -16   3    0.17    0.09
   5 -16  -3    0.07    0.08
  -5  16   2    0.95    0.18
   5  16  -2    1.18    0.16
  -5 -16   2    0.95    0.13
   5 -16  -2    0.88    0.13
  -5  16   1    0.02    0.11
   5  16  -1    0.09    0.08
   5 -16  -1    0.06    0.07
  -5 -16   1    0.12    0.10
   5  16   0    7.11    0.38
  -5  16   0    6.68    0.41
   5 -16   0    6.91    0.36
  -5 -16   0    6.09    0.43
  -5  16  -1    6.15    0.39
  -5 -16  -1    5.77    0.45
   5 -16   1    5.95    0.33
  -5  16  -2    9.68    0.52
  -5 -16  -2    9.02    0.60
   5 -16   2   10.03    0.47
  -5  16  -3    2.74    0.30
  -5 -16  -3    3.36    0.39
   5 -16   3    3.02    0.25
  -5  17   3    4.25    0.34
   5  17  -3    4.12    0.29
  -5 -17   3    4.55    0.27
   5  17  -2    0.34    0.11
  -5  17   2    0.32    0.14
   5 -17  -2    0.35    0.10
   5  17  -1    2.08    0.20
  -5  17   1    1.96    0.24
   5 -17  -1    1.95    0.18
   5  17   0    0.49    0.13
  -5  17   0    0.45    0.15
  -5 -17   0    0.18    0.12
   5 -17   0    0.45    0.11
   5  17   1    0.19    0.12
  -5  17  -1    0.01    0.13
  -5 -17  -1    0.21    0.15
   5 -17   1    0.22    0.10
   5  17   2    0.10    0.11
  -5  17  -2    0.22    0.15
   5 -17   2    0.21    0.10
  -5 -17  -2    0.36    0.17
  -5  18   1    4.96    0.38
   5  18  -1    5.87    0.33
   5 -18  -1    5.75    0.32
  -5  18   0    0.08    0.13
   5  18   0    0.19    0.11
   5 -18   0    0.19    0.09
  -5 -18   0    0.18    0.12
   6   0  -7   -0.01    0.10
  -6   0   7    0.14    0.09
  -6   0   6    0.82    0.13
   6   0  -6    0.80    0.13
   6   0  -5   -0.03    0.06
  -6   0   5    0.03    0.06
  -6   0   5   -0.07    0.06
   6   0  -4    4.26    0.23
  -6   0   4    4.05    0.23
  -6   0   4    4.78    0.23
   6   0  -3   -0.01    0.04
  -6   0   3    0.04    0.06
   6   0  -3    0.06    0.06
   6   0  -2   63.41    2.16
  -6   0   2   62.28    2.20
   6   0  -2   62.53    2.19
   6   0  -1    0.01    0.03
  -6   0   1   -0.01    0.06
   6   0  -1    0.00    0.04
  -6   0   0  113.37    3.83
   6   0   0  112.04    3.77
   6   0   0  104.55    3.74
   6   0   1    0.04    0.04
   6   0   1   -0.02    0.02
   6   0   2   92.32    3.14
  -6   0  -2   90.33    3.25
   6   0   3    0.08    0.05
  -6   0  -3   -0.01    0.10
   6   0   3    0.06    0.05
  -6   0  -4    4.80    0.35
   6   0   4    4.49    0.22
   6   0   4    4.35    0.22
   6   0   5   -0.01    0.06
   6   0   5    0.07    0.05
  -6   0  -5   -0.03    0.12
  -6   0  -6   10.40    0.64
   6   0   6   11.12    0.47
  -6   1   7    7.89    0.40
   6   1  -7    7.44    0.42
   6  -1  -7    7.78    0.41
  -6  -1   7    7.82    0.40
   6   1  -6   19.95    0.80
  -6   1   6   20.12    0.79
  -6  -1   6   20.23    0.80
   6  -1  -6   19.67    0.80
  -6   1   5    3.09    0.20
  -6   1   5    2.90    0.18
   6   1  -5    2.74    0.20
  -6  -1   5    2.80    0.19
   6  -1  -5    2.99    0.20
  -6   1   4    1.30    0.13
   6   1  -4    1.43    0.13
  -6   1   4    1.37    0.14
  -6  -1   4    1.46    0.13
   6  -1  -4    1.27    0.12
  -6  -1   4    1.41    0.13
   6   1  -3    3.49    0.18
  -6   1   3    3.46    0.20
   6  -1  -3    3.63    0.21
  -6  -1   3    3.33    0.20
   6  -1  -3    3.39    0.18
  -6   1   2   18.66    0.71
   6   1  -2   18.71    0.70
   6   1  -2   18.36    0.67
   6  -1  -2   18.05    0.70
  -6  -1   2   17.71    0.71
   6  -1  -2   18.74    0.66
   6   1  -1    7.64    0.29
  -6   1   1    7.69    0.36
   6   1  -1    7.42    0.32
   6  -1  -1    7.53    0.28
  -6  -1   1    7.56    0.36
   6  -1  -1    7.23    0.32
  -6   1   0   25.52    0.90
   6   1   0   26.22    0.94
  -6   1   0   25.76    1.00
  -6  -1   0   26.36    1.00
   6  -1   0   27.01    0.91
   6  -1   0   25.76    0.95
  -6   1  -1   10.75    0.49
   6   1   1   10.18    0.41
  -6  -1  -1   10.62    0.50
   6  -1   1   10.39    0.41
   6   1   2    2.43    0.13
  -6   1  -2    2.51    0.23
   6  -1   2    2.26    0.14
   6  -1   2    2.06    0.14
  -6  -1  -2    2.25    0.22
   6   1   3   79.86    2.57
   6   1   3   73.27    2.56
  -6   1  -3   70.14    2.69
  -6  -1  -3   71.70    2.71
   6  -1   3   77.59    2.56
   6  -1   3   72.63    2.57
  -6   1  -4   20.44    0.93
   6   1   4   22.25    0.79
   6   1   4   21.57    0.78
   6  -1   4   20.79    0.79
   6  -1   4   21.73    0.78
  -6  -1  -4   20.54    0.95
  -6   1  -5    7.86    0.50
   6   1   5    8.10    0.36
  -6  -1  -5    7.91    0.51
   6  -1   5    7.85    0.35
   6  -1   5    7.75    0.34
  -6   1  -6    0.04    0.13
   6   1   6    0.01    0.08
  -6  -1  -6   -0.04    0.12
   6  -1   6    0.06    0.08
  -6   2   7   41.23    1.55
   6   2  -7   43.01    1.58
   6  -2  -7   41.96    1.57
  -6  -2   7   42.03    1.56
  -6   2   6    4.85    0.27
   6   2  -6    4.61    0.29
   6  -2  -6    4.54    0.28
  -6  -2   6    4.78    0.28
   6   2  -5    0.32    0.09
  -6   2   5    0.31    0.08
  -6   2   5    0.29    0.08
  -6  -2   5    0.28    0.08
   6  -2  -5    0.41    0.09
   6   2  -4    0.04    0.06
  -6   2   4   -0.01    0.06
  -6  -2   4    0.08    0.05
  -6  -2   4   -0.03    0.06
   6  -2  -4    0.07    0.06
  -6   2   3    1.59    0.15
   6   2  -3    1.65    0.13
  -6  -2   3    1.68    0.14
   6  -2  -3    1.58    0.11
   6  -2  -3    1.67    0.14
  -6  -2   3    1.59    0.13
  -6   2   2    0.52    0.09
   6   2  -2    0.43    0.08
   6   2  -2    0.50    0.07
   6  -2  -2    0.43    0.08
  -6  -2   2    0.35    0.08
   6  -2  -2    0.45    0.06
  -6   2   1    9.19    0.42
   6   2  -1    9.63    0.39
   6   2  -1    9.49    0.36
   6  -2  -1    9.46    0.40
  -6  -2   1    9.26    0.42
   6  -2  -1    9.88    0.35
  -6   2   0    5.29    0.29
  -6   2   0    5.67    0.21
   6   2   0    5.51    0.25
   6  -2   0    5.54    0.25
  -6  -2   0    5.30    0.30
   6  -2   0    5.62    0.21
   6   2   1    8.02    0.33
  -6   2  -1    7.69    0.40
   6  -2   1    7.82    0.33
   6  -2   1    8.64    0.31
  -6  -2  -1    7.60    0.41
   6   2   2    2.61    0.14
  -6   2  -2    2.77    0.24
  -6  -2  -2    2.55    0.24
   6  -2   2    2.47    0.15
   6  -2   2    2.47    0.14
   6   2   3    7.72    0.34
  -6   2  -3    8.04    0.44
   6   2   3    7.50    0.31
   6  -2   3    7.80    0.31
  -6  -2  -3    7.14    0.44
   6  -2   3    7.35    0.33
  -6   2  -4    0.05    0.11
   6   2   4    0.20    0.05
   6   2   4    0.18    0.07
   6  -2   4    0.03    0.05
   6  -2   4    0.04    0.06
  -6  -2  -4    0.72    0.18
   6   2   5    4.87    0.25
  -6   2  -5    4.60    0.37
   6  -2   5    4.72    0.24
  -6  -2  -5    4.35    0.38
   6  -2   5    4.52    0.24
   6   2   6    1.39    0.15
  -6   2  -6    1.06    0.23
  -6  -2  -6    1.08    0.23
   6  -2   6    1.28    0.15
   6   3  -7    0.48    0.14
  -6   3   7    0.71    0.12
  -6  -3   7    0.47    0.13
   6  -3  -7    0.43    0.13
   6   3  -6    2.59    0.22
  -6   3   6    2.58    0.19
   6  -3  -6    2.59    0.21
  -6  -3   6    2.62    0.21
   6   3  -5    1.45    0.15
  -6   3   5    1.54    0.14
  -6   3   5    1.27    0.15
   6  -3  -5    1.46    0.14
  -6  -3   5    1.60    0.15
   6   3  -4    2.62    0.18
  -6   3   4    2.59    0.19
   6  -3  -4    2.83    0.17
  -6  -3   4    2.96    0.19
   6  -3  -4    2.62    0.19
  -6  -3   4    2.68    0.16
  -6   3   3    5.13    0.27
   6   3  -3    5.50    0.26
   6  -3  -3    5.94    0.28
  -6  -3   3    5.23    0.26
  -6  -3   3    5.31    0.26
   6  -3  -3    5.44    0.24
  -6   3   2  149.20    5.23
   6   3  -2  147.70    5.20
  -6   3   2  168.25    5.20
  -6  -3   2  148.02    5.23
   6  -3  -2  152.86    5.18
   6  -3  -2  150.02    5.23
  -6   3   1    8.55    0.39
   6   3  -1    8.46    0.33
   6   3  -1    8.82    0.36
   6  -3  -1    8.32    0.36
  -6  -3   1    8.23    0.39
   6  -3  -1    8.52    0.31
  -6   3   0   54.67    1.94
   6   3   0   55.73    1.88
   6  -3   0   53.14    1.89
  -6  -3   0   52.64    1.95
   6   3   1   14.02    0.53
  -6   3  -1   15.09    0.62
   6  -3   1   13.33    0.55
  -6  -3  -1   14.10    0.64
   6  -3   1   14.94    0.51
   6   3   2    6.50    0.27
  -6   3  -2    5.48    0.35
   6  -3   2    6.70    0.26
   6  -3   2    6.58    0.29
  -6  -3  -2    6.08    0.38
  -6   3  -3    0.34    0.13
   6   3   3    0.39    0.09
   6   3   3    0.47    0.06
  -6  -3  -3    0.37    0.13
   6  -3   3    0.32    0.06
  -6   3  -4    1.32    0.21
   6   3   4    1.09    0.12
   6  -3   4    1.22    0.11
  -6  -3  -4    1.14    0.20
   6  -3   4    1.10    0.12
   6   3   5    9.79    0.42
  -6   3  -5    9.53    0.56
   6  -3   5    9.46    0.40
  -6  -3  -5    9.20    0.58
   6  -3   5    9.22    0.41
   6   3   6    0.24    0.10
  -6   3  -6    0.35    0.16
   6  -3   6    0.43    0.09
   6  -3   6    0.28    0.09
  -6  -3  -6    0.22    0.16
  -6   4   7    4.06    0.26
   6   4  -7    4.07    0.30
   6  -4  -7    4.60    0.29
  -6  -4   7    4.11    0.28
   6   4  -6    1.80    0.19
  -6   4   6    1.87    0.22
  -6   4   6    1.71    0.16
  -6  -4   6    1.95    0.19
   6  -4  -6    1.69    0.18
  -6   4   5    1.26    0.15
  -6   4   5    1.31    0.13
   6   4  -5    1.36    0.15
   6  -4  -5    1.51    0.14
  -6  -4   5    1.13    0.13
   6   4  -4   22.60    0.85
  -6   4   4   22.12    0.85
  -6  -4   4   21.60    0.84
   6  -4  -4   23.30    0.87
   6  -4  -4   22.11    0.83
  -6   4   3    0.19    0.08
   6   4  -3    0.21    0.07
  -6  -4   3    0.19    0.07
   6  -4  -3    0.16    0.07
   6  -4  -3    0.17    0.05
  -6  -4   3    0.15    0.06
  -6   4   2   18.40    0.73
  -6   4   2   18.54    0.66
   6   4  -2   18.75    0.69
  -6  -4   2   18.48    0.73
   6  -4  -2   19.30    0.72
   6  -4  -2   19.24    0.66
  -6  -4   2   17.95    0.70
   6   4  -1   28.99    1.02
   6   4  -1   29.27    1.04
  -6   4   1   28.40    1.07
  -6  -4   1   28.72    1.09
   6  -4  -1   28.10    1.04
   6   4   0    9.54    0.38
  -6  -4   0    9.95    0.47
   6  -4   0    9.68    0.40
  -6   4  -1    4.12    0.27
   6   4   1    4.08    0.19
   6  -4   1    4.16    0.21
  -6  -4  -1    4.02    0.28
  -6   4  -2    0.83    0.14
   6   4   2    0.86    0.08
   6  -4   2    0.74    0.09
  -6  -4  -2    0.72    0.15
   6  -4   2    0.80    0.08
   6   4   3    6.56    0.27
  -6   4  -3    6.54    0.40
  -6  -4  -3    6.58    0.43
   6  -4   3    6.56    0.30
   6  -4   3    6.81    0.27
   6   4   4    4.16    0.24
  -6   4  -4    3.94    0.32
   6  -4   4    4.19    0.20
   6  -4   4    4.16    0.23
  -6  -4  -4    4.21    0.37
  -6   4  -5   28.41    1.22
   6   4   5   30.96    1.08
  -6  -4  -5   28.28    1.28
   6  -4   5   28.34    1.05
   6  -4   5   28.50    1.07
   6   4   6    0.03    0.09
  -6   4  -6    0.09    0.13
   6  -4   6   -0.06    0.07
  -6  -4  -6    0.23    0.16
  -6   5   7   12.32    0.55
   6   5  -7   12.35    0.59
  -6  -5   7   13.02    0.58
  -6   5   6    3.47    0.23
   6   5  -6    3.31    0.24
  -6   5   6    3.16    0.22
   6  -5  -6    3.53    0.24
  -6  -5   6    3.63    0.24
   6   5  -5    5.98    0.31
  -6   5   5    5.46    0.30
  -6   5   5    5.82    0.29
   6  -5  -5    5.18    0.28
  -6  -5   5    5.93    0.31
   6   5  -4    0.52    0.10
   6  -5  -4    0.47    0.10
  -6  -5   4    0.59    0.10
   6  -5  -4    0.53    0.08
  -6   5   3    3.88    0.23
   6   5  -3    3.81    0.21
   6  -5  -3    3.80    0.23
  -6  -5   3    3.53    0.21
   6  -5  -3    3.79    0.18
  -6  -5   3    3.92    0.21
  -6   5   2    0.80    0.12
  -6   5   2    0.51    0.05
   6   5  -2    0.77    0.09
   6  -5  -2    0.64    0.06
  -6  -5   2    0.74    0.11
  -6  -5   2    0.63    0.08
   6  -5  -2    0.88    0.11
  -6   5   1   16.13    0.66
   6   5  -1   16.90    0.61
  -6  -5   1   16.27    0.68
   6  -5  -1   16.48    0.63
  -6  -5   1   16.10    0.61
  -6   5   0   31.18    1.18
   6   5   0   32.60    1.12
  -6  -5   0   31.08    1.21
   6  -5   0   30.93    1.14
  -6   5  -1   13.55    0.59
   6   5   1   13.15    0.50
   6  -5   1   13.34    0.53
  -6  -5  -1   13.20    0.62
  -6   5  -2    1.50    0.19
   6   5   2    2.02    0.11
   6  -5   2    1.87    0.10
  -6  -5  -2    1.94    0.24
   6  -5   2    1.78    0.14
  -6   5  -3    5.91    0.37
   6  -5   3    6.14    0.24
   6  -5   3    5.76    0.28
  -6  -5  -3    5.51    0.40
   6   5   4   22.24    0.87
  -6   5  -4   22.58    0.98
   6  -5   4   22.39    0.85
   6  -5   4   23.25    0.82
  -6  -5  -4   22.80    1.04
  -6   5  -5    0.53    0.16
   6   5   5    0.35    0.10
   6  -5   5    0.44    0.10
  -6  -5  -5    0.55    0.19
  -6   5  -6    0.09    0.13
   6   5   6   -0.06    0.09
  -6  -5  -6    0.06    0.16
   6  -5   6    0.04    0.08
  -6   6   7    1.80    0.16
   6   6  -7    1.24    0.19
  -6   6   7    1.19    0.15
  -6  -6   7    1.26    0.18
  -6   6   6   13.28    0.57
  -6   6   6   14.09    0.59
   6   6  -6   13.87    0.61
  -6  -6   6   13.32    0.59
  -6   6   5    0.07    0.08
   6   6  -5   -0.01    0.08
  -6  -6   5    0.05    0.08
   6   6  -4   68.17    2.37
  -6   6   4   67.38    2.38
   6  -6  -4   66.29    2.37
  -6  -6   4   66.78    2.36
   6   6  -3   10.44    0.45
  -6   6   3   10.71    0.48
   6  -6  -3   11.46    0.47
  -6  -6   3   10.55    0.45
  -6  -6   3   11.45    0.46
  -6   6   2    4.97    0.19
   6   6  -2    5.07    0.24
  -6   6   2    4.94    0.19
  -6   6   2    4.91    0.28
  -6  -6   2    4.54    0.23
  -6  -6   2    4.77    0.27
   6  -6  -2    4.95    0.26
  -6   6   1   11.65    0.52
   6   6  -1   12.63    0.48
   6  -6  -1   12.39    0.50
  -6  -6   1   12.02    0.47
  -6  -6   1   12.28    0.55
  -6   6   0    2.24    0.20
  -6  -6   0    2.23    0.13
  -6  -6   0    2.35    0.22
   6  -6   0    2.07    0.15
  -6   6  -1    2.63    0.23
   6  -6   1    2.35    0.16
  -6  -6  -1    2.55    0.25
  -6   6  -2   25.03    1.01
   6   6   2   26.58    0.89
   6  -6   2   25.42    0.94
  -6  -6  -2   24.76    1.07
   6  -6   2   24.20    0.90
  -6   6  -3    8.01    0.45
   6  -6   3    8.70    0.38
  -6  -6  -3    8.12    0.51
   6   6   4   19.52    0.85
  -6   6  -4   23.49    0.97
  -6  -6  -4   22.23    1.03
   6  -6   4   23.25    0.85
  -6   6  -5    1.21    0.22
   6   6   5    1.28    0.16
  -6  -6  -5    1.16    0.25
   6  -6   5    1.44    0.15
   6   6   6    2.98    0.25
  -6   6  -6    3.30    0.33
   6  -6   6    3.10    0.22
  -6  -6  -6    3.54    0.40
  -6   7   6    0.45    0.10
  -6   7   6    0.65    0.11
   6   7  -6    0.44    0.12
  -6   7   6    0.68    0.13
  -6  -7   6    0.68    0.13
  -6   7   5    0.33    0.11
   6   7  -5    0.29    0.10
  -6   7   5    0.34    0.08
  -6  -7   5    0.34    0.10
   6  -7  -5    0.47    0.11
  -6   7   4   12.26    0.47
  -6   7   4   12.44    0.54
   6   7  -4   12.33    0.52
   6  -7  -4   11.96    0.52
  -6  -7   4   12.31    0.52
  -6   7   3   59.59    2.06
   6   7  -3   60.62    2.11
  -6   7   3   60.01    2.14
   6  -7  -3   59.96    2.13
  -6  -7   3   59.90    2.11
  -6   7   2   33.49    1.23
   6   7  -2   32.50    1.19
  -6  -7   2   33.41    1.25
  -6  -7   2   32.69    1.19
   6  -7  -2   33.11    1.21
   6   7  -1   77.90    2.65
  -6   7   1   75.84    2.69
  -6  -7   1   76.24    2.63
  -6  -7   1   76.39    2.73
   6  -7  -1   75.38    2.66
  -6   7   0   36.21    1.33
   6  -7   0   35.71    1.29
  -6  -7   0   35.41    1.24
  -6  -7   0   34.67    1.38
   6  -7   1    5.46    0.27
  -6  -7  -1    5.71    0.23
  -6  -7  -1    5.37    0.37
  -6   7  -2    1.77    0.20
   6  -7   2    1.36    0.13
  -6  -7  -2    1.58    0.23
  -6   7  -3   11.93    0.58
   6  -7   3   11.81    0.50
  -6  -7  -3   11.65    0.65
  -6   7  -4    0.71    0.18
  -6  -7  -4    0.65    0.20
   6  -7   4    0.75    0.11
   6   7   5    1.69    0.20
  -6   7  -5    2.14    0.27
   6  -7   5    1.93    0.18
  -6  -7  -5    2.28    0.32
   6   8  -6    0.05    0.09
  -6   8   6    0.10    0.07
  -6   8   6    0.01    0.08
  -6   8   6    0.12    0.10
  -6  -8   6    0.07    0.10
  -6   8   5    4.92    0.25
  -6   8   5    4.95    0.30
   6   8  -5    4.84    0.29
   6  -8  -5    4.67    0.28
  -6  -8   5    4.87    0.29
  -6   8   4    8.85    0.43
  -6   8   4    8.67    0.35
   6   8  -4    9.13    0.41
   6  -8  -4    9.11    0.42
  -6  -8   4    8.23    0.40
  -6   8   3    3.07    0.23
   6   8  -3    3.14    0.20
  -6   8   3    3.20    0.15
  -6  -8   3    2.96    0.20
   6  -8  -3    3.42    0.22
  -6   8   2    0.27    0.10
   6   8  -2    0.36    0.08
  -6  -8   2    0.39    0.08
  -6  -8   2    0.27    0.10
   6  -8  -2    0.50    0.10
  -6   8   1   22.89    0.92
   6   8  -1   24.17    0.88
   6  -8  -1   23.77    0.89
  -6  -8   1   23.35    0.86
  -6  -8   1   24.08    0.97
  -6   8   0   10.12    0.47
   6  -8   0    9.59    0.42
  -6  -8   0    9.63    0.51
  -6  -8   0    9.40    0.38
  -6   8  -1    0.11    0.09
   6   8   1    0.00    0.05
   6  -8   1    0.16    0.07
  -6  -8  -1    0.11    0.04
  -6  -8  -1    0.22    0.13
  -6   8  -2    8.66    0.45
  -6  -8  -2    8.95    0.53
   6  -8   2    8.92    0.40
  -6   8  -3    1.38    0.20
  -6  -8  -3    1.31    0.24
   6  -8   3    1.49    0.15
  -6   8  -4    5.28    0.38
   6  -8   4    5.01    0.28
  -6  -8  -4    4.91    0.43
  -6   8  -5   22.92    1.01
   6  -8   5   22.79    0.88
  -6  -8  -5   21.91    1.10
   6   9  -6    3.03    0.25
  -6   9   6    3.55    0.29
  -6   9   6    2.67    0.25
  -6   9   6    2.83    0.20
  -6  -9   6    2.92    0.24
  -6   9   5    3.34    0.20
   6   9  -5    3.19    0.25
  -6   9   5    3.51    0.27
   6  -9  -5    3.89    0.25
  -6  -9   5    3.31    0.24
  -6   9   4   15.61    0.67
   6   9  -4   15.60    0.64
  -6   9   4   15.65    0.58
   6  -9  -4   14.97    0.64
  -6  -9   4   15.36    0.63
  -6   9   3    0.87    0.14
   6   9  -3    1.00    0.12
   6  -9  -3    0.56    0.11
  -6  -9   3    0.78    0.11
  -6   9   2    3.36    0.24
   6   9  -2    3.14    0.20
  -6  -9   2    3.31    0.19
   6  -9  -2    3.28    0.21
  -6   9   1    0.12    0.09
   6  -9  -1    0.11    0.07
  -6  -9   1   -0.07    0.09
  -6  -9   1    0.05    0.05
  -6   9   0   66.09    2.38
  -6  -9   0   66.88    2.46
  -6  -9   0   67.01    2.30
   6  -9   0   66.79    2.35
  -6   9  -1   19.28    0.79
  -6  -9  -1   19.20    0.70
   6  -9   1   18.75    0.74
  -6  -9  -1   18.15    0.86
  -6   9  -2   -0.01    0.10
  -6  -9  -2   -0.08    0.11
   6  -9   2   -0.05    0.06
  -6   9  -3   27.17    1.10
  -6  -9  -3   25.99    1.20
   6  -9   3   27.63    1.03
  -6   9  -4   13.74    0.68
  -6  -9  -4   13.60    0.78
   6  -9   4   13.96    0.58
  -6   9  -5    0.26    0.16
   6  -9   5    0.41    0.11
  -6  -9  -5    0.38    0.18
  -6  10   6   13.31    0.62
   6  10  -6   13.27    0.61
  -6  10   6   12.11    0.55
  -6 -10   6   13.93    0.61
  -6  10   5    3.65    0.28
   6  10  -5    3.66    0.26
   6 -10  -5    3.67    0.25
  -6 -10   5    3.24    0.25
  -6  10   4    4.37    0.29
   6  10  -4    4.19    0.26
  -6 -10   4    4.10    0.25
   6 -10  -4    4.07    0.26
  -6  10   3    4.12    0.28
   6  10  -3    4.62    0.25
  -6 -10   3    3.91    0.24
   6 -10  -3    4.69    0.26
  -6  10   2   32.97    1.25
   6  10  -2   33.16    1.20
  -6 -10   2   33.08    1.19
  -6 -10   2   31.28    1.25
   6 -10  -2   33.66    1.22
   6  10  -1    0.34    0.08
  -6  10   1    0.13    0.10
   6 -10  -1    0.23    0.08
  -6 -10   1    0.22    0.06
  -6 -10   1    0.05    0.09
   6  10   0    2.08    0.20
  -6  10   0    2.24    0.22
   6 -10   0    1.98    0.17
  -6 -10   0    1.96    0.25
  -6 -10   0    2.14    0.13
  -6  10  -1    1.09    0.16
  -6 -10  -1    1.18    0.21
   6 -10   1    1.23    0.14
  -6  10  -2   10.70    0.53
   6 -10   2   10.78    0.47
  -6 -10  -2   11.22    0.63
  -6  10  -3    0.27    0.13
   6  10   3   -0.04    0.04
  -6 -10  -3    0.02    0.14
   6 -10   3    0.34    0.10
  -6  10  -4    9.11    0.52
   6 -10   4    8.92    0.42
  -6 -10  -4    8.41    0.59
  -6  10  -5   12.64    0.67
   6 -10   5   12.90    0.56
  -6 -10  -5   11.77    0.76
   6  11  -5    0.90    0.15
  -6  11   5    1.12    0.18
   6 -11  -5    0.72    0.14
  -6 -11   5    1.10    0.16
  -6  11   4    2.74    0.25
   6  11  -4    2.95    0.22
   6 -11  -4    2.87    0.22
  -6 -11   4    2.78    0.21
   6  11  -3   17.27    0.70
  -6  11   3   18.02    0.75
  -6 -11   3   17.27    0.69
   6 -11  -3   17.58    0.71
   6  11  -2    0.19    0.07
  -6  11   2    0.20    0.11
  -6 -11   2    0.23    0.11
  -6 -11   2    0.25    0.07
   6 -11  -2    0.18    0.08
  -6  11   1   38.16    1.48
   6  11  -1   41.91    1.44
  -6 -11   1   38.12    1.53
   6 -11  -1   40.38    1.45
  -6 -11   1   39.48    1.40
   6  11   0    9.99    0.50
  -6  11   0   11.46    0.54
  -6 -11   0   10.79    0.59
  -6 -11   0   11.58    0.43
   6 -11   0   11.63    0.49
  -6  11  -1   73.88    2.62
   6 -11   1   73.87    2.57
  -6 -11  -1   70.37    2.72
  -6  11  -2    1.64    0.21
  -6 -11  -2    1.41    0.26
   6 -11   2    1.23    0.15
  -6  11  -3   26.73    1.09
  -6 -11  -3   25.14    1.21
   6 -11   3   27.10    1.02
  -6  11  -4    5.16    0.39
   6 -11   4    5.07    0.30
  -6 -11  -4    4.52    0.44
  -6  12   5    5.97    0.38
   6  12  -5    6.03    0.35
  -6 -12   5    5.96    0.34
   6 -12  -5    5.58    0.33
  -6  12   4    2.56    0.25
   6  12  -4    2.56    0.22
  -6 -12   4    2.80    0.22
   6 -12  -4    2.52    0.21
   6  12  -3    1.00    0.14
  -6  12   3    0.93    0.16
  -6 -12   3    0.70    0.12
   6 -12  -3    0.87    0.13
  -6  12   2    0.11    0.10
   6  12  -2    0.12    0.07
   6 -12  -2    0.09    0.07
  -6 -12   2    0.17    0.08
   6  12  -1    4.05    0.24
  -6  12   1    3.62    0.28
   6 -12  -1    3.97    0.24
  -6 -12   1    3.88    0.30
  -6 -12   1    3.94    0.21
  -6  12   0    0.73    0.15
   6  12   0    0.58    0.12
  -6 -12   0    0.35    0.13
   6 -12   0    0.64    0.11
   6  12   1    0.04    0.07
  -6  12  -1    0.28    0.12
   6 -12   1    0.35    0.10
  -6 -12  -1    0.27    0.15
  -6  12  -2    0.82    0.17
  -6 -12  -2    0.58    0.20
   6 -12   2    1.12    0.14
  -6  12  -3    1.43    0.21
  -6 -12  -3    1.45    0.26
   6 -12   3    1.19    0.16
  -6  12  -4    1.50    0.24
  -6 -12  -4    1.36    0.28
   6 -12   4    1.25    0.17
   6  13  -5    2.10    0.23
  -6  13   5    2.04    0.25
  -6 -13   5    1.94    0.21
  -6  13   4   18.98    0.81
   6  13  -4   17.80    0.76
  -6 -13   4   18.97    0.75
   6 -13  -4   17.75    0.75
  -6  13   3    0.94    0.16
   6  13  -3    1.00    0.15
   6 -13  -3    1.13    0.15
  -6 -13   3    1.01    0.13
   6  13  -2   16.42    0.65
  -6  13   2   14.94    0.69
  -6 -13   2   15.56    0.62
   6 -13  -2   15.61    0.65
  -6  13   1    0.13    0.11
   6  13  -1    0.21    0.08
   6 -13  -1    0.18    0.08
  -6 -13   1    0.10    0.06
  -6 -13   1    0.30    0.13
   6  13   0   66.42    2.43
  -6  13   0   71.42    2.47
  -6 -13   0   65.51    2.55
   6 -13   0   68.37    2.41
   6  13   1    0.09    0.10
  -6  13  -1    0.15    0.12
  -6 -13  -1    0.37    0.14
   6 -13   1    0.10    0.08
  -6  13  -2    5.62    0.38
   6 -13   2    5.85    0.32
  -6 -13  -2    5.56    0.46
  -6  13  -3    0.60    0.17
   6 -13   3    0.58    0.13
  -6 -13  -3    0.52    0.19
  -6  13  -4    5.63    0.41
   6 -13   4    5.21    0.33
  -6 -13  -4    5.07    0.48
   6  14  -4    6.52    0.37
  -6  14   4    7.25    0.43
  -6 -14   4    7.21    0.37
   6 -14  -4    6.39    0.36
  -6  14   3    2.08    0.24
   6  14  -3    2.46    0.21
   6 -14  -3    2.44    0.21
  -6 -14   3    2.46    0.20
   6  14  -2    2.10    0.18
  -6  14   2    2.06    0.24
   6 -14  -2    1.80    0.18
  -6 -14   2    2.19    0.17
  -6  14   1   -0.01    0.10
   6  14  -1    0.09    0.08
  -6 -14   1    0.26    0.13
   6 -14  -1    0.12    0.08
  -6  14   0    0.15    0.12
   6  14   0    0.42    0.12
  -6 -14   0    0.28    0.16
   6 -14   0    0.28    0.09
  -6  14  -1    5.42    0.37
  -6 -14  -1    5.45    0.43
   6 -14   1    5.74    0.32
  -6  14  -2   38.28    1.48
   6 -14   2   38.43    1.42
  -6 -14  -2   36.27    1.61
  -6  14  -3    2.32    0.28
  -6 -14  -3    2.29    0.33
   6 -14   3    2.41    0.22
   6  15  -4    1.09    0.17
  -6  15   4    1.06    0.20
  -6 -15   4    1.26    0.16
   6 -15  -4    1.09    0.22
   6  15  -3   22.63    0.91
  -6  15   3   22.76    0.96
   6 -15  -3   20.96    0.89
  -6 -15   3   23.56    0.88
   6  15  -2    1.72    0.18
  -6  15   2    1.61    0.22
  -6 -15   2    1.74    0.15
   6 -15  -2    1.62    0.18
  -6  15   1   11.07    0.57
   6  15  -1   12.59    0.52
  -6 -15   1   10.90    0.77
   6 -15  -1   11.10    0.51
   6  15   0   20.38    0.78
  -6  15   0   18.13    0.80
  -6 -15   0   15.71    0.85
   6 -15   0   18.29    0.75
  -6  15  -1   23.05    0.94
  -6 -15  -1   17.82    1.00
   6 -15   1   23.71    0.88
  -6  15  -2    8.67    0.51
  -6 -15  -2    8.85    0.60
   6 -15   2    9.65    0.46
   6  16  -3    1.35    0.18
  -6  16   3    1.50    0.22
   6 -16  -3    1.37    0.18
  -6 -16   3    1.61    0.18
   6  16  -2    0.04    0.08
  -6  16   2    0.03    0.13
   6 -16  -2    0.02    0.08
  -6  16   1    0.01    0.12
   6  16  -1    0.01    0.08
   6 -16  -1    0.02    0.08
   6  16   0    1.56    0.19
  -6  16   0    1.00    0.19
  -6 -16   0    0.75    0.18
   6 -16   0    1.07    0.15
  -6  16  -1   -0.12    0.14
   6  16   1    0.30    0.13
   6 -16   1    0.14    0.10
  -6 -16  -1    0.15    0.15
   6  16   2    0.32    0.13
  -6  16  -2    0.33    0.16
  -6 -16  -2    0.60    0.19
   6 -16   2    0.58    0.13
  -6  17   1    3.23    0.32
   6  17  -1    4.04    0.27
   6 -17  -1    3.69    0.26
  -6  17   0   16.97    0.80
   6  17   0   18.22    0.76
   6 -17   0   17.51    0.74
   7   0  -7   -0.03    0.10
  -7   0   7   -0.06    0.07
  -7   0   6   15.08    0.64
   7   0  -6   15.29    0.64
   7   0  -5    0.01    0.07
  -7   0   5    0.01    0.07
  -7   0   4  162.24    5.58
  -7   0   4  161.43    5.57
   7   0  -4  164.45    5.56
   7   0  -3    0.11    0.07
   7   0  -3    0.05    0.05
  -7   0   3    0.00    0.07
   7   0  -2   18.74    0.66
  -7   0   2   17.69    0.72
   7   0  -2   17.98    0.70
  -7   0   1    0.12    0.10
   7   0  -1    0.09    0.04
   7   0  -1    0.06    0.06
   7   0   0   94.62    3.30
   7   0   0   97.53    3.26
  -7   0   0   94.53    3.37
  -7   0  -1   -0.02    0.10
   7   0   1   -0.01    0.02
   7   0   1   -0.02    0.05
   7   0   2   14.17    0.54
  -7   0  -2   13.40    0.65
   7   0   3    0.22    0.06
  -7   0  -3   -0.08    0.12
   7   0   3    0.04    0.07
   7   0   4   -0.08    0.06
  -7   0  -4   -0.05    0.10
   7   0   4    0.00    0.05
   7   0   5   -0.04    0.07
  -7   0  -5    0.09    0.13
  -7   1   7    1.80    0.19
   7   1  -7    1.62    0.20
   7  -1  -7    1.69    0.20
  -7  -1   7    1.69    0.19
  -7   1   6    2.08    0.19
   7   1  -6    2.25    0.21
  -7  -1   6    2.51    0.21
   7  -1  -6    2.30    0.20
   7   1  -5   13.48    0.56
  -7   1   5   13.11    0.56
  -7   1   5   12.98    0.57
   7  -1  -5   13.31    0.55
  -7  -1   5   13.24    0.56
   7   1  -4    0.66    0.10
  -7   1   4    0.54    0.11
  -7  -1   4    0.69    0.10
   7  -1  -4    0.68    0.10
  -7  -1   4    0.57    0.10
  -7   1   3   38.28    1.43
   7   1  -3   39.88    1.40
   7   1  -3   39.89    1.44
   7  -1  -3   40.12    1.39
   7  -1  -3   39.04    1.44
  -7  -1   3   39.71    1.43
   7   1  -2    7.12    0.33
   7   1  -2    7.09    0.29
  -7   1   2    6.93    0.35
   7  -1  -2    7.10    0.29
   7  -1  -2    7.32    0.34
  -7  -1   2    6.91    0.35
   7   1  -1   66.49    2.31
  -7   1   1   64.73    2.35
   7   1  -1   66.44    2.27
   7  -1  -1   67.66    2.26
  -7  -1   1   64.94    2.36
   7  -1  -1   66.03    2.31
   7   1   0   60.95    2.12
   7   1   0   62.60    2.14
  -7   1   0   59.78    2.21
  -7  -1   0   60.59    2.22
   7  -1   0   63.31    2.10
   7  -1   0   60.72    2.15
  -7   1  -1   20.38    0.84
   7   1   1   20.01    0.74
   7  -1   1   19.89    0.74
  -7  -1  -1   18.96    0.83
  -7   1  -2    0.15    0.12
   7   1   2    0.43    0.07
   7  -1   2    0.42    0.08
  -7  -1  -2    0.43    0.13
  -7   1  -3  108.96    3.86
   7   1   3  111.41    3.69
   7  -1   3  109.41    3.70
   7  -1   3  101.17    3.69
  -7  -1  -3  106.69    3.86
  -7   1  -4    5.30    0.40
   7   1   4    5.36    0.28
   7   1   4    5.38    0.25
  -7  -1  -4    5.43    0.41
   7  -1   4    5.29    0.26
   7  -1   4    5.88    0.27
  -7   1  -5   11.31    0.66
   7   1   5   12.23    0.50
   7  -1   5   11.84    0.49
  -7  -1  -5   11.89    0.68
   7   2  -7    2.86    0.25
  -7   2   7    2.86    0.22
   7  -2  -7    2.99    0.25
  -7  -2   7    2.77    0.24
  -7   2   6    0.16    0.09
   7   2  -6    0.15    0.10
  -7  -2   6    0.41    0.10
   7  -2  -6    0.14    0.09
  -7   2   5   15.22    0.62
   7   2  -5   15.57    0.63
  -7   2   5   14.76    0.63
   7  -2  -5   16.07    0.62
  -7  -2   5   15.09    0.63
  -7   2   4    8.38    0.40
   7   2  -4    8.68    0.38
  -7  -2   4    8.56    0.38
   7  -2  -4    8.52    0.41
   7  -2  -4    9.19    0.38
  -7  -2   4    8.63    0.39
   7   2  -3   44.53    1.56
  -7   2   3   43.29    1.59
   7  -2  -3   44.96    1.54
  -7  -2   3   43.66    1.57
   7  -2  -3   43.62    1.59
  -7  -2   3   44.12    1.59
   7   2  -2   15.14    0.60
  -7   2   2   15.08    0.62
   7   2  -2   15.02    0.57
   7  -2  -2   15.16    0.55
   7  -2  -2   15.17    0.61
  -7  -2   2   14.87    0.63
   7   2  -1   49.99    1.80
  -7   2   1   50.82    1.84
   7   2  -1   51.91    1.77
  -7  -2   1   49.75    1.85
   7  -2  -1   53.29    1.75
   7  -2  -1   49.97    1.81
  -7   2   0    0.10    0.10
   7   2   0    0.11    0.06
  -7   2   0    0.08    0.03
   7   2   0    0.13    0.06
   7  -2   0    0.02    0.03
   7  -2   0    0.10    0.06
  -7  -2   0    0.05    0.09
   7   2   1    0.20    0.06
  -7   2  -1    0.05    0.09
  -7  -2  -1    0.74    0.14
   7  -2   1    0.25    0.07
   7   2   2    5.22    0.24
  -7   2  -2    5.04    0.35
  -7  -2  -2    4.91    0.35
   7  -2   2    5.18    0.25
  -7   2  -3   61.24    2.25
   7   2   3   58.95    2.08
  -7  -2  -3   57.91    2.26
   7  -2   3   62.02    2.09
   7  -2   3   59.95    2.10
  -7   2  -4    0.04    0.12
   7   2   4   -0.06    0.07
   7  -2   4   -0.04    0.05
   7  -2   4    0.06    0.06
  -7  -2  -4   -0.02    0.11
   7   2   5   -0.09    0.08
  -7   2  -5   -0.04    0.11
   7  -2   5    0.10    0.07
  -7  -2  -5    0.00    0.12
  -7   3   7   12.16    0.55
   7   3  -7   11.76    0.57
   7  -3  -7   12.26    0.56
  -7  -3   7   13.00    0.58
  -7   3   6   21.01    0.83
   7   3  -6   20.58    0.85
  -7  -3   6   21.05    0.84
   7  -3  -6   21.40    0.83
  -7   3   5    0.14    0.09
  -7   3   5    0.21    0.08
   7   3  -5    0.19    0.08
  -7  -3   5    0.14    0.08
   7  -3  -5    0.19    0.08
  -7   3   4    7.00    0.35
   7   3  -4    7.60    0.34
   7  -3  -4    7.28    0.36
  -7  -3   4    5.89    0.37
  -7  -3   4    7.14    0.34
   7  -3  -4    7.09    0.31
   7   3  -3    4.83    0.24
  -7   3   3    4.74    0.27
  -7  -3   3    4.71    0.25
   7  -3  -3    4.83    0.27
  -7  -3   3    4.64    0.27
   7  -3  -3    4.86    0.22
   7   3  -2    1.97    0.13
  -7   3   2    2.22    0.19
   7  -3  -2    1.98    0.11
  -7  -3   2    1.79    0.18
   7  -3  -2    1.73    0.16
  -7   3   1   15.47    0.52
  -7   3   1   14.27    0.62
   7   3  -1   14.72    0.55
   7   3  -1   14.94    0.58
   7  -3  -1   14.49    0.59
  -7  -3   1   14.05    0.63
   7  -3  -1   14.81    0.52
  -7   3   0    0.09    0.09
   7   3   0    0.15    0.06
  -7  -3   0    0.18    0.10
   7  -3   0    0.23    0.07
  -7   3  -1    2.46    0.23
   7   3   1    2.47    0.16
   7  -3   1    2.71    0.17
  -7  -3  -1    2.30    0.24
  -7   3  -2    0.93    0.17
   7   3   2    1.13    0.10
   7  -3   2    1.04    0.12
  -7  -3  -2    0.90    0.17
   7   3   3    8.88    0.35
  -7   3  -3    8.17    0.49
   7  -3   3    8.61    0.38
  -7  -3  -3    7.89    0.50
   7  -3   3    8.66    0.35
  -7   3  -4   25.60    1.08
   7   3   4   22.51    0.93
  -7  -3  -4   24.69    1.11
   7  -3   4   25.01    0.91
   7   3   5    1.25    0.16
  -7   3  -5    1.31    0.24
   7  -3   5    1.52    0.15
  -7  -3  -5    1.74    0.29
  -7   4   7    2.48    0.21
   7   4  -7    2.55    0.25
   7  -4  -7    2.57    0.23
  -7  -4   7    2.98    0.24
  -7   4   6    4.43    0.27
   7   4  -6    4.91    0.30
  -7  -4   6    4.56    0.29
   7  -4  -6    4.72    0.28
  -7   4   5   15.80    0.64
   7   4  -5   15.88    0.65
  -7   4   5   15.38    0.64
  -7  -4   5   15.06    0.64
   7  -4  -5   15.72    0.62
  -7   4   4   17.15    0.70
   7   4  -4   17.64    0.69
  -7  -4   4   17.67    0.69
   7  -4  -4   17.94    0.67
   7  -4  -4   17.20    0.71
  -7   4   3   29.78    1.14
   7   4  -3   30.92    1.11
   7  -4  -3   31.35    1.15
  -7  -4   3   30.08    1.13
  -7  -4   3   29.92    1.12
   7  -4  -3   31.39    1.08
   7   4  -2    8.76    0.36
  -7   4   2    8.61    0.42
   7  -4  -2    9.25    0.40
  -7  -4   2    8.66    0.42
   7  -4  -2    8.98    0.33
  -7  -4   2    8.53    0.37
   7   4  -1    0.60    0.09
  -7   4   1    1.04    0.14
   7   4  -1    0.69    0.08
  -7  -4   1    0.61    0.12
   7  -4  -1    0.64    0.10
   7   4   0   72.47    2.48
  -7   4   0   72.27    2.55
   7  -4   0   71.54    2.49
  -7  -4   0   69.51    2.57
  -7   4  -1   45.16    1.70
   7   4   1   47.29    1.60
   7  -4   1   45.67    1.62
  -7  -4  -1   43.87    1.72
  -7   4  -2   11.43    0.57
   7   4   2   12.12    0.45
   7  -4   2   11.51    0.48
  -7  -4  -2   11.38    0.60
  -7   4  -3    3.20    0.30
  -7  -4  -3    3.12    0.32
   7  -4   3    3.34    0.20
  -7   4  -4   15.56    0.76
   7  -4   4   15.12    0.61
  -7  -4  -4   15.52    0.80
  -7   4  -5    1.82    0.27
   7   4   5    1.10    0.17
  -7  -4  -5    1.35    0.26
   7  -4   5    1.60    0.16
   7   5  -6    3.41    0.26
  -7   5   6    3.13    0.23
  -7  -5   6    4.06    0.26
   7  -5  -6    3.35    0.23
   7   5  -5    0.99    0.14
  -7   5   5    1.06    0.15
   7  -5  -5    1.13    0.13
  -7   5   4    2.79    0.21
   7   5  -4    2.68    0.19
  -7  -5   4    2.43    0.19
   7  -5  -4    2.44    0.16
   7  -5  -4    2.49    0.21
   7   5  -3    0.04    0.06
  -7   5   3    0.04    0.09
  -7  -5   3    0.02    0.06
  -7  -5   3    0.04    0.06
   7  -5  -3    0.03    0.04
   7  -5  -3    0.03    0.07
   7   5  -2    0.36    0.07
  -7   5   2    0.46    0.12
   7  -5  -2    0.36    0.05
   7  -5  -2    0.41    0.09
  -7  -5   2    0.28    0.07
  -7  -5   2    0.32    0.10
  -7   5   1    0.13    0.10
   7   5  -1    0.29    0.06
  -7  -5   1    0.06    0.05
   7  -5  -1    0.09    0.07
  -7  -5   1    0.07    0.09
   7   5   0   16.90    0.61
  -7   5   0   16.42    0.69
   7  -5   0   15.39    0.63
  -7  -5   0   15.37    0.71
  -7   5  -1   46.69    1.73
   7   5   1   48.49    1.63
   7  -5   1   46.90    1.67
  -7  -5  -1   44.24    1.77
  -7   5  -2   14.94    0.68
   7   5   2   15.17    0.55
  -7  -5  -2   14.34    0.72
   7  -5   2   14.65    0.59
  -7   5  -3   26.16    1.09
  -7  -5  -3   25.77    1.15
   7  -5   3   26.11    0.97
  -7   5  -4    2.16    0.28
  -7  -5  -4    1.85    0.28
   7  -5   4    2.18    0.18
  -7   5  -5   13.79    0.71
   7   5   5   10.33    0.55
  -7  -5  -5   12.80    0.74
   7  -5   5   13.01    0.53
  -7   6   6   12.44    0.57
   7   6  -6   11.74    0.56
  -7   6   6   11.68    0.53
  -7  -6   6   12.60    0.55
   7   6  -5   10.49    0.47
  -7   6   5    9.49    0.46
   7  -6  -5    9.17    0.46
  -7  -6   5   10.05    0.46
   7   6  -4   35.36    1.28
  -7   6   4   34.56    1.30
   7  -6  -4   34.15    1.30
  -7  -6   4   34.71    1.28
   7   6  -3    6.31    0.30
  -7   6   3    6.60    0.35
   7  -6  -3    6.07    0.32
  -7  -6   3    6.13    0.30
  -7   6   2    2.24    0.21
   7   6  -2    2.07    0.15
  -7  -6   2    2.22    0.19
  -7  -6   2    2.12    0.15
   7  -6  -2    2.45    0.18
  -7   6   1   19.59    0.75
   7   6  -1   18.02    0.68
  -7  -6   1   16.80    0.76
  -7  -6   1   17.50    0.67
   7  -6  -1   18.07    0.71
  -7   6   0    0.42    0.13
   7   6   0    0.50    0.09
  -7  -6   0    0.37    0.07
  -7  -6   0    0.34    0.12
   7  -6   0    0.39    0.09
  -7   6  -1    0.38    0.12
   7  -6   1    0.37    0.09
  -7  -6  -1    0.28    0.13
  -7   6  -2    8.09    0.45
   7   6   2    7.35    0.37
  -7  -6  -2    8.83    0.51
   7  -6   2    7.80    0.37
  -7   6  -3   22.62    0.96
  -7  -6  -3   22.04    1.02
   7  -6   3   21.44    0.84
  -7   6  -4   15.42    0.75
   7  -6   4   14.93    0.61
  -7  -6  -4   14.06    0.79
  -7   6  -5    2.39    0.31
   7  -6   5    2.47    0.20
  -7  -6  -5    2.13    0.33
  -7   7   6    4.32    0.30
  -7   7   6    3.84    0.26
   7   7  -6    4.10    0.29
  -7  -7   6    4.35    0.29
  -7   7   5    5.39    0.33
   7   7  -5    5.26    0.31
   7  -7  -5    5.09    0.31
  -7  -7   5    5.23    0.31
   7   7  -4    6.22    0.32
  -7   7   4    5.79    0.34
   7  -7  -4    6.34    0.33
  -7  -7   4    6.23    0.32
   7   7  -3   41.05    1.47
  -7   7   3   39.79    1.50
  -7  -7   3   41.23    1.47
   7  -7  -3   40.52    1.49
   7   7  -2    0.65    0.09
  -7   7   2    0.39    0.12
   7  -7  -2    0.39    0.09
  -7  -7   2    0.63    0.13
  -7  -7   2    0.67    0.09
  -7   7   1    0.26    0.11
   7   7  -1    0.13    0.06
   7  -7  -1    0.18    0.08
  -7  -7   1    0.15    0.06
  -7  -7   1    0.13    0.09
  -7   7   0    5.64    0.33
   7   7   0    4.39    0.28
   7  -7   0    5.83    0.29
  -7  -7   0    5.69    0.37
  -7  -7   0    5.58    0.24
  -7   7  -1    6.85    0.40
  -7  -7  -1    6.98    0.28
  -7  -7  -1    6.62    0.44
   7  -7   1    7.24    0.34
  -7   7  -2    1.39    0.20
  -7  -7  -2    1.76    0.26
   7  -7   2    1.37    0.14
  -7   7  -3    2.57    0.28
  -7  -7  -3    2.56    0.33
   7  -7   3    2.70    0.19
  -7   7  -4    9.51    0.56
   7  -7   4   10.01    0.44
  -7  -7  -4    9.33    0.62
  -7   7  -5    0.35    0.17
   7  -7   5    0.50    0.12
  -7  -7  -5    0.62    0.21
  -7   8   6    0.33    0.10
  -7   8   6    0.34    0.13
   7   8  -6    0.33    0.12
  -7  -8   6    0.13    0.10
   7   8  -5    0.15    0.10
  -7   8   5    0.12    0.11
   7  -8  -5    0.07    0.09
  -7  -8   5    0.37    0.11
   7   8  -4    0.29    0.09
  -7   8   4    0.10    0.10
  -7  -8   4    0.13    0.08
   7  -8  -4    0.27    0.10
   7   8  -3   17.65    0.70
  -7   8   3   18.24    0.75
   7  -8  -3   17.83    0.72
  -7  -8   3   17.51    0.70
   7   8  -2   13.49    0.55
  -7   8   2   13.57    0.61
   7  -8  -2   14.14    0.58
  -7  -8   2   13.62    0.55
  -7  -8   2   14.10    0.63
  -7   8   1   26.92    1.04
   7   8  -1   26.84    0.98
   7  -8  -1   27.03    1.00
  -7  -8   1   26.02    0.96
  -7  -8   1   25.76    1.08
   7   8   0   10.19    0.50
  -7   8   0   11.88    0.54
  -7  -8   0   11.80    0.45
   7  -8   0   12.11    0.50
  -7  -8   0   11.91    0.60
  -7   8  -1   42.79    1.61
  -7  -8  -1   42.99    1.69
   7  -8   1   42.56    1.55
  -7   8  -2    4.09    0.32
  -7  -8  -2    4.46    0.38
   7  -8   2    4.22    0.25
  -7   8  -3    1.74    0.23
  -7  -8  -3    2.30    0.32
   7  -8   3    2.09    0.18
  -7   8  -4    0.31    0.16
   7  -8   4    0.61    0.12
  -7  -8  -4    0.60    0.22
  -7   8  -5   -0.11    0.12
   7  -8   5    0.17    0.09
  -7  -8  -5    0.03    0.15
   7   9  -6    1.85    0.22
  -7   9   6    2.22    0.24
  -7   9   6    2.08    0.19
  -7  -9   6    2.24    0.22
   7   9  -5    5.34    0.32
  -7   9   5    4.84    0.34
  -7  -9   5    5.73    0.32
   7  -9  -5    5.14    0.31
   7   9  -4    5.74    0.32
  -7   9   4    5.70    0.35
  -7  -9   4    5.79    0.31
   7  -9  -4    5.61    0.32
   7   9  -3    7.31    0.35
  -7   9   3    7.26    0.40
   7  -9  -3    7.41    0.37
  -7  -9   3    7.20    0.35
  -7   9   2    2.16    0.22
   7   9  -2    2.25    0.17
  -7  -9   2    2.18    0.16
  -7  -9   2    2.26    0.23
   7  -9  -2    2.37    0.19
   7   9  -1    9.58    0.41
  -7   9   1    9.13    0.46
  -7  -9   1    9.21    0.50
   7  -9  -1    9.12    0.42
  -7  -9   1    8.97    0.38
   7   9   0    1.92    0.19
  -7   9   0    2.08    0.23
  -7  -9   0    2.18    0.13
  -7  -9   0    2.07    0.25
   7  -9   0    2.28    0.18
  -7   9  -1   10.39    0.52
   7  -9   1   10.26    0.46
  -7  -9  -1    9.64    0.57
  -7   9  -2   30.05    1.18
  -7  -9  -2   28.37    1.26
   7  -9   2   28.55    1.09
  -7   9  -3    9.68    0.53
   7  -9   3    9.29    0.44
  -7  -9  -3    9.10    0.59
  -7   9  -4    7.57    0.50
  -7  -9  -4    8.03    0.57
   7  -9   4    7.50    0.39
  -7  10   5    0.05    0.11
   7  10  -5    0.00    0.09
   7 -10  -5    0.04    0.09
  -7 -10   5    0.10    0.10
  -7  10   4   46.68    1.75
   7  10  -4   46.96    1.72
  -7 -10   4   48.07    1.71
   7 -10  -4   46.79    1.73
  -7  10   3    4.07    0.30
   7  10  -3    4.03    0.25
   7 -10  -3    3.87    0.26
  -7 -10   3    4.16    0.24
   7  10  -2   19.03    0.74
  -7  10   2   18.92    0.79
   7 -10  -2   18.34    0.76
  -7 -10   2   18.67    0.72
   7  10  -1    2.73    0.20
  -7  10   1    2.88    0.26
  -7 -10   1    2.94    0.28
  -7 -10   1    2.60    0.17
   7 -10  -1    2.90    0.21
  -7  10   0    3.47    0.28
   7  10   0    3.08    0.23
   7 -10   0    3.11    0.22
  -7 -10   0    2.95    0.30
  -7 -10   0    3.13    0.17
  -7  10  -1    5.21    0.35
  -7 -10  -1    4.85    0.40
   7 -10   1    5.61    0.30
  -7  10  -2    2.54    0.27
   7 -10   2    2.87    0.21
  -7 -10  -2    2.50    0.32
  -7  10  -3   -0.05    0.13
   7  10   3    0.02    0.06
   7 -10   3    0.09    0.08
  -7 -10  -3    0.08    0.15
  -7  10  -4    1.59    0.26
   7 -10   4    2.09    0.20
  -7 -10  -4    1.71    0.31
  -7  11   5    0.61    0.16
   7  11  -5    0.69    0.14
  -7 -11   5    0.40    0.13
   7 -11  -5    0.77    0.15
   7  11  -4    0.08    0.09
  -7  11   4    0.11    0.12
  -7 -11   4    0.03    0.09
   7 -11  -4    0.07    0.09
   7  11  -3    1.63    0.17
  -7  11   3    1.59    0.21
   7 -11  -3    1.74    0.19
  -7 -11   3    2.02    0.17
   7  11  -2    1.81    0.16
  -7  11   2    1.87    0.22
   7 -11  -2    1.90    0.18
  -7 -11   2    1.86    0.15
   7  11  -1    2.70    0.19
  -7  11   1    2.40    0.25
  -7 -11   1    2.42    0.16
   7 -11  -1    2.40    0.20
  -7  11   0   14.48    0.66
   7  11   0   14.49    0.62
   7 -11   0   14.56    0.61
  -7  11  -1   15.24    0.70
  -7 -11  -1   15.12    0.78
   7 -11   1   14.81    0.63
  -7  11  -2    2.57    0.28
  -7 -11  -2    2.55    0.32
   7 -11   2    2.58    0.21
  -7  11  -3    3.62    0.33
   7 -11   3    3.89    0.26
  -7 -11  -3    3.34    0.37
  -7  11  -4    1.78    0.27
   7 -11   4    1.92    0.21
  -7 -11  -4    1.91    0.32
  -7  12   5    0.14    0.12
   7  12  -5    0.05    0.10
   7 -12  -5    0.05    0.09
  -7 -12   5    0.01    0.10
   7  12  -4    3.49    0.26
  -7  12   4    3.28    0.29
   7 -12  -4    3.69    0.26
  -7 -12   4    3.05    0.25
   7  12  -3    1.56    0.18
  -7  12   3    1.53    0.21
   7 -12  -3    1.68    0.18
  -7 -12   3    1.46    0.17
   7  12  -2    2.88    0.21
  -7  12   2    2.93    0.26
  -7 -12   2    2.82    0.19
   7 -12  -2    2.79    0.22
  -7  12   1    4.49    0.32
   7  12  -1    4.79    0.27
  -7 -12   1    4.34    0.23
  -7 -12   1    4.13    0.33
   7 -12  -1    4.45    0.27
   7  12   0    3.85    0.26
  -7  12   0    2.88    0.29
   7 -12   0    2.88    0.22
  -7 -12   0    2.75    0.30
  -7  12  -1   11.64    0.59
   7 -12   1   12.06    0.54
  -7  12  -2    3.02    0.31
  -7 -12  -2    2.00    0.30
   7 -12   2    2.66    0.22
  -7  12  -3    1.03    0.21
   7 -12   3    0.78    0.14
  -7 -12  -3    0.59    0.21
   7  13  -4    7.21    0.38
  -7  13   4    6.63    0.42
   7 -13  -4    6.73    0.38
  -7 -13   4    6.46    0.36
  -7  13   3    2.77    0.28
   7  13  -3    3.05    0.24
   7 -13  -3    2.92    0.23
  -7 -13   3    3.11    0.22
   7  13  -2   -0.02    0.07
  -7  13   2    0.11    0.12
  -7 -13   2    0.08    0.08
   7 -13  -2    0.10    0.08
  -7  13   1    0.69    0.16
   7  13  -1    0.83    0.13
  -7 -13   1    0.60    0.17
   7 -13  -1    0.86    0.14
  -7  13   0    1.17    0.20
   7  13   0    1.19    0.17
  -7 -13   0    1.00    0.20
   7 -13   0    1.04    0.14
  -7  13  -1    2.45    0.27
  -7 -13  -1    2.15    0.30
   7 -13   1    2.14    0.20
  -7  13  -2    3.22    0.33
   7 -13   2    3.37    0.25
  -7 -13  -2    2.90    0.35
  -7  13  -3   10.99    0.61
  -7 -13  -3   10.99    0.71
   7 -13   3   11.57    0.53
   7  14  -3   19.74    0.81
  -7  14   3   20.03    0.87
  -7 -14   3   19.95    0.78
   7 -14  -3   18.56    0.81
   7  14  -2    1.62    0.18
  -7  14   2    1.55    0.22
   7 -14  -2    1.58    0.18
  -7 -14   2    1.64    0.20
  -7  14   1    0.37    0.14
   7  14  -1    0.41    0.11
   7 -14  -1    0.54    0.12
  -7  14   0    6.08    0.42
   7  14   0    7.12    0.38
   7 -14   0    6.21    0.35
  -7 -14   0    5.75    0.43
   7  14   1    1.20    0.19
  -7  14  -1    1.68    0.24
  -7 -14  -1    1.58    0.26
   7 -14   1    1.69    0.19
  -7  14  -2    3.23    0.32
   7 -14   2    3.27    0.25
  -7 -14  -2    3.15    0.37
  -7  15   3    1.22    0.21
   7  15  -3    1.66    0.20
  -7 -15   3    1.39    0.17
   7 -15  -3    1.67    0.20
   7  15  -2    0.13    0.09
  -7  15   2    0.22    0.14
   7 -15  -2    0.21    0.10
   7  15  -1    1.46    0.17
  -7  15   1    1.33    0.22
   7 -15  -1    1.60    0.18
  -7  15   0    0.54    0.18
   7  15   0    0.62    0.14
   7 -15   0    0.76    0.14
  -7 -15   0    0.68    0.20
   7  15   1    8.44    0.52
  -7  15  -1   11.92    0.59
   7 -15   1   11.51    0.52
  -7 -15  -1   10.63    0.64
   7  16  -1    0.26    0.11
  -7  16   1    0.11    0.14
   7 -16  -1    0.26    0.11
   7  16   0    6.72    0.38
  -7  16   0    5.81    0.43
   7 -16   0    6.55    0.37
  -8   0   6    1.66    0.18
   8   0  -6    1.75    0.19
   8   0  -5    0.04    0.07
  -8   0   5    0.01    0.07
   8   0  -4   17.45    0.66
  -8   0   4   17.23    0.69
  -8   0   4   16.35    0.69
   8   0  -3    0.00    0.07
   8   0  -3   -0.02    0.05
  -8   0   3   -0.10    0.08
   8   0  -2   75.32    2.64
  -8   0   2   74.13    2.68
   8   0  -2   76.39    2.59
   8   0  -1    0.05    0.04
   8   0  -1    0.04    0.06
  -8   0   1   -0.01    0.09
   8   0   0   61.66    2.08
  -8   0   0   58.42    2.21
   8   0   0   60.98    2.13
  -8   0  -1   -0.05    0.11
   8   0   1    0.46    0.08
   8   0   1    0.00    0.06
  -8   0  -2    0.09    0.12
   8   0   2    0.10    0.06
   8   0   2    0.01    0.04
  -8   0  -3   -0.03    0.12
   8   0   3   -0.10    0.03
   8   0   3    0.10    0.06
  -8   0  -4    4.62    0.40
  -8   0  -5   -0.03    0.13
  -8   1   6    4.58    0.29
   8   1  -6    4.68    0.29
  -8  -1   6    4.37    0.28
   8  -1  -6    4.75    0.28
  -8   1   5    6.15    0.33
   8   1  -5    6.55    0.33
  -8  -1   5    6.19    0.33
   8  -1  -5    6.30    0.32
   8   1  -4    2.73    0.19
  -8   1   4    2.59    0.22
   8  -1  -4    2.93    0.19
  -8  -1   4    2.98    0.21
  -8  -1   4    3.72    0.24
  -8   1   3    3.49    0.24
   8   1  -3    3.31    0.22
   8   1  -3    3.39    0.19
   8  -1  -3    2.81    0.22
  -8  -1   3    3.36    0.24
   8  -1  -3    3.08    0.18
   8   1  -2    0.18    0.06
   8   1  -2    0.18    0.08
  -8   1   2    0.27    0.10
   8  -1  -2    0.21    0.06
  -8  -1   2    0.19    0.10
   8  -1  -2    0.17    0.08
  -8   1   1   15.34    0.69
   8   1  -1   16.22    0.59
   8   1  -1   16.15    0.64
   8  -1  -1   15.99    0.64
   8  -1  -1   16.50    0.58
  -8  -1   1   15.40    0.69
  -8   1   0   12.46    0.59
   8   1   0   12.90    0.52
   8   1   0   13.06    0.48
   8  -1   0   12.41    0.52
  -8  -1   0   11.99    0.60
   8  -1   0   12.79    0.46
   8   1   1    0.38    0.09
  -8   1  -1    0.29    0.13
   8   1   1    0.12    0.07
   8  -1   1    0.26    0.08
  -8  -1  -1    0.05    0.11
   8  -1   1    0.34    0.06
   8   1   2    1.06    0.12
  -8   1  -2    0.98    0.19
   8  -1   2    1.21    0.12
  -8  -1  -2    1.07    0.19
  -8   1  -3    1.46    0.23
   8   1   3    1.45    0.13
  -8  -1  -3    1.37    0.23
   8  -1   3    1.49    0.14
  -8   1  -4    1.44    0.24
   8  -1   4    1.64    0.15
  -8  -1  -4    1.64    0.27
  -8   1  -5    0.70    0.21
  -8  -1  -5    0.93    0.23
  -8   2   6    2.38    0.21
   8   2  -6    2.28    0.21
   8  -2  -6    2.12    0.20
  -8  -2   6    2.32    0.21
   8   2  -5    1.90    0.18
  -8   2   5    2.04    0.18
   8  -2  -5    2.00    0.17
  -8  -2   5    2.00    0.18
   8   2  -4    0.06    0.07
  -8   2   4    0.08    0.09
   8  -2  -4    0.10    0.09
   8  -2  -4    0.15    0.07
  -8  -2   4    0.14    0.07
   8   2  -3    3.14    0.19
  -8   2   3    2.84    0.24
  -8  -2   3    3.14    0.24
   8  -2  -3    3.40    0.18
  -8  -2   3    3.18    0.20
   8  -2  -3    3.13    0.22
   8   2  -2    3.58    0.19
   8   2  -2    3.57    0.23
  -8   2   2    3.56    0.25
   8  -2  -2    3.59    0.17
  -8  -2   2    3.44    0.26
   8  -2  -2    3.64    0.23
   8   2  -1    5.81    0.25
   8   2  -1    5.85    0.29
  -8   2   1    5.36    0.33
   8  -2  -1    5.85    0.23
  -8  -2   1    5.36    0.35
   8  -2  -1    5.65    0.29
  -8   2   0    1.01    0.17
   8   2   0    0.87    0.11
   8   2   0    1.02    0.10
   8  -2   0    1.13    0.10
  -8  -2   0    0.83    0.16
   8  -2   0    1.07    0.13
   8   2   1   62.88    2.17
  -8   2  -1   61.75    2.28
  -8  -2  -1   60.65    2.30
   8  -2   1   62.35    2.18
  -8   2  -2    7.36    0.46
   8   2   2    7.71    0.33
   8  -2   2    7.26    0.34
  -8  -2  -2    7.18    0.46
  -8   2  -3    1.48    0.23
   8   2   3    1.56    0.13
  -8  -2  -3    1.26    0.22
   8  -2   3    1.63    0.14
   8   2   4   -0.19    0.06
  -8   2  -4    0.08    0.15
  -8  -2  -4   -0.06    0.12
   8  -2   4    0.05    0.07
  -8   2  -5    4.01    0.39
  -8  -2  -5    3.58    0.39
  -8   3   6   14.87    0.65
   8   3  -6   15.68    0.67
   8  -3  -6   15.85    0.65
  -8  -3   6   15.94    0.67
  -8   3   5    3.55    0.25
  -8   3   5    3.27    0.23
   8   3  -5    3.55    0.24
   8  -3  -5    3.45    0.22
  -8  -3   5    3.53    0.23
  -8   3   4    0.12    0.09
   8  -3  -4   -0.03    0.08
   8  -3  -4    0.01    0.06
  -8  -3   4    0.11    0.08
  -8   3   3    4.02    0.27
   8   3  -3    4.01    0.22
  -8  -3   3    3.84    0.23
  -8  -3   3    3.91    0.27
   8  -3  -3    4.27    0.20
   8  -3  -3    4.14    0.26
   8   3  -2    1.25    0.11
   8   3  -2    1.42    0.14
  -8   3   2    1.99    0.21
   8  -3  -2    1.63    0.16
  -8  -3   2    1.49    0.18
  -8   3   1    0.20    0.11
   8   3  -1    0.30    0.06
   8   3  -1    0.25    0.08
  -8  -3   1    0.42    0.12
   8  -3  -1    0.21    0.08
   8   3   0   53.29    1.85
  -8   3   0   51.91    1.93
   8   3   0   53.75    1.83
  -8  -3   0   51.35    1.95
   8  -3   0   51.07    1.86
   8   3   1    8.73    0.37
  -8   3  -1    8.08    0.46
  -8  -3  -1    8.17    0.48
   8  -3   1    8.16    0.37
  -8   3  -2    0.24    0.14
   8   3   2    0.07    0.05
   8   3   2    0.50    0.08
  -8  -3  -2    0.29    0.13
   8  -3   2    0.44    0.09
  -8   3  -3   12.85    0.67
  -8  -3  -3   12.44    0.69
   8  -3   3   12.92    0.53
  -8   3  -4    0.53    0.19
  -8  -3  -4    0.55    0.20
   8  -3   4    0.55    0.10
   8   3   5    2.63    0.25
  -8  -3  -5    3.99    0.40
   8   4  -6    0.01    0.09
  -8   4   6   -0.03    0.08
  -8  -4   6    0.10    0.09
   8   4  -5   -0.02    0.08
  -8   4   5    0.05    0.10
  -8  -4   5    0.10    0.08
  -8   4   4    0.84    0.15
   8   4  -4    0.94    0.12
   8  -4  -4    1.07    0.15
  -8  -4   4    0.92    0.12
   8   4  -3    0.64    0.10
  -8   4   3    0.64    0.13
   8  -4  -3    0.69    0.13
  -8  -4   3    0.58    0.11
  -8  -4   3    0.67    0.13
  -8   4   2   18.98    0.80
   8   4  -2   20.09    0.74
  -8  -4   2   19.80    0.75
   8  -4  -2   20.43    0.79
  -8  -4   2   19.16    0.81
   8   4  -1   16.01    0.63
  -8   4   1   16.10    0.70
   8   4  -1   16.27    0.61
  -8  -4   1   15.88    0.71
   8  -4  -1   15.75    0.65
   8   4   0    5.92    0.29
   8   4   0    6.24    0.29
  -8   4   0    5.83    0.36
   8  -4   0    5.90    0.30
  -8  -4   0    5.37    0.37
  -8   4  -1   30.96    1.25
   8   4   1   32.42    1.15
  -8  -4  -1   30.24    1.28
   8  -4   1   32.82    1.17
  -8   4  -2    0.66    0.17
   8   4   2    1.03    0.11
  -8  -4  -2    0.83    0.19
   8  -4   2    0.89    0.12
  -8   4  -3    6.20    0.43
   8  -4   3    6.39    0.31
  -8  -4  -3    5.68    0.44
  -8   4  -4   10.77    0.62
  -8  -4  -4   10.13    0.64
   8  -4   4   10.88    0.47
  -8   4  -5    0.49    0.20
  -8  -4  -5    0.65    0.22
   8  -4   5    0.57    0.11
  -8   5   6    1.51    0.17
   8   5  -6    1.62    0.19
  -8  -5   6    1.42    0.18
   8   5  -5    7.74    0.39
  -8   5   5    7.44    0.40
  -8  -5   5    7.49    0.38
   8   5  -4    3.25    0.22
  -8   5   4    3.17    0.26
   8  -5  -4    3.34    0.24
  -8  -5   4    3.11    0.22
  -8   5   3   66.09    2.38
   8   5  -3   67.26    2.34
  -8  -5   3   66.17    2.34
  -8  -5   3   65.76    2.37
   8  -5  -3   67.31    2.38
   8   5  -2   12.10    0.48
  -8   5   2   11.80    0.54
   8  -5  -2   11.37    0.51
  -8  -5   2   11.58    0.48
  -8  -5   2   11.64    0.55
  -8   5   1   57.65    2.14
   8   5  -1   60.15    2.06
   8  -5  -1   58.87    2.10
  -8  -5   1   59.39    2.06
  -8  -5   1   57.87    2.16
  -8   5   0    0.66    0.15
   8   5   0    0.88    0.12
   8   5   0    0.70    0.10
   8  -5   0    0.88    0.12
  -8  -5   0    0.84    0.17
   8   5   1    0.34    0.07
   8   5   1    0.03    0.07
  -8   5  -1    0.24    0.13
  -8  -5  -1    0.14    0.12
   8  -5   1    0.35    0.09
  -8   5  -2    0.45    0.15
   8  -5   2    0.58    0.10
  -8  -5  -2    0.48    0.16
  -8   5  -3    0.81    0.20
  -8  -5  -3    0.80    0.21
   8  -5   3    0.90    0.12
  -8   5  -4    0.62    0.19
   8  -5   4    0.66    0.11
  -8  -5  -4    0.55    0.20
  -8   6   6    1.13    0.15
   8   6  -6    1.21    0.17
  -8  -6   6    1.14    0.16
  -8   6   5    1.00    0.16
   8   6  -5    0.95    0.14
  -8  -6   5    0.89    0.14
   8  -6  -5    0.89    0.15
  -8   6   4    1.98    0.22
   8   6  -4    1.95    0.18
  -8  -6   4    2.10    0.18
   8  -6  -4    2.59    0.21
   8   6  -3    8.79    0.39
  -8   6   3    8.56    0.44
   8  -6  -3    8.70    0.42
  -8  -6   3    8.40    0.39
  -8   6   2   10.21    0.50
   8   6  -2   10.55    0.44
   8  -6  -2   10.25    0.47
  -8  -6   2   10.19    0.50
  -8  -6   2   10.92    0.45
   8   6  -1    4.53    0.23
  -8   6   1    4.20    0.30
   8  -6  -1    4.19    0.26
  -8  -6   1    4.14    0.31
  -8  -6   1    4.31    0.23
  -8   6   0    2.62    0.25
   8   6   0    2.09    0.18
   8  -6   0    2.25    0.18
  -8  -6   0    1.98    0.14
  -8  -6   0    2.16    0.25
  -8   6  -1   30.17    1.21
   8  -6   1   30.75    1.13
  -8  -6  -1   29.50    1.25
  -8   6  -2    5.16    0.37
  -8  -6  -2    4.97    0.40
   8  -6   2    5.41    0.29
  -8   6  -3    1.38    0.24
  -8  -6  -3    1.37    0.25
   8  -6   3    1.32    0.15
  -8   6  -4   11.12    0.63
   8  -6   4   10.74    0.48
  -8  -6  -4   10.34    0.67
   8   7  -6    5.92    0.36
  -8   7   6    5.80    0.33
  -8  -7   6    6.01    0.35
  -8   7   5    2.90    0.26
   8   7  -5    2.97    0.24
  -8  -7   5    3.09    0.24
   8  -7  -5    2.81    0.24
  -8   7   4   12.26    0.58
   8   7  -4   12.56    0.54
   8  -7  -4   12.31    0.56
  -8  -7   4   12.32    0.53
   8   7  -3    0.27    0.09
  -8   7   3    0.23    0.11
  -8  -7   3    0.20    0.08
   8  -7  -3    0.20    0.09
   8   7  -2    1.24    0.13
  -8   7   2    1.17    0.18
   8  -7  -2    1.08    0.15
  -8  -7   2    1.26    0.18
  -8  -7   2    1.38    0.14
  -8   7   1   40.23    1.51
   8   7  -1   41.77    1.44
   8  -7  -1   40.45    1.47
  -8  -7   1   39.19    1.42
  -8  -7   1   38.15    1.54
   8   7   0    4.98    0.28
  -8   7   0    4.76    0.34
  -8  -7   0    4.38    0.35
   8  -7   0    5.29    0.28
  -8  -7   0    5.05    0.24
  -8   7  -1   16.64    0.75
  -8  -7  -1   16.05    0.80
   8  -7   1   16.38    0.67
  -8   7  -2    1.15    0.20
  -8  -7  -2    1.43    0.25
   8  -7   2    1.40    0.16
  -8   7  -3    0.26    0.15
  -8  -7  -3    0.36    0.18
   8  -7   3    0.37    0.10
  -8   7  -4    1.00    0.23
  -8  -7  -4    0.76    0.23
   8  -7   4    0.96    0.14
   8   8  -5   13.13    0.59
  -8   8   5   13.02    0.61
   8  -8  -5   12.64    0.60
  -8  -8   5   13.30    0.58
   8   8  -4    1.73    0.18
  -8   8   4    1.50    0.20
  -8  -8   4    1.72    0.19
   8  -8  -4    1.84    0.20
  -8   8   3    0.19    0.12
   8   8  -3    0.26    0.08
  -8  -8   3    0.26    0.08
   8  -8  -3    0.12    0.09
  -8   8   2   27.97    1.12
   8   8  -2   28.24    1.06
   8  -8  -2   28.49    1.09
  -8  -8   2   28.90    1.05
  -8  -8   2   28.89    1.15
  -8   8   1   28.92    1.16
   8   8  -1   29.93    1.09
  -8  -8   1   28.90    1.20
   8  -8  -1   29.63    1.12
  -8  -8   1   29.30    1.07
   8   8   0    0.44    0.11
  -8   8   0    0.46    0.14
  -8  -8   0    0.56    0.08
  -8  -8   0    0.83    0.18
   8  -8   0    0.38    0.10
  -8   8  -1    0.59    0.16
   8   8   1    0.21    0.09
   8  -8   1    0.56    0.11
  -8  -8  -1    0.46    0.16
  -8   8  -2    7.87    0.48
   8  -8   2    8.66    0.41
  -8  -8  -2    8.40    0.55
  -8   8  -3    4.19    0.37
  -8  -8  -3    4.68    0.42
   8  -8   3    4.61    0.28
  -8   8  -4    0.79    0.22
   8  -8   4    1.08    0.15
  -8  -8  -4    0.94    0.24
  -8   9   5   -0.04    0.12
   8   9  -5    0.13    0.10
  -8  -9   5    0.20    0.10
   8  -9  -5    0.06    0.10
  -8   9   4   27.72    1.13
   8   9  -4   28.71    1.09
  -8  -9   4   27.86    1.07
   8  -9  -4   28.55    1.11
   8   9  -3    0.27    0.09
  -8   9   3    0.24    0.12
   8  -9  -3    0.22    0.10
  -8  -9   3    0.28    0.09
   8   9  -2   26.24    0.98
  -8   9   2   25.95    1.05
   8  -9  -2   25.62    1.01
  -8  -9   2   26.03    1.08
  -8  -9   2   25.87    0.97
   8   9  -1    3.23    0.21
  -8   9   1    2.95    0.27
   8  -9  -1    3.14    0.23
  -8  -9   1    2.98    0.18
  -8  -9   1    2.93    0.29
  -8   9   0    7.45    0.44
   8   9   0    7.43    0.38
  -8  -9   0    7.51    0.48
   8  -9   0    7.82    0.38
  -8   9  -1    6.51    0.42
  -8  -9  -1    6.51    0.47
   8  -9   1    6.75    0.35
  -8   9  -2    4.15    0.35
  -8  -9  -2    3.67    0.39
   8  -9   2    4.03    0.26
  -8   9  -3    0.12    0.14
   8   9   3   -0.26    0.09
   8  -9   3    0.14    0.09
  -8  -9  -3    0.08    0.16
  -8   9  -4    0.39    0.19
   8  -9   4    0.46    0.11
  -8  -9  -4    0.17    0.17
   8  10  -5    0.25    0.11
  -8  10   5    0.28    0.14
   8 -10  -5    0.21    0.11
  -8 -10   5    0.30    0.11
  -8  10   4    2.56    0.28
   8  10  -4    2.92    0.23
   8 -10  -4    2.46    0.23
  -8 -10   4    2.95    0.22
   8  10  -3    1.22    0.15
  -8  10   3    1.14    0.19
  -8 -10   3    0.96    0.13
   8 -10  -3    1.21    0.17
   8  10  -2    3.15    0.21
  -8  10   2    3.63    0.29
  -8 -10   2    3.23    0.20
   8 -10  -2    3.02    0.24
   8  10  -1    0.09    0.07
  -8  10   1    0.09    0.12
   8 -10  -1    0.19    0.09
  -8 -10   1    0.17    0.07
  -8 -10   1    0.16    0.13
   8  10   0    2.51    0.21
  -8  10   0    2.24    0.26
  -8 -10   0    2.36    0.28
   8 -10   0    2.31    0.20
  -8  10  -1    1.10    0.19
   8 -10   1    1.06    0.15
  -8 -10  -1    1.16    0.23
  -8  10  -2    3.33    0.32
   8 -10   2    3.44    0.24
  -8 -10  -2    2.73    0.34
  -8  10  -3    0.76    0.20
   8 -10   3    0.94    0.15
  -8 -10  -3    0.53    0.19
   8  11  -4   14.46    0.64
  -8  11   4   15.39    0.69
  -8 -11   4   14.48    0.62
   8 -11  -4   14.07    0.65
   8  11  -3    5.64    0.31
  -8  11   3    5.09    0.36
  -8 -11   3    5.51    0.30
   8 -11  -3    5.18    0.33
  -8  11   2    0.12    0.13
   8  11  -2    0.10    0.08
  -8 -11   2    0.24    0.08
   8 -11  -2    0.05    0.08
   8  11  -1    9.15    0.42
  -8  11   1    8.85    0.49
   8 -11  -1    8.61    0.43
  -8  11   0    1.26    0.20
   8  11   0    1.69    0.19
  -8 -11   0    1.30    0.23
   8 -11   0    1.53    0.18
  -8  11  -1   21.02    0.91
   8 -11   1   20.59    0.84
  -8 -11  -1   20.06    0.99
  -8  11  -2    1.69    0.25
  -8 -11  -2    1.81    0.31
   8 -11   2    1.58    0.19
  -8  11  -3   16.13    0.81
  -8 -11  -3   16.67    0.92
   8 -11   3   16.52    0.71
  -8  12   4    4.65    0.35
   8  12  -4    4.26    0.30
   8 -12  -4    4.24    0.30
  -8 -12   4    4.76    0.29
   8  12  -3    0.47    0.12
  -8  12   3    0.66    0.17
  -8 -12   3    0.39    0.11
   8 -12  -3    0.65    0.14
   8  12  -2    3.54    0.24
  -8  12   2    3.56    0.31
  -8 -12   2    3.57    0.22
   8 -12  -2    3.12    0.26
   8  12  -1   21.01    0.82
  -8  12   1   20.14    0.89
   8 -12  -1   19.99    0.83
  -8  12   0    1.33    0.21
   8  12   0    1.63    0.20
   8 -12   0    1.71    0.19
  -8  12  -1    0.68    0.18
   8  12   1    0.80    0.18
  -8 -12  -1    0.69    0.20
   8 -12   1    1.08    0.16
  -8  12  -2    5.88    0.42
   8 -12   2    5.11    0.33
  -8 -12  -2    5.27    0.47
   8  13  -3    0.24    0.11
  -8  13   3    0.24    0.15
  -8 -13   3    0.00    0.09
   8 -13  -3    0.13    0.11
  -8  13   2    4.45    0.35
   8  13  -2    4.91    0.29
   8 -13  -2    3.84    0.29
  -8  13   1    0.11    0.14
   8  13  -1   -0.03    0.08
   8 -13  -1    0.13    0.09
  -8  13   0   19.92    0.88
   8  13   0   21.35    0.82
   8 -13   0   19.08    0.81
  -8 -13   0   17.20    0.91
  -8  13  -1    0.32    0.16
   8  13   1    0.48    0.15
  -8 -13  -1    0.27    0.16
   8 -13   1    0.21    0.11
  -8  13  -2   10.10    0.58
   8 -13   2   10.47    0.50
  -8 -13  -2    8.68    0.63
   8  14  -2    0.90    0.14
  -8  14   2    0.71    0.18
   8 -14  -2    0.83    0.15
  -8  14   1    0.86    0.20
   8  14  -1    0.94    0.15
   8 -14  -1    1.19    0.17
  -8  14   0    1.74    0.26
   8  14   0    2.03    0.22
  -8 -14   0    1.57    0.26
   8 -14   0    1.90    0.21
  -8  14  -1   13.35    0.69
   8  14   1   12.54    0.63
  -8 -14  -1   13.08    0.75
   8 -14   1   13.09    0.60
   9   0  -6    1.85    0.19
  -9   0   6    1.59    0.18
   9   0  -5   -0.01    0.07
  -9   0   5   -0.04    0.07
  -9   0   4   22.86    0.92
   9   0  -4   24.61    0.89
  -9   0   4   23.36    0.94
   9   0  -3    0.03    0.08
   9   0  -3   -0.07    0.05
  -9   0   3   -0.01    0.10
  -9   0   2   39.00    1.47
   9   0  -2   36.66    1.42
   9   0  -2   40.08    1.37
  -9   0   1    0.09    0.11
   9   0  -1    0.02    0.07
   9   0  -1    0.02    0.05
   9   0   0   45.93    1.63
  -9   0   0   44.13    1.73
  -9   0  -1   -0.05    0.11
   9   0   1    0.01    0.06
  -9   0  -2    0.16    0.14
   9   0   2    0.29    0.08
   9   0   3    0.03    0.06
  -9   0  -3    0.04    0.14
  -9   0  -4    0.18    0.16
  -9   1   6    2.50    0.21
   9   1  -6    2.37    0.22
  -9  -1   6    2.38    0.21
  -9   1   5    0.06    0.08
   9   1  -5    0.17    0.08
  -9  -1   5    0.11    0.08
  -9   1   4    0.45    0.12
   9   1  -4    0.35    0.09
  -9  -1   4    0.39    0.10
   9   1  -3    0.18    0.07
  -9   1   3    0.38    0.12
   9   1  -3    0.16    0.09
   9  -1  -3    0.12    0.09
  -9  -1   3    0.12    0.11
  -9   1   2    2.98    0.26
   9   1  -2    3.05    0.22
   9   1  -2    2.83    0.17
   9  -1  -2    2.77    0.22
  -9  -1   2    2.88    0.27
   9   1  -1    0.41    0.10
   9   1  -1    0.37    0.07
  -9   1   1    0.30    0.12
   9  -1  -1    0.33    0.10
  -9  -1   1    0.39    0.14
  -9   1   0    0.60    0.16
   9   1   0    0.80    0.09
   9   1   0    0.99    0.13
  -9  -1   0    0.71    0.17
   9  -1   0    0.79    0.12
   9   1   1    3.93    0.23
   9   1   1    4.35    0.24
  -9   1  -1    4.34    0.35
  -9  -1  -1    4.50    0.36
   9  -1   1    4.47    0.25
   9   1   2   17.04    0.66
  -9   1  -2   16.74    0.81
   9  -1   2   16.61    0.66
  -9  -1  -2   15.90    0.81
  -9   1  -3   11.32    0.65
   9   1   3   10.57    0.57
   9  -1   3   11.18    0.47
  -9  -1  -3   11.12    0.65
  -9   1  -4   24.49    1.17
  -9  -1  -4   26.39    1.20
   9   2  -6    0.21    0.11
  -9   2   6    0.18    0.10
  -9  -2   6    0.26    0.11
  -9   2   5    6.87    0.36
   9   2  -5    6.81    0.35
  -9  -2   5    6.50    0.35
  -9   2   4    6.54    0.38
   9   2  -4    6.87    0.33
   9  -2  -4    6.55    0.37
  -9  -2   4    7.21    0.35
  -9   2   3   81.24    2.92
   9   2  -3   84.63    2.85
  -9  -2   3   81.72    2.87
  -9  -2   3   81.00    2.92
   9  -2  -3   81.15    2.90
   9   2  -2    0.80    0.10
   9   2  -2    0.75    0.12
  -9   2   2    0.67    0.15
  -9  -2   2    0.58    0.15
   9  -2  -2    0.74    0.13
   9   2  -1    0.86    0.09
  -9   2   1    0.72    0.16
   9   2  -1    0.97    0.13
   9  -2  -1    0.81    0.13
  -9  -2   1    0.85    0.17
   9   2   0   -0.04    0.06
   9   2   0   -0.03    0.04
  -9   2   0   -0.13    0.11
  -9  -2   0   -0.10    0.10
   9  -2   0    0.01    0.07
  -9   2  -1    2.55    0.29
   9   2   1    2.87    0.19
  -9  -2  -1    2.93    0.30
   9  -2   1    2.63    0.20
   9   2   2    0.30    0.08
   9   2   2    0.14    0.07
  -9   2  -2    0.13    0.14
  -9  -2  -2    0.16    0.14
   9  -2   2    0.45    0.09
  -9   2  -3    0.57    0.19
  -9  -2  -3    0.71    0.19
   9  -2   3    0.96    0.12
  -9   2  -4    8.20    0.57
   9  -2   4    7.80    0.39
  -9  -2  -4    7.82    0.57
   9   3  -6    1.69    0.20
  -9   3   6    1.61    0.18
  -9  -3   6    1.82    0.19
   9   3  -5    0.18    0.09
  -9   3   5    0.18    0.09
  -9  -3   5    0.32    0.10
  -9   3   4    7.31    0.41
   9   3  -4    7.80    0.37
   9  -3  -4    7.62    0.41
  -9  -3   4    7.65    0.38
  -9   3   3    0.05    0.11
   9   3  -3    0.29    0.08
  -9  -3   3    0.33    0.10
   9  -3  -3    0.22    0.10
  -9  -3   3    0.08    0.11
   9   3  -2    0.15    0.06
   9   3  -2    0.31    0.09
  -9   3   2    0.24    0.12
   9  -3  -2    0.10    0.09
  -9  -3   2    0.14    0.11
   9   3  -1    0.62    0.08
   9   3  -1    0.65    0.11
  -9   3   1    0.85    0.16
   9  -3  -1    0.55    0.11
  -9  -3   1    0.72    0.16
   9   3   0    1.66    0.13
  -9   3   0    1.57    0.22
   9   3   0    1.35    0.15
  -9  -3   0    1.43    0.22
   9  -3   0    1.55    0.16
   9   3   1    0.57    0.10
  -9   3  -1    0.48    0.16
   9   3   1    0.31    0.08
  -9  -3  -1    0.57    0.17
   9  -3   1    0.45    0.10
  -9   3  -2    9.42    0.56
   9   3   2   10.01    0.42
  -9  -3  -2    9.67    0.58
   9  -3   2    9.74    0.43
  -9   3  -3    5.78    0.44
   9  -3   3    5.61    0.30
  -9  -3  -3    5.41    0.45
  -9   3  -4   30.32    1.32
  -9  -3  -4   28.78    1.34
   9  -3   4   28.83    1.10
   9   4  -5    5.12    0.30
  -9  -4   5    4.92    0.30
   9   4  -4    1.62    0.16
  -9   4   4    1.54    0.20
  -9  -4   4    1.74    0.17
   9  -4  -4    1.45    0.18
  -9   4   3   25.70    1.05
   9   4  -3   27.27    0.99
  -9  -4   3   26.30    1.00
  -9  -4   3   25.80    1.05
   9  -4  -3   26.68    1.03
  -9   4   2    3.88    0.31
   9   4  -2    4.05    0.22
  -9  -4   2    4.17    0.30
  -9  -4   2    4.05    0.24
   9  -4  -2    4.24    0.27
   9   4  -1   12.65    0.54
   9   4  -1   13.19    0.51
  -9   4   1   13.39    0.62
  -9  -4   1   12.53    0.63
   9  -4  -1   13.15    0.56
  -9   4   0    9.68    0.53
   9   4   0   10.35    0.42
   9   4   0   10.51    0.44
  -9  -4   0    9.50    0.54
   9  -4   0   10.10    0.46
  -9   4  -1    5.65    0.40
   9   4   1    5.68    0.28
   9  -4   1    5.91    0.31
  -9  -4  -1    5.57    0.41
  -9   4  -2    2.75    0.32
   9  -4   2    2.90    0.21
  -9  -4  -2    2.58    0.30
  -9   4  -3    1.37    0.26
  -9  -4  -3    1.38    0.25
   9  -4   3    1.54    0.16
  -9   4  -4    5.42    0.46
  -9  -4  -4    5.47    0.48
   9  -4   4    5.50    0.31
  -9   5   5    1.50    0.20
   9   5  -5    1.48    0.18
  -9  -5   5    1.56    0.18
   9  -5  -5    1.39    0.19
  -9   5   4    1.51    0.19
   9   5  -4    1.67    0.17
   9  -5  -4    1.50    0.19
  -9  -5   4    1.56    0.17
   9   5  -3   30.41    1.13
  -9   5   3   30.74    1.19
  -9  -5   3   29.99    1.13
   9  -5  -3   30.27    1.17
   9   5  -2    0.67    0.10
  -9   5   2    0.81    0.16
  -9  -5   2    0.79    0.11
  -9  -5   2    0.57    0.15
   9  -5  -2    0.56    0.12
   9   5  -1    6.27    0.28
  -9   5   1    5.45    0.37
  -9  -5   1    5.84    0.39
  -9  -5   1    5.90    0.29
   9  -5  -1    5.63    0.32
   9   5   0    0.38    0.09
  -9   5   0    0.43    0.15
   9   5   0    0.19    0.08
   9  -5   0    0.28    0.10
  -9  -5   0    0.46    0.15
  -9   5  -1    7.61    0.48
   9   5   1    8.08    0.36
  -9  -5  -1    8.23    0.51
   9  -5   1    8.73    0.40
  -9   5  -2    1.76    0.27
   9  -5   2    1.92    0.18
  -9  -5  -2    1.74    0.27
  -9   5  -3   10.94    0.64
   9  -5   3   10.99    0.50
  -9  -5  -3   11.15    0.67
  -9   5  -4    0.13    0.17
  -9  -5  -4    0.16    0.18
   9  -5   4    0.14    0.09
   9   6  -5    0.84    0.15
  -9   6   5    0.83    0.17
  -9  -6   5    1.01    0.15
   9  -6  -5    1.14    0.18
  -9   6   4   18.73    0.81
   9   6  -4   18.88    0.76
   9  -6  -4   19.18    0.80
  -9  -6   4   19.23    0.77
  -9   6   3   29.03    1.17
   9   6  -3   29.85    1.11
  -9  -6   3   30.06    1.11
   9  -6  -3   29.29    1.15
  -9   6   2    0.93    0.17
   9   6  -2    0.75    0.11
  -9  -6   2    0.87    0.12
  -9  -6   2    1.05    0.18
   9  -6  -2    0.65    0.13
   9   6  -1    9.69    0.41
  -9   6   1    9.40    0.51
  -9  -6   1    8.73    0.51
  -9  -6   1    9.76    0.41
   9  -6  -1    9.64    0.46
  -9   6   0    0.69    0.17
   9   6   0    0.50    0.10
   9  -6   0    0.48    0.11
  -9  -6   0    0.47    0.09
  -9  -6   0    0.60    0.17
  -9   6  -1    3.86    0.34
   9  -6   1    4.53    0.26
  -9  -6  -1    3.49    0.34
  -9   6  -2    8.63    0.54
   9  -6   2    9.32    0.43
  -9  -6  -2    9.47    0.59
   9   6   3    0.17    0.11
  -9   6  -3    0.14    0.17
   9  -6   3    0.00    0.08
  -9  -6  -3    0.00    0.14
  -9   7   5    1.97    0.23
   9   7  -5    1.78    0.20
   9  -7  -5    1.95    0.22
  -9  -7   5    1.81    0.20
  -9   7   4    1.10    0.19
   9   7  -4    0.93    0.14
   9  -7  -4    0.93    0.15
  -9  -7   4    0.77    0.13
  -9   7   3    5.12    0.35
   9   7  -3    5.29    0.29
   9  -7  -3    5.22    0.33
  -9  -7   3    5.30    0.29
   9   7  -2    1.26    0.14
  -9   7   2    1.46    0.21
  -9  -7   2    1.35    0.14
   9  -7  -2    1.29    0.17
  -9  -7   2    1.22    0.19
  -9   7   1   11.83    0.59
   9   7  -1   12.18    0.49
  -9  -7   1   11.21    0.60
   9  -7  -1   11.58    0.53
  -9  -7   1   11.64    0.48
   9   7   0    3.54    0.23
  -9   7   0    3.24    0.31
  -9  -7   0    3.52    0.20
   9  -7   0    3.31    0.24
  -9  -7   0    3.21    0.31
  -9   7  -1    0.68    0.17
   9   7   1    0.52    0.12
   9  -7   1    0.65    0.12
  -9  -7  -1    0.53    0.17
  -9   7  -2   11.24    0.61
   9  -7   2   10.93    0.50
  -9  -7  -2   10.45    0.65
  -9   7  -3    0.67    0.21
  -9  -7  -3    0.72    0.23
   9  -7   3    0.96    0.14
  -9   8   5    7.02    0.43
   9   8  -5    7.27    0.39
   9  -8  -5    6.05    0.39
  -9  -8   5    7.34    0.38
   9   8  -4    2.26    0.21
  -9   8   4    2.05    0.26
  -9  -8   4    2.15    0.20
   9  -8  -4    2.36    0.23
  -9   8   3    1.47    0.21
   9   8  -3    1.44    0.17
   9  -8  -3    1.39    0.18
  -9  -8   3    1.64    0.16
  -9   8   2    0.58    0.16
   9   8  -2    0.50    0.10
  -9  -8   2    0.54    0.10
   9  -8  -2    0.58    0.13
  -9  -8   2    0.60    0.22
   9   8  -1    3.52    0.22
  -9   8   1    3.20    0.30
   9  -8  -1    3.18    0.24
  -9  -8   1    3.20    0.20
  -9  -8   1    3.16    0.31
   9   8   0    4.43    0.26
  -9   8   0    4.18    0.34
   9  -8   0    4.50    0.28
  -9  -8   0    4.17    0.37
  -9   8  -1    6.08    0.42
  -9  -8  -1    5.78    0.46
   9  -8   1    6.45    0.34
  -9   8  -2    0.55    0.19
   9   8   2    0.44    0.15
  -9  -8  -2    0.70    0.21
   9  -8   2    0.79    0.13
  -9   8  -3    0.20    0.17
   9   8   3    0.13    0.08
  -9  -8  -3    0.33    0.18
   9  -8   3    0.35    0.11
   9   9  -4    1.59    0.19
  -9   9   4    1.68    0.23
   9  -9  -4    1.28    0.19
  -9  -9   4    1.47    0.17
   9   9  -3   -0.01    0.07
  -9   9   3   -0.09    0.12
  -9  -9   3    0.10    0.08
   9  -9  -3    0.10    0.10
  -9   9   2    2.58    0.28
   9   9  -2    2.83    0.21
  -9  -9   2    3.00    0.20
   9  -9  -2    2.79    0.24
   9   9  -1    0.13    0.08
  -9   9   1    0.22    0.15
  -9  -9   1    0.10    0.13
   9  -9  -1    0.25    0.10
  -9  -9   1    0.27    0.07
   9   9   0    8.13    0.39
  -9   9   0    7.46    0.47
  -9  -9   0    7.07    0.50
   9  -9   0    7.77    0.40
  -9   9  -1    8.20    0.49
   9   9   1    6.16    0.39
  -9  -9  -1    8.00    0.54
   9  -9   1    8.60    0.41
  -9   9  -2    2.66    0.32
  -9  -9  -2    2.83    0.38
   9  -9   2    2.93    0.23
   9   9   3    0.27    0.12
  -9   9  -3    0.69    0.22
   9  -9   3    0.89    0.15
  -9  -9  -3    0.72    0.22
  -9  10   4   21.74    0.95
   9  10  -4   22.42    0.89
   9 -10  -4   21.27    0.91
  -9 -10   4   21.93    0.87
  -9  10   3    0.24    0.14
   9  10  -3    0.39    0.11
  -9 -10   3    0.39    0.10
   9 -10  -3    0.31    0.12
   9  10  -2   24.14    0.92
  -9  10   2   22.88    1.00
   9 -10  -2   24.00    0.96
  -9 -10   2   23.62    0.90
  -9  10   1    0.08    0.13
   9  10  -1    0.03    0.07
   9 -10  -1    0.01    0.08
  -9 -10   1    0.13    0.14
   9  10   0    9.07    0.44
  -9  10   0    8.72    0.52
   9 -10   0    8.88    0.44
  -9 -10   0    8.71    0.57
  -9  10  -1    2.48    0.31
   9  10   1    2.69    0.27
  -9 -10  -1    2.54    0.34
   9 -10   1    2.76    0.23
   9  10   2    0.34    0.12
  -9  10  -2   -0.08    0.14
   9 -10   2    0.02    0.09
  -9 -10  -2    0.13    0.17
   9  11  -3    2.43    0.21
  -9  11   3    2.61    0.29
   9 -11  -3    2.23    0.23
  -9 -11   3    2.58    0.21
   9  11  -2    1.54    0.18
  -9  11   2    1.52    0.23
  -9 -11   2    1.75    0.16
   9 -11  -2    1.81    0.20
  -9  11   1   -0.10    0.14
   9  11  -1    0.23    0.09
   9 -11  -1    0.03    0.09
  -9 -11   1   -0.13    0.13
  -9  11   0    0.07    0.15
   9  11   0    0.18    0.10
   9 -11   0    0.16    0.10
  -9 -11   0    0.07    0.15
  -9  11  -1   10.06    0.56
   9  11   1    8.39    0.48
  -9 -11  -1    8.36    0.59
   9 -11   1    9.62    0.47
  -9  11  -2    3.22    0.34
  -9 -11  -2    2.77    0.39
   9 -11   2    3.02    0.25
   9  12  -2    0.77    0.14
  -9  12   2    0.54    0.19
   9 -12  -2    0.53    0.14
  -9  12   1    2.54    0.30
   9  12  -1    2.89    0.22
   9 -12  -1    2.68    0.25
  -9  12   0    1.62    0.26
   9  12   0    1.87    0.20
  -9 -12   0    1.22    0.24
   9 -12   0    1.62    0.20
  -9  12  -1   17.77    0.84
   9  12   1   16.44    0.75
  -9 -12  -1   16.51    0.90
   9 -12   1   17.40    0.74
  -9  13   1    0.77    0.20
   9  13  -1    1.23    0.16
   9 -13  -1    1.04    0.17
 -10   0   5    0.09    0.09
 -10   0   4   -0.04    0.07
 -10   0   3   -0.05    0.10
  10   0  -3    0.08    0.09
 -10   0   2   34.42    1.36
  10   0  -2   34.14    1.30
 -10   0   1   -0.21    0.11
  10   0  -1   -0.02    0.08
 -10   0   0   14.64    0.73
  10   0   0   15.13    0.63
  10   0   1   -0.03    0.07
 -10   0  -1   -0.15    0.12
  10   0   2   13.74    0.58
 -10   0  -2   13.96    0.75
 -10   0  -3   -0.10    0.15
 -10   1   5    7.07    0.39
 -10  -1   5    7.86    0.40
 -10  -1   4    1.67    0.19
 -10   1   3    2.10    0.25
  10   1  -3    1.81    0.20
 -10  -1   3    2.03    0.24
  10  -1  -3    2.17    0.21
  10   1  -2    6.88    0.37
 -10   1   2    7.09    0.43
  10  -1  -2    6.90    0.38
 -10  -1   2    6.87    0.43
  10   1  -1    2.59    0.21
 -10   1   1    2.24    0.27
 -10  -1   1    2.19    0.27
  10  -1  -1    2.23    0.20
 -10   1   0    3.72    0.35
  10   1   0    3.93    0.25
  10  -1   0    3.72    0.25
 -10  -1   0    3.86    0.35
  10   1   1    0.19    0.09
 -10   1  -1    0.14    0.15
 -10  -1  -1    0.10    0.14
  10  -1   1    0.23    0.09
 -10   1  -2    1.39    0.25
  10   1   2    1.44    0.16
  10  -1   2    1.48    0.16
 -10  -1  -2    1.15    0.24
 -10   1  -3    3.92    0.41
 -10  -1  -3    4.84    0.43
  10  -1   3    4.10    0.26
 -10   2   5    9.28    0.46
 -10  -2   5    9.25    0.45
 -10   2   4    2.09    0.24
  10  -2  -4    1.56    0.20
 -10  -2   4    2.05    0.20
 -10   2   3   14.40    0.68
 -10  -2   3   15.05    0.69
  10  -2  -3   15.09    0.65
 -10  -2   3   14.22    0.62
  10   2  -2    0.38    0.11
 -10   2   2    0.30    0.15
  10  -2  -2    0.31    0.11
 -10  -2   2    0.50    0.15
 -10   2   1   22.81    0.99
  10   2  -1   23.59    0.91
  10  -2  -1   22.53    0.91
 -10  -2   1   23.14    1.00
  10   2   0   12.92    0.54
 -10   2   0   12.79    0.66
  10  -2   0   12.65    0.55
 -10  -2   0   11.63    0.65
  10   2   1   12.27    0.51
 -10   2  -1   11.09    0.64
 -10  -2  -1   11.93    0.66
  10  -2   1   11.50    0.52
 -10   2  -2    0.45    0.19
 -10  -2  -2    0.24    0.16
  10  -2   2    0.45    0.11
 -10   2  -3    0.04    0.16
  10  -2   3    0.14    0.08
 -10  -2  -3    0.04    0.14
 -10   3   5    0.11    0.09
  10   3  -5    0.13    0.09
 -10  -3   5    0.20    0.09
 -10   3   4    5.94    0.38
  10   3  -4    5.99    0.32
  10  -3  -4    5.82    0.36
 -10  -3   4    6.09    0.33
 -10   3   3    0.25    0.13
  10   3  -3    0.27    0.09
 -10  -3   3    0.13    0.09
  10  -3  -3    0.46    0.12
  10   3  -2    0.01    0.06
 -10   3   2    0.08    0.13
  10  -3  -2    0.34    0.11
 -10  -3   2    0.05    0.12
 -10   3   1    0.59    0.17
  10   3  -1    0.84    0.13
  10   3  -1    0.75    0.10
 -10  -3   1    0.59    0.16
  10  -3  -1    0.75    0.14
  10   3   0    1.19    0.14
 -10   3   0    1.33    0.22
 -10  -3   0    1.10    0.22
  10  -3   0    1.30    0.16
  10   3   1    0.09    0.08
 -10   3  -1   -0.05    0.14
  10  -3   1   -0.02    0.08
 -10  -3  -1   -0.02    0.12
 -10   3  -2    0.69    0.20
 -10  -3  -2    0.75    0.21
  10  -3   2    1.00    0.14
 -10   3  -3   -0.02    0.16
 -10  -3  -3   -0.05    0.14
  10  -3   3    0.02    0.08
  10   4  -5    1.84    0.19
  10   4  -4    0.14    0.09
 -10   4   4   -0.08    0.12
  10  -4  -4    0.00    0.10
 -10  -4   4    0.06    0.09
 -10   4   3    8.85    0.49
  10   4  -3    8.92    0.40
  10  -4  -3    8.38    0.44
 -10  -4   3    8.81    0.42
  10   4  -2    1.31    0.14
 -10   4   2    1.16    0.20
 -10  -4   2    1.20    0.15
 -10  -4   2    1.21    0.20
  10  -4  -2    1.37    0.18
  10   4  -1    0.15    0.09
 -10   4   1    0.13    0.13
  10   4  -1    0.15    0.07
  10  -4  -1    0.07    0.09
 -10  -4   1    0.04    0.12
 -10   4   0    2.96    0.31
  10   4   0    2.63    0.17
  10   4   0    2.34    0.19
  10  -4   0    2.38    0.22
 -10  -4   0    2.37    0.29
  10   4   1    3.28    0.22
 -10   4  -1    3.67    0.35
  10   4   1    3.43    0.25
 -10  -4  -1    3.37    0.35
  10  -4   1    3.66    0.25
 -10   4  -2   15.56    0.81
  10  -4   2   15.76    0.65
 -10  -4  -2   15.40    0.82
 -10   4  -3    3.45    0.39
 -10  -4  -3    3.81    0.41
  10  -4   3    4.17    0.26
  10   5  -4   -0.09    0.07
 -10   5   4    0.01    0.12
 -10  -5   4   -0.01    0.07
  10  -5  -4    0.04    0.09
 -10   5   3    2.90    0.29
  10   5  -3    3.26    0.22
 -10  -5   3    2.93    0.22
  10  -5  -3    3.16    0.26
  10   5  -2    3.64    0.22
 -10   5   2    3.62    0.31
  10  -5  -2    3.30    0.26
 -10  -5   2    3.86    0.32
 -10  -5   2    3.81    0.23
  10   5  -1   20.24    0.75
 -10   5   1   19.37    0.87
 -10  -5   1   18.91    0.89
  10  -5  -1   19.76    0.81
 -10  -5   1   19.46    0.76
 -10   5   0   16.48    0.81
  10   5   0   19.03    0.69
  10  -5   0   16.78    0.73
 -10  -5   0   17.15    0.85
 -10   5  -1    2.53    0.32
  10   5   1    3.12    0.23
 -10  -5  -1    3.39    0.36
  10  -5   1    2.76    0.22
 -10   5  -2    2.07    0.30
 -10  -5  -2    1.89    0.30
  10  -5   2    2.02    0.20
 -10   6   4    0.48    0.16
  10   6  -4    0.66    0.13
  10  -6  -4    0.66    0.15
 -10  -6   4    0.60    0.12
 -10   6   3    6.89    0.42
  10   6  -3    6.69    0.34
  10  -6  -3    6.51    0.38
 -10  -6   3    6.45    0.34
 -10   6   2   -0.03    0.13
  10   6  -2    0.06    0.07
 -10  -6   2    0.08    0.11
  10  -6  -2    0.18    0.11
 -10  -6   2    0.12    0.08
 -10   6   1   23.57    1.02
  10   6  -1   24.71    0.90
 -10  -6   1   23.87    0.90
  10  -6  -1   23.10    0.95
 -10  -6   1   23.32    1.04
 -10   6   0   28.77    1.21
  10   6   0   30.99    1.08
  10  -6   0   28.74    1.12
 -10  -6   0   27.86    1.08
 -10  -6   0   27.51    1.24
 -10   6  -1    0.74    0.20
  10   6   1    1.24    0.17
  10  -6   1    0.90    0.15
 -10  -6  -1    0.84    0.21
 -10   6  -2    1.64    0.28
  10  -6   2    1.89    0.20
 -10  -6  -2    2.14    0.32
  10   7  -4    5.89    0.34
 -10   7   4    5.88    0.40
  10  -7  -4    5.87    0.37
 -10  -7   4    6.11    0.34
 -10   7   3    2.11    0.26
  10   7  -3    2.31    0.20
 -10  -7   3    2.13    0.19
  10  -7  -3    2.06    0.23
  10   7  -2    0.25    0.09
 -10   7   2    0.08    0.14
  10  -7  -2    0.17    0.11
 -10  -7   2    0.18    0.08
  10   7  -1    4.08    0.24
 -10   7   1    3.80    0.34
  10  -7  -1    4.06    0.28
 -10  -7   1    3.90    0.23
 -10  -7   1    3.40    0.34
  10   7   0    0.40    0.10
 -10   7   0    0.23    0.16
 -10  -7   0    0.31    0.16
  10  -7   0    0.22    0.11
 -10   7  -1    0.36    0.17
  10   7   1    0.52    0.13
  10  -7   1    0.47    0.13
 -10  -7  -1    0.48    0.19
 -10   7  -2    0.11    0.17
  10   7   2    0.27    0.11
  10  -7   2    0.36    0.11
 -10  -7  -2    0.21    0.18
 -10   8   3   11.07    0.59
  10   8  -3   10.94    0.50
 -10  -8   3   10.87    0.49
  10  -8  -3   10.80    0.54
  10   8  -2    4.47    0.27
 -10   8   2    4.47    0.36
  10  -8  -2    4.50    0.31
 -10  -8   2    4.86    0.27
 -10   8   1    0.40    0.17
  10   8  -1    0.65    0.11
 -10  -8   1    0.48    0.10
 -10  -8   1    0.38    0.16
  10  -8  -1    0.62    0.14
 -10   8   0    0.33    0.17
  10   8   0    0.29    0.10
 -10  -8   0    0.21    0.16
  10  -8   0    0.31    0.12
 -10   8  -1    3.49    0.36
  10   8   1    3.46    0.27
  10  -8   1    3.48    0.26
 -10  -8  -1    3.63    0.38
  10   8   2    0.44    0.14
 -10   8  -2    0.02    0.16
 -10  -8  -2    0.18    0.18
  10  -8   2    0.34    0.11
  10   9  -3    0.91    0.15
 -10   9   3    0.65    0.19
 -10  -9   3    1.00    0.14
  10  -9  -3    1.01    0.17
  10   9  -2    0.31    0.10
 -10   9   2    0.14    0.15
 -10  -9   2    0.38    0.09
  10  -9  -2   -0.03    0.10
  10   9  -1    5.16    0.29
 -10   9   1    4.98    0.40
  10  -9  -1    4.97    0.32
 -10  -9   1    4.61    0.40
 -10   9   0   30.90    1.30
  10   9   0   32.81    1.18
  10  -9   0   30.16    1.21
 -10  -9   0   29.94    1.35
  10   9   1    3.03    0.27
 -10   9  -1    2.91    0.35
  10  -9   1    3.26    0.26
 -10  -9  -1    3.66    0.40
 -10  10   2    8.81    0.54
  10  10  -2   10.26    0.46
 -10 -10   2    9.10    0.49
  10 -10  -2    9.51    0.49
  10  10  -1    3.69    0.25
 -10  10   1    3.29    0.35
  10 -10  -1    3.72    0.29
 -10  10   0   40.54    1.67
  10  10   0   44.59    1.56
 -10 -10   0   39.46    1.73
  10 -10   0   42.87    1.59
 -11   0   4   16.28    0.70
  11   0  -3    0.09    0.10
 -11   0   3   -0.27    0.12
  11   0  -2   38.99    1.46
 -11   0   2   38.36    1.54
  11   0  -1    0.00    0.08
 -11   0   1   -0.24    0.13
 -11   0   0    0.05    0.16
  11   0   0    0.09    0.09
  11   0   1   -0.06    0.08
 -11   0  -1    0.05    0.15
 -11   0  -2    1.10    0.26
  11   0   2    0.96    0.19
 -11  -1   4    0.18    0.10
 -11   1   3    0.44    0.17
 -11  -1   3    0.21    0.17
  11  -1  -3    0.32    0.12
  11   1  -2    2.01    0.22
 -11   1   2    1.65    0.26
 -11  -1   2    1.43    0.24
  11  -1  -2    1.57    0.19
  11   1  -1    0.35    0.11
 -11   1   1    0.21    0.17
  11  -1  -1    0.11    0.10
 -11  -1   1    0.15    0.15
  11   1   0    1.67    0.19
 -11   1   0    1.36    0.25
  11  -1   0    1.81    0.19
 -11  -1   0    1.42    0.26
 -11   1  -1    0.74    0.22
  11   1   1    0.78    0.13
 -11  -1  -1    0.69    0.22
  11  -1   1    0.84    0.14
 -11   1  -2    2.91    0.38
 -11  -1  -2    2.93    0.37
 -11   2   3    0.31    0.15
 -11  -2   3    0.44    0.11
  11  -2  -3    0.42    0.13
  11   2  -2    2.50    0.23
 -11   2   2    2.53    0.31
  11  -2  -2    2.56    0.24
 -11  -2   2    2.96    0.31
 -11   2   1    1.09    0.22
  11   2  -1    0.99    0.15
 -11  -2   1    0.98    0.21
  11  -2  -1    1.02    0.16
  11   2   0    0.02    0.09
 -11   2   0   -0.06    0.16
  11  -2   0   -0.04    0.08
 -11  -2   0   -0.16    0.13
  11   2   1    0.38    0.11
 -11   2  -1    0.55    0.20
 -11  -2  -1    0.52    0.20
  11  -2   1    0.44    0.12
 -11   3   3    1.03    0.21
 -11  -3   3    1.08    0.15
  11  -3  -3    1.18    0.18
 -11   3   2    1.36    0.23
  11  -3  -2    1.14    0.17
 -11  -3   2    1.31    0.23
  11   3  -1    3.45    0.25
 -11   3   1    3.39    0.34
  11  -3  -1    3.24    0.26
 -11  -3   1    2.78    0.33
 -11   3   0    4.99    0.42
  11   3   0    4.27    0.28
  11  -3   0    4.43    0.30
 -11  -3   0    4.98    0.41
 -11   3  -1    0.59    0.21
 -11  -3  -1    0.57    0.19
  11  -3   1    0.65    0.13
 -11   4   3   10.29    0.56
 -11  -4   3   10.13    0.48
  11  -4  -3   10.08    0.52
 -11   4   2    5.30    0.41
  11  -4  -2    5.23    0.34
 -11  -4   2    5.24    0.40
 -11  -4   2    5.30    0.30
 -11   4   1    4.45    0.38
  11  -4  -1    4.19    0.30
 -11  -4   1    4.32    0.37
  11   4   0    9.76    0.46
 -11   4   0    9.72    0.59
  11  -4   0    9.69    0.48
 -11  -4   0    9.27    0.58
 -11   4  -1    1.37    0.27
  11  -4   1    1.39    0.18
 -11  -4  -1    1.48    0.27
 -11   5   3    1.74    0.25
 -11  -5   3    1.47    0.17
  11  -5  -3    1.36    0.19
 -11   5   2    9.72    0.57
 -11  -5   2   10.18    0.46
  11  -5  -2   10.16    0.51
 -11   5   1    2.34    0.30
 -11  -5   1    2.30    0.19
  11  -5  -1    2.54    0.23
 -11  -5   1    2.47    0.29
 -11   5   0    3.36    0.36
  11  -5   0    3.47    0.27
 -11  -5   0    3.21    0.35
 -11   5  -1    1.93    0.30
 -11  -5  -1    1.83    0.29
  11  -5   1    1.87    0.21
  11   6  -2    3.77    0.30
 -11   6   2    3.48    0.34
 -11  -6   2    3.70    0.25
  11  -6  -2    3.99    0.30
 -11   6   1    0.85    0.21
 -11  -6   1    0.96    0.22
  11  -6  -1    0.60    0.14
 -11  -6   1    0.73    0.12
 -11   6   0    2.74    0.33
 -11  -6   0    2.38    0.33
  11  -6   0    2.43    0.23
  11   7  -2    2.74    0.21
 -11   7   2    2.58    0.31
  11  -7  -2    2.62    0.25
 -11  -7   2    2.78    0.21
  11   7  -1    0.02    0.07
 -11   7   1    0.14    0.15
 -11  -7   1   -0.12    0.12
  11  -7  -1   -0.11    0.09
  11   7   0    7.20    0.41
 -11   7   0    6.97    0.51
  11  -7   0    6.94    0.40
 -11  -7   0    6.73    0.50
   0   0   0    0.00    0.00
;
_shelx_hkl_checksum              33595
loop_
_space_group_symop_operation_xyz
'x, y, z'
'-x, y+1/2, -z+1/2'
'-x, -y, -z'
'x, -y-1/2, z-1/2'
loop_
_atom_site_label
_atom_site_type_symbol
_atom_site_fract_x
_atom_site_fract_y
_atom_site_fract_z
_atom_site_U_iso_or_equiv
_atom_site_adp_type
_atom_site_occupancy
_atom_site_site_symmetry_order
_atom_site_calc_flag
_atom_site_refinement_flags_posn
_atom_site_refinement_flags_adp
_atom_site_refinement_flags_occupancy
_atom_site_disorder_assembly
_atom_site_disorder_group
Cl1 Cl 0.70542(4) 0.59429(2) 1.22027(5) 0.02404(12) Uani 1 1 d . . . . .
O2 O 0.96640(12) 0.63871(8) 0.99897(19) 0.0303(3) Uani 1 1 d . . . . .
O5 O 0.52888(12) 0.70956(7) 0.90130(18) 0.0262(2) Uani 1 1 d . . . . .
N3 N 0.56853(12) 0.64180(7) 0.82094(18) 0.0177(2) Uani 1 1 d . . . . .
O4 O 0.51110(12) 0.60582(7) 0.65357(17) 0.0267(2) Uani 1 1 d . . . . .
N2 N 0.80175(13) 0.49220(7) 0.66897(18) 0.0185(2) Uani 1 1 d . . . . .
C6 C 0.71078(14) 0.59483(8) 0.9424(2) 0.0148(2) Uani 1 1 d . . . . .
O3 O 0.82208(12) 0.70017(7) 0.72945(19) 0.0295(3) Uani 1 1 d . . . . .
O1 O 0.71371(11) 0.36750(6) 0.79044(17) 0.0225(2) Uani 1 1 d . . . . .
C9 C 0.72907(13) 0.50478(8) 0.8481(2) 0.0150(2) Uani 1 1 d . . . . .
N4 N 0.84610(12) 0.65132(7) 0.88609(19) 0.0182(2) Uani 1 1 d . . . . .
N1 N 0.67487(13) 0.43425(8) 0.93125(19) 0.0208(2) Uani 1 1 d . . . . .
C1 C 0.78897(15) 0.40652(9) 0.6415(2) 0.0194(3) Uani 1 1 d . . . . .
C14 C 0.84780(19) 0.35000(11) 0.4763(3) 0.0306(3) Uani 1 1 d . . . . .
H14A H 0.8505 0.3834 0.3445 0.046 Uiso 1 1 calc R U . . .
H14B H 0.7827 0.2996 0.4457 0.046 Uiso 1 1 calc R U . . .
H14C H 0.9483 0.3304 0.5316 0.046 Uiso 1 1 calc R U . . .
loop_
_atom_site_aniso_label
_atom_site_aniso_U_11
_atom_site_aniso_U_22
_atom_site_aniso_U_33
_atom_site_aniso_U_23
_atom_site_aniso_U_13
_atom_site_aniso_U_12
Cl1 0.0345(2) 0.0261(2) 0.01193(17) -0.00024(11) 0.00480(13) -0.00366(12)
O2 0.0181(5) 0.0370(6) 0.0339(6) -0.0015(5) -0.0029(4) -0.0045(4)
O5 0.0265(5) 0.0190(5) 0.0344(6) -0.0010(4) 0.0091(4) 0.0051(4)
N3 0.0159(5) 0.0185(5) 0.0194(5) 0.0029(4) 0.0050(4) 0.0007(4)
O4 0.0235(5) 0.0331(6) 0.0214(5) -0.0022(4) -0.0041(4) 0.0049(4)
N2 0.0211(5) 0.0191(5) 0.0157(5) 0.0007(4) 0.0038(4) 0.0024(4)
C6 0.0158(5) 0.0156(6) 0.0132(5) 0.0018(4) 0.0028(4) -0.0011(4)
O3 0.0271(5) 0.0257(5) 0.0378(6) 0.0153(5) 0.0123(4) 0.0014(4)
O1 0.0244(5) 0.0157(5) 0.0274(5) -0.0014(4) 0.0034(4) -0.0008(3)
C9 0.0151(5) 0.0156(6) 0.0141(5) 0.0014(4) 0.0009(4) 0.0003(4)
N4 0.0170(5) 0.0155(5) 0.0226(5) -0.0007(4) 0.0050(4) -0.0021(4)
N1 0.0236(6) 0.0162(5) 0.0232(6) 0.0001(4) 0.0059(4) -0.0016(4)
C1 0.0189(6) 0.0195(6) 0.0189(6) -0.0002(5) -0.0012(5) 0.0045(4)
C14 0.0338(8) 0.0286(7) 0.0289(8) -0.0085(6) 0.0032(6) 0.0112(6)
loop_
_atom_type_symbol
_atom_type_description
_atom_type_scat_dispersion_real
_atom_type_scat_dispersion_imag
_atom_type_scat_source
C C 0.0033 0.0016 'International Tables Vol C Tables 4.2.6.8 and 6.1.1.4'
H H 0.0000 0.0000 'International Tables Vol C Tables 4.2.6.8 and 6.1.1.4'
N N 0.0061 0.0033 'International Tables Vol C Tables 4.2.6.8 and 6.1.1.4'
O O 0.0106 0.0060 'International Tables Vol C Tables 4.2.6.8 and 6.1.1.4'
Cl Cl 0.1484 0.1585 'International Tables Vol C Tables 4.2.6.8 and 6.1.1.4'
loop_
_geom_angle_atom_site_label_1
_geom_angle_atom_site_label_2
_geom_angle_atom_site_label_3
_geom_angle
_geom_angle_site_symmetry_1
_geom_angle_site_symmetry_3
_geom_angle_publ_flag
O5 N3 O4 127.82(12) . . ?
O5 N3 C6 116.89(11) . . ?
O4 N3 C6 115.28(10) . . ?
C1 N2 C9 101.53(11) . . ?
C9 C6 N3 110.60(10) . . ?
C9 C6 N4 106.46(10) . . ?
N3 C6 N4 104.30(9) . . ?
C9 C6 Cl1 113.72(9) . . ?
N3 C6 Cl1 110.62(8) . . ?
N4 C6 Cl1 110.64(8) . . ?
C1 O1 N1 107.20(10) . . ?
N1 C9 N2 116.47(11) . . ?
N1 C9 C6 121.59(11) . . ?
N2 C9 C6 121.93(11) . . ?
O2 N4 O3 126.98(12) . . ?
O2 N4 C6 115.90(11) . . ?
O3 N4 C6 117.05(11) . . ?
C9 N1 O1 101.98(10) . . ?
N2 C1 O1 112.81(12) . . ?
N2 C1 C14 128.88(14) . . ?
O1 C1 C14 118.30(13) . . ?
loop_
_geom_bond_atom_site_label_1
_geom_bond_atom_site_label_2
_geom_bond_distance
_geom_bond_site_symmetry_2
_geom_bond_publ_flag
Cl1 C6 1.7219(14) . ?
O2 N4 1.2103(16) . ?
O5 N3 1.2102(15) . ?
N3 O4 1.2166(16) . ?
N3 C6 1.5523(16) . ?
N2 C1 1.3077(18) . ?
N2 C9 1.3675(16) . ?
C6 C9 1.4967(17) . ?
C6 N4 1.5530(16) . ?
O3 N4 1.2117(16) . ?
O1 C1 1.3443(17) . ?
O1 N1 1.4043(15) . ?
C9 N1 1.3027(17) . ?
C1 C14 1.4786(19) . ?
