#------------------------------------------------------------------------------
#$Date: 2021-03-05 04:18:31 +0200 (Fri, 05 Mar 2021) $
#$Revision: 262688 $
#$URL: file:///home/coder/svn-repositories/cod/cif/7/06/03/7060303.cif $
#------------------------------------------------------------------------------
#
# This file is available in the Crystallography Open Database (COD),
# http://www.crystallography.net/
#
# All data on this site have been placed in the public domain by the
# contributors.
#
data_7060303
loop_
_publ_author_name
'Isaia, Francesco'
'Garau, Alessandra'
'Castellano, Carlo'
'Demartin, Francesco'
'Aragoni, M. Carla'
'Arca, Massimiliano'
'Caltagirone, Claudia'
'Lippolis, Vito'
'Pivetta, Tiziana'
_publ_section_title
;
 Stabilization of caesium ions by simple organic molecules: crystal
 structures of Cs(OXL) (OXL = oxalurate anion) and the CsOH/cyanuric acid
 co-crystal Cs3(CYH3)4(OH)3 (CYH3 = cyanuric acid)
;
_journal_issue                   6
_journal_name_full               'New Journal of Chemistry'
_journal_page_first              3263
_journal_page_last               3270
_journal_paper_doi               10.1039/D0NJ05601D
_journal_volume                  45
_journal_year                    2021
_chemical_formula_sum            'C3 H3 Cs N2 O4'
_chemical_formula_weight         263.98
_space_group_crystal_system      triclinic
_space_group_IT_number           2
_space_group_name_Hall           '-P 1'
_space_group_name_H-M_alt        'P -1'
_atom_sites_solution_hydrogens   geom
_audit_creation_method           SHELXL-2017/1
_audit_update_record
;
2020-12-29 deposited with the CCDC.	2021-01-13 downloaded from the CCDC.
;
_cell_angle_alpha                71.081(10)
_cell_angle_beta                 83.485(10)
_cell_angle_gamma                81.220(10)
_cell_formula_units_Z            4
_cell_length_a                   7.8313(4)
_cell_length_b                   8.4529(4)
_cell_length_c                   10.3855(5)
_cell_measurement_reflns_used    7287
_cell_measurement_temperature    294(2)
_cell_measurement_theta_max      20.36
_cell_measurement_theta_min      2.90
_cell_volume                     641.22(7)
_computing_cell_refinement       'SAINT Bruker-AXS'
_computing_data_collection       'Bruker APEXII Bruker-AXS'
_computing_data_reduction        'SAINT Bruker-AXS'
_computing_molecular_graphics    'DIAMOND Crystal Impact'
_computing_structure_refinement  'SHELXL-2017/1 (Sheldrick, 2017)'
_computing_structure_solution    SIR92
_diffrn_ambient_temperature      293(2)
_diffrn_measured_fraction_theta_full 0.998
_diffrn_measured_fraction_theta_max 0.902
_diffrn_measurement_device_type  'APEX II CCD diffractometer'
_diffrn_measurement_method       'omega scan'
_diffrn_radiation_type           MoK\a
_diffrn_radiation_wavelength     0.71073
_diffrn_reflns_av_R_equivalents  0.0300
_diffrn_reflns_av_unetI/netI     0.0478
_diffrn_reflns_Laue_measured_fraction_full 0.998
_diffrn_reflns_Laue_measured_fraction_max 0.902
_diffrn_reflns_limit_h_max       10
_diffrn_reflns_limit_h_min       0
_diffrn_reflns_limit_k_max       11
_diffrn_reflns_limit_k_min       -11
_diffrn_reflns_limit_l_max       14
_diffrn_reflns_limit_l_min       -13
_diffrn_reflns_number            8153
_diffrn_reflns_point_group_measured_fraction_full 0.998
_diffrn_reflns_point_group_measured_fraction_max 0.902
_diffrn_reflns_theta_full        25.000
_diffrn_reflns_theta_max         29.384
_diffrn_reflns_theta_min         2.078
_diffrn_source                   'fine focus sealed tube'
_exptl_absorpt_coefficient_mu    5.730
_exptl_absorpt_correction_T_max  1.000
_exptl_absorpt_correction_T_min  0.554
_exptl_absorpt_correction_type   empirical
_exptl_absorpt_process_details   SADABS
_exptl_crystal_colour            colorless
_exptl_crystal_density_diffrn    2.734
_exptl_crystal_description       pseudoprism
_exptl_crystal_F_000             488
_exptl_crystal_size_max          0.25
_exptl_crystal_size_mid          0.12
_exptl_crystal_size_min          0.10
_refine_diff_density_max         1.533
_refine_diff_density_min         -1.733
_refine_diff_density_rms         0.224
_refine_ls_extinction_method     none
_refine_ls_goodness_of_fit_ref   0.959
_refine_ls_hydrogen_treatment    constr
_refine_ls_matrix_type           full
_refine_ls_number_parameters     181
_refine_ls_number_reflns         3188
_refine_ls_number_restraints     0
_refine_ls_restrained_S_all      0.959
_refine_ls_R_factor_all          0.0351
_refine_ls_R_factor_gt           0.0299
_refine_ls_shift/su_max          0.001
_refine_ls_shift/su_mean         0.000
_refine_ls_structure_factor_coef Fsqd
_refine_ls_weighting_details
'w=1/[\s^2^(Fo^2^)+(0.0358P)^2^] where P=(Fo^2^+2Fc^2^)/3'
_refine_ls_weighting_scheme      calc
_refine_ls_wR_factor_gt          0.0742
_refine_ls_wR_factor_ref         0.0750
_reflns_Friedel_coverage         0.000
_reflns_number_gt                2503
_reflns_number_total             3188
_reflns_threshold_expression     'I > 2\s(I)'
_cod_data_source_file            d0nj05601d2.cif
_cod_data_source_block           Cs(oxalurate)
_cod_depositor_comments
'Adding full bibliography for 7060303--7060304.cif.'
_cod_database_code               7060303
_shelx_shelxl_version_number     2017/1
_shelx_space_group_comment
;
The symmetry employed for this shelxl refinement is uniquely defined
by the following loop, which should always be used as a source of
symmetry information in preference to the above space-group names.
They are only intended as comments.
;
_shelx_res_file
;
TITL Cs(oxalurate)
    shelx.res
    created by SHELXL-2017/1 at 10:08:05 on 24-Jul-2020
CELL  0.71073   7.8313   8.4529  10.3855   71.081   83.485   81.220
ZERR     4.00   0.0004   0.0004   0.0005    0.010    0.010    0.010
LATT   1
SFAC  CS   O    N    C    H
UNIT  4    16   8    12  12
MERG   2
ACTA 50
L.S.   3
WGHT    0.035800
FVAR       1.19169
CS1   1    0.125403    0.664880    0.645009    11.00000    0.02448    0.02891 =
         0.01917   -0.00851    0.00797   -0.00686
CS2   1   -0.014605    0.888805    0.258952    11.00000    0.03677    0.02345 =
         0.02144   -0.00401    0.01138   -0.00472
O1    2    0.337139    0.667221    0.384210    11.00000    0.04294    0.02198 =
         0.03588   -0.01384    0.02042   -0.01103
O2    2    0.515696    0.543028    0.250585    11.00000    0.03165    0.02478 =
         0.03160   -0.01028    0.01988   -0.01043
O3    2    0.200900    0.370655    0.503320    11.00000    0.03835    0.02712 =
         0.03151   -0.01327    0.02257   -0.01621
O4    2    0.206449    0.048274    0.467608    11.00000    0.03068    0.02361 =
         0.03463   -0.00926    0.01641   -0.01423
O5    2    0.221522    0.876444    0.016046    11.00000    0.05633    0.02361 =
         0.03608   -0.01724    0.02575   -0.01860
O6    2    0.327855    0.773863   -0.154561    11.00000    0.03727    0.02382 =
         0.02388   -0.00676    0.01641   -0.01326
O7    2    0.104522    0.573256    0.152355    11.00000    0.03648    0.02291 =
         0.02080   -0.00619    0.01397   -0.00872
O8    2    0.116248    0.244781    0.128468    11.00000    0.03435    0.02240 =
         0.02333   -0.00684    0.01655   -0.01310
N1    3    0.379909    0.256306    0.357784    11.00000    0.02105    0.01604 =
         0.02387   -0.00681    0.01418   -0.00917
AFIX  43
H1    5    0.462479    0.280019    0.295281    11.00000   -1.20000
AFIX   0
N2    3    0.436003   -0.001479    0.326638    11.00000    0.02878    0.01695 =
         0.03685   -0.00960    0.01675   -0.00918
AFIX  93
H2A   5    0.417108   -0.103140    0.339059    11.00000   -1.20000
H2B   5    0.522155    0.038452    0.273279    11.00000   -1.20000
AFIX   0
N3    3    0.265857    0.464678   -0.007844    11.00000    0.02510    0.01526 =
         0.01900   -0.00340    0.00832   -0.00755
AFIX  43
H3    5    0.341113    0.490976   -0.075875    11.00000   -1.20000
AFIX   0
N4    3    0.312126    0.207261   -0.039973    11.00000    0.04188    0.01705 =
         0.03814   -0.01393    0.02343   -0.01442
AFIX  93
H4A   5    0.295801    0.104117   -0.024059    11.00000   -1.20000
H4B   5    0.385830    0.252203   -0.104395    11.00000   -1.20000
AFIX   0
C1    4    0.396543    0.547343    0.341481    11.00000    0.02102    0.01741 =
         0.01888   -0.00541    0.00567   -0.00471
C2    4    0.314359    0.381285    0.411349    11.00000    0.01884    0.01985 =
         0.01967   -0.00599    0.00589   -0.00547
C3    4    0.332163    0.093831    0.389844    11.00000    0.02197    0.01929 =
         0.02029   -0.00477    0.00462   -0.00749
C4    4    0.257132    0.763788   -0.037662    11.00000    0.02027    0.02001 =
         0.01924   -0.00522    0.00648   -0.00740
C5    4    0.198756    0.588629    0.048465    11.00000    0.01796    0.01989 =
         0.01629   -0.00501    0.00348   -0.00632
C6    4    0.223565    0.297091    0.034897    11.00000    0.02158    0.01712 =
         0.02057   -0.00284    0.00228   -0.00643
HKLF    4




REM  Cs(oxalurate)
REM R1 =  0.0299 for    2503 Fo > 4sig(Fo)  and  0.0351 for all    3188 data
REM    181 parameters refined using      0 restraints

END

WGHT      0.0359      0.0000

REM Highest difference peak  1.533,  deepest hole -1.733,  1-sigma level  0.224
Q1    1   0.2286  0.6455  0.7005  11.00000  0.05    1.53
Q2    1   0.0244  0.6734  0.5951  11.00000  0.05    1.38
Q3    1   0.0912  0.8620  0.3121  11.00000  0.05    1.37
Q4    1  -0.1016  0.8899  0.2064  11.00000  0.05    1.33
Q5    1   0.1536  0.5504  0.6636  11.00000  0.05    1.13
Q6    1   0.0316  0.7746  0.2846  11.00000  0.05    0.94
Q7    1  -0.0169  0.7847  0.2634  11.00000  0.05    0.90
Q8    1  -0.0513  1.0048  0.2432  11.00000  0.05    0.75
Q9    1   0.1270  0.7839  0.6423  11.00000  0.05    0.67
Q10   1   0.0605  0.7824  0.6214  11.00000  0.05    0.65
Q11   1  -0.1413  1.0642  0.1651  11.00000  0.05    0.59
Q12   1   0.2630  0.4957  0.7342  11.00000  0.05    0.58
Q13   1   0.1552  0.7186  0.3433  11.00000  0.05    0.56
Q14   1   0.3238  0.6362  0.6682  11.00000  0.05    0.54
Q15   1  -0.1916  0.9069  0.1637  11.00000  0.05    0.51
Q16   1   0.3487  0.4627  0.3778  11.00000  0.05    0.49
Q17   1   0.2060 -0.1328  0.3405  11.00000  0.05    0.48
Q18   1  -0.1328  0.9148  0.1197  11.00000  0.05    0.46
Q19   1   0.0175  0.8366  0.5433  11.00000  0.05    0.46
Q20   1   0.0831  0.3178  0.4463  11.00000  0.05    0.45
;
_shelx_res_checksum              78186
_shelx_hkl_file
;
   0   0   1    3226      91   1
   0   1   0      88      13   1
   1   0   0   22680     271   1
   0   1   1     198      17   1
   1   0   1     462      30   1
   1   1   0    9800     119   1
   1   0  -1    3624      48   1
   1   1   1      16      16   1
   0   1  -1    1763      59   1
   1  -1   0      53      13   1
   1  -1  -1    4160      77   1
   0   1   2     219      18   1
   0   0   2    6320     127   1
   1   1  -1     198      23   1
   1   1   2      84      15   1
   1  -1   1      46      19   1
   1   0   2   14256     336   1
   0   2   1   19460     732   1
   1   0  -2    6432      80   1
   0   2   0    1528      47   1
   1   2   1   37947     547   1
   1  -1  -2    2840      96   1
   2   0   0     533      28   1
   1   2   0   11193     191   1
   0   2   2   14762     219   1
   0   1  -2   19209     250   1
   2   1   1      21      14   1
   2   0   1    4290     171   1
   2   1   0   23134     335   1
   1   2   2     136      19   1
   2   0  -1   23347     337   1
   1  -2  -1   29343     309   1
   0   1   3   25953     161   1
   1  -2   0    1944      80   1
   1   1  -2   45326     683   1
   0   2  -1   23012     243   1
   1  -1   2    2016      90   1
   2  -1   0      59      16   1
   1   1   3    3708     110   1
   2   1   2      26      17   1
   0   0   3   26082     259   1
   2   1  -1   15006     171   1
   2  -1  -1   21345     234   1
   1   2  -1    2611      51   1
   2   0   2  112359    1479   1
   1  -2  -2   21608     206   1
   1   0   3      80      17   1
   2   2   1   15227     447   1
   2  -1   1    1866      52   1
   0   2   3   11172     191   1
   1  -1  -3   27855     133   1
   1   2   3   38494     749   1
   1  -2   1   38927    1674   1
   2   2   0    3237      57   1
   1   0  -3    3624      48   1
   2   0  -2      50      16   1
   2   2   2    3868      62   1
   2  -1  -2   18360     190   1
   0   3   1     146      22   1
   1   3   1   13294     254   1
   2   1   3    1560      88   1
   0   1  -3    7293     102   1
   0   3   2    4830     168   1
   0   2  -2    5285     116   1
   1   3   2      90      20   1
   1  -2  -3    1568      39   1
   2   1  -2   20078     255   1
   2  -1   2     240      22   1
   0   3   0    2480      90   1
   2   2  -1     316      32   1
   2  -2  -1    7140     135   1
   2  -2   0   17344     158   1
   1   3   0     306      28   1
   1  -1   3       7      16   1
   2   2   3   16002     253   1
   1   2  -2   15178     123   1
   2   0   3     272      27   1
   0   1   4   11707     217   1
   3   0   0     457      30   1
   3   1   1     640      35   1
   1   1  -3   23932     154   1
   3   1   0   20477     172   1
   1   1   4     353      26   1
   3   0   1    5040      85   1
   1  -2   2    4942      70   1
   1  -3  -1     470      30   1
   2  -2  -2   27855     402   1
   1   3   3     327      29   1
   0   3   3     125      20   1
   0   2   4   29206     308   1
   0   0   4      88      19   1
   3   0  -1     349      26   1
   1   2   4   22200     298   1
   2   3   1   55648    1042   1
   1  -3  -2   12321     111   1
   3   1   2    9467     156   1
   2  -2   1   15153     296   1
   2  -1  -3   11990     109   1
   2   0  -3     440      29   1
   1  -3   0     576      29   1
   2   3   2    4134      77   1
   1   0   4    5565     180   1
   0   3  -1   50580     450   1
   1  -1  -4   35043     413   1
   3   1  -1   23808     247   1
   3  -1   0    4942     127   1
   3   2   1     882      42   1
   3   0   2   15675     403   1
   1   3  -1    9900     139   1
   2   3   0    1428      45   1
   3  -1  -1   19572     308   1
   3   2   2    9312     155   1
   3   2   0   10040     140   1
   1   0  -4      22      13   1
   3  -1   1    3069     100   1
   2   1   4     524      42   1
   2   2  -2    1149      54   1
   2   3   3     852      59   1
   1  -2  -4     479      31   1
   2  -1   3    2352      68   1
   1  -3  -3    2777      63   1
   2   2   4    5329     191   1
   2  -2  -3      46      21   1
   3   0  -2      57      17   1
   2   1  -3   61355     446   1
   1  -3   1   10160     121   1
   0   2  -3    1135      40   1
   3   1   3     353      34   1
   1   3   4    3856     150   1
   0   3   4    9900     159   1
   2  -2   2      32      23   1
   0   1  -4   14762     293   1
   3  -1  -2   39085     595   1
   2   0   4   11837     350   1
   1   2  -3      53      18   1
   3   2   3   14352     556   1
   3   2  -1     219      24   1
   3   1  -2    3306      69   1
   2   3  -1    9254     271   1
   2  -3  -1      82      15   1
   1  -2   3    4542     204   1
   3  -1   2      32      19   1
   1  -1   4   28358     643   1
   3   0   3     519      37   1
   1   4   2   24554     314   1
   1   4   1    1128      47   1
   0   4   2   15202     447   1
   0   4   1      70      21   1
   0   3  -2      28      14   1
   2  -3   0    3113      78   1
   1   1  -4    7140      84   1
   2  -3  -2    8556     111   1
   0   1   5   14184     143   1
   3  -2  -1     299      28   1
   3   3   1   13179     161   1
   3  -2   0   11236     170   1
   1   1   5   15475     174   1
   2  -1  -4   24900     348   1
   3   3   2      88      21   1
   1   3  -2    4316      79   1
   2   3   4    1466      69   1
   1   2   5    2246      76   1
   0   2   5      16      16   1
   1   4   3    1560      55   1
   2   0  -4      16      16   1
   1  -3  -4    5990     266   1
   0   4   3   11088     275   1
   0   4   0    9702     138   1
   1   4   0   10983     252   1
   3   3   0    7779     123   1
   1  -3   2     985      38   1
   3  -2  -2     327      25   1
   2   4   2    4733      96   1
   3  -2   1    7796     141   1
   0   0   5     112      22   1
   3   0  -3     193      25   1
   3   3   3    7849     160   1
   4   1   1    9082     133   1
   2  -2  -4     660      36   1
   2   4   1   10547     206   1
   3  -1  -3     158      23   1
   2  -3   1      27      17   1
   1  -1  -5    1135      54   1
   2  -3  -3    8118     144   1
   1  -4  -1    4475      94   1
   2   2  -3    2693      83   1
   3   1   4     144      27   1
   1  -4  -2    9545     117   1
   1   0   5    4251      91   1
   4   1   0    7903     124   1
   4   0   0     121      23   1
   3   2   4     440      34   1
   4   0   1    8500     129   1
   3   2  -2    7516     174   1
   2   4   3    1030      45   1
   2  -1   4    9158     347   1
   2   2   5    7708     105   1
   2   1   5    9960     240   1
   1  -2  -5     331      29   1
   2  -2   3   11363     192   1
   1   3   5     102      21   1
   4   1   2   15450     274   1
   3  -1   3      24      18   1
   0   3   5    3147      79   1
   2   3  -2   27922     368   1
   1   4   4   13018     206   1
   4   0  -1    1218      49   1
   1   0  -5     306      24   1
   4   2   1      24      18   1
   1  -4   0   20735     288   1
   2   1  -4      21      16   1
   2   4   0     158      23   1
   3   1  -3   14352     216   1
   1  -4  -3   32724     290   1
   0   4   4    8190     255   1
   4   1  -1   41820     327   1
   0   2  -4     127      18   1
   4   2   2    1108      53   1
   4   0   2      67      23   1
   3   0   4    8667     130   1
   0   4  -1    9044     133   1
   3   3  -1    5299     102   1
   1   4  -1     960      50   1
   4   2   0     912      48   1
   4  -1   0   10795     145   1
   3  -2  -3     204      23   1
   3  -2   2    2560      61   1
   3   3   4      65      36   1
   2   3   5      10      18   1
   0   3  -3   14835     367   1
   2   0   5   14496     314   1
   4  -1  -1    2480      70   1
   1   2  -4    3445     142   1
   4  -1   1    8427     203   1
   1  -2   4    6336     224   1
   2   4   4   13829     426   1
   4   1   3     285      34   1
   0   1  -5   27989     537   1
   2  -3   2     384      44   1
   2  -3  -4    2180      84   1
   1   3  -3   10424     205   1
   1  -3  -5   24056     373   1
   3  -3  -1    3636      84   1
   3   4   2    3794      86   1
   4   2   3    3102      89   1
   4   0  -2    1474      69   1
   1  -4   1     795      45   1
   1  -1   5    9350     135   1
   2  -1  -5    2180      65   1
   3   4   1     195      26   1
   3  -3   0   11130     233   1
   1  -4  -4       5      22   1
   1  -3   3    6006      77   1
   4   2  -1    2777      74   1
   3  -3  -2    2256      57   1
   3  -1  -4   29687     449   1
   2   4  -1     620      40   1
   2  -4  -1    8649     130   1
   3   4   3    1354      59   1
   2  -4  -2    4032      89   1
   1   1  -5   13271     138   1
   3   0  -4    4529      94   1
   1   2   6    1169      55   1
   4   1  -2     882      42   1
   4  -1  -2   18878     220   1
   4   0   3    3387      93   1
   4   3   2    3612      84   1
   0   2   6      72      21   1
   4   3   1    3994      88   1
   0   1   6   19600     196   1
   3   2   5   20707     317   1
   4  -1   2     161      29   1
   1   1   6   10753     208   1
   2  -2  -5    1369      52   1
   1   4   5   23932     497   1
   2   0  -5    1383      52   1
   3   1   5    1043      58   1
   3   2  -3    7396     155   1
   1   5   2    2500      80   1
   2  -4   0    8372      91   1
   0   4   5    3956      88   1
   3  -1   4     265      30   1
   3   4   0      13      18   1
   0   5   2     316      36   1
   3   3  -2   14496     266   1
   3  -3   1     153      25   1
   2   2  -4    4019      76   1
   0   4  -2     136      24   1
   1   5   3    1936      71   1
   2  -4  -3    3158     101   1
   1   5   1     882      48   1
   3  -2  -4     718      38   1
   2   3  -3     449      30   1
   4   3   3   25153     222   1
   4   3   0   21374     411   1
   2  -2   4    2916     109   1
   4  -2   0    9623     236   1
   1   4  -2      92      22   1
   3  -2   3   20678     433   1
   4  -2  -1     116      24   1
   1   3   6    6642     131   1
   0   5   1    1900      70   1
   3  -3  -3   20391     286   1
   0   5   3    1391      60   1
   3   3   5      34      26   1
   2   4   5    6528     113   1
   2   2   6   10040     140   1
   4   2   4    3794      99   1
   3   4   4   13179     207   1
   0   3   6    4475     121   1
   2  -1   5    1421      53   1
   4   1   4     121      27   1
   1  -1  -6   32112     323   1
   0   0   6     345      34   1
   3   1  -4     960      43   1
   1  -2  -6     702      43   1
   2   5   2    9662     237   1
   2   1   6    1831      69   1
   1   0   6      34      19   1
   4  -2   1    1656      65   1
   4   0  -3     576      39   1
   3   0   5      29      22   1
   2   5   3     858      47   1
   4   2  -2    2323      97   1
   4  -2  -2     979      50   1
   1  -4   2    9082     172   1
   2  -3   3   14592     291   1
   2   5   1     384      36   1
   4  -1  -3    4556     136   1
   2  -3  -5   24304     281   1
   2  -4   1    1108      47   1
   1   5   4      17      19   1
   2   1  -5    7691     158   1
   1   5   0   21112     233   1
   2   3   6    5760     168   1
   1  -4  -5    1962      80   1
   4  -1   3    2440      99   1
   0   5   0    7956     161   1
   1  -5  -2      72      21   1
   2   4  -2     416      33   1
   1   0  -6    3868      74   1
   0   5   4     146      27   1
   4   3   4    1730     267   1
   0   2  -5    1122      47   1
   3   4  -1    2227     105   1
   4   3  -1      15      25   1
   2  -4  -4     388      44   1
   1  -5  -1     216      33   1
   0   3  -4   19099     221   1
   4   0   4   31399     928   1
   4   1  -3    2652      72   1
   5   1   1   12678     180   1
   3  -3   2     134      34   1
   1  -5  -3    3624      84   1
   1  -3  -6      34      18   1
   5   1   0     576      44   1
   2   5   4     635      40   1
   1   3  -4   14689     243   1
   5   0   0      38      20   1
   1  -2   5       2      44   1
   2   0   6     125      25   1
   5   0   1      17      20   1
   4   4   2      56      21   1
   3  -3  -4     691      53   1
   1   2  -5    2672      93   1
   5   1   2    5256     116   1
   4  -2   2   10506     288   1
   2   5   0   14089     166   1
   1   4   6     262      29   1
   3  -1  -5    3612      84   1
   1  -3   4    1253      57   1
   5   2   1     148      28   1
   4   4   1    1505      62   1
   3   4   5     309      43   1
   4  -2  -3    1705      83   1
   4   4   3    5913     185   1
   1  -5   0    1156      62   1
   5   2   2    1806      68   1
   3   2   6    9235     232   1
   0   4   6     168      74   1
   3  -4  -1   20620     288   1
   3   5   2   14592     242   1
   3   0  -5      12      20   1
   0   1  -6     696      48   1
   5   0  -1     129      26   1
   2  -1  -6    6872     116   1
   3   3  -3    1183      69   1
   3  -4  -2      47      26   1
   5   2   0    6006     171   1
   5   1  -1    9120     211   1
   5   0   2      73      24   1
   3   2  -4     900      61   1
   4   2   5    9840     279   1
   1   5   5    3782      99   1
   0   4  -3     182      28   1
   3   5   3      75      22   1
   3  -2  -5   10691     186   1
   1   5  -1    2840      85   1
   2  -2  -6     718      43   1
   1  -5  -4    4408     133   1
   0   5  -1      59      23   1
   3  -2   4    1156      83   1
   1  -1   6    6691     115   1
   3   1   6       4      33   1
   2   4   6    6448     161   1
   1   4  -3    2381      68   1
   2  -4   2    9623     137   1
   4   1   5     936      55   1
   3  -1   5      59      29   1
   3   5   1    5227     174   1
   4  -3  -1    9840     139   1
   3  -4   0    3672     109   1
   3   3   6     585      59   1
   5  -1   0   17108     262   1
   0   5   5    5928     186   1
   1   2   7     129      26   1
   5   1   3    1056      59   1
   4   4   0     404      45   1
   4  -3   0    4529     108   1
   5   2   3      92      26   1
   0   2   7     174      27   1
   1   1  -6     132      21   1
   4   2  -3   11880     218   1
   2   3  -4   10774     187   1
   2   0  -6   30102     487   1
   4  -1  -4    3994      88   1
   4   0  -4   29756     694   1
   5  -1   1    6352     128   1
   2   5   5    1383      90   1
   5  -1  -1      90      24   1
   4   3   5    1310     103   1
   3  -4  -3     497      50   1
   4   4   4    1797      85   1
   4   3  -2    7174     170   1
   4  -3  -2     299      42   1
   2  -2   5     948      75   1
   0   1   7     121      25   1
   1   1   7    1763      67   1
   4  -1   4     408      54   1
   2  -4  -5     432      46   1
   1  -4   3    1095      53   1
   3   5   4    3169     113   1
   2  -5  -2     936      49   1
   2   2  -5    9940     220   1
   3   4  -2    7089     203   1
   1   3   7   13525     186   1
   5   3   2    6642     296   1
   2  -5  -1     139      27   1
   5   2  -1    7656     176   1
   2   5  -1    8226     127   1
   5   0  -2    3672      97   1
   5   3   1     396      40   1
   1  -4  -6     924      74   1
   3  -3   3    3036     122   1
   3   1  -5    2777     106   1
   1  -5   1    1169      62   1
   2  -3   4     412      50   1
   4  -2   3    8427     333   1
   0   3   7   18686     219   1
   5   0   3    2745      95   1
   2  -3  -6    3340     104   1
   4  -3   1     163      29   1
   2   2   7     110      26   1
   3   5   0    5140     144   1
   2  -5  -3    6352     144   1
   2   4  -3    5595     150   1
   3  -4   1    6384     160   1
   5   1  -2    1713      66   1
   4   0   5     104      28   1
   2  -1   6    7814     231   1
   3   0   6    2959      98   1
   5  -1   2    3769      98   1
   4  -2  -4     219      36   1
   4   1  -4    3192     114   1
   5   3   3    8704     263   1
   3  -3  -5   12298     267   1
   1  -2  -7    4830     111   1
   5  -1  -2   10899     230   1
   2   3   7    1095      67   1
   5   3   0    7344     172   1
   1  -5  -5    3648     121   1
   4  -3  -3   13479     350   1
   1  -1  -7    2766      63   1
   2   1   7    8136     144   1
   2  -5   0      73      26   1
   1   6   2    1011      58   1
   3   4   6    9584     196   1
   1   6   3   14713     194   1
   4   4  -1    5760     292   1
   5   2   4    5314     146   1
   0   0   7    1218      56   1
   3  -4  -4      60      25   1
   5   1   4    5169     380   1
   1   0   7      82      25   1
   1   5   6    2560      81   1
   0   6   2     605      50   1
   0   5  -2   13735     330   1
   1   5  -2    7378     138   1
   2   1  -6    2883     108   1
   3   5   5    3203     114   1
   0   6   3   13202     323   1
   4   4   5    2218     104   1
   5  -2   0      80      25   1
   0   3  -5    1135      54   1
   2  -5  -4   11109     190   1
   1   6   1     876      54   1
   1  -3  -7   14042     214   1
   5  -2  -1     166      29   1
   1   4   7    2470     120   1
   2   6   2     313      36   1
   2   6   3   13179     184   1
   1   6   4    3720      98   1
   0   5   6    7849     214   1
   4   5   2    6888     133   1
   2  -4   3    3102      89   1
   0   6   1   14859     220   1
   5   2  -2     129      33   1
   4   2   6    1075      73   1
   0   2  -6    3124      78   1
   4  -3   2    1128      82   1
   2   5   6       9      30   1
   5   3   4      16      30   1
   4   5   3     778      62   1
   1   3  -5     210      39   1
   3  -1  -6    1036      52   1
   0   4   7     585      44   1
   1   0  -7     222      24   1
   5   0  -3     342      34   1
   5  -2   1       4      35   1
   3   3  -4    3540     119   1
   3   5  -1   18961     498   1
   1  -3   5    7430     208   1
   0   6   4    5387     118   1
   5   3  -1    1544      87   1
   5  -1   3    2766     127   1
   4   5   1    7327     137   1
   3  -4   2   11257     234   1
   1  -2   6    1069      79   1
   2   4   7    4070     128   1
   2   6   1      10      24   1
   0   4  -4     116      32   1
   3  -2  -6     204      35   1
   5   0   4    5069     114   1
   2   6   4     345      46   1
   4   3   6       2      81   1
   3   2   7    1998      99   1
   5  -2  -2     561      53   1
   4   3  -3    2115     102   1
   2  -5   1    2381      78   1
   4   1   6     334      37   1
   5  -1  -3    2830      85   1
   2   0   7      12      23   1
   1  -5   2   12927     412   1
   5   4   2       4      52   1
   3  -2   5    3564     132   1
   2   5  -2    2088     101   1
   1   2  -6    1142      47   1
   4  -1  -5    3600     121   1
   2  -4  -6     707      59   1
   1   4  -4    3806     187   1
   3   2  -5   29687     345   1
   3   0  -6   20592     288   1
   4  -3  -4    2916     109   1
   4   2  -4    1544      87   1
   5   1  -3     349      46   1
   3   3   7     278      45   1
   1  -6  -2    6320     127   1
   4   5   4    8190     236   1
   5   4   1    1075      73   1
   5   4   3      12      31   1
   3   4  -3    2724     105   1
   1   6   0      10      24   1
   4  -1   5    1176      83   1
   4   0  -5    3540     119   1
   4  -2   4     453      57   1
   1  -6  -3    2061     101   1
   3  -1   6    9063     210   1
   2  -2  -7   10363     245   1
   2  -1  -7    3757      98   1
   3   1   7    6658     147   1
   3  -3   4    1346      89   1
   0   6   0      47      24   1
   4  -4  -1    2097      92   1
   1   6   5    3806     124   1
   1  -4   4     380      40   1
   1  -6  -1   14376     289   1
   5   2   5    4238     144   1
   4   4  -2   20078     513   1
   1  -5  -6   11109     339   1
   4  -4  -2     432      51   1
   5  -2   2    5198     174   1
   3  -4  -5     282      41   1
   4  -2  -5   10465     184   1
   3  -5  -2    4303     132   1
   2  -5  -5     161      37   1
   0   1  -7    8537     167   1
   3   6   3     475      49   1
   3  -5  -1    1840      86   1
   3   6   2      36      23   1
   1  -4  -7     156      34   1
   2   3  -5    2600     134   1
   4   5   0     380      48   1
   4  -4   0     665      63   1
   6   1   1   13900     236   1
   3   5   6      29      28   1
   5   1   5     327      48   1
   1  -1   7    8968     209   1
   2   6   0     360      39   1
   0   6   5     718      65   1
   2   6   5   11513     215   1
   3  -3  -6   14568     242   1
   5   4   0    6146     157   1
   1  -6  -4    6855     216   1
   5   4   4     475      58   1
   1   2   8     475      44   1
   6   1   0    1398      68   1
   5  -2  -3   10485     205   1
   2  -2   6      98      36   1
   5   3   5    4408     187   1
   4   4   6    8172     328   1
   2  -3   5   10342     224   1
   3  -5  -3    1648     115   1
   2   4  -4   14616     487   1
   6   1   2    1176      69   1
   4   0   6    7673     247   1
   2  -3  -7    9506     196   1
   0   2   8     912      55   1
   3   6   4    1544      87   1
   2   0  -7    1900      88   1
   6   2   1    1648      73   1
   6   0   1    1513      70   1
   6   0   0    2313      87   1
   4  -3   3       7      39   1
   3   4   7    8873     265   1
   4   1  -5       4      38   1
   4  -4  -3     106      33   1
   1   3   8     275      37   1
   6   2   2     449      43   1
   3   6   1      44      23   1
   2   2  -6     309      43   1
   1   1  -7    2937      76   1
   4   5   5     556      58   1
   3  -5   0      51      22   1
   5   3  -2    2265     115   1
   1   5   7    4096     142   1
   3   1  -6     327      44   1
   0   5  -3    5358     147   1
   5   2  -3   20163     285   1
   1  -6   0      33      24   1
   1   5  -3   16052     254   1
   1   1   8   15301     248   1
   0   3   8    1584      72   1
   0   1   8    5836     138   1
   5  -1   4      16      33   1
   5  -3  -1   12927     228   1
   6   2   0     789      63   1
   2  -5   2    3528      95   1
   3   5  -2      27      29   1
   5   0  -4   18961     276   1
   4  -4   1    5431     163   1
   5  -3   0     561      43   1
   3   0   7    1936      98   1
   2   2   8     506      55   1
   6   0   2     136      32   1
   1   6  -1       4      28   1
   6   1  -1     846      53   1
   6   0  -1      44      23   1
   5  -1  -4     182      42   1
   0   5   7     655      57   1
   3  -4   3     219      46   1
   2   5   7    3340     140   1
   0   6  -1     635      51   1
   2   3   8    3782     124   1
   2  -1   7    7974     197   1
   6   2   3      44      29   1
   6   1   3    4844     126   1
   5  -3  -2    1857      96   1
   2  -4   4     272      34   1
   5   0   5     852      71   1
   4  -3  -5    6240     159   1
   3  -5  -4   11556     216   1
   5  -2   3    1354      97   1
   1   6   6    7413     313   1
   2  -6  -2    6691     181   1
   1  -2  -8     118      27   1
   1  -6  -5     201      41   1
   3   6   5    8353     388   1
   1  -5   3     542      57   1
   4   5  -1    1413      83   1
   6  -1   0    9120     172   1
   5   4  -1    1738      92   1
   6   3   2   10878     230   1
   4   2   7    4070     141   1
   2  -6  -3      25      29   1
   5   4   5    1190      84   1
   2   1   8    9447     175   1
   5  -3   1    2570     123   1
   2   5  -3    2798     117   1
   1   4   8    1576      88   1
   5   1  -4      86      32   1
   6   3   1     331      45   1
   3   6   0    2371     108   1
   6  -1   1     213      36   1
   2   6  -1      43      30   1
   2  -6  -1    8172     200   1
   1  -1  -8    2237      66   1
   4  -4  -4    1095      74   1
   3  -5   1       9      23   1
   4   3   7     148      41   1
   2   6   6    2830     129   1
   4   3  -4      94      31   1
   6   2  -1    8649     187   1
   0   6   6    6773     282   1
   6  -1  -1    3422     106   1
   5   5   2    2809     161   1
   2  -5  -6   16078     331   1
   1  -3  -8    8630     186   1
   5  -2  -4     783      62   1
   5   5   3    5565     165   1
   0   3  -6    6512     162   1
   6   3   3    1528      95   1
   0   4   8     342      45   1
   2  -4  -7      90      37   1
   6   0   3    2342      97   1
   3   3  -5     497      54   1
   0   0   8   11946     263   1
   2   1  -7       2      44   1
   5   2   6     707      65   1
   6   0  -2   12723     203   1
   3  -4  -6   10588     206   1
   1   0   8    1489      94   1
   4  -2   5    5990     345   1
   2   4   8      48      30   1
   1  -6   1    1346      81   1
   4   4  -3      12      30   1
   4  -1  -6      12      37   1
   3  -1  -7     210      52   1
   5  -3  -3    5212     145   1
   4   6   3     295      50   1
   4   1   7    2937     153   1
   3   4  -4    6756     182   1
   3  -2  -7    7482     173   1
   4   6   2     615      55   1
   6   3   0    1489      86   1
   6   1  -2    1640      90   1
   2  -6  -4    4475     148   1
   0   4  -5    2580     144   1
   4   5   6     488      59   1
   1  -5  -7     368      47   1
   4   2  -5    9721     198   1
   5   5   1   10815     208   1
   3  -2   6    2470     120   1
   6   2   4     388      52   1
   1   3  -6    3564     132   1
   5   3   6      10      35   1
   4  -4   2    3457     142   1
   3   5   7    1354      89   1
   6  -1   2    6052     188   1
   4  -1   6    2766     181   1
   1  -3   6    6922     133   1
   3  -3   5    3481     143   1
   3   2   8    1927      97   1
   1   4  -5    3410     273   1
   5   5   4    7673     193   1
   4  -2  -6    2830     107   1
   1   7   3     610      50   1
   0   2  -7    5852     123   1
   4   0  -6   10629     207   1
   6   1   4    7673     193   1
   2  -6   0     712      65   1
   5   1   6      96      45   1
   3   3   8    3956     139   1
   4   6   4     479      54   1
   6  -1  -2     761      61   1
   1   7   2     702      54   1
   4   4   7    1568      96   1
   4  -3   4     108      38   1
   3   2  -6    2693     115   1
   5  -3   2    5126     173   1
   3  -5  -5    1672      91   1
   5   3  -3     745      66   1
   1   0  -8   12432     201   1
   4   6   1     368      51   1
   1  -2   7     466      57   1
   1  -4   5     707      54   1
   3   0  -7    7885     178   1
   6   3   4    2948     120   1
   1   7   4    5670     136   1
   0   7   3     888      60   1
   2   7   3    2079     101   1
   3   6   6     515      60   1
   2   0   8     210      45   1
   1   6  -2    1274      79   1
   0   7   2     645      51   1
   3  -1   7    1763     110   1
   1   2  -7   20163     227   1
   2  -5   3     141      30   1
   1  -6  -6    1814      94   1
   3  -3  -7     129      33   1
   5   2  -4    4928     155   1
   0   6  -2      29      27   1
   5  -1   5      19      33   1
   1  -4  -8    8299     183   1
   2   7   2      21      25   1
   3   1   8    2600     155   1
   2  -2  -8     625      56   1
   3   6  -1     870      90   1
   6   2  -2    2115     102   1
   6  -2   0     376      43   1
   5   5   0     179      45   1
   2   7   4    1049      72   1
   6   4   2     380      69   1
   5   4  -2    6642     197   1
   5  -2   4    2079     120   1
   3   5  -3    1310      88   1
   1   7   1   16848     234   1
   0   7   4      57      54   1
   6   3  -1     756      67   1
   3  -5   2     252      32   1
   5  -1  -5      84      43   1
   5   4   6    3906     138   1
   6  -2  -1    1288      80   1
   4   5  -2     313      47   1
   4  -5  -2    7849     178   1
   2  -1  -8      36      23   1
   4  -4  -5      12      30   1
   3   4   8     625      66   1
   4  -5  -1    3375     176   1
   1   5   8    6336     273   1
   1   6   7     112      61   1
   0   5  -4    3147     124   1
   2  -6  -5     475      58   1
   5   0  -5   11320     299   1
   6   4   3    2016     109   1
   4   6   5    5329     161   1
   3  -4   4    4006     153   1
   6   0   4       7      43   1
   2   3  -6     620      61   1
   4   0   7    5256     175   1
   1   5  -4     204      57   1
   2   4  -5     852      71   1
   6   4   1    2672     157   1
   5  -3  -4    9900     220   1
   6  -1   3    2777     127   1
   5   5   5      56      34   1
   6   0  -3    2809     150   1
   6  -2   1     151      39   1
   2  -3   6    7072     203   1
   0   7   1    1616      81   1
   4  -3  -6     542      67   1
   4   1  -6      67      30   1
   2   6  -2    2981     121   1
   2  -3  -8     789      63   1
   1   7   5       5      53   1
   2   6   7    1624      89   1
   2   7   1    8445     166   1
   2   5   8    2580     112   1
   5   0   6    4678     207   1
   4  -5  -3      20      30   1
   5  -4  -1      16      30   1
   0   5   8   13595     304   1
   2  -6   1    8593     205   1
   4   6   0    1831      95   1
   2  -2   7     112      36   1
   0   6   7     894      91   1
   6   2   5     163      40   1
   6   1  -3      12      37   1
   6  -1  -3    1489      86   1
   4  -5   0    1030     105   1
   0   1  -8    1497      70   1
   6  -2  -2      32      28   1
   1  -6   2      82      33   1
   5  -2  -5    3329     151   1
   5  -4  -2      39      30   1
   2   7   5     556      58   1
   3  -6  -2    5126     158   1
   1  -1   8      12      36   1
   1  -7  -3      24      32   1
   3   7   3   13248     231   1
   5  -4   0     123      53   1
   1  -5   4    5730     137   1
   1   2   9    1142      68   1
   4  -4   3    1169      90   1
   1  -7  -2    3943     139   1
   6   4   4      38      32   1
   2  -4   5       9      33   1
   0   7   5     772      68   1
   1   3   9    9312     291   1
   2  -5  -7    1797      94   1
   3   1  -7     129      36   1
   6   3   5    7691     194   1
   3  -6  -3     484      58   1
   5   1  -5      96      33   1
   6   4   0   13386     255   1
   5  -3   3      27      33   1
   6   1   5     204      57   1
   2   0  -8   12791     295   1
   0   2   9    6593     163   1
   2   2  -7    8574     204   1
   3  -6  -1     556      83   1
   4   5   7     605      65   1
   3   7   2     894      73   1
   3   7   4     302      46   1
   2   5  -4     136      37   1
   1   7   0     506      50   1
   6  -2   2    1632      98   1
   0   3   9    7638     175   1
   1  -7  -4    3757     148   1
   1   1  -8    1036      58   1
   3   0   8       7      37   1
   3  -5  -6    3169     125   1
   5   5  -1     213      62   1
   3  -4  -7     605      60   1
   5   2   7    7761     266   1
   5  -4  -3     195      41   1
   0   7   0     372      51   1
   4   3   8    2061     110   1
   1  -7  -1      29      28   1
   4   2   8    2830     161   1
   2   3   9    7673     282   1
   4   3  -5    6822     182   1
   5   3   7      10      38   1
   4  -5  -4   11109     233   1
   2   2   9      38      30   1
   4   4  -4    7039     185   1
   1   1   9    1004      64   1
   3   6   7    4488     148   1
   4   6   6      25      34   1
   6   3  -2      20      33   1
   0   1   9    1892      79   1
   5  -4   1    6528     376   1
   3   5   8     645      67   1
   2   7   0    4134     155   1
   4  -5   1     195      59   1
   3  -6  -4     645      62   1
   2  -4  -8    4083     141   1
   4  -2   6    1082      87   1
   5   6   3     252      64   1
   1   4   9      47      29   1
   2  -1   8     772      73   1
   1   7   6    2830     150   1
   1  -5  -8    4569     149   1
   6   2  -3    5431     163   1
   3   7   1    4342     146   1
   6  -2  -3    6822     182   1
   2  -6  -6     265      44   1
   3  -6   0    4651     206   1
   5   5   6    2332     117   1
   3   7   5    1406      83   1
   5   6   2    2798     160   1
   1  -6  -7     615      60   1
   3   6  -2    2851     129   1
   6  -1   4     156      42   1
   7   1   1    2809     107   1
   5   3  -4      13      41   1
   1  -2  -9    6988     168   1
   4  -3   5    3102     146   1
   2   7   6      12      33   1
   3   4  -5     306      47   1
   4  -1  -7    1232     107   1
   5   1   7      51      44   1
   3  -5   3     650      51   1
   6   4   5    1789     102   1
   5  -3  -5       6      34   1
   5   6   4      38      32   1
   0   4   9     313      55   1
   1   6  -3     470      81   1
   4   4   8    3540     144   1
   4   6  -1    5212     189   1
   3   3  -6       4      55   1
   7   1   0    1239      85   1
   6   0   5    2152     141   1
   7   1   2       6      34   1
   0   6  -3      10      34   1
   5   4  -3     967      76   1
   2   4   9     547      57   1
   1  -7  -5    1190      84   1
   7   2   1    3856     137   1
   4  -4  -6    4956     156   1
   4  -2  -7    4788     195   1
   4   1   8      22      43   1
   2   1   9     144      52   1
   7   2   2    2490     121   1
   6   0  -4    4872     197   1
   4   2  -6    6593     179   1
   1  -3  -9     449      52   1
   6   4  -1     538      62   1
   5   4   7      17      32   1
   0   7   6     750      84   1
   4  -1   7      60      35   1
   6  -3  -1    4173     143   1
   2  -5   4    7867     178   1
   3  -3   6     198      47   1
   2  -6   2       4      42   1
   5  -2   5    6955     252   1
   6  -3   0       6      58   1
   7   0   1     207      36   1
   3  -2  -8    9101     191   1
   6   5   2      10      48   1
   6   5   3    4858     211   1
   4   5  -3      86      36   1
   6  -1  -4     110      45   1
   0   4  -6    5535     316   1
   0   3  -7    1544      87   1
   7   0   0    2959     109   1
   1  -7   0    1383      90   1
   3  -2   7       6      62   1
   5   6   1    1295     117   1
   1  -1  -9     323      33   1
   3  -1  -8      53      38   1
   5  -1   6      21      32   1
   6  -2   3      96      40   1
   5  -4  -4    7039     185   1
   5   2  -5    2460     110   1
   7   2   0      27      30   1
   4   0  -7    5083     201   1
   1   6   8    1989     145   1
   6   2   6    1849     149   1
   1   4  -6    4844     253   1
   2   1  -8      56      30   1
   6  -3  -2    1648      98   1
   3   3   9    4435     147   1
   1   7  -1    7344     294   1
   5  -1  -6     252      60   1
   7   2   3      84      36   1
   3   5  -4     428      55   1
   4   7   3    5580     165   1
   2  -7  -3     829      76   1
   2  -7  -2      54      43   1
   6   1  -4      31      29   1
   1  -3   7      13      24   1
   7   0   2      30      27   1
   6   3   6     246      49   1
   1   3  -7     136      85   1
   2   6  -3    4624     164   1
   6   5   1     538      81   1
   3   2   9      10      87   1
   7   1  -1      90      35   1
   4  -5  -5    3214     125   1
   3  -6  -5     510      60   1
   7   1   3    5343     266   1
   5  -4   2     852      77   1
   2   6   8    5670     289   1
   6   5   4    1648      98   1
   6  -3   1    5535     240   1
   0   0   9     285      45   1
   1  -4   6     954      62   1
   1   0   9     408      58   1
   5   6   5      86      36   1
   0   7  -1    6888     200   1
   3   7   0    5256     175   1
   7   0  -1     707      54   1
   1  -6   3       1      88   1
   4   7   4     259      54   1
   3  -3  -8      24      29   1
   3  -4   5     600      70   1
   5   0  -6     870      96   1
   7   3   2    2872     163   1
   4   7   2    3745     185   1
   3  -6   1    8649     224   1
   3   7   6    4225     144   1
   5  -3   4      23      34   1
   3   2  -7    4596     150   1
   4  -3  -7       1      82   1
   0   6   8     184      52   1
   4  -4   4    5461     269   1
   4  -5   2       1     255   1
   7   3   1     979     102   1
   5  -2  -6    8335     257   1
   5   5  -2     163      40   1
   6   1   6     306      66   1
   1  -4  -9      37      36   1
   2  -7  -4     528      61   1
   0   5  -5    2703     179   1
   0   2  -8      59      29   1
   1   5   9      59      40   1
   2   7  -1    1789     102   1
   2  -7  -1     650      89   1
   3   0  -8    2693     115   1
   6  -2  -4    4529     149   1
   3   4   9    1600      97   1
   7   3   3      30      33   1
   1   5  -5    2025     155   1
   4   6   7    6256     191   1
   7  -1   0    2652     125   1
   5   0   7      10      53   1
   3  -1   8    3745     148   1
   7   2  -1    7938     324   1
   1  -2   8     924      99   1
   5   6   0     864      71   1
   1   7   7     153      53   1
   1  -7  -6     457      57   1
   7  -1   1     313      43   1
   4   5   8      28      34   1
   2   5   9    1162      83   1
   6  -3  -3    2450     120   1
   6   3  -3    5640     181   1
   3  -5  -7    2218     104   1
   1   0  -9    2500      90   1
   4   7   5    2052     110   1
   4   0   8     102      49   1
   3   1   9    1482     125   1
   7   0   3      19      47   1
   2  -5  -8    1197      84   1
   2   0   9     841      77   1
   2  -2  -9    4956     156   1
   2   4  -6    8686     491   1
   6   4   6     345      58   1
   0   5   9     696      81   1
   2   7   7     295      80   1
   6   5   0     299      65   1
   7   3   0     630      66   1
   4   7   1     835     101   1
   7   2   4      28      34   1
   7  -1  -1    1560      96   1
   5   5   7    1780     111   1
   1   2  -8     675      58   1
   4   1  -7     556      63   1
   2  -6  -7     829      70   1
   6   5   5     870      96   1
   1  -5   5    6496     145   1
   3   6   8    4225     157   1
   6  -3   2    1664     107   1
   2  -3   7    1288     109   1
   1  -7   1   11278     256   1
   7   0  -2    8649     262   1
   6   4  -2    2981     132   1
   2   3  -7    3481     143   1
   6  -1   5    1281      94   1
   5   1  -6    2510     111   1
   7   1  -2     408      54   1
   2  -3  -9     129      36   1
   6   2  -4    5625     166   1
   7   1   4    1398     122   1
   0   7   7    2905     152   1
   2  -1  -9     153      50   1
   4   6  -2     316      51   1
   5  -5  -2    6464     243   1
   5  -5  -1     265      65   1
   1   8   3       5      33   1
   4  -6  -2    1730     144   1
   5  -4  -5    1608      97   1
   2  -7  -5    3918     151   1
   7  -1   2    5299     176   1
   2  -4   6       2      71   1
   7   3   4    3481     143   1
   5   6   6     973      82   1
   2  -7   0     252      64   1
   6  -2   4    4134     168   1
   1   8   4    7310     241   1
   2   5  -5     104      52   1
   5   3   8      43      35   1
   3   6  -3   11406     474   1
   3  -4  -8    4290     145   1
   4  -6  -1      57      48   1
   5  -3  -6     240      45   1
   1  -6  -8     129      46   1
   4  -6  -3     127      38   1
   5   2   8    2134     150   1
   2   8   3     112      36   1
   1   8   2    1030      65   1
   2  -2   8    1082      94   1
   3  -6  -6      22      32   1
   6   0   6    6416     242   1
   3  -5   4    5241     131   1
   2   8   4    1584      96   1
   2  -6   3     948      81   1
   4   4  -5    8100     272   1
   7   4   2    2916     164   1
   5  -5   0    3091     180   1
   3   7  -1      38      33   1
   7  -1  -2       4      68   1
   5  -4   3    4238     170   1
   5  -5  -3    1849     104   1
   0   8   3    1361      97   1
   6  -1  -5    1592     130   1
   6   0  -5    4747     208   1
   3   5   9    2480     120   1
   3  -6   2     268      37   1
   4  -4  -7    3552     132   1
   7   4   3     510      79   1
   4  -5  -6     334      49   1
   3   7   7      27      32   1
   5   4  -4    5595     180   1
   4   3   9     278      52   1
   1   7  -2    4422     215   1
   2   8   2     492      59   1
   0   8   4    2959     131   1
   4   3  -6     148      38   1
   7   3  -1     265      58   1
   4   7   6     707      70   1
   5   3  -5    4032     153   1
   7   2  -2    4264     158   1
   3   1  -8    2756     127   1
   7   4   1     767      91   1
   1   3  10    2959     120   1
   0   8   2    2480     120   1
   5   4   8    4316     159   1
   1   8   5    2470     161   1
   1   6  -4    2830     172   1
   0   6  -4    2560     174   1
   0   1  -9      25      28   1
   1  -5  -9    2798     150   1
   0   7  -2    1797     147   1
   6  -3  -4     445      56   1
   4   2   9     168      55   1
   4   7   0    3214     137   1
   1   2  10     484      58   1
   4  -3   6     510      70   1
   1  -1   9    1600     105   1
   4  -2   7     484      68   1
   4  -6   0    4395     214   1
   7   0   4     198      60   1
   5   6  -1    9604     316   1
   2   2  -8    4083     141   1
   4  -5   3    1225     121   1
   4  -6  -4     148      41   1
   2   8   5     289      49   1
   6   3   7     979      83   1
   2  -4  -9    2342     107   1
   5  -2   6     125      40   1
   6   2   7    3492     191   1
   4   5  -4    1288      95   1
   6   5  -1       7      39   1
   7  -2   0     176      60   1
   2   0  -9    3684     134   1
   0   3  10    1030      91   1
   0   2  10      59      32   1
   5   1   8      51      46   1
   1   8   1     635      56   1
   3   0   9       4      73   1
   7   2   5      24      46   1
   7  -1   3    1239      93   1
   4   4   9    2530     122   1
   6   6   3     462      80   1
   2  -5   5    1831      86   1
   7  -2  -1    5069     172   1
   6   5   6    4134     234   1
   2   3  10     148      41   1
   6  -2  -5    2134     140   1
   6   1  -5     912      99   1
   2   7  -2    3516     192   1
   7   4   4      10      38   1
   1  -7  -7   13271     324   1
   6  -3   3     246      52   1
   7   0  -3    7378     312   1
   6  -4  -2     948      75   1
   3  -7  -2    2851     173   1
   5   7   3    1482     133   1
   6   6   2    1239     122   1
   6  -4   0     153      56   1
   3  -7  -3    1918     142   1
   3   8   3     640      67   1
   0   8   5    7992     270   1
   7  -2   1     168      62   1
   1   4  10    2970     221   1
   7   3   5    2430     119   1
   3   4  -6    8463     222   1
   5   5  -3     134      39   1
   1   6   9     338      61   1
   3   8   4     118      37   1
   5  -3   5     380      60   1
   5  -1   7      82      49   1
   5  -5   1     888     110   1
   2   2  10     533      81   1
   5  -5  -4    1095      80   1
   4  -2  -8   21638     443   1
   4  -1  -8     166      52   1
   2  -7  -6      98      38   1
   1   1  -9      46      27   1
   6   6   4     538      86   1
   2   8   1     357      54   1
   5   7   4    1253     123   1
   0   8   1      47      29   1
   7   4   0    4238     210   1
   2  -7   1     795      75   1
   2   6  -4     519      85   1
   1  -6   4     547      67   1
   7   1  -3      13      47   1
   4   6   8    1075      86   1
   7   1   5     918     112   1
   2   6   9     416      72   1
   5   7   2    3552     193   1
   5   2  -6    7174     204   1
   1   7   8     948     101   1
   6   4   7    1466     101   1
   3  -3   7    3329     151   1
   1   1  10    2125     121   1
   4  -4   5     772      79   1
   1  -8  -3    3226     137   1
   2   4  10      92      37   1
   5  -1  -7     835      95   1
   4   2  -7     734      72   1
   3   8   2      21      46   1
   3  -7  -1     171      59   1
   4  -1   8    3600     157   1
   1  -7   2     148      41   1
   7  -1  -3      17      41   1
   6   1   7     497      83   1
   0   4  10    1738     110   1
   2  -1   9    4624     178   1
   4   1   9    3214     195   1
   3   3  -7    2025     109   1
   3   5  -5      26      31   1
   2   7   8     605      81   1
   0   1  10      65      32   1
   3  -7  -4     136      42   1
   7  -2  -2     835      76   1
   1   8   6    2034     137   1
   5   6   7    3124     135   1
   6   3  -4     420      59   1
   0   6   9     125      46   1
   6   6   1    3843     200   1
   1  -8  -4    1162      90   1
   1  -8  -2    5387     222   1
   3   8   5     127      38   1
   6   4  -3    7208     360   1
   5  -2  -7     440      74   1
   6  -4  -3     100      36   1
   3  -2  -9    1169     111   1
   6  -4   1     812     105   1
   2   8   6    3306     174   1
   1  -2 -10    6052     172   1
   4  -6   1    2787     171   1
   5   5   8      25      37   1
   3  -4   6     272      55   1
   0   4  -7    1361     136   1
   1  -3 -10     289      49   1
   5  -4  -6    2450     120   1
   5   7   5    7005     236   1
   7  -2   2      21      38   1
   3  -2   8     231      51   1
   4  -3  -8      77      45   1
   4  -6  -5     985     103   1
   4   0  -8      62      41   1
   5   0  -7    5610     226   1
   0   7   8      57      44   1
   7   3  -2      57      34   1
   6   6   5     259      50   1
   3  -5  -8      54      29   1
   2  -6  -8      62      33   1
   3  -1  -9     686      86   1
   7   4   5      10      41   1
   4   7   7     259      50   1
   2   1  10    3398     189   1
   1   8   0      12      44   1
   4   5   9    1062      86   1
   5   7   1      13      51   1
   6  -1   6     331      72   1
   0   3  -8     761      67   1
   6  -2   5    2611     145   1
   1   4  -7      17      51   1
   3   3  10     449      70   1
   4   6  -3   10120     242   1
   3  -3  -9      33      30   1
   0   8   6      65      42   1
   3  -6  -7    2766     127   1
   4   7  -1      17      35   1
   7   2  -3     846      77   1
   1  -4   7    2460     110   1
   3   7  -2     219      49   1
   3   6   9      34      35   1
   3   8   1    1980     144   1
   6  -3  -5      82      33   1
   1  -8  -5    5256     175   1
   0   5  -6      13      80   1
   5  -4   4    4395     174   1
   1  -8  -1      84      45   1
   5   0   8    1361     128   1
   7   5   3    3745     198   1
   6   2  -5       9      35   1
   3  -7   0    1398     130   1
   7  -1   4    1944     125   1
   7   5   2     453      79   1
   1   5  10    4019     179   1
   1  -1 -10       2      66   1
   0   8   0     506      60   1
   1  -3   8    2851     118   1
   3   2  10     187      61   1
   3  -6   3    1474      77   1
   3   7   8    1122      88   1
   2  -5  -9    7242     240   1
   7   4  -1    1383      98   1
   7   0   5     835     101   1
   2   8   0      21      38   1
   3  -7  -5   10774     250   1
   1   5  -6     388      82   1
   5  -5   2      32      48   1
   1   3  -8      15      48   1
   5  -5  -5    1274      87   1
   3   4  10     992      83   1
   2   1  -9     163      40   1
   6   5  -2    1568     129   1
   1  -4 -10    4342     281   1
   7  -2  -3     817      76   1
   4  -5  -7    5852     185   1
   5   6  -2     900      79   1
   2   5  10    7140     411   1
   3   8   6    5928     186   1
   5  -3  -7      10      47   1
   3   2  -8    6609     196   1
   6   6   0      75      51   1
   3   6  -4     268      51   1
   7   2   6    1849     140   1
   2  -6   4      43      35   1
   6   5   7     299      54   1
   7   5   4     615      87   1
   1   7  -3     424      77   1
   7   3   6      59      36   1
   4   8   3     524      85   1
   6  -1  -6     320      67   1
   6  -4  -4    3192     137   1
   7   5   1      57      50   1
   0   5  10    1713     126   1
   4   8   4     118      55   1
   1  -6  -9    1806     120   1
   6   0   7     338      73   1
   1  -5   6     309      51   1
   6  -3   4     547      72   1
   6  -4   2      12      55   1
   7   0  -4      27      45   1
   5   7   6      82      40   1
   1   0  10    5700     197   1
   0   7  -3    1944     152   1
   0   0  10    8949     190   1
   3  -5   5      12      28   1
   3   0  -9    6822     250   1
   2  -7  -7    3893     151   1
   6   0  -6      79      46   1
   4  -5   4    1232     129   1
   5   1  -7    5867     232   1
   8   1   1     184      55   1
   3  -1   9    4342     173   1
   7  -2   3      44      39   1
   4   0   9      98      50   1
   5   3   9     380      77   1
   7  -3  -1    1128     117   1
   2  -7   2     475      63   1
   1   8   7    5700     228   1
   7  -3   0    1823     148   1
   2   4  -7    5461     254   1
   7  -1  -4     353      70   1
   6   6   6     289      64   1
   0   2  -9    4858     154   1
   8   2   1    4199     196   1
   8   2   2     237      62   1
   2   8   7    4886     211   1
   4  -4  -8    2016     109   1
   8   1   2     800      75   1
   1  -7  -8     675      85   1
   4   8   2      16     110   1
   3  -4  -9    9525     235   1
   5   7   0      47      48   1
   4   1  -8    3540     180   1
   8   1   0     420      59   1
   4   8   5     112      38   1
   5   4  -5    3981     152   1
   6  -2  -6   15600     528   1
   7   1  -4    1135     110   1
   2  -8  -3    6225     255   1
   1  -2   9    7691     194   1
   5   2   9    1115     116   1
   4  -6   2     795     104   1
   7   1   6    1608     139   1
   6   3   8     158      57   1
   3   1  10    5285     414   1
   2   5  -6     772     109   1
   2   7  -3      67      51   1
   2  -2 -10   14908     343   1
   2  -4   7    1122      67   1
   2  -3   8    2714     105   1
   1  -8   0    1624     131   1
   4  -6  -6      82      36   1
   1  -8  -6     384      69   1
   5   4   9    2450     130   1
   2  -8  -2    1560     128   1
   7  -3  -2    4147     155   1
   4   4  -6     761      73   1
   8   0   1      28      31   1
   7   4   6      15      55   1
   6   2   8      94      49   1
   2  -3 -10      16      33   1
   3   8   0     630      72   1
   7  -3   1    6256     271   1
   2  -8  -4       4      60   1
   2   0  10    2693     287   1
   3   5  10    2872     196   1
   8   2   0    1608     130   1
   0   6  -5    1831     157   1
   8   0   0    3648     183   1
   2   3  -8       9      58   1
   7   5   5    3003     144   1
   1   6  -5    7499     297   1
   8   2   3     948      81   1
   3  -7   1      60      47   1
   5  -6  -2      60      51   1
   5   3  -6     739      72   1
   1   0 -10    3214     125   1
   0   8   7    3203     172   1
   1   2  -9    5446     253   1
   1   8  -1    1421     131   1
   7   5   0       2     115   1
   5   6   8      16      38   1
   5   5  -4    4569     177   1
   1  -7   3    5299     190   1
   4   5  -5      80      37   1
   5  -2   7    2007     127   1
   3  -7  -6    1239      93   1
   5  -6  -1     556      93   1
   6   1  -6    3843     200   1
   8   1   3    4083     207   1
   6   4   8    3147     147   1
   8   3   2      29      43   1
   7   3  -3    4583     177   1
   8   0   2    1317     126   1
   1   7   9    8611     451   1
   4   6   9    1225      99   1
   2  -1 -10      20      46   1
   5  -3   6     870      90   1
   4  -3   7    4032     179   1
   5  -6  -3      72      48   1
   8   1  -1      43      42   1
   4   3  10    2134     159   1
   0   8  -1      77      50   1
   1  -5 -10     171      53   1
   8   3   1     112      54   1
   4   3  -7    2460     130   1
   4   7   8      96      38   1
   3   8   7    1122     116   1
   2   7   9    1505     126   1
   4   8   1    2631     166   1
   7   4  -2    1616     106   1
   7  -2  -4    4788     223   1
   2   8  -1    2862     173   1
   2  -8  -1    2061     147   1
   8   3   3     670      90   1
   2  -5   6    2061      91   1
   8   0  -1    1689     134   1
   6   4  -4     515      65   1
   6   6  -1    6528     261   1
   4  -2   8     114      44   1
   4   8   6     734      72   1
   2  -2   9    2152     131   1
   5  -4  -7    9860     380   1
   4   7  -2     210      48   1
   4  -7  -2     163      61   1
   6  -5  -1     201      64   1
   7  -1   5    1376     129   1
   5  -5   3      30      36   1
   6  -5  -2    4998     243   1
   5   1   9    2162     160   1
   2  -8  -5    2401     129   1
   5  -5  -6       4      47   1
   1  -6   5     106      57   1
   1   6  10      96      45   1
   6   7   3      70      50   1
   4   4  10      16      54   1
   4  -7  -3    3180     183   1
   4   2  10     388      82   1
   6  -4  -5    2916     131   1
   7  -3  -3       7      39   1
   2  -4 -10    3113     135   1
   6   3  -5    1489     102   1
   5   7   7    1281      94   1
   2   6  -5    9564     335   1
   7   2  -4    3931     151   1
   6   1   8     112      54   1
   4  -4   6     432      69   1
   6   7   4    2410     190   1
   5  -6   0    3058     190   1
   6  -4   3    2510     142   1
   2   6  10      98      48   1
   5  -1   8    2180     161   1
   8   2  -1    1391      98   1
   7  -3   2      73      56   1
   6  -3  -6     243      66   1
   0   7   9    3782     224   1
   5   5   9     129      57   1
   8   2   4     299      69   1
   3  -6  -8    1697     100   1
   3   1  -9    4238     157   1
   8   3   0       4      96   1
   6   7   2    1730     153   1
   4  -7  -1     635      93   1
   7   0   6     795     104   1
   8  -1   0      13      51   1
   5  -6  -4      24      33   1
   6  -2   6     524      70   1
   6  -5   0    3893     227   1
   7  -2   4    1747     118   1
   1   3  11     590      75   1
   3   7  -3     313      70   1
   8   0   3    1011     117   1
   8  -1   1    1592     138   1
   6   5  -3      59      36   1
   6  -5  -3    3158     193   1
   6   6   7    1088     122   1
   4  -2  -9      32      43   1
   5   2  -7      13      33   1
   2  -6  -9    4382     160   1
   5  -1  -8    5055     230   1
   5  -4   5      15      52   1
   3   4  -7    3956     216   1
   4  -7  -4     404      79   1
   0   6  10      23      40   1
   4   6  -4     979      83   1
   5   7  -1     376      77   1
   8   3   4    3317     151   1
   5  -2  -8    3469     191   1
   3  -6   4     123      33   1
   3   7   9      34      44   1
   7   3   7    2052     156   1
   8   1   4      44      47   1
   6  -1   7     262      68   1
   2   2  -9    1584     138   1
   1   2  11    3769     287   1
   7   5   6    2745     137   1
   5   6  -3    3329     175   1
   7   6   3    1592     138   1
   3   5  -6    3918     241   1
   4  -1  -9    2125     150   1
   1   9   4     595      85   1
   0   1 -10      50      30   1
   0   3  11     256      57   1
   3   0  10     174      62   1
   6   7   5    3226     196   1
   1  -8  -7     265      58   1
   1  -8   1     249      49   1
   1   9   3    2043     147   1
   8  -1  -1     349      70   1
   7   2   7     888     110   1
   6   5   8     306      58   1
   1   8   8      47      46   1
   3  -5  -9     292      49   1
   1  -1  10     817     155   1
   2   3  11    3660     146   1
   1   4  11      53      42   1
   7   5  -1      90      51   1
   2   8   8      70      48   1
   2   9   4    3612     182   1
   8   1  -2     216      59   1
   8   0  -2    1459     124   1
   2   0 -10     404      71   1
   7   6   2      59      50   1
   7   0  -5    2401     169   1
   6  -3   5       1     323   1
   3  -3   8    2134     131   1
   0   2  11    3237     243   1
   2  -7  -8    2883     130   1
   2   9   3     327      52   1
   8   4   2    6905     268   1
   7   6   4    2007     155   1
   2  -8   0    2237     163   1
   4  -5  -8      40      32   1
   5   8   3    1831     148   1
   7  -1  -5     691      97   1
   8  -1   2    2745     181   1
   3  -4   7      56      30   1
   4  -1   9    1656     141   1
   4  -3  -9     542      82   1
   3   8  -1    2590     134   1
   4   5  10     249      53   1
   4   2  -8    1857     113   1
   8   4   3     470      81   1
   2  -7   3    4032     166   1
   4  -6   3    3564     120   1
   3   6  10    1413     122   1
   2   4  11     278      59   1
   6   2  -6    1056     113   1
   4   8   0    2672     178   1
   1   9   5      42      44   1
   6   7   1     161      60   1
   4   1  10    3528     217   1
   3  -7   2    1346     135   1
   5   0  -8     841     101   1
   2   2  11    2352     177   1
   2  -8  -6     234      51   1
   4  -7   0      56      49   1
   7   4   7     571      68   1
   4  -6  -7    3931     151   1
   0   4  11     595      80   1
   1   9   2    3943     152   1
   3   3  -8     240      65   1
   2   9   5    1616     131   1
   5  -6   1      28      49   1
   6  -5   1     918     118   1
   8   4   1     696      98   1
   0   9   3    1584     105   1
   0   9   4       1     379   1
   4   8   7      13      35   1
   1   7  -4     484      92   1
   3  -7  -7    1797     111   1
   5  -3  -8     882     103   1
   0   8   8     156      54   1
   1   1 -10    1398      83   1
   5   8   5     320      95   1
   8   3  -1    2590     165   1
   5   8   2     783     104   1
   0   7  -4    2304     176   1
   7  -3  -4     492      64   1
   2  -6   5       6      74   1
   2   9   2    7974     324   1
   4  -5   5     327      44   1
   6  -5  -4       9      42   1
   7   1  -5    4830     224   1
   3  -2 -10    3398     189   1
   6  -1  -7    1176     119   1
   7   6   1    5431     253   1
   4  -7  -5    2756     127   1
   7   1   7     100      53   1
   1   8  -2     198      63   1
   8   2  -2    3113     146   1
   5  -6  -5    2430     129   1
   8  -1  -2     127      51   1
   1  -7  -9    3003     223   1
   2  -1  10     479      67   1
   4   0  -9    3660     196   1
   0   4  -8    5670     274   1
   3  -2   9      32      38   1
   7  -3   3    1197     135   1
   3   6  -5    4199     236   1
   3   8   8    1763     136   1
   8   4   4     349      74   1
   7  -4  -1      43      52   1
   2  -5 -10     118      47   1
   1   1  11     432      82   1
   8   2   5      31      49   1
   7   6   5     225      67   1
   3  -8  -3    3317     186   1
   5   0   9     723     105   1
   8   0   4      59      53   1
   0   9   2    3214     172   1
   6   0   8    3091     191   1
   3   9   4    3906     202   1
   3  -3 -10     888      97   1
   0   9   5      96      47   1
   7  -2  -5      32      44   1
   6   7   6     416      63   1
   1  -3 -11     201      54   1
   0   8  -2      23      47   1
   0   1  11      19      32   1
   8   3   5     338      57   1
   3  -8  -2     243      66   1
   0   5  -7     153      65   1
   7  -4   0      77      54   1
   6  -2  -7     285      67   1
   3   9   3     364      76   1
   1  -6 -10     542      77   1
   6   0  -7    2420     159   1
   6   6  -2    1281      94   1
   1  -2 -11    1398     114   1
   1   5  11    2043     137   1
   7  -4  -2    3588     206   1
   7   4  -3    2420     129   1
   3  -5   6    3248     114   1
   3   3  11    4583     233   1
   1   4  -8    5700     275   1
   3  -1 -10    2631     166   1
   7   3  -4    1056      92   1
   2   7  -4      39      85   1
   3  -8  -4     552      87   1
   1  -4   8    2256     115   1
   8  -1   3      13      58   1
   1   9   6       4      95   1
   2   8  -2    1936     152   1
   1   5  -7      16      52   1
   5   6   9    2735     137   1
   8   4   0     954     121   1
   3   9   5    1115      88   1
   2   9   6      42      49   1
   5   7   8    2265     125   1
   6  -4  -6     524      66   1
   8  -2   0       6      70   1
   2   5  11     166      55   1
   6   3   9     182      61   1
   3   4  11       9      47   1
   1   9   1      38      44   1
   0   3  -9     745      72   1
   8   1   5    1918     151   1
   4  -4  -9    5791     246   1
   4   7   9       5      69   1
   6  -4   4     778      85   1
   2   1  11     630      98   1
   1  -7   4    2313     186   1
   5  -5   4      28      37   1
   5  -5  -7     187      46   1
   5   8   6      59      34   1
   8  -2  -1    3260     197   1
   8   0  -3    3025     178   1
   5   3  10    1513     200   1
   5   8   1    1874     150   1
   1  -5   7    1135     131   1
   1  -4 -11    5270     205   1
   7  -1   6       7      90   1
   6   7   0     571      94   1
   8  -2   1     761     108   1
   3   2  11     207      64   1
   0   5  11    4529     190   1
   5   4  -6      16      38   1
   3   9   2    1874     150   1
   3  -8  -1    3058     190   1
   1  -3   9      43      33   1
   2   9   1     338      94   1
   5   1  -8    1030     112   1
   6   4   9     219      66   1
   8   1  -3     936     106   1
   4   7  -3     121      42   1
   7   5   7     102      39   1
   7  -4   1      21      54   1
   4  -7   1     184      64   1
   7  -2   5     158      48   1
   2  -8   1       4      87   1
   6   2   9    1797     147   1
   1  -9  -3       6      65   1
   5   5  -5     655      73   1
   6  -5   2     600     102   1
   5   4  10     497      88   1
   7  -4  -3    1831     148   1
   1  -9  -4      29      44   1
   1   3  -9     723     105   1
   0   9   1     408      75   1
   6   6   8      86      41   1
   7   6   0     918     112   1
   7   5  -2    3158     228   1
   8   4   5    1361     105   1
   0   9   6      10      58   1
   3   2  -9       4      52   1
   3  -4 -10     176      42   1
   1   7  10     190      59   1
   1  -1 -11     436      73   1
   5   7  -2      86      38   1
   3  -8  -5     116      42   1
   4   6  10    2830     140   1
   2   7  10     219      59   1
   1  -8  -8      21      42   1
   5  -6   2    2007     164   1
   1  -8   2      10      63   1
   2   1 -10    1971     153   1
   5   2  10    1436     139   1
   7   2  -5      44      45   1
   2  -8  -7       6      55   1
   7   6   6      65      40   1
   8  -1  -3    1004     110   1
   6  -5  -5    2304     126   1
   5  -4  -8       7      61   1
   0   6  -6     605     102   1
   6  -3  -7    1232     122   1
   6   4  -5    2134     121   1
   3   9   6     655      95   1
   4   0  10      98      55   1
   6   1  -7    8390     295   1
   5  -3   7    1489     118   1
   4   8  -1     772      79   1
   8   3  -2     457      66   1
   1   6  -6      25      54   1
   8   5   3      75      51   1
   8  -2  -2    3248     184   1
   1  -9  -2     506      84   1
   4  -7  -6    2851     140   1
   2   5  -7      28      51   1
   2   4  -8     960     121   1
   8   5   2     179      82   1
   7   0   7     571      94   1
   4   4  -7    2809     139   1
   4   5  -6    2570     133   1
   5   3  -7    1998     136   1
   3   5  11     353      58   1
   5  -2   8     882     110   1
   3  -1  10      64      50   1
   3   0 -10     364      72   1
   8  -2   2     104      59   1
   1  -9  -5      24      48   1
   2  -4   8    1474      93   1
   4   1  -9    7327     276   1
   1   8   9     428      77   1
   4   8   8    2294     126   1
   6   5  -4    2490     131   1
   2   8   9    2510     162   1
   5  -6  -6    2025     118   1
   3   8  -2    5387     237   1
   7   3   8      90      53   1
   7  -3  -5      21      46   1
   3  -6  -9    2171     122   1
   6   7   7    1528     111   1
   8   4  -1    3806     199   1
   0   7  10    1474     125   1
   1   0  11     396     119   1
   8   2  -3     249      67   1
   1   9   7       9      63   1
   8   5   4      37      45   1
   3   7  -4      86      52   1
   4   9   4    5745     291   1
   6   3  -6    5535     195   1
   2   9   7      19      47   1
   0   0  11    1989     108   1
   3  -7   3    5270     205   1
   4  -3   8    1980     135   1
   8   0   5     323      80   1
   3   9   1     645      89   1
   7  -3   4    1624     123   1
   2  -3   9     449      56   1
   6  -2   7    2275     174   1
   8  -1   4    2724     180   1
   8   3   6    1443     140   1
   8   2   6     102      56   1
   3  -8   0    2540     174   1
   6   5   9     306      58   1
   5   5  10      12      44   1
   4   9   3     948     114   1
   0   2 -10    1513      94   1
   8   5   1      48      51   1
   7   2   8     466      85   1
   1  -6   6    1528     160   1
   5   6  -4    3124     147   1
   3   1  11     156      59   1
   1   9   0    2490     162   1
   4  -6   4      16      36   1
   5  -4   6    1616     122   1
   7  -1  -6    4747     237   1
   2  -3 -11      65      44   1
   3   7  10     924     106   1
   6   1   9     756     108   1
   2  -2 -11      98      48   1
   7  -4   2     141      62   1
   3  -6   5       7      43   1
   2  -5   7    1918     106   1
   2  -7  -9     484      77   1
   4  -4   7      37      42   1
   5   8   7     345      58   1
   7   4   8     681      97   1
   1  -5 -11     278      63   1
   1  -2  10      47      33   1
   4   9   5     174      66   1
   7   0  -6     936     106   1
   3  -7  -8    3248     149   1
   6  -3   6      46      38   1
   1   6  11     655      84   1
   5   8   0    5097     245   1
   4  -6  -8    3745     160   1
   2   6  -6     466      95   1
   7  -4  -4     750      78   1
   4   3  11    2342     177   1
   2   3  -9    2756     192   1
   2  -7   4     259      54   1
   1  -9  -1    1697     134   1
   4   3  -8    4651     179   1
   2   6  11      32      43   1
   0   8   9      26      47   1
   4   6  -5    1831     157   1
   2   9   0     930     106   1
   2  -6 -10    2171     142   1
   4   4  11     538      91   1
   3  -8  -6      31      39   1
   5   1  10     449      88   1
   5  -7  -2       7      69   1
   0   9   0    6384     422   1
   3   8   9    3943     203   1
   4  -2   9      16     100   1
   2   0  11      17      52   1
   6  -6  -2      24      53   1
   6  -1   8     457      89   1
   5  -1   9     129      57   1
   0   9   7     440      78   1
   7   7   3      47      52   1
   5  -7  -3    6162     285   1
   8  -2  -3     360      75   1
   1  -9  -6     823     100   1
   6   7  -1     320      75   1
   4  -5  -9     179      45   1
   1   2 -10    4225     237   1
   4   9   2     210      65   1
   1   8  -3    2246     173   1
   6   8   4      10     130   1
   6  -6  -1      26      58   1
   8   4   6     116      44   1
   7   7   4    1497     142   1
   3   9   7     129      54   1
   6   8   3    1521     143   1
   7   6  -1    1697     151   1
   7  -2  -6    2361     168   1
   1   0 -11    4774     153   1
   8   5   5    2043     156   1
   8   1   6    2361     178   1
   8   0  -4     259      68   1
   4  -7   2     112      59   1
   2  -4 -11    4747     166   1
   8  -2   3      44      63   1
   0   6  11    3248     303   1
   5  -7  -1    1616     147   1
   6   6  -3     556      73   1
   3  -5 -10      43      33   1
   2  -1 -11    2115     149   1
   6  -6  -3     675     102   1
   5  -2  -9     412      76   1
   0   8  -3    1763     154   1
   4   2  11     139      62   1
   6  -5   3     299      77   1
   7   7   2      21      52   1
   4   9   6    2777     138   1
   5  -1  -9     207      61   1
   7   6   7      25      39   1
   7   1  -6     408      80   1
   7   4  -4     139      45   1
   5   2  -8     864     109   1
   8   5   0    1149     125   1
   7   1   8      57      52   1
   2  -8   2     331      76   1
   6   8   5     470      86   1
   5   7   9      10      48   1
   2  -2  10     259     113   1
   8  -3   0     870     115   1
   2  -9  -3     184      61   1
   8   1  -4    2043     156   1
   8  -1  -4     392      78   1
   8  -3  -1     510      94   1
   6  -4  -7    5083     230   1
   5  -7  -4    1317     133   1
   4  -2 -10    1505     134   1
   2   8  -3    1592     146   1
   3   5  -7      53      50   1
   1   7  -5      50      51   1
   2  -9  -4     219      63   1
   6   2  -7     650      95   1
   4  -5   6    3226     114   1
   6   8   2    2560     185   1
   7   7   5     146      58   1
   0   7  -5     114      59   1
   1  -7 -10    2787     171   1
   3   6  11     216      62   1
   6  -6   0     384      82   1
   6  -5  -6       4     123   1
   6  -4   5     620      82   1
   7   5   8    1149      96   1
   4   5  11     967      89   1
   5  -6   3    3576     218   1
   3   4  -8     231      71   1
   7   3  -5     745      78   1
   9   1   1     246      92   1
   4  -7  -7     158      48   1
   9   2   2      94      54   1
   9   2   1    2410     159   1
   2  -8  -8      39      43   1
   3   9   0     174      84   1
   8   3  -3     729      77   1
   2  -6   6    1095     136   1
   7   5  -3    1253     101   1
   2  -9  -2      33      45   1
   5  -3  -9    2970     188   1
   3   1 -10    1513     127   1
   9   1   2     576     136   1
   4  -3 -10     585      90   1
   6  -1  -8    6052     251   1
   5  -5   5     292      61   1
   4  -1 -10    5461     239   1
   3  -4   8     121      35   1
   8  -3   1     979     129   1
   3  -8   1     151      58   1
   8   4  -2     127      59   1
   5  -5  -8      30      35   1
   8  -3  -2     204      67   1
   1   3  12     368     110   1
   4  -8  -3    1149     125   1
   7  -2   6    1024     125   1
   6  -6  -4     146      58   1
   9   1   0     309      98   1
   5  -7   0    1489     150   1
   5   6  10    1672     116   1
   1  -9   0    2208     152   1
   2   9   8     110      56   1
   6  -2  -8     561      88   1
   1   9   8     466      85   1
   4   7  10     285      71   1
   4   8  -2    3135     147   1
   4   9   1    1797     147   1
   7  -4   3    1391     145   1
   4  -8  -2      40      49   1
   3  -3   9      84      43   1
   6   7   8     299      57   1
   6   6   9    2190     132   1
   7  -5  -1    1108     137   1
   2  -9  -5     118      58   1
   5   0  -9     153      56   1
   7  -1   7      17      86   1
   7   7   1     210      68   1
   1  -8  -9      20      46   1
   5   7  -3     835      82   1
   1  -8   3     650     105   1
   7  -5  -2     204      67   1
   9   2   3    1705     212   1
   1   4  12    2819     205   1
   3   6  -6    2190     181   1
   5  -6  -7    1505     102   1
   2   7  -5      25      54   1
   9   2   0    2540     205   1
   6   0   9    1600     155   1
   4  -1  10     497      93   1
   8  -1   5     864     115   1
   6   8   6      13      65   1
   3   0  11     243      73   1
   1   9  -1     605      97   1
   7  -4  -5    6162     205   1
   4  -8  -4     237      69   1
   2   3  12     800     105   1
   4   2  -9     497      64   1
   2   2 -10    2134     169   1
   0   3  12      15      47   1
   9   3   2      36      52   1
   4   7  -4     123      56   1
   5   8   8    2948     153   1
   7  -3  -6     449      84   1
   4   8   9    1689     142   1
   1  -9  -7      88      48   1
   1  -7   5     739     112   1
   6   0  -8     158      57   1
   8   5   6     184      61   1
   1   2  12    2162     219   1
   8   6   3    2275     174   1
   5   8  -1      21      54   1
   9   0   0    2342     157   1
   2   4  12     576      84   1
   9   1   3     445      88   1
   8   3   7    1971     163   1
   7  -5   0    2371     188   1
   4   1  11     195      66   1
   8   2  -4     368      80   1
   2  -5 -11      53      42   1
   1  -6 -11    2007     145   1
   3  -8  -7       1     869   1
   8  -2  -4    5760     260   1
   8   0   6      51      50   1
   3  -5   7    1980      99   1
   6   8   1     132      60   1
   5  -7  -5     556      93   1
   4   9   7     979     115   1
   9   3   1      25      47   1
   0   1 -11      28      35   1
   7   7   6    1004     137   1
   1  -1  11       7      46   1
   9   3   3     470      86   1
   5   9   4    1017     118   1
   6   3  10     338      77   1
   3   3  -9    2420     180   1
   7  -3   5      13      56   1
   4  -8  -1    3492     216   1
   2   9  -1    2361     168   1
   0   4  12    2550     227   1
   8   6   4     702     104   1
   2  -9  -1    1011     111   1
   9   0   2    1738     223   1
   6  -6   1      79      57   1
   8   6   2      16      59   1
   0   9  -1      59      48   1
   8   2   7      21      58   1
   5   0  10      12      95   1
   7  -5  -3     686     103   1
   6   4  10    1576     146   1
   9   1  -1      16      84   1
   3   9   8      56      49   1
   8  -3   2      38      55   1
   3   8  -3      84      56   1
   0   9   8    2662     167   1
   5   9   3     566      94   1
   8  -2   4     210      68   1
   8   5  -1      43      56   1
   7   2  -6     201      64   1
   2   2  12      16      57   1
   8  -3  -3      62      49   1
   5   9   5     338      98   1
   4  -4 -10     299      69   1
   6  -3  -8     265      69   1
   1   8  10     201      60   1
   2   8  10     179      60   1
   3  -2 -11      84      52   1
   4   0 -10     225      64   1
   8   4   7     275      74   1
   3  -7   4       4      70   1
   3  -3 -11    2070     148   1
   0   5  -8     259      79   1
   9   0  -1    3036     190   1
   5   5  -6    1874     123   1
   3  -2  10     510      74   1
   0   4  -9    1900     178   1
   9   2   4     600     145   1
   7   0   8    1640     149   1
   1   7  11    2798     171   1
   7   6  -2    2510     173   1
   4  -8  -5      17      52   1
   2  -9  -6    3091     169   1
   1   5  12     129      52   1
   6   7  -2       1     374   1
   5  -4  -9    2570     175   1
   2   7  11    2152     151   1
   6   2  10     806     117   1
   5   4  -7      64      38   1
   7   3   9      28      52   1
   9   2  -1     134      87   1
   9   3   0      43      50   1
   4   6  11      64      42   1
   6  -6  -5    2070     129   1
   6   4  -6       1     181   1
   6   5  -5    1998     127   1
   1   5  -8    1962     181   1
   5  -7   1     187      68   1
   1   1 -11    1713     160   1
   5   3  11     835     119   1
   2   5  12    1310     125   1
   9   3   4     846     108   1
   7  -5   1       4     128   1
   8   6   5     187      58   1
   3  -7  -9       7      46   1
   2  -1  11      70      83   1
   5   4  11     756     108   1
   8   6   1    2470     182   1
   4  -7   3     262      72   1
   4  -6   5     590      59   1
   3   3  12     888     116   1
   1  10   4      59      48   1
   7   7   0     176      66   1
   1  -4   9      57      38   1
   7   4   9      47      52   1
   1  -3 -12     408     102   1
   5   9   2      12      59   1
   1   4  -9    2152     179   1
   9   0   3     176      66   1
   7   6   8     408      67   1
   3   4  12     625     153   1
   6  -5   4       1     297   1
   2  10   4      19     131   1
   8   0  -5     571      94   1
   1  -5   8     210      75   1
   9   1   4     121      61   1
   3  -6 -10    3660     158   1
   7  -1  -7      25      47   1
   1   1  12      16     109   1
   5  -3   8      16      45   1
   4   9   0      12      66   1
   8   1   7     110      58   1
   3  -1 -11     400      79   1
   9  -1   0      17     101   1
   4  -6  -9     234      51   1
   6   5  10      17      51   1
   6   8   7      94      40   1
   5   9   6    2735     191   1
   1  10   3     412      98   1
   5   1  -9    4624     234   1
   6   1  -8      29      48   1
   9   4   2    1814     156   1
   3   7  -5     585     100   1
   9  -1   1     538      96   1
   4  -8   0     640      99   1
   0   5  12      53      44   1
   7   2   9    2079     167   1
   8  -1  -5     342      78   1
   0   8  10      39      50   1
   1  10   5    2560     164   1
   3   8  10      29      46   1
   2  10   5     640      94   1
   2  -7 -10    1095     108   1
   1  -2 -12    2143     189   1
   2  10   3     231     118   1
   9   4   3     174      66   1
   7  -5  -4      70      52   1
   5   6  -5      73      42   1
   3   9  -1     342      78   1
   3  -4 -11    3636     195   1
   0   7  11     625      87   1
   0   6  -7    4264     265   1
   1  -9   1     104      94   1
   7   0  -7      38      49   1
   1  -4 -12     479      77   1
   6  -3   7     428      73   1
   2  -8   3       1     599   1
   3  -8   2    1183     127   1
   6  -2   8     259      72   1
   1   6  -7    3364     236   1
   0   3 -10      20      34   1
   2  -7   5    1505     159   1
   3   7  11    3398     309   1
   5  -4   7     179      54   1
   2  -9   0    1346     135   1
   5   2  11      23      57   1
   6  -5  -7     213      52   1
   6   8   0    2079     167   1
   4   5  -7    1656     149   1
   3  -6   6     231      41   1
   7  -2  -7     576      94   1
   9   1  -2     462      85   1
   6   3  -7      88      53   1
   9  -1  -1      84      84   1
   8   1  -5    4998     243   1
   5  -2   9      16      63   1
   9   4   1    1169     126   1
   5  -7  -6    2227     134   1
   7   7   7    2662     199   1
   3   2  12     449      88   1
   8   4  -3     670      79   1
   1   8  -4    3214     219   1
   5   3  -8    6209     254   1
   0  10   4    1043     153   1
   4  -7  -8     729      77   1
   9   0  -2     106      55   1
   7  -4   4      72      57   1
   6   6  -4      16      41   1
   5   5  11    1004     124   1
   2   1  12      65      57   1
   5  -6   4     440      92   1
   8  -3   3    1772     163   1
   1  -3  10       2     129   1
   9  -1   2     519     135   1
   6  -6   2    1866     167   1
   8   5   7     556      73   1
   3  -9  -3      77      54   1
   4   4  -8      27      53   1
   4   9   8     110      56   1
   3   5  12    1883     223   1
   2   5  -8    1552     161   1
   0   8  -4     767     114   1
   8  -3  -4     302      73   1
   9   4   4    1281     132   1
   8   3  -4    4488     411   1
   0  10   3     734     129   1
   2   9   9     625      93   1
   1  -9  -8    3014     178   1
   3  10   4      86     109   1
   1   9   9     219      66   1
   9   3  -1    2500     172   1
   2  -8  -9      17      46   1
   5   7  10     161      51   1
   3  -9  -4    1082     121   1
   7   5   9     595      96   1
   2  10   6     556      93   1
   4  -8  -6     153      62   1
   1  10   6    2115     159   1
   3   2 -10    1049     126   1
   0  10   5    1246     122   1
   7  -4  -6     110      56   1
   7   4  -5      28      37   1
   1  -6   7    2851     217   1
   1   3 -10      22      62   1
   6   1  10      77      54   1
   9   2   5      38      57   1
   4   0  11     400      88   1
   8  -4  -1      96      60   1
   3  10   5     163     111   1
   6  -4  -8     718      99   1
   4   6  -6     114      57   1
   8   6   6     320      75   1
   9   3   5      62      88   1
   4  -4   8      24      43   1
   8   6   0    1004     124   1
   6   7   9     136      48   1
   2  -4   9     767      79   1
   8  -2  -5     428      86   1
   3  -9  -2      16      56   1
   2   4  -9    1980     238   1
   5   9   1     110      56   1
   3  10   3      20      55   1
   2  -9  -7     272      66   1
   4  -3   9     985     103   1
   2  -6 -11     806      93   1
   7   5  -4    1225     107   1
   9   2  -2    1142     124   1
   8  -4   0     528     101   1
   1   9  -2     388      87   1
   7  -5   2    1616     164   1
   6  -4   6    1772     128   1
   4  -5 -10    1128     124   1
   2   8  -4    2959     210   1
   5   8   9     219      56   1
   8  -1   6     108      60   1
   3  -8  -8     556      83   1
   9   0   4      38      59   1
   8   5  -2    1324     134   1
   1  -1 -12     761     162   1
   4   1 -10     174      59   1
   6  -1   9      42      57   1
   2   1 -11    3410     213   1
   2  -5   8      10      45   1
   8  -4  -2    1253     138   1
   5   8  -2    3516     265   1
   1   6  12      28      47   1
   2   6  -7    2641     209   1
   7   1  -7    4355     227   1
   5  -6  -8    3612     157   1
   4   8  -3     686     103   1
   5   9   7     313      55   1
   7   1   9      24      53   1
   3  -1  11     620     103   1
   2   6  12       7      66   1
   9   4   0     151      64   1
   9  -1  -2     252      67   1
   0  10   2      10      85   1
   8  -2   5       4     112   1
   3   0 -11     364      76   1
   6  -6  -6    3794     174   1
   7   8   4     571      99   1
   3  -9  -5      12      61   1
   3   9   9       4     106   1
   1  -5 -12      37      45   1
   0   9  -2    1656     158   1
   5  -7   2     237      72   1
   2   9  -2       1     755   1
   7   3  -6    4886     240   1
   7  -2   7    1513     151   1
   7   8   3    1056     127   1
   9   1   5    1713     152   1
   8   3   8      10      64   1
   3  10   6      12      83   1
   0   9   9      75      51   1
   7  -3  -7    2450     212   1
   5  -5   6    1310     148   1
   5  -5  -9     400      79   1
   9  -1   3     309     118   1
   2  -3  10     360      59   1
   0  10   6    2830     183   1
   4  -8   1    1552     145   1
   6   6  10     262      57   1
   1  -8 -10     420      77   1
   4   8  10     201      67   1
   1  -8   4      16      64   1
   7   7  -1     864     121   1
   7  -5  -5      46      42   1
   8   0   7     823     118   1
   1  -7 -11      15      47   1
   5   7  -4     182      51   1
   4   4  12      16      89   1
   8  -4   1      15      69   1
   3  -5 -11     331      72   1
   8   2  -5     349      78   1
   4   3  12      28      56   1
   9   4   5     292      72   1
   5  -1  10    1482     149   1
   4  -5   7     353      50   1
   5   1  11     800     117   1
   2  -3 -12     576     115   1
   4   3  -9     295      72   1
   3  10   2    2284     165   1
   7   8   5    1398     145   1
   3  -9  -1      10      63   1
   1   7  -6      92      61   1
   0   7  -6      98      63   1
   0   6  12     707      93   1
   8   4   8       9      75   1
   6   8   8     195      50   1
   3   1  12    1122     137   1
   7  -3   6      64      54   1
   4  -2  10     234      75   1
   5  -2 -10     195      59   1
   1   0  12    1962     125   1
   8   2   8     640      99   1
   9  -2   0     475      91   1
   4   7  11     353      79   1
   7  -1   8       1     359   1
   2  -2 -12    1918     142   1
   8  -4  -3    1722     161   1
   2  10   7    1421     138   1
   1 -10  -4    2862     251   1
   9   5   3      67      55   1
   0   0  12     615      81   1
   1  10   7     268      73   1
   4   9  -1      15      92   1
   0   2 -11    1324      96   1
   5   6  11      12      51   1
   6   2  -8      94      57   1
   2  10   1      30      82   1
   7   6  -3      29      61   1
   7   8   2    2948     198   1
   9   0  -3     610      97   1
   6  -7  -2     453      93   1
   1 -10  -3    1713     143   1
   9   5   2      44      57   1
   2   3 -10    2530     194   1
   9  -2   1    1705     169   1
   9   1  -3    2926     198   1
   2  -9   1     380      77   1
   1  -2  11    3169     148   1
   9  -2  -1     125      99   1
   3   6  12       7      69   1
   5  -1 -10    4583     233   1
   6   9   4      20      62   1
   6   7  -3    2218     133   1
   8   7   3     148      64   1
   6  -7  -3    1274     146   1
   2  -6   7     424      95   1
   8   7   4     492      92   1
   5   2  -9     102      54   1
   6  -2  -9     357      75   1
   4   7  -5    2724     191   1
   4  10   4       7      82   1
   6  -1  -9     323      72   1
   1 -10  -5      90      76   1
   5  -3 -10      12      63   1
   6   8  -1     942     120   1
   4   5  12    3135     321   1
   9   3  -2     750     155   1
   9   5   4     349      82   1
   6  -7  -1    1857     167   1
   3   8  -4    4186     249   1
   6   9   5    1142     132   1
   6   9   3     635      99   1
   7   7   8      12      47   1
   5  -7  -7      20      45   1
   4  10   5      25      57   1
   8  -3   4     342      90   1
   0  10   1     408     125   1
   3   5  -8    2162     180   1
   3  -9  -6    2703     190   1
   4   2  12     163      64   1
   7   6   9     783      86   1
   1  -9   2    1936     263   1
   4  -7   4     219      69   1
   2   0  12    3660     333   1
   2   7  -6     243      77   1
   8   6   7      92      84   1
   4  -8  -7     289      56   1
   1  -7   6     515     104   1
   5   9   0      32      55   1
   5  -8  -3      17      61   1
   8   6  -1      67      55   1
   8  -3  -5    1135     124   1
   9   3   6    1169     133   1
   3   9  -2       7      73   1
   7   8   6      13      56   1
   4  -2 -11     552      92   1
   4  10   3       6      77   1
   8   7   2     547      97   1
   6  -6   3     605     102   1
   9   4  -1    1102     129   1
   3  10   7    2061     166   1
   3  -7   5    2830     161   1
   5  -8  -2     313      78   1
   1   2 -11      34      59   1
   6  -5   5     278      63   1
   9   5   1      32      55   1
   9  -1  -3     306      74   1
   1 -10  -2     338      73   1
   9   2   6      79      67   1
   2   8  11      62      47   1
   8   7   5      53      54   1
   7  -6  -2      96      62   1
   8  -4   2      20      62   1
   4  -3 -11    3564     205   1
   1   8  11      94      52   1
   3  -8   3      60      53   1
   8  -1  -6    5055     259   1
   8   0  -6      60      53   1
   0  10   7      27      50   1
   9  -2   2      16      76   1
   6  -7  -4    1632     157   1
   3   6  -7     231      75   1
   6   0  10      53      56   1
   7  -5   3     364      88   1
   3  -4   9     985      83   1
   9  -2  -2    2600     304   1
   4   9   9      96      57   1
   2  -1 -12    3135     309   1
   7  -6  -1       1     398   1
   1   0 -12      86      90   1
   3   4  -9     240      76   1
   9   0   5       2     143   1
   8   5   8    1482     141   1
   5   9   8     571      73   1
   7   2  -7     262      72   1
   9   2  -3      94      54   1
   2  -9  -8    2520     163   1
   5  -8  -4      64      57   1
   6  -3  -9    3745     210   1
   3  10   1      50      72   1
   2  -2  11    1892     114   1
   8   1   8     228     106   1
   6   0  -9      16      52   1
   9  -1   4    1451     221   1
   4  10   6     166     115   1
   3  -7 -10     323      68   1
   3  -9   0     246      70   1
   7   8   1     134      64   1
   7  -4   5    1705     169   1
   1  -9  -9    1108     116   1
   6   4  11     858     114   1
   1 -10  -6    2883     185   1
   6   9   2      10      72   1
   6   9   6    2570     185   1
   6   3  11      25      57   1
   7  -6  -3    1176     141   1
   5   0 -10      20      52   1
   4  -1 -11      27      52   1
   7   0   9       7      86   1
   6  -7   0      47      58   1
   8   4  -4      54      41   1
   5  -8  -1    1459     148   1
   8  -4  -4      22     110   1
   9   4   6       2     266   1
   9   5   5     702     104   1
   3  -5   8     331      56   1
   6  -5  -8    1211     135   1
   7   3  10      10      68   1
   1  -6 -12    2401     159   1
   7   4  10    1406     146   1
   4  -6   6      75      32   1
   2  -8   4       1     649   1
   3  -3  10    1428      99   1
   4  -7  -9     132      47   1
   6   5  -6     462      71   1
   4  10   2    1521     143   1
   2   9  10    1183     127   1
   3   1 -11    3260     327   1
   7  -4  -7     858     114   1
   7  -6   0       1     297   1
   3   8  11     400      79   1
   5  -4 -10    1176     126   1
   2  -5 -12     327      68   1
   1  10   0    1738     232   1
   8   7   1     484      92   1
   8  -2  -6     121      58   1
   1   9  10    2256     164   1
   8   1  -6     313      78   1
   9   1   6     342      82   1
   4  -6 -10    2621     134   1
   8   5  -3    1849     158   1
   5  -6   5     906     124   1
   0   8  11      57      48   1
   2  10   8    1874     159   1
   7  -1  -8    2883     185   1
   4  -1  11    1505     151   1
   6  -6  -7      10      45   1
   1   7  12    1747     153   1
   7  -5  -6      96      57   1
   4  -8   2    1376     144   1
   2   7  12     334      77   1
   5   5  -7    6021     474   1
   6   4  -7     179      51   1
   4  -4 -11    1288     132   1
   1   4  13    1989     145   1
   8   3  -5      16      60   1
   1  10   8    2862     184   1
   5  -7   3      70      54   1
   2  10   0    1162     176   1
   9   5   0    1772     163   1
   1 -10  -1     542      92   1
   8   7   6     954     121   1
   4   6  12      82      56   1
   3  -8  -9     501      83   1
   6   5  11     213      72   1
   5   0  11       5      88   1
   7  -2  -8       4     220   1
   2  -8 -10     912     105   1
   2  -7 -11      65      48   1
   5   8  10     795     110   1
   6   2  11      96      60   1
   7   7  -2     174      69   1
   1   9  -3     338      81   1
   7   2  10     262      76   1
   6   7  10      70      59   1
   2   4  13      28      84   1
   3  -6 -11      12      58   1
   4   1  12    1689     168   1
   7   8   7      26      56   1
   6  -7  -5       4     151   1
   2   3  13     219     101   1
   3   0  12    1831     166   1
   8  -2   6    1075     128   1
   6   6  -5       7      73   1
   7  -6  -4    1149     132   1
   8  -1   7     432      91   1
   3  -9  -7    1814     147   1
   9  -2   3      67      86   1
   0  10   0      15     119   1
   5   8  -3     723     105   1
   5   6  -6      72      55   1
   5   4  -8     153      47   1
   9  -2  -3      36      58   1
   3   7  -6     171      68   1
   7   0  -8       5      77   1
   7   5  10       4     109   1
   2   2 -11     171      68   1
   9   0  -4     600     102   1
   6  -3   8     268      80   1
   1   8  -5     174      72   1
   3   9  10     112      59   1
   4  10   7     345      78   1
   2  -7   6     888     129   1
   6   8   9      15      48   1
   3   3 -10    4774     266   1
   2 -10  -4    2381     178   1
   0   4  13    2450     160   1
   0   9  -3    1697     168   1
   5  -8   0      13      63   1
   5   4  12     349      87   1
   0   8  -5    1295     147   1
   4  -9  -3      12      68   1
   3  10   8    1108     130   1
   5   7  11     136      50   1
   2 -10  -3     538      91   1
   6   9   1      21      63   1
   6   9   7      12      69   1
   5  -3   9    1413     154   1
   5  -6  -9     190      49   1
   0   5  -9      10      81   1
   9   1  -4      94      57   1
   0   7  12    1075     114   1
   2   9  -3      20      66   1
   7   5  -5    5198     233   1
   8  -4   3     134      67   1
   5   3  12     436      92   1
   3   7  12       1     297   1
   0   9  10    2703     179   1
   3  -3 -12      64      48   1
   3  -6   7      15      75   1
   2  -9   2    3192     336   1
   1 -10  -7     292      72   1
   5  -4   8      88      48   1
   4  -9  -4    2180     171   1
   6  -4  -9     835     113   1
   6  -2   9     171      97   1
   7   4  -6     174      50   1
   9   4  -2     123      61   1
   1   5  13     265      69   1
   4   0 -11      16      94   1
   6  -7   1     453      93   1
   9   3  -3     106      95   1
   6   1  -9    3906     215   1
   7  -6   1     289      83   1
   4   8  -4     930     119   1
   2   0 -12      98      97   1
   3  -2 -12     404      79   1
   9  -1  -4    2323     176   1
   9  -3   0     882     129   1
   1  -1  12     282      63   1
   9   5   6      34      53   1
   4   9  -2     349     116   1
   4  -9  -2     360      80   1
   0  10   8     882     110   1
   0   1 -12     778      80   1
   2 -10  -5     168      87   1
   9  -3  -1      16      71   1
   7   8   0    1413     146   1
   9   6   3    2500     193   1
   6  -4   7     129      54   1
   2   5  13    1797     155   1
   1   5  -9      28      64   1
   5  10   4    1560     195   1
   3  -2  11    1624     233   1
   8   3   9     484      92   1
   0   4 -10     841     132   1
   8  -5  -1    1436     155   1
   5   9  -1     176      66   1
   8   6   8      50      41   1
   2   2  13    1705     230   1
   3  10   0    1436     195   1
   4  10   1     718     105   1
   6   8  -2     470      90   1
   2   8  -5     216      76   1
   5  10   5      68      56   1
   8   6  -2      15      67   1
   9   3   7     420      90   1
   6   3  -8    3564     218   1
   8  -3   5     168     103   1
   9   6   4      50      91   1
   8  -5  -2      19      67   1
   8   4   9     610     102   1
   1  -5   9      59      63   1
   4  -8  -8     635      77   1
   3  -9   1     812     111   1
   0   6  -8      92      66   1
   2 -10  -2    1102     122   1
   7  -3  -8     207      68   1
   8   0   8    1183     141   1
   5   5  12     954     121   1
   9   6   2     635     110   1
   7   7   9     696      81   1
   5  -7  -8     139      48   1
   5   1 -10     625      98   1
   8   7   0      90      61   1
   3   4  13     158      97   1
   8  -4  -5    2672     189   1
   9  -3   1      32      69   1
   4   8  11    1281     147   1
   9  -1   5     171      68   1
   8  -3  -6      44      51   1
   4   5  -8    1142     139   1
   8   2  -6     148      61   1
   1   6  -8     906     137   1
   5  10   3     153      65   1
   8  -5   0    1406     161   1
   1  -4  10    2284     125   1
   3  -4 -12    1190     163   1
   3   3  13     515      99   1
   9   2   7      72      60   1
   0   5  13      10     103   1
   4  -9  -5     364      84   1
   5  -2  10      16      65   1
   7   6  -4      30      43   1
   5   9   9     204      71   1
   1   4 -10     635     115   1
   7  -2   8      16      63   1
   9  -3  -2     353     139   1
   9   0   6     114      65   1
  10   2   1     166      96   1
   7  -5   4      36      56   1
   6  -6   4     610     108   1
   1  -8 -11     299      73   1
   1  -8   5    1376     160   1
   9   4   7      30      58   1
   5  -8  -6     533      96   1
   7  -3   7      22      62   1
   6   6  11     528      95   1
   5   2  12      24      60   1
   1  -3 -13     756     137   1
   8   7   7     948     120   1
   7   1  -8    1183     134   1
   9   5  -1    1088     136   1
   8   2   9     696     109   1
   4  -5 -11     114      57   1
   2  -1  12      32      50   1
   5   7  -5    3306     210   1
   5   3  -9      72      57   1
   7   1  10      64      54   1
   5  10   6      16      90   1
   4  -9  -1     127      62   1
   1  -9   3     289      79   1
   7  -6  -5     580     100   1
   5  -5   7      24      35   1
   1 -10   0     179     106   1
   1   1 -12    1505     159   1
   9   2  -4       7      82   1
   5  -5 -10    2703     190   1
   3  -1 -12    3708     209   1
   6   1  11    1011     131   1
   8  -5  -3     404      88   1
   7   3  -7     445      88   1
   6   7  -4    2840     184   1
   1  -6   8     118      71   1
   2 -10  -6     552     128   1
   2  -9  -9    1971     153   1
   2  -6 -12    2672     167   1
   9   6   5     960     127   1
  10   2   3    1466     222   1
   1  -4 -13    2410     220   1
  10   1   0     256     101   1
   6  -7  -6     338      81   1
   3   5  13     800     160   1
   4  -4   9     380      52   1
   4   9  10     163      64   1
   3   9  -3     116      62   1
   4   4  -9      21      63   1
   6  -1  10    1260     146   1
   7   6  10      86      57   1
  10   3   2       7      92   1
   1  10  -1      38      55   1
   9   6   1     524     100   1
   1   1  13     198      60   1
  10   2   0    1082     177   1
   8   5   9      72      57   1
   9  -2   4      92      92   1
   4  10   8      77      57   1
   2   5  -9     835     125   1
   2  10   9      12     100   1
   9  -2  -4     723     105   1
   5  -8   1    1874     168   1
   7   8   8     146      66   1
   4  -7   5    1361     143   1
   3  -8   4      29     117   1
   7  -1   9      53      56   1
   0   3 -11    1332     157   1
   8  -5   1     225      77   1
   9  -3   2     894     129   1
  10   3   1    1218     136   1
   1  10   9     246      70   1
   1  -7 -12     462      85   1
   2  10  -1     561      98   1
   5  10   2     912     118   1
   2 -10  -1     655     100   1
   4  -3  10    1030     125   1
   3   2  13    1239     152   1
   4   7  12     153      68   1
   2   6  -8     182      73   1
   6  -5   6     156      54   1
   6   9   0     331      84   1
   1   6  13    1267     131   1
   6   9   8    1528     152   1
   1  -9 -10     800     105   1
   7  -6   2    1069     134   1
   4  -5   8     918      74   1
   2   6  13    1176     126   1
   8  -1  -7     625     104   1
   1  -3  11     176      48   1
   3  -9  -8     645      94   1
   2  -5   9     125      43   1
   7  -5  -7     259      75   1
   4  -8   3      79      62   1
   9   1   7     380      86   1
   0  10  -1      25     102   1
   3   8  -5     372      89   1
   2  -4  10    2342     127   1
   7  -4   6    1088     108   1
   9  -3  -3       7     158   1
   4   0  12     457      99   1
   7   9   4     163      67   1
   0   7  -7       6      99   1
   5   6  12     772     115   1
   1 -10  -8     412      85   1
   2   1  13      53      95   1
   6  -7   2      28      58   1
   1   7  -7     275      85   1
   4  -9  -6    1310     141   1
   8   8   4    1664     158   1
   8   0  -7      70      52   1
   3   2 -11      15     128   1
   6  -6  -8    1600     113   1
   2   4 -10      40      61   1
   3  10   9     436      87   1
  10   1  -1     600     139   1
   4   7  -6    2218     192   1
   9   5   7    1115     194   1
   8   8   3       4     118   1
  10   2   4      51      89   1
   7   9   5     436      92   1
   8   4  -5     320      79   1
   1   3 -11    1413     162   1
   7   9   3      10      79   1
   3  -7   6     888     129   1
   5  -7   4     756     114   1
   1  -5 -13     144      57   1
   8  -4   4      30      61   1
   8   5  -4      36      54   1
   8  -5  -4      10      81   1
   4   1 -11    4872     413   1
   4  10   0     998     171   1
  10   3   4      42      87   1
   8   1   9     268      76   1
   7  -4  -8     670     107   1
   8   8   5     670     113   1
   4  -9   0      10      68   1
  10   3   0     302     125   1
   7   8  -1     665     112   1
   2  11   5     566     151   1
   8  -2  -7     158      63   1
   9   0  -5      10     133   1
   6  -5  -9      28      54   1
   9   6   6     841     120   1
   2   8  12      16      58   1
   7   7  -3    2162     180   1
   1  11   5     179      82   1
   5  -1  11    1608     164   1
   0   6  13     992     109   1
   6  -2 -10       1     323   1
   6   2  -9     686     103   1
   5  -2 -11       9      77   1
  10   2  -1     331     118   1
   4   4  13     144      66   1
   1   8  12     187      65   1
   9   4  -3       1    1189   1
   8   7  -1    1183     141   1
   0  10   9     707     104   1
   2 -10  -7     686      97   1
   3  -1  12     323     125   1
   5   1  12    1324     149   1
   4  -7 -10      54      49   1
   2  -6   8     466      99   1
   1   9  11     342      78   1
  10   4   2     174      72   1
   2  -8   5     800     123   1
   3   6  13     129      60   1
   9  -1  -5      42      55   1
   6  -1 -10    3214     207   1
   9   6   0    1376     168   1
   3  -7 -11      12      95   1
   2   1 -12     457     152   1
  10   4   3     342      86   1
   1  -7   7       4     129   1
   3  10  -1    2714     266   1
   3   0 -12      21     120   1
   4   3  13    1544     161   1
  10   1   4     292     123   1
   3  -8 -10     812     105   1
   6   8  10     882      97   1
   5  -3 -11    3931     228   1
   8   8   2     992     130   1
   2   7  -7    1892     288   1
   2  -3  11      79      41   1
   7   9   6     240      76   1
   5  -8  -7     635     104   1
   9   1  -5    2391     189   1
   4  -2  11     484     136   1
   9   3  -4    2766     203   1
   5  -6   6      84      34   1
   3  -9   2    1062     134   1
   2  11   6    1183     134   1
   8  -2   7     449     131   1
   7  -6  -6    2143     179   1
   8  -5   2    1413     242   1
   8  -4  -6     655     139   1
   8   1  -7    2097     254   1
   7   2  -8     102      80   1
   8   3  -6    1689     220   1
   2  -9   3      20     136   1
   5  -1 -11    1616     147   1
   3 -10  -4    1789     164   1
   8   7   8     249     107   1
   2  -3 -13    2043     203   1
   9  -3   3    1892     251   1
   5   8  11    1772     154   1
   5  10   1    3069     283   1
   1  11   6     420      85   1
   6  -3 -10     930     185   1
   4   5  13       1     755   1
   3 -10  -3      16      64   1
   9   5  -2     475     125   1
   1   9  -4      25      63   1
   3  11   5    2520     299   1
  10   4   1    1466     149   1
   8   6   9      88      85   1
   3   9  11     182      67   1
   3   8  12     278     109   1
   4  -6   7       5      66   1
   6   7  11      20      53   1
   0  11   4    1156     168   1
   1 -10   1      22     112   1
   5   8  -4      57      88   1
   8   8   6      30      95   1
   5   2 -10      56      76   1
   2 -10   0      28      56   1
   8  -1   8     168     103   1
   9   3   8      88      62   1
  10   4   4    2256     263   1
   9  -1   6     590     106   1
   3   1  13     282      82   1
   2  -8 -11    2756     246   1
   3   5  -9    4044     337   1
   2  -4 -13    1310     179   1
   4   9  -3      65      93   1
   0   9  -4      15      69   1
   4  -8  -9    3014     178   1
   6  -7  -7     129      66   1
   6   4  12      13     120   1
   6   0  11     156      99   1
   3   6  -8     222     105   1
   3 -10  -5     193      72   1
   6   8  -3      26     130   1
   9   4   8      12     141   1
  10   1  -2     600     145   1
   6   5  -7    2819     183   1
   5  -8   2     739     148   1
  10   3   5     440     144   1
   4  10   9     992     156   1
  10   2   5     436     139   1
   2   3 -11     479     140   1
   2   9  -4     158     113   1
   5   9  10      84      64   1
   3 -10  -2    2070     176   1
   3  11   6     691     172   1
  10   3  -1     357     126   1
   6  10   4    1169     177   1
   1   0  13    1738     127   1
   9  -4  -1    1135     153   1
   4  -9  -7    1918     299   1
  10  -1  -1     470     154   1
   9   0   7     193     106   1
   7   7  10     967      95   1
   0   2 -12    1122     145   1
   8  -3  -7    2079     224   1
  10   0  -2     265      76   1
   4  -3 -12     388     127   1
   4   2  13     466      99   1
   9  -2  -5     323     108   1
   4  -2 -12      12      76   1
   5  -7  -9     108      48   1
   9   2   8     462      94   1
   9  -4   0    1332     165   1
   7  -5   5       1     495   1
   1  -2  12    1536     111   1
   5  -4 -11      86      87   1
   6   6  -6      42      44   1
   9   7   4      70     103   1
   5  -6 -10    2391     281   1
   3  -4  10     750     191   1
   7   8   9     252      60   1
   3  -5   9     510     165   1
   2  11   7      23      63   1
   0  11   6      12     106   1
   6   9  -1     176     118   1
   9  -4  -2     158      97   1
   6   9   9     412      80   1
   6  -6   5     992     184   1
   1  -6 -13      30      50   1
   2  -7 -12      22      79   1
   7   5  -6      32      43   1
   2   7  13     457     122   1
  10   2  -2      60      92   1
  10   4   0       2     179   1
   1  10  -2    1413     146   1
   1   7  13      33      91   1
   6   4  -8     800     147   1
   9   6   7      68      97   1
   9   2  -5     265     106   1
  10   0   4     470     149   1
   5   7  12     475     134   1
   1  11   7      13      94   1
   3   4 -10      65      88   1
   4   8  -5      57      98   1
   4  -9   1     412     121   1
   5   5  -8       5     163   1
   6  10   6      62      83   1
   5   0 -11      32      84   1
  10   4   5       6     203   1
   9   7   5      29     117   1
   5   6  -7     163      70   1
   6  -3   9    1049     203   1
   6  -4 -10    1122     210   1
  10   1   5     864     127   1
   2  10  -2    1211     143   1
   1   2 -12     595     112   1
   4  -4 -12     979     183   1
   1  -9   4     384     126   1
   9   6  -1     240      98   1
   7   6  -5     144      60   1
   4  -1 -12    3192     206   1
   9   5   8     650     144   1
   0  10  -2     630     165   1
   6  -4   8     282      78   1
  10   5   3      67      60   1
   2  -1 -13      37     102   1
  10  -1  -2     357     131   1
   3 -10  -1     696     103   1
   4   8  12     104      91   1
  10  -1   3     538     148   1
  10   5   2     686     114   1
   3   7  13    1474     206   1
   1 -11  -4     231      96   1
   5  -4   9      16     150   1
   7  -5  -8    2520     246   1
   3   9  -4    1466     238   1
   5   4  -9     156      90   1
  10   5   4      82     104   1
   7  -3   8     320     124   1
   4  -8   4     216      97   1
   6   7  -5     655     151   1
   4  -1  12     132     104   1
   5   0  12      22     134   1
   0  11   7      60     105   1
   5  -3  10     457     142   1
   1 -11  -3      57      74   1
   4  11   3    1406     217   1
   1   4  14     519     130   1
   5  -8  -8     299      84   1
  10  -2   0    1391     240   1
   6  10   7       5     147   1
   9   7   6     334     127   1
   5   7  -6    1944     264   1
   7  -6  -7     475     120   1
  10   1  -3    1874     168   1
  10   5   1      56      85   1
  10   0  -3      10      73   1
   4  -7   6      37     109   1
   2   4  14    1443     212   1
   4   1  13     222     112   1
   2  11   8       6     125   1
  10   2   6     210      78   1
   9  -3  -5    1568     204   1
   5  -5   8    1149     197   1
   8   7   9     600     139   1
   5  -5 -11      77      94   1
   5  -7   5    1253     198   1
   5   5  13     327     130   1
   7  -4   7       4     338   1
   9   5  -3    2905     275   1
   2   3  14      27     109   1
   3   3 -11      26      99   1
   8  -4  -7     219     101   1
  10   5   5      44     116   1
   8   5  -5    1962     227   1
   5  10   9     888     155   1
   3  11   8     576     126   1
   3  11   1      79      77   1
  10  -1  -3      73      95   1
   3  -2 -13      36     108   1
   3 -10   0     519     125   1
   5  -2  11       1    1121   1
   9  -1   7     488     141   1
   4   7  13     882     180   1
  10   1   6      59     112   1
   2   0 -13      32     123   1
  10   5   0     424     127   1
   0   1 -13     812      93   1
   4   4 -10     368     124   1
   4   9  -4    2470     296   1
   2   6  14      62      93   1
   1 -11  -1    1361     214   1
   0   0   0       0       0   1
;
_shelx_hkl_checksum              34312
loop_
_space_group_symop_operation_xyz
'x, y, z'
'-x, -y, -z'
loop_
_atom_site_label
_atom_site_type_symbol
_atom_site_fract_x
_atom_site_fract_y
_atom_site_fract_z
_atom_site_U_iso_or_equiv
_atom_site_adp_type
_atom_site_occupancy
_atom_site_site_symmetry_order
_atom_site_calc_flag
_atom_site_refinement_flags_posn
_atom_site_refinement_flags_adp
_atom_site_refinement_flags_occupancy
_atom_site_disorder_assembly
_atom_site_disorder_group
Cs1 Cs 0.12540(4) 0.66488(4) 0.64501(3) 0.02432(10) Uani 1 1 d . . . . .
Cs2 Cs -0.01460(4) 0.88880(4) 0.25895(3) 0.02893(10) Uani 1 1 d . . . . .
O1 O 0.3371(5) 0.6672(4) 0.3842(4) 0.0335(9) Uani 1 1 d . . . . .
O2 O 0.5157(5) 0.5430(4) 0.2506(4) 0.0300(8) Uani 1 1 d . . . . .
O3 O 0.2009(5) 0.3707(4) 0.5033(4) 0.0320(9) Uani 1 1 d . . . . .
O4 O 0.2064(4) 0.0483(4) 0.4676(4) 0.0299(8) Uani 1 1 d . . . . .
O5 O 0.2215(5) 0.8764(4) 0.0160(4) 0.0376(10) Uani 1 1 d . . . . .
O6 O 0.3279(5) 0.7739(4) -0.1546(3) 0.0290(8) Uani 1 1 d . . . . .
O7 O 0.1045(5) 0.5733(4) 0.1524(3) 0.0276(8) Uani 1 1 d . . . . .
O8 O 0.1162(4) 0.2448(4) 0.1285(3) 0.0272(8) Uani 1 1 d . . . . .
N1 N 0.3799(5) 0.2563(4) 0.3578(4) 0.0207(8) Uani 1 1 d . . . . .
H1 H 0.462479 0.280019 0.295281 0.025 Uiso 1 1 calc R U . . .
N2 N 0.4360(5) -0.0015(5) 0.3266(4) 0.0281(10) Uani 1 1 d . . . . .
H2A H 0.417108 -0.103140 0.339059 0.034 Uiso 1 1 calc R U . . .
H2B H 0.522155 0.038452 0.273279 0.034 Uiso 1 1 calc R U . . .
N3 N 0.2659(5) 0.4647(5) -0.0078(4) 0.0205(8) Uani 1 1 d . . . . .
H3 H 0.341113 0.490976 -0.075875 0.025 Uiso 1 1 calc R U . . .
N4 N 0.3121(6) 0.2073(5) -0.0400(5) 0.0320(11) Uani 1 1 d . . . . .
H4A H 0.295801 0.104117 -0.024059 0.038 Uiso 1 1 calc R U . . .
H4B H 0.385830 0.252203 -0.104395 0.038 Uiso 1 1 calc R U . . .
C1 C 0.3965(6) 0.5473(6) 0.3415(5) 0.0195(9) Uani 1 1 d . . . . .
C2 C 0.3144(6) 0.3813(6) 0.4113(5) 0.0197(9) Uani 1 1 d . . . . .
C3 C 0.3322(6) 0.0938(6) 0.3898(5) 0.0208(10) Uani 1 1 d . . . . .
C4 C 0.2571(6) 0.7638(6) -0.0377(5) 0.0202(9) Uani 1 1 d . . . . .
C5 C 0.1988(6) 0.5886(6) 0.0485(4) 0.0181(9) Uani 1 1 d . . . . .
C6 C 0.2236(6) 0.2971(6) 0.0349(5) 0.0204(10) Uani 1 1 d . . . . .
loop_
_atom_site_aniso_label
_atom_site_aniso_U_11
_atom_site_aniso_U_22
_atom_site_aniso_U_33
_atom_site_aniso_U_23
_atom_site_aniso_U_13
_atom_site_aniso_U_12
Cs1 0.02448(17) 0.02891(18) 0.01917(16) -0.00851(12) 0.00797(12) -0.00686(13)
Cs2 0.0368(2) 0.02345(18) 0.02144(17) -0.00401(13) 0.01138(13) -0.00472(14)
O1 0.043(2) 0.0220(18) 0.036(2) -0.0138(16) 0.0204(17) -0.0110(16)
O2 0.032(2) 0.0248(19) 0.0316(19) -0.0103(15) 0.0199(16) -0.0104(15)
O3 0.038(2) 0.0271(19) 0.0315(19) -0.0133(16) 0.0226(17) -0.0162(16)
O4 0.031(2) 0.0236(19) 0.035(2) -0.0093(16) 0.0164(16) -0.0142(15)
O5 0.056(3) 0.0236(19) 0.036(2) -0.0172(17) 0.0258(19) -0.0186(18)
O6 0.037(2) 0.0238(18) 0.0239(18) -0.0068(14) 0.0164(15) -0.0133(16)
O7 0.036(2) 0.0229(18) 0.0208(17) -0.0062(14) 0.0140(15) -0.0087(15)
O8 0.034(2) 0.0224(18) 0.0233(17) -0.0068(14) 0.0166(15) -0.0131(15)
N1 0.021(2) 0.0160(19) 0.024(2) -0.0068(16) 0.0142(16) -0.0092(15)
N2 0.029(2) 0.017(2) 0.037(2) -0.0096(18) 0.0168(19) -0.0092(17)
N3 0.025(2) 0.0153(19) 0.0190(19) -0.0034(15) 0.0083(16) -0.0076(16)
N4 0.042(3) 0.017(2) 0.038(2) -0.0139(18) 0.023(2) -0.0144(19)
C1 0.021(2) 0.017(2) 0.019(2) -0.0054(17) 0.0057(18) -0.0047(18)
C2 0.019(2) 0.020(2) 0.020(2) -0.0060(18) 0.0059(18) -0.0055(18)
C3 0.022(2) 0.019(2) 0.020(2) -0.0048(18) 0.0046(19) -0.0075(19)
C4 0.020(2) 0.020(2) 0.019(2) -0.0052(18) 0.0065(18) -0.0074(19)
C5 0.018(2) 0.020(2) 0.016(2) -0.0050(17) 0.0035(17) -0.0063(18)
C6 0.022(2) 0.017(2) 0.021(2) -0.0028(18) 0.0023(19) -0.0064(18)
loop_
_atom_type_symbol
_atom_type_description
_atom_type_scat_dispersion_real
_atom_type_scat_dispersion_imag
_atom_type_scat_source
Cs Cs -0.3680 2.1192 'International Tables Vol C Tables 4.2.6.8 and 6.1.1.4'
O O 0.0106 0.0060 'International Tables Vol C Tables 4.2.6.8 and 6.1.1.4'
N N 0.0061 0.0033 'International Tables Vol C Tables 4.2.6.8 and 6.1.1.4'
C C 0.0033 0.0016 'International Tables Vol C Tables 4.2.6.8 and 6.1.1.4'
H H 0.0000 0.0000 'International Tables Vol C Tables 4.2.6.8 and 6.1.1.4'
loop_
_geom_angle_atom_site_label_1
_geom_angle_atom_site_label_2
_geom_angle_atom_site_label_3
_geom_angle
_geom_angle_site_symmetry_1
_geom_angle_site_symmetry_3
_geom_angle_publ_flag
O1 Cs1 O7 135.47(9) . 2_566 ?
O1 Cs1 O8 165.67(9) . 2_566 ?
O7 Cs1 O8 55.73(9) 2_566 2_566 ?
O1 Cs1 O2 77.05(10) . 2_666 ?
O7 Cs1 O2 96.42(9) 2_566 2_666 ?
O8 Cs1 O2 113.11(9) 2_566 2_666 ?
O1 Cs1 O6 112.38(10) . 1_556 ?
O7 Cs1 O6 101.00(9) 2_566 1_556 ?
O8 Cs1 O6 67.65(9) 2_566 1_556 ?
O2 Cs1 O6 60.00(9) 2_666 1_556 ?
O1 Cs1 O3 86.49(10) . 2_566 ?
O7 Cs1 O3 70.10(9) 2_566 2_566 ?
O8 Cs1 O3 91.10(9) 2_566 2_566 ?
O2 Cs1 O3 139.46(9) 2_666 2_566 ?
O6 Cs1 O3 157.74(9) 1_556 2_566 ?
O1 Cs1 O3 51.80(9) . . ?
O7 Cs1 O3 83.84(8) 2_566 . ?
O8 Cs1 O3 139.03(8) 2_566 . ?
O2 Cs1 O3 74.30(10) 2_666 . ?
O6 Cs1 O3 134.30(10) 1_556 . ?
O3 Cs1 O3 66.51(11) 2_566 . ?
O1 Cs1 O4 69.07(9) . 1_565 ?
O7 Cs1 O4 150.56(9) 2_566 1_565 ?
O8 Cs1 O4 97.65(8) 2_566 1_565 ?
O2 Cs1 O4 106.74(9) 2_666 1_565 ?
O6 Cs1 O4 76.25(9) 1_556 1_565 ?
O3 Cs1 O4 101.24(9) 2_566 1_565 ?
O3 Cs1 O4 119.43(8) . 1_565 ?
O1 Cs1 O4 101.88(9) . 2_566 ?
O7 Cs1 O4 92.82(9) 2_566 2_566 ?
O8 Cs1 O4 65.96(9) 2_566 2_566 ?
O2 Cs1 O4 167.69(9) 2_666 2_566 ?
O6 Cs1 O4 110.22(9) 1_556 2_566 ?
O3 Cs1 O4 51.90(9) 2_566 2_566 ?
O3 Cs1 O4 114.92(10) . 2_566 ?
O5 Cs2 O8 72.36(9) . 1_565 ?
O3 Cs2 O8 150.96(8) 2_566 1_565 ?
O5 Cs2 O7 52.61(9) . . ?
O3 Cs2 O7 83.43(8) 2_566 . ?
O8 Cs2 O7 124.92(8) 1_565 . ?
O5 Cs2 O4 166.87(10) . 2_566 ?
O3 Cs2 O4 53.67(8) 2_566 2_566 ?
O8 Cs2 O4 97.34(8) 1_565 2_566 ?
O7 Cs2 O4 136.49(8) . 2_566 ?
O5 Cs2 O1 75.50(10) . . ?
O3 Cs2 O1 84.71(9) 2_566 . ?
O8 Cs2 O1 100.09(9) 1_565 . ?
O7 Cs2 O1 66.66(9) . . ?
O4 Cs2 O1 98.96(9) 2_566 . ?
O5 Cs2 O5 72.84(12) . 2_575 ?
O3 Cs2 O5 120.73(10) 2_566 2_575 ?
O8 Cs2 O5 67.58(9) 1_565 2_575 ?
O7 Cs2 O5 95.63(9) . 2_575 ?
O4 Cs2 O5 111.34(9) 2_566 2_575 ?
O1 Cs2 O5 148.21(8) . 2_575 ?
O5 Cs2 O6 107.53(10) . 2_575 ?
O3 Cs2 O6 104.19(9) 2_566 2_575 ?
O8 Cs2 O6 63.68(8) 1_565 2_575 ?
O7 Cs2 O6 131.09(9) . 2_575 ?
O4 Cs2 O6 73.70(8) 2_566 2_575 ?
O1 Cs2 O6 160.32(9) . 2_575 ?
O5 Cs2 O6 38.66(8) 2_575 2_575 ?
O5 Cs2 O4 107.78(9) . 1_565 ?
O3 Cs2 O4 96.90(9) 2_566 1_565 ?
O8 Cs2 O4 61.53(8) 1_565 1_565 ?
O7 Cs2 O4 129.16(9) . 1_565 ?
O4 Cs2 O4 59.39(10) 2_566 1_565 ?
O1 Cs2 O4 62.80(9) . 1_565 ?
O5 Cs2 O4 125.33(8) 2_575 1_565 ?
O6 Cs2 O4 98.33(8) 2_575 1_565 ?
C1 O1 Cs1 129.2(3) . . ?
C1 O1 Cs2 116.9(3) . . ?
Cs1 O1 Cs2 80.57(8) . . ?
C1 O2 Cs1 115.8(3) . 2_666 ?
C2 O3 Cs2 142.5(3) . 2_566 ?
C2 O3 Cs1 100.7(3) . 2_566 ?
Cs2 O3 Cs1 79.10(8) 2_566 2_566 ?
C2 O3 Cs1 118.7(3) . . ?
Cs2 O3 Cs1 94.45(9) 2_566 . ?
Cs1 O3 Cs1 113.49(11) 2_566 . ?
C3 O4 Cs2 137.4(3) . 2_566 ?
C3 O4 Cs1 129.1(3) . 1_545 ?
Cs2 O4 Cs1 79.27(7) 2_566 1_545 ?
C3 O4 Cs1 106.4(3) . 2_566 ?
Cs2 O4 Cs1 76.43(7) 2_566 2_566 ?
Cs1 O4 Cs1 117.98(10) 1_545 2_566 ?
C3 O4 Cs2 100.2(3) . 1_545 ?
Cs2 O4 Cs2 120.61(10) 2_566 1_545 ?
Cs1 O4 Cs2 71.63(7) 1_545 1_545 ?
Cs1 O4 Cs2 73.73(8) 2_566 1_545 ?
C4 O5 Cs2 129.8(3) . . ?
C4 O5 Cs2 88.5(3) . 2_575 ?
Cs2 O5 Cs2 107.16(12) . 2_575 ?
C4 O6 Cs1 117.8(3) . 1_554 ?
C4 O6 Cs2 83.7(3) . 2_575 ?
Cs1 O6 Cs2 77.59(8) 1_554 2_575 ?
C5 O7 Cs1 142.5(3) . 2_566 ?
C5 O7 Cs2 119.9(3) . . ?
Cs1 O7 Cs2 96.88(8) 2_566 . ?
C6 O8 Cs1 144.1(3) . 2_566 ?
C6 O8 Cs2 132.0(3) . 1_545 ?
Cs1 O8 Cs2 83.73(7) 2_566 1_545 ?
C2 N1 C3 129.2(4) . . ?
C5 N3 C6 126.5(4) . . ?
O1 C1 O2 128.1(4) . . ?
O1 C1 C2 115.6(4) . . ?
O2 C1 C2 116.3(4) . . ?
O3 C2 N1 125.3(4) . . ?
O3 C2 C1 121.5(4) . . ?
N1 C2 C1 113.2(4) . . ?
O4 C3 N2 124.8(4) . . ?
O4 C3 N1 122.4(4) . . ?
N2 C3 N1 112.8(4) . . ?
O5 C4 O6 128.2(4) . . ?
O5 C4 C5 115.6(4) . . ?
O6 C4 C5 116.2(4) . . ?
O7 C5 N3 127.0(4) . . ?
O7 C5 C4 121.0(4) . . ?
N3 C5 C4 112.0(4) . . ?
O8 C6 N4 124.9(4) . . ?
O8 C6 N3 123.2(4) . . ?
N4 C6 N3 111.8(4) . . ?
loop_
_geom_bond_atom_site_label_1
_geom_bond_atom_site_label_2
_geom_bond_distance
_geom_bond_site_symmetry_2
_geom_bond_publ_flag
Cs1 O1 3.007(3) . ?
Cs1 O7 3.037(3) 2_566 ?
Cs1 O8 3.068(3) 2_566 ?
Cs1 O2 3.180(4) 2_666 ?
Cs1 O6 3.183(4) 1_556 ?
Cs1 O3 3.228(4) 2_566 ?
Cs1 O3 3.229(3) . ?
Cs1 O4 3.285(3) 1_565 ?
Cs1 O4 3.306(4) 2_566 ?
Cs2 O5 2.975(3) . ?
Cs2 O3 3.112(3) 2_566 ?
Cs2 O8 3.150(3) 1_565 ?
Cs2 O7 3.183(3) . ?
Cs2 O4 3.221(3) 2_566 ?
Cs2 O1 3.232(4) . ?
Cs2 O5 3.334(4) 2_575 ?
Cs2 O6 3.433(4) 2_575 ?
Cs2 O4 3.601(4) 1_565 ?
O1 C1 1.241(5) . ?
O2 C1 1.255(5) . ?
O3 C2 1.219(5) . ?
O4 C3 1.226(5) . ?
O5 C4 1.234(5) . ?
O6 C4 1.258(5) . ?
O7 C5 1.218(5) . ?
O8 C6 1.223(5) . ?
N1 C2 1.356(6) . ?
N1 C3 1.403(5) . ?
N2 C3 1.328(6) . ?
N3 C5 1.369(6) . ?
N3 C6 1.420(6) . ?
N4 C6 1.327(6) . ?
C1 C2 1.556(6) . ?
C4 C5 1.567(6) . ?
