#------------------------------------------------------------------------------
#$Date: 2021-05-05 11:59:38 +0300 (Wed, 05 May 2021) $
#$Revision: 264938 $
#$URL: file:///home/coder/svn-repositories/cod/cif/7/06/04/7060449.cif $
#------------------------------------------------------------------------------
#
# This file is available in the Crystallography Open Database (COD),
# http://www.crystallography.net/
#
# All data on this site have been placed in the public domain by the
# contributors.
#
data_7060449
loop_
_publ_author_name
'Kakati, Praachi'
'Singh, Preeti'
'Yadav, Priyanka'
'Awasthi, Satish Kumar'
_publ_section_title
;
 Aiding the versatility of simple ammonium ionic liquids by the synthesis
 of bioactive 1,2,3,4-tetrahydropyrimidine, 2-aminothiazole and
 quinazolinone derivatives
;
_journal_issue                   15
_journal_name_full               'New Journal of Chemistry'
_journal_page_first              6724
_journal_page_last               6738
_journal_paper_doi               10.1039/D1NJ00280E
_journal_volume                  45
_journal_year                    2021
_chemical_formula_moiety         '4(C14 Cl N2 O3)'
_chemical_formula_sum            'C56 Cl4 N8 O12'
_chemical_formula_weight         1118.48
_space_group_crystal_system      triclinic
_space_group_IT_number           2
_space_group_name_Hall           '-P 1'
_space_group_name_H-M_alt        'P -1'
_symmetry_Int_Tables_number      2
_atom_sites_solution_primary     iterative
_audit_creation_date             2019-10-16
_audit_creation_method
;
Olex2 1.2
(compiled 2018.05.29 svn.r3508 for OlexSys, GUI svn.r5506)
;
_audit_update_record
;
2019-10-16 deposited with the CCDC.	2021-03-10 downloaded from the CCDC.
;
_cell_angle_alpha                90
_cell_angle_beta                 108.876(4)
_cell_angle_gamma                90
_cell_formula_units_Z            1
_cell_length_a                   12.4372(5)
_cell_length_b                   7.2932(2)
_cell_length_c                   16.2417(6)
_cell_measurement_reflns_used    4183
_cell_measurement_temperature    298.8(6)
_cell_measurement_theta_max      27.6000
_cell_measurement_theta_min      3.6090
_cell_volume                     1394.01(9)
_computing_cell_refinement       'CrysAlisPro 1.171.40.61a (Rigaku OD, 2019)'
_computing_data_collection       'CrysAlisPro 1.171.40.61a (Rigaku OD, 2019)'
_computing_data_reduction        'CrysAlisPro 1.171.40.61a (Rigaku OD, 2019)'
_computing_molecular_graphics    'Olex2 (Dolomanov et al., 2009)'
_computing_publication_material  'Olex2 (Dolomanov et al., 2009)'
_computing_structure_refinement  'olex2.refine (Bourhis et al., 2015)'
_computing_structure_solution    'olex2.solve (Bourhis et al., 2015)'
_diffrn_ambient_environment      air
_diffrn_ambient_temperature      298.8(6)
_diffrn_detector                 'CCD plate'
_diffrn_detector_area_resol_mean 15.9853
_diffrn_detector_type            Sapphire3
_diffrn_measured_fraction_theta_full 0.8715
_diffrn_measured_fraction_theta_max 0.8715
_diffrn_measurement_details
;
List of Runs (angles in degrees, time in seconds):

  # Type    Start    End  Width  t~exp~   \w     \q     \k     \f   Frames
#--------------------------------------------------------------------------
  1  \w    -11.00  25.00   1.00    2.00    --  -14.36 -99.00 -30.00   36
  2  \w    -22.00  42.00   1.00    2.00    --  -14.36  57.00  60.00   64
  3  \w      2.00  86.00   1.00    2.00    --   18.43  57.00 120.00   84
  4  \w    -39.00  45.00   1.00    2.00    --   18.43 -77.00 -30.00   84
  5  \w    -19.00  57.00   1.00    2.00    --   18.43 -99.00-120.00   76
  6  \w      6.00  86.00   1.00    2.00    --   18.43  57.00 -60.00   80
  7  \w      3.00  80.00   1.00    2.00    --   18.43  57.00-150.00   77
  8  \w     -7.00  85.00   1.00    2.00    --   18.43  19.00  60.00   92
  9  \w     -3.00  67.00   1.00    2.00    --   18.43-116.00 127.54   70
;
_diffrn_measurement_device       'four-circle diffractometer'
_diffrn_measurement_device_type  'Xcalibur, Sapphire3'
_diffrn_measurement_method       '\w scans'
_diffrn_orient_matrix_type
'CrysAlisPro convention (1999,Acta A55,543-557)'
_diffrn_orient_matrix_UB_11      -0.0541936000
_diffrn_orient_matrix_UB_12      -0.0119236000
_diffrn_orient_matrix_UB_13      -0.0317637000
_diffrn_orient_matrix_UB_21      0.0263502000
_diffrn_orient_matrix_UB_22      -0.0222075000
_diffrn_orient_matrix_UB_23      -0.0314716000
_diffrn_orient_matrix_UB_31      0.0006619000
_diffrn_orient_matrix_UB_32      -0.0939206000
_diffrn_orient_matrix_UB_33      0.0114742000
_diffrn_radiation_monochromator  graphite
_diffrn_radiation_probe          x-ray
_diffrn_radiation_type           'Mo K\a'
_diffrn_radiation_wavelength     0.71073
_diffrn_reflns_av_R_equivalents  0.0810
_diffrn_reflns_av_unetI/netI     0.0717
_diffrn_reflns_limit_h_max       15
_diffrn_reflns_limit_h_min       -16
_diffrn_reflns_limit_k_max       10
_diffrn_reflns_limit_k_min       -9
_diffrn_reflns_limit_l_max       22
_diffrn_reflns_limit_l_min       -22
_diffrn_reflns_number            21213
_diffrn_reflns_theta_full        29.6046
_diffrn_reflns_theta_max         29.60
_diffrn_reflns_theta_min         3.33
_diffrn_source                   'fine-focus sealed X-ray tube'
_diffrn_source_type              'Enhance (Mo) X-ray Source'
_exptl_absorpt_coefficient_mu    0.280
_exptl_absorpt_correction_type   none
_exptl_crystal_density_diffrn    1.3322
_exptl_crystal_F_000             556.8877
_refine_diff_density_max         3.0207
_refine_diff_density_min         -3.0934
_refine_diff_density_rms         0.2096
_refine_ls_d_res_high            0.7193
_refine_ls_d_res_low             6.1225
_refine_ls_goodness_of_fit_ref   2.6068
_refine_ls_hydrogen_treatment    undef
_refine_ls_matrix_type           full
_refine_ls_number_constraints    0
_refine_ls_number_parameters     161
_refine_ls_number_reflns         6822
_refine_ls_number_restraints     0
_refine_ls_restrained_S_all      2.6068
_refine_ls_R_factor_all          0.2272
_refine_ls_R_factor_gt           0.1831
_refine_ls_shift/su_max          0.7017
_refine_ls_shift/su_mean         0.2042
_refine_ls_structure_factor_coef Fsqd
_refine_ls_weighting_details
'w=1/[\s^2^(Fo^2^)+(0.1P)^2^] where P=(Fo^2^+2Fc^2^)/3'
_refine_ls_weighting_scheme      calc
_refine_ls_wR_factor_gt          0.4501
_refine_ls_wR_factor_ref         0.4857
_reflns_Friedel_coverage         0.0
_reflns_limit_h_max              15
_reflns_limit_h_min              -16
_reflns_limit_k_max              10
_reflns_limit_k_min              -9
_reflns_limit_l_max              22
_reflns_limit_l_min              0
_reflns_number_gt                4282
_reflns_number_total             6822
_reflns_threshold_expression     I>=2u(I)
_iucr_refine_instructions_details
;
TITL shelxt_a.res in P-1
REM Old TITL IL-9 in P1 #1
REM SHELXT solution in P-1
REM R1 0.219, Rweak 0.018, Alpha 0.049, Orientation as input
REM Formula found by SHELXT: C28 Cl2 N4 O6
CELL 0.71073 12.4372 7.2932 16.2417 90 108.876 90
ZERR 1 0.0005 0.0002 0.0006 0 0.004 0
LATT 1
SFAC C H Cl N O
UNIT 14 15 1 2 3

L.S. 10
PLAN  20
BOND $H
LIST 6
FMAP 2
ACTA 
WGHT 0.1
FVAR 3.983386
REM <olex2.extras>
REM <HklSrc "%.\\IL-9.hkl">
REM </olex2.extras>

Cl01  3     1.05607 -0.15193  0.60718  11.00000  0.08086 

Cl02  3     0.44348  0.34807  0.89313  11.00000  0.07853 
O003  5     0.77073  0.94815  0.75953  11.00000  0.04114 

O004  5     0.72925  0.44842  0.73985  11.00000  0.04120 

O005  5     0.29968  0.76353  0.51233  11.00000  0.04345 

O006  5     1.20069  0.26326  0.98756  11.00000  0.04315 
O007  5     1.21449  0.55917  1.01730  11.00000  0.05322 

O008  5     0.28544  1.05906  0.48277  11.00000  0.05543 
N009  4     0.61344  0.78571  0.68880  11.00000  0.03305 

N00A  4     0.89049  0.60336  0.81581  11.00000  0.03377 
N00B  4     0.88706  0.28658  0.81190  11.00000  0.03372 

N00C  4     0.60973  1.10360  0.68428  11.00000  0.03645 

C00D  1     0.83171  0.44260  0.78657  11.00000  0.03457 

C00E  1     0.43912  0.75291  0.72801  11.00000  0.03122 
C00F  1     0.48730  0.77860  0.65388  11.00000  0.03226 
C00G  1     0.44463  0.94646  0.59851  11.00000  0.02973 
C00H  1     0.66840  0.94278  0.71376  11.00000  0.03412 

C00I  1     1.05533  0.44896  0.90083  11.00000  0.03052 
C00J  1     1.06069  0.25257  0.77267  11.00000  0.03232 

C00K  1     0.50568  1.10574  0.61828  11.00000  0.03233 

C00L  1     0.99480  0.60493  0.88232  11.00000  0.03328 
C00M  1     1.01263  0.27896  0.84682  11.00000  0.03336 
C00N  1     1.16287  0.43547  0.97348  11.00000  0.03520 

C00O  1     0.33814  0.93544  0.52663  11.00000  0.03521 

C00P  1     1.04143  0.08437  0.72864  11.00000  0.04306 

C00Q  1     0.45859  0.58621  0.77000  11.00000  0.04102 
C00R  1     0.47415  1.28500  0.57532  11.00000  0.04536 

C00S  1     1.02617  0.78566  0.92543  11.00000  0.04740 

C00T  1     0.37735  0.88706  0.75145  11.00000  0.04754 

C00U  1     1.12281  0.38720  0.74843  11.00000  0.04790 
C00V  1     1.08307  0.05829  0.66078  11.00000  0.04787 
C00W  1     1.30699  0.23547  1.05961  11.00000  0.04735 
C00X  1     1.14445  0.19089  0.63567  11.00000  0.05210 

C00Y  1     0.19361  0.73679  0.44090  11.00000  0.04525 
C00Z  1     0.41766  0.55901  0.83854  11.00000  0.04728 
C010  1     0.35518  0.69150  0.86353  11.00000  0.05610 
C011  1     0.33540  0.85455  0.82183  11.00000  0.05000 

C012  1     1.16439  0.35446  0.67797  11.00000  0.04964 

C013  1     0.16572  0.53459  0.44105  11.00000  0.06960 

C014  1     1.33422  0.03378  1.05865  11.00000  0.07422 
HKLF 4

END
Q1 1 1.022222 -0.16 0.6 11 0.05 3.02
Q2 1 0.4 0.36 0.883333 11 0.05 2.56
Q3 1 0.488889 0.36 0.9 11 0.05 2.33
Q4 1 0.711111 0.44 0.75 11 0.05 1.36
Q5 1 0.6 1.08 0.7 11 0.05 1.25
Q6 1 0.311111 1.08 0.466667 11 0.05 1.24
Q7 1 0.777778 0.96 0.75 11 0.05 1.2
Q8 1 1 0.28 0.85 11 0.05 1.19
Q9 1 1.066667 0.04 0.666667 11 0.05 1.14
Q10 1 1.2 0.56 1.033333 11 0.05 1.1
Q11 1 1.355556 0.04 1.033333 11 0.05 1.07
Q12 1 1.066667 0.24 0.783333 11 0.05 1.05
Q13 1 1.022222 0.8 0.933333 11 0.05 1.04
Q14 1 0.911111 0.6 0.8 11 0.05 1.04
Q15 1 0.888889 0.28 0.816667 11 0.05 1.01
Q16 1 0.488889 1.08 0.616667 11 0.05 1.01
Q17 1 0.822222 0.44 0.783333 11 0.05 0.99
Q18 1 0.488889 0.8 0.65 11 0.05 0.98
Q19 1 0.288889 0.76 0.516667 11 0.05 0.98
Q20 1 1.022222 0.08 0.733333 11 0.05 0.98

  REM The information below was added by Olex2.
  REM
  REM R1 = 0.1831 for 4282 Fo > 4sig(Fo) and 0.2272 for all 6822 data
  REM 161 parameters refined using 0 restraints
  REM Highest difference peak 3.0207, deepest hole -3.0934
  REM Mean Shift 0.2042, Max Shift 0.7017.

  REM +++ Tabular Listing of Refinement Information +++
  REM R1_all = 0.2272
  REM R1_gt = 0.1831
  REM wR_ref = 0.4857
  REM GOOF = 2.6068
  REM Shift_max = 0.7017
  REM Shift_mean = 0.2042
  REM Reflections_all = 6822
  REM Reflections_gt = 4282
  REM Parameters = 161
  REM Hole = -3.0934
  REM Peak = 3.0207
  REM Flack = n/a

  
;
_cod_data_source_file            d1nj00280e2.cif
_cod_data_source_block           IL-9
_cod_depositor_comments
'Adding full bibliography for 7060449--7060450.cif.'
_cod_database_code               7060449
_chemical_oxdiff_formula         'C14 H15 Cl N2 O3'
_chemical_oxdiff_usercomment     07-010-2019
_reflns_odcompleteness_completeness 99.68
_reflns_odcompleteness_iscentric 1
_reflns_odcompleteness_theta     26.32
_olex2_refinement_description
;
;
_iucr_refine_fcf_details
;
data_IL-9_CCDC1
_computing_structure_refinement   ''
_shelx_refln_list_code            4
loop_
  _space_group_symop_id
  _space_group_symop_operation_xyz
  1  x,y,z
  2  -x,-y,-z

_space_group_crystal_system       triclinic
_space_group_IT_number            2
_space_group_name_H-M_alt         'P -1'
_space_group_name_Hall            '-P 1'
_symmetry_space_group_name_H-M    'P -1'
_symmetry_space_group_name_Hall   '-P 1'
_symmetry_Int_Tables_number       2
_cell_length_a                    12.4372(5)
_cell_length_b                    7.2932(2)
_cell_length_c                    16.2417(6)
_cell_angle_alpha                 90
_cell_angle_beta                  108.876(4)
_cell_angle_gamma                 90
_cell_volume                      1394.01(9)
loop_
  _refln_index_h
  _refln_index_k
  _refln_index_l
  _refln_F_squared_calc
  _refln_F_squared_meas
  _refln_F_squared_sigma
  _refln_F_squared_weight
  _refln_observed_status
-16 2 1 3.671 20.321 12.671 13.624 o
-16 2 2 37.189 59.444 21.253 4.663 o
-16 2 3 17.456 31.210 15.318 9.182 o
-16 2 4 11.394 21.061 12.753 13.346 o
-16 2 5 1.716 1.855 4.321 117.587 o
-16 2 6 2.590 -7.615 7.583 38.226 o
-16 2 7 4.060 -19.590 11.769 15.868 o
-16 2 8 18.400 15.513 10.628 18.957 o
-16 3 5 2.921 -21.807 13.464 12.128 o
-16 3 6 35.555 24.917 14.360 10.158 o
-16 3 7 0.024 12.034 10.259 20.862 o
-15 -3 7 28.952 22.816 12.427 13.601 o
-15 -3 8 4.082 -0.457 9.427 24.727 o
-15 -2 1 13.264 22.721 14.338 10.558 o
-15 -2 2 2.237 -7.796 8.662 29.297 o
-15 -2 3 6.733 12.064 7.168 42.204 o
-15 -2 4 0.476 2.884 8.494 30.474 o
-15 -2 5 84.269 94.320 19.353 4.871 o
-15 -2 6 0.135 0.966 5.396 75.524 o
-15 -2 7 2.108 6.746 6.007 60.727 o
-15 -2 8 6.145 4.803 4.396 111.917 o
-15 -2 9 28.448 21.806 11.019 17.136 o
-15 -2 10 66.424 45.972 13.994 9.502 o
-15 -1 1 0.599 -1.969 12.996 13.021 o
-15 -1 2 0.668 4.748 12.379 14.346 o
-15 -1 3 3.147 0.035 5.215 80.719 o
-15 -1 4 28.325 33.838 11.801 14.820 o
-15 -1 5 67.288 69.813 16.655 6.789 o
-15 -1 6 87.797 146.842 24.651 3.040 o
-15 -1 7 5.702 13.427 7.557 38.055 o
-15 -1 8 4.099 -1.906 7.300 41.208 o
-15 -1 9 0.861 11.094 5.654 68.391 o
-15 -1 10 0.625 3.999 5.438 74.297 o
-15 -1 11 31.090 18.924 9.295 23.464 o
-15 0 1 1.647 -6.142 12.716 13.599 o
-15 0 2 0.023 7.020 5.779 65.737 o
-15 0 3 0.107 8.971 8.951 27.415 o
-15 0 4 0.019 -2.582 4.988 88.391 o
-15 0 5 54.002 69.433 17.448 6.477 o
-15 0 6 0.006 6.673 18.804 6.218 o
-15 0 7 106.430 81.671 18.306 5.094 o
-15 0 8 0.050 5.986 6.385 53.882 o
-15 0 9 55.687 63.318 15.866 7.697 o
-15 0 10 0.000 5.125 5.714 67.297 o
-15 0 11 35.648 25.747 11.117 16.400 o
-15 1 1 0.332 1.507 3.708 159.853 o
-15 1 2 0.286 2.476 3.708 159.822 o
-15 1 3 4.340 10.283 5.135 82.141 o
-15 1 4 30.348 26.826 7.997 30.337 o
-15 1 5 64.211 69.378 12.906 10.465 o
-15 1 6 82.537 114.312 16.610 6.061 o
-15 1 7 5.758 3.125 9.760 23.026 o
-15 1 8 1.904 16.404 13.701 11.686 o
-15 1 9 0.201 6.991 12.001 15.264 o
-15 1 10 1.234 -5.039 5.431 74.528 o
-15 1 11 29.381 41.131 10.957 16.766 o
-15 1 12 35.374 25.152 10.825 17.256 o
-15 1 13 0.315 -8.316 9.287 25.496 o
-15 2 1 16.333 29.617 8.809 26.848 o
-15 2 2 0.743 -1.861 4.303 118.750 o
-15 2 3 7.673 14.534 6.157 56.523 o
-15 2 4 1.242 9.529 4.443 110.484 o
-15 2 5 75.301 84.737 21.914 4.058 o
-15 2 6 0.138 9.566 5.014 87.103 o
-15 2 7 2.992 7.191 6.031 60.145 o
-15 2 8 3.517 -0.777 4.534 106.666 o
-15 2 9 27.852 58.267 23.191 3.982 o
-15 2 10 76.207 29.132 15.261 8.156 o
-15 2 11 1.850 22.087 12.931 13.094 o
-15 2 12 2.161 15.016 8.149 32.908 o
-15 3 1 32.933 28.172 10.788 17.421 o
-15 3 2 1.588 -9.934 5.242 79.988 o
-15 3 3 2.555 10.742 6.199 56.809 o
-15 3 4 18.621 9.317 6.395 50.780 o
-15 3 5 27.279 17.871 8.463 28.385 o
-15 3 6 1.630 6.290 5.488 72.777 o
-15 3 7 28.591 5.356 6.807 43.374 o
-15 3 10 0.459 8.313 8.054 33.853 o
-15 3 11 139.571 168.916 35.630 1.473 o
-15 3 12 7.503 -6.280 8.023 34.029 o
-15 3 13 40.696 26.552 15.621 8.557 o
-15 4 1 3.422 -5.862 8.332 31.651 o
-15 4 4 16.006 13.975 10.224 20.576 o
-15 4 5 12.520 32.034 15.378 9.158 o
-15 4 6 25.024 29.776 15.134 9.313 o
-15 4 7 7.934 19.306 12.381 14.217 o
-15 4 9 0.446 -15.086 11.050 18.008 o
-15 4 10 53.408 24.680 14.866 9.153 o
-15 4 11 3.248 18.221 10.166 21.141 o
-14 -5 5 16.903 -0.321 5.789 63.211 o
-14 -5 6 8.001 -7.655 9.164 26.099 o
-14 -5 7 0.045 12.036 15.924 8.667 o
-14 -5 8 0.648 7.072 9.352 25.120 o
-14 -4 3 23.610 42.565 18.570 6.215 o
-14 -4 4 39.381 30.970 16.527 7.675 o
-14 -4 5 16.037 4.769 6.508 50.126 o
-14 -4 6 24.312 54.101 12.206 13.681 o
-14 -4 7 44.837 59.887 13.120 11.161 o
-14 -4 8 15.395 17.017 14.413 10.459 o
-14 -4 9 44.459 43.487 13.451 10.971 o
-14 -4 10 12.761 8.975 7.364 39.585 o
-14 -4 11 0.295 1.755 5.383 75.865 o
-14 -3 1 6.931 6.836 8.371 31.173 o
-14 -3 2 5.793 -2.233 15.560 9.078 o
-14 -3 3 21.401 11.656 4.688 86.978 o
-14 -3 4 2.106 4.274 5.245 79.714 o
-14 -3 5 2.513 1.779 4.873 92.415 o
-14 -3 6 27.464 24.446 8.369 28.537 o
-14 -3 7 0.029 -2.378 4.323 117.650 o
-14 -3 8 50.659 43.875 13.631 10.507 o
-14 -3 9 63.582 89.421 15.330 7.656 o
-14 -3 10 8.724 7.354 4.668 97.823 o
-14 -3 11 28.518 52.037 14.423 9.939 o
-14 -3 12 44.350 48.721 15.592 8.325 o
-14 -3 13 1.327 13.954 11.246 17.345 o
-14 -2 1 6.801 13.433 7.830 35.402 o
-14 -2 2 65.982 69.774 17.425 6.302 o
-14 -2 3 4.819 2.991 11.433 16.801 o
-14 -2 4 37.090 50.467 15.066 9.002 o
-14 -2 5 4.500 0.595 3.474 180.705 o
-14 -2 6 36.684 24.233 9.471 21.924 o
-14 -2 7 40.995 46.283 11.269 15.133 o
-14 -2 8 64.888 86.503 14.838 8.077 o
-14 -2 9 1.118 7.788 10.305 20.687 o
-14 -2 10 3.613 14.431 12.114 14.931 o
-14 -2 11 0.983 10.079 6.489 52.021 o
-14 -2 12 8.768 8.026 7.019 43.983 o
-14 -2 13 1.361 16.290 9.851 22.568 o
-14 -2 14 5.541 8.026 9.231 25.684 o
-14 -2 15 0.757 -5.360 7.609 37.980 o
-14 -1 1 15.067 34.522 16.853 7.618 o
-14 -1 2 0.298 -0.210 5.006 87.751 o
-14 -1 3 28.268 36.858 11.967 14.380 o
-14 -1 4 60.983 32.987 11.560 13.711 o
-14 -1 5 64.885 73.089 17.099 6.502 o
-14 -1 6 71.571 91.278 18.945 5.234 o
-14 -1 7 16.066 7.328 10.275 20.493 o
-14 -1 8 17.254 25.582 9.777 22.079 o
-14 -1 9 12.097 20.314 9.429 24.135 o
-14 -1 10 10.061 31.719 11.515 16.218 o
-14 -1 11 0.022 0.612 3.263 206.553 o
-14 -1 12 17.836 19.970 9.198 24.976 o
-14 -1 13 12.950 -0.320 9.566 23.835 o
-14 -1 14 2.424 4.391 5.328 77.216 o
-14 -1 15 4.793 -0.938 5.457 73.582 o
-14 -1 16 0.109 0.581 4.256 121.425 o
-14 0 1 0.011 2.385 5.446 74.119 o
-14 0 2 39.147 58.661 11.214 14.997 o
-14 0 3 0.000 2.192 2.673 307.469 o
-14 0 4 53.937 26.629 7.456 29.031 o
-14 0 5 0.040 -2.439 4.271 120.573 o
-14 0 6 16.579 13.076 5.483 67.769 o
-14 0 7 0.072 13.544 7.617 37.763 o
-14 0 8 98.226 81.193 17.840 5.441 o
-14 0 9 0.000 4.919 5.429 74.539 o
-14 0 10 0.326 15.240 5.901 62.657 o
-14 0 11 0.045 1.802 7.673 37.347 o
-14 0 12 12.624 3.358 10.861 18.498 o
-14 0 13 0.000 6.244 5.542 71.489 o
-14 0 14 18.058 3.582 5.515 68.351 o
-14 0 15 0.017 17.280 10.988 18.163 o
-14 0 16 45.739 41.527 17.907 6.461 o
-14 0 17 0.016 1.801 5.327 77.473 o
-14 1 1 12.977 20.595 6.933 43.569 o
-14 1 2 0.617 -2.758 4.119 129.593 o
-14 1 3 24.672 56.062 11.270 15.778 o
-14 1 4 54.050 60.455 11.675 13.095 o
-14 1 5 56.339 56.922 11.708 13.004 o
-14 1 6 70.285 107.667 15.409 7.185 o
-14 1 7 18.448 6.811 11.661 15.924 o
-14 1 8 18.901 42.429 11.956 14.649 o
-14 1 9 16.064 18.726 7.561 36.623 o
-14 1 10 12.110 28.359 19.982 5.465 o
-14 1 11 0.169 -2.660 9.555 24.086 o
-14 1 12 19.034 24.118 8.979 25.894 o
-14 1 13 13.246 1.065 5.931 61.050 o
-14 1 14 2.105 -3.728 4.764 96.798 o
-14 1 15 6.858 -3.878 10.983 18.198 o
-14 1 16 0.001 -10.488 9.756 23.107 o
-14 1 17 9.435 -0.026 3.389 185.078 o
-14 2 1 7.820 3.597 3.590 165.376 o
-14 2 2 59.981 62.407 12.452 11.448 o
-14 2 3 4.364 5.917 6.493 51.869 o
-14 2 4 34.047 49.463 12.794 12.280 o
-14 2 5 5.736 -2.220 3.657 162.667 o
-14 2 6 32.133 17.290 6.939 39.583 o
-14 2 7 42.319 36.056 10.423 17.612 o
-14 2 8 60.636 76.474 17.132 6.525 o
-14 2 9 1.352 1.145 3.594 170.071 o
-14 2 10 6.210 -3.197 4.063 131.811 o
-14 2 11 0.560 5.530 5.366 76.256 o
-14 2 12 8.102 14.718 10.264 20.663 o
-14 2 13 1.276 -8.106 6.093 59.231 o
-14 2 14 4.442 3.176 6.111 58.630 o
-14 2 15 1.896 11.004 6.930 45.563 o
-14 3 1 4.765 9.240 4.831 92.660 o
-14 3 2 6.285 -2.255 11.089 17.859 o
-14 3 3 25.698 11.257 5.294 67.876 o
-14 3 4 1.724 6.382 4.144 127.290 o
-14 3 5 2.664 4.273 5.495 72.590 o
-14 3 6 27.532 39.456 12.230 13.786 o
-14 3 7 0.616 12.769 6.572 50.659 o
-14 3 8 54.715 33.275 15.099 8.772 o
-14 3 9 58.489 66.994 15.421 7.982 o
-14 3 10 9.692 0.901 9.212 25.773 o
-14 3 11 29.993 33.022 11.301 16.012 o
-14 3 12 41.488 64.886 16.799 7.174 o
-14 3 13 1.699 4.222 6.947 45.510 o
-14 3 14 9.543 26.309 10.591 19.213 o
-14 3 15 0.632 -5.626 8.390 31.239 o
-14 4 1 1.489 -2.158 5.228 80.443 o
-14 4 2 8.423 3.934 4.206 120.990 o
-14 4 3 22.231 29.023 8.662 27.134 o
-14 4 4 42.551 43.359 10.035 18.467 o
-14 4 5 15.659 13.268 6.062 56.445 o
-14 4 6 21.975 44.460 10.193 19.529 o
-14 4 7 47.257 66.301 16.667 7.173 o
-14 4 8 13.065 18.708 11.906 15.273 o
-14 4 9 40.899 42.750 17.872 6.531 o
-14 4 10 13.165 15.181 11.430 16.590 o
-14 4 11 0.784 22.229 13.505 12.016 o
-14 4 12 6.918 2.767 6.461 52.291 o
-14 5 6 8.843 -3.452 5.978 60.940 o
-14 5 7 0.049 6.773 7.631 37.730 o
-14 5 8 0.345 1.195 4.731 98.234 o
-14 5 9 4.159 15.170 11.917 15.419 o
-14 5 10 37.548 42.135 15.838 8.262 o
-13 -6 4 1.491 -6.948 8.459 30.730 o
-13 -6 5 1.129 5.473 5.405 75.115 o
-13 -6 6 2.048 -9.256 12.958 13.095 o
-13 -6 7 10.217 13.180 7.403 39.229 o
-13 -6 8 13.630 10.226 6.620 48.446 o
-13 -6 9 0.090 -3.070 10.961 18.304 o
-13 -6 10 0.057 17.388 12.114 14.951 o
-13 -6 11 21.988 -2.199 5.833 60.789 o
-13 -5 1 1.065 -0.536 7.598 38.093 o
-13 -5 2 4.612 -1.073 4.926 90.273 o
-13 -5 3 12.715 50.179 20.997 4.917 o
-13 -5 4 8.354 11.248 6.215 55.678 o
-13 -5 5 10.326 9.502 5.111 81.055 o
-13 -5 6 0.591 8.949 5.157 82.323 o
-13 -5 7 51.286 64.564 13.121 10.819 o
-13 -5 8 5.418 -4.821 7.237 41.883 o
-13 -5 9 9.456 10.148 5.677 66.301 o
-13 -5 10 4.743 3.687 5.247 79.322 o
-13 -5 11 5.265 16.888 6.683 48.328 o
-13 -5 12 26.371 37.593 17.456 7.008 o
-13 -5 13 22.232 34.953 16.938 7.482 o
-13 -4 1 6.211 0.285 8.321 31.681 o
-13 -4 2 31.453 55.836 14.936 9.210 o
-13 -4 3 35.613 16.639 8.917 24.954 o
-13 -4 4 0.906 -1.362 4.738 97.931 o
-13 -4 5 21.643 25.428 9.533 22.873 o
-13 -4 6 101.102 129.404 18.391 4.774 o
-13 -4 7 0.514 7.160 4.870 92.433 o
-13 -4 8 39.814 30.026 8.833 24.056 o
-13 -4 9 41.647 37.820 10.137 18.466 o
-13 -4 10 0.002 4.311 3.977 138.830 o
-13 -4 11 0.710 0.854 5.132 83.464 o
-13 -4 12 12.825 29.208 20.084 5.407 o
-13 -4 13 0.377 26.814 14.764 10.050 o
-13 -4 14 3.617 9.322 8.910 27.592 o
-13 -4 15 1.294 26.967 14.873 9.898 o
-13 -4 16 15.406 13.934 10.909 18.137 o
-13 -3 1 1.889 7.189 5.114 83.653 o
-13 -3 2 16.888 0.882 4.867 87.868 o
-13 -3 3 138.938 153.691 24.476 2.727 o
-13 -3 4 0.134 -1.595 4.239 122.385 o
-13 -3 5 15.893 19.343 7.599 36.251 o
-13 -3 6 13.579 8.761 5.278 75.080 o
-13 -3 7 279.800 370.517 30.113 1.176 o
-13 -3 8 14.434 26.844 8.655 28.063 o
-13 -3 9 20.476 25.962 8.505 28.442 o
-13 -3 10 2.022 8.210 6.254 55.989 o
-13 -3 11 16.299 15.909 9.071 25.900 o
-13 -3 12 40.009 71.114 16.860 7.101 o
-13 -3 13 4.325 -2.644 5.236 79.964 o
-13 -3 14 3.619 10.331 16.327 8.239 o
-13 -3 15 2.407 8.185 8.420 30.939 o
-13 -3 16 6.822 6.039 6.935 45.323 o
-13 -3 17 51.119 49.062 19.766 5.284 o
-13 -3 18 40.495 34.355 16.402 7.747 o
-13 -2 1 18.457 23.743 11.716 15.557 o
-13 -2 2 2.896 6.756 5.107 83.753 o
-13 -2 3 23.841 47.194 13.702 11.120 o
-13 -2 4 0.568 4.129 7.280 41.470 o
-13 -2 5 20.735 22.952 7.469 36.406 o
-13 -2 6 123.841 97.848 15.310 5.986 o
-13 -2 7 0.790 7.149 6.294 55.389 o
-13 -2 8 4.758 4.897 10.601 19.529 o
-13 -2 9 0.015 0.886 9.913 22.377 o
-13 -2 10 25.257 12.238 7.870 33.154 o
-13 -2 11 14.665 20.414 8.539 29.059 o
-13 -2 12 0.005 15.028 10.612 19.484 o
-13 -2 13 23.888 37.259 12.386 13.620 o
-13 -2 14 12.821 28.474 11.303 16.784 o
-13 -2 15 0.000 -1.338 9.025 26.997 o
-13 -2 16 17.859 31.156 13.349 12.005 o
-13 -2 17 6.094 0.689 3.533 173.635 o
-13 -2 18 14.397 15.299 11.304 16.922 o
-13 -1 1 26.048 18.795 5.610 59.322 o
-13 -1 2 198.688 216.895 20.215 2.653 o
-13 -1 3 5.124 3.349 3.434 183.282 o
-13 -1 4 14.601 34.175 10.401 19.523 o
-13 -1 5 38.107 86.874 19.248 5.496 o
-13 -1 6 19.181 6.707 4.891 83.975 o
-13 -1 7 130.756 190.522 26.114 2.418 o
-13 -1 8 141.822 161.803 24.111 2.741 o
-13 -1 9 74.278 41.559 13.018 10.485 o
-13 -1 10 12.656 14.812 10.565 19.391 o
-13 -1 11 46.495 64.325 15.677 8.046 o
-13 -1 12 18.105 23.835 10.165 20.485 o
-13 -1 13 2.809 6.680 5.250 79.309 o
-13 -1 14 1.185 11.218 8.167 32.870 o
-13 -1 15 54.171 70.844 16.955 6.804 o
-13 -1 16 57.679 46.714 13.907 9.876 o
-13 -1 17 41.885 42.280 17.913 6.495 o
-13 -1 18 0.359 -3.246 5.783 65.752 o
-13 -1 19 1.617 13.277 10.122 21.399 o
-13 0 1 88.805 47.423 10.155 13.782 o
-13 0 2 0.007 2.144 3.802 152.041 o
-13 0 3 20.307 -0.198 2.267 315.066 o
-13 0 4 0.003 1.288 2.721 296.964 o
-13 0 5 3.016 2.001 4.820 94.359 o
-13 0 6 0.047 4.765 6.760 48.100 o
-13 0 7 417.244 393.832 37.118 0.719 o
-13 0 8 0.013 -3.243 6.374 54.126 o
-13 0 9 34.759 61.984 14.682 9.365 o
-13 0 10 0.224 0.490 4.684 100.241 o
-13 0 11 36.288 28.286 8.985 23.886 o
-13 0 12 0.103 -6.123 4.406 113.262 o
-13 0 13 9.523 12.279 3.981 129.790 o
-13 0 14 0.030 -4.407 5.144 83.097 o
-13 0 15 118.133 92.005 14.893 6.433 o
-13 0 16 0.000 2.653 4.628 102.643 o
-13 0 17 9.503 8.069 5.734 65.262 o
-13 0 18 0.181 23.036 13.962 11.246 o
-13 1 1 23.903 19.006 6.563 45.771 o
-13 1 2 197.707 204.939 20.550 2.670 o
-13 1 3 5.041 -0.083 2.912 255.874 o
-13 1 4 16.685 26.254 7.932 32.886 o
-13 1 5 33.578 77.859 12.354 12.492 o
-13 1 6 19.305 -1.427 4.984 82.971 o
-13 1 7 132.035 145.932 40.386 1.209 o
-13 1 8 139.963 127.518 29.434 2.092 o
-13 1 9 74.192 35.451 14.098 9.301 o
-13 1 10 16.412 25.447 10.611 18.898 o
-13 1 11 38.546 38.459 11.854 14.152 o
-13 1 12 21.402 36.196 12.053 14.447 o
-13 1 13 4.212 8.323 6.341 54.276 o
-13 1 14 2.213 -0.045 3.228 210.581 o
-13 1 15 61.640 83.338 17.961 5.942 o
-13 1 16 60.569 33.782 11.877 13.105 o
-13 1 17 39.663 30.387 12.648 12.683 o
-13 1 18 1.036 9.488 6.169 57.551 o
-13 2 1 17.905 31.860 10.176 20.240 o
-13 2 2 3.968 16.804 6.057 58.847 o
-13 2 3 21.433 33.588 12.245 14.055 o
-13 2 4 1.309 0.490 3.088 230.360 o
-13 2 5 18.107 15.593 6.766 45.096 o
-13 2 6 144.660 94.208 44.624 1.020 o
-13 2 7 1.599 -2.540 4.495 108.788 o
-13 2 8 4.782 4.368 3.954 138.746 o
-13 2 9 0.674 2.015 4.618 103.042 o
-13 2 10 22.890 7.475 11.828 15.371 o
-13 2 11 14.162 24.572 9.065 25.784 o
-13 2 12 0.001 -0.116 11.891 15.553 o
-13 2 13 25.377 13.956 8.851 26.492 o
-13 2 14 16.580 5.795 8.749 28.109 o
-13 2 15 0.054 3.693 4.479 109.513 o
-13 2 16 19.121 34.706 11.747 15.280 o
-13 2 17 6.257 -1.983 3.520 175.010 o
-13 2 18 17.692 31.050 15.937 8.494 o
-13 3 1 2.058 -0.650 3.328 198.184 o
-13 3 2 17.695 -1.839 5.097 80.335 o
-13 3 3 140.147 161.387 19.083 3.782 o
-13 3 4 0.440 1.010 4.793 95.719 o
-13 3 5 17.814 16.864 5.652 62.798 o
-13 3 6 9.844 11.769 5.896 61.325 o
-13 3 7 285.061 336.639 103.996 0.187 o
-13 3 8 13.843 13.660 11.123 17.504 o
-13 3 9 21.930 26.009 9.262 24.105 o
-13 3 10 2.167 1.905 6.270 55.878 o
-13 3 11 15.757 18.803 8.178 31.552 o
-13 3 12 44.081 53.846 14.957 8.933 o
-13 3 13 6.420 11.114 9.142 26.113 o
-13 3 14 3.691 4.225 7.125 43.192 o
-13 3 15 3.050 8.027 7.590 38.024 o
-13 3 16 9.066 10.154 9.877 22.340 o
-13 3 17 46.945 21.506 13.640 10.947 o
-13 3 18 40.003 42.491 18.190 6.327 o
-13 4 1 11.169 8.504 4.570 100.196 o
-13 4 2 28.097 39.449 9.651 21.284 o
-13 4 3 34.935 31.694 7.021 36.176 o
-13 4 4 1.248 1.832 2.421 374.004 o
-13 4 5 25.367 19.174 6.464 46.560 o
-13 4 6 95.050 122.706 49.224 0.869 o
-13 4 7 0.354 6.211 5.691 67.787 o
-13 4 8 40.538 25.677 15.843 8.339 o
-13 4 9 38.821 39.188 17.092 7.156 o
-13 4 10 0.201 4.835 5.091 84.733 o
-13 4 11 0.468 7.413 18.650 6.321 o
-13 4 12 13.922 22.251 9.572 23.292 o
-13 4 13 0.328 -6.424 7.905 35.195 o
-13 5 1 1.379 26.020 14.941 9.811 o
-13 5 2 6.009 18.264 9.692 23.157 o
-13 5 3 12.619 45.346 11.149 16.938 o
-13 5 4 9.985 17.969 18.643 6.298 o
-13 5 5 11.868 10.829 6.680 47.849 o
-13 5 6 1.085 2.078 4.136 128.400 o
-13 5 7 48.324 94.057 27.913 2.683 o
-13 5 8 6.152 6.167 6.928 45.459 o
-13 5 9 8.889 27.692 14.864 9.851 o
-13 5 10 4.570 -18.983 12.679 13.671 o
-13 5 11 4.050 12.579 10.861 18.566 o
-13 5 13 21.100 29.577 15.021 9.504 o
-13 5 14 0.596 18.808 12.307 14.476 o
-13 6 3 20.473 39.904 17.223 7.236 o
-13 6 4 1.013 7.146 7.931 34.911 o
-13 6 5 1.494 -0.321 6.875 46.514 o
-13 6 7 10.657 5.986 8.019 33.760 o
-12 -7 3 1.331 1.998 4.447 111.047 o
-12 -7 4 6.138 15.111 11.371 16.898 o
-12 -7 5 11.433 7.649 8.158 32.536 o
-12 -6 1 0.506 -8.138 9.051 26.843 o
-12 -6 2 17.687 7.658 8.742 28.020 o
-12 -6 3 13.651 4.331 6.861 45.632 o
-12 -6 4 59.756 69.799 26.851 2.890 o
-12 -6 5 8.666 4.001 12.624 13.754 o
-12 -6 6 0.061 0.414 5.070 85.547 o
-12 -6 7 15.917 2.522 14.164 10.890 o
-12 -6 8 12.028 10.684 7.263 40.656 o
-12 -6 9 4.915 20.617 9.797 22.667 o
-12 -6 10 4.673 -0.140 14.353 10.670 o
-12 -6 11 10.190 35.772 19.163 5.932 o
-12 -5 1 20.255 31.426 11.522 15.877 o
-12 -5 2 31.596 46.356 13.832 10.744 o
-12 -5 3 0.537 -0.922 3.014 241.971 o
-12 -5 4 4.509 1.021 5.547 71.213 o
-12 -5 5 35.916 65.113 12.437 12.526 o
-12 -5 6 167.814 192.494 31.052 1.725 o
-12 -5 7 6.457 1.114 3.665 161.096 o
-12 -5 8 12.664 26.258 9.283 24.670 o
-12 -5 9 39.282 69.018 12.992 11.392 o
-12 -5 10 0.059 3.332 3.585 170.895 o
-12 -5 11 5.345 7.636 5.357 75.630 o
-12 -5 12 4.322 6.435 10.083 21.576 o
-12 -5 13 15.966 29.289 11.171 17.053 o
-12 -5 14 6.510 15.145 10.913 18.330 o
-12 -5 15 1.816 9.381 9.075 26.644 o
-12 -5 16 0.268 -0.916 4.420 112.546 o
-12 -4 1 2.597 12.222 7.875 35.267 o
-12 -4 2 45.218 102.691 18.960 5.484 o
-12 -4 3 34.756 71.362 13.382 10.931 o
-12 -4 4 0.001 4.484 4.881 92.227 o
-12 -4 5 260.864 297.774 26.325 1.526 o
-12 -4 6 34.956 7.082 6.170 49.225 o
-12 -4 7 7.409 10.530 5.283 76.822 o
-12 -4 8 40.066 45.279 10.447 17.363 o
-12 -4 9 12.027 19.069 6.927 43.930 o
-12 -4 10 0.970 8.701 7.076 43.812 o
-12 -4 11 3.811 12.341 8.049 33.714 o
-12 -4 12 11.137 31.095 11.675 15.768 o
-12 -4 13 30.201 35.081 11.148 16.358 o
-12 -4 14 1.796 9.513 6.547 51.071 o
-12 -4 15 14.291 17.641 13.069 12.699 o
-12 -4 16 34.188 51.931 21.261 4.697 o
-12 -4 17 21.623 6.149 7.054 41.908 o
-12 -3 1 24.068 6.775 5.693 61.479 o
-12 -3 2 58.782 62.105 14.592 8.836 o
-12 -3 3 1.519 10.289 5.156 82.107 o
-12 -3 4 50.424 65.885 12.079 12.435 o
-12 -3 5 23.811 51.521 10.552 17.983 o
-12 -3 6 123.605 130.356 17.124 4.865 o
-12 -3 7 112.065 71.118 12.808 8.421 o
-12 -3 8 151.249 179.400 20.117 3.315 o
-12 -3 9 45.928 25.328 10.134 18.635 o
-12 -3 10 81.249 89.286 18.261 5.442 o
-12 -3 11 27.295 37.330 12.450 13.375 o
-12 -3 12 5.506 5.016 6.581 50.447 o
-12 -3 13 0.091 8.261 6.211 56.894 o
-12 -3 14 5.078 5.653 5.171 81.386 o
-12 -3 15 0.114 6.058 5.984 61.340 o
-12 -3 16 77.401 61.795 21.626 4.230 o
-12 -2 1 22.392 27.567 13.321 11.998 o
-12 -2 2 166.153 159.847 23.154 2.729 o
-12 -2 3 127.506 100.758 18.437 4.573 o
-12 -2 4 160.968 205.507 20.747 2.971 o
-12 -2 5 1.282 1.461 3.644 165.422 o
-12 -2 6 31.092 28.098 7.724 31.991 o
-12 -2 7 79.212 80.352 15.907 6.947 o
-12 -2 8 0.241 10.347 16.663 7.916 o
-12 -2 9 0.350 17.056 8.631 29.384 o
-12 -2 10 2.875 0.336 4.352 115.832 o
-12 -2 11 3.595 15.134 9.316 25.178 o
-12 -2 12 2.183 3.619 7.097 43.603 o
-12 -2 13 29.897 25.470 10.027 20.240 o
-12 -2 14 1.190 7.711 5.787 65.445 o
-12 -2 15 3.140 6.804 6.047 59.825 o
-12 -2 16 36.571 34.337 11.986 14.049 o
-12 -2 17 8.788 4.400 6.824 46.682 o
-12 -2 18 10.197 -13.312 9.877 22.434 o
-12 -1 1 35.961 82.481 12.059 12.789 o
-12 -1 2 0.086 13.354 5.147 82.368 o
-12 -1 3 44.945 50.526 9.205 20.612 o
-12 -1 4 30.070 5.619 3.750 116.450 o
-12 -1 5 19.574 18.681 7.361 37.974 o
-12 -1 6 132.476 149.302 15.341 5.157 o
-12 -1 7 5.436 -1.151 2.724 291.296 o
-12 -1 8 41.510 37.263 11.199 15.538 o
-12 -1 9 10.896 8.399 6.285 54.268 o
-12 -1 10 20.709 28.941 10.005 20.822 o
-12 -1 11 58.052 44.783 13.340 10.634 o
-12 -1 12 105.734 99.185 19.127 4.646 o
-12 -1 13 13.108 10.065 10.151 21.041 o
-12 -1 14 13.470 15.880 8.611 28.863 o
-12 -1 15 10.451 12.453 7.244 40.941 o
-12 -1 16 0.968 6.077 6.336 54.688 o
-12 -1 17 7.724 5.169 5.364 75.188 o
-12 -1 18 2.320 -7.855 8.037 34.031 o
-12 -1 19 0.196 -5.367 6.835 47.076 o
-12 0 1 0.001 0.706 2.566 334.074 o
-12 0 2 51.761 29.842 7.352 29.771 o
-12 0 3 0.119 -4.450 4.333 117.150 o
-12 0 4 451.064 454.603 33.375 0.695 o
-12 0 5 0.104 0.395 3.924 142.785 o
-12 0 6 248.057 285.321 31.523 1.314 o
-12 0 7 0.020 6.147 5.764 66.096 o
-12 0 8 143.485 174.720 24.830 2.575 o
-12 0 9 0.027 1.424 2.901 261.181 o
-12 0 10 115.835 39.254 9.013 13.488 o
-12 0 11 0.001 0.927 3.921 143.055 o
-12 0 12 0.905 0.022 4.232 122.742 o
-12 0 13 0.199 4.283 4.382 114.391 o
-12 0 14 0.630 21.192 6.929 45.271 o
-12 0 15 0.002 6.165 3.733 157.353 o
-12 0 16 103.953 102.659 15.377 6.395 o
-12 0 17 0.018 -0.567 4.783 96.137 o
-12 0 18 9.193 5.416 5.411 73.520 o
-12 0 19 0.065 9.733 9.054 26.791 o
-12 1 1 28.517 73.224 11.809 13.889 o
-12 1 2 0.143 12.381 5.458 73.391 o
-12 1 3 40.707 37.800 6.521 37.690 o
-12 1 4 24.047 5.984 3.022 177.467 o
-12 1 5 24.991 27.157 8.769 26.331 o
-12 1 6 132.222 171.048 22.448 3.075 o
-12 1 7 8.846 2.762 13.317 12.368 o
-12 1 8 47.088 25.683 9.300 21.456 o
-12 1 9 14.311 6.606 5.831 62.146 o
-12 1 10 21.715 40.809 11.785 14.980 o
-12 1 11 58.598 54.934 16.460 7.235 o
-12 1 12 98.477 114.353 19.259 4.593 o
-12 1 13 14.954 19.794 8.193 31.468 o
-12 1 14 10.404 18.370 8.399 30.439 o
-12 1 15 7.953 11.382 7.019 43.892 o
-12 1 16 0.684 -2.053 5.622 69.563 o
-12 1 17 9.444 5.544 12.507 13.999 o
-12 1 18 3.552 -3.559 5.204 81.031 o
-12 2 1 26.597 16.608 8.560 27.944 o
-12 2 2 157.083 118.686 20.093 3.591 o
-12 2 3 119.536 67.461 8.887 11.973 o
-12 2 4 165.579 184.252 17.736 3.603 o
-12 2 5 0.896 6.125 4.903 91.197 o
-12 2 6 25.898 32.653 9.177 23.863 o
-12 2 7 85.754 87.573 33.709 1.816 o
-12 2 8 0.297 5.892 15.723 8.894 o
-12 2 9 0.283 -2.940 4.783 96.116 o
-12 2 10 5.289 -0.549 8.229 32.412 o
-12 2 11 2.174 10.304 7.065 43.851 o
-12 2 12 1.825 9.879 5.785 65.310 o
-12 2 13 29.238 34.726 10.211 19.301 o
-12 2 14 1.995 1.795 4.471 109.826 o
-12 2 15 6.137 0.997 6.215 56.653 o
-12 2 16 37.150 33.512 11.105 16.137 o
-12 2 17 10.212 3.692 6.303 54.465 o
-12 2 18 9.610 26.485 10.667 18.939 o
-12 2 19 0.046 5.281 5.520 72.087 o
-12 3 1 19.133 5.175 5.523 67.446 o
-12 3 2 60.453 44.431 9.869 17.202 o
-12 3 3 2.533 8.627 4.059 131.780 o
-12 3 4 57.011 67.570 10.941 14.058 o
-12 3 5 16.626 49.771 12.231 13.982 o
-12 3 6 134.443 134.901 40.137 1.227 o
-12 3 7 110.939 79.870 27.708 2.530 o
-12 3 8 132.509 161.241 34.542 1.576 o
-12 3 9 41.513 76.142 15.993 7.744 o
-12 3 10 82.973 126.271 20.590 4.237 o
-12 3 11 26.489 34.338 8.541 27.001 o
-12 3 12 7.702 1.263 3.882 143.009 o
-12 3 13 0.080 4.621 6.547 51.268 o
-12 3 14 5.114 4.272 4.332 115.738 o
-12 3 15 0.052 -3.275 13.772 11.594 o
-12 3 16 80.064 62.380 15.297 7.606 o
-12 3 17 11.597 -10.081 6.512 51.128 o
-12 3 18 10.728 19.548 13.836 11.377 o
-12 4 1 2.926 1.094 2.429 369.357 o
-12 4 2 46.763 115.727 12.950 10.160 o
-12 4 3 42.590 56.246 11.691 13.835 o
-12 4 4 0.245 4.943 3.685 161.534 o
-12 4 5 258.808 250.665 78.009 0.326 o
-12 4 6 35.161 1.512 4.357 88.905 o
-12 4 7 10.621 11.843 11.890 15.423 o
-12 4 8 37.165 24.589 9.083 23.543 o
-12 4 9 10.464 16.797 6.821 45.709 o
-12 4 10 1.113 4.319 5.177 81.901 o
-12 4 11 3.513 11.054 11.462 16.691 o
-12 4 12 8.490 43.245 13.254 12.238 o
-12 4 13 29.921 38.111 13.403 11.554 o
-12 4 14 2.048 -3.346 6.023 60.588 o
-12 4 15 11.639 -5.793 6.751 47.625 o
-12 5 1 20.308 5.694 8.075 32.536 o
-12 5 2 30.289 54.531 11.554 14.835 o
-12 5 3 1.214 13.420 7.699 36.929 o
-12 5 4 6.790 7.726 5.368 75.007 o
-12 5 5 33.980 74.680 16.270 7.653 o
-12 5 6 175.582 193.700 55.174 0.652 o
-12 5 7 4.597 17.176 8.446 30.498 o
-12 5 8 15.317 11.990 7.808 34.914 o
-12 5 9 37.283 65.013 15.532 8.363 o
-12 5 10 0.039 2.379 2.707 299.815 o
-12 5 11 3.960 4.983 6.639 49.689 o
-12 5 12 4.024 7.516 6.483 51.983 o
-12 5 13 15.178 36.441 17.845 6.800 o
-12 5 14 5.919 22.442 13.348 12.253 o
-12 6 1 0.454 1.669 7.385 40.311 o
-12 6 2 17.688 16.248 10.283 20.228 o
-12 6 3 13.519 18.993 8.767 27.757 o
-12 6 4 57.488 126.404 22.088 3.979 o
-12 6 5 7.147 -0.040 9.574 23.930 o
-12 6 6 0.179 -2.408 6.662 49.548 o
-12 6 7 16.103 9.571 9.194 25.430 o
-12 6 8 10.331 0.693 4.217 120.243 o
-12 6 9 3.015 8.758 9.145 26.218 o
-11 -7 1 0.001 6.977 7.883 35.361 o
-11 -7 2 0.895 14.028 10.761 18.945 o
-11 -7 3 38.635 46.299 18.427 6.168 o
-11 -7 4 12.963 23.600 13.125 12.566 o
-11 -7 5 8.720 17.237 11.292 17.067 o
-11 -7 8 5.754 47.136 18.751 6.187 o
-11 -7 9 10.491 37.553 17.210 7.331 o
-11 -7 10 37.958 56.961 22.167 4.303 o
-11 -6 1 0.120 -3.007 6.816 47.333 o
-11 -6 2 0.489 10.105 10.329 20.584 o
-11 -6 3 0.526 0.381 4.918 90.906 o
-11 -6 4 62.146 80.088 13.549 9.557 o
-11 -6 5 30.120 29.065 8.332 28.081 o
-11 -6 6 0.131 2.978 7.034 44.440 o
-11 -6 7 12.719 10.590 5.684 65.142 o
-11 -6 8 18.709 17.061 6.540 47.728 o
-11 -6 9 0.029 8.033 5.363 76.271 o
-11 -6 10 16.550 -1.227 8.241 31.808 o
-11 -6 11 0.054 1.789 3.980 138.775 o
-11 -6 12 0.884 -1.316 9.968 22.129 o
-11 -6 13 0.226 -11.019 9.720 23.274 o
-11 -6 14 32.926 28.917 14.801 9.600 o
-11 -5 1 0.640 19.903 8.528 30.030 o
-11 -5 2 1.074 -0.551 5.322 77.618 o
-11 -5 3 22.492 28.629 7.831 32.647 o
-11 -5 4 0.509 11.177 5.274 78.585 o
-11 -5 5 1.588 3.849 8.788 28.457 o
-11 -5 6 10.144 5.008 3.733 150.091 o
-11 -5 7 62.572 65.794 12.792 10.768 o
-11 -5 8 42.983 28.987 8.520 25.186 o
-11 -5 9 25.990 39.055 9.447 22.332 o
-11 -5 10 37.424 40.996 11.876 14.099 o
-11 -5 11 63.166 44.932 10.362 15.702 o
-11 -5 12 0.960 9.552 7.267 41.527 o
-11 -5 13 2.435 16.302 8.247 32.095 o
-11 -5 14 0.001 2.295 9.465 24.547 o
-11 -5 15 15.650 24.284 13.262 12.263 o
-11 -4 1 49.019 32.810 9.061 21.734 o
-11 -4 2 265.891 308.824 25.415 1.535 o
-11 -4 3 36.331 39.249 8.931 23.465 o
-11 -4 4 31.581 5.823 4.198 95.901 o
-11 -4 5 163.308 118.757 15.742 4.691 o
-11 -4 6 0.616 5.232 3.214 211.963 o
-11 -4 7 2.159 6.090 3.315 197.925 o
-11 -4 8 2.783 -0.961 9.766 23.050 o
-11 -4 9 27.041 7.857 8.947 26.076 o
-11 -4 10 7.390 -4.429 12.137 14.905 o
-11 -4 11 0.130 -0.553 11.988 15.302 o
-11 -4 12 38.380 36.100 22.745 4.137 o
-11 -4 13 3.968 12.205 7.896 35.014 o
-11 -4 14 50.499 62.610 15.509 8.135 o
-11 -4 15 2.493 13.940 8.914 27.534 o
-11 -4 16 113.917 120.198 29.150 2.233 o
-11 -4 17 45.443 32.536 18.959 5.842 o
-11 -4 18 1.096 25.047 14.082 11.043 o
-11 -3 1 84.069 139.768 20.835 4.075 o
-11 -3 2 72.166 43.124 11.846 12.252 o
-11 -3 3 662.265 833.963 41.907 0.317 o
-11 -3 4 257.053 252.187 22.347 1.907 o
-11 -3 5 22.019 43.090 9.482 22.356 o
-11 -3 6 0.053 2.722 4.170 126.403 o
-11 -3 7 143.040 137.002 16.527 4.654 o
-11 -3 8 43.363 80.643 24.751 3.416 o
-11 -3 9 7.338 1.130 9.190 25.951 o
-11 -3 10 39.785 42.114 12.386 12.943 o
-11 -3 11 0.074 1.517 4.839 93.883 o
-11 -3 12 1.382 14.008 6.931 45.476 o
-11 -3 13 28.106 6.306 6.043 53.802 o
-11 -3 14 52.581 71.992 16.775 6.951 o
-11 -3 15 15.156 67.150 16.006 8.244 o
-11 -3 16 1.762 6.278 4.090 130.638 o
-11 -3 17 7.986 4.343 10.697 19.141 o
-11 -2 1 160.288 169.804 15.662 4.286 o
-11 -2 2 115.469 165.674 15.007 5.493 o
-11 -2 3 191.117 203.837 14.501 3.710 o
-11 -2 4 6.422 1.113 2.273 408.557 o
-11 -2 5 0.022 0.586 1.810 670.807 o
-11 -2 6 8.015 -3.738 11.256 17.319 o
-11 -2 7 28.075 45.539 11.664 14.904 o
-11 -2 8 0.024 8.391 6.263 55.952 o
-11 -2 9 46.752 21.394 7.246 32.714 o
-11 -2 10 145.962 159.785 22.314 3.032 o
-11 -2 11 3.954 9.629 6.793 47.300 o
-11 -2 12 13.705 7.798 6.902 44.859 o
-11 -2 13 79.509 63.884 15.152 7.718 o
-11 -2 14 36.726 80.564 16.501 7.362 o
-11 -2 15 160.022 101.380 18.927 3.955 o
-11 -2 16 38.381 23.628 9.277 22.605 o
-11 -2 17 19.478 -1.104 4.755 90.471 o
-11 -2 18 42.184 60.517 21.041 4.718 o
-11 -1 1 3.665 3.399 3.423 185.650 o
-11 -1 2 11.335 2.818 2.470 322.155 o
-11 -1 3 47.965 22.186 5.867 44.013 o
-11 -1 4 105.462 101.941 10.600 9.934 o
-11 -1 5 39.287 13.681 4.015 85.883 o
-11 -1 6 90.079 60.255 10.393 12.754 o
-11 -1 7 333.430 423.997 34.965 0.863 o
-11 -1 8 79.595 92.644 16.791 6.237 o
-11 -1 9 164.728 156.416 25.187 2.451 o
-11 -1 10 0.260 -2.825 3.743 156.977 o
-11 -1 11 10.891 12.687 10.899 18.308 o
-11 -1 12 25.965 10.157 7.181 39.364 o
-11 -1 13 25.486 24.401 9.893 21.107 o
-11 -1 14 1.636 6.199 4.495 108.325 o
-11 -1 15 31.001 43.563 12.599 12.849 o
-11 -1 16 5.870 6.769 4.725 96.826 o
-11 -1 17 3.915 6.115 5.198 80.751 o
-11 -1 18 19.055 6.782 4.653 92.011 o
-11 -1 19 13.750 -11.823 9.127 26.135 o
-11 0 1 250.104 177.481 17.052 2.741 o
-11 0 2 0.071 0.041 2.513 348.141 o
-11 0 3 2.847 2.639 2.374 384.992 o
-11 0 4 0.003 0.596 2.198 455.179 o
-11 0 5 243.590 138.550 19.491 2.694 o
-11 0 6 0.067 6.628 6.403 53.578 o
-11 0 7 218.867 356.494 25.767 1.610 o
-11 0 8 0.073 4.162 4.250 121.620 o
-11 0 9 19.634 6.935 16.607 7.905 o
-11 0 10 0.174 7.340 5.650 68.736 o
-11 0 11 136.320 83.406 16.520 5.310 o
-11 0 12 0.257 0.856 4.263 121.018 o
-11 0 13 7.564 18.192 8.886 27.421 o
-11 0 14 0.000 0.480 5.352 76.786 o
-11 0 15 68.057 48.454 12.623 11.146 o
-11 0 16 0.087 -6.549 6.694 49.076 o
-11 0 17 4.607 3.466 4.092 129.940 o
-11 0 18 0.058 -8.554 9.282 25.525 o
-11 0 19 4.814 -1.534 4.400 113.007 o
-11 1 1 2.024 5.143 2.320 401.420 o
-11 1 2 10.388 1.320 1.536 757.750 o
-11 1 3 47.081 15.075 4.239 70.324 o
-11 1 4 95.827 116.891 15.380 6.420 o
-11 1 5 43.959 16.087 5.575 50.978 o
-11 1 6 88.305 56.311 18.474 5.474 o
-11 1 7 327.692 431.191 43.992 0.677 o
-11 1 8 86.504 110.329 17.593 5.513 o
-11 1 9 153.430 166.085 33.672 1.590 o
-11 1 10 0.098 -2.330 4.969 89.077 o
-11 1 11 14.575 19.109 7.976 33.215 o
-11 1 12 22.446 11.606 16.491 7.982 o
-11 1 13 19.957 12.457 15.979 8.511 o
-11 1 14 1.908 -3.073 4.403 113.358 o
-11 1 15 37.682 42.736 12.264 13.252 o
-11 1 16 4.778 -0.218 3.731 156.788 o
-11 1 17 2.365 13.673 6.698 48.607 o
-11 1 18 24.840 13.329 7.246 38.626 o
-11 1 19 13.506 9.770 9.885 22.165 o
-11 2 1 150.392 177.130 14.747 4.661 o
-11 2 2 124.377 180.368 11.507 6.517 o
-11 2 3 180.244 219.427 18.363 3.090 o
-11 2 4 6.546 1.955 3.235 205.134 o
-11 2 5 0.065 -1.140 8.671 29.245 o
-11 2 6 12.762 13.734 6.264 53.701 o
-11 2 7 28.812 28.211 8.649 26.490 o
-11 2 8 0.098 2.923 3.435 186.169 o
-11 2 9 58.802 27.157 12.167 12.831 o
-11 2 10 150.123 187.260 23.456 2.699 o
-11 2 11 7.799 10.738 7.396 39.638 o
-11 2 12 15.054 7.175 4.076 121.102 o
-11 2 13 85.495 66.584 14.349 8.182 o
-11 2 14 40.162 72.685 22.402 4.166 o
-11 2 15 150.500 109.463 18.642 4.109 o
-11 2 16 41.914 31.126 10.319 18.143 o
-11 2 17 22.174 3.275 4.539 95.058 o
-11 2 18 46.375 53.788 14.709 9.153 o
-11 2 19 2.884 25.811 10.013 21.695 o
-11 2 20 12.521 2.830 6.468 51.504 o
-11 3 1 80.698 147.724 13.624 7.531 o
-11 3 2 74.504 43.966 9.994 15.555 o
-11 3 3 652.914 920.848 63.394 0.231 o
-11 3 4 256.158 301.669 27.857 1.453 o
-11 3 5 22.934 53.989 12.232 13.682 o
-11 3 6 0.169 2.508 3.344 196.544 o
-11 3 7 156.278 166.716 21.878 2.994 o
-11 3 8 53.997 81.805 15.738 7.642 o
-11 3 9 8.138 22.108 8.522 29.612 o
-11 3 10 36.510 40.459 8.847 23.744 o
-11 3 11 0.023 1.231 4.219 123.545 o
-11 3 12 2.491 -0.906 5.305 78.066 o
-11 3 13 23.936 -14.332 9.924 21.762 o
-11 3 14 52.152 65.060 14.357 9.238 o
-11 3 15 11.504 61.322 14.605 9.941 o
-11 3 16 1.211 -2.343 5.476 73.328 o
-11 3 17 7.953 2.574 4.048 131.166 o
-11 3 18 8.626 26.169 10.850 18.352 o
-11 3 19 19.669 19.490 12.723 13.270 o
-11 4 1 49.205 43.421 7.579 27.543 o
-11 4 2 262.017 283.743 54.102 0.602 o
-11 4 3 34.175 27.679 7.296 34.629 o
-11 4 4 31.296 9.763 6.007 52.459 o
-11 4 5 159.537 100.065 18.675 4.039 o
-11 4 6 0.906 2.155 6.376 54.069 o
-11 4 7 0.817 -0.564 3.874 146.521 o
-11 4 8 2.420 0.016 4.313 118.055 o
-11 4 9 22.817 3.182 5.034 78.555 o
-11 4 10 5.418 9.785 7.248 41.482 o
-11 4 11 1.168 2.796 3.677 162.296 o
-11 4 12 31.648 45.243 27.152 2.931 o
-11 4 13 3.511 12.060 5.734 66.064 o
-11 4 14 58.053 60.610 22.995 3.902 o
-11 4 15 2.205 9.073 5.758 65.930 o
-11 4 16 106.288 182.742 38.809 1.309 o
-11 5 1 1.277 9.117 7.389 40.167 o
-11 5 2 1.866 -4.072 3.972 139.229 o
-11 5 3 24.791 36.528 8.286 28.589 o
-11 5 4 0.223 11.727 5.149 82.432 o
-11 5 5 1.913 2.448 6.574 50.830 o
-11 5 6 10.723 16.084 8.094 32.786 o
-11 5 7 68.281 70.306 15.732 7.450 o
-11 5 8 43.633 15.728 5.987 46.136 o
-11 5 9 27.212 37.835 9.663 21.382 o
-11 5 10 40.202 48.456 10.483 17.129 o
-11 5 11 62.473 81.886 14.149 8.874 o
-11 5 12 0.358 2.320 4.190 125.209 o
-11 5 13 2.524 26.389 10.086 21.387 o
-11 5 14 0.023 25.359 14.075 11.060 o
-11 5 15 12.401 40.899 21.847 4.561 o
-11 6 1 0.119 6.872 7.852 35.640 o
-11 6 2 0.299 15.645 7.809 35.890 o
-11 6 3 0.806 2.719 13.791 11.561 o
-11 6 4 70.476 106.167 20.123 4.650 o
-11 6 5 30.158 51.975 14.291 10.075 o
-11 6 6 0.366 -1.111 5.662 68.596 o
-11 6 7 13.600 -1.399 12.894 13.162 o
-11 6 8 23.437 34.300 12.129 14.239 o
-11 6 9 0.004 -8.279 8.926 27.602 o
-11 6 10 19.766 10.292 8.489 29.386 o
-11 6 11 0.018 -17.768 13.050 12.913 o
-11 6 12 0.810 -4.137 6.312 55.191 o
-11 6 13 0.473 -22.366 12.990 13.033 o
-11 6 14 30.037 30.052 15.540 8.777 o
-11 7 1 0.000 6.984 6.944 45.548 o
-11 7 2 0.346 13.227 7.668 37.265 o
-11 7 3 42.063 72.607 16.994 6.956 o
-11 7 4 12.775 29.017 10.837 18.210 o
-11 7 5 6.611 9.698 9.789 22.811 o
-10 -7 1 0.012 16.475 11.033 18.021 o
-10 -7 2 0.022 -8.667 8.218 32.562 o
-10 -7 3 4.307 -5.589 4.929 90.193 o
-10 -7 4 0.103 4.027 5.643 69.016 o
-10 -7 5 19.546 38.926 12.313 13.883 o
-10 -7 6 5.143 12.101 10.710 19.080 o
-10 -7 7 10.917 17.514 9.088 26.083 o
-10 -7 8 0.270 14.784 7.976 34.429 o
-10 -7 9 4.441 26.223 11.319 16.982 o
-10 -7 10 0.367 -0.246 5.668 68.452 o
-10 -7 11 50.951 75.896 17.880 6.197 o
-10 -7 12 18.859 39.444 13.867 11.055 o
-10 -7 13 3.667 -11.970 9.522 24.236 o
-10 -6 1 0.008 3.157 4.422 112.414 o
-10 -6 2 61.105 33.214 8.527 22.074 o
-10 -6 3 10.046 13.528 5.804 62.934 o
-10 -6 4 51.425 46.316 9.931 17.819 o
-10 -6 5 104.694 82.527 13.459 7.965 o
-10 -6 6 99.580 96.553 19.740 4.515 o
-10 -6 7 12.798 5.757 4.446 105.404 o
-10 -6 8 6.742 -2.521 2.666 300.825 o
-10 -6 9 0.003 3.536 5.596 70.185 o
-10 -6 10 36.680 38.964 9.219 22.205 o
-10 -6 11 3.793 19.907 6.427 52.182 o
-10 -6 12 16.922 8.809 6.700 46.874 o
-10 -6 13 16.176 19.840 9.115 25.537 o
-10 -6 14 0.145 31.275 14.665 10.173 o
-10 -5 1 0.009 -2.998 10.629 19.466 o
-10 -5 2 47.968 59.290 14.870 8.869 o
-10 -5 3 1.414 2.078 3.334 197.365 o
-10 -5 4 13.863 25.164 6.895 43.409 o
-10 -5 5 75.592 99.577 14.488 7.856 o
-10 -5 6 46.712 37.679 9.067 21.696 o
-10 -5 7 26.122 53.041 11.045 16.371 o
-10 -5 8 0.597 -1.594 2.725 296.080 o
-10 -5 9 5.812 5.494 3.390 186.036 o
-10 -5 10 5.686 1.518 4.667 100.104 o
-10 -5 11 7.450 3.596 19.741 5.638 o
-10 -5 12 9.647 14.525 8.473 30.100 o
-10 -5 13 25.158 61.101 14.861 9.371 o
-10 -5 14 8.519 16.357 7.894 34.604 o
-10 -5 15 7.567 25.156 10.348 20.194 o
-10 -5 16 14.871 -8.329 8.835 27.820 o
-10 -4 1 360.007 494.313 51.562 0.511 o
-10 -4 2 67.275 37.268 8.586 20.627 o
-10 -4 3 59.574 99.316 13.811 9.018 o
-10 -4 4 0.651 2.437 3.648 165.095 o
-10 -4 5 61.633 76.257 16.349 7.057 o
-10 -4 6 60.666 68.498 11.201 13.280 o
-10 -4 7 175.242 222.138 20.793 2.758 o
-10 -4 8 8.952 40.532 9.484 23.456 o
-10 -4 9 4.928 19.482 6.880 45.531 o
-10 -4 10 6.533 6.480 5.799 64.571 o
-10 -4 11 0.509 2.005 3.392 190.917 o
-10 -4 12 24.624 53.821 13.530 11.284 o
-10 -4 13 34.582 20.207 9.514 22.119 o
-10 -4 14 1.025 7.466 6.124 58.475 o
-10 -4 15 29.257 7.412 4.711 81.330 o
-10 -4 16 12.947 30.175 8.282 30.505 o
-10 -4 17 0.106 -13.909 10.728 19.108 o
-10 -4 18 2.329 -2.019 6.041 60.212 o
-10 -4 19 11.098 17.795 12.549 13.808 o
-10 -3 1 33.977 124.217 11.625 12.479 o
-10 -3 2 1157.160 1354.710 53.845 0.123 o
-10 -3 3 51.516 64.745 10.927 14.587 o
-10 -3 4 205.470 259.050 21.484 2.287 o
-10 -3 5 129.244 99.144 13.331 6.868 o
-10 -3 6 93.757 100.790 13.429 8.058 o
-10 -3 7 25.483 29.825 10.254 19.562 o
-10 -3 8 36.166 15.627 6.371 44.687 o
-10 -3 9 127.675 169.504 22.311 3.147 o
-10 -3 10 7.143 8.420 5.483 71.779 o
-10 -3 11 1.135 7.615 6.404 53.487 o
-10 -3 12 322.809 260.885 28.341 1.280 o
-10 -3 13 17.079 9.631 7.294 39.734 o
-10 -3 14 0.058 0.925 5.866 63.903 o
-10 -3 15 7.844 10.859 5.131 81.122 o
-10 -3 16 12.553 5.472 6.228 55.204 o
-10 -3 17 2.418 -6.973 4.845 93.578 o
-10 -3 18 4.555 18.570 11.905 15.424 o
-10 -3 19 0.057 -4.604 6.693 49.089 o
-10 -2 1 97.152 84.639 10.531 11.131 o
-10 -2 2 9.110 25.345 5.103 78.117 o
-10 -2 3 633.492 514.420 22.319 0.545 o
-10 -2 4 17.774 21.221 4.171 104.788 o
-10 -2 5 4.244 5.633 2.258 413.474 o
-10 -2 6 17.951 31.953 5.385 64.451 o
-10 -2 7 7.562 1.058 1.254 1178.940 o
-10 -2 8 80.259 96.013 16.175 6.566 o
-10 -2 9 123.887 120.883 18.034 4.614 o
-10 -2 10 0.321 0.364 3.205 214.087 o
-10 -2 11 57.843 90.739 26.241 2.988 o
-10 -2 12 5.221 5.335 7.162 42.647 o
-10 -2 13 119.284 140.527 26.333 2.577 o
-10 -2 14 30.250 20.738 6.780 41.238 o
-10 -2 15 112.284 69.924 12.960 8.311 o
-10 -2 16 0.887 15.662 5.800 64.710 o
-10 -2 17 35.944 48.114 10.338 17.893 o
-10 -2 18 9.564 1.872 17.963 6.805 o
-10 -1 1 90.654 59.453 7.312 18.629 o
-10 -1 2 122.740 83.722 10.575 9.455 o
-10 -1 3 69.391 97.123 9.894 13.757 o
-10 -1 4 197.260 185.867 13.634 3.919 o
-10 -1 5 31.956 14.789 4.786 73.776 o
-10 -1 6 0.065 4.244 9.478 24.475 o
-10 -1 7 399.704 432.669 33.720 0.778 o
-10 -1 8 837.378 936.019 51.389 0.215 o
-10 -1 9 275.219 279.151 36.950 1.032 o
-10 -1 10 69.597 98.527 21.772 4.096 o
-10 -1 11 261.253 211.434 24.848 1.806 o
-10 -1 12 19.603 41.060 8.682 26.642 o
-10 -1 13 15.672 0.644 3.256 187.314 o
-10 -1 14 12.768 2.819 2.776 255.626 o
-10 -1 15 57.447 45.079 9.906 17.366 o
-10 -1 16 113.160 117.491 12.338 7.747 o
-10 -1 17 91.745 90.755 17.175 5.806 o
-10 -1 18 14.649 15.372 7.775 35.084 o
-10 -1 19 0.713 -6.844 8.574 29.910 o
-10 0 1 0.003 1.871 1.558 904.564 o
-10 0 2 56.363 133.027 10.303 12.684 o
-10 0 3 0.038 2.366 2.312 410.854 o
-10 0 4 95.460 23.313 6.308 24.178 o
-10 0 5 0.190 -0.898 1.483 999.775 o
-10 0 6 2171.890 1612.720 62.528 0.051 o
-10 0 7 0.056 -3.050 2.839 272.909 o
-10 0 8 148.203 135.909 12.235 6.145 o
-10 0 9 0.064 -0.056 3.864 147.279 o
-10 0 10 114.255 96.229 19.046 4.579 o
-10 0 11 0.056 -0.301 2.911 259.470 o
-10 0 12 91.917 62.737 13.076 9.212 o
-10 0 13 0.036 -0.093 2.708 299.787 o
-10 0 14 15.819 15.457 6.907 43.831 o
-10 0 15 0.054 1.469 5.310 77.987 o
-10 0 16 65.411 58.247 13.550 9.843 o
-10 0 17 0.000 1.972 3.834 149.551 o
-10 0 18 72.434 66.467 22.778 3.868 o
-10 0 19 0.184 -5.160 7.193 42.504 o
-10 0 20 36.201 58.084 22.272 4.270 o
-10 1 1 96.876 85.139 8.751 13.474 o
-10 1 2 121.036 65.404 8.540 12.335 o
-10 1 3 68.727 101.315 13.256 9.193 o
-10 1 4 204.310 176.843 24.447 2.245 o
-10 1 5 30.445 1.793 5.485 63.810 o
-10 1 6 1.737 2.585 2.161 467.006 o
-10 1 7 413.932 475.260 35.912 0.691 o
-10 1 8 833.367 997.599 71.609 0.169 o
-10 1 9 318.194 276.420 26.328 1.356 o
-10 1 10 83.674 122.841 17.961 5.282 o
-10 1 11 259.538 241.512 25.320 1.711 o
-10 1 12 14.876 54.742 12.355 13.694 o
-10 1 13 14.621 3.552 5.770 63.749 o
-10 1 14 10.651 6.845 3.892 137.210 o
-10 1 15 58.752 61.088 13.515 10.079 o
-10 1 16 119.099 140.497 23.827 3.023 o
-10 1 17 89.896 67.379 15.279 7.294 o
-10 1 18 14.389 12.527 6.794 45.758 o
-10 1 19 0.258 -17.037 11.992 15.291 o
-10 1 20 9.319 13.340 6.881 45.350 o
-10 2 1 110.606 92.292 8.120 12.536 o
-10 2 2 8.499 33.960 5.219 73.001 o
-10 2 3 643.223 595.579 37.870 0.409 o
-10 2 4 17.892 15.613 2.506 238.425 o
-10 2 5 2.593 6.740 8.343 31.522 o
-10 2 6 14.844 37.957 9.509 23.021 o
-10 2 7 12.618 2.287 5.111 81.540 o
-10 2 8 74.727 91.551 22.025 4.000 o
-10 2 9 112.708 111.238 17.238 5.194 o
-10 2 10 0.010 1.528 8.969 27.333 o
-10 2 11 70.514 97.768 16.110 6.808 o
-10 2 12 3.598 16.239 8.287 31.742 o
-10 2 13 121.917 195.259 28.276 2.168 o
-10 2 14 27.198 9.820 5.602 61.114 o
-10 2 15 117.944 115.129 18.993 4.416 o
-10 2 16 0.705 24.107 9.815 22.659 o
-10 2 17 33.854 66.665 15.400 8.548 o
-10 2 18 8.176 26.925 8.807 27.611 o
-10 2 19 0.093 10.183 6.415 53.279 o
-10 2 20 23.592 20.870 12.388 13.864 o
-10 2 21 3.156 3.387 5.582 70.349 o
-10 3 1 27.430 140.228 10.425 14.562 o
-10 3 2 1212.670 1313.220 38.707 0.129 o
-10 3 3 56.975 73.453 13.071 10.474 o
-10 3 4 184.143 275.260 35.652 1.270 o
-10 3 5 118.287 92.655 14.943 6.392 o
-10 3 6 84.057 106.858 16.181 6.356 o
-10 3 7 24.294 29.230 8.602 27.238 o
-10 3 8 31.996 16.274 10.453 18.887 o
-10 3 9 123.023 163.395 20.678 3.580 o
-10 3 10 4.316 17.321 8.821 27.995 o
-10 3 11 1.476 5.326 4.607 103.221 o
-10 3 12 337.098 274.787 28.202 1.223 o
-10 3 13 15.725 10.083 6.302 52.808 o
-10 3 14 0.007 5.274 6.036 60.298 o
-10 3 15 5.829 7.468 12.951 13.079 o
-10 3 16 14.075 7.862 4.537 99.811 o
-10 3 17 2.770 4.351 4.444 110.731 o
-10 3 18 4.110 6.368 4.993 87.373 o
-10 3 19 0.059 -5.104 7.282 41.475 o
-10 3 20 9.956 5.416 6.840 46.293 o
-10 4 1 350.027 458.212 32.334 0.866 o
-10 4 2 64.081 29.815 7.001 28.625 o
-10 4 3 75.271 109.641 16.941 6.069 o
-10 4 4 0.289 -0.850 2.850 270.695 o
-10 4 5 70.414 71.601 28.660 2.523 o
-10 4 6 66.903 53.699 12.397 11.403 o
-10 4 7 169.536 258.090 46.503 0.859 o
-10 4 8 7.787 33.498 11.010 17.750 o
-10 4 9 4.376 13.293 15.441 9.203 o
-10 4 10 6.338 8.942 10.428 20.126 o
-10 4 11 0.209 11.672 7.660 37.374 o
-10 4 12 22.990 44.621 12.692 12.919 o
-10 4 13 38.620 24.579 7.309 33.845 o
-10 4 14 0.119 4.563 6.375 54.077 o
-10 4 15 28.169 3.083 4.086 106.592 o
-10 4 16 15.056 34.930 12.607 13.439 o
-10 4 17 0.011 11.444 9.099 26.513 o
-10 4 18 2.715 5.132 6.147 58.017 o
-10 5 1 0.009 8.194 5.934 62.319 o
-10 5 2 42.264 77.510 16.284 7.469 o
-10 5 3 0.706 -4.831 3.212 213.068 o
-10 5 4 13.584 32.152 9.769 22.134 o
-10 5 5 70.192 111.262 21.356 4.176 o
-10 5 6 42.074 50.248 9.535 19.807 o
-10 5 7 24.992 81.516 12.456 12.610 o
-10 5 8 1.744 6.258 3.710 158.538 o
-10 5 9 7.480 15.585 5.994 59.485 o
-10 5 10 2.514 4.945 4.831 93.776 o
-10 5 11 7.281 9.039 4.983 86.399 o
-10 5 12 11.152 14.433 6.074 57.268 o
-10 5 13 20.038 70.532 13.370 11.432 o
-10 5 14 7.381 1.442 4.239 120.413 o
-10 5 15 10.079 35.824 12.452 13.871 o
-10 6 1 0.083 -6.832 5.336 77.225 o
-10 6 2 61.610 60.938 16.741 6.915 o
-10 6 3 11.605 18.121 8.927 26.955 o
-10 6 4 48.319 69.487 15.935 7.726 o
-10 6 5 106.910 147.716 26.432 2.605 o
-10 6 6 105.728 110.443 28.459 2.377 o
-10 6 7 11.382 3.814 4.271 115.574 o
-10 6 8 6.465 -2.265 7.044 44.157 o
-10 6 9 0.470 4.923 6.564 50.993 o
-10 6 10 32.286 54.744 12.185 13.382 o
-10 6 11 1.835 10.771 6.825 46.974 o
-10 6 12 15.800 18.785 9.195 25.169 o
-10 6 13 15.772 26.485 14.369 10.460 o
-10 6 14 0.001 18.708 12.472 14.101 o
-10 7 1 0.084 9.652 6.414 53.318 o
-10 7 2 0.077 1.650 3.851 148.279 o
-10 7 3 3.321 0.891 9.982 22.058 o
-10 7 4 0.004 -9.291 9.650 23.613 o
-10 7 5 14.580 32.712 11.581 15.891 o
-10 7 6 6.254 1.389 7.737 36.600 o
-10 7 7 17.006 31.784 11.730 15.443 o
-10 7 8 0.836 2.816 6.303 55.315 o
-10 8 1 22.056 56.806 21.627 4.590 o
-9 -7 1 12.679 29.732 10.090 20.907 o
-9 -7 2 3.785 -2.734 4.623 102.604 o
-9 -7 3 8.124 6.771 6.884 45.829 o
-9 -7 4 6.936 -0.382 7.935 34.810 o
-9 -7 5 0.691 -0.355 6.717 48.739 o
-9 -7 6 108.350 126.875 21.019 3.836 o
-9 -7 7 2.154 0.100 4.898 91.564 o
-9 -7 8 30.350 28.517 10.080 19.908 o
-9 -7 9 1.492 -0.057 3.870 146.713 o
-9 -7 10 33.339 79.593 17.220 6.865 o
-9 -7 11 11.033 30.861 11.564 16.070 o
-9 -7 12 9.423 2.050 4.433 109.219 o
-9 -6 1 5.347 -4.343 4.079 131.196 o
-9 -6 2 18.001 31.122 11.113 17.112 o
-9 -6 3 0.053 9.115 4.438 111.109 o
-9 -6 4 76.936 105.860 17.516 5.758 o
-9 -6 5 0.836 -3.557 4.440 111.532 o
-9 -6 6 21.518 14.314 5.048 75.442 o
-9 -6 7 18.196 5.897 3.853 130.622 o
-9 -6 8 1.174 -1.865 2.374 389.835 o
-9 -6 9 5.683 11.245 5.160 80.852 o
-9 -6 10 16.773 6.332 3.984 124.624 o
-9 -6 11 17.981 5.187 8.035 33.098 o
-9 -6 12 0.024 1.491 3.880 146.014 o
-9 -6 13 3.729 16.285 6.389 53.052 o
-9 -6 14 0.064 11.215 7.815 35.925 o
-9 -5 1 208.348 252.870 21.258 2.312 o
-9 -5 2 0.417 2.915 3.424 187.319 o
-9 -5 3 49.174 34.244 7.936 26.634 o
-9 -5 4 12.731 8.203 3.632 152.135 o
-9 -5 5 200.425 189.514 18.869 2.955 o
-9 -5 6 228.022 311.339 23.994 1.786 o
-9 -5 7 594.218 599.702 34.382 0.464 o
-9 -5 8 64.066 55.146 11.489 12.980 o
-9 -5 9 17.001 34.643 8.530 28.192 o
-9 -5 10 0.564 22.535 9.360 24.925 o
-9 -5 11 22.531 63.417 14.246 10.179 o
-9 -5 12 0.139 5.035 7.086 43.764 o
-9 -5 13 1.224 12.505 6.676 49.067 o
-9 -5 14 24.995 24.530 7.329 36.710 o
-9 -5 15 21.342 13.214 7.547 36.384 o
-9 -5 16 12.111 7.235 7.852 35.041 o
-9 -5 17 15.636 29.906 15.790 8.676 o
-9 -4 1 19.601 5.122 3.729 136.620 o
-9 -4 2 225.065 280.535 21.898 2.048 o
-9 -4 3 0.555 15.536 4.496 107.154 o
-9 -4 4 26.299 53.299 9.747 20.461 o
-9 -4 5 95.523 57.887 10.281 12.585 o
-9 -4 6 130.899 99.773 13.102 6.931 o
-9 -4 7 11.650 59.124 10.434 18.888 o
-9 -4 8 174.921 192.357 23.599 2.487 o
-9 -4 9 45.023 62.158 13.441 10.651 o
-9 -4 10 3.186 5.421 4.257 120.333 o
-9 -4 11 7.719 7.565 5.963 60.842 o
-9 -4 12 209.824 244.145 22.402 2.216 o
-9 -4 13 148.104 160.297 17.735 4.023 o
-9 -4 14 0.754 4.353 4.358 115.549 o
-9 -4 15 52.225 75.525 13.020 10.696 o
-9 -4 16 2.944 24.444 10.752 18.856 o
-9 -4 17 19.487 4.890 13.715 11.559 o
-9 -4 18 9.184 7.688 8.311 31.494 o
-9 -4 19 2.308 -2.623 6.004 60.958 o
-9 -3 1 15.710 26.453 4.669 86.155 o
-9 -3 2 31.980 54.659 9.662 20.173 o
-9 -3 3 68.992 102.201 9.902 13.551 o
-9 -3 4 4.443 3.759 1.815 633.238 o
-9 -3 5 59.688 49.450 10.850 14.713 o
-9 -3 6 33.194 28.779 9.810 20.682 o
-9 -3 7 41.990 28.862 9.060 22.844 o
-9 -3 8 10.502 22.298 8.638 28.670 o
-9 -3 9 36.857 11.328 7.035 38.213 o
-9 -3 10 36.609 64.298 13.861 10.315 o
-9 -3 11 10.486 64.708 13.493 11.561 o
-9 -3 12 0.109 1.099 3.353 195.524 o
-9 -3 13 0.546 -2.736 3.987 138.331 o
-9 -3 14 42.155 45.770 10.668 16.576 o
-9 -3 15 59.604 43.595 9.658 17.907 o
-9 -3 16 0.070 3.783 6.887 46.352 o
-9 -3 17 3.278 -1.741 3.391 190.471 o
-9 -3 18 12.518 19.614 9.457 23.993 o
-9 -3 19 0.050 10.307 9.450 24.590 o
-9 -3 20 13.574 12.682 10.396 20.020 o
-9 -2 1 3.259 2.933 1.277 1270.930 o
-9 -2 2 50.101 9.672 2.176 120.869 o
-9 -2 3 438.485 494.699 20.228 0.878 o
-9 -2 4 11.248 6.531 2.421 323.298 o
-9 -2 5 9.141 31.814 4.925 81.308 o
-9 -2 6 10.899 5.759 2.302 357.862 o
-9 -2 7 59.334 71.514 8.006 21.070 o
-9 -2 8 3.898 1.767 1.715 722.468 o
-9 -2 9 3.532 7.568 4.995 87.307 o
-9 -2 10 52.902 92.585 15.790 7.502 o
-9 -2 11 865.323 633.809 34.546 0.296 o
-9 -2 12 55.639 111.301 13.551 9.210 o
-9 -2 13 2.234 10.887 4.264 119.233 o
-9 -2 14 0.561 0.070 2.839 272.834 o
-9 -2 15 9.571 4.973 6.315 54.258 o
-9 -2 16 6.224 10.636 10.752 18.926 o
-9 -2 17 57.328 25.243 7.203 29.841 o
-9 -2 18 0.090 4.724 4.769 96.588 o
-9 -2 19 43.445 7.466 9.352 22.582 o
-9 -2 20 1.366 0.156 3.380 192.287 o
-9 -1 1 339.919 463.299 16.597 1.271 o
-9 -1 2 17.356 13.863 3.651 137.796 o
-9 -1 3 20.730 6.671 3.151 175.735 o
-9 -1 4 134.326 151.483 12.930 6.046 o
-9 -1 5 118.460 136.766 12.851 6.858 o
-9 -1 6 9.514 4.188 2.228 395.221 o
-9 -1 7 32.370 48.308 9.683 20.364 o
-9 -1 8 129.416 98.088 11.164 8.250 o
-9 -1 9 25.299 19.050 5.413 63.365 o
-9 -1 10 1.344 19.338 5.681 67.012 o
-9 -1 11 19.655 12.952 4.189 106.796 o
-9 -1 12 0.769 2.765 3.236 209.562 o
-9 -1 13 3.602 8.174 3.566 169.401 o
-9 -1 14 39.747 41.370 7.058 33.279 o
-9 -1 15 52.408 66.513 11.477 13.377 o
-9 -1 16 55.818 27.093 5.741 40.424 o
-9 -1 17 4.784 17.773 6.243 55.252 o
-9 -1 18 0.823 0.749 4.880 92.312 o
-9 -1 19 3.029 7.731 13.446 12.150 o
-9 -1 20 0.987 13.181 10.280 20.757 o
-9 0 1 449.821 232.648 13.993 1.354 o
-9 0 2 0.178 3.224 2.155 472.288 o
-9 0 3 981.654 1102.520 91.382 0.117 o
-9 0 4 0.080 4.351 2.313 409.289 o
-9 0 5 27.864 7.622 2.762 181.712 o
-9 0 6 0.056 1.337 2.133 482.976 o
-9 0 7 135.306 206.479 14.357 4.785 o
-9 0 8 0.082 1.197 2.203 452.929 o
-9 0 9 0.425 26.637 5.484 71.146 o
-9 0 10 0.000 2.115 2.736 293.675 o
-9 0 11 527.782 445.529 27.976 0.668 o
-9 0 12 0.914 2.032 3.027 239.616 o
-9 0 13 1.065 4.059 2.826 273.966 o
-9 0 14 0.238 2.223 3.152 221.168 o
-9 0 15 1.099 1.706 4.988 88.313 o
-9 0 16 0.001 6.821 3.638 165.472 o
-9 0 17 147.591 110.841 18.197 4.272 o
-9 0 18 0.081 3.841 6.138 58.341 o
-9 0 19 8.327 0.841 5.284 77.802 o
-9 0 20 0.058 -12.083 11.024 18.095 o
-9 1 1 362.726 443.440 21.907 1.099 o
-9 1 2 16.203 12.555 4.878 84.439 o
-9 1 3 17.939 18.188 6.370 50.174 o
-9 1 4 152.491 135.257 12.648 5.851 o
-9 1 5 119.689 141.469 12.008 7.193 o
-9 1 6 11.651 6.263 2.052 424.074 o
-9 1 7 33.152 53.070 4.960 54.337 o
-9 1 8 141.927 97.847 14.496 5.904 o
-9 1 9 21.773 15.695 7.236 39.077 o
-9 1 10 2.505 16.127 10.376 20.334 o
-9 1 11 12.208 18.406 8.272 31.205 o
-9 1 12 0.713 0.681 3.602 169.460 o
-9 1 13 2.546 2.266 3.491 179.552 o
-9 1 14 50.334 49.440 11.862 13.263 o
-9 1 15 45.974 65.974 13.604 10.332 o
-9 1 16 52.031 34.591 10.336 17.147 o
-9 1 17 4.604 21.531 9.000 26.803 o
-9 1 18 0.720 -4.091 4.569 105.334 o
-9 1 19 3.065 26.435 14.623 10.227 o
-9 1 20 1.369 16.005 12.373 14.329 o
-9 1 21 37.292 80.647 25.107 3.346 o
-9 2 1 2.278 2.309 1.902 599.423 o
-9 2 2 63.532 14.534 3.342 65.612 o
-9 2 3 410.533 524.261 26.311 0.812 o
-9 2 4 13.964 16.129 6.879 44.444 o
-9 2 5 11.312 43.414 11.616 15.732 o
-9 2 6 16.625 5.416 8.041 33.160 o
-9 2 7 49.007 74.066 12.617 11.444 o
-9 2 8 3.211 2.624 5.683 67.900 o
-9 2 9 1.951 2.080 5.445 74.070 o
-9 2 10 55.349 108.774 16.684 6.624 o
-9 2 11 892.927 720.955 87.771 0.150 o
-9 2 12 49.340 84.687 15.678 7.765 o
-9 2 13 1.854 7.082 4.901 91.067 o
-9 2 14 0.631 7.088 6.392 53.721 o
-9 2 15 16.357 17.660 7.926 33.498 o
-9 2 16 5.480 22.396 8.068 33.152 o
-9 2 17 61.348 43.770 12.434 11.856 o
-9 2 18 0.397 10.085 8.953 27.393 o
-9 2 19 44.339 35.781 10.873 16.232 o
-9 2 20 1.252 2.016 6.124 58.609 o
-9 2 21 2.297 7.341 7.835 35.733 o
-9 3 1 13.100 14.645 4.880 85.646 o
-9 3 2 31.413 56.374 6.166 40.843 o
-9 3 3 74.507 100.293 10.041 12.933 o
-9 3 4 3.289 0.802 4.122 128.994 o
-9 3 5 50.007 47.592 10.610 16.070 o
-9 3 6 25.429 22.679 10.228 19.875 o
-9 3 7 47.610 53.117 11.500 14.030 o
-9 3 8 5.828 13.775 8.094 33.199 o
-9 3 9 42.575 12.610 4.526 70.623 o
-9 3 10 38.346 62.058 20.824 4.832 o
-9 3 11 7.114 52.496 11.850 15.128 o
-9 3 12 0.127 7.367 7.002 44.793 o
-9 3 13 1.610 2.240 3.718 158.671 o
-9 3 14 42.609 54.747 13.177 11.252 o
-9 3 15 50.631 56.692 13.340 10.688 o
-9 3 16 0.135 12.736 5.984 61.102 o
-9 3 17 3.409 7.334 4.739 96.948 o
-9 3 18 10.548 27.445 9.909 21.815 o
-9 3 19 0.107 -1.991 5.092 84.826 o
-9 3 20 17.415 27.557 14.535 10.200 o
-9 4 1 14.540 4.973 1.883 454.666 o
-9 4 2 232.922 292.473 20.699 2.058 o
-9 4 3 1.496 13.039 5.351 76.039 o
-9 4 4 20.146 81.431 15.015 9.090 o
-9 4 5 93.767 66.402 13.399 8.749 o
-9 4 6 119.059 126.861 20.621 3.834 o
-9 4 7 14.255 70.019 14.099 10.493 o
-9 4 8 162.404 223.320 25.571 2.225 o
-9 4 9 45.221 61.359 13.786 10.195 o
-9 4 10 6.940 8.693 5.198 79.723 o
-9 4 11 4.880 -2.501 2.783 280.110 o
-9 4 12 199.038 254.197 22.015 2.294 o
-9 4 13 145.901 182.675 18.960 3.604 o
-9 4 14 1.826 -4.599 4.528 107.200 o
-9 4 15 48.044 69.137 12.467 11.834 o
-9 4 16 2.441 7.773 9.126 26.350 o
-9 4 17 18.807 33.451 13.353 11.956 o
-9 4 18 9.202 -0.555 4.613 101.552 o
-9 4 19 1.859 -11.603 10.295 20.747 o
-9 5 1 207.847 240.911 20.873 2.401 o
-9 5 2 1.158 -0.278 3.742 156.990 o
-9 5 3 52.562 31.041 20.745 4.876 o
-9 5 4 11.441 16.038 4.936 84.399 o
-9 5 5 202.651 191.236 17.826 3.079 o
-9 5 6 228.414 347.913 32.413 1.241 o
-9 5 7 600.970 696.900 43.271 0.374 o
-9 5 8 60.580 50.863 10.418 15.543 o
-9 5 9 19.655 33.326 8.197 30.096 o
-9 5 10 1.423 16.462 6.674 48.910 o
-9 5 11 16.461 74.961 12.854 12.343 o
-9 5 12 0.732 8.625 5.367 76.036 o
-9 5 13 1.139 5.280 5.339 76.975 o
-9 5 14 21.230 16.605 8.543 28.608 o
-9 5 15 21.603 15.402 5.946 56.121 o
-9 5 16 15.143 0.774 18.127 6.671 o
-9 6 1 4.443 6.756 4.730 97.090 o
-9 6 2 17.540 45.723 12.383 13.692 o
-9 6 3 0.189 8.104 11.809 15.759 o
-9 6 4 68.314 149.429 30.985 2.092 o
-9 6 5 0.459 10.013 8.196 32.669 o
-9 6 6 23.177 11.610 9.586 22.994 o
-9 6 7 18.521 12.126 6.573 47.915 o
-9 6 8 0.226 1.039 3.226 211.294 o
-9 6 9 3.919 5.294 8.022 34.070 o
-9 6 10 21.218 5.941 4.412 99.633 o
-9 6 11 15.307 9.811 5.650 65.174 o
-9 6 12 0.120 5.075 4.412 112.812 o
-9 6 13 4.092 11.722 8.786 28.324 o
-9 6 14 0.005 5.020 7.079 43.863 o
-9 7 1 14.003 11.675 9.325 24.787 o
-9 7 2 3.772 6.719 6.106 58.633 o
-9 7 3 8.706 10.771 5.498 70.683 o
-9 7 4 5.080 3.329 4.004 135.482 o
-9 7 5 0.280 1.380 5.042 86.502 o
-9 7 6 122.174 176.145 33.211 1.692 o
-9 7 7 1.242 14.534 7.203 42.119 o
-9 7 8 26.651 21.714 8.986 25.274 o
-9 7 9 1.022 -4.043 6.802 47.520 o
-9 7 11 11.995 36.736 15.440 9.068 o
-9 7 12 9.297 19.348 12.482 13.970 o
-9 7 13 2.380 0.554 3.112 226.366 o
-9 8 1 10.479 9.642 10.941 18.212 o
-9 8 2 1.596 8.228 9.469 24.484 o
-9 8 3 0.030 -13.979 11.548 16.491 o
-9 8 4 8.872 36.852 18.395 6.435 o
-8 -8 4 0.021 -4.498 7.379 40.389 o
-8 -8 5 2.067 -0.820 4.072 132.454 o
-8 -8 6 2.844 18.990 12.721 13.533 o
-8 -8 7 3.741 22.715 14.820 9.967 o
-8 -8 8 17.794 5.382 7.083 42.258 o
-8 -8 9 3.853 -3.729 6.386 53.834 o
-8 -8 10 7.290 3.779 6.794 47.263 o
-8 -8 11 2.468 2.498 4.398 113.321 o
-8 -7 1 3.913 15.302 6.529 50.885 o
-8 -7 2 20.383 35.571 12.339 13.854 o
-8 -7 3 95.019 156.304 21.488 3.694 o
-8 -7 4 21.924 23.174 8.506 28.427 o
-8 -7 5 0.452 16.743 7.230 41.788 o
-8 -7 6 71.328 108.274 18.959 5.119 o
-8 -7 7 17.931 14.191 8.549 28.982 o
-8 -7 8 0.732 5.103 4.489 108.863 o
-8 -7 9 33.219 3.624 9.391 23.477 o
-8 -7 10 28.382 4.056 4.426 92.742 o
-8 -7 11 4.646 -2.199 5.792 65.361 o
-8 -7 12 4.571 -3.494 8.702 29.004 o
-8 -7 13 43.056 82.954 26.585 2.977 o
-8 -6 1 210.929 248.614 50.941 0.710 o
-8 -6 2 79.550 86.046 18.554 5.348 o
-8 -6 3 4.806 6.091 3.540 171.737 o
-8 -6 4 87.384 109.558 14.731 7.162 o
-8 -6 5 75.056 50.634 9.690 15.845 o
-8 -6 6 1.845 1.676 2.625 317.761 o
-8 -6 7 8.737 0.731 4.456 108.744 o
-8 -6 8 38.891 16.213 5.856 49.823 o
-8 -6 9 35.632 47.790 10.047 18.840 o
-8 -6 10 28.111 30.839 7.960 30.624 o
-8 -6 11 6.755 26.760 12.083 14.880 o
-8 -6 12 22.329 57.445 14.164 10.363 o
-8 -6 13 0.292 8.492 5.823 64.672 o
-8 -6 14 69.910 115.646 22.145 3.905 o
-8 -6 15 31.250 34.145 20.593 5.062 o
-8 -5 1 0.534 2.126 2.860 268.547 o
-8 -5 2 294.068 295.481 22.176 1.615 o
-8 -5 3 27.370 55.330 9.271 22.115 o
-8 -5 4 0.527 -3.270 3.797 152.492 o
-8 -5 5 16.831 26.324 6.843 43.260 o
-8 -5 6 64.324 98.061 13.138 9.568 o
-8 -5 7 10.191 1.253 4.959 87.578 o
-8 -5 8 58.606 68.898 10.911 13.952 o
-8 -5 9 27.769 20.814 8.596 27.359 o
-8 -5 10 15.230 6.055 4.031 124.010 o
-8 -5 11 15.295 1.542 4.807 90.641 o
-8 -5 12 14.792 6.084 5.565 67.890 o
-8 -5 13 50.461 76.256 12.701 11.204 o
-8 -5 14 139.230 116.383 15.786 5.201 o
-8 -5 15 0.565 5.228 5.755 66.297 o
-8 -5 16 20.184 72.867 17.418 6.923 o
-8 -5 17 0.497 16.416 12.298 14.507 o
-8 -4 1 48.343 44.897 8.068 25.158 o
-8 -4 2 109.477 87.588 11.582 9.208 o
-8 -4 3 267.447 289.058 21.162 1.827 o
-8 -4 4 203.700 149.425 21.143 2.775 o
-8 -4 5 37.765 23.080 7.364 33.800 o
-8 -4 6 28.031 5.172 4.054 106.671 o
-8 -4 7 76.892 62.167 12.854 10.126 o
-8 -4 8 1.436 -1.942 6.580 50.776 o
-8 -4 9 432.080 500.852 36.803 0.641 o
-8 -4 10 22.943 92.663 19.466 5.494 o
-8 -4 11 64.204 42.494 8.705 20.302 o
-8 -4 12 10.880 16.957 5.337 72.927 o
-8 -4 13 0.317 7.561 4.267 120.312 o
-8 -4 14 9.467 28.599 7.986 33.175 o
-8 -4 15 100.624 224.065 35.648 1.494 o
-8 -4 16 3.171 4.805 8.005 34.242 o
-8 -4 17 17.689 19.738 12.734 13.284 o
-8 -4 18 7.310 30.801 15.770 8.762 o
-8 -4 19 2.725 9.825 9.768 22.985 o
-8 -3 1 35.909 17.878 5.369 58.195 o
-8 -3 2 60.643 64.811 7.364 23.698 o
-8 -3 3 34.714 23.069 4.648 70.623 o
-8 -3 4 134.556 112.067 10.251 8.239 o
-8 -3 5 175.823 161.473 15.507 4.120 o
-8 -3 6 32.612 18.815 6.888 39.757 o
-8 -3 7 45.869 58.355 12.019 12.970 o
-8 -3 8 231.309 233.899 23.385 2.023 o
-8 -3 9 5.410 11.846 6.066 58.857 o
-8 -3 10 223.862 220.083 18.727 2.595 o
-8 -3 11 34.617 22.084 6.931 38.362 o
-8 -3 12 102.445 111.120 13.848 7.258 o
-8 -3 13 7.763 16.334 11.475 16.558 o
-8 -3 14 78.745 33.054 8.033 20.947 o
-8 -3 15 53.047 50.600 10.027 17.195 o
-8 -3 16 0.196 -0.271 5.433 74.513 o
-8 -3 17 0.141 2.565 4.176 126.034 o
-8 -3 18 1.568 8.479 8.552 30.009 o
-8 -3 19 2.385 11.778 9.940 22.188 o
-8 -3 20 27.132 7.363 5.065 73.578 o
-8 -2 1 4.073 0.131 1.245 1352.820 o
-8 -2 2 2.801 8.201 1.905 572.322 o
-8 -2 3 237.367 230.210 12.258 3.125 o
-8 -2 4 22.356 82.349 7.329 30.682 o
-8 -2 5 135.970 154.793 10.174 7.180 o
-8 -2 6 223.125 210.889 20.919 2.394 o
-8 -2 7 74.407 80.374 7.896 18.198 o
-8 -2 8 6.429 -1.792 2.927 251.227 o
-8 -2 9 370.034 364.414 17.358 1.325 o
-8 -2 10 126.972 124.901 10.333 8.248 o
-8 -2 11 1295.850 1252.680 108.325 0.078 o
-8 -2 12 52.280 102.058 14.223 8.803 o
-8 -2 13 13.389 9.209 3.827 136.653 o
-8 -2 14 55.493 57.893 9.887 16.978 o
-8 -2 15 13.154 30.316 7.167 40.027 o
-8 -2 16 61.157 82.961 12.609 10.680 o
-8 -2 17 4.645 7.560 6.063 59.305 o
-8 -2 18 0.818 15.882 9.140 26.217 o
-8 -2 19 81.871 65.165 14.776 7.948 o
-8 -2 20 15.924 8.125 8.824 27.609 o
-8 -2 21 0.709 -7.806 8.397 31.184 o
-8 -1 1 0.864 1.115 2.341 400.538 o
-8 -1 2 460.884 297.158 15.553 1.159 o
-8 -1 3 233.217 426.991 20.745 1.667 o
-8 -1 4 253.203 352.609 26.186 1.459 o
-8 -1 5 568.756 475.401 26.501 0.611 o
-8 -1 6 678.956 581.056 39.713 0.381 o
-8 -1 7 717.240 610.027 32.621 0.384 o
-8 -1 8 349.850 350.005 17.810 1.424 o
-8 -1 9 341.258 271.018 12.172 1.894 o
-8 -1 10 991.453 944.090 27.116 0.214 o
-8 -1 11 59.785 65.288 7.806 22.214 o
-8 -1 12 328.300 309.524 18.509 1.591 o
-8 -1 13 456.418 353.679 19.498 1.015 o
-8 -1 14 80.469 49.288 7.234 21.649 o
-8 -1 15 76.459 118.506 11.464 10.303 o
-8 -1 16 4.454 19.791 4.971 85.815 o
-8 -1 17 3.177 3.643 3.359 193.030 o
-8 -1 18 31.541 33.140 16.383 7.890 o
-8 -1 19 11.524 19.273 8.895 27.112 o
-8 -1 20 3.013 5.464 5.425 74.347 o
-8 0 1 0.471 1.235 1.742 723.485 o
-8 0 2 1593.480 1776.480 59.879 0.071 o
-8 0 3 0.027 -0.832 2.050 523.266 o
-8 0 4 85.927 126.374 10.665 10.335 o
-8 0 5 0.083 2.134 1.838 650.142 o
-8 0 6 2.954 4.164 2.198 444.978 o
-8 0 7 0.000 1.708 1.873 626.430 o
-8 0 8 578.362 552.502 23.716 0.576 o
-8 0 9 0.059 2.627 1.627 828.222 o
-8 0 10 54.016 120.778 9.338 15.117 o
-8 0 11 0.248 5.323 2.036 525.616 o
-8 0 12 0.572 1.769 2.259 430.249 o
-8 0 13 0.184 4.048 2.952 251.654 o
-8 0 14 161.676 74.082 10.131 7.892 o
-8 0 15 0.286 2.414 2.481 356.659 o
-8 0 16 163.994 137.986 18.129 3.855 o
-8 0 17 0.000 0.140 5.609 69.894 o
-8 0 18 256.128 209.620 25.196 1.809 o
-8 0 19 0.063 -0.927 5.498 72.761 o
-8 0 20 22.701 -3.882 9.898 21.933 o
-8 0 21 0.158 -2.135 8.698 29.070 o
-8 1 1 0.430 3.605 1.960 569.128 o
-8 1 2 424.654 335.450 33.825 0.812 o
-8 1 3 222.515 471.919 56.649 0.531 o
-8 1 4 260.803 357.077 29.433 1.274 o
-8 1 5 598.854 478.616 27.645 0.565 o
-8 1 6 693.333 669.243 25.189 0.412 o
-8 1 7 683.779 560.818 47.947 0.341 o
-8 1 8 353.206 403.343 65.373 0.390 o
-8 1 9 381.024 276.163 33.382 0.950 o
-8 1 10 986.095 896.440 54.125 0.182 o
-8 1 11 50.595 66.531 8.235 22.182 o
-8 1 12 322.001 287.867 30.565 1.157 o
-8 1 13 470.385 304.705 51.708 0.500 o
-8 1 14 96.409 32.507 8.242 17.661 o
-8 1 15 80.116 121.343 28.381 2.461 o
-8 1 16 5.270 27.630 6.419 51.346 o
-8 1 17 1.709 3.641 4.918 90.700 o
-8 1 18 27.243 28.916 9.158 24.005 o
-8 1 19 10.622 22.088 11.436 16.551 o
-8 1 20 2.122 26.305 14.439 10.495 o
-8 1 21 0.298 -14.170 11.531 16.537 o
-8 2 1 4.545 1.994 2.986 242.982 o
-8 2 2 1.466 10.676 5.641 68.661 o
-8 2 3 227.960 262.851 21.650 2.106 o
-8 2 4 21.513 91.645 12.999 11.625 o
-8 2 5 140.066 180.297 15.768 4.537 o
-8 2 6 202.747 198.846 19.855 2.745 o
-8 2 7 86.127 102.533 20.715 4.285 o
-8 2 8 13.688 9.205 4.826 88.754 o
-8 2 9 355.728 389.337 29.112 1.001 o
-8 2 10 114.557 135.481 17.379 4.886 o
-8 2 11 1306.380 1604.230 222.554 0.032 o
-8 2 12 49.490 84.817 24.397 3.475 o
-8 2 13 19.447 18.470 6.735 44.857 o
-8 2 14 50.327 67.573 17.200 6.718 o
-8 2 15 13.854 33.574 10.552 19.036 o
-8 2 16 57.916 104.383 17.154 6.315 o
-8 2 17 7.115 11.875 6.249 55.234 o
-8 2 18 0.399 10.013 5.621 69.319 o
-8 2 19 84.538 109.898 18.504 5.125 o
-8 2 20 15.371 22.694 12.787 13.193 o
-8 3 1 31.314 22.411 4.303 82.751 o
-8 3 2 59.927 67.784 7.319 23.704 o
-8 3 3 39.055 24.848 6.576 39.940 o
-8 3 4 144.453 119.331 15.845 5.036 o
-8 3 5 171.751 169.881 19.128 3.335 o
-8 3 6 45.637 23.213 7.626 30.225 o
-8 3 7 40.334 82.312 10.925 14.766 o
-8 3 8 214.399 263.986 22.977 2.070 o
-8 3 9 7.066 11.417 6.150 57.044 o
-8 3 10 213.514 239.930 37.302 1.165 o
-8 3 11 23.686 11.572 4.549 89.521 o
-8 3 12 104.722 166.510 20.258 3.873 o
-8 3 13 8.736 18.568 11.383 16.785 o
-8 3 14 85.367 20.361 7.777 21.733 o
-8 3 15 53.419 55.408 12.778 11.419 o
-8 3 16 0.341 -3.269 5.308 78.052 o
-8 3 17 0.109 5.841 8.241 32.358 o
-8 3 18 1.357 13.138 6.972 44.988 o
-8 3 19 2.188 26.377 14.682 10.152 o
-8 3 20 24.657 22.006 13.775 11.253 o
-8 4 1 42.829 42.170 4.698 54.610 o
-8 4 2 112.815 92.019 7.740 12.763 o
-8 4 3 249.441 336.981 28.095 1.403 o
-8 4 4 216.354 168.901 19.762 2.771 o
-8 4 5 47.095 22.454 7.136 33.277 o
-8 4 6 30.679 8.349 4.914 74.379 o
-8 4 7 85.666 95.239 15.838 6.664 o
-8 4 8 0.686 2.564 4.504 108.332 o
-8 4 9 432.724 545.870 56.798 0.404 o
-8 4 10 35.159 91.193 12.073 12.582 o
-8 4 11 57.277 42.638 8.472 22.144 o
-8 4 12 9.794 17.119 7.006 43.468 o
-8 4 13 0.901 17.297 5.781 65.020 o
-8 4 14 11.560 35.259 7.953 32.804 o
-8 4 15 101.537 237.592 32.182 1.757 o
-8 4 16 2.556 30.728 11.089 17.677 o
-8 4 17 12.323 33.929 11.295 16.735 o
-8 4 18 4.321 7.473 8.397 31.060 o
-8 4 19 2.495 3.991 6.808 47.357 o
-8 5 1 0.648 1.121 2.014 541.128 o
-8 5 2 291.351 300.716 29.223 1.276 o
-8 5 3 27.617 51.649 8.371 26.563 o
-8 5 4 0.145 1.727 2.292 418.394 o
-8 5 5 18.715 19.880 6.235 51.706 o
-8 5 6 69.612 104.090 13.185 9.172 o
-8 5 7 16.409 3.799 4.966 84.091 o
-8 5 8 50.427 77.818 12.066 12.141 o
-8 5 9 25.814 12.982 6.677 44.670 o
-8 5 10 9.325 2.874 3.338 188.642 o
-8 5 11 11.624 2.891 3.263 192.783 o
-8 5 12 17.887 2.680 5.239 75.575 o
-8 5 13 38.320 102.934 15.992 7.541 o
-8 5 14 139.277 115.900 17.290 4.657 o
-8 5 15 0.279 -2.326 3.177 217.874 o
-8 5 16 22.293 59.131 12.643 12.800 o
-8 5 17 0.637 -2.903 6.646 49.779 o
-8 6 1 230.285 365.846 79.494 0.311 o
-8 6 2 79.668 121.070 19.133 4.848 o
-8 6 3 4.726 5.941 5.690 67.380 o
-8 6 4 88.816 163.498 22.808 3.384 o
-8 6 5 90.421 76.796 11.555 10.600 o
-8 6 6 2.406 -0.422 2.977 247.420 o
-8 6 7 5.138 12.509 4.536 103.954 o
-8 6 8 37.963 37.942 9.546 20.832 o
-8 6 9 29.025 67.541 12.392 12.851 o
-8 6 10 27.055 25.316 7.293 36.523 o
-8 6 11 6.997 23.546 7.667 36.441 o
-8 6 12 22.238 51.458 11.231 16.124 o
-8 6 13 0.304 10.316 5.886 63.231 o
-8 6 14 71.962 108.589 20.240 4.575 o
-8 6 15 32.392 19.414 16.298 8.039 o
-8 7 1 5.435 1.499 7.007 44.629 o
-8 7 2 21.732 32.511 10.052 20.462 o
-8 7 3 97.975 185.088 42.301 1.127 o
-8 7 4 26.030 29.566 10.530 18.590 o
-8 7 5 0.460 3.321 7.915 35.087 o
-8 7 6 57.925 121.136 21.933 4.046 o
-8 7 7 12.857 36.710 12.422 13.863 o
-8 7 8 1.139 2.176 6.689 49.130 o
-8 7 9 39.623 11.730 5.265 59.519 o
-8 7 10 34.495 0.728 4.775 77.925 o
-8 7 11 3.931 6.672 7.549 38.432 o
-8 7 12 4.866 7.135 8.095 33.395 o
-8 7 13 48.473 85.306 26.510 2.973 o
-8 8 1 25.401 65.037 15.880 8.232 o
-8 8 2 2.872 0.234 8.641 29.436 o
-8 8 3 16.971 35.593 13.056 12.507 o
-8 8 4 0.649 -8.936 9.097 26.572 o
-8 8 5 1.495 -4.850 7.156 42.939 o
-8 8 6 1.046 21.803 16.881 7.700 o
-7 -8 1 2.441 10.880 10.340 20.514 o
-7 -8 2 19.753 35.909 15.159 9.314 o
-7 -8 3 4.236 7.444 7.982 34.363 o
-7 -8 4 4.838 23.522 9.970 21.852 o
-7 -8 5 8.837 30.056 11.190 17.215 o
-7 -8 6 28.230 66.994 16.973 7.209 o
-7 -8 7 3.716 27.997 14.736 10.062 o
-7 -8 8 0.886 -11.195 9.682 23.458 o
-7 -8 9 12.496 44.918 18.381 6.406 o
-7 -8 10 18.783 62.431 14.999 9.314 o
-7 -8 11 0.081 4.994 7.786 36.254 o
-7 -8 12 14.678 23.888 12.239 14.378 o
-7 -7 1 55.119 73.737 12.325 11.598 o
-7 -7 2 91.183 101.670 14.505 7.324 o
-7 -7 3 6.866 28.469 7.642 36.421 o
-7 -7 4 43.056 112.050 20.468 4.753 o
-7 -7 5 2.906 6.290 3.952 139.346 o
-7 -7 6 0.855 12.756 5.678 67.710 o
-7 -7 7 9.754 14.357 8.089 32.961 o
-7 -7 8 57.159 66.894 14.968 8.438 o
-7 -7 9 0.296 17.619 10.813 18.750 o
-7 -7 10 29.696 83.243 19.279 5.577 o
-7 -7 11 64.324 111.505 23.555 3.552 o
-7 -7 12 19.824 11.115 13.649 11.624 o
-7 -7 13 48.169 133.908 32.172 2.010 o
-7 -6 1 14.029 47.928 8.789 26.285 o
-7 -6 2 2.366 7.864 3.719 156.958 o
-7 -6 3 0.507 -0.329 2.226 443.743 o
-7 -6 4 3.330 9.420 4.235 120.657 o
-7 -6 5 26.832 41.296 7.470 33.397 o
-7 -6 6 3.896 7.443 3.721 155.899 o
-7 -6 7 3.529 11.650 6.753 47.812 o
-7 -6 8 15.417 21.297 5.943 57.352 o
-7 -6 9 181.535 134.702 20.756 3.111 o
-7 -6 10 4.167 -2.762 2.221 438.902 o
-7 -6 11 12.383 -1.891 3.833 143.033 o
-7 -6 12 16.746 1.469 3.676 147.804 o
-7 -6 13 30.750 0.815 3.728 120.659 o
-7 -6 14 112.166 156.268 25.283 2.747 o
-7 -6 15 0.116 4.633 8.988 27.213 o
-7 -5 1 1.321 6.934 3.408 187.700 o
-7 -5 2 2.610 10.781 4.026 133.329 o
-7 -5 3 91.175 74.284 9.647 13.214 o
-7 -5 4 3.317 2.485 2.963 247.909 o
-7 -5 5 75.048 126.287 13.520 8.211 o
-7 -5 6 55.970 237.928 19.067 4.401 o
-7 -5 7 97.470 157.569 15.971 5.590 o
-7 -5 8 120.230 103.238 12.758 7.471 o
-7 -5 9 94.141 100.206 15.880 6.376 o
-7 -5 10 0.199 13.353 6.669 49.219 o
-7 -5 11 1.254 10.019 4.657 100.571 o
-7 -5 12 1.355 -0.649 6.458 52.719 o
-7 -5 13 70.140 80.697 12.818 10.056 o
-7 -5 14 21.052 66.064 13.350 11.499 o
-7 -5 15 5.015 19.470 9.893 22.248 o
-7 -5 16 23.487 13.670 13.052 12.605 o
-7 -5 17 6.361 29.335 15.456 9.130 o
-7 -4 1 99.571 91.847 9.200 12.288 o
-7 -4 2 201.736 184.855 12.975 3.970 o
-7 -4 3 27.858 2.758 3.460 139.350 o
-7 -4 4 2.260 6.544 3.597 168.218 o
-7 -4 5 0.189 9.894 4.447 110.553 o
-7 -4 6 99.219 117.768 12.946 7.884 o
-7 -4 7 8.836 20.178 7.543 37.599 o
-7 -4 8 179.846 169.448 20.038 3.083 o
-7 -4 9 1016.760 1218.020 47.059 0.157 o
-7 -4 10 133.174 197.670 18.103 3.875 o
-7 -4 11 7.894 12.672 4.770 92.952 o
-7 -4 12 7.044 33.582 7.936 33.568 o
-7 -4 13 0.012 7.433 4.891 91.676 o
-7 -4 14 62.780 5.509 4.426 56.766 o
-7 -4 15 0.933 10.020 7.832 35.762 o
-7 -4 16 0.031 12.258 7.553 38.436 o
-7 -4 17 67.385 103.558 19.979 4.756 o
-7 -4 18 3.947 14.849 11.417 16.796 o
-7 -4 19 7.674 4.929 7.415 39.663 o
-7 -3 1 4.876 7.981 2.431 351.350 o
-7 -3 2 49.959 73.699 7.632 23.953 o
-7 -3 3 4.612 6.044 2.625 307.531 o
-7 -3 4 14.120 12.357 3.201 181.988 o
-7 -3 5 0.899 2.789 6.542 51.353 o
-7 -3 6 0.110 5.275 4.827 94.251 o
-7 -3 7 22.098 21.124 9.623 22.588 o
-7 -3 8 130.402 166.007 9.402 7.550 o
-7 -3 9 1.953 16.684 3.412 181.526 o
-7 -3 10 81.053 67.258 7.384 19.439 o
-7 -3 11 1.189 12.080 4.955 88.726 o
-7 -3 12 8.685 8.913 5.759 64.803 o
-7 -3 13 15.061 9.957 4.270 109.843 o
-7 -3 14 98.103 153.512 16.351 5.450 o
-7 -3 15 6.623 12.995 4.814 91.871 o
-7 -3 16 0.476 13.761 7.032 44.259 o
-7 -3 17 14.394 51.026 13.473 11.659 o
-7 -3 18 10.631 60.103 15.349 9.051 o
-7 -3 19 22.250 3.420 7.876 34.045 o
-7 -3 20 4.487 0.127 3.589 169.496 o
-7 -2 1 50.061 81.102 6.612 27.391 o
-7 -2 2 435.058 284.120 11.135 1.367 o
-7 -2 3 10.778 10.133 2.293 344.825 o
-7 -2 4 231.561 215.493 10.601 3.517 o
-7 -2 5 70.384 52.183 9.928 15.703 o
-7 -2 6 81.163 41.108 5.017 30.850 o
-7 -2 7 398.879 328.550 16.271 1.311 o
-7 -2 8 0.004 2.454 1.606 850.901 o
-7 -2 9 3.065 6.447 2.647 306.058 o
-7 -2 10 91.046 132.388 10.547 9.935 o
-7 -2 11 14.127 3.901 2.651 268.755 o
-7 -2 12 9.701 12.904 4.355 109.270 o
-7 -2 13 1.524 1.201 3.346 196.015 o
-7 -2 14 155.824 123.980 14.193 5.327 o
-7 -2 15 36.730 18.654 5.562 54.453 o
-7 -2 16 0.086 1.451 3.798 152.415 o
-7 -2 17 3.243 -1.006 9.367 25.050 o
-7 -2 18 33.128 18.100 8.258 28.886 o
-7 -2 19 0.077 0.684 7.345 40.758 o
-7 -2 20 0.035 9.821 9.113 26.446 o
-7 -2 21 8.772 -8.912 9.308 25.283 o
-7 -1 1 1257.430 1265.450 32.749 0.129 o
-7 -1 2 1905.750 1928.740 83.467 0.050 o
-7 -1 3 31.369 11.527 2.554 173.544 o
-7 -1 4 290.963 187.724 14.138 2.558 o
-7 -1 5 805.452 795.130 48.062 0.251 o
-7 -1 6 287.610 249.070 15.813 2.184 o
-7 -1 7 0.145 12.297 3.289 200.089 o
-7 -1 8 39.752 108.396 7.927 21.534 o
-7 -1 9 77.041 163.068 9.115 11.275 o
-7 -1 10 107.339 41.452 5.225 21.901 o
-7 -1 11 1.054 0.090 2.206 451.235 o
-7 -1 12 156.092 155.115 11.895 5.716 o
-7 -1 13 20.564 34.145 5.690 56.852 o
-7 -1 14 85.301 178.867 13.491 6.917 o
-7 -1 15 60.017 123.751 11.373 11.249 o
-7 -1 16 29.074 18.247 4.853 73.183 o
-7 -1 17 1.568 3.518 3.733 157.239 o
-7 -1 18 1.896 6.680 4.714 98.411 o
-7 -1 19 15.653 -2.889 3.167 197.735 o
-7 -1 20 2.812 4.638 4.447 110.540 o
-7 -1 21 10.274 15.790 11.180 17.389 o
-7 -1 22 52.822 79.050 24.896 3.343 o
-7 0 1 1549.990 1949.550 56.031 0.070 o
-7 0 2 0.086 -2.578 2.331 404.800 o
-7 0 3 1327.570 1623.110 156.800 0.049 o
-7 0 4 0.326 0.671 2.651 312.868 o
-7 0 5 753.292 546.813 25.172 0.413 o
-7 0 6 0.396 1.200 1.646 810.226 o
-7 0 7 38.295 43.647 5.966 42.543 o
-7 0 8 0.088 1.908 1.232 1445.070 o
-7 0 9 10.819 1.582 1.465 800.369 o
-7 0 10 0.026 -0.627 2.259 430.995 o
-7 0 11 166.543 182.145 14.360 4.382 o
-7 0 12 0.108 3.616 3.471 182.274 o
-7 0 13 1651.100 1467.920 59.173 0.076 o
-7 0 14 0.011 1.300 4.309 118.425 o
-7 0 15 1.934 3.101 3.169 217.826 o
-7 0 16 0.202 7.496 3.781 153.066 o
-7 0 17 56.160 8.558 4.674 57.662 o
-7 0 18 0.040 2.385 4.803 95.303 o
-7 0 19 60.068 72.982 16.983 6.665 o
-7 0 20 0.006 -9.312 9.287 25.498 o
-7 0 21 3.743 5.342 8.512 30.276 o
-7 1 1 1304.160 1193.640 51.823 0.117 o
-7 1 2 1944.200 2219.930 159.362 0.033 o
-7 1 3 33.902 11.188 4.488 81.165 o
-7 1 4 315.375 178.196 17.082 2.154 o
-7 1 5 762.425 867.444 59.997 0.221 o
-7 1 6 262.300 284.968 36.513 1.066 o
-7 1 7 0.124 17.551 6.273 55.395 o
-7 1 8 53.786 91.776 8.609 18.581 o
-7 1 9 88.144 145.829 12.759 7.902 o
-7 1 10 111.462 47.664 6.611 17.551 o
-7 1 11 3.871 3.591 2.634 310.480 o
-7 1 12 152.487 165.923 14.705 4.748 o
-7 1 13 14.479 39.322 7.182 38.741 o
-7 1 14 91.829 178.834 15.561 5.662 o
-7 1 15 61.140 96.276 11.872 11.329 o
-7 1 16 39.063 23.148 6.162 44.519 o
-7 1 17 1.242 -3.994 3.868 146.934 o
-7 1 18 2.627 10.479 4.614 101.983 o
-7 1 19 15.876 -8.461 8.460 30.250 o
-7 1 20 5.362 -2.245 6.226 56.547 o
-7 1 21 7.446 6.441 5.546 70.341 o
-7 1 22 56.944 93.210 27.070 2.817 o
-7 2 1 50.409 100.458 8.591 18.495 o
-7 2 2 453.986 297.155 29.754 0.878 o
-7 2 3 4.574 9.054 2.365 368.720 o
-7 2 4 230.845 233.731 19.840 2.359 o
-7 2 5 65.629 73.290 11.151 12.864 o
-7 2 6 90.390 45.555 9.215 15.487 o
-7 2 7 431.754 366.254 59.667 0.419 o
-7 2 8 1.783 4.261 4.075 131.913 o
-7 2 9 0.754 4.376 3.790 152.686 o
-7 2 10 86.800 118.637 9.556 11.797 o
-7 2 11 13.854 5.513 2.871 232.105 o
-7 2 12 8.955 11.294 3.738 147.370 o
-7 2 13 0.893 4.778 2.892 261.400 o
-7 2 14 155.428 128.790 17.841 4.121 o
-7 2 15 34.226 20.522 5.054 63.989 o
-7 2 16 0.312 2.016 2.604 323.877 o
-7 2 17 5.641 9.576 7.574 38.012 o
-7 2 18 33.611 26.340 9.675 21.275 o
-7 2 19 0.397 1.897 10.874 18.595 o
-7 2 20 0.004 13.717 10.269 20.814 o
-7 3 1 7.696 7.740 3.000 229.143 o
-7 3 2 46.328 66.845 10.367 16.195 o
-7 3 3 4.608 5.635 3.318 195.438 o
-7 3 4 13.428 12.183 11.305 16.981 o
-7 3 5 3.803 4.281 4.033 133.892 o
-7 3 6 0.028 13.629 5.964 61.457 o
-7 3 7 22.203 30.674 6.476 45.606 o
-7 3 8 120.653 188.407 19.215 3.826 o
-7 3 9 0.039 20.670 6.412 52.874 o
-7 3 10 82.419 59.353 13.004 9.770 o
-7 3 11 0.607 1.777 2.496 352.414 o
-7 3 12 11.062 14.260 3.661 147.806 o
-7 3 13 17.465 11.021 13.034 12.767 o
-7 3 14 97.451 163.163 29.672 2.149 o
-7 3 15 6.809 11.956 8.589 29.519 o
-7 3 16 0.646 10.993 6.753 48.040 o
-7 3 17 15.827 32.616 8.255 30.232 o
-7 3 18 10.826 59.504 15.503 8.879 o
-7 3 19 22.416 27.002 15.341 9.121 o
-7 3 20 5.290 14.902 10.264 20.730 o
-7 4 1 105.173 103.925 7.770 12.907 o
-7 4 2 196.929 182.517 10.865 4.506 o
-7 4 3 24.491 5.353 2.928 185.352 o
-7 4 4 2.704 6.581 2.881 259.855 o
-7 4 5 0.330 14.378 4.640 100.960 o
-7 4 6 89.512 102.613 19.423 4.723 o
-7 4 7 10.274 26.745 8.484 29.531 o
-7 4 8 176.669 168.293 22.172 2.767 o
-7 4 9 1004.980 1404.680 61.594 0.131 o
-7 4 10 117.898 233.903 17.762 3.920 o
-7 4 11 11.169 11.892 4.228 114.656 o
-7 4 12 7.450 36.349 7.513 37.044 o
-7 4 13 0.598 23.192 6.005 59.887 o
-7 4 14 73.691 9.863 4.856 42.995 o
-7 4 15 2.250 9.012 7.416 39.834 o
-7 4 16 0.034 8.054 9.230 25.790 o
-7 4 17 66.765 69.499 16.171 7.154 o
-7 4 18 4.720 14.326 10.393 20.242 o
-7 4 19 7.262 5.893 7.434 39.457 o
-7 4 20 3.619 11.794 10.096 21.490 o
-7 5 1 0.900 6.903 2.129 476.297 o
-7 5 2 1.402 11.286 3.406 185.988 o
-7 5 3 83.996 60.347 8.642 16.564 o
-7 5 4 3.345 1.527 2.917 256.206 o
-7 5 5 72.495 145.903 15.849 6.367 o
-7 5 6 56.843 225.572 19.188 4.432 o
-7 5 7 84.187 139.899 18.236 5.017 o
-7 5 8 126.301 124.952 15.727 5.415 o
-7 5 9 107.632 99.296 13.893 7.252 o
-7 5 10 0.193 1.141 3.290 203.172 o
-7 5 11 0.306 11.044 7.006 44.663 o
-7 5 12 5.319 3.183 3.864 145.244 o
-7 5 13 70.473 81.013 14.002 8.764 o
-7 5 14 20.305 68.033 13.243 11.666 o
-7 5 15 5.544 -3.462 3.635 164.692 o
-7 5 16 22.260 2.223 5.999 57.240 o
-7 5 17 4.967 15.897 10.492 19.843 o
-7 6 1 16.877 60.220 13.207 11.935 o
-7 6 2 2.932 14.634 7.284 41.084 o
-7 6 3 1.253 -0.373 2.094 500.943 o
-7 6 4 3.057 12.845 4.985 87.109 o
-7 6 5 22.325 43.296 8.545 26.942 o
-7 6 6 1.954 -0.116 2.535 341.256 o
-7 6 7 3.261 7.289 3.807 149.553 o
-7 6 8 11.787 19.756 9.348 24.577 o
-7 6 9 184.041 165.128 18.787 3.284 o
-7 6 10 4.996 6.075 3.975 136.706 o
-7 6 11 17.586 2.929 6.090 56.812 o
-7 6 12 22.874 -1.952 4.168 111.595 o
-7 6 13 37.012 13.916 5.753 52.714 o
-7 6 14 113.485 145.021 19.753 4.040 o
-7 6 15 0.197 17.466 8.718 28.799 o
-7 7 1 56.576 94.660 17.834 6.006 o
-7 7 2 106.647 107.272 40.314 1.264 o
-7 7 3 7.623 22.797 10.023 21.545 o
-7 7 4 41.122 96.624 19.144 5.469 o
-7 7 5 1.717 -3.268 6.452 52.813 o
-7 7 6 0.818 8.756 4.444 110.681 o
-7 7 7 11.007 15.933 7.155 41.653 o
-7 7 8 55.699 96.837 14.864 8.168 o
-7 7 9 0.151 4.788 3.265 205.736 o
-7 7 10 31.607 97.707 15.676 8.010 o
-7 7 11 70.334 125.675 29.151 2.368 o
-7 7 12 17.089 17.020 11.338 16.727 o
-7 7 13 46.650 121.391 31.266 2.137 o
-7 8 1 0.703 0.178 9.162 26.195 o
-7 8 2 17.419 14.746 7.663 35.780 o
-7 8 3 5.312 0.937 4.096 129.912 o
-7 8 4 3.057 24.328 11.048 17.864 o
-7 8 5 8.514 25.652 11.021 17.807 o
-7 8 6 29.167 90.291 32.618 2.020 o
-7 8 7 2.935 23.049 13.336 12.300 o
-7 8 11 0.185 5.587 6.912 45.992 o
-7 8 12 14.420 3.735 5.583 67.980 o
-7 9 1 1.513 15.350 11.351 17.017 o
-7 9 2 3.709 -8.384 8.950 27.432 o
-6 -9 9 0.128 0.913 2.833 273.856 o
-6 -8 1 40.666 90.026 19.057 5.555 o
-6 -8 2 2.134 -1.289 3.897 144.607 o
-6 -8 3 1.228 3.773 9.698 23.372 o
-6 -8 4 10.363 5.462 5.043 83.963 o
-6 -8 5 2.267 2.999 7.639 37.647 o
-6 -8 6 55.402 29.836 11.968 13.305 o
-6 -8 7 7.255 36.866 12.389 14.058 o
-6 -8 8 0.912 3.259 3.966 139.563 o
-6 -8 9 12.691 18.946 8.573 29.053 o
-6 -8 10 21.616 101.583 18.495 6.019 o
-6 -8 11 16.515 20.516 9.635 22.900 o
-6 -8 12 40.593 49.029 20.127 5.187 o
-6 -7 1 9.195 15.813 13.547 11.898 o
-6 -7 2 18.864 15.437 5.519 65.433 o
-6 -7 3 6.916 19.798 6.041 58.256 o
-6 -7 4 8.507 6.222 3.156 208.254 o
-6 -7 5 98.936 66.957 13.418 8.517 o
-6 -7 6 4.614 -5.389 4.360 115.124 o
-6 -7 7 31.008 45.363 9.355 21.913 o
-6 -7 8 105.071 171.026 27.675 2.371 o
-6 -7 9 25.541 81.903 15.834 8.133 o
-6 -7 10 14.098 9.812 5.932 59.756 o
-6 -7 11 41.168 45.858 12.008 13.533 o
-6 -7 12 0.188 34.337 13.479 12.015 o
-6 -7 13 16.550 81.959 25.462 3.317 o
-6 -7 14 19.681 10.121 7.181 40.507 o
-6 -6 1 121.897 106.703 13.868 6.681 o
-6 -6 2 0.081 1.237 1.662 795.199 o
-6 -6 3 6.496 27.389 5.629 65.641 o
-6 -6 4 25.443 34.904 6.483 43.790 o
-6 -6 5 7.600 25.251 5.729 63.478 o
-6 -6 6 5.754 4.026 6.482 52.010 o
-6 -6 7 15.798 31.872 8.998 25.733 o
-6 -6 8 54.963 80.585 14.806 8.470 o
-6 -6 9 0.147 2.102 3.931 142.222 o
-6 -6 10 43.859 37.231 8.626 23.955 o
-6 -6 11 127.464 214.523 21.204 3.164 o
-6 -6 12 98.833 254.837 22.991 2.907 o
-6 -6 13 66.542 20.325 9.070 20.268 o
-6 -6 14 2.790 -2.031 6.067 59.696 o
-6 -6 15 37.727 8.669 6.984 38.814 o
-6 -5 1 169.104 143.061 12.033 5.460 o
-6 -5 2 4.091 3.402 2.493 345.654 o
-6 -5 3 9.931 26.497 5.252 73.353 o
-6 -5 4 197.973 178.503 13.584 3.983 o
-6 -5 5 14.904 9.235 5.085 79.795 o
-6 -5 6 146.330 183.295 14.246 4.831 o
-6 -5 7 135.765 72.360 10.023 9.469 o
-6 -5 8 416.037 425.696 27.008 0.883 o
-6 -5 9 306.589 205.852 18.958 1.987 o
-6 -5 10 175.325 217.127 19.460 2.981 o
-6 -5 11 0.926 0.854 3.353 195.510 o
-6 -5 12 73.243 125.031 15.227 7.005 o
-6 -5 13 8.722 14.377 5.119 80.446 o
-6 -5 14 3.769 22.297 8.993 26.860 o
-6 -5 15 5.891 26.479 10.011 21.594 o
-6 -5 16 3.090 7.895 10.469 20.025 o
-6 -5 17 12.143 18.007 8.260 31.318 o
-6 -4 1 0.632 4.295 1.795 674.984 o
-6 -4 2 70.093 91.824 9.265 15.086 o
-6 -4 3 63.924 127.543 11.730 10.462 o
-6 -4 4 235.850 386.683 23.341 1.611 o
-6 -4 5 986.125 1057.490 37.770 0.189 o
-6 -4 6 0.460 9.578 5.425 74.423 o
-6 -4 7 144.311 237.102 22.097 2.763 o
-6 -4 8 15.408 93.263 11.769 14.131 o
-6 -4 9 92.054 228.216 28.305 2.220 o
-6 -4 10 119.968 54.580 11.714 9.403 o
-6 -4 11 12.811 26.651 6.226 52.608 o
-6 -4 12 8.199 2.060 2.148 440.507 o
-6 -4 13 58.876 116.944 13.935 8.607 o
-6 -4 14 0.002 14.223 4.807 94.261 o
-6 -4 15 6.934 8.179 23.703 3.910 o
-6 -4 16 0.153 3.990 6.974 45.199 o
-6 -4 17 5.582 1.175 4.727 97.687 o
-6 -4 18 5.254 0.584 3.302 199.142 o
-6 -4 19 26.722 25.890 16.900 7.515 o
-6 -3 1 47.594 60.649 6.256 33.229 o
-6 -3 2 3.910 1.628 1.666 764.821 o
-6 -3 3 418.068 426.947 18.442 1.039 o
-6 -3 4 1132.250 1470.790 43.359 0.126 o
-6 -3 5 21.029 7.841 6.549 48.155 o
-6 -3 6 67.509 31.859 8.190 22.415 o
-6 -3 7 395.259 391.544 18.502 1.158 o
-6 -3 8 66.266 13.101 2.581 72.572 o
-6 -3 9 108.435 152.216 10.097 8.670 o
-6 -3 10 160.443 110.379 8.239 7.994 o
-6 -3 11 85.731 22.746 3.786 39.010 o
-6 -3 12 132.630 227.688 18.437 3.602 o
-6 -3 13 122.404 299.632 21.565 2.766 o
-6 -3 14 85.236 57.154 9.235 15.376 o
-6 -3 15 1.222 6.252 6.911 45.964 o
-6 -3 16 3.747 5.601 4.248 120.562 o
-6 -3 17 69.269 146.914 23.270 3.478 o
-6 -3 18 38.563 39.910 12.177 13.446 o
-6 -3 19 8.737 13.075 7.663 36.794 o
-6 -3 20 7.594 -5.296 7.823 35.786 o
-6 -2 1 229.313 273.656 9.668 3.184 o
-6 -2 2 314.834 460.824 13.255 1.466 o
-6 -2 3 92.337 142.884 12.032 8.323 o
-6 -2 4 62.849 93.870 9.619 15.041 o
-6 -2 5 36.400 48.109 3.845 70.794 o
-6 -2 6 583.584 686.124 25.407 0.492 o
-6 -2 7 999.306 1152.110 38.697 0.175 o
-6 -2 8 42.332 79.722 6.489 30.463 o
-6 -2 9 274.147 262.120 12.380 2.485 o
-6 -2 10 617.042 557.288 19.172 0.558 o
-6 -2 11 295.327 367.420 15.751 1.731 o
-6 -2 12 787.734 781.267 30.171 0.310 o
-6 -2 13 92.255 109.797 12.550 8.659 o
-6 -2 14 38.462 36.732 7.739 29.603 o
-6 -2 15 88.764 141.934 14.793 6.615 o
-6 -2 16 28.720 28.087 6.879 39.649 o
-6 -2 17 1.815 5.403 5.075 85.071 o
-6 -2 18 167.796 117.373 20.210 3.452 o
-6 -2 19 3.030 0.982 4.304 118.359 o
-6 -2 20 23.997 40.957 12.985 12.395 o
-6 -2 21 2.629 -0.359 3.932 141.959 o
-6 -1 1 131.979 131.104 7.268 9.703 o
-6 -1 2 2039.490 1936.580 48.471 0.052 o
-6 -1 3 453.127 375.372 20.266 0.982 o
-6 -1 4 481.133 467.096 17.902 0.847 o
-6 -1 5 656.893 793.044 37.446 0.347 o
-6 -1 6 1125.190 971.800 43.786 0.163 o
-6 -1 7 60.761 99.651 6.536 22.629 o
-6 -1 8 674.134 515.421 14.306 0.540 o
-6 -1 9 1243.400 1173.910 36.733 0.135 o
-6 -1 10 9.953 7.055 1.722 582.355 o
-6 -1 11 137.949 191.203 10.928 6.069 o
-6 -1 12 1.551 2.473 1.712 741.535 o
-6 -1 13 5.638 20.620 4.000 128.375 o
-6 -1 14 226.275 310.252 17.311 2.321 o
-6 -1 15 33.221 30.229 5.505 54.009 o
-6 -1 16 2.308 0.939 3.161 219.376 o
-6 -1 17 16.648 29.948 9.725 22.206 o
-6 -1 18 25.865 37.933 11.400 15.832 o
-6 -1 19 3.241 7.085 5.541 71.139 o
-6 -1 20 0.762 -5.973 5.420 74.862 o
-6 -1 21 8.917 0.188 4.522 105.657 o
-6 -1 22 12.527 49.768 20.170 5.324 o
-6 0 1 0.047 -1.574 2.412 377.844 o
-6 0 2 197.319 56.178 5.996 8.378 o
-6 0 3 0.010 2.115 1.980 560.217 o
-6 0 4 210.695 236.072 18.032 2.727 o
-6 0 5 0.124 0.780 0.788 3536.890 o
-6 0 6 20.171 0.051 1.796 435.940 o
-6 0 7 0.320 -0.461 1.389 1139.630 o
-6 0 8 821.555 723.108 59.215 0.226 o
-6 0 9 0.000 3.293 2.114 490.581 o
-6 0 10 375.722 304.122 17.527 1.420 o
-6 0 11 0.921 0.762 2.103 496.543 o
-6 0 12 142.928 123.634 11.791 6.749 o
-6 0 13 0.553 -0.185 2.391 384.607 o
-6 0 14 546.355 577.748 28.269 0.563 o
-6 0 15 0.001 1.083 4.310 118.376 o
-6 0 16 80.003 101.060 12.630 9.342 o
-6 0 17 0.038 3.115 5.713 67.354 o
-6 0 18 9.392 29.850 9.321 24.569 o
-6 0 19 0.128 1.359 12.400 14.302 o
-6 0 20 1.234 3.301 16.322 8.253 o
-6 0 21 0.146 -9.574 6.666 49.487 o
-6 0 22 64.541 39.507 17.399 6.576 o
-6 1 1 135.730 125.226 12.689 6.539 o
-6 1 2 2045.880 2061.010 75.712 0.046 o
-6 1 3 463.663 370.832 33.852 0.727 o
-6 1 4 453.833 411.385 24.595 0.865 o
-6 1 5 658.155 813.881 93.784 0.159 o
-6 1 6 1143.580 1062.510 124.517 0.079 o
-6 1 7 65.574 101.967 9.477 14.631 o
-6 1 8 684.432 490.877 37.167 0.420 o
-6 1 9 1220.740 1148.170 81.034 0.105 o
-6 1 10 15.502 9.323 3.956 125.956 o
-6 1 11 118.115 207.108 16.915 4.355 o
-6 1 12 1.224 6.653 3.353 193.986 o
-6 1 13 7.797 11.000 3.499 168.722 o
-6 1 14 196.616 310.546 21.625 2.158 o
-6 1 15 34.866 32.754 7.012 36.129 o
-6 1 16 2.688 5.391 4.302 118.025 o
-6 1 17 24.671 21.442 5.860 55.094 o
-6 1 18 23.497 51.196 9.474 21.885 o
-6 1 19 5.427 2.276 8.731 28.773 o
-6 1 20 0.391 8.241 5.284 78.522 o
-6 1 21 5.922 -0.397 4.368 114.341 o
-6 1 22 11.375 26.138 14.601 10.188 o
-6 2 1 223.098 307.513 24.312 1.797 o
-6 2 2 328.648 497.852 33.067 0.853 o
-6 2 3 83.411 150.755 14.943 6.554 o
-6 2 4 66.714 106.278 10.153 13.163 o
-6 2 5 38.364 54.386 10.335 17.461 o
-6 2 6 570.663 726.647 103.705 0.150 o
-6 2 7 981.604 1279.140 132.073 0.075 o
-6 2 8 32.463 86.166 8.466 22.654 o
-6 2 9 300.157 296.628 15.014 1.961 o
-6 2 10 673.769 612.199 33.542 0.407 o
-6 2 11 288.672 426.632 25.264 1.249 o
-6 2 12 765.218 907.661 47.018 0.249 o
-6 2 13 84.263 114.475 12.868 8.632 o
-6 2 14 43.544 30.603 6.405 38.952 o
-6 2 15 88.261 148.245 17.483 5.198 o
-6 2 16 21.253 35.920 7.493 34.912 o
-6 2 17 1.561 -1.009 4.540 106.619 o
-6 2 18 158.748 107.144 12.657 6.090 o
-6 2 19 2.415 0.072 3.499 179.228 o
-6 2 20 18.810 35.544 15.284 9.180 o
-6 3 1 43.754 64.344 10.781 15.496 o
-6 3 2 3.511 0.213 1.096 1745.540 o
-6 3 3 414.161 476.279 56.403 0.433 o
-6 3 4 1054.050 1423.650 77.299 0.111 o
-6 3 5 23.156 19.176 7.115 39.695 o
-6 3 6 66.150 26.902 5.579 37.039 o
-6 3 7 339.863 425.996 22.736 1.171 o
-6 3 8 73.660 16.763 3.133 55.222 o
-6 3 9 121.434 157.790 10.720 7.488 o
-6 3 10 155.208 123.899 12.728 5.910 o
-6 3 11 99.708 30.613 5.713 24.003 o
-6 3 12 128.028 222.121 15.826 4.354 o
-6 3 13 132.715 268.148 31.362 1.691 o
-6 3 14 85.223 61.628 8.287 17.091 o
-6 3 15 2.783 4.589 2.710 294.778 o
-6 3 16 5.806 7.112 4.096 128.105 o
-6 3 17 61.599 128.217 15.976 6.754 o
-6 3 18 35.783 40.690 12.065 13.778 o
-6 3 19 8.677 5.564 4.985 86.458 o
-6 3 20 6.899 29.278 14.226 10.757 o
-6 4 1 0.679 4.541 1.878 616.843 o
-6 4 2 74.062 81.799 6.102 22.882 o
-6 4 3 56.454 106.887 11.599 11.677 o
-6 4 4 227.863 342.423 31.637 1.286 o
-6 4 5 965.543 960.794 99.074 0.115 o
-6 4 6 0.732 8.202 3.349 194.318 o
-6 4 7 123.694 249.645 20.132 3.233 o
-6 4 8 14.989 90.691 7.933 27.792 o
-6 4 9 92.547 269.254 16.802 4.295 o
-6 4 10 108.091 51.268 7.412 16.333 o
-6 4 11 16.363 20.428 5.545 64.876 o
-6 4 12 3.517 5.555 3.187 212.875 o
-6 4 13 49.011 106.963 13.013 10.175 o
-6 4 14 0.064 9.892 4.534 106.411 o
-6 4 15 5.742 19.563 8.711 28.578 o
-6 4 16 0.016 2.440 5.560 71.123 o
-6 4 17 8.649 1.409 14.099 11.041 o
-6 4 18 5.598 3.076 6.516 51.520 o
-6 4 19 31.820 38.798 17.186 7.162 o
-6 4 20 0.375 -0.123 3.156 220.815 o
-6 5 1 185.070 132.908 10.878 5.495 o
-6 5 2 3.951 5.672 1.912 569.512 o
-6 5 3 5.148 27.956 6.122 56.241 o
-6 5 4 189.651 151.019 25.804 2.246 o
-6 5 5 15.056 4.460 3.577 155.695 o
-6 5 6 162.185 188.342 16.989 3.783 o
-6 5 7 138.752 76.764 13.341 6.919 o
-6 5 8 408.245 457.115 32.490 0.768 o
-6 5 9 282.260 194.392 19.041 2.190 o
-6 5 10 175.694 241.778 21.934 2.519 o
-6 5 11 0.715 6.276 3.981 138.202 o
-6 5 12 75.856 125.175 17.411 5.660 o
-6 5 13 8.793 4.483 4.545 103.751 o
-6 5 14 1.840 14.008 6.163 57.370 o
-6 5 15 4.261 41.241 10.618 19.040 o
-6 5 16 4.867 17.510 7.232 41.388 o
-6 5 17 13.643 28.228 10.918 17.932 o
-6 5 18 0.016 6.484 8.603 29.697 o
-6 6 1 135.372 136.148 17.358 4.528 o
-6 6 2 0.116 -0.153 2.377 389.202 o
-6 6 3 5.577 24.895 6.160 55.818 o
-6 6 4 30.925 34.156 7.680 31.760 o
-6 6 5 7.352 29.255 7.144 41.348 o
-6 6 6 5.351 9.377 4.930 88.831 o
-6 6 7 19.078 38.929 8.912 25.561 o
-6 6 8 50.212 101.564 14.284 8.816 o
-6 6 9 1.255 2.797 2.811 277.157 o
-6 6 10 45.773 19.226 8.217 27.085 o
-6 6 11 112.543 254.844 24.161 2.618 o
-6 6 12 105.194 262.003 25.260 2.481 o
-6 6 13 62.552 2.036 4.291 60.352 o
-6 6 14 1.971 1.677 5.310 77.888 o
-6 6 15 33.731 19.811 10.522 18.449 o
-6 7 1 11.535 41.663 11.945 14.923 o
-6 7 2 15.735 37.316 11.088 17.153 o
-6 7 3 10.088 5.709 13.495 12.027 o
-6 7 4 10.462 7.861 5.877 62.008 o
-6 7 5 98.255 73.248 12.385 9.379 o
-6 7 6 7.963 4.188 2.749 274.686 o
-6 7 7 37.281 59.270 11.238 15.038 o
-6 7 8 98.891 184.168 20.489 3.777 o
-6 7 9 26.094 80.021 13.828 10.439 o
-6 7 10 16.549 2.017 7.053 43.014 o
-6 7 11 38.773 41.663 14.572 9.637 o
-6 7 12 0.308 2.872 6.457 52.725 o
-6 7 13 21.895 55.356 20.962 4.883 o
-6 8 1 38.180 67.453 15.181 8.675 o
-6 8 2 3.290 6.172 6.229 56.416 o
-6 8 3 0.906 3.834 8.082 33.649 o
-6 8 4 8.450 3.924 5.593 69.241 o
-6 8 5 4.154 15.482 8.132 32.940 o
-6 8 6 59.020 35.900 12.272 12.423 o
-6 8 7 5.585 40.352 13.098 12.602 o
-6 8 8 0.646 4.192 4.778 96.167 o
-6 8 9 11.905 31.530 14.020 10.997 o
-6 8 10 25.058 66.591 21.827 4.473 o
-6 8 11 19.427 8.255 8.142 31.983 o
-6 8 12 42.580 48.228 21.639 4.506 o
-6 9 1 0.922 -1.641 5.086 84.987 o
-6 9 2 0.387 2.121 5.386 75.771 o
-6 9 3 3.081 20.695 13.345 12.293 o
-6 9 4 3.700 1.569 5.568 70.718 o
-5 -9 4 4.814 6.417 7.892 35.148 o
-5 -8 1 2.977 -8.366 6.155 57.988 o
-5 -8 2 0.006 -2.918 2.907 260.227 o
-5 -8 3 4.459 1.569 4.846 93.163 o
-5 -8 4 0.777 7.300 5.621 69.420 o
-5 -8 5 54.016 82.095 32.348 2.024 o
-5 -8 6 36.622 78.764 17.075 6.931 o
-5 -8 7 3.174 -2.199 7.537 38.679 o
-5 -8 8 0.670 -2.120 3.342 196.853 o
-5 -8 9 13.987 -2.058 4.012 129.624 o
-5 -8 10 35.405 123.080 20.264 4.860 o
-5 -8 11 1.917 14.184 11.729 15.944 o
-5 -8 12 0.151 8.088 9.238 25.746 o
-5 -7 1 0.368 0.097 5.361 76.523 o
-5 -7 2 98.892 109.231 17.219 5.478 o
-5 -7 3 28.895 30.464 9.605 21.789 o
-5 -7 4 122.710 188.369 41.881 1.120 o
-5 -7 5 5.295 12.761 5.584 69.188 o
-5 -7 6 14.322 12.086 7.761 35.422 o
-5 -7 7 82.228 78.770 16.962 6.219 o
-5 -7 8 99.534 64.911 11.626 10.334 o
-5 -7 9 36.749 102.795 17.682 6.333 o
-5 -7 10 21.885 37.351 9.578 22.199 o
-5 -7 11 35.741 16.798 6.009 49.093 o
-5 -7 12 31.144 88.828 19.053 5.661 o
-5 -7 13 15.021 74.832 25.216 3.393 o
-5 -7 14 6.392 20.630 13.720 11.605 o
-5 -6 1 1.113 3.909 3.562 172.735 o
-5 -6 2 30.910 14.596 4.295 88.115 o
-5 -6 3 275.846 424.453 21.353 1.450 o
-5 -6 4 0.266 5.024 3.096 228.601 o
-5 -6 5 28.659 3.674 2.481 213.443 o
-5 -6 6 10.317 3.583 1.905 513.663 o
-5 -6 7 59.461 9.989 5.146 48.866 o
-5 -6 8 62.395 42.901 6.173 31.673 o
-5 -6 9 61.656 81.802 12.112 11.362 o
-5 -6 10 149.275 114.473 14.445 5.516 o
-5 -6 11 33.398 79.648 12.697 11.882 o
-5 -6 12 4.404 52.162 10.372 19.684 o
-5 -6 13 61.954 135.299 22.447 3.800 o
-5 -6 14 93.733 110.663 20.838 4.124 o
-5 -6 15 15.846 57.673 15.225 9.136 o
-5 -5 1 484.940 657.773 19.515 0.660 o
-5 -5 2 2.266 -0.284 1.330 1226.810 o
-5 -5 3 15.825 7.191 1.361 622.305 o
-5 -5 4 35.481 52.858 7.081 32.716 o
-5 -5 5 346.357 313.671 30.641 1.064 o
-5 -5 6 19.308 50.852 5.660 53.716 o
-5 -5 7 1.590 1.991 1.790 679.844 o
-5 -5 8 19.708 100.372 17.363 6.804 o
-5 -5 9 268.190 149.868 11.499 3.347 o
-5 -5 10 67.254 144.291 13.998 7.785 o
-5 -5 11 0.033 -1.593 2.372 390.847 o
-5 -5 12 2.469 4.768 3.042 234.958 o
-5 -5 13 18.827 49.771 9.469 22.401 o
-5 -5 14 2.555 24.433 10.111 21.307 o
-5 -5 15 31.461 74.513 17.144 6.982 o
-5 -5 16 0.271 -1.989 6.450 52.857 o
-5 -5 17 1.725 -5.090 5.117 83.928 o
-5 -4 1 9.455 20.166 2.447 285.994 o
-5 -4 2 0.012 6.927 2.149 470.556 o
-5 -4 3 138.292 172.397 11.999 5.968 o
-5 -4 4 244.486 168.131 11.956 3.524 o
-5 -4 5 147.207 211.088 14.334 4.488 o
-5 -4 6 552.269 700.410 33.592 0.462 o
-5 -4 7 0.818 22.808 3.645 157.624 o
-5 -4 8 389.007 689.111 20.754 0.778 o
-5 -4 9 5.684 73.668 6.642 42.169 o
-5 -4 10 208.642 209.093 13.864 3.495 o
-5 -4 11 339.453 409.329 20.398 1.268 o
-5 -4 12 4.067 42.180 6.919 43.380 o
-5 -4 13 111.376 177.889 14.044 5.849 o
-5 -4 14 5.684 15.751 5.127 81.144 o
-5 -4 15 6.296 3.613 10.324 20.577 o
-5 -4 16 1.257 -0.720 4.003 137.170 o
-5 -4 17 26.355 106.146 35.855 1.674 o
-5 -4 18 95.146 39.978 13.787 8.826 o
-5 -3 1 29.444 33.728 2.860 124.013 o
-5 -3 2 229.557 165.103 8.597 4.329 o
-5 -3 3 186.137 197.435 9.682 4.831 o
-5 -3 4 302.644 209.194 14.421 2.322 o
-5 -3 5 712.550 731.416 35.496 0.342 o
-5 -3 6 14.164 14.553 3.562 149.224 o
-5 -3 7 62.360 28.137 3.524 57.185 o
-5 -3 8 200.697 323.135 13.061 2.913 o
-5 -3 9 270.972 383.052 14.762 1.879 o
-5 -3 10 0.414 19.993 3.124 214.756 o
-5 -3 11 597.234 918.767 27.565 0.384 o
-5 -3 12 282.655 481.161 26.186 1.154 o
-5 -3 13 24.142 11.685 4.173 102.655 o
-5 -3 14 1.435 0.815 2.250 433.263 o
-5 -3 15 6.623 7.848 4.794 93.658 o
-5 -3 16 17.692 62.738 16.384 7.878 o
-5 -3 17 10.412 -10.441 6.645 49.270 o
-5 -3 18 4.148 14.671 7.629 37.402 o
-5 -3 19 20.783 52.591 14.680 9.758 o
-5 -3 20 0.028 3.953 14.543 10.397 o
-5 -2 1 82.747 193.294 7.759 10.808 o
-5 -2 2 627.566 824.976 17.968 0.428 o
-5 -2 3 341.025 529.478 15.854 1.166 o
-5 -2 4 3547.810 3748.650 96.262 0.016 o
-5 -2 5 1347.010 1341.010 24.069 0.118 o
-5 -2 6 2.373 0.693 0.988 2180.600 o
-5 -2 7 513.876 535.929 20.054 0.704 o
-5 -2 8 8.643 8.705 2.251 377.780 o
-5 -2 9 95.742 158.815 9.160 9.972 o
-5 -2 10 953.674 1063.050 26.593 0.209 o
-5 -2 11 39.761 3.774 2.090 181.685 o
-5 -2 12 100.915 80.750 7.713 14.815 o
-5 -2 13 4.096 5.327 2.956 245.944 o
-5 -2 14 170.211 91.652 11.161 6.612 o
-5 -2 15 11.360 43.819 7.837 33.147 o
-5 -2 16 0.283 1.531 3.649 165.056 o
-5 -2 17 82.270 39.771 11.477 12.338 o
-5 -2 18 40.650 31.378 10.531 17.587 o
-5 -2 19 0.431 1.551 4.351 116.138 o
-5 -2 20 6.489 7.345 12.584 13.848 o
-5 -2 21 1.165 12.016 10.448 20.103 o
-5 -1 1 342.939 305.284 9.680 1.851 o
-5 -1 2 66.135 165.802 7.830 13.728 o
-5 -1 3 829.342 988.543 41.507 0.231 o
-5 -1 4 392.445 181.183 9.000 1.962 o
-5 -1 5 171.192 366.537 13.698 2.944 o
-5 -1 6 1181.150 1408.310 32.157 0.130 o
-5 -1 7 1124.330 1201.360 23.574 0.159 o
-5 -1 8 2290.320 2390.760 69.438 0.037 o
-5 -1 9 1323.900 1608.510 43.092 0.100 o
-5 -1 10 19.070 36.302 5.013 70.271 o
-5 -1 11 31.412 54.480 6.256 40.382 o
-5 -1 12 134.253 207.335 11.002 5.894 o
-5 -1 13 11.357 55.941 6.608 43.502 o
-5 -1 14 3.191 15.948 3.517 170.161 o
-5 -1 15 3.446 1.463 3.626 166.261 o
-5 -1 16 35.286 53.048 13.042 11.753 o
-5 -1 17 2.030 4.851 4.615 102.823 o
-5 -1 18 92.133 131.173 20.943 4.003 o
-5 -1 19 33.251 25.855 17.594 6.892 o
-5 -1 20 3.317 11.262 6.910 45.709 o
-5 -1 21 57.343 56.523 15.142 8.396 o
-5 0 1 0.036 2.164 1.683 774.956 o
-5 0 2 0.053 1.639 1.802 676.848 o
-5 0 3 160.954 73.507 5.204 10.924 o
-5 0 4 0.010 1.086 1.370 1171.010 o
-5 0 5 10.092 40.827 3.433 138.094 o
-5 0 6 0.073 0.494 0.950 2433.520 o
-5 0 7 6510.370 7305.630 308.268 0.004 o
-5 0 8 0.002 3.586 1.548 911.962 o
-5 0 9 6541.680 6223.850 111.672 0.005 o
-5 0 10 0.035 0.965 1.647 810.767 o
-5 0 11 354.449 634.253 32.797 0.713 o
-5 0 12 0.287 4.434 3.129 224.004 o
-5 0 13 611.726 389.606 21.921 0.651 o
-5 0 14 0.004 2.214 2.500 351.404 o
-5 0 15 107.961 96.677 11.517 9.107 o
-5 0 16 0.126 -4.153 3.449 184.825 o
-5 0 17 120.950 196.098 27.691 2.243 o
-5 0 18 0.049 2.633 3.785 153.409 o
-5 0 19 0.622 11.649 6.947 45.398 o
-5 0 20 0.082 10.144 8.411 31.036 o
-5 0 21 89.812 187.680 22.038 3.458 o
-5 0 22 0.035 0.203 4.588 104.449 o
-5 1 1 332.016 338.451 23.866 1.302 o
-5 1 2 44.374 183.738 10.313 11.638 o
-5 1 3 834.420 1072.390 53.561 0.196 o
-5 1 4 377.236 186.023 11.465 1.969 o
-5 1 5 171.063 394.946 22.081 2.013 o
-5 1 6 1199.170 1360.790 64.832 0.110 o
-5 1 7 1123.550 1149.940 33.467 0.157 o
-5 1 8 2400.530 2357.330 123.816 0.030 o
-5 1 9 1311.750 1615.540 59.858 0.093 o
-5 1 10 7.424 47.869 8.690 27.526 o
-5 1 11 26.127 60.652 8.049 27.848 o
-5 1 12 142.630 226.351 18.430 3.485 o
-5 1 13 7.114 53.965 7.952 32.145 o
-5 1 14 4.390 12.302 4.184 122.161 o
-5 1 15 1.559 1.331 2.986 246.050 o
-5 1 16 35.193 44.322 8.262 26.523 o
-5 1 17 4.054 6.700 4.307 117.028 o
-5 1 18 82.605 126.525 19.264 4.720 o
-5 1 19 31.020 31.761 8.870 24.856 o
-5 1 20 2.080 13.911 5.824 64.154 o
-5 1 21 63.546 71.646 15.506 7.732 o
-5 1 22 51.781 61.953 15.442 8.176 o
-5 2 1 75.141 214.006 9.717 9.084 o
-5 2 2 617.257 830.746 29.792 0.390 o
-5 2 3 365.681 591.686 24.288 0.866 o
-5 2 4 3606.270 3944.510 196.880 0.012 o
-5 2 5 1305.480 1252.210 43.004 0.119 o
-5 2 6 4.217 1.231 1.543 884.608 o
-5 2 7 472.125 576.894 31.493 0.616 o
-5 2 8 10.933 8.462 2.261 358.348 o
-5 2 9 81.509 170.605 16.060 5.759 o
-5 2 10 923.975 1055.770 78.135 0.142 o
-5 2 11 46.234 7.898 3.679 88.787 o
-5 2 12 112.307 95.364 16.874 5.515 o
-5 2 13 4.722 5.368 2.567 321.802 o
-5 2 14 182.930 117.759 12.582 5.250 o
-5 2 15 9.091 44.671 8.035 31.890 o
-5 2 16 0.066 -0.016 2.842 272.226 o
-5 2 17 77.811 42.861 7.651 21.470 o
-5 2 18 42.359 39.963 7.529 29.716 o
-5 2 19 1.168 4.311 4.129 128.589 o
-5 2 20 6.590 12.518 6.864 45.952 o
-5 3 1 30.397 27.886 4.659 72.181 o
-5 3 2 220.591 176.220 13.507 3.622 o
-5 3 3 182.540 226.328 11.049 4.299 o
-5 3 4 302.436 234.066 10.158 2.479 o
-5 3 5 764.152 770.851 20.349 0.349 o
-5 3 6 11.899 15.529 4.044 121.646 o
-5 3 7 68.165 32.740 5.596 34.814 o
-5 3 8 211.630 313.477 23.719 1.885 o
-5 3 9 269.179 386.584 25.072 1.391 o
-5 3 10 0.453 24.402 5.171 80.106 o
-5 3 11 580.656 907.416 90.963 0.169 o
-5 3 12 306.632 467.692 26.010 1.112 o
-5 3 13 24.645 14.168 4.101 103.217 o
-5 3 14 1.871 11.686 4.199 122.887 o
-5 3 15 5.929 3.041 2.450 351.724 o
-5 3 16 17.397 69.913 9.428 21.755 o
-5 3 17 8.434 5.172 2.748 271.812 o
-5 3 18 5.590 13.238 6.059 58.836 o
-5 3 19 23.631 43.414 16.642 7.686 o
-5 4 1 7.751 26.051 3.457 158.566 o
-5 4 2 0.006 5.358 1.983 554.620 o
-5 4 3 144.479 159.774 10.818 6.444 o
-5 4 4 250.557 158.001 11.781 3.531 o
-5 4 5 128.396 189.487 19.313 3.698 o
-5 4 6 539.432 679.560 24.650 0.543 o
-5 4 7 0.093 23.904 3.787 146.715 o
-5 4 8 374.670 704.775 32.574 0.644 o
-5 4 9 9.502 77.620 8.027 29.396 o
-5 4 10 224.354 204.402 14.262 3.241 o
-5 4 11 380.229 399.203 23.323 1.077 o
-5 4 12 8.119 44.546 7.787 33.963 o
-5 4 13 107.939 159.902 15.744 5.429 o
-5 4 14 4.407 20.284 7.533 38.124 o
-5 4 15 9.546 8.479 5.635 67.465 o
-5 4 16 2.212 11.098 8.353 31.397 o
-5 4 17 27.712 68.369 16.277 7.798 o
-5 4 18 91.657 41.655 12.914 9.854 o
-5 4 19 4.531 18.159 12.537 13.917 o
-5 4 20 1.069 -10.748 9.843 22.699 o
-5 5 1 485.872 626.344 25.766 0.627 o
-5 5 2 2.375 0.380 2.255 430.064 o
-5 5 3 25.425 13.636 2.896 168.917 o
-5 5 4 37.971 61.399 5.615 41.867 o
-5 5 5 339.407 401.289 16.148 1.410 o
-5 5 6 14.298 57.037 6.029 49.408 o
-5 5 7 1.533 -0.102 3.450 184.623 o
-5 5 8 20.304 133.965 15.257 8.247 o
-5 5 9 256.948 171.920 17.665 2.630 o
-5 5 10 66.201 173.257 17.957 5.157 o
-5 5 11 0.985 -1.995 5.389 75.704 o
-5 5 12 1.405 -3.286 3.455 184.126 o
-5 5 13 19.154 53.408 11.481 15.578 o
-5 5 14 0.464 29.074 8.542 29.728 o
-5 5 15 31.145 89.393 15.174 8.595 o
-5 5 16 1.929 4.773 5.125 83.471 o
-5 5 17 1.332 6.905 8.042 33.946 o
-5 5 18 2.663 -5.672 7.797 36.157 o
-5 6 1 2.725 4.146 2.566 328.795 o
-5 6 2 18.595 17.389 5.014 77.285 o
-5 6 3 275.993 398.148 28.748 1.201 o
-5 6 4 1.890 8.659 4.043 133.129 o
-5 6 5 32.611 3.363 3.214 141.222 o
-5 6 6 12.486 0.008 3.991 132.291 o
-5 6 7 62.518 15.015 5.112 45.822 o
-5 6 8 73.600 47.249 10.025 15.418 o
-5 6 9 69.480 92.327 14.092 8.519 o
-5 6 10 148.415 104.449 15.256 5.336 o
-5 6 11 31.453 91.948 14.418 9.376 o
-5 6 12 4.168 71.562 12.822 12.822 o
-5 6 13 56.818 110.135 16.755 6.536 o
-5 6 14 96.728 111.108 17.775 5.245 o
-5 6 15 15.279 53.450 12.006 14.467 o
-5 7 1 1.258 -0.268 4.633 102.424 o
-5 7 2 92.364 138.359 20.796 4.008 o
-5 7 3 22.841 32.048 7.467 35.191 o
-5 7 4 133.462 221.950 24.350 2.560 o
-5 7 5 5.425 3.366 2.910 252.924 o
-5 7 6 10.263 21.116 6.730 46.568 o
-5 7 7 92.450 86.571 13.581 8.251 o
-5 7 8 105.920 73.763 12.925 8.526 o
-5 7 9 33.957 132.624 17.156 6.486 o
-5 7 10 21.660 38.856 13.006 12.447 o
-5 7 11 41.008 6.045 5.707 53.359 o
-5 7 12 30.823 73.239 13.818 10.413 o
-5 7 13 14.715 74.593 17.322 7.047 o
-5 8 1 4.091 -3.758 10.623 19.473 o
-5 8 2 0.014 -2.121 5.294 78.473 o
-5 8 3 4.421 16.642 8.076 33.350 o
-5 8 4 1.021 -6.050 7.648 37.593 o
-5 8 5 50.142 73.594 16.452 7.226 o
-5 8 6 34.306 61.878 11.784 13.935 o
-5 8 7 4.187 -1.395 4.330 116.810 o
-5 8 8 1.095 3.306 3.821 150.272 o
-5 8 9 17.598 0.683 4.634 95.992 o
-5 8 10 36.703 86.184 25.037 3.356 o
-5 8 11 1.982 1.393 4.068 132.633 o
-5 9 1 7.241 22.972 14.679 10.132 o
-5 9 2 40.938 85.172 26.794 2.936 o
-5 9 3 3.538 17.558 12.368 14.313 o
-5 9 4 2.761 13.892 14.379 10.615 o
-4 -8 1 1.421 -5.537 5.071 85.486 o
-4 -8 2 53.974 93.098 18.868 5.484 o
-4 -8 3 0.855 13.000 8.672 29.150 o
-4 -8 4 0.498 0.041 3.336 197.600 o
-4 -8 5 63.266 127.870 21.485 4.121 o
-4 -8 6 8.069 47.341 13.077 12.530 o
-4 -8 7 24.003 55.903 18.910 5.950 o
-4 -8 8 13.559 66.378 12.216 13.835 o
-4 -8 9 0.420 1.145 6.074 59.594 o
-4 -8 10 2.698 0.803 4.928 90.396 o
-4 -8 11 37.188 23.160 15.605 8.654 o
-4 -8 12 2.934 10.260 9.677 23.410 o
-4 -7 1 52.767 52.937 7.855 24.522 o
-4 -7 2 139.260 159.160 22.412 3.073 o
-4 -7 3 3.380 15.197 5.179 80.394 o
-4 -7 4 30.917 71.745 11.834 13.753 o
-4 -7 5 1.453 -0.960 2.399 381.461 o
-4 -7 6 2.327 28.803 7.080 42.810 o
-4 -7 7 142.013 275.826 31.943 1.606 o
-4 -7 8 1.635 27.416 7.677 36.659 o
-4 -7 9 38.019 63.564 9.550 19.479 o
-4 -7 10 72.115 69.264 10.278 14.061 o
-4 -7 11 42.108 155.779 23.844 3.476 o
-4 -7 12 1.548 45.833 13.529 11.842 o
-4 -7 13 22.495 4.070 13.343 12.169 o
-4 -7 14 2.056 -14.336 11.608 16.318 o
-4 -6 1 149.795 258.124 14.029 4.049 o
-4 -6 2 0.025 15.120 4.374 113.445 o
-4 -6 3 12.436 5.965 2.126 394.199 o
-4 -6 4 16.279 8.052 2.263 316.081 o
-4 -6 5 45.078 55.419 10.256 17.076 o
-4 -6 6 32.693 67.561 11.770 13.901 o
-4 -6 7 259.904 381.033 46.976 0.707 o
-4 -6 8 485.996 592.005 28.610 0.621 o
-4 -6 9 569.020 645.990 30.027 0.495 o
-4 -6 10 56.486 93.487 13.127 10.007 o
-4 -6 11 61.162 19.971 6.927 31.173 o
-4 -6 12 0.117 7.600 6.661 49.487 o
-4 -6 13 42.872 56.672 14.499 9.446 o
-4 -6 14 4.649 30.910 10.089 21.229 o
-4 -6 15 7.918 56.949 18.078 6.610 o
-4 -5 1 162.234 149.926 10.122 6.228 o
-4 -5 2 120.120 145.447 10.952 7.700 o
-4 -5 3 22.386 14.042 2.706 196.740 o
-4 -5 4 174.567 246.596 11.537 4.163 o
-4 -5 5 90.321 28.449 4.029 33.854 o
-4 -5 6 463.770 503.523 16.640 0.860 o
-4 -5 7 7.028 36.538 5.285 71.437 o
-4 -5 8 61.831 105.758 8.950 15.856 o
-4 -5 9 159.421 84.021 8.966 8.418 o
-4 -5 10 27.831 75.176 10.399 17.289 o
-4 -5 11 48.931 53.224 7.515 26.852 o
-4 -5 12 7.948 20.593 4.772 90.668 o
-4 -5 13 22.410 -4.858 5.670 63.946 o
-4 -5 14 0.242 6.838 4.785 95.776 o
-4 -5 15 2.657 16.759 5.609 68.727 o
-4 -5 16 10.899 40.474 13.087 12.524 o
-4 -5 17 1.217 7.577 20.227 5.374 o
-4 -4 1 680.250 853.543 35.646 0.327 o
-4 -4 2 458.874 642.400 44.965 0.465 o
-4 -4 3 1374.340 2109.990 64.231 0.072 o
-4 -4 4 308.534 224.375 9.571 2.498 o
-4 -4 5 2.975 1.572 1.295 1264.030 o
-4 -4 6 360.396 292.438 13.797 1.649 o
-4 -4 7 85.599 103.898 7.844 15.084 o
-4 -4 8 484.841 709.490 21.596 0.610 o
-4 -4 9 281.133 375.765 14.658 1.841 o
-4 -4 10 411.216 434.175 29.629 0.834 o
-4 -4 11 2.240 11.225 3.054 228.985 o
-4 -4 12 213.733 118.251 10.933 4.872 o
-4 -4 13 152.890 74.317 13.359 6.479 o
-4 -4 14 45.125 45.560 9.270 20.652 o
-4 -4 15 156.874 112.529 14.945 5.165 o
-4 -4 16 46.431 68.556 12.110 12.518 o
-4 -4 17 28.322 34.458 8.699 25.898 o
-4 -4 18 0.543 4.059 7.504 39.032 o
-4 -3 1 404.314 334.089 9.359 1.426 o
-4 -3 2 243.208 274.010 10.614 2.907 o
-4 -3 3 757.449 810.349 21.028 0.340 o
-4 -3 4 17.114 23.732 3.686 126.920 o
-4 -3 5 2.290 1.643 1.264 1340.800 o
-4 -3 6 1358.100 1814.270 44.020 0.089 o
-4 -3 7 53.874 162.095 7.130 16.678 o
-4 -3 8 30.427 36.937 3.747 89.076 o
-4 -3 9 95.353 88.184 5.961 18.001 o
-4 -3 10 127.980 209.921 13.650 5.139 o
-4 -3 11 141.659 323.004 11.833 4.004 o
-4 -3 12 375.872 209.117 13.996 1.796 o
-4 -3 13 159.880 169.828 12.778 5.112 o
-4 -3 14 0.986 14.859 4.453 109.156 o
-4 -3 15 134.144 235.840 21.559 2.941 o
-4 -3 16 0.586 15.711 8.468 30.529 o
-4 -3 17 4.364 20.725 7.026 43.697 o
-4 -3 18 10.679 0.881 12.573 13.862 o
-4 -3 19 28.616 46.081 13.367 11.541 o
-4 -2 1 130.515 48.862 2.705 19.233 o
-4 -2 2 939.275 1142.160 24.346 0.204 o
-4 -2 3 23.928 19.681 2.606 185.221 o
-4 -2 4 104.319 64.266 4.678 20.971 o
-4 -2 5 1009.540 1175.630 27.201 0.182 o
-4 -2 6 20.855 9.677 1.781 359.708 o
-4 -2 7 0.409 8.526 2.131 474.048 o
-4 -2 8 502.261 298.037 11.671 1.085 o
-4 -2 9 141.014 231.005 10.506 5.452 o
-4 -2 10 11.592 60.655 5.229 62.543 o
-4 -2 11 38.136 55.862 8.348 24.672 o
-4 -2 12 630.748 624.138 27.674 0.465 o
-4 -2 13 277.272 293.741 18.831 1.902 o
-4 -2 14 58.538 6.506 3.076 83.027 o
-4 -2 15 7.816 50.564 11.813 15.228 o
-4 -2 16 27.106 59.569 13.357 11.405 o
-4 -2 17 5.353 1.219 5.346 76.514 o
-4 -2 18 3.522 3.227 4.342 115.930 o
-4 -2 19 11.921 45.723 13.748 11.312 o
-4 -2 20 22.735 34.926 12.473 13.509 o
-4 -1 1 1877.580 2156.440 49.826 0.053 o
-4 -1 2 468.704 396.894 14.190 1.007 o
-4 -1 3 106.309 89.271 5.745 16.348 o
-4 -1 4 207.516 246.082 10.018 3.746 o
-4 -1 5 1657.010 1913.580 48.038 0.067 o
-4 -1 6 975.921 1218.220 31.049 0.181 o
-4 -1 7 6.191 11.693 1.982 480.965 o
-4 -1 8 46.552 44.183 3.939 60.237 o
-4 -1 9 298.183 366.905 13.106 1.825 o
-4 -1 10 635.366 655.341 27.022 0.452 o
-4 -1 11 14.746 3.704 2.607 274.049 o
-4 -1 12 33.416 49.427 5.623 47.119 o
-4 -1 13 113.105 177.356 12.402 6.562 o
-4 -1 14 322.894 384.135 17.211 1.488 o
-4 -1 15 44.320 70.553 7.327 26.849 o
-4 -1 16 17.116 9.627 6.864 44.645 o
-4 -1 17 8.220 4.727 3.818 145.893 o
-4 -1 18 2.078 1.795 18.658 6.316 o
-4 -1 19 36.000 23.143 15.266 9.044 o
-4 -1 20 0.671 4.385 5.001 87.801 o
-4 -1 21 23.112 -2.755 11.118 17.453 o
-4 0 1 0.184 2.581 1.436 1061.950 o
-4 0 2 6518.530 5907.780 288.261 0.005 o
-4 0 3 0.207 -0.065 0.843 3095.710 o
-4 0 4 1871.560 1544.380 70.904 0.061 o
-4 0 5 0.211 0.905 1.059 1956.340 o
-4 0 6 2166.740 2806.360 128.529 0.030 o
-4 0 7 0.062 2.531 1.232 1440.580 o
-4 0 8 3571.330 4000.400 93.951 0.015 o
-4 0 9 0.002 0.382 1.571 891.511 o
-4 0 10 11.400 0.975 1.148 1129.020 o
-4 0 11 0.525 2.861 1.992 552.074 o
-4 0 12 530.671 685.772 28.106 0.525 o
-4 0 13 0.854 -1.209 2.550 338.043 o
-4 0 14 0.856 0.767 1.932 588.299 o
-4 0 15 0.022 5.596 3.161 219.338 o
-4 0 16 161.791 283.069 20.249 2.683 o
-4 0 17 0.012 2.137 4.612 103.355 o
-4 0 18 118.249 113.040 18.891 4.461 o
-4 0 19 0.013 -6.012 6.193 57.336 o
-4 0 20 26.255 64.882 12.569 12.689 o
-4 0 21 0.031 0.578 4.875 92.524 o
-4 1 1 1951.670 2359.380 151.993 0.033 o
-4 1 2 476.339 432.136 22.132 0.837 o
-4 1 3 112.197 100.463 6.894 13.322 o
-4 1 4 184.368 255.092 13.312 3.602 o
-4 1 5 1719.840 1951.590 74.066 0.058 o
-4 1 6 976.372 1209.900 52.992 0.158 o
-4 1 7 2.534 12.091 2.196 426.841 o
-4 1 8 38.297 51.541 5.238 48.103 o
-4 1 9 294.855 347.222 15.556 1.803 o
-4 1 10 581.944 723.362 40.682 0.391 o
-4 1 11 19.153 5.790 2.036 348.446 o
-4 1 12 34.342 48.693 7.240 32.452 o
-4 1 13 117.852 189.505 15.226 5.077 o
-4 1 14 306.439 394.363 24.742 1.262 o
-4 1 15 59.005 82.464 10.726 13.761 o
-4 1 16 10.414 18.508 6.331 52.605 o
-4 1 17 6.884 4.678 4.139 125.574 o
-4 1 18 1.736 2.438 7.664 37.416 o
-4 1 19 44.812 36.726 9.184 21.534 o
-4 1 20 1.262 -2.877 8.004 34.321 o
-4 1 21 20.513 16.345 10.336 19.902 o
-4 1 22 12.844 22.374 9.291 24.740 o
-4 2 1 131.593 50.981 3.855 17.613 o
-4 2 2 889.359 1153.560 44.603 0.190 o
-4 2 3 21.440 21.688 3.537 128.193 o
-4 2 4 121.812 54.222 5.322 17.292 o
-4 2 5 1046.490 1217.970 39.855 0.159 o
-4 2 6 35.625 11.921 3.452 112.035 o
-4 2 7 0.320 8.328 2.699 298.256 o
-4 2 8 462.586 287.285 15.947 1.162 o
-4 2 9 123.751 253.337 27.013 2.180 o
-4 2 10 5.682 56.312 9.403 23.517 o
-4 2 11 41.756 65.289 12.988 11.374 o
-4 2 12 635.436 668.652 28.532 0.440 o
-4 2 13 276.601 348.309 21.332 1.617 o
-4 2 14 52.103 6.415 3.206 91.938 o
-4 2 15 12.152 75.429 9.284 22.610 o
-4 2 16 16.445 67.912 9.318 22.411 o
-4 2 17 5.797 2.628 2.894 255.642 o
-4 2 18 3.337 3.863 2.836 269.291 o
-4 2 19 12.884 25.112 7.195 40.236 o
-4 2 20 21.878 36.756 12.243 13.997 o
-4 2 21 0.587 -19.000 12.485 14.109 o
-4 3 1 369.142 332.321 11.160 1.569 o
-4 3 2 262.525 301.623 14.650 2.254 o
-4 3 3 740.468 803.796 21.598 0.350 o
-4 3 4 19.347 25.772 3.473 131.774 o
-4 3 5 1.762 0.440 0.917 2561.860 o
-4 3 6 1295.340 1777.710 41.773 0.096 o
-4 3 7 34.455 150.529 9.761 14.774 o
-4 3 8 25.496 37.298 5.173 62.058 o
-4 3 9 107.480 104.858 10.513 9.798 o
-4 3 10 119.295 229.673 16.358 4.298 o
-4 3 11 141.905 332.764 20.750 2.576 o
-4 3 12 390.181 213.907 17.085 1.578 o
-4 3 13 156.782 163.654 15.523 4.446 o
-4 3 14 0.268 12.919 5.340 76.584 o
-4 3 15 147.699 235.298 19.854 3.107 o
-4 3 16 0.232 8.327 4.095 130.490 o
-4 3 17 1.796 12.433 4.458 109.085 o
-4 3 18 7.572 4.274 4.868 91.185 o
-4 3 19 30.509 53.983 12.959 12.039 o
-4 4 1 704.546 943.349 44.928 0.269 o
-4 4 2 476.241 650.118 23.376 0.646 o
-4 4 3 1311.870 2163.420 53.663 0.077 o
-4 4 4 313.730 220.991 9.703 2.454 o
-4 4 5 2.988 2.046 1.634 802.367 o
-4 4 6 364.562 268.866 12.242 1.746 o
-4 4 7 74.063 100.293 8.751 15.135 o
-4 4 8 486.163 674.560 24.631 0.606 o
-4 4 9 262.242 341.511 17.454 1.930 o
-4 4 10 398.179 489.304 21.425 0.956 o
-4 4 11 2.713 11.819 4.710 97.678 o
-4 4 12 187.632 138.568 13.239 4.685 o
-4 4 13 174.079 94.558 11.404 6.311 o
-4 4 14 34.664 54.807 13.032 11.760 o
-4 4 15 182.827 147.060 22.115 2.812 o
-4 4 16 40.188 69.162 16.159 7.689 o
-4 4 17 24.925 87.161 17.987 6.385 o
-4 4 18 1.507 -1.476 3.429 186.874 o
-4 4 19 6.901 39.459 16.955 7.567 o
-4 4 20 16.422 8.802 8.797 27.723 o
-4 5 1 169.999 146.162 9.166 6.332 o
-4 5 2 105.152 133.854 7.717 11.487 o
-4 5 3 24.103 17.223 2.851 170.526 o
-4 5 4 152.541 258.066 11.332 4.567 o
-4 5 5 92.747 19.721 3.145 38.694 o
-4 5 6 460.922 498.464 25.731 0.756 o
-4 5 7 4.745 24.514 4.996 83.792 o
-4 5 8 55.299 94.258 12.710 10.558 o
-4 5 9 168.086 107.550 13.705 5.401 o
-4 5 10 22.048 72.840 11.783 14.276 o
-4 5 11 31.564 67.305 11.585 14.359 o
-4 5 12 4.831 26.965 8.220 31.840 o
-4 5 13 28.595 11.497 5.599 60.076 o
-4 5 14 0.573 11.056 4.532 106.204 o
-4 5 15 3.094 32.347 8.799 27.809 o
-4 5 16 15.147 37.626 9.856 21.501 o
-4 5 17 1.397 12.462 8.794 28.343 o
-4 5 18 34.233 98.450 20.247 4.987 o
-4 6 1 153.057 267.175 18.870 3.046 o
-4 6 2 0.029 14.980 5.117 83.183 o
-4 6 3 11.749 9.870 5.003 83.697 o
-4 6 4 16.126 17.213 5.772 61.010 o
-4 6 5 40.657 72.808 11.105 14.683 o
-4 6 6 38.542 75.466 11.614 13.677 o
-4 6 7 269.804 465.040 29.603 1.100 o
-4 6 8 492.993 616.400 35.300 0.536 o
-4 6 9 587.390 612.601 38.395 0.437 o
-4 6 10 49.624 111.186 15.606 7.510 o
-4 6 11 69.984 18.874 6.787 29.644 o
-4 6 12 0.007 8.917 5.328 77.224 o
-4 6 13 53.368 72.484 13.171 10.510 o
-4 6 14 3.315 28.777 8.294 31.335 o
-4 6 15 8.440 65.083 13.602 11.424 o
-4 6 16 6.354 54.351 15.050 9.499 o
-4 7 1 55.993 58.169 9.602 17.672 o
-4 7 2 147.602 179.601 17.166 4.030 o
-4 7 3 4.155 28.286 7.050 42.962 o
-4 7 4 28.375 84.934 12.689 11.995 o
-4 7 5 1.721 3.251 2.608 321.010 o
-4 7 6 2.781 21.100 7.734 36.281 o
-4 7 7 140.374 333.853 26.912 1.921 o
-4 7 8 0.851 38.580 9.228 25.288 o
-4 7 9 41.436 63.365 11.910 13.274 o
-4 7 10 71.650 71.175 13.150 9.810 o
-4 7 11 45.713 170.812 20.647 4.374 o
-4 7 12 0.814 47.037 10.785 18.489 o
-4 7 13 23.306 8.984 5.052 75.921 o
-4 7 14 1.082 5.905 7.660 37.429 o
-4 8 1 2.546 0.071 3.181 216.710 o
-4 8 2 48.783 110.962 28.709 2.520 o
-4 8 3 0.227 -5.013 7.256 41.773 o
-4 8 4 0.622 1.436 2.213 448.324 o
-4 8 5 57.092 99.669 14.951 8.013 o
-4 8 6 9.879 32.190 8.998 26.191 o
-4 8 7 21.470 49.068 11.680 15.077 o
-4 8 8 11.323 69.740 13.004 12.314 o
-4 8 9 0.105 8.349 5.805 65.092 o
-4 8 10 2.823 0.334 2.458 361.505 o
-4 8 11 33.908 24.389 13.855 10.917 o
-4 9 1 1.909 13.703 10.717 19.089 o
-4 9 2 3.686 3.661 6.754 48.071 o
-4 9 3 0.104 10.175 9.724 23.225 o
-4 9 4 1.250 12.984 11.129 17.716 o
-4 9 5 0.599 7.418 8.804 28.338 o
-4 9 9 1.235 -4.614 6.206 57.086 o
-3 -9 1 0.260 2.580 7.319 41.042 o
-3 -9 2 67.284 139.953 30.512 2.167 o
-3 -9 3 11.896 7.603 7.727 36.165 o
-3 -8 1 39.031 34.455 11.510 15.002 o
-3 -8 2 3.369 17.071 8.073 33.422 o
-3 -8 3 6.502 -0.558 3.508 176.022 o
-3 -8 4 0.101 -9.492 8.813 28.315 o
-3 -8 5 14.573 42.587 17.788 6.827 o
-3 -8 6 11.909 38.536 16.755 7.714 o
-3 -8 7 6.232 14.473 6.855 46.001 o
-3 -8 8 32.610 89.269 23.016 3.953 o
-3 -8 9 12.338 57.386 26.648 3.065 o
-3 -8 10 27.048 42.797 10.046 19.746 o
-3 -8 11 11.663 30.414 9.882 21.803 o
-3 -8 12 27.723 12.138 10.472 19.164 o
-3 -7 1 1.017 3.506 4.539 106.554 o
-3 -7 2 10.042 1.334 2.196 412.210 o
-3 -7 3 162.345 115.392 17.776 4.136 o
-3 -7 4 170.596 213.069 18.730 3.174 o
-3 -7 5 19.008 41.121 8.658 26.838 o
-3 -7 6 1.408 3.152 3.252 207.165 o
-3 -7 7 14.764 1.501 4.458 104.978 o
-3 -7 8 1.302 5.813 4.464 109.913 o
-3 -7 9 25.190 51.099 10.038 19.597 o
-3 -7 10 36.074 27.498 7.552 32.297 o
-3 -7 11 10.981 8.056 4.506 103.201 o
-3 -7 12 41.830 118.675 35.744 1.662 o
-3 -7 13 1.771 0.855 7.356 40.621 o
-3 -7 14 55.390 96.653 27.686 2.700 o
-3 -6 1 65.195 37.208 5.347 36.721 o
-3 -6 2 144.162 165.271 10.922 6.312 o
-3 -6 3 39.270 34.108 5.006 56.110 o
-3 -6 4 496.830 655.210 30.880 0.552 o
-3 -6 5 1061.010 1282.020 128.385 0.075 o
-3 -6 6 642.157 467.275 54.546 0.344 o
-3 -6 7 0.395 0.419 2.024 536.492 o
-3 -6 8 0.400 3.730 1.920 592.677 o
-3 -6 9 65.196 27.903 5.116 40.651 o
-3 -6 10 93.116 257.724 23.732 2.810 o
-3 -6 11 40.432 66.994 9.037 20.746 o
-3 -6 12 20.282 51.868 10.176 19.452 o
-3 -6 13 1.046 5.368 14.837 9.987 o
-3 -6 14 2.607 75.166 16.912 7.501 o
-3 -6 15 15.605 89.536 19.450 5.574 o
-3 -5 1 0.455 2.396 1.655 799.520 o
-3 -5 2 209.359 125.411 8.791 5.401 o
-3 -5 3 15.336 38.585 4.497 86.020 o
-3 -5 4 109.453 256.451 11.788 5.632 o
-3 -5 5 205.183 82.999 6.376 7.050 o
-3 -5 6 234.281 301.882 16.507 2.356 o
-3 -5 7 495.411 689.240 23.391 0.596 o
-3 -5 8 17.111 1.354 1.537 582.825 o
-3 -5 9 0.033 41.760 4.598 95.266 o
-3 -5 10 61.282 114.675 10.780 12.295 o
-3 -5 11 96.227 115.281 11.015 9.697 o
-3 -5 12 1.732 7.786 3.876 145.006 o
-3 -5 13 46.449 106.861 14.884 8.269 o
-3 -5 14 6.875 63.068 12.272 13.993 o
-3 -5 15 47.245 9.925 8.330 26.967 o
-3 -5 16 17.950 24.020 8.648 27.911 o
-3 -5 17 84.246 154.135 19.590 4.401 o
-3 -4 1 50.674 66.512 5.868 33.419 o
-3 -4 2 8.570 14.925 2.767 249.810 o
-3 -4 3 5.628 51.056 4.666 84.287 o
-3 -4 4 608.898 773.725 18.803 0.461 o
-3 -4 5 372.131 381.392 14.626 1.353 o
-3 -4 6 98.329 246.363 12.031 6.055 o
-3 -4 7 666.826 919.248 37.108 0.313 o
-3 -4 8 13.664 78.377 8.204 27.581 o
-3 -4 9 29.920 31.771 3.350 106.913 o
-3 -4 10 0.093 2.910 1.899 607.772 o
-3 -4 11 3.286 38.496 6.632 47.554 o
-3 -4 12 19.794 73.766 8.315 26.358 o
-3 -4 13 179.085 342.026 24.647 1.907 o
-3 -4 14 125.381 90.182 13.208 7.235 o
-3 -4 15 14.723 20.793 6.504 48.752 o
-3 -4 16 2.241 6.348 4.524 106.758 o
-3 -4 17 0.065 5.697 4.469 109.903 o
-3 -4 18 33.356 44.515 11.292 15.566 o
-3 -4 19 0.184 3.296 6.585 50.699 o
-3 -3 1 1196.360 1585.550 23.202 0.121 o
-3 -3 2 9.377 25.541 2.660 237.469 o
-3 -3 3 249.197 370.827 9.343 2.368 o
-3 -3 4 63.577 35.875 3.110 55.977 o
-3 -3 5 28.691 10.366 2.016 239.582 o
-3 -3 6 1342.970 1794.360 31.277 0.094 o
-3 -3 7 96.136 36.703 3.234 31.922 o
-3 -3 8 471.222 493.189 18.260 0.837 o
-3 -3 9 285.671 175.772 14.430 2.649 o
-3 -3 10 672.297 1031.330 30.573 0.305 o
-3 -3 11 325.093 522.647 21.290 1.108 o
-3 -3 12 69.043 118.251 10.012 12.683 o
-3 -3 13 319.151 342.114 17.386 1.602 o
-3 -3 14 128.607 252.620 21.549 2.918 o
-3 -3 15 47.015 4.402 4.757 65.772 o
-3 -3 16 0.279 1.080 6.758 48.145 o
-3 -3 17 15.778 10.363 4.710 91.102 o
-3 -3 18 1.547 -0.182 3.097 228.963 o
-3 -3 19 1.729 6.886 5.789 65.379 o
-3 -2 1 1029.180 1143.860 20.063 0.186 o
-3 -2 2 112.415 144.277 5.816 11.853 o
-3 -2 3 1660.580 1872.270 40.023 0.070 o
-3 -2 4 710.149 910.744 21.364 0.338 o
-3 -2 5 547.532 741.775 12.890 0.561 o
-3 -2 6 125.381 113.133 5.056 12.707 o
-3 -2 7 16.103 8.805 1.686 466.297 o
-3 -2 8 539.282 658.681 14.599 0.615 o
-3 -2 9 9.894 3.391 1.139 1159.180 o
-3 -2 10 307.076 229.517 11.440 2.380 o
-3 -2 11 241.172 469.159 17.038 1.694 o
-3 -2 12 51.078 92.574 8.532 19.122 o
-3 -2 13 984.046 1054.830 40.301 0.186 o
-3 -2 14 189.496 274.590 15.048 3.132 o
-3 -2 15 1.662 1.044 4.621 102.893 o
-3 -2 16 0.001 5.129 3.499 179.140 o
-3 -2 17 0.032 4.691 4.527 107.166 o
-3 -2 18 0.256 -1.487 3.508 178.731 o
-3 -2 19 25.005 35.954 13.806 11.059 o
-3 -2 20 1.921 2.816 6.388 53.829 o
-3 -1 1 1634.180 2244.720 49.720 0.061 o
-3 -1 2 2461.690 2532.770 70.041 0.033 o
-3 -1 3 6409.000 7597.190 169.914 0.004 o
-3 -1 4 6253.870 7234.590 175.441 0.005 o
-3 -1 5 2907.950 3512.710 91.550 0.021 o
-3 -1 6 231.993 374.109 10.511 2.464 o
-3 -1 7 49.445 66.246 3.978 47.611 o
-3 -1 8 338.358 420.268 16.014 1.377 o
-3 -1 9 637.172 718.534 23.593 0.442 o
-3 -1 10 311.607 428.224 28.442 1.078 o
-3 -1 11 232.149 307.179 14.036 2.558 o
-3 -1 12 99.245 139.450 9.065 10.505 o
-3 -1 13 149.073 246.884 11.245 4.810 o
-3 -1 14 91.081 122.782 8.838 12.106 o
-3 -1 15 29.435 22.289 7.791 32.321 o
-3 -1 16 7.827 36.551 10.887 18.090 o
-3 -1 17 114.464 98.027 21.007 3.924 o
-3 -1 18 71.999 91.785 17.756 5.830 o
-3 -1 19 2.596 8.148 3.305 197.704 o
-3 -1 20 3.586 4.802 6.421 53.133 o
-3 -1 21 3.916 -14.072 10.723 19.116 o
-3 0 1 9393.110 7746.780 370.510 0.002 o
-3 0 2 0.098 0.877 0.891 2765.800 o
-3 0 3 6010.840 6324.140 291.541 0.005 o
-3 0 4 0.064 1.856 0.979 2282.830 o
-3 0 5 16889.600 22542.100 917.786 0.001 o
-3 0 6 0.237 2.275 1.235 1434.700 o
-3 0 7 5522.650 8196.490 288.849 0.004 o
-3 0 8 0.044 -0.484 1.229 1455.880 o
-3 0 9 6880.930 8151.710 222.721 0.004 o
-3 0 10 0.256 0.656 2.244 436.502 o
-3 0 11 19.924 53.901 7.204 35.653 o
-3 0 12 0.780 -1.197 3.212 213.034 o
-3 0 13 14.677 28.190 5.714 60.515 o
-3 0 14 0.229 0.097 1.762 708.175 o
-3 0 15 8.169 52.524 8.165 30.570 o
-3 0 16 0.028 -1.738 4.525 107.383 o
-3 0 17 316.152 464.804 37.576 0.799 o
-3 0 18 0.059 0.677 2.707 300.170 o
-3 0 19 4.533 -0.149 3.557 172.511 o
-3 0 20 0.026 -5.305 3.693 161.214 o
-3 0 21 9.282 4.099 4.158 123.096 o
-3 1 1 1642.910 2546.090 115.236 0.043 o
-3 1 2 2548.760 2696.870 125.535 0.026 o
-3 1 3 6412.100 8036.850 345.867 0.004 o
-3 1 4 6170.030 7273.940 236.258 0.005 o
-3 1 5 2893.910 3610.550 173.518 0.017 o
-3 1 6 256.546 353.634 20.614 1.743 o
-3 1 7 55.176 64.416 5.186 36.104 o
-3 1 8 368.189 423.414 36.519 0.777 o
-3 1 9 622.319 677.103 31.139 0.433 o
-3 1 10 386.986 411.773 26.899 0.961 o
-3 1 11 220.683 282.512 27.074 1.670 o
-3 1 12 75.259 143.071 21.167 4.042 o
-3 1 13 137.844 212.422 17.953 3.743 o
-3 1 14 83.020 113.935 12.254 9.262 o
-3 1 15 33.107 14.797 4.306 85.066 o
-3 1 16 7.041 45.654 7.333 38.084 o
-3 1 17 118.706 109.280 12.038 7.888 o
-3 1 18 64.374 94.134 14.031 8.720 o
-3 1 19 3.084 2.728 4.363 114.988 o
-3 1 20 2.589 -3.288 4.528 107.096 o
-3 1 21 2.415 -1.831 19.178 5.979 o
-3 2 1 1067.350 1234.560 45.315 0.150 o
-3 2 2 116.266 148.714 6.511 10.767 o
-3 2 3 1638.110 1869.420 55.226 0.068 o
-3 2 4 665.175 891.415 24.808 0.360 o
-3 2 5 523.593 727.376 19.803 0.564 o
-3 2 6 133.730 93.836 6.833 11.447 o
-3 2 7 11.932 7.437 2.558 288.014 o
-3 2 8 567.278 598.315 42.461 0.427 o
-3 2 9 20.472 2.557 2.460 269.466 o
-3 2 10 319.317 218.042 22.007 1.689 o
-3 2 11 239.348 440.090 23.027 1.496 o
-3 2 12 46.893 72.310 10.267 16.155 o
-3 2 13 917.147 1036.000 39.800 0.204 o
-3 2 14 176.098 298.627 27.868 1.762 o
-3 2 15 1.875 6.170 2.901 258.025 o
-3 2 16 0.004 1.731 2.922 257.494 o
-3 2 17 0.371 5.359 5.846 64.263 o
-3 2 18 0.127 2.267 3.226 211.173 o
-3 2 19 21.365 31.491 8.136 30.406 o
-3 2 20 1.228 13.207 7.485 39.065 o
-3 2 21 0.000 -7.037 8.865 27.982 o
-3 3 1 1168.030 1621.740 39.085 0.116 o
-3 3 2 7.716 28.293 2.841 215.685 o
-3 3 3 253.359 375.116 14.839 2.025 o
-3 3 4 68.647 36.913 3.486 47.840 o
-3 3 5 32.435 8.880 2.198 201.839 o
-3 3 6 1381.240 1749.070 41.292 0.090 o
-3 3 7 111.184 33.825 3.987 24.694 o
-3 3 8 514.454 508.334 21.894 0.707 o
-3 3 9 282.554 188.858 13.719 2.677 o
-3 3 10 680.510 1025.370 35.406 0.290 o
-3 3 11 330.453 495.210 24.748 1.047 o
-3 3 12 81.571 124.579 12.622 8.745 o
-3 3 13 319.047 323.003 21.554 1.473 o
-3 3 14 135.832 233.215 18.944 3.422 o
-3 3 15 42.490 12.623 4.143 79.157 o
-3 3 16 0.066 3.867 2.950 252.104 o
-3 3 17 13.822 7.905 5.334 73.650 o
-3 3 18 4.412 -1.765 3.735 156.677 o
-3 3 19 1.111 1.090 7.365 40.528 o
-3 3 20 1.702 4.556 6.916 45.906 o
-3 3 21 0.111 -8.628 8.525 30.256 o
-3 4 1 63.751 63.139 5.012 33.521 o
-3 4 2 6.307 15.245 2.295 358.565 o
-3 4 3 12.810 50.248 4.420 84.779 o
-3 4 4 582.089 763.144 22.969 0.472 o
-3 4 5 374.301 323.669 20.786 1.284 o
-3 4 6 97.942 207.414 30.973 1.928 o
-3 4 7 694.043 936.820 37.009 0.298 o
-3 4 8 18.943 77.481 7.094 33.764 o
-3 4 9 26.099 36.736 7.324 35.219 o
-3 4 10 0.813 6.533 3.226 209.809 o
-3 4 11 5.015 48.281 7.318 38.360 o
-3 4 12 26.901 70.185 9.168 21.738 o
-3 4 13 162.791 288.860 28.881 1.753 o
-3 4 14 135.955 115.323 18.875 4.202 o
-3 4 15 16.050 25.915 8.825 26.943 o
-3 4 16 3.026 10.007 6.347 54.207 o
-3 4 17 0.026 7.130 5.283 78.634 o
-3 4 18 34.023 43.072 12.511 12.914 o
-3 4 19 0.107 1.989 9.818 22.811 o
-3 4 20 5.226 4.082 5.598 69.648 o
-3 5 1 0.428 1.449 1.254 1392.760 o
-3 5 2 204.710 123.080 7.794 5.838 o
-3 5 3 17.656 34.612 4.136 97.525 o
-3 5 4 94.021 206.890 15.217 5.428 o
-3 5 5 209.716 64.782 6.766 7.161 o
-3 5 6 210.748 250.333 30.798 1.515 o
-3 5 7 510.406 688.220 36.608 0.479 o
-3 5 8 22.455 6.048 3.018 183.234 o
-3 5 9 1.166 63.385 10.247 20.028 o
-3 5 10 53.455 108.632 14.147 8.731 o
-3 5 11 91.056 112.118 14.817 6.960 o
-3 5 12 4.565 16.867 7.075 43.288 o
-3 5 13 47.385 135.180 17.091 6.266 o
-3 5 14 5.558 68.468 12.589 13.286 o
-3 5 15 45.138 7.797 7.961 29.675 o
-3 5 16 18.089 12.319 6.979 42.849 o
-3 5 17 84.558 176.737 26.454 2.640 o
-3 5 18 2.990 42.009 13.295 12.264 o
-3 6 1 67.050 26.792 6.245 32.415 o
-3 6 2 156.180 184.162 16.243 4.085 o
-3 6 3 42.176 36.217 6.728 35.785 o
-3 6 4 509.764 660.673 32.752 0.522 o
-3 6 5 1067.930 1357.350 49.188 0.137 o
-3 6 6 631.169 555.647 31.512 0.470 o
-3 6 7 0.260 4.641 3.836 149.158 o
-3 6 8 0.038 5.548 3.348 195.565 o
-3 6 9 60.793 22.799 6.918 30.931 o
-3 6 10 86.971 270.550 24.127 2.742 o
-3 6 11 39.209 85.101 13.736 10.067 o
-3 6 12 22.709 49.059 10.503 18.289 o
-3 6 13 0.546 1.832 4.836 94.007 o
-3 6 14 4.322 64.046 12.206 14.201 o
-3 6 15 13.139 86.068 14.707 9.547 o
-3 6 16 47.748 16.465 9.824 19.904 o
-3 7 1 1.947 5.772 3.373 191.561 o
-3 7 2 10.670 -1.915 4.345 113.445 o
-3 7 3 177.857 146.947 16.014 4.088 o
-3 7 4 170.007 186.612 22.438 2.707 o
-3 7 5 20.064 28.174 8.247 30.041 o
-3 7 6 0.115 3.960 4.040 134.603 o
-3 7 7 19.418 -3.962 3.955 126.931 o
-3 7 8 0.001 -1.588 3.738 157.388 o
-3 7 9 25.717 52.985 11.352 15.595 o
-3 7 10 35.801 26.074 7.985 29.565 o
-3 7 11 11.106 9.780 5.578 68.174 o
-3 7 12 43.021 108.297 16.741 6.823 o
-3 7 13 1.982 -1.463 9.205 25.948 o
-3 7 14 54.447 69.457 23.497 3.743 o
-3 8 1 36.063 21.337 20.573 5.079 o
-3 8 2 2.474 23.416 9.120 26.157 o
-3 8 3 6.028 -1.692 2.929 251.524 o
-3 8 4 0.153 1.748 4.002 137.285 o
-3 8 5 22.199 24.549 7.640 34.540 o
-3 8 6 14.336 35.914 9.730 22.143 o
-3 8 7 5.804 17.240 6.394 52.604 o
-3 8 8 27.361 103.466 15.858 7.873 o
-3 8 9 10.485 53.263 12.704 13.128 o
-3 8 10 25.709 40.766 13.113 12.122 o
-3 8 11 11.730 36.353 12.244 14.290 o
-3 9 1 0.249 2.301 4.481 109.448 o
-3 9 2 61.800 186.686 37.614 1.445 o
-3 9 3 12.769 10.777 8.936 27.043 o
-3 9 4 4.932 14.353 11.018 18.017 o
-3 9 5 2.394 21.460 11.971 15.263 o
-3 9 7 18.229 25.401 13.477 11.830 o
-3 9 8 9.614 23.965 13.569 11.811 o
-3 9 9 17.665 22.649 13.400 11.996 o
-2 -9 1 4.068 6.518 3.542 172.018 o
-2 -9 2 5.349 10.378 5.230 78.954 o
-2 -9 4 9.186 33.040 16.405 8.083 o
-2 -9 5 5.736 44.772 19.293 5.852 o
-2 -8 1 19.058 38.138 12.587 13.336 o
-2 -8 2 34.573 31.642 8.342 27.180 o
-2 -8 3 39.510 78.884 28.413 2.633 o
-2 -8 4 88.167 206.687 24.816 2.823 o
-2 -8 5 0.119 0.840 4.164 126.844 o
-2 -8 6 17.771 34.803 9.915 21.182 o
-2 -8 7 36.727 87.620 16.651 7.184 o
-2 -8 8 36.998 7.914 4.394 82.092 o
-2 -8 9 2.766 25.513 7.636 37.032 o
-2 -8 10 21.809 52.721 11.188 16.228 o
-2 -8 11 53.758 167.322 25.114 3.077 o
-2 -8 12 12.814 43.663 20.374 5.230 o
-2 -7 1 3.667 -2.183 4.280 119.663 o
-2 -7 2 172.877 265.880 32.184 1.514 o
-2 -7 3 308.654 414.250 59.359 0.467 o
-2 -7 4 47.552 31.128 5.564 45.147 o
-2 -7 5 9.315 -0.943 1.803 604.619 o
-2 -7 6 30.574 65.498 10.682 16.666 o
-2 -7 7 53.767 153.449 20.283 4.514 o
-2 -7 8 25.974 30.311 6.371 45.700 o
-2 -7 9 93.302 116.005 30.068 2.186 o
-2 -7 10 0.571 17.205 6.280 55.228 o
-2 -7 11 77.366 177.137 32.449 1.871 o
-2 -7 12 18.129 62.259 15.172 9.125 o
-2 -7 13 0.121 3.460 4.660 101.183 o
-2 -7 14 0.032 7.096 9.173 26.119 o
-2 -6 1 143.892 142.983 9.547 7.384 o
-2 -6 2 566.237 615.812 25.451 0.543 o
-2 -6 3 160.197 230.554 25.793 2.192 o
-2 -6 4 327.287 306.639 17.155 1.662 o
-2 -6 5 863.653 1153.120 32.802 0.213 o
-2 -6 6 10.461 44.855 5.345 65.878 o
-2 -6 7 27.348 19.170 3.321 128.536 o
-2 -6 8 7.999 61.164 7.341 36.339 o
-2 -6 9 77.760 27.994 5.717 31.317 o
-2 -6 10 117.282 227.306 17.349 4.084 o
-2 -6 11 21.748 5.193 2.740 216.608 o
-2 -6 12 1.792 12.521 5.642 68.456 o
-2 -6 13 4.037 -2.142 7.513 38.907 o
-2 -6 14 2.058 6.209 8.002 34.284 o
-2 -6 15 16.502 41.622 13.594 11.514 o
-2 -5 1 0.556 2.154 1.686 770.814 o
-2 -5 2 0.080 13.393 2.654 303.313 o
-2 -5 3 59.973 49.320 5.313 36.566 o
-2 -5 4 113.093 263.375 10.868 5.714 o
-2 -5 5 91.793 86.409 6.116 18.543 o
-2 -5 6 27.643 22.501 3.159 131.538 o
-2 -5 7 0.646 23.137 2.997 228.035 o
-2 -5 8 173.291 226.359 17.423 3.287 o
-2 -5 9 27.938 5.473 2.745 187.456 o
-2 -5 10 1.100 3.135 3.025 239.532 o
-2 -5 11 9.507 17.674 7.177 41.488 o
-2 -5 12 128.080 170.636 21.688 3.267 o
-2 -5 13 1.083 13.227 6.854 46.556 o
-2 -5 14 40.769 76.522 12.388 12.131 o
-2 -5 15 9.541 2.495 5.191 80.068 o
-2 -5 16 186.785 154.452 19.425 3.197 o
-2 -5 17 0.167 15.371 12.436 14.194 o
-2 -5 18 0.032 -7.195 8.209 32.636 o
-2 -5 19 0.025 -9.737 9.032 26.959 o
-2 -4 1 706.897 911.434 37.928 0.295 o
-2 -4 2 2321.940 2673.790 53.177 0.035 o
-2 -4 3 249.516 329.851 10.152 2.533 o
-2 -4 4 45.258 15.057 2.199 127.414 o
-2 -4 5 182.578 112.931 7.207 7.172 o
-2 -4 6 5.157 37.651 4.516 95.828 o
-2 -4 7 8.383 64.104 6.212 47.945 o
-2 -4 8 85.815 24.792 2.313 45.481 o
-2 -4 9 478.867 583.770 20.189 0.720 o
-2 -4 10 107.892 205.818 17.097 4.486 o
-2 -4 11 178.272 74.256 8.763 7.754 o
-2 -4 12 11.028 -0.575 1.273 1016.250 o
-2 -4 13 171.913 230.874 25.015 2.213 o
-2 -4 14 1.014 4.001 6.938 45.652 o
-2 -4 15 133.791 85.124 20.785 3.854 o
-2 -4 16 1.007 9.218 4.685 99.561 o
-2 -4 17 1.065 6.870 5.113 83.827 o
-2 -4 18 50.170 39.303 12.545 12.279 o
-2 -4 19 18.391 59.161 21.529 4.642 o
-2 -3 1 1283.410 1057.810 23.533 0.145 o
-2 -3 2 2129.660 2810.760 44.102 0.038 o
-2 -3 3 110.476 126.650 5.798 13.076 o
-2 -3 4 371.571 521.488 12.588 1.134 o
-2 -3 5 398.088 449.756 13.352 1.153 o
-2 -3 6 84.345 13.516 2.570 50.423 o
-2 -3 7 50.881 90.209 4.476 36.015 o
-2 -3 8 1195.010 1139.490 28.802 0.150 o
-2 -3 9 11.577 42.307 4.684 82.339 o
-2 -3 10 365.821 834.243 34.676 0.559 o
-2 -3 11 295.727 337.267 17.230 1.749 o
-2 -3 12 360.839 381.873 32.705 0.906 o
-2 -3 13 59.645 128.674 18.131 5.537 o
-2 -3 14 277.797 193.032 23.075 1.901 o
-2 -3 15 42.283 92.318 17.297 6.584 o
-2 -3 16 71.718 102.730 14.952 7.556 o
-2 -3 17 2.784 3.705 3.698 159.671 o
-2 -3 18 32.226 52.333 11.714 14.430 o
-2 -3 19 0.026 1.853 9.666 23.534 o
-2 -3 20 6.012 25.801 15.207 9.445 o
-2 -2 1 279.553 235.289 5.768 2.987 o
-2 -2 2 92.685 30.502 2.142 38.904 o
-2 -2 3 2832.250 3516.770 44.189 0.023 o
-2 -2 4 647.422 409.449 8.859 0.663 o
-2 -2 5 256.211 152.998 4.931 4.248 o
-2 -2 6 1667.290 1631.860 43.302 0.075 o
-2 -2 7 225.126 372.684 12.562 2.412 o
-2 -2 8 40.706 23.838 2.951 104.453 o
-2 -2 9 1557.360 1937.840 43.973 0.072 o
-2 -2 10 339.782 238.769 11.737 2.041 o
-2 -2 11 22.505 43.248 4.811 69.113 o
-2 -2 12 329.613 246.330 11.693 2.094 o
-2 -2 13 25.000 105.847 7.924 24.485 o
-2 -2 14 91.833 115.194 17.485 5.427 o
-2 -2 15 1.562 9.048 5.913 62.600 o
-2 -2 16 23.080 18.653 6.459 47.394 o
-2 -2 17 33.549 92.938 14.365 9.364 o
-2 -2 18 27.919 6.624 4.520 88.737 o
-2 -2 19 83.299 141.003 18.334 4.981 o
-2 -1 1 5005.430 5125.980 100.473 0.008 o
-2 -1 2 33.966 21.348 1.940 173.930 o
-2 -1 3 2527.960 1904.030 35.915 0.040 o
-2 -1 4 355.828 217.771 5.743 2.209 o
-2 -1 5 4338.890 4468.680 85.165 0.011 o
-2 -1 6 27.710 10.864 1.410 319.425 o
-2 -1 7 7.206 22.704 1.973 405.346 o
-2 -1 8 146.735 126.558 6.035 9.441 o
-2 -1 9 19.609 47.213 3.960 91.654 o
-2 -1 10 519.885 470.300 13.698 0.806 o
-2 -1 11 9.474 40.413 4.027 109.202 o
-2 -1 12 10.119 29.218 3.369 156.304 o
-2 -1 13 137.545 130.590 7.377 9.251 o
-2 -1 14 2.171 3.061 1.386 1109.630 o
-2 -1 15 107.547 121.959 15.188 6.157 o
-2 -1 16 179.721 243.959 34.971 1.350 o
-2 -1 17 63.210 29.426 7.450 26.632 o
-2 -1 18 65.294 151.763 24.522 3.187 o
-2 -1 19 35.979 45.486 15.480 8.624 o
-2 -1 20 25.054 9.720 6.268 50.811 o
-2 0 2 956.112 859.792 46.173 0.206 o
-2 0 3 0.010 1.777 0.787 3530.550 o
-2 0 4 63894.000 63022.400 1452.070 0.000 o
-2 0 5 0.066 1.478 1.063 1942.630 o
-2 0 6 3915.720 4987.310 199.563 0.010 o
-2 0 7 0.027 0.311 0.995 2220.250 o
-2 0 8 72.127 10.039 2.152 70.554 o
-2 0 9 0.013 -0.533 1.921 595.921 o
-2 0 10 88.421 104.257 9.411 12.456 o
-2 0 11 0.622 -1.426 3.043 237.428 o
-2 0 12 206.251 232.644 15.644 3.105 o
-2 0 13 0.447 2.859 2.068 512.256 o
-2 0 14 198.611 302.468 20.707 2.258 o
-2 0 15 0.210 0.072 1.515 957.456 o
-2 0 16 245.984 322.786 24.927 1.616 o
-2 0 17 0.159 1.490 3.050 236.269 o
-2 0 18 111.322 105.220 15.053 6.350 o
-2 0 19 0.014 -1.291 6.322 55.024 o
-2 0 20 10.797 5.633 5.137 80.790 o
-2 0 21 0.040 -6.906 5.579 70.647 o
-2 1 1 5149.100 5372.670 225.898 0.007 o
-2 1 2 35.380 25.629 3.567 95.306 o
-2 1 3 2529.980 1842.890 37.981 0.040 o
-2 1 4 346.138 188.668 7.979 2.369 o
-2 1 5 4333.920 3974.910 93.579 0.012 o
-2 1 6 26.959 7.868 3.859 114.859 o
-2 1 7 3.240 21.125 3.557 162.891 o
-2 1 8 130.947 101.217 10.431 8.601 o
-2 1 9 10.508 35.672 6.362 49.921 o
-2 1 10 481.148 391.449 23.727 0.844 o
-2 1 11 7.856 41.888 7.840 33.752 o
-2 1 12 3.295 29.380 5.206 77.047 o
-2 1 13 125.471 119.364 12.690 7.008 o
-2 1 14 1.030 6.263 3.350 194.610 o
-2 1 15 124.914 132.055 12.261 7.032 o
-2 1 16 178.487 222.135 16.556 3.396 o
-2 1 17 64.218 36.401 6.982 27.829 o
-2 1 18 69.157 165.606 18.992 4.745 o
-2 1 19 37.116 74.259 15.686 8.127 o
-2 1 20 23.684 18.585 10.339 19.679 o
-2 1 21 13.289 31.273 10.940 17.820 o
-2 2 1 270.589 235.979 6.814 3.058 o
-2 2 2 107.529 34.719 3.329 27.279 o
-2 2 3 2898.860 3520.040 86.823 0.021 o
-2 2 4 662.402 405.986 11.204 0.635 o
-2 2 5 251.701 144.075 6.803 4.284 o
-2 2 6 1630.400 1476.950 56.958 0.078 o
-2 2 7 236.926 357.022 16.691 2.100 o
-2 2 8 35.030 19.979 4.396 77.546 o
-2 2 9 1529.030 1864.550 48.158 0.075 o
-2 2 10 349.877 226.205 15.357 1.846 o
-2 2 11 29.948 44.109 7.040 35.696 o
-2 2 12 325.865 225.000 16.925 1.924 o
-2 2 13 24.020 84.650 10.752 16.265 o
-2 2 14 104.490 103.982 14.495 6.890 o
-2 2 15 3.906 3.955 2.678 300.204 o
-2 2 16 19.600 8.037 3.503 149.014 o
-2 2 17 46.214 94.184 11.426 12.988 o
-2 2 18 29.595 6.021 4.168 99.446 o
-2 2 19 75.798 130.855 17.275 5.679 o
-2 2 20 47.077 70.273 17.348 6.643 o
-2 3 1 1229.970 1078.870 21.736 0.152 o
-2 3 2 2054.790 2782.850 55.730 0.039 o
-2 3 3 103.724 121.847 5.927 14.108 o
-2 3 4 401.637 516.496 16.960 0.987 o
-2 3 5 408.579 445.087 13.814 1.119 o
-2 3 6 89.352 12.559 2.421 47.146 o
-2 3 7 39.596 78.431 7.437 26.506 o
-2 3 8 1219.410 1108.030 33.167 0.146 o
-2 3 9 11.910 40.692 6.200 51.062 o
-2 3 10 374.945 815.474 30.590 0.600 o
-2 3 11 298.524 309.607 19.230 1.711 o
-2 3 12 373.674 396.242 23.761 1.088 o
-2 3 13 66.961 129.294 15.235 7.112 o
-2 3 14 258.631 165.830 15.841 2.853 o
-2 3 15 50.341 94.192 12.259 11.420 o
-2 3 16 60.362 98.711 13.242 9.605 o
-2 3 17 5.391 0.281 3.856 146.565 o
-2 3 18 34.584 46.765 10.184 18.530 o
-2 3 19 0.015 14.255 5.597 69.702 o
-2 3 20 4.890 13.797 10.937 18.291 o
-2 4 1 678.277 901.648 21.437 0.358 o
-2 4 2 2252.160 2670.520 63.821 0.036 o
-2 4 3 248.142 342.925 11.183 2.419 o
-2 4 4 37.007 13.315 2.762 136.340 o
-2 4 5 179.021 90.780 10.354 6.630 o
-2 4 6 2.877 33.752 6.310 52.919 o
-2 4 7 5.955 67.943 9.517 22.518 o
-2 4 8 93.129 24.526 5.907 26.050 o
-2 4 9 506.387 563.255 19.882 0.696 o
-2 4 10 116.402 229.274 13.179 5.346 o
-2 4 11 210.175 74.795 7.903 6.551 o
-2 4 12 15.221 2.432 2.955 221.267 o
-2 4 13 149.138 200.972 24.149 2.555 o
-2 4 14 3.883 12.420 7.579 37.979 o
-2 4 15 151.349 126.074 20.203 3.588 o
-2 4 16 2.046 -2.618 3.820 150.496 o
-2 4 17 1.132 -2.370 9.580 23.960 o
-2 4 18 51.574 18.076 21.598 4.554 o
-2 4 19 22.733 38.941 14.740 9.765 o
-2 4 20 0.557 -11.729 9.932 22.293 o
-2 5 1 0.110 -0.027 0.840 3112.920 o
-2 5 2 0.498 14.040 2.885 256.515 o
-2 5 3 74.986 39.658 4.226 37.965 o
-2 5 4 104.559 228.318 20.138 3.555 o
-2 5 5 103.747 88.443 9.042 12.264 o
-2 5 6 30.167 19.724 5.184 64.643 o
-2 5 7 0.025 21.725 5.635 68.128 o
-2 5 8 162.757 266.249 20.894 2.661 o
-2 5 9 26.447 2.825 2.657 209.042 o
-2 5 10 2.461 4.152 5.576 70.515 o
-2 5 11 10.463 13.609 5.667 65.764 o
-2 5 12 113.027 159.287 18.037 4.482 o
-2 5 13 0.009 11.523 4.567 104.700 o
-2 5 14 46.851 115.193 16.159 7.101 o
-2 5 15 12.175 17.409 6.228 53.991 o
-2 5 16 183.977 137.853 18.441 3.518 o
-2 5 17 0.688 34.277 12.002 15.119 o
-2 5 18 0.038 -0.793 4.081 132.072 o
-2 6 1 138.648 143.591 14.153 5.531 o
-2 6 2 577.655 640.455 30.826 0.484 o
-2 6 3 169.757 264.742 26.901 1.946 o
-2 6 4 339.811 290.845 21.494 1.455 o
-2 6 5 833.582 1119.460 45.451 0.205 o
-2 6 6 10.122 43.585 8.756 27.081 o
-2 6 7 26.943 17.034 5.568 60.077 o
-2 6 8 8.588 49.240 9.478 23.212 o
-2 6 9 82.566 21.983 6.454 27.256 o
-2 6 10 103.980 247.564 22.983 2.897 o
-2 6 11 30.869 8.100 5.056 70.945 o
-2 6 12 3.492 13.171 5.598 69.164 o
-2 6 13 4.535 -3.398 4.011 135.926 o
-2 6 14 2.532 17.701 7.304 40.781 o
-2 6 15 16.965 46.197 11.495 15.790 o
-2 6 16 2.873 22.843 13.496 12.013 o
-2 6 17 4.722 -2.288 4.909 90.864 o
-2 7 1 4.015 3.076 3.064 230.934 o
-2 7 2 168.048 289.143 22.231 2.366 o
-2 7 3 298.256 501.260 37.019 0.811 o
-2 7 4 44.926 21.424 6.520 39.059 o
-2 7 5 9.430 -1.167 9.115 26.343 o
-2 7 6 29.916 81.624 12.900 11.656 o
-2 7 7 49.946 183.503 19.619 4.637 o
-2 7 8 22.562 45.184 10.063 19.929 o
-2 7 9 87.097 114.132 16.244 6.170 o
-2 7 10 0.006 16.110 6.291 55.164 o
-2 7 11 81.418 193.362 22.093 3.494 o
-2 7 12 19.566 71.744 13.571 11.114 o
-2 7 13 1.013 0.839 5.760 66.266 o
-2 7 14 0.038 14.429 11.406 16.872 o
-2 7 15 23.655 5.458 7.517 36.890 o
-2 8 1 21.528 42.397 17.560 6.948 o
-2 8 2 46.475 47.481 10.098 17.744 o
-2 8 3 38.175 84.833 13.514 10.395 o
-2 8 4 85.530 197.818 20.857 3.750 o
-2 8 5 0.124 5.911 3.945 140.895 o
-2 8 6 17.392 47.341 10.325 19.271 o
-2 8 7 30.640 59.091 12.277 13.180 o
-2 8 8 39.444 12.756 6.658 40.956 o
-2 8 9 4.207 22.797 7.997 33.813 o
-2 8 10 21.322 49.469 13.893 10.862 o
-2 8 11 52.380 182.477 28.938 2.367 o
-2 9 1 2.147 -0.344 3.765 154.949 o
-2 9 2 4.424 13.895 8.685 28.934 o
-2 9 3 0.209 -3.294 4.588 104.480 o
-2 9 4 8.980 13.779 7.642 36.941 o
-2 9 5 7.891 33.115 9.994 21.448 o
-2 9 6 7.770 20.312 8.769 28.079 o
-2 9 7 48.404 86.269 25.275 3.252 o
-2 9 8 16.644 66.841 22.821 4.134 o
-2 10 1 6.845 24.449 14.072 11.015 o
-1 -9 1 14.594 8.666 9.144 25.806 o
-1 -9 2 7.404 9.529 6.014 59.704 o
-1 -9 3 0.096 8.039 8.630 29.498 o
-1 -9 4 24.809 108.463 29.815 2.399 o
-1 -9 5 1.381 13.644 11.084 17.855 o
-1 -9 6 14.025 37.235 17.141 7.366 o
-1 -9 7 0.438 13.795 13.964 11.264 o
-1 -9 8 1.246 20.554 12.951 13.066 o
-1 -8 1 33.823 88.749 13.941 9.925 o
-1 -8 2 34.088 59.733 16.619 7.469 o
-1 -8 3 19.820 9.404 6.951 43.117 o
-1 -8 4 23.796 77.700 14.910 9.172 o
-1 -8 5 9.402 17.791 11.225 17.250 o
-1 -8 6 3.172 7.179 5.115 83.397 o
-1 -8 7 33.394 68.946 20.587 4.949 o
-1 -8 8 14.087 -1.859 3.504 167.024 o
-1 -8 9 3.368 2.989 3.684 160.798 o
-1 -8 10 7.807 9.459 6.185 56.454 o
-1 -8 11 20.921 42.630 18.212 6.475 o
-1 -8 12 1.991 -26.461 15.297 9.397 o
-1 -7 1 39.901 33.910 5.661 47.340 o
-1 -7 2 4.548 20.837 4.678 96.131 o
-1 -7 3 102.779 91.349 9.013 12.256 o
-1 -7 4 55.343 160.229 12.127 9.614 o
-1 -7 5 293.608 254.273 15.392 2.144 o
-1 -7 6 6.759 6.383 3.034 228.005 o
-1 -7 7 1.218 21.592 5.361 74.840 o
-1 -7 8 12.763 12.281 3.772 139.028 o
-1 -7 9 20.233 43.215 7.704 32.747 o
-1 -7 10 37.314 105.217 12.243 11.831 o
-1 -7 11 11.757 -0.273 4.765 94.287 o
-1 -7 12 0.459 5.147 6.340 54.651 o
-1 -7 13 0.070 7.915 8.908 27.685 o
-1 -6 1 733.170 1060.700 37.169 0.259 o
-1 -6 2 2274.800 2850.760 74.868 0.033 o
-1 -6 3 62.948 126.289 11.221 11.180 o
-1 -6 4 141.460 111.235 8.614 8.894 o
-1 -6 5 60.388 142.418 11.877 10.081 o
-1 -6 6 2.727 8.391 2.827 268.096 o
-1 -6 7 4.479 16.543 4.032 129.534 o
-1 -6 8 0.209 17.334 5.619 68.880 o
-1 -6 9 6.848 54.077 10.061 20.682 o
-1 -6 10 8.600 6.642 3.565 164.843 o
-1 -6 11 9.213 23.078 6.156 55.227 o
-1 -6 12 32.400 29.231 9.109 23.692 o
-1 -6 13 56.080 113.361 28.383 2.551 o
-1 -6 14 23.698 105.100 19.562 5.383 o
-1 -6 15 37.608 63.338 20.685 4.895 o
-1 -6 16 32.456 26.483 13.401 11.642 o
-1 -5 1 1692.960 1589.230 35.197 0.076 o
-1 -5 2 181.472 158.410 8.596 5.839 o
-1 -5 3 692.561 994.985 23.055 0.322 o
-1 -5 4 39.430 84.442 5.184 38.883 o
-1 -5 5 10.752 10.965 2.328 333.429 o
-1 -5 6 51.661 37.083 3.591 63.092 o
-1 -5 7 109.970 160.933 7.725 9.942 o
-1 -5 8 59.399 125.692 9.520 13.992 o
-1 -5 9 7.921 31.468 6.862 44.352 o
-1 -5 10 26.724 41.321 7.721 31.592 o
-1 -5 11 36.964 98.672 15.991 7.613 o
-1 -5 12 11.671 57.327 12.876 12.709 o
-1 -5 13 73.630 136.336 29.387 2.307 o
-1 -5 14 25.452 48.863 12.766 12.634 o
-1 -5 15 1.209 -1.721 4.036 134.922 o
-1 -5 16 36.688 76.179 16.045 7.789 o
-1 -5 17 9.262 72.696 22.758 4.171 o
-1 -5 18 0.121 11.030 7.286 41.313 o
-1 -4 1 1369.560 1561.490 30.506 0.102 o
-1 -4 2 133.892 185.933 8.295 7.379 o
-1 -4 3 108.604 52.334 3.962 22.751 o
-1 -4 4 255.690 414.495 11.370 2.029 o
-1 -4 5 76.909 70.145 4.511 28.853 o
-1 -4 6 21.546 3.362 1.193 574.471 o
-1 -4 7 161.172 434.856 12.800 2.742 o
-1 -4 8 555.849 719.580 19.925 0.532 o
-1 -4 9 107.730 143.024 8.905 9.888 o
-1 -4 10 153.171 272.754 27.988 1.901 o
-1 -4 11 45.901 10.274 6.243 43.474 o
-1 -4 12 0.185 11.154 6.846 46.776 o
-1 -4 13 57.255 93.257 16.691 6.732 o
-1 -4 14 41.117 39.519 19.384 5.606 o
-1 -4 15 230.187 417.068 37.626 0.968 o
-1 -4 16 16.885 45.197 12.802 12.873 o
-1 -4 17 2.179 39.982 12.572 13.723 o
-1 -4 18 83.471 102.975 28.136 2.520 o
-1 -4 19 0.897 -4.544 7.581 38.258 o
-1 -3 1 968.478 1213.110 18.945 0.193 o
-1 -3 2 1136.950 1591.570 25.391 0.127 o
-1 -3 3 1012.720 959.333 16.547 0.216 o
-1 -3 4 119.277 384.569 11.284 3.932 o
-1 -3 5 41.958 5.480 1.507 196.679 o
-1 -3 6 2545.060 3320.780 60.108 0.027 o
-1 -3 7 242.360 245.706 8.707 3.282 o
-1 -3 8 135.862 219.178 8.901 6.328 o
-1 -3 9 54.988 19.682 3.368 73.107 o
-1 -3 10 840.035 1237.860 60.462 0.167 o
-1 -3 11 43.172 24.465 7.848 29.215 o
-1 -3 12 37.026 77.427 13.835 10.136 o
-1 -3 13 53.111 100.313 16.684 6.749 o
-1 -3 14 0.058 3.160 4.243 122.053 o
-1 -3 15 18.567 3.360 5.139 77.881 o
-1 -3 16 0.011 -4.652 8.140 33.192 o
-1 -3 17 9.425 3.453 7.876 35.133 o
-1 -3 18 1.112 -7.159 5.592 70.305 o
-1 -3 19 66.896 91.137 27.590 2.690 o
-1 -2 1 1078.240 521.193 8.929 0.273 o
-1 -2 2 651.008 703.907 13.698 0.471 o
-1 -2 3 1.161 23.422 2.237 383.137 o
-1 -2 4 1321.000 1079.250 16.323 0.140 o
-1 -2 5 126.215 150.721 5.518 10.400 o
-1 -2 6 1222.450 1326.910 37.068 0.128 o
-1 -2 7 7.329 6.933 1.542 758.882 o
-1 -2 8 64.576 80.262 4.995 29.804 o
-1 -2 9 1474.830 1558.900 43.967 0.089 o
-1 -2 10 149.758 131.610 7.432 8.385 o
-1 -2 11 123.514 113.664 10.609 8.541 o
-1 -2 12 218.678 319.072 18.649 2.233 o
-1 -2 13 195.463 384.481 31.592 1.319 o
-1 -2 14 0.045 3.168 3.925 142.660 o
-1 -2 15 38.635 63.590 13.961 10.134 o
-1 -2 16 99.270 152.778 22.105 3.513 o
-1 -2 17 3.842 33.711 8.699 28.348 o
-1 -2 18 28.662 36.043 8.717 25.660 o
-1 -2 19 37.041 37.402 11.628 14.754 o
-1 -1 1 7881.700 7935.410 190.600 0.003 o
-1 -1 2 100.624 133.204 4.607 15.085 o
-1 -1 3 514.682 523.707 8.647 0.796 o
-1 -1 4 459.481 677.458 12.567 0.734 o
-1 -1 5 4.964 5.734 1.110 1460.600 o
-1 -1 6 834.417 1362.980 47.360 0.176 o
-1 -1 7 1143.110 1358.650 38.774 0.135 o
-1 -1 8 39.048 25.614 2.226 129.825 o
-1 -1 9 1250.560 1418.660 24.184 0.124 o
-1 -1 10 0.222 -0.436 1.500 977.825 o
-1 -1 11 245.828 386.912 14.095 2.078 o
-1 -1 12 80.964 35.911 3.623 38.757 o
-1 -1 13 1.209 6.774 2.259 423.236 o
-1 -1 14 123.279 111.542 10.163 8.935 o
-1 -1 15 42.020 41.081 8.824 23.073 o
-1 -1 16 118.849 118.888 25.936 2.701 o
-1 -1 17 9.133 7.384 3.019 223.369 o
-1 -1 18 6.695 14.606 7.460 38.906 o
-1 -1 19 0.772 5.022 5.550 71.269 o
-1 -1 20 5.535 2.531 4.221 121.994 o
-1 0 3 1105.920 1235.280 34.603 0.152 o
-1 0 4 0.386 0.400 0.813 3321.550 o
-1 0 5 10370.800 12275.100 267.758 0.002 o
-1 0 6 0.015 2.731 1.579 879.147 o
-1 0 7 172.910 178.566 9.799 5.467 o
-1 0 8 0.018 1.135 1.080 1884.530 o
-1 0 9 386.486 389.747 27.285 0.977 o
-1 0 10 0.010 0.551 1.283 1334.810 o
-1 0 11 2.004 4.017 1.756 696.803 o
-1 0 12 0.431 0.794 2.084 506.221 o
-1 0 13 140.946 190.381 11.302 5.847 o
-1 0 14 0.156 0.835 2.257 431.382 o
-1 0 15 15.637 10.765 4.002 122.292 o
-1 0 16 0.198 4.913 4.229 122.771 o
-1 0 17 0.361 22.922 10.329 20.492 o
-1 0 18 0.074 -0.057 3.961 140.187 o
-1 0 19 23.147 25.191 9.383 23.461 o
-1 0 20 0.057 -5.518 6.717 48.734 o
-1 0 21 1.203 2.670 14.027 11.175 o
-1 1 1 7828.740 7549.900 182.623 0.003 o
-1 1 2 101.593 131.943 4.738 14.908 o
-1 1 3 476.440 500.406 16.259 0.840 o
-1 1 4 415.303 581.643 15.207 0.897 o
-1 1 5 3.825 5.207 1.568 832.139 o
-1 1 6 905.507 1203.200 67.992 0.149 o
-1 1 7 1083.310 1196.600 60.533 0.135 o
-1 1 8 50.100 34.221 7.086 31.264 o
-1 1 9 1236.080 1221.360 31.827 0.136 o
-1 1 10 0.244 0.293 1.435 1067.560 o
-1 1 11 247.259 354.418 21.915 1.714 o
-1 1 12 94.473 33.821 5.979 24.152 o
-1 1 13 3.774 12.118 3.864 143.160 o
-1 1 14 125.944 116.693 13.189 6.761 o
-1 1 15 33.227 67.112 8.770 22.726 o
-1 1 16 109.308 133.250 12.929 7.210 o
-1 1 17 9.110 22.148 7.053 42.650 o
-1 1 18 6.424 5.444 6.593 50.161 o
-1 1 19 0.425 11.603 5.588 70.031 o
-1 1 20 6.676 3.369 4.098 128.575 o
-1 1 21 0.073 4.483 6.046 60.125 o
-1 2 1 1073.610 520.946 10.282 0.274 o
-1 2 2 630.635 703.626 13.841 0.490 o
-1 2 3 5.263 23.106 1.740 512.992 o
-1 2 4 1294.600 1022.670 30.915 0.142 o
-1 2 5 112.998 141.668 7.491 10.642 o
-1 2 6 1212.500 1192.600 25.278 0.145 o
-1 2 7 7.944 3.571 1.670 684.763 o
-1 2 8 54.656 83.882 7.152 23.723 o
-1 2 9 1348.340 1450.040 36.159 0.107 o
-1 2 10 134.221 143.564 12.562 6.340 o
-1 2 11 150.113 85.381 8.743 9.083 o
-1 2 12 243.354 304.338 19.718 2.026 o
-1 2 13 180.879 358.438 22.353 2.042 o
-1 2 14 0.015 -1.447 5.462 73.707 o
-1 2 15 41.938 44.228 8.171 25.861 o
-1 2 16 97.136 99.889 13.285 8.059 o
-1 2 17 2.055 28.174 6.841 45.856 o
-1 2 18 25.574 12.004 7.728 34.273 o
-1 2 19 33.133 34.838 12.188 13.750 o
-1 2 20 5.317 9.544 6.812 46.926 o
-1 3 1 1013.040 1231.470 22.130 0.179 o
-1 3 2 1220.070 1645.740 23.770 0.115 o
-1 3 3 1010.820 928.225 19.710 0.218 o
-1 3 4 106.837 355.443 12.149 4.329 o
-1 3 5 40.972 4.172 1.836 188.950 o
-1 3 6 2563.870 3215.470 78.441 0.026 o
-1 3 7 235.950 230.746 12.211 3.146 o
-1 3 8 110.868 222.359 13.156 5.601 o
-1 3 9 58.974 20.982 5.241 44.898 o
-1 3 10 849.173 1206.600 38.711 0.202 o
-1 3 11 42.023 19.480 4.341 71.433 o
-1 3 12 34.166 74.120 9.926 18.157 o
-1 3 13 51.062 80.426 12.671 11.126 o
-1 3 14 0.082 10.464 3.587 169.278 o
-1 3 15 20.840 2.678 2.262 300.791 o
-1 3 16 0.118 -2.728 8.067 33.791 o
-1 3 17 8.857 6.383 4.842 91.266 o
-1 3 18 3.630 4.128 8.529 30.171 o
-1 3 19 74.646 45.884 15.296 7.955 o
-1 3 20 15.123 27.138 15.186 9.386 o
-1 4 1 1344.580 1538.160 27.444 0.106 o
-1 4 2 139.058 183.850 8.639 7.042 o
-1 4 3 107.874 47.974 3.210 25.045 o
-1 4 4 246.756 394.237 16.757 1.899 o
-1 4 5 64.757 68.049 7.117 23.363 o
-1 4 6 35.538 3.893 2.848 152.972 o
-1 4 7 139.452 398.851 22.529 2.159 o
-1 4 8 587.849 691.502 31.623 0.450 o
-1 4 9 110.602 133.669 8.181 10.615 o
-1 4 10 155.023 311.658 13.818 3.540 o
-1 4 11 42.002 7.068 3.372 106.682 o
-1 4 12 0.013 9.314 5.986 61.199 o
-1 4 13 47.382 58.201 13.134 11.075 o
-1 4 14 39.258 23.042 9.205 22.855 o
-1 4 15 218.620 331.388 39.463 0.993 o
-1 4 16 16.506 53.248 14.252 10.403 o
-1 4 17 3.848 14.693 12.849 13.276 o
-1 4 18 87.736 109.476 27.706 2.563 o
-1 4 19 1.414 9.927 8.618 29.535 o
-1 5 1 1652.760 1605.640 71.895 0.069 o
-1 5 2 164.711 151.142 10.438 6.006 o
-1 5 3 728.694 990.561 21.313 0.309 o
-1 5 4 31.573 86.033 8.619 22.202 o
-1 5 5 18.700 15.921 5.285 70.713 o
-1 5 6 56.599 45.502 8.071 23.597 o
-1 5 7 105.871 169.489 16.171 5.195 o
-1 5 8 59.317 135.566 14.764 7.586 o
-1 5 9 14.211 38.744 9.086 25.109 o
-1 5 10 28.087 37.122 8.339 27.754 o
-1 5 11 41.923 86.091 13.139 10.739 o
-1 5 12 7.977 52.751 9.970 21.012 o
-1 5 13 69.818 129.968 16.595 6.172 o
-1 5 14 25.056 63.820 12.444 12.989 o
-1 5 15 2.027 9.407 5.715 66.927 o
-1 5 16 35.863 95.514 15.526 8.079 o
-1 5 17 10.017 82.603 17.299 7.072 o
-1 5 18 0.306 -1.104 2.310 412.042 o
-1 6 1 710.004 943.390 27.263 0.316 o
-1 6 2 2296.380 2302.500 148.048 0.029 o
-1 6 3 63.294 84.931 15.578 7.518 o
-1 6 4 140.602 104.218 12.857 6.648 o
-1 6 5 63.145 134.836 15.061 7.264 o
-1 6 6 2.415 4.807 3.472 180.881 o
-1 6 7 4.362 6.648 3.349 191.629 o
-1 6 8 0.032 14.806 5.352 76.122 o
-1 6 9 6.936 64.481 11.258 16.463 o
-1 6 10 10.354 0.491 3.985 134.256 o
-1 6 11 6.836 24.621 7.352 39.494 o
-1 6 12 29.637 42.876 10.093 19.378 o
-1 6 13 52.017 129.149 17.303 6.110 o
-1 6 14 28.312 115.606 16.814 6.966 o
-1 6 15 41.888 61.792 26.224 3.092 o
-1 6 16 32.224 13.775 8.878 25.677 o
-1 6 17 2.088 26.019 14.544 10.346 o
-1 7 1 37.802 28.540 8.598 25.568 o
-1 7 2 4.701 20.927 7.222 41.347 o
-1 7 3 108.634 85.736 12.313 8.662 o
-1 7 4 64.177 150.717 16.916 5.899 o
-1 7 5 307.432 262.619 24.899 1.488 o
-1 7 6 5.854 4.300 3.400 185.607 o
-1 7 7 1.566 26.452 6.831 46.163 o
-1 7 8 9.230 12.229 7.506 38.317 o
-1 7 9 18.366 51.315 10.585 18.226 o
-1 7 10 29.042 108.698 16.174 7.517 o
-1 7 11 13.164 0.934 2.892 239.188 o
-1 7 12 0.114 5.031 4.618 102.988 o
-1 7 13 0.037 8.139 8.604 29.678 o
-1 7 14 42.007 66.529 22.436 4.160 o
-1 7 15 31.028 -10.686 9.598 22.808 o
-1 8 1 40.284 68.204 14.773 9.054 o
-1 8 2 33.337 68.392 15.426 8.514 o
-1 8 3 15.880 16.537 5.510 66.721 o
-1 8 4 21.463 69.970 12.045 13.809 o
-1 8 5 6.746 21.793 7.410 39.060 o
-1 8 6 2.941 -3.440 6.341 54.635 o
-1 8 7 30.892 86.708 14.754 9.079 o
-1 8 8 10.670 5.795 6.961 44.634 o
-1 8 9 1.926 2.115 6.624 50.070 o
-1 8 10 7.071 7.194 5.228 78.990 o
-1 8 11 20.602 52.758 20.478 5.124 o
-1 8 12 1.649 -0.747 4.397 113.671 o
-1 9 1 13.361 18.638 7.248 40.116 o
-1 9 2 8.866 18.798 8.274 31.442 o
-1 9 3 0.142 0.888 17.785 6.953 o
-1 9 4 25.621 79.429 17.710 6.611 o
-1 9 5 2.816 -1.843 5.577 70.620 o
-1 9 6 15.113 39.130 13.159 12.318 o
-1 9 7 0.114 1.046 2.911 259.502 o
-1 9 8 1.430 49.962 20.173 5.363 o
-1 10 1 2.028 13.937 10.957 18.261 o
0 -9 1 10.053 25.664 8.754 27.846 o
0 -9 2 9.718 26.236 8.403 30.155 o
0 -9 3 35.166 39.643 11.403 15.325 o
0 -9 4 1.134 -10.644 10.003 21.977 o
0 -9 5 23.297 72.323 24.160 3.669 o
0 -9 6 7.171 12.745 10.050 21.599 o
0 -9 7 9.528 0.900 5.041 85.054 o
0 -9 8 19.530 61.053 22.222 4.355 o
0 -8 1 31.232 58.020 13.301 11.389 o
0 -8 2 0.107 4.455 3.149 221.193 o
0 -8 3 1.285 4.328 3.867 146.543 o
0 -8 4 0.592 1.357 4.459 110.541 o
0 -8 5 0.688 0.450 3.717 159.126 o
0 -8 6 1.081 9.228 3.548 172.677 o
0 -8 7 62.677 159.711 20.380 4.348 o
0 -8 8 1.603 0.554 2.596 325.627 o
0 -8 9 0.973 -5.115 4.803 95.290 o
0 -8 10 0.520 -7.726 11.825 15.727 o
0 -8 11 29.317 116.814 29.363 2.453 o
0 -7 1 96.344 52.855 8.106 16.548 o
0 -7 2 65.058 116.309 11.239 11.341 o
0 -7 3 56.206 81.873 8.671 18.763 o
0 -7 4 9.309 -0.067 3.592 165.497 o
0 -7 5 460.997 614.050 54.445 0.393 o
0 -7 6 2.797 22.372 6.226 55.494 o
0 -7 7 53.180 72.462 11.831 12.525 o
0 -7 8 33.738 14.564 8.091 30.138 o
0 -7 9 0.344 -1.406 3.703 160.398 o
0 -7 10 1.097 10.738 4.335 115.863 o
0 -7 11 2.379 2.371 3.373 192.373 o
0 -7 12 74.209 90.785 18.036 5.653 o
0 -7 13 0.001 7.378 8.166 32.945 o
0 -6 1 367.587 451.639 32.019 0.848 o
0 -6 2 27.970 33.271 8.534 26.920 o
0 -6 3 12.744 1.743 2.040 440.777 o
0 -6 4 638.447 939.731 29.575 0.347 o
0 -6 5 178.490 132.043 11.466 5.527 o
0 -6 6 10.562 52.539 6.965 40.316 o
0 -6 7 66.272 148.916 12.094 9.381 o
0 -6 8 11.233 0.048 3.551 166.930 o
0 -6 9 11.278 2.134 2.466 325.301 o
0 -6 10 8.916 16.716 5.481 70.104 o
0 -6 11 30.242 23.729 6.545 43.346 o
0 -6 12 6.607 32.876 13.655 11.646 o
0 -6 13 4.572 8.370 6.640 49.494 o
0 -6 14 3.219 29.587 10.729 18.867 o
0 -6 16 2.261 -2.645 5.873 63.708 o
0 -6 17 4.051 7.374 8.820 28.174 o
0 -5 1 101.073 162.505 13.177 6.837 o
0 -5 2 3.234 21.214 4.452 106.379 o
0 -5 3 22.438 76.734 7.718 28.929 o
0 -5 4 284.281 226.110 11.034 2.665 o
0 -5 5 14.561 12.861 2.586 254.163 o
0 -5 6 306.168 514.353 25.564 1.064 o
0 -5 7 177.960 288.848 12.862 3.500 o
0 -5 8 125.878 170.203 16.311 4.736 o
0 -5 9 4.350 7.455 3.754 152.881 o
0 -5 10 115.247 101.494 12.505 7.878 o
0 -5 11 0.552 15.342 5.426 73.947 o
0 -5 12 137.691 87.843 16.381 5.295 o
0 -5 13 2.076 2.357 3.395 189.967 o
0 -5 14 50.161 52.920 15.828 7.948 o
0 -5 15 4.212 0.253 14.362 10.657 o
0 -5 16 38.376 159.734 31.196 2.124 o
0 -5 17 15.577 15.639 14.035 11.027 o
0 -4 1 182.147 213.274 9.252 4.811 o
0 -4 2 460.442 376.296 14.159 1.060 o
0 -4 3 141.923 174.512 9.285 6.869 o
0 -4 4 770.735 1107.400 21.747 0.265 o
0 -4 5 1159.150 1664.340 28.818 0.119 o
0 -4 6 60.920 158.194 11.317 10.212 o
0 -4 7 50.132 39.223 3.261 68.066 o
0 -4 8 86.778 111.655 7.466 15.030 o
0 -4 9 433.513 319.121 13.074 1.265 o
0 -4 10 93.470 245.102 18.038 4.125 o
0 -4 11 47.530 29.883 15.190 8.863 o
0 -4 12 16.081 7.738 6.009 58.047 o
0 -4 13 0.194 8.341 4.151 127.014 o
0 -4 14 277.494 386.948 35.418 0.981 o
0 -4 15 42.573 93.811 17.745 6.274 o
0 -4 16 15.024 16.426 7.818 34.615 o
0 -4 18 0.072 4.349 9.862 22.606 o
0 -3 1 625.986 760.689 13.582 0.468 o
0 -3 2 273.663 420.393 11.510 1.871 o
0 -3 3 927.676 1020.140 16.463 0.232 o
0 -3 4 4926.510 6497.770 108.515 0.007 o
0 -3 5 600.529 745.452 19.852 0.477 o
0 -3 6 109.413 60.154 4.310 20.884 o
0 -3 7 39.913 157.727 7.998 17.351 o
0 -3 8 20.936 66.404 7.185 34.004 o
0 -3 9 227.919 320.430 18.752 2.151 o
0 -3 10 1.690 2.969 3.285 202.991 o
0 -3 11 11.803 8.008 5.578 68.226 o
0 -3 12 57.683 135.481 19.086 5.064 o
0 -3 13 51.525 110.956 18.793 5.441 o
0 -3 14 22.575 6.454 6.532 48.183 o
0 -3 15 0.600 4.919 3.048 235.595 o
0 -3 16 124.738 119.448 20.388 3.877 o
0 -3 17 23.372 48.707 14.162 10.437 o
0 -3 18 88.987 123.767 22.262 3.684 o
0 -3 19 0.769 -2.974 6.785 47.765 o
0 -2 1 2980.920 2818.130 33.366 0.025 o
0 -2 2 213.335 367.479 8.867 2.817 o
0 -2 3 892.349 1018.150 14.168 0.246 o
0 -2 4 1292.530 1711.920 40.413 0.099 o
0 -2 5 2277.050 2593.940 73.623 0.035 o
0 -2 6 296.891 513.104 14.537 1.396 o
0 -2 7 315.441 410.631 17.308 1.459 o
0 -2 8 122.364 66.392 7.764 13.080 o
0 -2 9 7.020 1.645 1.880 577.467 o
0 -2 10 19.753 38.286 9.381 23.213 o
0 -2 11 84.822 100.052 26.620 2.785 o
0 -2 12 2.599 15.442 7.435 39.440 o
0 -2 13 322.784 579.483 39.908 0.674 o
0 -2 14 109.777 127.579 14.457 6.408 o
0 -2 15 2.546 6.604 5.350 76.434 o
0 -2 16 42.146 76.735 15.782 7.912 o
0 -2 17 0.062 -0.214 2.880 265.145 o
0 -2 18 0.451 1.243 9.118 26.449 o
0 -2 19 11.678 38.239 20.363 5.250 o
0 -1 2 70.734 1.880 0.549 94.735 o
0 -1 3 1920.520 2263.120 104.526 0.042 o
0 -1 4 21.969 221.110 8.736 14.241 o
0 -1 5 129.120 241.991 13.492 4.775 o
0 -1 6 7.443 39.046 3.259 158.702 o
0 -1 7 562.690 412.808 12.787 0.786 o
0 -1 8 47.267 35.189 3.744 67.126 o
0 -1 9 1239.590 1481.660 56.618 0.106 o
0 -1 10 759.859 918.452 24.101 0.305 o
0 -1 11 149.120 126.719 7.544 8.521 o
0 -1 12 614.099 703.374 22.274 0.473 o
0 -1 13 144.539 142.753 10.488 6.922 o
0 -1 14 181.336 280.355 15.297 3.167 o
0 -1 15 73.304 158.357 16.973 5.616 o
0 -1 16 7.243 2.822 5.081 84.081 o
0 -1 17 25.776 36.881 8.675 26.191 o
0 -1 18 40.011 48.342 13.914 10.376 o
0 -1 19 8.777 7.885 9.090 26.383 o
0 0 3 0.088 1.822 0.916 2609.400 o
0 0 4 314.782 351.781 13.307 1.760 o
0 0 5 0.030 0.909 0.744 3964.120 o
0 0 6 157.328 370.976 15.254 2.909 o
0 0 7 0.124 1.546 1.171 1599.370 o
0 0 8 949.902 1219.200 36.283 0.181 o
0 0 9 0.065 1.435 1.058 1960.570 o
0 0 10 173.996 309.240 13.680 3.292 o
0 0 11 0.485 1.763 1.625 829.944 o
0 0 12 182.085 114.368 9.191 6.476 o
0 0 13 0.143 3.715 1.612 840.522 o
0 0 14 202.077 232.972 15.660 3.154 o
0 0 15 0.141 -1.859 1.789 686.782 o
0 0 16 7.743 0.971 3.974 136.658 o
0 0 17 0.031 -0.221 8.619 29.600 o
0 0 18 11.170 5.000 13.297 12.378 o
0 0 19 0.000 -5.119 4.875 92.521 o
0 0 20 5.567 -0.256 3.628 165.365 o
0 1 2 80.545 3.183 1.024 70.624 o
0 1 3 2062.180 2082.760 61.015 0.047 o
0 1 4 21.069 201.420 10.649 12.261 o
0 1 5 147.282 229.934 9.244 5.614 o
0 1 6 6.904 31.146 3.603 144.404 o
0 1 7 559.475 393.040 14.048 0.801 o
0 1 8 45.045 37.643 5.427 46.175 o
0 1 9 1243.020 1449.270 48.424 0.112 o
0 1 10 734.874 871.896 56.143 0.238 o
0 1 11 123.186 109.362 10.594 8.685 o
0 1 12 584.029 640.035 27.956 0.497 o
0 1 13 129.163 118.885 17.067 4.890 o
0 1 14 207.877 292.470 25.020 1.857 o
0 1 15 78.302 152.260 18.676 4.833 o
0 1 16 5.635 5.394 9.084 26.547 o
0 1 17 25.527 51.552 13.099 11.997 o
0 1 18 44.284 44.631 9.976 18.436 o
0 1 19 7.268 15.987 6.802 46.489 o
0 1 20 5.632 -0.777 5.277 78.566 o
0 2 0 328.550 272.612 5.872 2.205 o
0 2 1 2966.380 2839.590 30.773 0.025 o
0 2 2 227.055 360.011 9.050 2.682 o
0 2 3 879.276 1000.450 21.405 0.246 o
0 2 4 1280.740 1586.380 25.067 0.111 o
0 2 5 2309.220 2498.280 68.624 0.036 o
0 2 6 281.312 468.812 22.300 1.308 o
0 2 7 332.969 350.228 18.409 1.477 o
0 2 8 117.413 63.119 8.000 13.499 o
0 2 9 6.666 -0.072 1.076 1621.150 o
0 2 10 25.955 26.411 5.838 53.742 o
0 2 11 75.373 88.055 14.304 8.202 o
0 2 12 3.379 4.681 3.892 143.764 o
0 2 13 344.089 545.626 38.640 0.690 o
0 2 14 95.593 104.719 13.614 7.775 o
0 2 15 2.828 9.376 5.149 82.156 o
0 2 16 49.114 82.172 12.059 12.106 o
0 2 17 0.031 0.496 3.340 197.077 o
0 2 18 0.259 8.715 11.798 15.788 o
0 2 19 10.083 26.778 10.143 20.877 o
0 3 0 0.114 0.261 0.487 9265.410 o
0 3 1 618.378 758.749 14.992 0.472 o
0 3 2 293.583 399.400 10.985 1.826 o
0 3 3 954.836 978.911 20.831 0.226 o
0 3 4 4958.760 6276.570 99.178 0.007 o
0 3 5 627.475 699.361 35.029 0.401 o
0 3 6 106.755 49.120 4.358 22.943 o
0 3 7 48.592 150.966 8.833 15.006 o
0 3 8 22.443 68.458 7.308 32.484 o
0 3 9 228.981 297.336 16.821 2.395 o
0 3 10 2.189 -2.056 3.915 143.254 o
0 3 11 8.826 8.840 3.552 164.148 o
0 3 12 67.692 133.034 13.354 8.506 o
0 3 13 63.599 79.356 10.588 13.778 o
0 3 14 26.690 5.507 4.267 99.638 o
0 3 15 1.470 12.306 5.145 82.269 o
0 3 16 112.191 129.151 20.509 3.928 o
0 3 17 21.994 33.032 11.139 16.826 o
0 3 18 90.618 131.009 21.405 3.880 o
0 4 0 33.389 39.379 3.759 82.427 o
0 4 1 175.539 215.392 8.685 5.082 o
0 4 2 516.974 362.193 10.246 0.966 o
0 4 3 141.985 167.586 10.295 6.603 o
0 4 4 820.191 1018.600 29.145 0.252 o
0 4 5 1197.660 1588.640 45.049 0.112 o
0 4 6 60.169 173.815 13.975 7.542 o
0 4 7 63.387 39.419 6.887 28.122 o
0 4 8 98.178 114.635 12.405 8.407 o
0 4 9 425.243 294.527 12.563 1.359 o
0 4 10 102.607 218.222 12.359 6.242 o
0 4 11 50.490 32.553 5.459 44.273 o
0 4 12 15.021 7.406 4.731 91.827 o
0 4 13 0.012 8.111 5.021 86.965 o
0 4 14 274.487 320.571 26.384 1.430 o
0 4 15 37.203 79.082 16.468 7.394 o
0 4 16 20.507 16.958 7.837 33.746 o
0 4 17 1.414 3.325 4.878 92.248 o
0 4 18 0.432 -8.567 8.315 31.805 o
0 4 19 12.372 15.790 10.751 18.729 o
0 5 0 0.096 0.159 1.394 1130.990 o
0 5 1 93.250 150.969 7.709 11.809 o
0 5 2 3.408 29.140 3.220 186.256 o
0 5 3 24.448 68.374 7.019 34.060 o
0 5 4 254.893 206.602 13.013 2.968 o
0 5 5 9.997 16.893 4.744 91.534 o
0 5 6 318.666 484.664 26.069 1.057 o
0 5 7 160.197 254.222 19.318 2.969 o
0 5 8 123.311 195.514 17.416 4.221 o
0 5 9 5.167 11.925 4.582 102.071 o
0 5 10 106.633 107.526 13.422 7.461 o
0 5 11 0.535 11.909 5.004 87.163 o
0 5 12 139.044 85.576 13.005 6.949 o
0 5 13 5.144 4.871 3.548 171.198 o
0 5 14 48.357 68.010 12.393 11.964 o
0 5 15 2.864 4.175 6.716 48.632 o
0 5 16 44.782 153.581 19.297 5.019 o
0 5 17 16.399 0.180 22.975 4.157 o
0 6 0 1138.540 1002.920 35.031 0.166 o
0 6 1 342.209 397.991 26.823 1.086 o
0 6 2 28.193 23.346 2.916 141.110 o
0 6 3 13.583 -0.752 2.463 319.092 o
0 6 4 629.895 875.723 36.241 0.344 o
0 6 5 200.672 130.069 13.829 4.347 o
0 6 6 9.703 47.063 8.488 28.577 o
0 6 7 81.525 142.385 15.352 6.477 o
0 6 8 13.571 -0.771 2.047 438.816 o
0 6 9 11.734 -0.666 5.021 85.167 o
0 6 10 7.686 16.655 5.361 73.592 o
0 6 11 28.066 11.970 6.890 41.777 o
0 6 12 6.814 30.180 8.893 27.075 o
0 6 13 4.169 8.224 4.754 96.000 o
0 6 14 2.510 14.097 5.127 82.371 o
0 6 15 5.292 1.416 8.745 28.695 o
0 6 16 2.453 7.844 8.406 31.045 o
0 7 0 0.070 -2.543 4.747 97.600 o
0 7 1 117.010 70.473 13.707 7.553 o
0 7 2 64.105 127.054 15.313 7.162 o
0 7 3 59.724 75.096 11.864 12.024 o
0 7 4 11.409 3.143 3.000 225.470 o
0 7 5 449.570 704.122 42.213 0.474 o
0 7 6 1.450 8.445 9.305 25.356 o
0 7 7 46.957 88.489 13.581 9.929 o
0 7 8 33.424 30.519 8.166 28.468 o
0 7 9 0.320 -0.582 3.390 191.329 o
0 7 10 2.140 15.757 7.316 40.746 o
0 7 11 2.485 -1.123 2.566 332.702 o
0 7 12 75.088 90.707 15.183 7.451 o
0 7 13 0.232 1.201 4.317 117.990 o
0 7 14 21.545 45.914 18.525 6.247 o
0 7 15 8.558 5.918 6.975 44.663 o
0 8 0 27.572 67.839 12.070 13.530 o
0 8 1 31.118 83.278 13.439 10.771 o
0 8 2 1.259 -2.963 5.634 69.263 o
0 8 3 1.565 2.396 4.908 91.153 o
0 8 4 0.359 6.308 4.481 109.245 o
0 8 5 0.258 2.850 3.201 214.322 o
0 8 6 0.668 6.293 5.031 86.674 o
0 8 7 60.899 178.642 20.655 4.172 o
0 8 8 0.637 6.089 3.590 169.881 o
0 8 9 2.054 0.879 4.557 105.762 o
0 8 10 0.349 9.567 11.256 17.340 o
0 8 11 28.443 101.043 27.569 2.791 o
0 8 12 0.168 -5.287 7.308 41.179 o
0 9 0 0.000 3.146 4.934 90.277 o
0 9 1 12.566 29.755 14.591 10.169 o
0 9 2 10.999 41.523 10.495 19.183 o
0 9 3 42.624 70.670 15.925 7.835 o
0 9 4 1.172 0.911 7.921 35.039 o
0 9 5 20.470 45.756 11.482 15.685 o
0 9 6 5.388 -4.219 4.659 100.703 o
0 9 7 10.804 3.376 4.138 123.413 o
0 10 0 31.667 31.023 15.012 9.347 o
0 10 1 18.416 29.702 15.807 8.631 o
1 -9 0 42.884 86.290 14.722 8.807 o
1 -9 1 9.466 22.214 7.692 36.022 o
1 -9 2 63.808 177.120 17.921 5.181 o
1 -9 3 0.503 0.557 7.218 42.205 o
1 -9 4 3.178 14.136 9.244 25.595 o
1 -9 5 2.308 2.870 5.008 87.471 o
1 -9 6 29.981 119.339 31.337 2.161 o
1 -9 7 1.103 -3.374 6.632 49.984 o
1 -9 8 1.165 59.165 21.419 4.750 o
1 -8 0 2.154 0.159 2.944 253.110 o
1 -8 1 9.256 19.250 8.097 32.746 o
1 -8 2 22.681 102.918 19.424 5.474 o
1 -8 3 176.677 199.330 19.720 3.016 o
1 -8 4 48.370 19.323 8.481 25.293 o
1 -8 5 62.926 142.406 39.135 1.365 o
1 -8 6 3.533 0.102 4.773 96.289 o
1 -8 7 0.027 10.025 13.745 11.633 o
1 -8 8 6.995 5.438 7.370 40.173 o
1 -8 9 1.294 0.345 2.593 326.616 o
1 -8 10 0.034 10.470 6.456 52.611 o
1 -7 0 122.417 247.293 26.062 2.318 o
1 -7 1 48.711 39.718 9.921 18.421 o
1 -7 2 24.638 2.191 4.578 91.964 o
1 -7 3 74.816 70.436 9.298 15.664 o
1 -7 4 8.879 47.007 7.209 38.830 o
1 -7 5 1.162 3.255 2.562 333.327 o
1 -7 6 6.926 3.218 3.676 158.948 o
1 -7 7 42.777 47.773 9.356 20.488 o
1 -7 8 48.387 40.543 9.038 21.414 o
1 -7 9 22.575 48.232 10.082 19.748 o
1 -7 10 51.720 133.743 20.057 4.730 o
1 -7 11 38.993 16.343 7.417 33.870 o
1 -7 12 23.665 54.394 14.404 10.042 o
1 -7 13 1.260 9.363 8.960 27.338 o
1 -7 14 0.464 -14.865 11.633 16.250 o
1 -6 0 746.847 805.776 71.052 0.201 o
1 -6 1 115.722 183.990 20.242 3.654 o
1 -6 2 201.936 284.487 24.697 1.933 o
1 -6 3 129.086 134.471 13.634 6.150 o
1 -6 4 2.644 6.361 2.842 267.335 o
1 -6 5 0.114 -1.145 1.868 630.330 o
1 -6 6 29.278 23.354 4.597 76.863 o
1 -6 7 0.684 49.068 8.856 27.063 o
1 -6 8 22.099 54.254 12.405 13.354 o
1 -6 9 207.416 230.121 33.872 1.365 o
1 -6 10 12.701 56.110 10.352 19.196 o
1 -6 11 12.483 5.655 7.268 40.819 o
1 -6 12 59.524 72.752 15.705 7.646 o
1 -6 13 1.777 15.553 7.679 37.038 o
1 -6 14 0.950 11.820 10.954 18.295 o
1 -6 15 5.911 15.359 11.413 16.776 o
1 -6 16 14.761 5.718 8.217 31.912 o
1 -5 0 58.736 110.192 6.510 21.973 o
1 -5 1 463.621 620.825 23.143 0.686 o
1 -5 2 3.433 -0.381 1.809 661.032 o
1 -5 3 38.379 96.243 8.459 20.970 o
1 -5 4 82.022 64.542 6.236 22.648 o
1 -5 5 10.126 25.557 3.551 147.142 o
1 -5 6 41.567 23.966 3.610 85.196 o
1 -5 7 27.368 47.889 4.488 69.014 o
1 -5 8 1.457 19.725 5.173 80.463 o
1 -5 9 20.610 3.613 2.485 261.255 o
1 -5 10 7.142 0.949 1.897 570.090 o
1 -5 11 147.223 182.947 17.956 3.817 o
1 -5 12 0.953 20.210 7.979 34.250 o
1 -5 13 0.739 27.555 10.393 20.186 o
1 -5 14 6.632 6.493 6.451 52.291 o
1 -5 15 34.341 25.488 10.136 19.528 o
1 -5 16 14.406 87.502 27.551 2.841 o
1 -5 17 101.544 228.125 43.422 1.051 o
1 -4 0 793.690 924.796 25.005 0.287 o
1 -4 1 6.794 10.768 1.901 514.455 o
1 -4 2 3.978 2.151 1.554 869.324 o
1 -4 3 203.995 233.031 10.472 3.877 o
1 -4 4 858.250 864.416 20.556 0.280 o
1 -4 5 82.576 102.161 7.678 15.876 o
1 -4 6 56.088 117.255 13.766 8.864 o
1 -4 7 0.142 4.625 1.026 2038.870 o
1 -4 8 0.454 5.233 2.119 485.148 o
1 -4 9 226.412 277.193 14.562 2.730 o
1 -4 10 104.440 262.685 18.483 3.733 o
1 -4 11 54.986 109.850 17.319 6.217 o
1 -4 12 105.300 120.178 18.908 4.587 o
1 -4 13 102.008 160.183 22.587 3.343 o
1 -4 14 148.294 170.231 25.383 2.479 o
1 -4 15 0.004 14.296 7.576 38.164 o
1 -4 16 47.746 74.644 16.948 6.883 o
1 -4 17 1.089 -13.698 11.365 17.026 o
1 -3 0 473.184 1089.080 17.207 0.448 o
1 -3 1 36.408 52.651 3.459 74.564 o
1 -3 2 1182.180 1888.290 46.824 0.098 o
1 -3 3 640.505 597.771 17.976 0.517 o
1 -3 4 1500.650 2085.090 67.475 0.066 o
1 -3 5 2276.850 2563.080 46.462 0.038 o
1 -3 6 225.972 340.153 9.718 2.773 o
1 -3 7 28.423 76.596 7.036 31.723 o
1 -3 8 201.490 237.384 22.854 2.246 o
1 -3 9 73.344 203.584 12.086 7.782 o
1 -3 10 0.075 0.341 2.701 301.327 o
1 -3 11 75.094 126.821 18.002 5.370 o
1 -3 12 23.856 77.949 14.651 9.470 o
1 -3 13 195.709 144.329 32.371 1.608 o
1 -3 14 0.758 -3.936 4.020 136.044 o
1 -3 15 101.194 116.102 20.081 4.260 o
1 -3 16 85.539 73.751 15.952 6.846 o
1 -3 17 3.304 7.120 4.550 105.176 o
1 -3 18 13.815 23.502 14.229 10.708 o
1 -2 0 0.436 18.013 1.695 672.448 o
1 -2 1 1115.080 1532.520 22.018 0.135 o
1 -2 2 968.702 663.257 15.431 0.283 o
1 -2 3 759.939 538.801 16.783 0.440 o
1 -2 4 80.178 202.230 8.296 10.222 o
1 -2 5 2550.150 3424.340 86.779 0.025 o
1 -2 6 613.822 684.318 20.378 0.490 o
1 -2 7 247.990 407.007 17.679 1.802 o
1 -2 8 325.529 444.948 31.637 0.940 o
1 -2 9 8.367 14.599 4.123 121.548 o
1 -2 10 53.821 85.132 10.313 14.886 o
1 -2 11 2.339 37.718 7.052 42.509 o
1 -2 12 441.995 552.170 28.390 0.709 o
1 -2 13 370.426 594.251 30.687 0.752 o
1 -2 14 538.813 691.600 41.536 0.422 o
1 -2 15 52.126 45.122 9.983 17.662 o
1 -2 16 31.896 98.050 18.193 6.106 o
1 -2 17 17.858 35.588 12.736 13.100 o
1 -2 18 4.003 -7.698 6.518 51.670 o
1 -1 1 95.146 142.336 5.539 14.292 o
1 -1 2 818.363 1127.200 50.679 0.199 o
1 -1 3 14174.300 13004.300 301.102 0.001 o
1 -1 4 2685.440 3439.840 145.177 0.020 o
1 -1 5 218.825 234.452 15.469 2.962 o
1 -1 6 12.886 3.466 1.435 729.998 o
1 -1 7 1271.170 1274.950 62.573 0.109 o
1 -1 8 249.705 343.770 18.635 1.931 o
1 -1 9 88.677 131.257 9.996 10.677 o
1 -1 10 163.068 178.844 13.692 4.664 o
1 -1 11 153.566 145.766 14.078 5.154 o
1 -1 12 175.463 243.515 17.665 3.117 o
1 -1 13 29.874 27.212 4.508 76.514 o
1 -1 14 0.795 0.984 4.387 114.234 o
1 -1 15 117.396 199.147 29.331 2.055 o
1 -1 16 3.198 6.265 3.889 143.697 o
1 -1 17 22.809 35.474 8.773 26.090 o
1 -1 18 9.000 33.194 12.005 14.956 o
1 0 2 0.095 0.633 0.324 20775.800 o
1 0 3 1176.990 765.338 12.018 0.200 o
1 0 4 0.429 1.575 0.682 4668.600 o
1 0 5 50.283 8.555 1.407 144.169 o
1 0 6 1.102 0.736 0.701 4386.530 o
1 0 7 685.835 969.945 25.571 0.325 o
1 0 8 0.141 0.884 2.040 528.325 o
1 0 9 263.391 462.396 17.315 1.583 o
1 0 10 0.017 0.591 2.140 480.256 o
1 0 11 240.289 322.002 14.259 2.389 o
1 0 12 0.875 1.866 1.536 926.778 o
1 0 13 159.339 266.157 19.316 2.917 o
1 0 14 0.070 3.136 3.221 211.705 o
1 0 15 89.951 159.306 12.576 7.683 o
1 0 16 0.001 4.959 4.969 88.980 o
1 0 17 43.692 42.739 10.220 17.834 o
1 0 18 0.000 -0.114 16.906 7.694 o
1 0 19 11.319 19.608 8.606 28.916 o
1 1 1 89.682 123.473 3.129 19.652 o
1 1 2 807.530 1016.090 27.545 0.260 o
1 1 3 13913.400 13466.800 325.878 0.001 o
1 1 4 2718.830 3220.570 81.775 0.024 o
1 1 5 203.248 222.595 7.636 4.407 o
1 1 6 11.846 2.571 1.119 1088.330 o
1 1 7 1284.510 1282.550 52.537 0.114 o
1 1 8 257.278 321.733 14.761 2.206 o
1 1 9 77.216 120.586 9.356 12.805 o
1 1 10 178.850 148.636 10.807 5.465 o
1 1 11 143.715 131.377 10.503 7.194 o
1 1 12 174.561 238.247 14.753 3.654 o
1 1 13 28.963 26.654 7.209 36.685 o
1 1 14 0.784 0.445 5.450 74.029 o
1 1 15 113.508 159.978 21.317 3.540 o
1 1 16 4.572 2.880 2.294 405.409 o
1 1 17 19.492 29.905 10.063 20.640 o
1 1 18 12.999 23.279 10.621 19.038 o
1 1 19 10.992 27.979 10.278 20.284 o
1 1 20 1.466 -13.920 7.352 40.678 o
1 2 0 3.297 17.322 1.440 811.487 o
1 2 1 1144.090 1474.430 24.809 0.134 o
1 2 2 928.193 617.885 12.000 0.316 o
1 2 3 798.984 523.886 12.130 0.426 o
1 2 4 87.348 200.266 7.163 10.583 o
1 2 5 2566.700 3317.990 65.972 0.026 o
1 2 6 663.320 672.869 33.646 0.394 o
1 2 7 226.470 348.526 18.649 2.069 o
1 2 8 343.413 428.923 21.543 1.188 o
1 2 9 13.134 19.247 4.745 88.599 o
1 2 10 62.395 89.126 13.553 9.372 o
1 2 11 1.059 35.872 8.935 27.003 o
1 2 12 438.292 514.204 36.686 0.628 o
1 2 13 368.559 532.010 38.776 0.667 o
1 2 14 532.859 660.042 45.184 0.410 o
1 2 15 44.120 48.714 23.090 3.969 o
1 2 16 37.806 75.139 17.008 6.990 o
1 2 17 20.735 12.882 9.239 24.805 o
1 2 18 6.037 2.193 4.052 132.135 o
1 2 19 2.169 0.327 3.503 178.894 o
1 3 0 464.366 1084.720 16.152 0.461 o
1 3 1 31.660 51.711 3.036 91.816 o
1 3 2 1225.790 1807.840 30.654 0.104 o
1 3 3 658.084 555.537 14.419 0.535 o
1 3 4 1446.660 1941.160 36.848 0.080 o
1 3 5 2338.400 2574.140 56.745 0.036 o
1 3 6 224.349 294.816 17.507 2.385 o
1 3 7 31.350 81.334 9.431 19.631 o
1 3 8 184.696 235.505 21.818 2.489 o
1 3 9 57.904 197.697 20.529 4.143 o
1 3 10 0.554 7.556 5.241 79.829 o
1 3 11 79.449 121.176 17.604 5.536 o
1 3 12 19.060 57.453 12.657 12.908 o
1 3 13 196.610 151.302 21.198 2.821 o
1 3 14 0.575 4.075 4.476 109.591 o
1 3 15 115.464 82.998 17.366 5.346 o
1 3 16 73.854 71.237 15.822 7.241 o
1 3 17 4.288 4.269 4.703 98.608 o
1 3 18 11.938 10.319 8.797 27.945 o
1 4 0 764.291 935.428 17.934 0.310 o
1 4 1 8.568 10.630 1.648 615.073 o
1 4 2 2.088 4.224 1.180 1495.120 o
1 4 3 205.926 201.155 10.776 4.113 o
1 4 4 888.405 822.202 23.774 0.272 o
1 4 5 80.441 98.507 10.431 11.968 o
1 4 6 55.218 122.706 11.913 10.864 o
1 4 7 0.078 3.762 2.522 344.856 o
1 4 8 2.291 3.619 1.142 1595.520 o
1 4 9 205.654 252.977 10.072 3.709 o
1 4 10 103.963 227.907 13.251 5.682 o
1 4 11 54.812 89.108 8.821 18.058 o
1 4 12 111.058 119.915 15.629 5.871 o
1 4 13 105.184 146.931 17.038 5.085 o
1 4 14 161.815 150.082 18.233 3.776 o
1 4 15 0.053 8.824 5.483 72.933 o
1 4 16 48.038 77.961 11.780 12.749 o
1 4 17 0.948 -0.386 13.210 12.601 o
1 4 18 0.001 21.094 12.632 13.739 o
1 5 0 65.555 109.819 6.859 19.693 o
1 5 1 442.472 628.640 16.395 0.780 o
1 5 2 1.423 -1.690 1.071 1901.430 o
1 5 3 36.384 85.322 8.078 23.629 o
1 5 4 78.791 63.923 8.534 17.250 o
1 5 5 6.171 21.971 5.433 71.334 o
1 5 6 52.566 20.072 6.059 40.591 o
1 5 7 31.448 51.705 8.638 24.643 o
1 5 8 0.554 18.792 5.449 72.978 o
1 5 9 21.983 9.252 3.789 125.573 o
1 5 10 5.948 -0.056 2.953 247.705 o
1 5 11 147.831 216.086 19.957 3.188 o
1 5 12 0.242 17.752 6.274 55.349 o
1 5 13 0.310 7.776 5.300 78.067 o
1 5 14 6.905 11.698 6.264 55.029 o
1 5 15 35.842 33.315 8.763 24.687 o
1 5 16 15.011 78.549 24.225 3.665 o
1 5 17 102.955 144.048 34.867 1.626 o
1 6 0 717.741 796.621 26.688 0.351 o
1 6 1 112.169 139.219 8.193 10.262 o
1 6 2 210.503 181.553 21.668 2.516 o
1 6 3 117.426 162.092 14.522 5.692 o
1 6 4 2.368 13.265 4.125 126.574 o
1 6 5 0.092 3.452 4.959 89.353 o
1 6 6 23.488 23.780 7.559 35.064 o
1 6 7 1.371 30.886 6.921 44.736 o
1 6 8 21.336 60.928 10.240 18.828 o
1 6 9 194.547 247.639 21.717 2.382 o
1 6 10 9.807 45.410 10.504 19.117 o
1 6 11 17.553 13.139 5.427 68.618 o
1 6 12 46.523 94.861 14.401 8.914 o
1 6 13 1.319 17.305 10.814 18.735 o
1 6 14 0.544 2.097 3.304 201.283 o
1 7 0 119.855 261.269 27.894 2.080 o
1 7 1 49.598 36.693 14.322 9.744 o
1 7 2 23.764 2.305 2.608 229.721 o
1 7 3 65.777 46.331 8.125 21.716 o
1 7 4 9.517 34.254 7.594 36.157 o
1 7 5 1.286 9.696 5.802 64.997 o
1 7 6 10.274 7.240 6.107 57.634 o
1 7 7 42.953 49.196 11.152 15.199 o
1 7 8 43.490 50.341 9.872 18.565 o
1 7 9 20.181 57.245 10.763 17.392 o
1 7 10 51.027 108.417 15.406 7.671 o
1 7 11 34.615 23.698 7.753 31.540 o
1 7 12 18.120 41.027 9.904 20.998 o
1 7 13 0.636 4.114 3.887 145.231 o
1 8 0 3.354 -2.114 2.878 263.807 o
1 8 1 10.237 18.587 6.453 50.739 o
1 8 2 29.512 99.767 15.211 8.476 o
1 8 3 182.991 257.913 24.442 2.133 o
1 8 4 45.181 35.604 8.005 26.900 o
1 8 5 60.067 137.307 15.539 6.976 o
1 8 6 3.354 0.474 2.657 308.915 o
1 8 7 0.308 13.637 5.243 79.353 o
1 8 8 8.197 11.703 6.126 57.254 o
1 8 9 3.657 0.179 6.241 56.360 o
1 8 10 0.317 11.940 6.675 49.160 o
1 8 11 7.781 59.773 15.136 9.342 o
1 8 12 14.764 -4.857 6.229 55.285 o
1 9 0 41.386 85.424 14.563 9.028 o
1 9 1 11.213 22.287 6.954 43.470 o
1 9 2 67.145 195.938 29.472 2.221 o
1 9 3 1.109 -3.856 5.872 63.774 o
1 9 4 3.918 22.495 9.088 26.303 o
1 9 5 3.122 -6.646 5.628 69.344 o
1 9 6 34.678 77.222 17.520 6.647 o
1 9 7 1.817 3.417 6.055 59.892 o
1 9 8 1.834 -0.154 9.349 25.153 o
1 10 0 2.088 -10.180 9.500 24.363 o
2 -9 0 0.773 14.703 7.754 36.401 o
2 -9 1 0.003 7.270 8.844 28.096 o
2 -9 2 48.556 88.669 18.267 5.910 o
2 -9 3 15.185 18.915 8.584 28.786 o
2 -9 4 4.657 -1.558 4.868 92.421 o
2 -9 5 12.482 19.448 8.416 30.111 o
2 -9 6 1.291 -8.803 9.333 25.244 o
2 -9 7 1.260 -5.999 7.429 39.843 o
2 -8 0 25.969 32.083 10.703 17.963 o
2 -8 1 18.936 17.944 8.422 29.560 o
2 -8 2 8.313 10.169 4.905 88.464 o
2 -8 3 6.156 10.865 4.255 117.580 o
2 -8 4 0.042 -2.502 3.360 194.819 o
2 -8 5 3.352 4.721 3.858 146.315 o
2 -8 6 1.116 9.913 4.920 90.245 o
2 -8 7 21.698 50.811 10.607 17.967 o
2 -8 8 7.253 12.566 5.837 63.027 o
2 -8 9 0.871 27.645 15.257 9.408 o
2 -8 10 3.137 29.836 15.018 9.687 o
2 -8 11 32.400 126.349 32.354 2.022 o
2 -7 0 95.799 186.107 23.934 3.006 o
2 -7 1 263.931 386.261 32.413 1.110 o
2 -7 2 0.447 4.612 3.978 138.674 o
2 -7 3 0.369 3.137 3.615 168.023 o
2 -7 4 133.546 103.202 11.515 7.707 o
2 -7 5 9.719 32.183 5.827 59.572 o
2 -7 6 43.994 55.564 10.297 17.050 o
2 -7 7 61.234 51.950 12.416 11.694 o
2 -7 8 12.071 0.184 3.024 224.251 o
2 -7 9 2.451 2.477 4.272 120.084 o
2 -7 10 23.600 55.835 14.367 10.077 o
2 -7 11 0.683 -0.121 2.896 262.210 o
2 -7 12 26.371 5.457 5.810 58.588 o
2 -7 13 34.378 98.540 29.422 2.452 o
2 -6 0 9.616 28.023 6.162 54.365 o
2 -6 1 146.084 193.244 21.800 2.981 o
2 -6 2 87.944 77.628 8.379 15.508 o
2 -6 3 9.990 -0.375 2.030 481.714 o
2 -6 4 23.383 63.455 8.439 25.954 o
2 -6 5 0.416 3.737 2.498 351.114 o
2 -6 6 34.338 71.543 8.541 23.191 o
2 -6 7 52.220 4.332 3.714 81.486 o
2 -6 8 3.254 45.254 8.770 27.528 o
2 -6 9 25.723 15.597 4.977 73.836 o
2 -6 10 0.654 8.080 6.214 56.805 o
2 -6 11 0.027 10.644 7.197 42.353 o
2 -6 12 1.596 17.323 9.515 24.163 o
2 -6 13 20.157 87.715 18.316 6.217 o
2 -6 14 6.142 22.045 13.623 11.766 o
2 -6 15 5.779 16.614 12.374 14.280 o
2 -5 0 79.821 148.389 10.448 10.238 o
2 -5 1 105.508 108.379 9.100 11.195 o
2 -5 2 185.244 291.289 14.834 3.108 o
2 -5 3 4.766 14.989 2.918 239.509 o
2 -5 4 0.834 -0.651 1.205 1512.370 o
2 -5 5 0.002 13.699 5.271 78.546 o
2 -5 6 19.189 22.791 3.261 148.594 o
2 -5 7 38.113 131.250 10.936 13.129 o
2 -5 8 479.763 478.937 27.167 0.723 o
2 -5 9 109.210 157.319 15.535 5.518 o
2 -5 10 48.997 145.500 14.938 7.606 o
2 -5 11 2.288 2.960 6.252 56.161 o
2 -5 12 202.701 359.116 34.895 1.177 o
2 -5 13 2.671 11.645 6.751 47.906 o
2 -5 14 7.152 1.384 5.188 80.871 o
2 -5 15 2.605 6.597 7.731 36.702 o
2 -5 16 2.197 6.209 8.793 28.394 o
2 -4 0 700.466 850.410 23.967 0.354 o
2 -4 1 3178.660 4184.050 93.824 0.017 o
2 -4 2 108.474 147.614 8.228 10.196 o
2 -4 3 273.199 349.920 20.612 1.667 o
2 -4 4 18.848 55.154 5.230 59.515 o
2 -4 5 92.795 35.599 4.189 30.512 o
2 -4 6 134.805 230.199 23.973 2.579 o
2 -4 7 76.688 42.911 5.881 28.369 o
2 -4 8 308.652 387.405 18.398 1.504 o
2 -4 9 36.383 52.999 8.206 25.888 o
2 -4 10 49.682 46.569 6.137 35.823 o
2 -4 11 121.856 182.565 22.771 3.051 o
2 -4 12 31.009 58.595 13.127 11.665 o
2 -4 13 39.968 68.083 15.190 8.620 o
2 -4 14 52.996 111.291 20.459 4.668 o
2 -4 15 21.444 26.135 12.353 13.927 o
2 -4 16 94.042 59.739 15.613 7.044 o
2 -4 17 6.258 28.801 15.201 9.440 o
2 -3 0 953.828 1169.600 32.758 0.189 o
2 -3 1 18.951 27.626 2.534 196.315 o
2 -3 2 115.240 91.195 4.425 16.308 o
2 -3 3 1528.960 1815.450 49.201 0.076 o
2 -3 4 611.735 1032.690 31.613 0.330 o
2 -3 5 38.404 114.955 4.329 36.863 o
2 -3 6 121.150 148.514 5.576 10.932 o
2 -3 7 469.371 592.103 22.152 0.709 o
2 -3 8 50.958 23.593 1.995 102.134 o
2 -3 9 149.248 162.343 10.741 6.249 o
2 -3 10 38.243 59.810 7.747 27.250 o
2 -3 11 52.945 112.973 15.684 7.347 o
2 -3 12 0.805 2.036 2.125 485.448 o
2 -3 13 79.512 133.327 20.269 4.346 o
2 -3 14 194.338 326.935 33.209 1.314 o
2 -3 15 2.916 2.979 4.928 90.213 o
2 -3 16 12.562 15.096 7.554 37.362 o
2 -3 17 0.289 -10.830 7.145 43.076 o
2 -2 0 1705.920 1989.510 40.575 0.064 o
2 -2 1 782.876 790.406 26.487 0.319 o
2 -2 2 1451.240 1538.000 62.112 0.085 o
2 -2 3 1267.310 2119.380 100.361 0.064 o
2 -2 4 25.488 47.782 3.002 110.678 o
2 -2 5 872.834 746.214 22.589 0.296 o
2 -2 6 16.779 95.478 3.737 67.707 o
2 -2 7 577.287 606.731 26.184 0.531 o
2 -2 8 7.320 23.819 2.826 228.357 o
2 -2 9 4.747 27.435 3.460 162.995 o
2 -2 10 2.893 8.846 2.311 394.284 o
2 -2 11 22.401 29.543 4.601 80.486 o
2 -2 12 110.148 159.972 16.474 5.086 o
2 -2 13 12.329 5.913 2.912 231.010 o
2 -2 14 111.059 164.924 33.506 1.705 o
2 -2 15 0.592 -5.122 4.946 89.902 o
2 -2 16 11.936 22.322 9.439 24.040 o
2 -2 17 4.206 1.055 6.326 54.816 o
2 -2 18 0.544 7.784 9.210 25.899 o
2 -1 0 858.283 820.933 44.178 0.241 o
2 -1 1 271.879 275.090 21.654 1.809 o
2 -1 2 4787.370 6245.160 314.912 0.006 o
2 -1 3 5938.420 6901.620 148.461 0.005 o
2 -1 4 1727.420 2035.800 86.197 0.054 o
2 -1 5 367.236 285.309 9.072 1.772 o
2 -1 6 1651.260 1693.490 52.238 0.072 o
2 -1 7 715.955 899.897 23.759 0.332 o
2 -1 8 871.323 972.826 41.230 0.222 o
2 -1 9 514.097 492.846 27.200 0.663 o
2 -1 10 82.800 46.994 6.382 24.142 o
2 -1 11 41.154 48.865 7.522 29.033 o
2 -1 12 227.862 299.495 18.403 2.258 o
2 -1 13 73.250 96.785 10.954 11.830 o
2 -1 14 1.535 15.618 5.288 77.575 o
2 -1 15 98.549 104.695 14.210 7.249 o
2 -1 16 31.732 73.747 13.009 11.562 o
2 -1 17 97.054 157.175 24.834 2.916 o
2 -1 18 16.502 35.364 17.933 6.730 o
2 0 0 1388.890 1199.940 24.202 0.121 o
2 0 1 0.026 0.651 0.519 8156.320 o
2 0 2 14937.400 14371.500 395.365 0.001 o
2 0 3 0.001 1.649 0.624 5608.630 o
2 0 4 288.385 95.077 3.994 4.237 o
2 0 5 0.144 0.224 0.763 3774.580 o
2 0 6 558.346 673.237 18.413 0.563 o
2 0 7 0.170 1.247 0.986 2255.770 o
2 0 8 107.989 200.495 10.418 7.291 o
2 0 9 0.072 0.224 0.900 2712.660 o
2 0 10 302.229 385.283 15.336 1.658 o
2 0 11 0.070 0.335 1.506 969.468 o
2 0 12 229.862 218.396 18.203 2.607 o
2 0 13 0.757 0.501 2.692 303.313 o
2 0 14 2.457 1.380 2.519 344.253 o
2 0 15 0.022 -1.365 3.113 226.961 o
2 0 16 10.988 42.663 8.119 31.160 o
2 0 17 0.192 -1.045 3.885 145.698 o
2 0 18 8.488 32.888 12.301 14.273 o
2 1 0 864.278 745.556 12.879 0.315 o
2 1 1 292.944 256.322 4.473 2.715 o
2 1 2 4827.790 6053.470 143.012 0.007 o
2 1 3 5957.870 7220.190 153.206 0.005 o
2 1 4 1724.700 1905.320 52.005 0.063 o
2 1 5 300.937 273.634 7.651 2.410 o
2 1 6 1552.200 1695.730 29.660 0.083 o
2 1 7 704.694 918.359 19.717 0.342 o
2 1 8 898.027 1020.530 26.417 0.231 o
2 1 9 522.695 493.304 15.258 0.766 o
2 1 10 75.862 42.853 4.222 36.644 o
2 1 11 48.870 49.499 4.405 50.497 o
2 1 12 222.143 283.025 21.697 2.075 o
2 1 13 75.872 109.878 14.177 7.934 o
2 1 14 0.006 27.349 7.710 36.479 o
2 1 15 98.746 107.819 14.748 6.844 o
2 1 16 38.476 42.931 12.091 13.559 o
2 1 17 92.568 123.519 31.156 2.042 o
2 1 18 15.655 27.843 10.152 20.560 o
2 1 19 6.610 0.441 4.102 129.114 o
2 2 0 1792.080 1886.100 34.365 0.064 o
2 2 1 797.098 782.064 15.144 0.337 o
2 2 2 1410.850 1418.350 33.197 0.104 o
2 2 3 1308.010 1933.970 33.474 0.091 o
2 2 4 14.983 45.935 3.426 121.165 o
2 2 5 836.249 735.397 17.315 0.325 o
2 2 6 13.626 89.990 7.841 28.644 o
2 2 7 555.267 520.972 20.241 0.652 o
2 2 8 8.334 27.140 5.439 69.323 o
2 2 9 7.650 22.830 5.353 72.630 o
2 2 10 0.923 11.485 5.535 71.326 o
2 2 11 22.709 21.928 4.344 91.925 o
2 2 12 119.007 128.603 11.767 7.632 o
2 2 13 17.772 10.863 6.297 52.296 o
2 2 14 103.198 183.847 23.684 3.011 o
2 2 15 1.514 0.646 3.028 239.405 o
2 2 16 13.568 22.261 9.021 26.152 o
2 2 17 3.272 17.422 8.697 28.831 o
2 2 18 0.816 0.765 3.307 201.006 o
2 2 19 5.056 7.136 8.147 32.967 o
2 3 0 934.005 1135.170 18.381 0.212 o
2 3 1 19.040 25.974 2.103 244.558 o
2 3 2 97.228 87.829 3.925 21.112 o
2 3 3 1582.650 1698.770 33.615 0.080 o
2 3 4 617.584 1025.410 21.417 0.358 o
2 3 5 37.356 113.059 6.368 27.563 o
2 3 6 130.233 139.903 8.170 8.966 o
2 3 7 472.897 584.691 22.509 0.706 o
2 3 8 53.295 26.422 6.036 39.162 o
2 3 9 172.086 156.682 18.816 3.472 o
2 3 10 29.802 40.696 15.324 8.939 o
2 3 11 53.319 120.248 17.917 5.813 o
2 3 12 0.774 -2.378 3.536 175.859 o
2 3 13 92.912 114.028 32.576 1.894 o
2 3 14 189.459 236.876 28.315 1.797 o
2 3 15 2.482 2.142 2.865 266.024 o
2 3 16 10.269 7.330 5.549 69.464 o
2 3 17 2.381 -0.004 4.682 100.216 o
2 3 18 19.519 -1.865 4.497 100.316 o
2 4 0 693.549 831.849 23.738 0.364 o
2 4 1 3286.570 3986.390 96.547 0.016 o
2 4 2 99.702 138.091 6.451 13.055 o
2 4 3 272.984 361.422 15.048 1.924 o
2 4 4 19.979 58.689 5.918 47.963 o
2 4 5 92.592 36.444 5.460 26.007 o
2 4 6 136.080 249.328 15.242 4.110 o
2 4 7 79.513 46.477 4.681 31.888 o
2 4 8 281.681 378.682 15.782 1.777 o
2 4 9 31.447 60.502 9.339 21.113 o
2 4 10 47.965 55.974 9.498 18.973 o
2 4 11 124.182 145.635 15.824 5.195 o
2 4 12 40.118 58.128 10.553 16.575 o
2 4 13 41.436 53.270 10.023 18.159 o
2 4 14 49.469 103.902 14.946 8.169 o
2 4 15 17.683 24.680 8.059 31.886 o
2 4 16 90.308 80.959 18.919 5.065 o
2 4 18 1.298 0.881 3.813 151.085 o
2 5 0 89.599 149.166 9.024 10.915 o
2 5 1 87.963 98.771 6.114 18.112 o
2 5 2 221.187 289.896 14.355 2.738 o
2 5 3 3.828 14.320 3.742 151.267 o
2 5 4 2.905 1.221 2.124 481.754 o
2 5 5 0.001 18.912 4.854 91.789 o
2 5 6 20.666 18.172 4.745 83.126 o
2 5 7 37.470 134.099 14.121 8.866 o
2 5 8 465.928 364.000 24.422 0.891 o
2 5 9 107.836 147.781 15.708 5.584 o
2 5 10 59.990 145.601 16.218 6.439 o
2 5 11 2.684 0.642 3.472 181.830 o
2 5 12 202.647 326.221 21.703 2.061 o
2 5 13 2.560 0.249 6.718 48.698 o
2 5 14 6.247 -2.562 3.822 148.787 o
2 5 15 2.843 16.927 8.424 30.742 o
2 6 0 7.893 26.959 4.132 115.119 o
2 6 1 170.891 169.905 18.134 3.544 o
2 6 2 90.843 60.705 10.134 13.078 o
2 6 3 8.849 1.548 2.411 353.302 o
2 6 4 21.337 63.141 8.617 25.363 o
2 6 5 0.616 -1.040 4.441 111.495 o
2 6 6 28.098 71.171 10.506 17.123 o
2 6 7 52.326 4.930 3.496 85.865 o
2 6 8 4.030 31.684 7.271 40.263 o
2 6 9 32.732 15.612 5.368 60.851 o
2 6 10 0.727 1.032 3.386 191.643 o
2 6 11 0.006 5.289 3.008 242.159 o
2 6 12 1.376 -0.971 6.612 50.296 o
2 6 13 23.064 88.794 18.552 6.034 o
2 6 14 5.709 -6.440 8.010 34.197 o
2 7 0 91.323 179.389 23.145 3.226 o
2 7 1 238.126 410.766 41.137 0.856 o
2 7 2 0.926 -2.063 2.270 426.576 o
2 7 3 0.020 -0.169 2.361 394.550 o
2 7 4 135.207 78.053 9.818 9.492 o
2 7 5 13.657 14.473 6.819 45.394 o
2 7 6 46.291 43.324 7.541 28.397 o
2 7 7 63.607 76.239 10.497 14.072 o
2 7 8 12.507 2.792 3.244 193.102 o
2 7 9 2.490 -2.637 3.646 165.071 o
2 7 10 22.552 71.087 10.463 17.663 o
2 7 11 0.731 7.852 3.189 214.172 o
2 7 12 25.735 11.832 10.639 18.692 o
2 7 13 35.664 56.295 21.535 4.564 o
2 8 0 21.714 29.420 9.037 25.109 o
2 8 1 18.374 38.717 11.603 15.600 o
2 8 2 11.253 14.262 8.199 31.999 o
2 8 3 4.588 6.693 7.658 37.323 o
2 8 4 0.006 0.267 4.198 124.799 o
2 8 5 3.565 9.519 5.690 67.289 o
2 8 6 1.133 3.661 4.407 112.999 o
2 8 7 21.377 69.225 13.218 11.656 o
2 8 8 11.556 14.086 6.600 48.764 o
2 8 9 1.588 6.788 5.193 81.222 o
2 8 10 3.555 21.276 8.199 32.281 o
2 8 11 28.685 63.593 20.770 4.912 o
2 9 0 0.441 3.048 3.704 160.065 o
2 9 1 0.010 6.054 5.379 75.889 o
2 9 2 45.629 76.306 17.376 6.600 o
2 9 3 16.788 25.207 10.034 21.037 o
2 9 4 6.518 13.930 7.721 36.396 o
2 9 5 11.878 25.976 13.106 12.601 o
2 9 6 2.118 8.807 8.362 31.363 o
2 9 7 0.582 8.108 8.472 30.596 o
2 9 8 8.339 32.484 15.660 8.870 o
2 10 0 21.851 26.756 14.735 9.877 o
3 -9 0 3.577 8.648 8.565 29.863 o
3 -9 1 1.255 0.353 7.460 39.506 o
3 -9 2 45.031 89.621 25.417 3.225 o
3 -9 3 14.177 9.425 4.575 97.653 o
3 -9 4 2.291 9.863 6.570 50.675 o
3 -9 5 0.011 -3.262 3.698 160.795 o
3 -9 6 7.569 22.798 10.077 21.318 o
3 -9 7 0.591 21.700 13.322 12.350 o
3 -8 0 27.644 40.306 11.542 15.335 o
3 -8 1 0.018 2.539 8.955 27.421 o
3 -8 2 1.185 15.042 6.720 48.340 o
3 -8 3 10.172 7.578 7.070 43.247 o
3 -8 4 0.002 3.888 3.215 212.462 o
3 -8 5 56.589 97.092 12.651 10.508 o
3 -8 6 0.647 10.144 6.372 53.968 o
3 -8 7 23.570 8.647 9.510 23.417 o
3 -8 8 5.237 8.767 6.842 46.563 o
3 -8 10 5.444 2.559 6.468 52.321 o
3 -7 0 19.592 29.728 9.493 23.049 o
3 -7 1 57.578 95.149 16.429 6.890 o
3 -7 2 84.082 120.167 18.057 5.253 o
3 -7 3 21.106 30.827 6.568 44.806 o
3 -7 4 199.466 244.801 18.231 2.770 o
3 -7 5 57.980 67.604 11.949 12.197 o
3 -7 6 0.991 0.645 4.059 133.444 o
3 -7 7 51.458 80.621 12.309 11.634 o
3 -7 8 52.902 127.440 16.121 6.863 o
3 -7 9 1.562 7.988 5.903 62.853 o
3 -7 10 2.206 2.883 10.132 21.410 o
3 -7 11 6.510 4.106 8.483 30.419 o
3 -7 12 0.090 3.010 6.521 51.700 o
3 -6 0 22.831 26.730 5.613 58.884 o
3 -6 1 3.181 2.625 2.622 315.628 o
3 -6 2 0.242 2.005 2.915 258.549 o
3 -6 3 229.615 496.551 31.928 1.080 o
3 -6 4 55.035 42.230 6.878 30.066 o
3 -6 5 59.551 41.038 6.847 29.145 o
3 -6 6 7.399 7.955 3.386 182.623 o
3 -6 7 21.281 14.262 5.407 66.976 o
3 -6 8 69.196 90.573 12.652 10.066 o
3 -6 9 19.586 4.900 5.842 60.592 o
3 -6 10 6.254 9.319 6.156 57.226 o
3 -6 11 60.606 111.860 20.161 4.710 o
3 -6 12 30.353 19.943 8.323 28.740 o
3 -6 13 1.101 9.047 7.574 38.237 o
3 -6 14 7.753 2.720 6.368 53.746 o
3 -5 0 16.122 4.122 2.227 341.854 o
3 -5 1 442.275 550.743 47.495 0.483 o
3 -5 2 199.210 177.127 14.450 3.806 o
3 -5 3 219.900 271.323 16.040 2.680 o
3 -5 4 7.251 1.636 1.991 516.822 o
3 -5 5 372.591 536.511 23.179 0.929 o
3 -5 6 0.210 2.384 2.666 309.029 o
3 -5 7 318.023 363.816 29.922 1.095 o
3 -5 8 40.351 59.802 9.513 19.550 o
3 -5 9 3.177 2.728 3.849 147.511 o
3 -5 10 53.645 10.921 6.502 38.011 o
3 -5 11 14.373 20.273 8.512 29.268 o
3 -5 12 5.738 22.759 10.448 19.908 o
3 -5 13 11.447 21.778 9.851 22.156 o
3 -5 14 2.706 15.487 8.336 31.429 o
3 -5 15 11.501 49.968 20.508 5.156 o
3 -4 0 250.736 220.691 8.635 3.355 o
3 -4 1 53.808 74.872 5.729 31.460 o
3 -4 2 19.231 59.910 6.499 41.493 o
3 -4 3 183.228 172.285 10.054 5.182 o
3 -4 4 477.581 606.183 26.276 0.646 o
3 -4 5 141.291 111.630 8.204 9.147 o
3 -4 6 269.582 364.036 22.252 1.567 o
3 -4 7 25.021 13.605 2.230 231.761 o
3 -4 8 99.558 109.368 11.714 9.043 o
3 -4 9 77.900 81.902 10.261 13.072 o
3 -4 10 71.491 98.885 16.245 6.684 o
3 -4 11 150.936 127.732 19.497 3.755 o
3 -4 12 0.011 7.264 5.888 63.328 o
3 -4 13 4.576 3.432 5.432 74.091 o
3 -4 14 0.482 -4.578 4.809 95.098 o
3 -4 15 0.200 -7.413 6.149 58.165 o
3 -4 16 42.422 83.127 26.198 3.064 o
3 -3 0 201.723 109.462 5.430 6.817 o
3 -3 1 2106.450 3058.090 109.217 0.031 o
3 -3 2 282.648 159.137 8.900 3.312 o
3 -3 3 202.435 360.854 18.198 2.235 o
3 -3 4 139.936 165.910 7.626 7.869 o
3 -3 5 38.715 54.385 4.871 51.051 o
3 -3 6 67.977 95.683 6.007 22.948 o
3 -3 7 29.702 17.288 2.138 197.709 o
3 -3 8 33.272 58.481 3.252 78.598 o
3 -3 9 125.783 74.555 4.805 15.532 o
3 -3 10 1.362 -0.172 1.687 770.148 o
3 -3 11 776.797 1038.650 70.288 0.177 o
3 -3 12 128.158 159.319 16.865 4.612 o
3 -3 13 197.245 230.967 27.763 1.823 o
3 -3 14 58.012 73.317 16.700 6.898 o
3 -3 15 97.081 168.693 25.197 2.814 o
3 -3 16 37.802 50.993 15.212 8.823 o
3 -2 0 4356.490 4857.000 230.371 0.009 o
3 -2 1 0.354 3.200 0.834 3083.800 o
3 -2 2 382.871 380.895 20.025 1.179 o
3 -2 3 1.598 10.887 1.596 794.799 o
3 -2 4 71.207 242.793 16.912 4.875 o
3 -2 5 22.256 3.062 1.080 596.071 o
3 -2 6 1226.700 1492.120 74.447 0.096 o
3 -2 7 253.444 447.645 18.679 1.613 o
3 -2 8 100.963 131.426 10.316 9.555 o
3 -2 9 159.093 166.483 9.245 6.336 o
3 -2 10 1114.080 1459.440 77.160 0.104 o
3 -2 11 320.684 349.348 19.032 1.511 o
3 -2 12 151.821 239.997 35.796 1.366 o
3 -2 13 4.203 23.959 6.140 56.585 o
3 -2 14 168.928 162.184 18.210 3.604 o
3 -2 15 1.617 16.964 6.662 49.041 o
3 -2 16 30.490 37.421 12.543 13.081 o
3 -2 17 34.152 58.663 16.058 7.974 o
3 -1 0 6420.180 9454.130 623.465 0.002 o
3 -1 1 2085.650 2315.520 135.531 0.034 o
3 -1 2 779.995 877.809 37.395 0.274 o
3 -1 3 1244.730 1468.670 35.410 0.118 o
3 -1 4 233.206 528.350 17.786 1.551 o
3 -1 5 133.450 17.411 1.951 23.414 o
3 -1 6 670.914 741.020 16.380 0.431 o
3 -1 7 17.745 23.558 2.465 220.798 o
3 -1 8 138.397 168.848 8.732 7.394 o
3 -1 9 185.653 250.167 13.870 3.533 o
3 -1 10 16.425 19.886 3.647 134.123 o
3 -1 11 143.535 174.614 13.840 5.127 o
3 -1 12 43.916 41.965 6.892 33.189 o
3 -1 13 4.972 6.359 2.781 273.893 o
3 -1 14 46.182 75.417 16.128 7.545 o
3 -1 15 143.627 157.389 22.633 3.002 o
3 -1 16 3.025 12.668 6.303 54.816 o
3 -1 17 56.972 102.515 20.701 4.575 o
3 0 0 0.009 1.635 1.398 1123.660 o
3 0 1 9481.960 13145.000 394.041 0.002 o
3 0 2 0.052 0.555 0.453 10688.400 o
3 0 3 211.553 190.424 5.258 4.921 o
3 0 4 0.042 1.081 0.504 8594.280 o
3 0 5 565.798 1249.200 36.283 0.288 o
3 0 6 0.019 0.967 0.727 4155.010 o
3 0 7 3600.570 3773.200 82.762 0.016 o
3 0 8 0.110 2.033 1.430 1073.020 o
3 0 9 70.778 103.371 8.783 15.278 o
3 0 10 0.108 0.622 2.490 354.528 o
3 0 11 266.880 381.063 23.861 1.465 o
3 0 12 0.011 0.636 2.745 291.794 o
3 0 13 184.851 155.147 16.283 3.845 o
3 0 14 0.017 7.837 3.767 154.249 o
3 0 15 88.503 139.258 14.770 6.674 o
3 0 16 0.065 4.552 3.728 157.923 o
3 0 17 22.368 24.214 8.248 29.989 o
3 0 18 0.001 4.889 7.699 37.084 o
3 1 0 6460.800 8449.120 139.141 0.004 o
3 1 1 2072.290 2267.910 51.363 0.045 o
3 1 2 772.758 900.559 21.948 0.308 o
3 1 3 1224.870 1507.750 36.827 0.117 o
3 1 4 254.561 534.866 16.350 1.485 o
3 1 5 138.263 15.804 1.907 22.234 o
3 1 6 655.569 768.630 27.183 0.396 o
3 1 7 11.492 25.543 2.940 195.222 o
3 1 8 135.752 178.860 7.803 7.669 o
3 1 9 189.994 253.452 12.267 3.682 o
3 1 10 19.844 23.139 4.644 84.701 o
3 1 11 146.865 188.805 15.241 4.474 o
3 1 12 37.808 52.542 9.261 21.133 o
3 1 13 3.901 7.949 5.051 85.285 o
3 1 14 59.874 93.776 13.567 9.365 o
3 1 15 144.988 133.645 16.742 4.580 o
3 1 16 2.246 3.840 7.658 37.444 o
3 1 17 52.798 72.902 13.257 10.411 o
3 1 18 17.961 12.058 9.715 22.685 o
3 2 0 4367.590 4390.870 79.731 0.011 o
3 2 1 0.187 2.069 0.618 5666.060 o
3 2 2 386.919 359.828 12.100 1.394 o
3 2 3 1.113 11.701 1.474 921.249 o
3 2 4 74.580 216.624 6.822 11.253 o
3 2 5 24.714 4.516 1.311 443.115 o
3 2 6 1276.940 1450.860 49.688 0.108 o
3 2 7 265.448 428.112 15.585 1.736 o
3 2 8 118.537 126.334 8.730 9.849 o
3 2 9 147.558 152.897 9.836 6.866 o
3 2 10 1109.900 1343.230 54.454 0.129 o
3 2 11 329.354 371.699 18.002 1.460 o
3 2 12 150.368 227.432 24.995 2.351 o
3 2 13 4.193 31.408 10.446 19.834 o
3 2 14 170.846 142.866 21.485 3.041 o
3 2 15 4.006 16.648 8.112 33.078 o
3 2 16 23.196 36.202 10.967 17.198 o
3 2 17 28.778 45.672 13.178 11.853 o
3 2 18 0.879 12.617 10.413 20.239 o
3 3 0 187.543 110.740 4.379 7.794 o
3 3 1 2167.200 2990.690 67.045 0.034 o
3 3 2 278.732 171.550 6.311 3.480 o
3 3 3 194.963 333.082 10.487 3.178 o
3 3 4 137.499 152.635 7.170 8.622 o
3 3 5 48.667 50.799 4.598 48.247 o
3 3 6 83.731 102.280 6.658 17.542 o
3 3 7 30.671 18.021 2.641 157.164 o
3 3 8 26.857 61.766 6.479 38.705 o
3 3 9 128.892 79.481 7.490 12.028 o
3 3 10 0.714 4.204 2.990 244.936 o
3 3 11 754.674 999.725 47.906 0.236 o
3 3 12 136.624 162.049 15.207 4.973 o
3 3 13 205.034 171.405 23.451 2.373 o
3 3 14 61.084 38.188 11.480 13.707 o
3 3 15 93.963 141.016 22.806 3.433 o
3 3 16 44.477 50.092 14.091 9.992 o
3 3 17 32.649 27.384 14.941 9.446 o
3 4 0 270.162 217.202 10.319 2.949 o
3 4 1 51.079 72.261 4.791 38.700 o
3 4 2 24.377 46.308 3.343 103.575 o
3 4 3 169.093 159.339 7.078 6.750 o
3 4 4 457.496 588.677 18.061 0.773 o
3 4 5 117.118 104.171 6.660 12.792 o
3 4 6 270.731 330.905 12.653 2.183 o
3 4 7 21.641 10.683 2.459 236.659 o
3 4 8 108.581 104.130 9.115 11.103 o
3 4 9 85.296 66.759 8.441 16.411 o
3 4 10 72.682 112.072 11.195 11.044 o
3 4 11 142.511 112.954 11.427 7.163 o
3 4 12 0.092 2.636 4.243 122.082 o
3 4 13 2.320 6.040 6.745 48.203 o
3 4 14 1.778 -1.632 6.514 51.816 o
3 4 15 0.035 3.030 9.533 24.196 o
3 4 16 49.192 103.103 29.255 2.441 o
3 5 0 15.394 5.499 1.963 413.259 o
3 5 1 434.040 542.258 18.270 0.863 o
3 5 2 210.453 159.830 8.654 4.881 o
3 5 3 226.500 248.794 14.245 2.927 o
3 5 4 5.815 0.661 1.717 705.943 o
3 5 5 377.398 460.846 20.388 1.067 o
3 5 6 0.245 3.345 2.003 545.659 o
3 5 7 314.562 414.565 19.948 1.365 o
3 5 8 38.373 51.414 7.715 28.265 o
3 5 9 2.334 5.264 3.252 205.853 o
3 5 10 48.870 10.414 4.117 73.335 o
3 5 11 19.586 18.637 5.140 72.951 o
3 5 12 4.042 10.469 3.797 148.573 o
3 5 13 10.266 20.837 8.852 27.398 o
3 5 14 0.735 19.409 8.958 27.242 o
3 6 0 16.785 20.295 3.729 128.318 o
3 6 1 2.476 0.590 1.295 1285.520 o
3 6 2 1.883 2.874 2.812 276.467 o
3 6 3 229.934 447.297 21.058 1.618 o
3 6 4 41.173 39.736 6.244 39.563 o
3 6 5 60.114 35.013 5.932 35.443 o
3 6 6 5.583 6.841 2.585 312.328 o
3 6 7 23.760 9.745 3.384 145.562 o
3 6 8 59.808 103.310 12.166 10.815 o
3 6 9 17.886 4.584 3.399 164.509 o
3 6 10 4.022 3.793 3.205 210.854 o
3 6 11 49.722 120.148 13.322 9.514 o
3 6 12 38.882 25.073 12.284 13.519 o
3 6 13 1.514 15.364 11.457 16.705 o
3 7 0 22.450 16.921 4.541 88.395 o
3 7 1 64.401 75.432 17.376 6.312 o
3 7 2 82.441 116.044 12.142 9.346 o
3 7 3 26.289 24.233 6.365 46.709 o
3 7 4 194.346 248.020 23.622 2.179 o
3 7 5 57.575 74.311 11.004 13.653 o
3 7 6 0.845 3.719 3.271 204.890 o
3 7 7 48.225 86.854 11.001 13.881 o
3 7 8 41.492 109.426 15.926 7.458 o
3 7 9 0.581 -0.966 5.894 63.294 o
3 7 10 1.490 -2.934 2.937 254.688 o
3 7 11 7.578 -6.409 4.769 95.613 o
3 7 12 0.068 0.615 4.920 90.841 o
3 8 0 26.814 62.265 15.430 8.690 o
3 8 1 0.075 6.424 5.588 70.311 o
3 8 2 1.946 13.310 7.047 43.993 o
3 8 3 11.637 23.438 8.798 27.546 o
3 8 4 0.020 14.515 11.205 17.483 o
3 8 5 49.828 113.181 19.936 4.910 o
3 8 6 1.005 7.002 5.243 79.729 o
3 8 7 22.022 0.316 6.002 57.547 o
3 8 8 4.352 18.706 8.265 31.805 o
3 8 9 0.872 3.533 4.438 111.489 o
3 8 10 6.494 15.381 9.152 25.975 o
3 8 11 21.108 12.752 14.739 9.969 o
3 9 0 5.212 -3.472 6.447 52.757 o
3 9 1 1.589 25.232 14.048 11.093 o
3 9 2 46.158 141.420 32.888 1.925 o
3 9 3 12.714 27.156 13.701 11.525 o
3 9 4 4.372 11.167 9.675 23.381 o
3 9 5 0.020 -0.142 2.816 277.227 o
3 9 6 5.265 2.719 4.752 96.555 o
4 -9 0 0.066 -13.050 10.122 21.465 o
4 -9 2 0.727 -4.975 6.770 47.979 o
4 -9 3 0.737 11.712 9.901 22.389 o
4 -9 4 0.059 1.005 5.068 85.625 o
4 -9 5 4.121 20.395 8.143 32.714 o
4 -9 6 12.111 -4.599 6.103 58.023 o
4 -8 0 0.641 4.601 5.493 72.795 o
4 -8 1 1.969 20.053 10.045 21.657 o
4 -8 2 0.082 2.635 2.693 302.934 o
4 -8 3 27.573 60.763 14.617 9.620 o
4 -8 4 68.482 146.716 18.398 5.137 o
4 -8 5 0.803 9.031 5.367 76.013 o
4 -8 6 21.821 4.246 6.991 42.762 o
4 -8 7 41.897 78.528 17.020 6.894 o
4 -8 8 6.994 1.618 14.344 10.673 o
4 -8 9 3.994 -9.273 9.496 24.369 o
4 -7 0 13.663 32.295 9.491 23.383 o
4 -7 1 0.068 -0.085 4.579 104.860 o
4 -7 2 29.853 51.265 9.149 22.574 o
4 -7 3 118.915 157.754 14.723 5.624 o
4 -7 4 36.888 57.673 8.811 22.703 o
4 -7 5 43.590 39.682 9.391 20.724 o
4 -7 6 121.998 128.506 18.245 4.512 o
4 -7 7 1.681 2.245 3.570 172.116 o
4 -7 8 0.053 10.740 5.783 65.498 o
4 -7 9 6.635 0.470 3.225 207.196 o
4 -7 10 3.800 3.907 7.266 41.542 o
4 -7 11 0.092 -17.023 8.378 31.330 o
4 -6 0 31.380 28.375 5.570 54.598 o
4 -6 1 28.348 14.253 4.353 89.544 o
4 -6 2 31.623 60.692 12.000 13.651 o
4 -6 3 75.142 59.657 8.209 18.880 o
4 -6 4 0.085 9.237 3.406 187.920 o
4 -6 5 70.163 130.154 12.381 9.368 o
4 -6 6 58.429 62.437 9.851 16.553 o
4 -6 7 61.753 34.068 7.647 25.526 o
4 -6 8 23.413 19.687 5.858 56.039 o
4 -6 9 11.362 37.730 10.918 17.839 o
4 -6 10 1.606 2.295 6.020 60.623 o
4 -6 11 49.048 115.868 20.808 4.544 o
4 -6 12 0.917 -2.875 7.978 34.544 o
4 -6 13 2.039 5.641 8.203 32.629 o
4 -5 0 1231.580 1154.830 42.224 0.134 o
4 -5 1 7.677 5.517 3.814 146.299 o
4 -5 2 18.372 32.200 6.923 41.320 o
4 -5 3 1.225 -0.506 2.095 500.395 o
4 -5 4 426.234 486.955 45.383 0.542 o
4 -5 5 34.490 74.667 8.632 22.559 o
4 -5 6 12.720 55.951 8.267 29.047 o
4 -5 7 14.245 41.472 7.029 40.089 o
4 -5 8 87.173 124.944 15.025 6.756 o
4 -5 9 10.705 42.428 11.618 15.763 o
4 -5 10 24.035 38.615 11.545 15.524 o
4 -5 11 0.414 1.863 4.156 127.268 o
4 -5 12 1.469 4.587 16.216 8.361 o
4 -5 13 1.297 0.316 6.117 58.763 o
4 -5 14 1.824 -8.617 9.300 25.421 o
4 -4 0 179.810 281.671 20.859 2.463 o
4 -4 1 389.875 480.354 24.714 0.924 o
4 -4 2 47.327 51.069 5.269 42.772 o
4 -4 3 3.228 11.146 2.061 478.634 o
4 -4 4 34.281 42.690 4.225 69.518 o
4 -4 5 0.059 16.140 2.387 366.962 o
4 -4 6 40.575 37.269 4.025 69.117 o
4 -4 7 69.574 40.555 6.862 26.472 o
4 -4 8 334.608 471.449 44.145 0.647 o
4 -4 9 474.139 491.638 58.127 0.387 o
4 -4 10 2.929 -0.285 2.107 490.996 o
4 -4 11 4.909 5.481 6.192 56.965 o
4 -4 12 58.469 99.865 18.636 5.503 o
4 -4 13 29.965 100.928 19.425 5.415 o
4 -4 14 17.718 47.041 13.533 11.531 o
4 -4 15 3.551 -0.929 10.404 20.307 o
4 -3 0 710.686 1066.940 61.179 0.207 o
4 -3 1 742.941 1093.790 58.097 0.204 o
4 -3 2 35.296 48.546 4.312 63.927 o
4 -3 3 799.597 869.760 34.782 0.275 o
4 -3 4 60.450 79.943 5.894 27.606 o
4 -3 5 0.657 0.471 1.019 2108.890 o
4 -3 6 11.610 32.549 4.042 111.089 o
4 -3 7 126.249 134.801 11.272 7.477 o
4 -3 8 0.139 2.134 0.871 2877.330 o
4 -3 9 268.309 198.592 27.653 1.609 o
4 -3 10 976.445 1229.400 88.225 0.115 o
4 -3 11 210.122 284.597 22.157 2.106 o
4 -3 12 30.088 25.734 6.878 39.605 o
4 -3 13 7.176 7.041 3.487 173.609 o
4 -3 14 52.860 68.265 11.376 13.482 o
4 -3 15 10.477 9.614 7.161 42.029 o
4 -3 16 2.473 -22.566 14.664 10.226 o
4 -2 0 1.375 4.532 1.342 1181.530 o
4 -2 1 114.664 87.806 6.211 14.601 o
4 -2 2 260.159 443.737 24.502 1.345 o
4 -2 3 549.278 542.578 27.655 0.584 o
4 -2 4 601.686 854.599 40.650 0.345 o
4 -2 5 1653.860 1767.430 109.584 0.054 o
4 -2 6 7.094 50.312 3.429 134.194 o
4 -2 7 171.271 164.986 7.254 6.477 o
4 -2 8 4.684 47.900 4.024 110.854 o
4 -2 9 10.912 -0.731 1.830 566.781 o
4 -2 10 84.265 129.806 18.302 5.066 o
4 -2 11 21.890 14.966 3.583 131.818 o
4 -2 12 106.125 155.580 16.872 5.052 o
4 -2 13 34.355 40.663 9.341 21.863 o
4 -2 14 63.658 112.436 15.876 6.959 o
4 -2 15 32.861 62.845 11.859 13.827 o
4 -2 16 54.958 60.727 12.567 11.552 o
4 -1 0 581.908 540.030 35.576 0.489 o
4 -1 1 383.779 613.968 31.339 0.708 o
4 -1 2 1634.580 1830.280 60.561 0.067 o
4 -1 3 692.689 1228.140 48.696 0.220 o
4 -1 4 903.115 598.619 25.727 0.310 o
4 -1 5 56.553 29.180 2.541 75.788 o
4 -1 6 11.651 1.900 1.085 1166.010 o
4 -1 7 149.796 194.141 8.707 6.333 o
4 -1 8 860.497 1029.580 36.301 0.226 o
4 -1 9 0.690 4.108 1.328 1224.370 o
4 -1 10 256.327 310.458 21.781 1.790 o
4 -1 11 10.187 18.093 4.516 99.763 o
4 -1 12 2.099 11.763 3.898 142.072 o
4 -1 13 73.647 80.425 10.305 13.413 o
4 -1 14 1.411 2.854 4.081 131.770 o
4 -1 15 25.488 19.060 6.708 43.584 o
4 -1 16 20.227 45.471 11.084 16.776 o
4 -1 17 0.576 14.281 10.953 18.292 o
4 -1 18 45.123 84.037 25.957 3.108 o
4 0 0 0.277 27.417 2.468 315.872 o
4 0 1 0.038 0.644 0.504 8628.350 o
4 0 2 24.127 164.343 6.982 22.210 o
4 0 3 0.270 0.620 0.746 3936.420 o
4 0 4 750.730 1011.010 27.207 0.283 o
4 0 5 0.092 0.873 0.645 5262.840 o
4 0 6 374.085 681.294 17.220 0.855 o
4 0 7 0.368 1.001 1.156 1640.200 o
4 0 8 356.070 277.741 19.960 1.476 o
4 0 9 0.145 0.465 1.739 727.188 o
4 0 10 3.518 0.949 2.546 335.645 o
4 0 11 0.012 -2.836 2.820 276.474 o
4 0 12 36.076 5.680 6.424 45.797 o
4 0 13 0.601 -1.508 2.928 256.542 o
4 0 14 123.596 111.439 18.531 4.519 o
4 0 15 0.024 5.030 4.096 130.874 o
4 0 16 7.169 2.209 4.269 118.682 o
4 0 17 0.005 18.009 12.347 14.392 o
4 1 0 581.480 510.308 9.684 0.685 o
4 1 1 407.187 607.193 14.564 0.893 o
4 1 2 1610.350 1830.800 46.130 0.072 o
4 1 3 699.408 1257.430 27.137 0.256 o
4 1 4 890.960 583.193 14.689 0.341 o
4 1 5 56.768 34.778 3.808 56.379 o
4 1 6 10.207 0.216 0.939 1621.730 o
4 1 7 146.375 193.423 10.551 5.872 o
4 1 8 809.715 1053.320 32.514 0.244 o
4 1 9 1.682 3.533 1.727 724.254 o
4 1 10 240.272 321.864 14.913 2.341 o
4 1 11 7.636 17.844 5.435 71.499 o
4 1 12 2.753 21.450 6.083 58.151 o
4 1 13 68.988 95.608 13.342 9.210 o
4 1 14 0.996 -4.033 2.819 276.540 o
4 1 15 27.782 24.918 7.718 32.929 o
4 1 16 20.377 15.806 9.032 25.830 o
4 1 17 0.103 10.125 6.468 52.418 o
4 2 0 2.795 5.329 0.978 2019.390 o
4 2 1 96.209 79.093 3.432 23.421 o
4 2 2 264.135 411.675 9.064 2.063 o
4 2 3 523.507 507.294 14.333 0.759 o
4 2 4 644.831 839.320 22.227 0.397 o
4 2 5 1588.010 1692.160 48.206 0.077 o
4 2 6 7.824 52.761 4.668 81.461 o
4 2 7 182.061 152.690 8.290 6.005 o
4 2 8 3.794 49.111 5.643 62.092 o
4 2 9 15.002 0.144 2.565 289.656 o
4 2 10 73.481 155.554 13.157 7.998 o
4 2 11 25.415 24.918 6.662 43.311 o
4 2 12 102.951 151.913 19.840 4.101 o
4 2 13 42.272 29.071 10.075 18.976 o
4 2 14 59.749 98.405 17.877 5.905 o
4 2 15 37.890 50.868 13.162 11.508 o
4 2 16 61.880 81.242 17.278 6.368 o
4 2 17 0.663 18.793 11.698 16.018 o
4 2 18 8.915 4.749 6.467 51.883 o
4 3 0 734.546 1026.520 26.334 0.288 o
4 3 1 748.110 1059.620 23.393 0.281 o
4 3 2 44.861 48.789 3.640 63.530 o
4 3 3 810.693 816.910 23.562 0.306 o
4 3 4 56.591 78.140 5.323 31.828 o
4 3 5 4.853 1.747 1.186 1415.630 o
4 3 6 11.896 32.289 3.872 118.904 o
4 3 7 132.017 138.109 8.387 8.780 o
4 3 8 1.190 0.262 1.302 1291.870 o
4 3 9 289.559 262.035 13.721 2.252 o
4 3 10 999.327 1228.090 47.732 0.159 o
4 3 11 193.466 274.173 16.389 2.912 o
4 3 12 23.967 10.294 4.324 97.843 o
4 3 13 6.700 6.097 6.699 48.539 o
4 3 14 50.623 38.978 12.134 13.001 o
4 3 15 8.686 7.563 16.127 8.433 o
4 3 16 3.974 -4.456 6.686 49.112 o
4 3 17 1.613 -1.169 9.619 23.764 o
4 4 0 195.179 265.561 8.966 3.931 o
4 4 1 417.233 496.009 14.624 1.006 o
4 4 2 39.715 47.230 3.892 66.614 o
4 4 3 4.274 10.216 2.029 487.747 o
4 4 4 32.572 41.415 4.541 66.108 o
4 4 5 0.287 18.095 3.108 218.872 o
4 4 6 43.740 33.463 4.219 64.502 o
4 4 7 72.089 32.561 5.361 34.607 o
4 4 8 355.207 486.201 20.468 1.092 o
4 4 9 471.971 540.454 21.973 0.749 o
4 4 10 2.560 6.278 3.021 237.198 o
4 4 11 6.044 5.008 3.600 165.523 o
4 4 12 60.862 71.822 15.908 7.460 o
4 4 13 35.477 66.765 15.598 8.317 o
4 4 14 14.145 16.354 8.148 32.050 o
4 4 15 3.927 -0.323 3.689 160.756 o
4 5 0 1258.480 1264.650 41.443 0.125 o
4 5 1 5.745 0.085 1.980 540.272 o
4 5 2 16.403 23.045 3.965 114.552 o
4 5 3 0.463 0.195 2.099 499.146 o
4 5 4 427.872 438.266 19.748 0.975 o
4 5 5 29.260 69.204 7.807 27.798 o
4 5 6 12.474 50.134 6.704 42.935 o
4 5 7 13.933 46.818 6.466 45.794 o
4 5 8 93.602 144.206 11.870 8.356 o
4 5 9 6.839 32.443 6.781 45.483 o
4 5 10 25.676 40.078 7.147 36.414 o
4 5 11 0.316 5.110 6.547 51.258 o
4 5 12 2.218 13.345 7.132 42.934 o
4 5 13 0.747 3.349 4.532 106.910 o
4 5 14 0.749 -12.816 11.179 17.597 o
4 6 0 30.830 25.412 4.470 77.350 o
4 6 1 25.209 13.732 3.036 159.314 o
4 6 2 23.502 57.042 7.927 29.368 o
4 6 3 86.529 58.379 8.461 16.752 o
4 6 4 0.098 6.825 2.866 265.895 o
4 6 5 71.945 144.718 12.358 8.960 o
4 6 6 53.600 78.856 9.209 17.828 o
4 6 7 56.442 31.574 5.815 38.534 o
4 6 8 27.056 19.503 5.086 68.920 o
4 6 9 13.276 19.127 8.789 27.639 o
4 6 10 1.634 2.734 3.957 140.093 o
4 6 11 45.462 89.888 19.013 5.527 o
4 6 12 0.491 -2.820 6.080 59.494 o
4 7 0 15.154 16.885 4.650 91.227 o
4 7 1 0.078 4.486 2.815 276.747 o
4 7 2 27.907 54.048 9.597 20.838 o
4 7 3 108.454 154.755 14.641 5.973 o
4 7 4 37.186 41.524 7.361 31.808 o
4 7 5 38.085 34.520 7.545 31.157 o
4 7 6 123.384 124.778 14.858 5.872 o
4 7 7 0.631 4.596 3.468 182.308 o
4 7 8 0.003 0.043 2.464 362.194 o
4 7 9 6.228 5.310 6.276 55.336 o
4 7 10 2.614 -0.609 2.600 323.862 o
4 7 11 0.167 3.990 7.268 41.613 o
4 8 0 0.628 4.757 6.040 60.208 o
4 8 1 2.961 39.649 9.732 22.666 o
4 8 2 0.308 1.602 3.427 187.189 o
4 8 3 32.369 53.300 14.347 9.935 o
4 8 4 80.026 134.318 26.906 2.680 o
4 8 5 1.060 8.492 5.707 67.249 o
4 8 6 22.124 17.654 7.404 37.218 o
4 8 7 38.234 77.145 24.560 3.494 o
4 8 8 6.387 7.943 8.959 27.238 o
4 8 9 5.062 8.794 5.883 62.822 o
4 8 10 1.177 1.139 4.155 127.284 o
4 9 1 0.000 -4.136 6.360 54.374 o
4 9 2 0.336 8.903 8.578 29.846 o
4 9 3 1.036 -5.695 7.018 44.650 o
4 9 4 0.100 2.842 4.558 105.789 o
5 -9 0 6.892 47.305 19.110 5.954 o
5 -9 1 3.372 3.357 6.487 52.121 o
5 -9 2 0.027 -4.801 7.551 38.572 o
5 -9 3 17.936 12.837 10.729 18.674 o
5 -8 0 3.351 0.456 8.021 34.148 o
5 -8 1 6.593 6.162 12.140 14.880 o
5 -8 2 2.561 3.198 2.994 243.230 o
5 -8 3 1.449 -8.281 6.230 56.653 o
5 -8 4 2.457 19.438 7.362 40.088 o
5 -8 5 1.312 -0.958 7.830 35.867 o
5 -8 6 9.099 -0.575 3.846 145.056 o
5 -8 7 13.716 28.096 10.454 19.510 o
5 -8 8 30.582 20.280 12.748 12.943 o
5 -7 0 13.368 2.556 4.849 89.883 o
5 -7 1 12.945 15.315 7.146 41.532 o
5 -7 2 13.924 16.983 5.294 72.662 o
5 -7 3 25.523 48.565 8.019 29.183 o
5 -7 4 36.910 73.698 9.970 17.789 o
5 -7 5 18.239 30.634 8.018 31.731 o
5 -7 6 59.719 147.422 22.458 3.768 o
5 -7 7 23.621 52.081 13.830 10.873 o
5 -7 8 0.109 11.668 6.712 48.646 o
5 -7 9 0.627 12.095 7.158 42.757 o
5 -7 10 7.302 -0.607 10.104 21.489 o
5 -6 0 73.747 46.323 7.636 21.954 o
5 -6 1 230.594 258.110 19.865 2.265 o
5 -6 2 28.085 19.765 5.688 56.716 o
5 -6 3 30.287 12.095 3.377 127.182 o
5 -6 4 86.250 139.741 13.300 7.704 o
5 -6 5 4.105 33.660 6.474 50.137 o
5 -6 6 1.485 1.319 4.421 112.409 o
5 -6 7 102.102 171.621 23.372 3.126 o
5 -6 8 47.879 57.777 15.666 8.094 o
5 -6 9 0.284 -5.972 6.776 47.894 o
5 -6 10 29.674 67.079 16.256 7.797 o
5 -6 11 9.328 12.024 7.067 43.128 o
5 -6 12 6.142 16.141 11.673 16.032 o
5 -5 0 7.462 3.266 1.154 1293.440 o
5 -5 1 107.563 189.581 12.629 6.433 o
5 -5 2 85.622 76.209 7.695 17.258 o
5 -5 3 152.299 157.216 9.214 6.821 o
5 -5 4 36.092 12.350 3.782 98.752 o
5 -5 5 1.549 4.031 2.826 273.346 o
5 -5 6 1.033 3.573 3.687 161.352 o
5 -5 7 200.455 285.820 33.742 1.322 o
5 -5 8 18.101 25.334 8.451 29.078 o
5 -5 9 0.059 2.810 3.514 177.942 o
5 -5 10 24.314 24.894 9.825 21.442 o
5 -5 11 56.805 91.326 18.312 5.756 o
5 -5 12 78.299 100.960 19.826 4.710 o
5 -5 13 37.916 50.338 14.645 9.470 o
5 -4 0 1086.820 1019.870 63.759 0.143 o
5 -4 1 103.032 87.194 6.481 15.960 o
5 -4 2 31.211 28.004 4.321 79.166 o
5 -4 3 27.954 25.512 3.714 103.841 o
5 -4 4 14.311 24.259 3.822 124.070 o
5 -4 5 386.027 331.404 16.863 1.340 o
5 -4 6 313.709 586.251 31.133 0.843 o
5 -4 7 227.753 251.455 17.849 2.513 o
5 -4 8 65.984 109.036 10.068 13.246 o
5 -4 9 8.490 10.295 3.750 147.668 o
5 -4 10 9.663 7.671 3.614 158.500 o
5 -4 11 0.011 13.481 8.232 32.355 o
5 -4 12 42.397 90.238 18.420 5.889 o
5 -4 13 22.468 11.759 8.466 29.221 o
5 -4 14 12.293 25.587 10.270 20.312 o
5 -3 0 11.476 19.310 2.668 241.472 o
5 -3 1 18.817 11.234 1.834 365.008 o
5 -3 2 276.107 188.680 10.115 3.081 o
5 -3 3 29.097 99.166 6.689 30.418 o
5 -3 4 26.419 12.069 2.365 213.761 o
5 -3 5 520.666 559.668 30.505 0.581 o
5 -3 6 20.523 3.067 1.877 386.221 o
5 -3 7 444.398 571.503 24.165 0.743 o
5 -3 8 101.411 183.186 20.237 3.822 o
5 -3 9 373.527 473.719 27.537 0.910 o
5 -3 10 13.496 16.164 6.235 53.696 o
5 -3 11 1.891 0.975 3.457 183.593 o
5 -3 12 52.398 55.046 10.600 15.616 o
5 -3 13 5.382 6.361 4.313 116.198 o
5 -3 14 0.861 -2.466 3.743 156.955 o
5 -3 15 3.243 -10.340 7.402 40.106 o
5 -2 0 73.519 17.857 2.421 60.801 o
5 -2 1 122.056 247.211 13.886 4.765 o
5 -2 2 411.128 640.658 29.595 0.675 o
5 -2 3 11.844 3.892 0.856 1391.820 o
5 -2 4 1710.750 1796.370 85.553 0.058 o
5 -2 5 16.186 32.036 3.875 112.020 o
5 -2 6 748.003 850.452 45.079 0.269 o
5 -2 7 74.492 157.925 9.275 11.521 o
5 -2 8 7.006 5.076 1.732 645.695 o
5 -2 9 44.560 61.435 9.595 18.748 o
5 -2 10 98.442 64.279 11.237 10.873 o
5 -2 11 8.471 31.436 7.220 40.177 o
5 -2 12 70.035 92.137 13.811 8.769 o
5 -2 13 80.561 139.269 17.424 5.442 o
5 -2 14 5.011 21.991 7.619 37.151 o
5 -2 15 1.135 12.444 6.128 58.182 o
5 -2 16 14.067 2.023 4.524 102.397 o
5 -2 17 0.008 5.220 7.350 40.687 o
5 -1 0 450.061 371.711 27.487 0.860 o
5 -1 1 564.250 460.255 22.908 0.659 o
5 -1 2 4111.770 4790.500 166.862 0.010 o
5 -1 3 2975.200 3822.390 157.148 0.017 o
5 -1 4 1127.690 1271.810 52.657 0.132 o
5 -1 5 113.693 124.590 6.708 12.020 o
5 -1 6 95.581 231.078 8.686 8.030 o
5 -1 7 214.616 327.125 12.798 2.746 o
5 -1 8 386.504 444.241 15.447 1.164 o
5 -1 9 62.614 36.419 4.201 47.028 o
5 -1 10 15.678 5.665 3.204 186.488 o
5 -1 11 5.604 19.848 4.634 97.513 o
5 -1 12 26.297 34.641 7.366 35.056 o
5 -1 13 15.148 10.800 12.262 14.444 o
5 -1 14 75.612 122.576 16.774 6.028 o
5 -1 15 73.685 120.140 17.657 5.618 o
5 -1 16 110.165 168.951 21.249 3.545 o
5 -1 17 8.808 13.544 11.154 17.522 o
5 0 0 0.101 0.246 0.728 4146.390 o
5 0 1 6825.430 6909.170 212.432 0.004 o
5 0 2 0.535 1.270 1.076 1891.100 o
5 0 3 2760.360 3055.760 76.730 0.025 o
5 0 4 0.202 0.978 0.659 5033.870 o
5 0 5 5.815 2.217 0.960 1937.860 o
5 0 6 0.292 0.083 0.824 3240.100 o
5 0 7 154.754 707.932 18.327 1.479 o
5 0 8 0.005 1.109 1.032 2060.750 o
5 0 9 27.489 17.090 3.206 136.905 o
5 0 10 0.167 0.353 2.053 521.762 o
5 0 11 0.397 1.487 5.108 84.251 o
5 0 12 0.001 -5.134 3.845 148.744 o
5 0 13 33.949 23.443 6.723 40.355 o
5 0 14 0.044 6.010 2.830 273.103 o
5 0 15 0.491 -3.808 3.670 163.293 o
5 0 16 0.065 8.830 5.355 76.460 o
5 0 17 175.942 320.446 51.597 0.695 o
5 1 0 425.171 366.237 10.160 1.255 o
5 1 1 610.497 454.369 11.614 0.674 o
5 1 2 4082.780 4861.570 129.000 0.011 o
5 1 3 2888.260 3824.040 88.371 0.020 o
5 1 4 1148.130 1268.190 31.390 0.145 o
5 1 5 113.001 125.093 5.872 12.803 o
5 1 6 105.264 237.914 12.080 5.948 o
5 1 7 235.741 338.421 15.898 2.237 o
5 1 8 373.107 462.559 18.542 1.116 o
5 1 9 75.452 40.036 5.282 32.093 o
5 1 10 15.746 8.070 3.363 168.452 o
5 1 11 5.490 10.092 6.672 48.850 o
5 1 12 30.087 35.554 7.721 31.498 o
5 1 13 13.392 17.982 6.066 56.340 o
5 1 14 76.905 101.054 18.645 5.236 o
5 1 15 89.579 92.127 22.374 3.775 o
5 1 16 126.303 168.579 39.151 1.271 o
5 2 0 72.421 17.071 1.825 67.555 o
5 2 1 139.123 228.485 7.628 6.392 o
5 2 2 420.240 612.124 16.249 0.841 o
5 2 3 13.973 3.889 1.320 765.475 o
5 2 4 1779.060 1750.530 38.095 0.067 o
5 2 5 15.050 40.785 3.826 108.711 o
5 2 6 735.019 769.213 26.640 0.349 o
5 2 7 72.461 138.754 8.885 13.050 o
5 2 8 6.943 1.639 1.700 696.319 o
5 2 9 49.399 70.103 6.996 27.246 o
5 2 10 100.901 76.219 9.243 12.820 o
5 2 11 9.275 33.141 7.253 39.564 o
5 2 12 59.822 86.545 13.211 9.911 o
5 2 13 86.343 135.824 17.056 5.541 o
5 2 14 4.031 21.555 8.803 28.025 o
5 2 15 0.793 8.299 5.860 63.829 o
5 2 16 18.657 41.758 17.161 7.295 o
5 2 17 0.362 -10.327 9.303 25.409 o
5 3 0 10.385 17.114 2.312 316.774 o
5 3 1 21.945 11.935 1.854 318.192 o
5 3 2 287.992 202.245 7.997 2.977 o
5 3 3 29.441 102.770 6.117 33.075 o
5 3 4 27.598 14.007 2.414 197.015 o
5 3 5 488.198 509.624 19.399 0.776 o
5 3 6 18.529 4.651 1.505 522.911 o
5 3 7 404.509 559.079 24.193 0.824 o
5 3 8 120.906 237.895 12.914 5.200 o
5 3 9 362.420 466.204 18.547 1.143 o
5 3 10 12.008 18.763 4.419 101.982 o
5 3 11 2.873 -1.798 2.481 355.187 o
5 3 12 61.290 52.505 12.973 10.862 o
5 3 13 5.782 -0.958 9.561 24.018 o
5 3 14 0.948 5.559 5.340 76.938 o
5 3 15 2.590 5.967 7.035 44.313 o
5 3 16 11.452 12.469 10.293 20.487 o
5 4 0 1086.720 939.656 39.948 0.177 o
5 4 1 90.076 75.418 4.857 22.825 o
5 4 2 26.602 31.781 3.463 109.745 o
5 4 3 33.246 22.491 3.227 114.343 o
5 4 4 19.294 23.305 3.465 135.167 o
5 4 5 391.737 306.313 13.324 1.466 o
5 4 6 307.682 572.443 21.570 1.080 o
5 4 7 217.366 234.529 13.788 3.192 o
5 4 8 66.773 132.364 10.496 11.644 o
5 4 9 7.337 4.686 2.871 253.937 o
5 4 10 8.877 -2.236 4.172 123.844 o
5 4 11 0.010 3.564 3.943 141.313 o
5 4 12 45.790 70.294 16.062 7.658 o
5 4 13 16.897 7.760 5.737 63.117 o
5 4 14 10.687 6.999 16.334 8.215 o
5 5 0 7.302 5.175 1.889 549.078 o
5 5 1 113.422 205.293 10.500 6.912 o
5 5 2 76.827 80.606 6.463 21.373 o
5 5 3 137.932 169.596 13.430 5.479 o
5 5 4 38.374 10.396 2.999 125.965 o
5 5 5 2.805 3.230 2.517 342.445 o
5 5 6 0.944 1.408 2.157 471.574 o
5 5 7 219.981 303.409 17.146 2.418 o
5 5 8 17.022 15.493 7.585 36.487 o
5 5 9 0.230 0.246 2.436 370.681 o
5 5 10 28.277 31.178 7.982 30.420 o
5 5 11 51.885 77.445 17.491 6.421 o
5 5 12 67.842 67.023 16.231 7.112 o
5 5 13 35.840 38.770 12.459 13.028 o
5 6 0 66.720 35.489 5.279 36.859 o
5 6 1 224.337 208.530 20.048 2.491 o
5 6 2 23.463 17.247 4.806 79.425 o
5 6 3 31.501 11.456 3.793 106.919 o
5 6 4 85.519 116.739 12.136 9.182 o
5 6 5 3.823 40.521 6.712 46.164 o
5 6 6 0.723 2.371 3.521 177.118 o
5 6 7 101.522 139.991 14.656 6.359 o
5 6 8 55.118 64.930 10.306 15.665 o
5 6 9 0.368 2.869 2.812 277.542 o
5 6 10 29.007 63.248 12.057 13.597 o
5 6 11 7.134 28.848 10.856 18.338 o
5 6 12 8.313 -19.713 12.991 13.007 o
5 7 0 9.566 5.384 2.834 252.752 o
5 7 1 13.146 8.402 7.982 33.806 o
5 7 2 14.897 7.610 6.398 51.746 o
5 7 3 23.591 35.760 7.002 38.794 o
5 7 4 33.680 70.382 11.518 14.299 o
5 7 5 17.649 12.958 4.613 92.121 o
5 7 6 63.063 128.743 20.864 4.332 o
5 7 7 22.804 32.457 9.027 24.913 o
5 7 8 0.089 2.451 3.899 144.548 o
5 7 9 0.056 -5.293 5.991 61.269 o
5 7 10 6.675 -3.454 7.868 35.408 o
5 8 0 3.196 2.869 5.505 72.349 o
5 8 1 4.328 13.494 4.153 123.591 o
5 8 2 2.643 1.029 3.152 220.373 o
5 8 3 0.166 6.335 4.480 109.305 o
5 8 4 1.602 1.642 7.586 38.199 o
5 8 5 1.861 4.134 6.481 52.264 o
5 8 6 9.573 -6.640 8.023 33.946 o
5 8 7 13.630 29.113 10.600 18.973 o
5 8 8 26.227 17.599 13.622 11.512 o
5 8 9 47.074 2.281 5.162 59.414 o
6 -9 0 1.260 -9.463 8.978 27.282 o
6 -8 0 0.067 1.574 10.341 20.565 o
6 -8 1 21.981 37.137 9.732 21.551 o
6 -8 2 0.000 3.355 5.007 87.671 o
6 -8 3 5.126 22.362 9.503 24.034 o
6 -8 4 29.502 36.208 11.762 14.813 o
6 -8 5 0.249 20.555 13.540 11.963 o
6 -8 6 37.407 63.271 20.913 4.795 o
6 -8 7 1.356 -2.171 4.100 130.741 o
6 -8 8 3.650 -0.375 2.627 315.871 o
6 -7 0 0.737 4.617 8.683 29.149 o
6 -7 1 109.191 142.444 31.758 1.906 o
6 -7 2 14.873 20.087 5.255 72.398 o
6 -7 3 2.750 0.594 3.758 155.248 o
6 -7 4 0.156 5.488 4.438 111.451 o
6 -7 5 3.624 15.431 6.205 56.280 o
6 -7 6 29.464 38.836 11.415 15.604 o
6 -7 7 0.277 3.791 4.051 133.819 o
6 -7 8 1.843 4.306 4.065 132.492 o
6 -7 9 1.369 -15.041 11.007 18.149 o
6 -7 10 27.333 36.605 17.191 7.214 o
6 -6 0 6.172 3.935 5.003 86.849 o
6 -6 1 36.155 52.720 9.315 21.111 o
6 -6 2 305.203 346.094 21.187 1.498 o
6 -6 3 215.943 257.564 18.390 2.535 o
6 -6 4 0.222 7.458 3.355 194.147 o
6 -6 5 8.761 6.353 3.322 188.414 o
6 -6 6 0.605 1.494 5.218 80.758 o
6 -6 7 23.312 64.957 15.003 9.203 o
6 -6 8 1.112 21.652 10.235 20.865 o
6 -6 9 20.807 34.511 11.273 16.468 o
6 -6 10 0.859 0.858 4.931 90.417 o
6 -6 11 35.918 106.781 28.810 2.541 o
6 -5 0 596.789 591.666 19.050 0.562 o
6 -5 1 27.294 16.740 3.675 114.675 o
6 -5 2 491.977 526.868 21.454 0.732 o
6 -5 3 146.772 205.476 11.902 5.249 o
6 -5 4 60.438 104.192 10.992 12.409 o
6 -5 5 26.839 16.345 3.922 105.513 o
6 -5 6 37.670 41.280 7.854 28.623 o
6 -5 7 9.139 7.271 5.735 65.409 o
6 -5 8 20.883 23.565 9.039 25.437 o
6 -5 9 8.581 11.103 6.772 47.033 o
6 -5 10 0.018 9.317 6.111 58.735 o
6 -5 11 4.645 21.870 9.572 23.721 o
6 -5 12 1.481 9.390 14.343 10.681 o
6 -4 0 29.544 32.979 3.731 94.145 o
6 -4 1 115.968 255.928 14.486 4.632 o
6 -4 2 807.260 814.517 29.399 0.296 o
6 -4 3 87.947 157.146 10.119 9.736 o
6 -4 4 18.868 59.379 6.302 43.793 o
6 -4 5 296.936 360.453 20.373 1.539 o
6 -4 6 2.053 22.279 5.374 74.159 o
6 -4 7 79.472 134.450 22.943 3.534 o
6 -4 8 86.716 126.172 13.870 7.523 o
6 -4 9 63.068 130.896 15.021 7.351 o
6 -4 10 8.365 1.690 7.423 39.633 o
6 -4 11 70.783 100.799 27.590 2.660 o
6 -4 12 0.925 3.611 7.279 41.481 o
6 -4 13 2.674 22.519 9.850 22.465 o
6 -3 0 416.784 341.533 29.986 0.902 o
6 -3 1 144.252 86.983 5.483 11.751 o
6 -3 2 23.593 40.752 4.900 67.424 o
6 -3 3 37.827 7.567 3.335 116.703 o
6 -3 4 5.836 4.610 1.622 751.252 o
6 -3 5 196.204 284.905 28.440 1.666 o
6 -3 6 1823.350 2523.320 163.964 0.032 o
6 -3 7 810.258 932.281 64.820 0.192 o
6 -3 8 0.009 1.909 2.728 295.343 o
6 -3 9 1.271 4.001 7.654 37.512 o
6 -3 10 61.111 173.802 17.921 5.252 o
6 -3 11 6.421 -0.817 4.606 102.752 o
6 -3 12 3.929 -1.793 3.712 158.812 o
6 -3 13 0.008 -2.160 5.393 75.620 o
6 -3 14 0.041 -4.641 6.119 58.742 o
6 -2 0 111.673 181.805 17.309 4.559 o
6 -2 1 275.206 306.355 20.151 1.797 o
6 -2 2 239.378 426.538 15.592 1.903 o
6 -2 3 182.901 131.704 7.504 6.623 o
6 -2 4 151.151 178.883 8.548 6.646 o
6 -2 5 10.769 0.687 1.949 505.466 o
6 -2 6 739.505 986.666 56.390 0.221 o
6 -2 7 1099.220 1239.570 79.000 0.113 o
6 -2 8 78.973 117.590 15.682 6.655 o
6 -2 9 1.127 0.537 3.095 229.375 o
6 -2 10 4.175 -0.467 4.529 106.796 o
6 -2 11 5.489 2.850 3.037 233.091 o
6 -2 12 14.506 41.181 9.379 23.532 o
6 -2 13 17.987 23.451 7.166 39.782 o
6 -2 14 21.457 29.845 8.628 27.373 o
6 -2 15 19.298 46.837 18.891 6.025 o
6 -2 16 9.043 24.429 13.011 12.838 o
6 -2 17 0.122 14.864 10.882 18.531 o
6 -1 0 79.987 11.561 2.873 53.564 o
6 -1 1 124.317 31.643 4.153 20.983 o
6 -1 2 48.487 45.376 4.044 56.498 o
6 -1 3 0.245 3.635 1.281 1325.050 o
6 -1 4 1144.850 1058.880 38.154 0.158 o
6 -1 5 6.094 53.133 4.998 73.983 o
6 -1 6 94.400 130.574 11.842 8.665 o
6 -1 7 17.274 3.361 1.846 438.855 o
6 -1 8 83.248 63.250 5.927 23.413 o
6 -1 9 20.842 39.431 5.380 60.635 o
6 -1 10 6.433 13.067 3.194 200.848 o
6 -1 11 201.558 232.413 34.597 1.335 o
6 -1 12 7.755 4.458 4.141 125.013 o
6 -1 13 0.067 0.727 3.013 242.147 o
6 -1 14 9.043 19.119 6.858 45.270 o
6 -1 15 3.352 13.084 16.466 8.097 o
6 -1 16 33.935 72.325 24.095 3.650 o
6 0 0 157.750 425.265 15.889 2.548 o
6 0 1 0.433 0.247 0.811 3336.920 o
6 0 2 1778.140 2738.700 75.251 0.044 o
6 0 3 0.082 0.246 1.674 784.762 o
6 0 4 214.576 214.437 10.602 3.833 o
6 0 5 0.019 0.455 0.960 2387.180 o
6 0 6 538.972 403.650 13.944 0.833 o
6 0 7 0.136 1.269 1.277 1345.400 o
6 0 8 2.194 5.177 2.714 294.417 o
6 0 9 0.000 2.051 1.674 783.323 o
6 0 10 418.652 418.685 25.894 0.906 o
6 0 11 0.004 5.478 4.572 105.033 o
6 0 12 60.252 77.707 16.008 7.330 o
6 0 13 0.001 -5.140 5.824 64.827 o
6 0 14 21.998 4.099 4.094 113.698 o
6 0 15 0.000 -2.205 3.138 223.263 o
6 0 16 6.154 -1.074 5.121 83.326 o
6 1 0 86.525 12.664 2.733 47.894 o
6 1 1 116.544 35.850 4.409 21.980 o
6 1 2 51.017 41.609 4.172 54.446 o
6 1 3 0.985 2.169 1.827 655.353 o
6 1 4 1134.580 1100.200 37.132 0.157 o
6 1 5 8.024 51.358 5.507 62.151 o
6 1 6 90.916 144.840 11.287 8.932 o
6 1 7 21.794 5.456 1.874 354.996 o
6 1 8 80.523 69.112 8.352 17.078 o
6 1 9 17.043 48.194 7.437 34.993 o
6 1 10 5.044 9.913 3.087 220.419 o
6 1 11 213.183 178.439 29.174 1.747 o
6 1 12 10.553 1.325 2.340 364.307 o
6 1 13 0.409 1.255 6.220 56.836 o
6 1 14 10.282 28.073 8.220 31.326 o
6 1 15 2.329 19.896 19.576 5.728 o
6 2 0 109.442 162.819 7.297 10.206 o
6 2 1 242.007 292.896 8.817 2.933 o
6 2 2 235.174 422.310 15.348 1.959 o
6 2 3 185.974 128.544 8.636 6.218 o
6 2 4 166.832 195.730 20.948 2.929 o
6 2 5 11.468 5.437 2.748 260.356 o
6 2 6 750.559 953.852 53.286 0.230 o
6 2 7 1088.140 1157.330 26.405 0.168 o
6 2 8 76.695 128.295 8.281 14.015 o
6 2 9 0.971 0.294 2.070 512.610 o
6 2 10 1.268 -1.043 2.135 481.464 o
6 2 11 8.275 -2.855 3.367 188.880 o
6 2 12 14.728 42.723 13.349 11.952 o
6 2 13 15.970 23.061 9.536 23.319 o
6 2 14 18.151 24.121 7.462 36.804 o
6 2 15 21.727 47.336 18.074 6.548 o
6 3 0 381.168 309.351 17.826 1.377 o
6 3 1 122.736 80.955 6.173 14.023 o
6 3 2 16.784 34.261 4.342 91.739 o
6 3 3 37.546 8.571 2.055 182.847 o
6 3 4 6.408 2.881 1.943 542.765 o
6 3 5 210.580 278.754 13.204 3.055 o
6 3 6 1845.710 2477.350 78.159 0.045 o
6 3 7 831.752 944.423 28.302 0.263 o
6 3 8 0.054 4.559 4.229 122.777 o
6 3 9 1.777 9.389 4.325 116.386 o
6 3 10 55.220 120.669 14.911 7.804 o
6 3 11 5.940 -3.074 3.306 198.379 o
6 3 12 3.925 4.086 4.416 111.846 o
6 3 13 0.001 6.996 5.467 73.453 o
6 3 14 0.002 2.649 3.955 140.499 o
6 3 15 7.826 5.453 7.461 39.156 o
6 4 0 27.283 22.816 3.026 138.949 o
6 4 1 115.249 263.379 10.368 5.803 o
6 4 2 797.238 805.996 29.119 0.303 o
6 4 3 93.320 138.994 8.402 11.657 o
6 4 4 25.408 51.417 6.518 40.637 o
6 4 5 295.946 351.852 16.333 1.747 o
6 4 6 1.743 20.571 3.987 132.979 o
6 4 7 88.525 153.770 13.838 7.019 o
6 4 8 82.020 118.014 12.533 8.952 o
6 4 9 70.545 109.668 11.969 10.312 o
6 4 10 10.446 2.341 2.751 269.232 o
6 4 11 69.570 92.287 18.693 5.376 o
6 4 12 0.340 -2.539 9.318 25.326 o
6 4 13 2.944 2.069 13.818 11.513 o
6 4 14 28.956 66.250 23.429 3.885 o
6 5 0 575.329 642.835 30.603 0.487 o
6 5 1 29.056 11.414 3.562 121.647 o
6 5 2 506.328 527.479 24.362 0.680 o
6 5 3 146.002 218.081 15.387 4.177 o
6 5 4 65.946 94.086 9.940 14.127 o
6 5 5 17.617 14.400 4.268 104.934 o
6 5 6 37.823 51.202 8.746 23.295 o
6 5 7 10.736 4.526 3.795 145.078 o
6 5 8 17.198 39.898 7.755 33.176 o
6 5 9 9.926 0.141 3.090 219.979 o
6 5 10 0.006 9.826 6.629 49.917 o
6 5 11 5.150 7.209 17.503 7.171 o
6 5 12 1.175 20.127 9.395 24.757 o
6 6 0 5.307 1.850 2.037 508.859 o
6 6 1 38.606 58.689 9.761 18.985 o
6 6 2 290.297 392.272 24.101 1.345 o
6 6 3 212.912 276.240 18.915 2.426 o
6 6 4 0.028 6.314 4.044 134.111 o
6 6 5 3.453 7.098 5.927 62.207 o
6 6 6 0.958 2.784 3.992 137.794 o
6 6 7 25.814 61.803 10.028 19.143 o
6 6 8 0.696 3.564 3.947 140.885 o
6 6 9 25.513 34.092 7.866 31.441 o
6 6 10 0.650 -0.509 4.060 133.423 o
6 7 0 1.291 0.164 2.610 322.383 o
6 7 1 101.916 127.047 19.049 4.536 o
6 7 2 14.778 17.947 6.362 51.163 o
6 7 3 0.995 4.071 4.140 127.970 o
6 7 4 0.013 4.892 5.969 61.667 o
6 7 5 3.829 1.774 3.024 237.899 o
6 7 6 24.087 24.785 7.170 38.357 o
6 7 7 0.074 -4.262 5.983 61.427 o
6 7 8 2.742 0.347 4.120 129.235 o
6 7 9 1.383 -14.065 11.435 16.816 o
6 8 0 0.021 0.314 3.603 169.391 o
6 8 1 23.476 36.248 12.129 14.204 o
6 8 2 0.069 5.892 5.304 78.051 o
6 8 3 6.135 14.116 11.347 16.979 o
6 8 4 30.874 49.651 19.948 5.341 o
6 8 5 0.313 -3.619 6.010 60.881 o
6 8 6 39.881 69.926 16.366 7.511 o
6 8 7 0.840 13.553 10.670 19.272 o
6 8 8 2.311 12.105 9.925 22.253 o
7 -8 0 2.829 6.310 3.390 188.688 o
7 -8 1 2.612 8.820 4.751 96.493 o
7 -8 2 2.427 13.744 7.890 35.112 o
7 -8 3 8.073 -14.270 11.325 17.109 o
7 -7 0 2.862 4.904 4.219 122.686 o
7 -7 1 30.021 30.246 7.840 31.174 o
7 -7 2 15.286 36.027 9.265 24.225 o
7 -7 3 4.547 6.431 4.277 118.485 o
7 -7 4 1.014 33.349 9.835 22.414 o
7 -7 5 16.787 36.217 8.878 26.105 o
7 -7 6 35.079 35.147 11.309 15.681 o
7 -7 7 5.105 5.234 6.446 52.590 o
7 -7 8 6.728 22.582 12.866 13.170 o
7 -7 9 15.438 40.190 17.398 7.132 o
7 -6 0 125.880 217.356 26.020 2.385 o
7 -6 1 6.901 2.363 3.853 145.311 o
7 -6 2 44.482 49.118 7.709 27.264 o
7 -6 3 98.300 99.950 11.421 9.629 o
7 -6 4 40.931 41.468 7.468 30.243 o
7 -6 5 4.554 -2.894 2.947 250.614 o
7 -6 6 5.669 30.965 10.386 20.015 o
7 -6 7 14.400 50.174 12.983 12.531 o
7 -6 8 7.385 12.527 5.351 74.648 o
7 -6 9 18.866 36.442 20.618 5.100 o
7 -6 10 0.285 5.581 7.251 41.787 o
7 -6 11 0.273 11.452 10.014 21.892 o
7 -5 0 113.844 111.915 11.503 8.433 o
7 -5 1 262.835 224.355 16.259 2.468 o
7 -5 2 1.912 -1.382 1.675 779.238 o
7 -5 3 146.165 211.933 15.964 4.088 o
7 -5 4 1.034 0.163 2.652 312.479 o
7 -5 5 23.496 23.355 5.727 57.408 o
7 -5 6 1.196 15.973 5.648 68.132 o
7 -5 7 2.608 27.994 9.784 22.683 o
7 -5 8 6.186 3.381 4.796 94.458 o
7 -5 9 62.125 54.002 14.021 9.480 o
7 -5 10 0.061 1.488 3.682 162.145 o
7 -5 11 32.681 89.037 26.270 3.069 o
7 -5 12 2.805 13.907 11.020 18.045 o
7 -4 0 240.831 294.300 12.676 2.646 o
7 -4 1 148.216 58.626 6.852 11.732 o
7 -4 2 1011.220 1230.980 67.754 0.134 o
7 -4 3 61.161 51.671 5.926 31.944 o
7 -4 4 2.144 15.751 3.796 148.026 o
7 -4 5 31.185 7.577 2.845 162.326 o
7 -4 6 90.691 107.582 12.496 8.827 o
7 -4 7 19.821 23.518 6.537 46.611 o
7 -4 8 29.055 73.844 11.053 15.536 o
7 -4 9 76.882 81.873 16.459 6.609 o
7 -4 10 10.327 15.249 12.856 13.191 o
7 -4 11 0.038 -2.621 7.450 39.616 o
7 -4 12 0.001 -12.621 11.030 18.076 o
7 -4 13 4.955 46.030 19.500 5.731 o
7 -3 0 96.227 46.626 5.775 22.660 o
7 -3 1 22.567 72.802 6.770 35.872 o
7 -3 2 104.596 58.203 6.118 18.781 o
7 -3 3 680.995 831.498 46.052 0.294 o
7 -3 4 381.578 467.342 30.671 0.837 o
7 -3 5 2176.820 2822.540 157.143 0.027 o
7 -3 6 1.525 0.841 3.701 160.371 o
7 -3 7 93.518 65.171 8.108 16.098 o
7 -3 8 0.079 0.055 4.913 91.098 o
7 -3 9 8.514 6.199 5.276 77.337 o
7 -3 10 86.373 72.886 12.192 10.188 o
7 -3 11 11.072 29.112 7.767 34.765 o
7 -3 12 1.278 7.115 3.831 148.779 o
7 -3 13 3.013 4.328 4.823 94.050 o
7 -2 0 159.866 90.669 9.250 8.049 o
7 -2 1 368.111 327.766 19.018 1.355 o
7 -2 2 126.936 189.327 10.850 6.537 o
7 -2 3 5.319 6.740 1.986 513.841 o
7 -2 4 413.198 287.805 17.067 1.313 o
7 -2 5 348.974 362.071 23.450 1.221 o
7 -2 6 35.840 35.210 4.645 64.116 o
7 -2 7 1.043 4.678 2.297 412.778 o
7 -2 8 32.132 23.824 6.742 40.644 o
7 -2 9 93.627 175.558 18.062 4.651 o
7 -2 10 14.624 30.238 7.512 36.426 o
7 -2 11 19.056 8.081 3.618 142.204 o
7 -2 12 5.941 23.206 7.351 39.687 o
7 -2 13 6.435 11.854 5.591 68.854 o
7 -2 14 2.699 -3.335 12.250 14.652 o
7 -2 15 5.943 4.533 6.774 47.615 o
7 -2 16 18.101 20.531 12.643 13.455 o
7 -1 0 971.087 876.538 39.443 0.211 o
7 -1 1 63.874 100.882 7.549 19.093 o
7 -1 2 72.896 152.500 8.950 12.276 o
7 -1 3 1.676 19.460 3.795 146.775 o
7 -1 4 52.503 87.183 6.552 26.164 o
7 -1 5 161.858 226.495 10.958 4.810 o
7 -1 6 34.980 20.154 3.089 118.301 o
7 -1 7 97.014 113.596 9.465 11.279 o
7 -1 8 8.936 4.520 2.687 282.707 o
7 -1 9 5.026 7.342 5.025 85.932 o
7 -1 10 29.274 101.558 14.298 9.440 o
7 -1 11 5.542 39.864 9.383 24.185 o
7 -1 12 29.552 38.528 9.380 22.303 o
7 -1 13 7.363 -1.097 5.021 86.400 o
7 -1 14 7.881 -0.289 7.538 38.510 o
7 -1 15 1.519 -29.248 15.373 9.305 o
7 0 0 0.002 0.921 1.474 1011.810 o
7 0 1 1829.540 1517.270 39.240 0.070 o
7 0 2 0.000 -1.434 1.480 1004.250 o
7 0 3 444.245 840.454 34.429 0.487 o
7 0 4 0.176 -1.940 1.762 708.399 o
7 0 5 573.625 637.963 22.718 0.541 o
7 0 6 0.255 1.300 0.884 2802.320 o
7 0 7 0.717 0.784 3.903 144.309 o
7 0 8 0.186 -0.736 3.022 240.842 o
7 0 9 136.895 255.021 21.834 2.791 o
7 0 10 0.049 4.652 5.673 68.266 o
7 0 11 33.344 23.018 7.720 32.074 o
7 0 12 0.009 -6.782 6.263 56.065 o
7 0 13 39.248 128.512 21.696 4.242 o
7 0 14 0.044 -4.290 8.224 32.513 o
7 0 15 0.029 0.287 4.803 95.330 o
7 1 0 927.310 894.179 24.611 0.244 o
7 1 1 69.236 101.040 8.581 15.992 o
7 1 2 73.460 169.768 11.541 8.983 o
7 1 3 0.712 17.258 3.637 161.520 o
7 1 4 40.462 91.583 8.546 20.716 o
7 1 5 142.856 235.499 14.483 4.293 o
7 1 6 31.827 12.018 4.184 92.047 o
7 1 7 93.249 121.217 13.130 7.915 o
7 1 8 11.999 8.585 3.402 172.355 o
7 1 9 7.439 0.813 2.151 448.636 o
7 1 10 25.404 66.728 11.273 15.437 o
7 1 11 8.033 16.686 5.896 61.166 o
7 1 12 31.540 42.688 9.393 21.840 o
7 1 13 5.832 3.495 4.668 99.734 o
7 1 14 7.389 16.606 8.345 31.088 o
7 2 0 165.450 66.538 5.387 10.725 o
7 2 1 385.399 327.520 15.124 1.399 o
7 2 2 134.085 180.231 11.691 6.099 o
7 2 3 6.066 5.381 2.510 331.105 o
7 2 4 403.628 288.522 19.373 1.284 o
7 2 5 354.964 380.197 26.367 1.089 o
7 2 6 36.772 48.514 8.271 25.870 o
7 2 7 0.353 13.299 4.342 115.298 o
7 2 8 21.632 16.814 4.099 105.594 o
7 2 9 101.778 187.309 15.433 5.387 o
7 2 10 14.238 25.038 5.837 59.017 o
7 2 11 20.467 3.157 2.829 216.236 o
7 2 12 7.376 40.057 9.504 23.477 o
7 2 13 6.336 7.001 5.382 74.796 o
7 2 14 1.899 14.246 6.491 51.754 o
7 3 0 104.388 40.703 5.793 21.368 o
7 3 1 32.861 59.645 9.388 20.818 o
7 3 2 100.799 51.794 6.252 19.877 o
7 3 3 684.508 804.461 35.994 0.335 o
7 3 4 414.193 489.213 26.195 0.840 o
7 3 5 2127.940 2949.370 78.462 0.034 o
7 3 6 4.811 3.657 3.719 156.751 o
7 3 7 93.900 62.575 8.737 15.045 o
7 3 8 0.260 6.291 2.917 256.892 o
7 3 9 11.071 15.582 4.461 102.371 o
7 3 10 82.928 69.303 12.810 9.743 o
7 3 11 13.209 24.578 7.145 40.769 o
7 3 12 3.278 -4.410 4.622 102.728 o
7 3 13 3.127 -3.653 4.622 102.747 o
7 3 14 26.084 24.521 13.954 10.925 o
7 3 15 2.377 -12.676 10.278 20.810 o
7 4 0 273.808 310.108 13.126 2.218 o
7 4 1 142.217 55.399 5.629 13.711 o
7 4 2 980.260 1238.410 89.459 0.113 o
7 4 3 54.477 69.155 10.665 14.753 o
7 4 4 4.998 7.917 7.758 36.325 o
7 4 5 34.576 5.195 4.025 98.323 o
7 4 6 91.772 85.455 11.993 9.799 o
7 4 7 19.945 21.629 6.528 46.965 o
7 4 8 34.480 75.103 12.472 12.310 o
7 4 9 72.053 61.790 17.862 6.004 o
7 4 10 12.320 12.045 5.182 77.564 o
7 4 11 0.042 -0.327 3.461 183.537 o
7 4 12 0.071 0.503 6.871 46.582 o
7 4 13 7.180 26.018 14.588 10.245 o
7 5 0 120.555 115.499 11.516 8.018 o
7 5 1 258.007 226.721 22.070 1.996 o
7 5 2 3.279 3.631 2.496 346.495 o
7 5 3 164.245 210.943 32.827 1.569 o
7 5 4 1.072 7.123 4.354 115.401 o
7 5 5 22.863 24.193 6.462 46.587 o
7 5 6 1.389 9.731 7.255 41.646 o
7 5 7 3.151 19.130 6.226 55.699 o
7 5 8 4.941 5.878 3.024 233.459 o
7 5 9 63.925 73.630 13.362 9.828 o
7 5 10 0.034 5.631 7.027 44.497 o
7 5 11 28.991 66.896 13.137 11.577 o
7 6 0 138.385 181.408 23.938 2.726 o
7 6 1 5.031 0.899 5.392 75.282 o
7 6 2 36.738 46.587 10.063 18.745 o
7 6 3 101.405 104.400 14.657 6.873 o
7 6 4 41.691 48.382 10.227 17.745 o
7 6 5 5.237 0.922 2.737 288.002 o
7 6 6 6.045 27.771 7.849 34.698 o
7 6 7 14.513 44.629 10.283 19.674 o
7 6 8 9.603 16.925 6.407 51.732 o
7 6 9 20.305 38.400 12.497 13.481 o
7 6 10 0.087 9.292 9.365 25.045 o
7 7 0 5.694 2.260 6.658 49.376 o
7 7 1 28.107 33.502 8.475 27.221 o
7 7 2 14.595 31.895 14.442 10.338 o
7 7 3 3.711 4.064 4.754 96.681 o
7 7 4 1.777 7.634 11.261 17.323 o
7 7 5 14.499 22.239 7.206 40.091 o
7 7 6 34.997 43.920 10.326 18.163 o
7 7 7 4.969 1.756 2.493 345.400 o
7 7 8 6.778 7.318 9.041 26.743 o
7 8 0 1.672 2.214 10.898 18.510 o
7 8 1 3.550 -7.436 8.479 30.564 o
7 8 2 2.521 33.333 17.230 7.367 o
7 8 3 10.132 3.573 6.170 56.822 o
7 8 6 0.690 -13.716 10.693 19.234 o
8 -8 0 0.953 -14.630 7.966 34.650 o
8 -8 1 2.944 7.659 8.903 27.671 o
8 -7 0 0.266 -1.028 4.112 130.031 o
8 -7 1 0.866 10.209 5.116 83.505 o
8 -7 2 21.455 20.306 6.843 42.882 o
8 -7 3 0.287 7.728 8.749 28.698 o
8 -7 4 5.934 5.248 7.095 43.402 o
8 -6 0 1.562 5.041 5.468 73.357 o
8 -6 1 14.991 14.270 7.249 40.186 o
8 -6 2 12.299 0.755 8.935 27.302 o
8 -6 3 2.806 1.572 4.011 136.229 o
8 -6 4 97.290 123.796 15.681 6.129 o
8 -6 5 71.811 80.363 13.386 9.355 o
8 -6 6 0.262 1.059 4.729 98.332 o
8 -6 7 9.347 13.992 7.879 34.760 o
8 -6 8 14.413 27.770 13.553 11.744 o
8 -6 9 0.178 -5.998 6.677 49.332 o
8 -6 10 0.894 34.208 16.186 8.348 o
8 -5 0 5.422 30.202 5.314 73.021 o
8 -5 1 0.632 7.438 3.700 159.679 o
8 -5 2 8.827 26.816 5.819 60.985 o
8 -5 3 73.981 42.381 7.420 23.045 o
8 -5 4 11.216 17.474 4.724 91.302 o
8 -5 5 8.038 23.353 5.722 63.803 o
8 -5 6 54.669 127.168 20.300 4.636 o
8 -5 7 23.466 34.975 11.206 16.529 o
8 -5 8 6.434 35.501 11.313 16.839 o
8 -5 9 7.192 2.443 6.279 55.340 o
8 -5 10 43.637 121.730 30.466 2.251 o
8 -5 11 4.850 62.568 22.052 4.469 o
8 -4 0 72.710 131.411 7.965 14.783 o
8 -4 1 56.339 117.392 9.474 14.792 o
8 -4 2 50.688 43.562 5.858 38.103 o
8 -4 3 312.610 560.046 24.891 1.007 o
8 -4 4 128.674 93.720 8.916 10.144 o
8 -4 5 1.606 8.800 6.370 53.978 o
8 -4 6 4.016 14.752 7.146 42.583 o
8 -4 7 34.966 72.769 15.002 8.877 o
8 -4 8 35.198 38.861 11.049 16.244 o
8 -4 9 0.088 7.807 7.460 39.469 o
8 -4 10 0.035 6.083 5.486 72.969 o
8 -4 11 10.214 36.286 14.715 9.991 o
8 -4 12 2.198 -3.516 6.330 54.851 o
8 -3 0 5.724 23.482 4.439 104.412 o
8 -3 1 29.548 75.432 5.745 41.374 o
8 -3 2 1596.200 2033.200 103.115 0.054 o
8 -3 3 428.984 690.410 34.516 0.570 o
8 -3 4 58.617 78.827 10.162 15.056 o
8 -3 5 84.179 75.657 10.521 12.424 o
8 -3 6 9.642 3.040 2.416 343.959 o
8 -3 7 24.359 31.043 7.641 33.586 o
8 -3 8 17.980 72.716 11.741 14.565 o
8 -3 9 46.215 33.017 8.409 24.919 o
8 -3 10 1.794 3.635 6.877 46.439 o
8 -3 11 6.520 17.022 6.581 49.624 o
8 -3 12 34.595 69.542 23.008 3.993 o
8 -2 0 4.588 9.930 2.623 301.890 o
8 -2 1 264.062 229.232 11.397 2.860 o
8 -2 2 77.601 86.162 6.783 19.831 o
8 -2 3 1296.930 1231.570 56.164 0.113 o
8 -2 4 404.875 669.437 42.576 0.518 o
8 -2 5 81.987 71.010 8.405 16.641 o
8 -2 6 38.302 14.476 4.234 80.928 o
8 -2 7 7.033 1.977 1.672 713.754 o
8 -2 8 206.802 334.469 25.530 1.725 o
8 -2 9 0.129 6.204 4.454 110.596 o
8 -2 10 11.711 41.497 11.176 16.968 o
8 -2 11 24.313 43.606 9.912 20.417 o
8 -2 12 12.881 24.778 7.842 34.179 o
8 -2 13 7.249 4.758 4.805 93.581 o
8 -2 14 6.083 11.776 9.952 22.060 o
8 -2 15 8.713 -8.051 8.033 33.901 o
8 -1 0 6.124 26.887 4.924 84.740 o
8 -1 1 260.920 191.783 10.172 3.278 o
8 -1 2 27.799 3.033 1.571 349.088 o
8 -1 3 71.021 73.172 7.761 19.666 o
8 -1 4 14.348 2.347 1.859 485.415 o
8 -1 5 51.367 130.729 10.615 12.686 o
8 -1 6 1.420 17.934 3.760 150.434 o
8 -1 7 451.204 414.351 45.651 0.548 o
8 -1 8 102.623 56.633 9.034 13.916 o
8 -1 9 83.427 78.882 15.810 6.933 o
8 -1 10 76.173 147.677 19.532 4.565 o
8 -1 11 11.754 49.913 11.380 16.229 o
8 -1 12 1.967 -1.542 4.494 108.813 o
8 -1 13 8.529 8.278 7.200 41.838 o
8 -1 14 3.580 4.845 7.080 43.730 o
8 0 0 442.104 252.076 13.061 1.367 o
8 0 1 0.027 0.879 1.863 633.285 o
8 0 2 263.442 386.694 22.208 1.546 o
8 0 3 0.100 0.514 1.443 1056.290 o
8 0 4 1.786 15.504 3.935 138.372 o
8 0 5 0.019 -1.331 2.016 541.084 o
8 0 6 341.042 225.932 24.321 1.456 o
8 0 7 0.003 -0.182 1.942 583.372 o
8 0 8 40.611 103.206 16.698 6.944 o
8 0 9 0.041 2.246 8.557 30.034 o
8 0 10 201.868 197.132 25.376 2.102 o
8 0 11 0.052 4.624 4.782 96.059 o
8 0 12 15.930 16.884 18.074 6.678 o
8 0 13 0.002 -2.536 7.080 43.869 o
8 0 14 0.682 4.199 6.895 46.222 o
8 1 0 3.631 39.290 6.778 45.486 o
8 1 1 264.082 203.958 15.413 2.635 o
8 1 2 31.429 1.712 2.138 238.497 o
8 1 3 71.746 85.116 10.424 13.179 o
8 1 4 14.125 0.128 1.752 554.384 o
8 1 5 52.655 137.883 11.135 11.586 o
8 1 6 1.769 14.512 4.193 122.552 o
8 1 7 465.801 493.643 35.465 0.625 o
8 1 8 115.061 71.725 10.800 10.081 o
8 1 9 87.949 61.061 12.672 9.855 o
8 1 10 80.471 149.790 22.131 3.682 o
8 1 11 14.846 20.871 10.799 18.409 o
8 1 12 2.831 2.444 3.773 153.658 o
8 1 13 10.832 10.448 17.206 7.399 o
8 2 0 5.214 6.926 2.176 433.605 o
8 2 1 261.665 247.725 16.962 2.315 o
8 2 2 78.767 88.179 10.176 12.876 o
8 2 3 1235.940 1156.900 70.378 0.112 o
8 2 4 428.743 656.568 31.382 0.622 o
8 2 5 89.211 62.864 9.961 13.402 o
8 2 6 37.132 22.736 6.499 41.710 o
8 2 7 8.668 3.416 2.771 269.567 o
8 2 8 214.279 277.568 40.622 0.997 o
8 2 9 0.231 2.514 4.927 90.570 o
8 2 10 9.295 24.945 7.497 37.706 o
8 2 11 30.040 44.304 10.022 19.536 o
8 2 12 18.649 29.529 8.395 29.150 o
8 2 13 8.928 14.774 9.617 23.477 o
8 3 0 4.572 22.526 4.183 118.132 o
8 3 1 27.550 78.248 9.327 20.595 o
8 3 2 1554.210 1951.730 105.550 0.055 o
8 3 3 457.389 679.350 41.754 0.481 o
8 3 4 54.213 83.287 17.226 6.513 o
8 3 5 80.711 76.078 10.850 12.180 o
8 3 6 8.688 -0.785 3.177 210.856 o
8 3 7 24.678 21.149 6.543 45.479 o
8 3 8 19.952 61.831 10.866 16.969 o
8 3 9 50.233 38.335 14.471 9.525 o
8 3 10 2.004 3.843 7.880 35.378 o
8 3 11 4.944 19.818 8.859 27.672 o
8 3 12 31.044 54.349 20.755 4.932 o
8 3 13 1.653 31.159 15.622 8.962 o
8 3 14 18.872 13.106 10.191 20.603 o
8 4 0 75.919 121.696 13.613 8.187 o
8 4 1 53.941 96.104 16.221 7.107 o
8 4 2 47.020 33.197 10.478 17.204 o
8 4 3 315.196 530.809 39.173 0.724 o
8 4 4 132.830 112.883 17.812 4.611 o
8 4 5 1.453 -3.598 8.435 30.905 o
8 4 6 3.577 17.183 7.916 34.725 o
8 4 7 33.217 47.185 12.535 12.822 o
8 4 8 23.306 30.373 10.064 20.383 o
8 4 9 0.397 0.098 3.559 173.643 o
8 4 10 0.009 3.242 10.479 20.026 o
8 4 11 6.976 14.103 9.843 22.493 o
8 4 12 1.694 16.999 12.494 14.045 o
8 5 0 6.120 27.708 7.752 35.542 o
8 5 1 0.793 5.313 5.092 84.650 o
8 5 2 10.300 35.511 10.573 19.073 o
8 5 3 75.002 59.567 13.831 9.155 o
8 5 4 7.052 3.470 10.509 19.851 o
8 5 5 6.559 17.583 10.501 19.756 o
8 5 6 51.942 134.340 21.714 4.113 o
8 5 7 17.235 37.903 12.257 14.092 o
8 5 8 6.847 35.109 11.850 15.370 o
8 5 9 5.591 5.486 5.188 80.785 o
8 5 10 40.682 129.037 30.528 2.241 o
8 5 11 4.479 -19.292 12.256 14.632 o
8 6 0 1.132 4.979 3.989 137.698 o
8 6 1 12.754 32.622 8.450 29.256 o
8 6 2 12.203 8.173 4.395 107.292 o
8 6 3 1.867 4.355 5.136 83.125 o
8 6 4 96.089 150.700 18.588 4.616 o
8 6 5 82.692 113.717 15.838 6.514 o
8 6 6 0.016 8.173 4.140 127.745 o
8 6 7 9.544 39.894 10.049 20.972 o
8 6 8 13.604 9.718 12.873 13.150 o
8 6 9 0.328 4.296 7.247 41.851 o
8 7 0 0.811 4.555 3.759 155.182 o
8 7 1 1.415 4.983 3.997 137.097 o
8 7 2 19.036 15.010 5.825 59.316 o
8 7 3 0.386 7.113 4.289 119.077 o
8 7 4 8.329 12.942 5.435 72.061 o
8 7 5 25.623 43.222 12.563 13.108 o
8 7 6 11.097 -0.748 7.363 40.155 o
8 7 7 31.083 85.675 27.219 2.874 o
8 8 5 0.457 4.609 6.315 55.091 o
9 -8 0 2.007 8.104 8.401 31.086 o
9 -7 0 0.825 0.850 3.248 208.349 o
9 -7 1 3.360 5.622 4.548 105.443 o
9 -7 2 8.716 -3.348 5.913 62.296 o
9 -7 3 5.834 17.907 11.920 15.371 o
9 -7 4 10.114 25.078 14.710 10.057 o
9 -6 0 4.411 7.394 6.188 57.002 o
9 -6 1 1.051 0.179 4.121 129.467 o
9 -6 2 1.266 0.868 4.436 111.674 o
9 -6 3 0.003 5.801 3.734 157.294 o
9 -6 4 2.414 1.270 5.525 71.949 o
9 -6 5 21.064 26.996 15.411 9.057 o
9 -5 0 8.395 -0.090 3.727 154.834 o
9 -5 1 98.179 119.954 15.010 6.531 o
9 -5 2 8.941 0.398 2.471 339.385 o
9 -5 3 37.466 72.379 9.711 18.564 o
9 -5 4 16.846 38.703 7.573 34.808 o
9 -5 5 116.398 165.230 22.735 3.172 o
9 -5 6 0.602 8.773 5.674 68.073 o
9 -5 7 54.756 80.100 16.400 7.117 o
9 -5 8 0.091 -4.287 6.074 59.599 o
9 -5 9 0.194 1.318 4.293 119.289 o
9 -5 10 0.353 -1.445 3.639 166.045 o
9 -4 0 7.303 -0.748 1.738 674.852 o
9 -4 1 43.714 35.323 5.596 45.720 o
9 -4 2 370.906 458.369 24.979 0.987 o
9 -4 3 306.109 362.909 18.325 1.577 o
9 -4 4 49.320 94.790 11.277 13.026 o
9 -4 5 0.282 -0.674 2.148 476.574 o
9 -4 6 64.430 110.031 18.613 5.364 o
9 -4 7 17.871 46.914 11.966 14.583 o
9 -4 8 1.956 -0.130 3.149 221.327 o
9 -4 9 72.322 136.263 34.118 1.757 o
9 -4 10 3.236 4.285 6.411 53.344 o
9 -4 11 4.978 27.117 14.547 10.317 o
9 -3 0 691.978 723.625 39.624 0.337 o
9 -3 1 1173.010 1753.190 77.236 0.089 o
9 -3 2 12.299 24.198 4.311 103.580 o
9 -3 3 35.167 114.320 10.751 14.324 o
9 -3 4 115.384 57.024 9.349 12.238 o
9 -3 5 1.356 -0.674 2.690 303.487 o
9 -3 6 115.965 157.546 16.966 4.815 o
9 -3 7 35.702 27.873 8.306 27.502 o
9 -3 8 41.856 25.849 7.632 30.703 o
9 -3 9 8.292 16.685 6.119 56.854 o
9 -3 10 8.512 -0.277 3.133 216.881 o
9 -3 11 25.988 29.649 15.908 8.443 o
9 -3 12 4.549 7.712 9.018 26.939 o
9 -2 0 21.646 17.857 3.573 129.868 o
9 -2 1 252.415 216.753 13.150 2.921 o
9 -2 2 0.976 13.023 3.348 191.949 o
9 -2 3 0.033 2.688 2.776 284.993 o
9 -2 4 27.025 14.297 5.749 57.484 o
9 -2 5 40.082 42.356 7.030 33.251 o
9 -2 6 18.943 5.500 3.279 171.127 o
9 -2 7 9.541 10.653 4.317 112.079 o
9 -2 8 12.545 29.142 9.125 25.410 o
9 -2 9 9.199 15.206 5.897 61.035 o
9 -2 10 6.604 10.933 9.326 25.097 o
9 -2 11 2.914 17.108 8.801 28.175 o
9 -2 12 5.231 15.832 7.841 35.327 o
9 -2 13 41.293 69.018 22.660 4.080 o
9 -1 0 9.712 -0.263 1.962 514.770 o
9 -1 1 85.255 43.260 4.990 29.003 o
9 -1 2 0.921 0.859 1.159 1626.830 o
9 -1 3 232.234 213.040 19.628 2.453 o
9 -1 4 55.828 37.617 8.999 20.784 o
9 -1 5 24.128 26.599 6.459 45.847 o
9 -1 6 82.162 200.424 17.787 4.735 o
9 -1 7 16.744 5.877 3.210 182.814 o
9 -1 8 3.254 6.154 7.156 42.795 o
9 -1 9 2.763 11.333 5.351 75.976 o
9 -1 10 36.309 84.936 13.911 9.944 o
9 -1 11 0.096 12.698 5.778 65.506 o
9 -1 12 0.376 -0.636 5.884 63.513 o
9 -1 13 11.020 12.733 10.575 19.430 o
9 0 0 0.238 1.664 1.797 680.282 o
9 0 1 1001.330 880.969 44.766 0.195 o
9 0 2 0.051 0.099 2.326 406.503 o
9 0 3 132.664 39.832 7.760 13.408 o
9 0 4 0.033 -1.719 2.437 370.219 o
9 0 5 43.380 110.452 14.543 8.631 o
9 0 6 0.013 -1.120 2.187 459.811 o
9 0 7 39.415 36.904 7.841 28.782 o
9 0 8 0.006 3.725 2.457 363.463 o
9 0 9 14.417 66.518 15.506 8.777 o
9 0 10 0.004 -0.081 11.313 17.182 o
9 0 11 2.460 3.159 6.844 46.872 o
9 0 12 0.060 4.015 6.254 56.188 o
9 0 13 44.160 78.653 26.415 3.018 o
9 1 0 10.441 3.111 2.516 315.316 o
9 1 1 74.875 34.373 6.865 25.899 o
9 1 2 1.604 -8.012 3.355 195.121 o
9 1 3 250.337 244.168 18.892 2.256 o
9 1 4 63.122 44.839 8.448 21.151 o
9 1 5 23.319 34.822 7.753 32.584 o
9 1 6 88.984 191.500 17.752 4.708 o
9 1 7 12.273 -2.685 5.221 78.728 o
9 1 8 3.527 2.171 3.007 240.629 o
9 1 9 2.673 12.410 6.843 46.610 o
9 1 10 33.146 77.441 16.588 7.375 o
9 1 11 0.156 -1.061 8.480 30.578 o
9 1 12 0.551 2.311 5.403 75.310 o
9 2 0 19.541 18.322 4.570 89.573 o
9 2 1 257.322 227.973 19.251 2.233 o
9 2 2 1.034 13.124 4.462 109.063 o
9 2 3 0.491 -0.701 2.610 322.811 o
9 2 4 23.664 9.600 4.113 107.108 o
9 2 5 42.207 43.079 8.653 23.652 o
9 2 6 18.391 6.639 4.057 118.494 o
9 2 7 6.829 9.994 4.413 109.412 o
9 2 8 13.736 19.600 9.078 25.909 o
9 2 9 8.372 11.666 5.641 67.209 o
9 2 10 7.036 10.168 12.039 15.104 o
9 2 11 1.956 27.598 10.788 18.719 o
9 2 12 4.783 24.776 14.282 10.712 o
9 3 0 738.919 742.153 38.487 0.316 o
9 3 1 1162.340 1717.330 68.409 0.096 o
9 3 2 9.134 23.618 6.031 57.387 o
9 3 3 43.067 110.267 12.994 10.385 o
9 3 4 106.891 72.420 10.638 10.757 o
9 3 5 1.212 7.035 3.587 169.603 o
9 3 6 121.008 139.593 16.190 5.183 o
9 3 7 32.770 34.671 8.647 25.584 o
9 3 8 40.912 14.839 5.608 52.526 o
9 3 9 8.602 10.454 4.844 90.437 o
9 3 10 7.637 3.936 7.451 39.318 o
9 4 0 4.446 1.845 4.105 129.488 o
9 4 1 43.516 28.580 12.891 12.145 o
9 4 2 375.174 408.149 57.504 0.458 o
9 4 3 309.529 343.320 32.658 1.048 o
9 4 4 47.692 118.217 19.292 5.199 o
9 4 5 0.097 3.076 3.876 146.249 o
9 4 6 65.241 99.890 18.020 5.729 o
9 4 7 16.441 31.225 10.444 19.348 o
9 4 8 1.398 -1.882 5.494 72.838 o
9 4 9 73.357 89.820 27.083 2.763 o
9 4 10 2.034 -11.060 9.312 25.358 o
9 5 0 6.562 7.540 5.091 83.309 o
9 5 1 87.077 112.141 21.044 4.117 o
9 5 2 11.044 -2.311 13.133 12.709 o
9 5 3 34.870 77.374 15.870 7.969 o
9 5 4 19.131 41.376 11.734 15.193 o
9 5 5 116.595 155.691 25.628 2.665 o
9 5 6 2.263 22.124 9.090 26.364 o
9 5 7 48.438 49.768 13.944 10.070 o
9 5 8 0.052 1.943 4.339 116.800 o
9 5 9 0.635 -4.822 7.149 43.030 o
9 5 10 0.352 0.171 3.892 145.160 o
9 6 0 2.442 13.045 7.276 41.263 o
9 6 1 1.506 -1.879 4.789 95.841 o
9 6 2 1.353 1.690 5.855 64.115 o
9 6 3 0.012 -2.295 4.066 133.042 o
9 6 4 2.635 14.516 9.227 25.699 o
9 6 5 22.492 16.730 8.318 29.946 o
9 6 6 0.009 -1.183 9.109 26.502 o
9 6 7 8.448 27.192 16.209 8.301 o
9 7 0 0.888 -4.126 4.420 112.517 o
9 7 1 2.440 6.404 12.607 13.825 o
9 7 2 6.074 21.231 9.267 25.242 o
9 7 3 5.912 13.372 10.851 18.566 o
9 7 4 10.624 30.659 15.137 9.474 o
9 7 5 32.679 83.781 27.217 2.873 o
10 -7 0 2.293 0.863 13.204 12.611 o
10 -7 1 2.821 8.882 8.944 27.410 o
10 -7 2 11.479 -0.272 4.431 108.766 o
10 -7 3 17.908 51.623 20.642 5.060 o
10 -7 4 11.832 27.041 15.004 9.646 o
10 -6 0 38.111 56.083 10.983 15.694 o
10 -6 1 58.125 61.096 11.919 12.418 o
10 -6 2 3.767 3.760 3.356 192.788 o
10 -6 3 0.571 -3.294 3.209 213.527 o
10 -6 4 31.258 28.250 14.002 10.715 o
10 -5 0 5.342 3.379 8.012 34.140 o
10 -5 1 3.542 21.982 6.453 51.646 o
10 -5 2 28.919 35.090 8.795 25.286 o
10 -5 3 23.971 20.232 6.276 49.339 o
10 -5 4 3.028 10.362 4.492 107.406 o
10 -5 5 4.967 2.498 6.395 53.541 o
10 -5 6 0.874 13.834 11.571 16.392 o
10 -4 0 33.344 26.590 5.998 48.157 o
10 -4 1 1.752 0.090 2.429 371.674 o
10 -4 2 35.665 66.978 7.697 27.305 o
10 -4 3 0.562 0.622 1.772 699.591 o
10 -4 4 0.812 -4.371 2.789 282.693 o
10 -4 5 0.358 8.109 4.950 89.449 o
10 -4 6 1.836 -3.341 12.954 13.104 o
10 -4 7 3.770 12.035 7.975 34.344 o
10 -4 8 0.735 17.690 8.136 33.021 o
10 -4 9 2.686 40.370 16.808 7.720 o
10 -4 10 0.634 12.367 9.883 22.465 o
10 -3 0 106.568 171.219 11.710 7.292 o
10 -3 1 68.669 74.983 8.006 19.239 o
10 -3 2 10.427 52.002 9.241 24.087 o
10 -3 3 2.813 3.250 2.684 301.544 o
10 -3 4 23.783 14.849 5.984 54.767 o
10 -3 5 36.798 28.172 6.146 44.593 o
10 -3 6 269.253 423.270 39.901 0.839 o
10 -3 7 9.832 3.570 3.677 155.694 o
10 -3 8 11.187 17.081 6.218 54.430 o
10 -3 9 4.029 24.223 7.616 37.174 o
10 -3 10 1.559 -3.671 6.101 59.058 o
10 -3 11 14.375 52.189 21.516 4.677 o
10 -2 0 113.214 153.604 16.479 5.086 o
10 -2 1 112.645 40.005 5.572 20.085 o
10 -2 2 93.329 123.749 14.469 6.945 o
10 -2 3 0.100 5.768 5.406 75.156 o
10 -2 4 180.165 263.184 21.748 2.428 o
10 -2 5 32.020 21.774 5.669 54.514 o
10 -2 6 0.646 1.576 3.548 174.548 o
10 -2 7 28.132 34.756 8.505 26.963 o
10 -2 8 0.059 0.988 3.270 205.664 o
10 -2 9 4.862 25.541 7.548 37.688 o
10 -2 10 1.504 -1.403 3.147 221.861 o
10 -2 11 24.309 4.218 4.000 115.081 o
10 -2 12 4.428 21.178 12.911 13.113 o
10 -1 0 3.885 -0.796 1.787 674.289 o
10 -1 1 30.542 73.995 10.838 15.962 o
10 -1 2 2.252 4.508 3.539 174.283 o
10 -1 3 102.975 144.262 15.186 5.989 o
10 -1 4 24.136 16.962 5.395 64.979 o
10 -1 5 103.400 148.965 15.905 5.583 o
10 -1 6 23.037 11.738 5.286 69.454 o
10 -1 7 4.875 8.871 6.202 56.609 o
10 -1 8 6.403 17.613 8.121 32.830 o
10 -1 9 13.435 7.660 6.096 57.142 o
10 -1 10 4.618 67.157 12.957 12.611 o
10 -1 11 13.162 45.153 11.854 15.041 o
10 -1 12 0.342 6.164 7.472 39.349 o
10 0 0 17.600 2.514 2.672 252.022 o
10 0 1 0.125 5.744 4.374 114.727 o
10 0 2 64.293 108.116 13.248 9.244 o
10 0 3 0.034 -2.933 4.513 107.979 o
10 0 4 0.521 0.484 2.452 365.690 o
10 0 5 0.002 0.434 2.068 514.002 o
10 0 6 65.749 50.612 10.870 14.179 o
10 0 7 0.025 0.149 3.112 227.007 o
10 0 8 18.587 16.688 7.191 40.021 o
10 0 9 0.009 -4.746 13.410 12.228 o
10 0 10 49.349 67.725 16.666 7.126 o
10 0 11 0.076 -0.307 6.835 47.079 o
10 1 0 4.237 3.315 2.697 296.008 o
10 1 1 34.349 90.160 11.416 13.882 o
10 1 2 3.653 12.259 4.916 89.411 o
10 1 3 102.970 174.342 16.875 4.933 o
10 1 4 25.397 19.528 6.570 45.181 o
10 1 5 90.079 132.023 20.556 4.141 o
10 1 6 24.851 13.661 4.946 76.001 o
10 1 7 7.265 0.205 4.437 110.369 o
10 1 8 8.900 12.047 4.992 84.882 o
10 1 9 13.912 20.286 8.936 26.678 o
10 1 10 4.055 50.940 15.668 8.818 o
10 1 11 9.607 78.761 25.832 3.244 o
10 2 0 111.271 172.935 15.408 5.343 o
10 2 1 117.626 51.003 8.528 13.405 o
10 2 2 94.854 144.489 20.976 3.897 o
10 2 3 0.701 9.361 4.204 123.549 o
10 2 4 189.508 241.943 20.537 2.584 o
10 2 5 31.342 19.415 7.052 38.417 o
10 2 6 0.068 6.498 4.050 133.677 o
10 2 7 31.649 30.267 7.664 32.111 o
10 2 8 0.003 -3.769 4.754 97.283 o
10 2 9 8.053 14.446 7.801 35.528 o
10 2 10 1.396 2.603 4.611 103.291 o
10 2 11 22.281 2.686 5.723 62.401 o
10 2 12 3.408 15.527 11.979 15.265 o
10 3 0 107.538 180.427 17.541 4.564 o
10 3 1 61.187 78.707 10.694 13.796 o
10 3 2 13.935 56.931 9.476 22.486 o
10 3 3 3.828 6.576 5.642 68.604 o
10 3 4 23.334 16.782 6.020 53.996 o
10 3 5 39.790 39.225 8.663 24.229 o
10 3 6 268.129 395.059 53.360 0.577 o
10 3 7 12.559 4.499 6.360 53.089 o
10 3 8 13.164 15.199 5.995 58.089 o
10 3 9 6.389 38.486 8.694 28.010 o
10 3 10 1.195 6.656 7.857 35.574 o
10 4 0 32.138 21.905 12.989 12.425 o
10 4 1 2.294 -3.046 4.424 112.247 o
10 4 2 30.461 56.842 13.928 10.500 o
10 4 3 0.073 9.027 6.464 52.508 o
10 4 4 0.029 8.214 5.793 65.390 o
10 4 5 0.563 -2.945 7.561 38.467 o
10 4 6 1.589 6.826 6.626 49.955 o
10 4 7 2.567 -1.805 7.799 36.136 o
10 4 8 0.432 9.886 6.556 51.019 o
10 4 9 4.355 1.867 4.975 88.411 o
10 5 0 6.570 13.596 7.142 42.448 o
10 5 1 5.273 22.107 9.337 24.887 o
10 5 2 30.943 57.284 14.652 9.541 o
10 5 3 20.296 20.194 8.708 27.506 o
10 5 4 3.338 6.785 10.012 21.895 o
10 5 5 3.329 13.227 7.455 39.258 o
10 5 6 1.148 8.595 4.263 120.148 o
10 5 7 0.318 -7.228 8.080 33.682 o
10 5 8 9.780 41.798 18.423 6.400 o
10 5 9 1.892 5.589 7.996 34.343 o
10 6 0 41.823 63.438 15.656 8.169 o
10 6 1 60.659 89.131 18.520 5.605 o
10 6 2 4.088 0.273 3.830 149.079 o
10 6 3 0.409 -4.115 7.953 34.764 o
10 6 4 30.309 17.302 8.470 28.012 o
10 6 5 4.933 8.765 9.758 23.004 o
10 7 0 4.227 -20.265 12.537 13.984 o
10 7 1 2.943 -2.321 5.568 70.845 o
10 7 2 13.111 27.401 15.088 9.525 o
10 7 3 20.773 39.952 19.308 5.784 o
11 -7 0 4.752 23.336 9.858 22.353 o
11 -7 1 79.209 135.423 23.602 3.367 o
11 -7 2 21.524 13.795 10.828 18.198 o
11 -6 0 0.417 4.785 4.038 134.546 o
11 -6 1 4.062 2.188 8.344 31.534 o
11 -6 2 0.002 -7.864 5.645 69.019 o
11 -5 0 0.019 3.559 5.664 68.528 o
11 -5 1 14.155 47.368 10.566 18.636 o
11 -5 2 6.661 3.490 2.797 270.296 o
11 -5 3 7.509 3.949 4.954 88.155 o
11 -5 4 0.468 16.978 12.255 14.607 o
11 -4 0 1.648 2.360 2.655 310.401 o
11 -4 1 15.261 28.423 5.904 56.783 o
11 -4 2 53.971 68.072 9.627 17.291 o
11 -4 3 75.869 51.587 12.094 11.435 o
11 -4 4 1.666 -4.209 7.192 42.505 o
11 -4 6 2.500 0.990 7.456 39.529 o
11 -3 0 81.977 30.790 5.998 28.106 o
11 -3 1 48.063 51.239 11.166 14.773 o
11 -3 2 1.520 10.916 8.490 30.416 o
11 -3 3 50.065 64.642 9.092 19.478 o
11 -3 4 55.029 35.033 6.490 33.537 o
11 -3 5 9.935 2.999 2.524 316.164 o
11 -3 6 9.048 25.738 7.521 37.460 o
11 -3 7 72.681 95.727 14.214 8.244 o
11 -3 8 21.832 6.281 7.568 36.618 o
11 -3 9 0.977 -23.348 13.742 11.645 o
11 -3 10 3.734 22.402 13.901 11.322 o
11 -2 0 0.442 -0.031 1.325 1251.240 o
11 -2 1 0.548 -1.443 2.160 471.350 o
11 -2 2 23.787 12.321 4.063 107.227 o
11 -2 3 45.584 91.222 15.512 7.921 o
11 -2 4 0.385 -0.085 3.498 179.711 o
11 -2 5 20.552 24.821 6.573 45.767 o
11 -2 6 0.058 2.890 3.326 198.658 o
11 -2 7 70.986 132.053 17.432 5.676 o
11 -2 8 6.518 14.045 10.791 18.755 o
11 -2 9 9.090 40.562 10.256 20.169 o
11 -2 10 0.087 -2.726 3.627 167.194 o
11 -2 11 5.636 18.411 11.898 15.427 o
11 -1 0 132.138 130.646 14.857 5.575 o
11 -1 1 0.017 15.372 5.538 71.082 o
11 -1 2 301.321 382.024 26.252 1.243 o
11 -1 3 28.369 12.358 4.767 78.414 o
11 -1 4 10.499 2.042 4.171 122.252 o
11 -1 5 14.754 -1.322 2.654 274.321 o
11 -1 6 15.617 54.556 14.911 9.539 o
11 -1 7 15.141 12.556 6.732 46.425 o
11 -1 8 0.019 -0.416 2.782 284.047 o
11 -1 9 7.258 4.296 8.547 29.944 o
11 -1 10 0.940 18.444 8.689 28.953 o
11 0 0 0.013 -1.686 3.444 185.378 o
11 0 1 82.104 75.930 11.300 11.458 o
11 0 2 0.062 -2.855 2.966 250.019 o
11 0 3 162.517 93.246 12.900 6.086 o
11 0 4 0.042 0.053 4.207 124.234 o
11 0 5 12.927 12.725 4.723 91.747 o
11 0 6 0.008 3.876 3.060 234.406 o
11 0 7 0.235 -10.837 6.430 53.196 o
11 0 8 0.012 -11.363 6.522 51.698 o
11 0 9 56.538 71.445 16.664 6.968 o
11 0 10 0.061 5.783 6.267 55.941 o
11 1 0 126.874 143.136 15.214 5.405 o
11 1 1 0.024 19.600 6.275 55.246 o
11 1 2 321.268 353.956 27.986 1.164 o
11 1 3 25.319 11.317 4.981 75.608 o
11 1 4 8.883 2.015 2.964 238.442 o
11 1 5 16.992 0.284 3.289 181.330 o
11 1 6 14.127 42.915 9.883 21.286 o
11 1 7 13.058 8.290 4.379 107.281 o
11 1 8 0.001 2.452 9.015 27.058 o
11 1 9 7.135 8.081 8.588 29.593 o
11 1 10 0.748 14.679 10.850 18.633 o
11 2 0 0.111 -2.692 3.338 197.334 o
11 2 1 0.181 0.075 2.653 312.340 o
11 2 2 21.798 1.076 2.837 214.072 o
11 2 3 53.494 80.562 11.818 12.297 o
11 2 4 0.354 2.469 3.979 138.826 o
11 2 5 26.893 23.983 6.925 40.206 o
11 2 6 0.011 1.304 5.156 82.709 o
11 2 7 73.544 112.696 15.416 7.030 o
11 2 8 6.409 25.433 11.419 16.656 o
11 2 9 10.677 46.108 17.837 6.803 o
11 2 10 0.351 -0.191 4.957 89.492 o
11 2 11 5.860 18.910 12.975 12.982 o
11 3 0 80.679 45.892 11.150 12.772 o
11 3 1 45.981 95.832 18.004 6.051 o
11 3 2 1.175 17.302 8.476 30.426 o
11 3 3 47.144 66.413 14.994 8.673 o
11 3 4 47.988 28.715 10.072 18.516 o
11 3 5 9.578 6.446 5.165 80.242 o
11 3 6 7.566 18.396 8.355 30.945 o
11 3 7 64.382 71.776 16.613 6.856 o
11 3 8 29.331 18.364 11.536 15.743 o
11 4 0 1.073 -1.341 5.351 76.794 o
11 4 1 11.109 24.716 9.347 24.482 o
11 4 2 53.287 86.416 17.736 6.176 o
11 4 3 66.533 57.960 14.378 8.890 o
11 4 4 1.418 -4.131 4.583 104.667 o
11 4 5 4.516 -0.869 3.646 164.347 o
11 4 6 1.353 -0.606 4.280 119.970 o
11 4 7 41.476 126.451 29.967 2.323 o
11 4 8 59.094 114.424 30.542 2.214 o
11 5 0 0.268 4.515 5.340 77.054 o
11 5 1 15.337 87.728 17.948 6.511 o
11 5 2 7.441 -4.034 4.562 104.446 o
11 5 3 7.315 12.218 8.747 28.442 o
11 5 4 0.732 -1.026 9.103 26.535 o
11 5 5 4.421 13.995 11.147 17.616 o
11 5 6 0.214 10.755 10.027 21.842 o
11 6 0 1.177 4.194 5.976 61.504 o
11 6 1 3.077 -4.973 4.904 91.278 o
11 6 2 0.056 5.201 7.101 43.585 o
11 6 3 0.967 10.880 8.839 28.079 o
11 7 0 5.763 12.682 11.214 17.396 o
11 7 1 85.245 123.770 32.594 1.898 o
12 -6 0 1.776 3.158 4.218 123.241 o
12 -6 1 3.082 9.696 5.914 62.384 o
12 -6 2 3.567 13.825 8.209 32.401 o
12 -5 0 92.869 117.890 21.340 3.941 o
12 -5 1 0.022 -1.179 3.337 197.495 o
12 -5 2 4.991 30.111 15.471 9.120 o
12 -4 0 3.432 -4.910 3.671 162.579 o
12 -4 1 31.671 24.943 7.162 36.668 o
12 -4 2 7.397 16.442 13.991 11.172 o
12 -4 3 1.675 -12.524 10.871 18.607 o
12 -4 4 4.458 14.407 11.532 16.461 o
12 -3 0 28.752 33.783 10.523 18.324 o
12 -3 1 6.303 0.975 3.130 219.799 o
12 -3 2 4.187 5.067 7.201 42.249 o
12 -3 3 31.363 5.908 7.782 33.412 o
12 -3 4 13.348 57.575 19.259 5.805 o
12 -3 5 25.657 34.570 11.739 15.060 o
12 -3 6 76.416 85.346 17.616 5.888 o
12 -2 0 66.009 100.153 13.947 8.640 o
12 -2 1 23.623 4.336 3.380 152.816 o
12 -2 2 30.479 16.716 4.737 75.400 o
12 -2 3 6.585 2.282 3.168 213.439 o
12 -2 4 16.287 13.587 5.499 67.419 o
12 -2 5 2.679 2.734 6.004 60.890 o
12 -2 6 32.047 29.715 8.758 25.424 o
12 -2 7 33.158 25.803 8.657 26.055 o
12 -2 8 19.616 58.619 14.655 9.755 o
12 -2 9 1.078 -7.472 5.842 64.432 o
12 -1 0 12.241 33.721 18.860 6.117 o
12 -1 1 61.508 112.301 14.691 7.925 o
12 -1 2 47.682 39.326 8.733 22.794 o
12 -1 3 1.624 3.401 3.552 173.607 o
12 -1 4 20.707 14.291 5.427 66.828 o
12 -1 5 3.653 14.165 4.627 100.318 o
12 -1 6 14.573 81.490 21.614 4.574 o
12 -1 7 6.925 20.415 8.938 27.083 o
12 -1 8 9.671 21.119 7.377 39.101 o
12 -1 9 3.114 2.927 11.438 16.796 o
12 0 0 18.278 29.828 7.545 35.566 o
12 0 1 0.000 3.730 3.842 148.829 o
12 0 2 4.123 0.770 2.794 278.371 o
12 0 3 0.008 4.018 2.831 273.751 o
12 0 4 0.484 -6.468 3.867 147.032 o
12 0 5 0.024 -2.145 5.473 73.420 o
12 0 6 0.801 -2.586 10.137 21.402 o
12 0 7 0.089 -12.181 7.088 43.778 o
12 0 8 4.737 22.319 10.157 21.087 o
12 0 9 0.008 4.425 6.082 59.409 o
12 1 0 11.909 41.414 8.585 28.037 o
12 1 1 56.525 118.073 14.809 7.889 o
12 1 2 54.218 48.102 9.632 18.315 o
12 1 3 2.032 -0.516 2.038 527.182 o
12 1 4 19.252 7.429 3.792 131.423 o
12 1 5 4.659 10.311 4.929 88.957 o
12 1 6 14.415 68.271 12.437 13.315 o
12 1 7 6.041 24.763 10.090 21.283 o
12 1 8 7.540 18.857 13.665 11.697 o
12 1 9 4.290 25.338 14.256 10.753 o
12 2 0 77.294 94.222 17.509 5.857 o
12 2 1 22.522 3.340 13.292 12.265 o
12 2 2 28.245 17.306 5.362 63.157 o
12 2 3 9.159 5.684 4.496 105.454 o
12 2 4 16.355 17.248 8.212 31.322 o
12 2 5 2.583 0.217 2.906 259.343 o
12 2 6 30.716 28.784 8.256 28.475 o
12 2 7 27.892 35.626 11.246 16.196 o
12 2 8 18.732 54.038 19.444 5.677 o
12 3 0 27.911 23.151 9.072 24.642 o
12 3 1 6.070 7.855 5.265 78.077 o
12 3 2 4.105 6.720 5.507 71.914 o
12 3 3 33.472 22.894 10.123 19.730 o
12 3 4 11.932 36.697 11.790 15.369 o
12 3 5 26.820 36.701 11.844 14.723 o
12 3 6 73.820 90.998 25.471 3.088 o
12 3 7 17.203 47.669 18.675 6.173 o
12 4 0 2.608 0.410 5.300 78.178 o
12 4 1 32.207 40.118 12.382 13.289 o
12 4 2 6.531 -9.959 8.031 33.997 o
12 4 3 0.291 -0.334 5.239 80.123 o
12 4 4 6.208 20.810 8.888 27.409 o
12 4 5 0.111 5.480 7.099 43.603 o
12 4 6 3.132 20.774 14.110 11.001 o
12 4 7 2.021 7.679 8.896 27.736 o
12 5 0 89.248 110.814 20.754 4.197 o
12 5 1 0.142 12.809 7.596 37.986 o
12 5 2 2.936 16.343 15.277 9.401 o
12 5 3 0.178 -15.996 12.167 14.855 o
12 6 0 1.695 5.889 7.696 37.069 o
13 -5 0 10.269 20.218 12.982 12.908 o
13 -5 1 2.734 5.817 10.627 19.448 o
13 -4 0 6.687 5.517 18.184 6.642 o
13 -4 1 0.741 2.471 9.269 25.593 o
13 -4 2 4.343 27.484 15.767 8.795 o
13 -3 0 0.558 1.026 4.571 105.207 o
13 -3 1 17.199 43.795 9.848 21.189 o
13 -3 2 19.218 24.190 7.358 37.586 o
13 -3 3 9.672 1.507 6.745 47.830 o
13 -3 4 9.537 16.070 7.662 36.601 o
13 -3 5 27.023 24.758 13.355 11.869 o
13 -2 0 0.017 3.586 4.028 135.438 o
13 -2 1 1.543 3.233 2.883 263.118 o
13 -2 2 0.909 6.011 6.565 50.943 o
13 -2 3 4.519 3.204 3.818 149.187 o
13 -2 4 4.469 6.220 7.093 43.488 o
13 -2 5 36.967 89.785 18.314 6.021 o
13 -2 6 7.046 -3.882 6.407 53.276 o
13 -2 7 1.053 24.200 13.969 11.225 o
13 -1 0 0.215 -2.298 5.106 84.362 o
13 -1 1 4.222 0.357 3.472 181.150 o
13 -1 2 0.329 7.811 4.241 121.728 o
13 -1 3 2.443 5.996 5.433 74.175 o
13 -1 4 2.252 8.643 6.002 60.716 o
13 -1 5 16.590 12.347 6.061 56.319 o
13 -1 6 3.388 0.705 5.068 85.398 o
13 -1 7 10.028 43.105 11.685 15.600 o
13 -1 8 50.814 33.995 16.188 7.783 o
13 0 0 0.010 -1.250 2.807 279.195 o
13 0 1 86.127 85.220 13.403 8.676 o
13 0 2 0.034 -0.851 4.031 135.336 o
13 0 3 26.195 55.047 10.728 17.188 o
13 0 4 0.034 4.544 3.421 187.535 o
13 0 5 33.000 57.177 11.489 14.770 o
13 0 6 0.033 -4.810 4.838 93.935 o
13 0 7 34.229 4.865 7.071 39.278 o
13 1 0 0.372 -2.579 4.657 101.400 o
13 1 1 6.098 -0.369 3.836 147.747 o
13 1 2 0.178 7.155 4.064 132.667 o
13 1 3 1.818 11.476 12.333 14.434 o
13 1 4 3.963 8.029 4.141 126.129 o
13 1 5 16.828 19.353 6.785 44.728 o
13 1 6 1.719 -1.534 5.457 73.823 o
13 1 7 9.752 24.212 13.772 11.465 o
13 1 8 48.376 55.859 20.723 4.829 o
13 2 0 0.037 6.074 11.822 15.731 o
13 2 1 1.411 -2.460 3.839 149.149 o
13 2 2 1.775 9.682 7.037 44.234 o
13 2 3 3.075 1.869 11.933 15.434 o
13 2 4 6.033 12.652 7.292 40.839 o
13 2 5 43.231 73.311 23.495 3.789 o
13 2 6 7.420 14.692 11.450 16.652 o
13 3 0 1.209 -8.379 5.960 61.895 o
13 3 1 17.361 39.347 12.231 14.123 o
13 3 2 19.233 37.889 12.126 14.323 o
13 3 3 8.116 23.996 10.414 19.945 o
13 3 4 12.458 33.218 16.300 8.161 o
13 3 5 27.499 32.217 17.861 6.715 o
13 3 6 3.988 36.842 16.998 7.553 o
13 4 0 6.656 7.247 8.801 28.222 o
13 4 1 0.079 -5.741 9.342 25.200 o
13 4 2 3.610 5.440 7.681 37.165 o
13 4 3 2.165 9.214 14.333 10.694 o
14 -3 0 0.602 -5.757 7.236 41.995 o
14 -3 1 17.807 11.050 6.092 55.616 o
14 -3 2 12.037 29.423 14.618 10.140 o
14 -3 3 4.198 -15.657 10.978 18.235 o
14 -2 0 0.539 0.548 5.627 69.444 o
14 -2 1 10.057 0.719 2.873 251.615 o
14 -2 2 3.005 4.154 4.120 128.654 o
14 -2 3 9.161 16.581 7.447 38.711 o
14 -2 4 2.727 22.820 8.843 27.806 o
14 -2 5 11.708 4.660 7.210 41.602 o
14 -1 0 7.283 5.516 4.682 98.285 o
14 -1 1 8.153 1.577 7.769 36.219 o
14 -1 2 0.115 -1.083 3.412 188.897 o
14 -1 3 0.047 -4.111 4.233 122.744 o
14 -1 4 48.772 49.851 13.968 10.027 o
14 -1 5 7.483 17.498 12.576 13.801 o
14 0 0 0.108 -1.096 3.005 243.504 o
14 0 1 0.000 3.309 3.320 199.244 o
14 0 2 15.436 -6.733 5.227 77.474 o
14 0 3 0.031 -11.637 5.628 69.417 o
14 0 4 3.064 -4.521 4.482 109.232 o
14 0 5 0.001 3.265 6.220 56.818 o
14 0 6 0.876 -3.508 6.431 53.159 o
14 1 0 6.010 1.262 4.315 116.853 o
14 1 1 6.704 5.121 11.690 16.047 o
14 1 2 0.003 3.943 6.636 49.911 o
14 1 3 0.027 -4.631 6.663 49.530 o
14 1 4 47.079 39.761 17.363 6.841 o
14 2 0 0.604 2.488 4.026 135.577 o
14 2 1 10.553 -4.711 4.961 87.597 o
14 2 2 3.541 9.454 5.911 62.397 o
14 2 3 7.594 28.149 18.108 6.664 o
14 2 4 2.968 15.075 11.636 16.183 o
14 2 5 14.042 43.156 18.155 6.559 o
14 3 0 0.803 2.124 5.624 69.491 o
14 3 1 18.501 4.244 7.126 41.748 o
14 3 2 9.921 25.821 14.613 10.187 o
14 3 3 2.968 4.161 7.299 41.185 o
15 -3 0 0.043 -1.042 4.013 136.556 o
15 -3 1 1.909 -5.261 7.032 44.458 o
15 -2 0 8.059 8.011 9.954 22.049 o
15 -2 1 12.668 20.505 11.885 15.314 o
15 -2 2 2.503 7.022 5.768 65.784 o
15 -1 0 0.032 1.019 3.303 201.579 o
15 -1 1 11.358 4.055 11.869 15.521 o
15 -1 2 3.668 6.039 7.495 39.013 o
15 -1 3 1.216 25.169 14.120 10.983 o
15 0 0 0.034 5.889 5.513 72.270 o
15 0 1 1.483 -3.150 6.483 52.310 o
15 0 2 0.000 1.724 5.668 68.444 o
15 0 3 0.239 -8.490 8.827 28.226 o
15 1 0 0.090 -3.550 6.722 48.674 o
15 1 1 12.096 8.864 9.395 24.574 o
15 1 2 2.359 1.239 4.704 99.219 o
15 1 3 0.990 21.792 13.459 12.098 o
15 2 0 9.077 -15.099 11.341 17.049 o
15 2 1 13.352 49.449 20.497 5.155 o
;
_olex2_submission_special_instructions 'No special instructions were received'
_oxdiff_exptl_absorpt_empirical_details
;
Empirical correction (ABSPACK) includes:
;
_oxdiff_exptl_absorpt_empirical_full_max 1.145
_oxdiff_exptl_absorpt_empirical_full_min 0.776
loop_
_space_group_symop_id
_space_group_symop_operation_xyz
1 x,y,z
2 -x,-y,-z
loop_
_atom_site_label
_atom_site_type_symbol
_atom_site_fract_x
_atom_site_fract_y
_atom_site_fract_z
_atom_site_U_iso_or_equiv
_atom_site_adp_type
_atom_site_occupancy
_atom_site_refinement_flags_posn
Cl01 Cl 1.0561(2) -0.1519(3) 0.60718(17) 0.0809(8) Uiso 1.000000 .
Cl02 Cl 0.4435(2) 0.3481(3) 0.89313(17) 0.0785(8) Uiso 1.000000 .
O003 O 0.7707(4) 0.9481(6) 0.7595(3) 0.0411(11) Uiso 1.000000 .
O004 O 0.7293(4) 0.4484(6) 0.7399(3) 0.0412(11) Uiso 1.000000 .
O005 O 0.2997(4) 0.7635(6) 0.5123(3) 0.0435(11) Uiso 1.000000 .
O006 O 1.2007(4) 0.2633(6) 0.9876(3) 0.0431(11) Uiso 1.000000 .
O007 O 1.2145(4) 0.5592(7) 1.0173(3) 0.0532(13) Uiso 1.000000 .
O008 O 0.2854(4) 1.0591(7) 0.4828(3) 0.0554(14) Uiso 1.000000 .
N009 N 0.6134(4) 0.7857(7) 0.6888(3) 0.0330(12) Uiso 1.000000 .
N00A N 0.8905(4) 0.6034(7) 0.8158(3) 0.0338(12) Uiso 1.000000 .
N00B N 0.8871(4) 0.2866(7) 0.8119(3) 0.0337(12) Uiso 1.000000 .
N00C N 0.6097(4) 1.1036(7) 0.6843(3) 0.0365(12) Uiso 1.000000 .
C00D C 0.8317(5) 0.4426(8) 0.7866(4) 0.0346(14) Uiso 1.000000 .
C00E C 0.4391(5) 0.7529(8) 0.7280(4) 0.0312(13) Uiso 1.000000 .
C00F C 0.4873(5) 0.7786(8) 0.6539(4) 0.0323(13) Uiso 1.000000 .
C00G C 0.4446(5) 0.9465(7) 0.5985(4) 0.0297(13) Uiso 1.000000 .
C00H C 0.6684(5) 0.9428(8) 0.7138(4) 0.0341(14) Uiso 1.000000 .
C00I C 1.0553(5) 0.4490(8) 0.9008(4) 0.0305(13) Uiso 1.000000 .
C00J C 1.0607(5) 0.2526(8) 0.7727(4) 0.0323(13) Uiso 1.000000 .
C00K C 0.5057(5) 1.1057(8) 0.6183(4) 0.0323(13) Uiso 1.000000 .
C00L C 0.9948(5) 0.6049(8) 0.8823(4) 0.0333(14) Uiso 1.000000 .
C00M C 1.0126(5) 0.2790(8) 0.8468(4) 0.0334(14) Uiso 1.000000 .
C00N C 1.1629(5) 0.4355(8) 0.9735(4) 0.0352(14) Uiso 1.000000 .
C00O C 0.3381(5) 0.9354(8) 0.5266(4) 0.0352(14) Uiso 1.000000 .
C00P C 1.0414(6) 0.0844(9) 0.7286(4) 0.0431(16) Uiso 1.000000 .
C00Q C 0.4586(6) 0.5862(9) 0.7700(4) 0.0410(15) Uiso 1.000000 .
C00R C 0.4741(6) 1.2850(9) 0.5753(4) 0.0454(17) Uiso 1.000000 .
C00S C 1.0262(6) 0.7857(10) 0.9254(5) 0.0474(17) Uiso 1.000000 .
C00T C 0.3773(6) 0.8871(10) 0.7515(5) 0.0475(17) Uiso 1.000000 .
C00U C 1.1228(6) 0.3872(10) 0.7484(5) 0.0479(17) Uiso 1.000000 .
C00V C 1.0831(6) 0.0583(10) 0.6608(5) 0.0479(17) Uiso 1.000000 .
C00W C 1.3070(6) 0.2355(10) 1.0596(5) 0.0473(17) Uiso 1.000000 .
C00X C 1.1445(7) 0.1909(10) 0.6357(5) 0.0521(18) Uiso 1.000000 .
C00Y C 0.1936(6) 0.7368(9) 0.4409(5) 0.0452(17) Uiso 1.000000 .
C00Z C 0.4177(6) 0.5590(10) 0.8385(5) 0.0473(17) Uiso 1.000000 .
C010 C 0.3552(7) 0.6915(11) 0.8635(5) 0.056(2) Uiso 1.000000 .
C011 C 0.3354(6) 0.8545(10) 0.8218(5) 0.0500(18) Uiso 1.000000 .
C012 C 1.1644(6) 0.3545(10) 0.6780(5) 0.0496(18) Uiso 1.000000 .
C013 C 0.1657(8) 0.5346(12) 0.4411(6) 0.070(2) Uiso 1.000000 .
C014 C 1.3342(8) 0.0338(13) 1.0587(6) 0.074(3) Uiso 1.000000 .
loop_
_geom_angle_atom_site_label_1
_geom_angle_atom_site_label_2
_geom_angle_atom_site_label_3
_geom_angle
_geom_angle_site_symmetry_1
_geom_angle_site_symmetry_3
_geom_angle_publ_flag
C00Y O005 C00O 116.4(5) . . ?
C00W O006 C00N 116.3(5) . . ?
C00H N009 C00F 121.5(5) . . ?
C00L N00A C00D 122.0(5) . . ?
C00M N00B C00D 122.0(5) . . ?
C00K N00C C00H 122.2(5) . . ?
N00A C00D O004 120.0(5) . . ?
N00B C00D O004 122.7(5) . . ?
N00B C00D N00A 117.3(5) . . ?
C00Q C00E C00F 116.7(5) . . ?
C00T C00E C00F 122.1(6) . . ?
C00T C00E C00Q 121.1(6) . . ?
C00E C00F N009 109.9(5) . . ?
C00G C00F N009 108.9(5) . . ?
C00G C00F C00E 114.8(5) . . ?
C00K C00G C00F 119.2(5) . . ?
C00O C00G C00F 119.1(5) . . ?
C00O C00G C00K 121.8(5) . . ?
N009 C00H O003 122.2(5) . . ?
N00C C00H O003 120.1(5) . . ?
N00C C00H N009 117.7(5) . . ?
C00M C00I C00L 119.9(5) . . ?
C00N C00I C00L 122.3(5) . . ?
C00N C00I C00M 117.9(5) . . ?
C00P C00J C00M 118.0(5) . . ?
C00U C00J C00M 122.3(6) . . ?
C00U C00J C00P 119.7(6) . . ?
C00G C00K N00C 118.7(5) . . ?
C00R C00K N00C 114.5(5) . . ?
C00R C00K C00G 126.8(5) . . ?
C00I C00L N00A 118.7(5) . . ?
C00S C00L N00A 114.2(5) . . ?
C00S C00L C00I 127.1(6) . . ?
C00I C00M N00B 108.7(5) . . ?
C00J C00M N00B 109.7(5) . . ?
C00J C00M C00I 114.1(5) . . ?
O007 C00N O006 121.0(6) . . ?
C00I C00N O006 112.2(5) . . ?
C00I C00N O007 126.8(6) . . ?
O008 C00O O005 120.3(6) . . ?
C00G C00O O005 111.9(5) . . ?
C00G C00O O008 127.8(6) . . ?
C00V C00P C00J 118.9(6) . . ?
C00Z C00Q C00E 118.4(6) . . ?
C011 C00T C00E 119.2(6) . . ?
C012 C00U C00J 119.5(6) . . ?
C00P C00V Cl01 117.5(5) . . ?
C00X C00V Cl01 120.5(6) . . ?
C00X C00V C00P 122.1(7) . . ?
C014 C00W O006 105.9(6) . . ?
C012 C00X C00V 119.7(7) . . ?
C013 C00Y O005 106.1(6) . . ?
C00Q C00Z Cl02 118.6(6) . . ?
C010 C00Z Cl02 119.6(6) . . ?
C010 C00Z C00Q 121.7(7) . . ?
C011 C010 C00Z 119.8(7) . . ?
C010 C011 C00T 119.7(7) . . ?
C00X C012 C00U 120.0(7) . . ?
loop_
_geom_bond_atom_site_label_1
_geom_bond_atom_site_label_2
_geom_bond_distance
_geom_bond_site_symmetry_2
_geom_bond_publ_flag
Cl01 C00V 1.741(8) . ?
Cl02 C00Z 1.753(7) . ?
O003 C00H 1.250(7) . ?
O004 C00D 1.255(7) . ?
O005 C00O 1.335(7) . ?
O005 C00Y 1.461(8) . ?
O006 C00N 1.335(7) . ?
O006 C00W 1.469(8) . ?
O007 C00N 1.199(7) . ?
O008 C00O 1.203(7) . ?
N009 C00F 1.487(8) . ?
N009 C00H 1.328(7) . ?
N00A C00D 1.382(8) . ?
N00A C00L 1.394(7) . ?
N00B C00D 1.325(8) . ?
N00B C00M 1.480(8) . ?
N00C C00H 1.383(8) . ?
N00C C00K 1.388(8) . ?
C00E C00F 1.520(9) . ?
C00E C00Q 1.377(9) . ?
C00E C00T 1.372(9) . ?
C00F C00G 1.510(8) . ?
C00G C00K 1.368(8) . ?
C00G C00O 1.457(8) . ?
C00I C00L 1.343(8) . ?
C00I C00M 1.512(8) . ?
C00I C00N 1.473(8) . ?
C00J C00M 1.520(9) . ?
C00J C00P 1.401(9) . ?
C00J C00U 1.383(9) . ?
C00K C00R 1.474(9) . ?
C00L C00S 1.484(9) . ?
C00P C00V 1.374(10) . ?
C00Q C00Z 1.380(10) . ?
C00T C011 1.422(10) . ?
C00U C012 1.420(10) . ?
C00V C00X 1.373(10) . ?
C00W C014 1.511(12) . ?
C00X C012 1.359(10) . ?
C00Y C013 1.515(11) . ?
C00Z C010 1.381(11) . ?
C010 C011 1.351(10) . ?
