#------------------------------------------------------------------------------
#$Date: 2021-02-05 01:28:28 +0200 (Fri, 05 Feb 2021) $
#$Revision: 261745 $
#$URL: file:///home/coder/svn-repositories/cod/cif/7/06/01/7060136.cif $
#------------------------------------------------------------------------------
#
# This file is available in the Crystallography Open Database (COD),
# http://www.crystallography.net/
#
# All data on this site have been placed in the public domain by the
# contributors.
#
data_7060136
loop_
_publ_author_name
'Rungta, Pallavi'
'Kumar, Manish'
'Mangla, Priyanka'
'Kumar, Sandeep'
'Prasad, Ashok K.'
_publ_section_title
;
 Chemo-enzymatic access to
 C-4&#x2032;-hydroxyl-tetrahydrofurano-spironucleosides
;
_journal_issue                   3
_journal_name_full               'New Journal of Chemistry'
_journal_page_first              1609
_journal_page_last               1616
_journal_paper_doi               10.1039/D0NJ03253K
_journal_volume                  45
_journal_year                    2021
_chemical_formula_sum            'C11 H14 N6 O5'
_chemical_formula_weight         310.28
_space_group_crystal_system      monoclinic
_space_group_IT_number           4
_space_group_name_Hall           'P 2yb'
_space_group_name_H-M_alt        'P 1 21 1'
_atom_sites_solution_hydrogens   geom
_audit_creation_method           SHELXL-2014/7
_audit_update_record
;
2020-05-16 deposited with the CCDC.	2020-12-09 downloaded from the CCDC.
;
_cell_angle_alpha                90
_cell_angle_beta                 91.88(4)
_cell_angle_gamma                90
_cell_formula_units_Z            2
_cell_length_a                   6.820(2)
_cell_length_b                   6.612(3)
_cell_length_c                   14.279(6)
_cell_measurement_temperature    293(2)
_cell_volume                     643.5(4)
_computing_structure_refinement  'SHELXL-2014/7 (Sheldrick, 2014)'
_diffrn_ambient_temperature      293(2)
_diffrn_measured_fraction_theta_full 0.998
_diffrn_measured_fraction_theta_max 0.998
_diffrn_radiation_type           MoK\a
_diffrn_radiation_wavelength     0.71073
_diffrn_reflns_av_R_equivalents  0.1170
_diffrn_reflns_av_unetI/netI     0.1606
_diffrn_reflns_Laue_measured_fraction_full 0.998
_diffrn_reflns_Laue_measured_fraction_max 0.998
_diffrn_reflns_limit_h_max       8
_diffrn_reflns_limit_h_min       -8
_diffrn_reflns_limit_k_max       7
_diffrn_reflns_limit_k_min       -7
_diffrn_reflns_limit_l_max       16
_diffrn_reflns_limit_l_min       -16
_diffrn_reflns_number            7538
_diffrn_reflns_point_group_measured_fraction_full 0.999
_diffrn_reflns_point_group_measured_fraction_max 0.999
_diffrn_reflns_theta_full        24.999
_diffrn_reflns_theta_max         24.999
_diffrn_reflns_theta_min         2.989
_exptl_absorpt_coefficient_mu    0.129
_exptl_crystal_density_diffrn    1.601
_exptl_crystal_F_000             324
_refine_diff_density_max         0.210
_refine_diff_density_min         -0.236
_refine_diff_density_rms         0.057
_refine_ls_abs_structure_details
;
 Flack x determined using 216 quotients [(I+)-(I-)]/[(I+)+(I-)]
 (Parsons, Flack and Wagner, Acta Cryst. B69 (2013) 249-259).
;
_refine_ls_abs_structure_Flack   4.7(10)
_refine_ls_extinction_coef       0.033(11)
_refine_ls_extinction_expression Fc^*^=kFc[1+0.001xFc^2^\l^3^/sin(2\q)]^-1/4^
_refine_ls_extinction_method     'SHELXL-2014/7 (Sheldrick 2014'
_refine_ls_goodness_of_fit_ref   0.983
_refine_ls_hydrogen_treatment    constr
_refine_ls_matrix_type           full
_refine_ls_number_parameters     200
_refine_ls_number_reflns         2249
_refine_ls_number_restraints     1
_refine_ls_restrained_S_all      0.983
_refine_ls_R_factor_all          0.1788
_refine_ls_R_factor_gt           0.0822
_refine_ls_shift/su_max          0.000
_refine_ls_shift/su_mean         0.000
_refine_ls_structure_factor_coef Fsqd
_refine_ls_weighting_details
'w=1/[\s^2^(Fo^2^)+(0.0605P)^2^] where P=(Fo^2^+2Fc^2^)/3'
_refine_ls_weighting_scheme      calc
_refine_ls_wR_factor_gt          0.1540
_refine_ls_wR_factor_ref         0.2046
_reflns_Friedel_coverage         0.825
_reflns_Friedel_fraction_full    1.000
_reflns_Friedel_fraction_max     1.000
_reflns_number_gt                995
_reflns_number_total             2249
_reflns_threshold_expression     'I > 2\s(I)'
_cod_data_source_file            d0nj03253k2.cif
_cod_data_source_block           shelx
_cod_depositor_comments          'Adding full bibliography for 7060136.cif.'
_cod_original_cell_volume        643.4(5)
_cod_original_sg_symbol_H-M      'P 21'
_cod_database_code               7060136
_shelx_shelxl_version_number     2014/7
_shelx_space_group_comment
;
The symmetry employed for this shelxl refinement is uniquely defined
by the following loop, which should always be used as a source of
symmetry information in preference to the above space-group names.
They are only intended as comments.
;
_shelx_res_file
;

    shelx.res created by SHELXL-2014/7

TITL PR2-43 A in P2(1)
CELL  0.71073   6.8195   6.6115  14.2789   90.000   91.883   90.000
ZERR     2.00   0.0024   0.0033   0.0055    0.000    0.038    0.000
LATT  -1
SYMM  - X, 1/2 + Y, - Z
SFAC  C    H    N    O
UNIT  22 28 12 10
MERG   2
OMIT     0.00  50.00
FMAP   2
PLAN   20
ACTA
BOND   $H
L.S.  10
WGHT    0.060500
EXTI    0.032644
FVAR      10.70862
C1    1    0.934603    0.354933    0.438736    11.00000    0.04509    0.04266 =
         0.04629    0.00017    0.01227    0.00157
C2    1    1.009097    0.363474    0.532732    11.00000    0.02840    0.06016 =
         0.05389    0.00616    0.00132   -0.00066
AFIX  43
H2    2    1.142033    0.381284    0.546963    11.00000   -1.20000
AFIX   0
C3    1    0.878730    0.344666    0.599092    11.00000    0.03738    0.05384 =
         0.04211   -0.01397    0.00868    0.00919
AFIX  43
H3    2    0.922730    0.341524    0.661417    11.00000   -1.20000
AFIX   0
C4    1    0.613941    0.331453    0.485799    11.00000    0.03493    0.05834 =
         0.04330   -0.00278    0.00628    0.00281
C5    1    0.546287    0.318816    0.654220    11.00000    0.03296    0.06450 =
         0.03387    0.01154    0.00619   -0.00258
AFIX  13
H5    2    0.415175    0.292881    0.626677    11.00000   -1.20000
AFIX   0
C6    1    0.533114    0.497680    0.719396    11.00000    0.06561    0.05781 =
         0.05636   -0.00667    0.00916    0.00995
AFIX  13
H6    2    0.611782    0.610682    0.696908    11.00000   -1.20000
AFIX   0
C7    1    0.611151    0.426051    0.813308    11.00000    0.04226    0.08360 =
         0.04939   -0.01473    0.00163   -0.00739
AFIX  13
H7    2    0.547203    0.491962    0.865665    11.00000   -1.20000
AFIX   0
C8    1    0.567383    0.199024    0.807359    11.00000    0.06159    0.07568 =
         0.04097   -0.00416   -0.00049    0.01633
C9    1    0.687820    0.052864    0.872977    11.00000    0.09167    0.14090 =
         0.05378    0.01616    0.00820    0.04562
AFIX  23
H9A   2    0.787922   -0.014612    0.837731    11.00000   -1.20000
H9B   2    0.752268    0.129121    0.923199    11.00000   -1.20000
AFIX   0
C10   1    0.388871    0.004669    0.911927    11.00000    0.11415    0.18597 =
         0.08059    0.05159   -0.01775   -0.05918
AFIX  23
H10A  2    0.377114    0.076357    0.970747    11.00000   -1.20000
H10B  2    0.291465   -0.102272    0.909338    11.00000   -1.20000
AFIX   0
C11   1    0.354485    0.145217    0.832947    11.00000    0.06433    0.06989 =
         0.05460   -0.01112    0.00099    0.00510
AFIX  13
H11   2    0.287954    0.266773    0.855013    11.00000   -1.20000
AFIX   0
N1    3    1.061300    0.365814    0.368435    11.00000    0.04043    0.08031 =
         0.04757    0.00287    0.00848    0.00230
AFIX  93
H1A   2    1.018086    0.365508    0.311171    11.00000   -1.20000
H1B   2    1.185362    0.373064    0.380839    11.00000   -1.20000
AFIX   0
N2    3    0.745637    0.343985    0.417573    11.00000    0.01951    0.07343 =
         0.04606   -0.00268    0.00302   -0.00019
N3    3    0.682836    0.329813    0.579093    11.00000    0.02732    0.05018 =
         0.04069   -0.00427    0.00202   -0.00095
N4    3    0.827028    0.447558    0.818390    11.00000    0.05274    0.16499 =
         0.08507   -0.05486   -0.00052   -0.01551
N5    3    0.900884    0.548222    0.873893    11.00000    0.06185    0.09458 =
         0.07972    0.00949   -0.00510    0.00081
N6    3    0.986372    0.640232    0.926392    11.00000    0.09926    0.20568 =
         0.19374   -0.07055   -0.04783   -0.02497
O1    4    0.336860    0.557685    0.729414    11.00000    0.07778    0.10121 =
         0.05899    0.01122    0.01769    0.03845
AFIX  83
H1    2    0.291979    0.599007    0.678982    11.00000   -1.50000
AFIX   0
O2    4    0.436736    0.321599    0.468953    11.00000    0.02698    0.09894 =
         0.05375   -0.01022    0.00100   -0.00339
O3    4    0.602233    0.147071    0.712577    11.00000    0.05026    0.06661 =
         0.04179   -0.00538    0.00388    0.00442
O4    4    0.244170    0.057468    0.763373    11.00000    0.07271    0.21646 =
         0.07388    0.00849    0.00660   -0.04991
AFIX  83
H4    2    0.277301    0.101528    0.712594    11.00000   -1.50000
AFIX   0
O5    4    0.573593   -0.077120    0.906958    11.00000    0.14272    0.16611 =
         0.22311    0.12427   -0.04726   -0.02998
HKLF    4

REM  PR2-43 A in P2(1)
REM R1 =  0.0822 for     995 Fo > 4sig(Fo)  and  0.1788 for all    2249 data
REM    200 parameters refined using      1 restraints

END

WGHT      0.0604      0.0000

REM Highest difference peak  0.210,  deepest hole -0.236,  1-sigma level  0.057
Q1    1   0.8261  0.3472  0.5128  11.00000  0.05    0.21
Q2    1   0.5469  0.0741  0.9532  11.00000  0.05    0.21
Q3    1   0.0685  0.0248  0.7729  11.00000  0.05    0.21
Q4    1   1.1787  0.3299  0.5885  11.00000  0.05    0.21
Q5    1   0.0494  0.0725  0.7613  11.00000  0.05    0.20
Q6    1   1.2769  0.3228  0.4009  11.00000  0.05    0.20
Q7    1   0.9061  0.2229  0.6843  11.00000  0.05    0.18
Q8    1   0.4997  0.8161  0.6983  11.00000  0.05    0.18
Q9    1   0.2454 -0.0795  0.9582  11.00000  0.05    0.18
Q10   1   0.6674  0.3468  0.3238  11.00000  0.05    0.18
Q11   1   0.8478  0.3627  0.3416  11.00000  0.05    0.17
Q12   1   1.0263  0.0589  0.9233  11.00000  0.05    0.17
Q13   1   1.0387  0.4982  0.9340  11.00000  0.05    0.17
Q14   1   0.2414  0.4969  0.8366  11.00000  0.05    0.16
Q15   1   0.1898  0.1468  0.8310  11.00000  0.05    0.16
Q16   1   0.8943  0.4676  0.6913  11.00000  0.05    0.16
Q17   1   0.3599  0.3475  0.6149  11.00000  0.05    0.16
Q18   1   1.2275  0.5945  0.9367  11.00000  0.05    0.16
Q19   1   1.0595  0.1862  0.4894  11.00000  0.05    0.16
Q20   1   0.5178  0.0902  1.0473  11.00000  0.05    0.16
;
_shelx_res_checksum              72643
_shelx_hkl_file
;
   0  -8   0 2217.85 2129.86   9
   0  -8  -1-756.153 1256.12   6
   0  -8  -1 3095.43 2510.45   9
   0  -8   1-1546.65 1781.01   9
   0  -8  -2 1854.69 1934.88   9
   0  -8   2 188.682 623.802   9
   0  -8  -2 3367.67 2735.92   6
   0  -8   3-160.322 575.392   9
   0  -8  -3 3042.06 2465.53   9
   0  -8  -3 849.278 1417.27   6
   0  -8  -4-622.414 1250.71   6
   0  -8  -4-1264.92 1581.70   9
   0  -8   4 2183.81 2127.24   9
   0  -8  -5 51.8832 579.358   6
   0  -8   5 757.336 1261.00   9
   0  -8  -6 101.834 535.410   6
   0  -8  -7 181.609 733.870   6
   0  -7   0-1182.10 1422.19   9
   0  -7   0 682.683 1083.51   6
   0  -7   1 1329.51 1460.86   6
   0  -7  -1 1073.95 1407.18   6
   0  -7   1-1039.10 1335.84   9
   0  -7  -1 327.728 954.912   9
   0  -7  -2-530.183 944.208   9
   0  -7  -2 580.604 1071.15   6
   0  -7   2 1389.61 1547.15   9
   0  -7   3 2121.20 1921.66   9
   0  -7  -3-963.917 1267.42   9
   0  -7  -3-1575.10 1824.56   6
   0  -7   4-533.324 967.298   9
   0  -7  -4 149.339 579.230   6
   0  -7  -4-1821.03 1736.62   9
   0  -7   4-402.967 858.742   1
   0  -7   5 4.91072 93.3967   9
   0  -7   5-1395.97 1679.04   1
   0  -7  -6 644.011 1275.78   6
   0  -7   6 1884.31 2040.12   1
   0  -7   6-646.083 1081.60   9
   0  -7   7 1338.95 1605.20   9
   0  -7  -7 428.659 1069.33   6
   0  -7   7 702.800 1298.69   1
   0  -7   8 1325.05 1854.08   1
   0  -7  -8 2529.81 2665.34   6
   0  -7   8-1172.69 1495.34   9
   0  -7  -9 343.697 1006.95   6
   0  -7   9 1194.18 1826.59   1
   0  -7   9 1278.44 1586.98   9
   0  -7  10 3089.96 2511.73   9
   0  -7 -10 1357.59 2049.72   6
   0  -7  10-3616.66 3294.01   1
   0  -7  11 945.394 1743.19   1
   0  -6   0 12164.6 4255.39   6
   0  -6   0 20403.2 4615.10   1
   0  -6   0 19135.8 5251.15   9
   0  -6   1 15537.0 4736.87   9
   0  -6  -1 16942.5 5220.03   6
   0  -6  -1 11604.3 3116.45   1
   0  -6   1 12598.7 3832.74   1
   0  -6  -1 13028.0 3519.68   5
   0  -6   1 15927.7 4900.66   6
   0  -6  -1 11789.6 4162.45   9
   0  -6   2 1256.22 1301.06   1
   0  -6   2 212.514 550.850   9
   0  -6   2 2580.60 1811.43   6
   0  -6  -2 1055.42 1209.50   9
   0  -6  -2 962.530 938.179   5
   0  -6  -2 3228.80 2364.45   6
   0  -6   3 500.347 849.014   9
   0  -6  -3 476.870 940.990   6
   0  -6   3 829.896 1125.58   1
   0  -6  -3 2286.66 1775.32   9
   0  -6  -3 1423.13 1139.89   5
   0  -6   3 391.645 678.451   6
   0  -6   4-586.557 1000.28   1
   0  -6  -4 962.721 949.301   5
   0  -6  -4 2705.20 2316.39   6
   0  -6   4-984.486 1200.34   9
   0  -6  -4 1142.31 1252.74   9
   0  -6  -5-1730.93 1911.58   6
   0  -6   5 894.083 1155.76   9
   0  -6  -5 995.719 997.926   5
   0  -6   5 1271.58 1549.04   1
   0  -6   6 4235.32 2962.33   1
   0  -6  -6 507.088 1065.73   6
   0  -6   7-138.082 558.887   1
   0  -6  -7 1983.38 2168.18   6
   0  -6  -8 3202.18 2831.22   6
   0  -6   8 2348.30 2402.96   1
   0  -6   9 1467.42 1973.47   1
   0  -6  -9 1145.86 1739.27   6
   0  -6 -10 2478.23 2625.58   6
   0  -6  10-406.720 1079.92   1
   0  -6  11-197.992 782.335   1
   0  -6 -11 259.637 872.130   6
   0  -6 -12-2343.77 2688.79   6
   0  -6  12 862.850 1694.21   1
   0  -5   0 73.6807 247.653   5
   0  -5   0 292.282 505.065   1
   0  -5   0 600.915 828.728   9
   0  -5   0-886.946 1055.19   6
   0  -5  -1 5165.82 2041.52   5
   0  -5   1 4993.26 2393.71   9
   0  -5   1 4234.71 2203.53   6
   0  -5  -1 6082.75 2677.76   9
   0  -5  -1 7923.33 3272.88   6
   0  -5  -1 5229.12 1915.22   1
   0  -5   1 11150.3 3429.16   1
   0  -5  -2 1993.91 1706.94   6
   0  -5  -2 4016.09 1445.08   1
   0  -5  -2 4335.88 2378.02   9
   0  -5   2 2448.86 1685.51   9
   0  -5  -2 3316.70 1531.35   5
   0  -5   2 2420.42 1587.13   6
   0  -5   2 3634.03 2096.34   1
   0  -5  -3 1965.89 774.099   1
   0  -5  -3 549.353 784.347   9
   0  -5   3 2381.45 1676.66   9
   0  -5  -3 95.3130 387.108   6
   0  -5  -3 1668.05 1151.45   5
   0  -5   3 3441.12 1790.37   6
   0  -5   3 1312.02 1345.60   1
   0  -5   4 7573.40 3373.36   1
   0  -5  -4 5572.05 2496.15   9
   0  -5   4 12629.3 3344.66   6
   0  -5  -4 7976.14 3666.22   6
   0  -5  -4 5898.75 2216.27   5
   0  -5  -5 2023.88 1908.99   6
   0  -5  -5 132.349 352.121   5
   0  -5   5 143.758 499.298   1
   0  -5  -6 5407.37 2367.28   5
   0  -5  -6 1755.58 2558.54   6
   0  -5   6 3310.82 2472.17   1
   0  -5  -7 6527.76 3651.01   6
   0  -5   7 9439.25 4650.21   1
   0  -5  -7 6740.06 2774.47   5
   0  -5  -8 1299.89 1284.96   5
   0  -5  -8 3792.46 2868.60   6
   0  -5   8 3034.00 2641.35   1
   0  -5  -9-888.482 1121.90   5
   0  -5  -9-3011.84 2633.99   6
   0  -5   9-451.309 1063.99   1
   0  -5 -10 2131.51 2293.13   6
   0  -5  10 3083.10 2899.93   1
   0  -5 -10 1550.70 1566.13   5
   0  -5  11 1831.09 2323.14   1
   0  -5 -11 1785.84 2161.76   6
   0  -5 -11-313.683 743.661   5
   0  -5 -12 99.7893 526.233   6
   0  -5 -12-592.276 1075.29   5
   0  -5  13 2558.44 2968.73   1
   0  -5 -13 3928.13 3399.61   6
   0  -5 -13 1575.89 1837.05   5
   0  -5  14 31.0520 339.596   1
   0  -5 -14-830.597 1609.39   6
   0  -4   0 111211. 9230.90   1
   0  -4   0 123036. 11280.5   6
   0  -4   0 109395. 8850.96   5
   0  -4   0 121797. 10642.1   9
   0  -4   1 85045.0 8993.71   9
   0  -4   1 99123.3 9434.33   1
   0  -4  -1 91598.6 9153.92   9
   0  -4  -1 88157.2 7724.14   5
   0  -4  -1 99629.8 10638.2   6
   0  -4  -1 90426.7 7233.53   1
   0  -4   1 94281.8 9263.11   6
   0  -4  -2 26790.7 3382.02   1
   0  -4  -2 29453.8 6034.46   6
   0  -4   2 35705.3 5416.85   6
   0  -4  -2 28700.7 4391.05   5
   0  -4   2 25462.0 5222.51   1
   0  -4  -2 32831.4 5522.85   9
   0  -4  -3 1317.50 657.437   1
   0  -4  -3 912.944 894.859   9
   0  -4   3 904.428 787.592   6
   0  -4  -3 1937.74 1151.63   5
   0  -4  -3 2455.38 1973.91   6
   0  -4   3 1755.97 1841.38   1
   0  -4  -4 5269.55 2642.51   6
   0  -4   4 3243.84 1373.62   6
   0  -4   4 2724.20 1912.00   1
   0  -4  -4 2326.22 1321.93   5
   0  -4  -4 1727.00 1362.43   9
   0  -4  -5 2488.38 1923.95   6
   0  -4  -5 2919.81 1688.02   5
   0  -4   5 1420.94 1485.30   1
   0  -4  -6 6419.90 2656.60   5
   0  -4   6 7079.50 3523.61   1
   0  -4  -6 4701.19 2755.35   6
   0  -4  -7 3090.26 840.919   1
   0  -4   7 6150.90 3444.85   1
   0  -4  -7 4793.80 2883.87   6
   0  -4  -7 3559.69 903.240   2
   0  -4  -7 4864.10 2268.77   5
   0  -4  -8 12152.1 4211.61   5
   0  -4  -8 11337.3 2143.16   2
   0  -4   8 11591.5 4953.06   1
   0  -4  -8 6140.03 1516.12   1
   0  -4  -8 8175.62 4098.26   6
   0  -4   9 6589.59 3913.38   1
   0  -4  -9 1556.19 1762.54   6
   0  -4  -9 2351.84 1912.08   5
   0  -4  -9 1228.42 853.977   2
   0  -4  10 5793.32 3837.13   1
   0  -4 -10 6515.37 3388.40   5
   0  -4 -10 3006.90 2536.03   6
   0  -4 -11 8731.38 4471.59   6
   0  -4  11 11161.7 5560.20   1
   0  -4 -11 13252.9 5094.95   5
   0  -4  12 1312.25 1983.90   1
   0  -4 -12 2779.26 2621.40   6
   0  -4 -13-116.899 555.738   6
   0  -4  13 1848.78 2452.02   1
   0  -4 -14 1928.69 2331.84   6
   0  -4  14-2267.98 2825.13   1
   0  -4  15 369.136 1182.64   1
   0  -4 -15-3600.37 1215.27   6
   0  -4 -16 623.602 1413.39   6
   0  -3   0 67.9168 212.904   9
   0  -3   0-60.9517 179.108   5
   0  -3   0 566.010 788.944   1
   0  -3   0 23.8552 131.218   6
   0  -3  -1 56584.9 6901.75   6
   0  -3   1 54902.5 6033.30   6
   0  -3   1 50720.4 5543.79   5
   0  -3  -1 50088.9 5881.83   9
   0  -3  -1 55521.5 5343.91   5
   0  -3  -1 45578.1 4551.16   1
   0  -3   1 47230.0 5916.92   1
   0  -3   2 3235.06 1450.74   6
   0  -3  -2 4979.90 2154.74   6
   0  -3  -2 4404.91 1693.69   9
   0  -3  -2 5232.77 1227.42   1
   0  -3  -2 4708.76 1566.30   5
   0  -3   2 6087.34 2207.71   1
   0  -3  -3 40054.3 4766.78   5
   0  -3  -3 35107.6 4916.61   9
   0  -3  -3 38785.4 6354.33   6
   0  -3   3 32999.4 3896.31   6
   0  -3   3 37576.1 6238.52   1
   0  -3   4 26464.3 5637.94   1
   0  -3   4 26021.6 3647.47   6
   0  -3  -4 30720.6 4623.04   5
   0  -3  -4 28844.3 2469.56   1
   0  -3  -4 35690.9 6378.06   6
   0  -3  -5 445.196 730.706   6
   0  -3  -5 1139.47 571.097   1
   0  -3  -5 873.921 468.637   2
   0  -3  -5 599.885 712.582   5
   0  -3  -6 22368.0 5580.36   6
   0  -3  -6 24537.3 3284.30   2
   0  -3  -6 31086.2 5840.89   5
   0  -3  -6 20713.0 2900.00   1
   0  -3   6 28503.0 6632.87   1
   0  -3   7 19645.9 5866.88   1
   0  -3  -7 15986.9 2949.82   1
   0  -3  -7 15938.4 4823.97   6
   0  -3  -8 2994.30 1412.42   1
   0  -3   8 7806.17 3855.61   1
   0  -3  -8 4217.43 2560.52   6
   0  -3  -9-803.861 801.343   1
   0  -3  -9-708.198 1098.44   6
   0  -3 -10 9148.11 4244.43   6
   0  -3  10 11754.2 5211.84   1
   0  -3 -11 7558.33 3929.93   6
   0  -3  11 7276.46 4381.74   1
   0  -3  12 8488.04 4830.78   1
   0  -3 -12 5344.51 3394.92   6
   0  -3  13 5009.34 3871.22   1
   0  -3 -13 3016.34 2658.12   6
   0  -3  14 1864.20 2460.96   1
   0  -3 -14 862.358 1472.10   6
   0  -3  15-828.762 1705.72   1
   0  -3 -15 893.844 1549.68   6
   0  -3 -16-1994.24 2392.84   6
   0  -3  16 2073.15 2806.75   1
   0  -3 -17 2267.26 2629.02   6
   0  -3 -18-676.235 1477.24   6
   0  -2   0 168656. 8101.28   1
   0  -2   0 177275. 9204.12   6
   0  -2   0 174044. 9196.17   9
   0  -2   0 183377. 8131.29   5
   0  -2   1 767455. 18351.0   5
   0  -2  -1 730084. 23032.0   8
   0  -2  -1 751232. 20884.3   6
   0  -2   1 731885. 19938.0   1
   0  -2  -1 755668. 18524.2   9
   0  -2  -1 746639. 16264.0   5
   0  -2   1 778663. 17393.9   6
   0  -2  -1 770733. 14116.7   1
   0  -2  -2 414088. 13483.5   9
   0  -2  -2 394387. 16402.1   8
   0  -2   2 378062. 10826.8   6
   0  -2   2 391941. 16558.1   1
   0  -2  -2 400814. 16426.1   6
   0  -2  -2 403336. 12338.3   5
   0  -2  -3 18109.8 2838.51   9
   0  -2  -3 19378.8 3862.84   6
   0  -2  -3 19782.5 2059.96   1
   0  -2  -3 16097.0 1737.94   2
   0  -2  -3 20629.7 3512.94   5
   0  -2  -3 22015.5 4023.58   8
   0  -2   3 20419.3 4156.33   1
   0  -2   4 48854.4 6227.77   3
   0  -2   4 50307.7 7171.28   1
   0  -2  -4 49955.4 6260.52   8
   0  -2  -4 54126.7 4094.22   1
   0  -2  -4 53567.6 6792.27   6
   0  -2  -5 75504.0 5791.05   1
   0  -2   5 97141.9 10722.8   1
   0  -2  -5 86606.5 9093.63   6
   0  -2  -5 79700.0 8315.32   8
   0  -2   6 12643.6 3700.22   7
   0  -2  -6 12170.4 3586.78   6
   0  -2  -6 14196.4 2904.89   1
   0  -2   6 16941.8 4750.84   1
   0  -2   7 6801.96 2823.81   7
   0  -2  -7 8526.91 2513.72   1
   0  -2  -7 10378.1 3535.60   6
   0  -2   7 13798.7 4590.31   1
   0  -2   8 9123.96 3899.60   1
   0  -2  -8 6812.84 2421.15   1
   0  -2   8 4403.38 2391.59   7
   0  -2  -8 6220.44 2827.50   6
   0  -2   9 5191.49 2825.57   7
   0  -2   9 6234.42 3399.96   1
   0  -2  -9 6050.66 2985.25   6
   0  -2  10 43.0102 258.992   7
   0  -2  10-570.500 1081.38   1
   0  -2 -10-648.575 1008.97   6
   0  -2 -11 1319.08 1504.01   6
   0  -2  11-1013.90 1306.97   7
   0  -2  11 2456.80 2353.76   1
   0  -2  12 5290.16 3086.31   7
   0  -2 -12 4249.35 2814.42   6
   0  -2  12 904.462 1492.54   1
   0  -2 -13 1377.13 1673.69   6
   0  -2  13-759.324 1429.91   1
   0  -2  13-110.651 458.952   7
   0  -2 -14-211.860 680.723   6
   0  -2  14 957.364 1378.31   7
   0  -2  14-398.627 1082.22   1
   0  -2 -15 285.396 817.117   6
   0  -2  15 6496.68 4553.00   1
   0  -2  16-328.170 1067.45   1
   0  -2 -16 2297.51 2395.72   6
   0  -2  17-31.5491 345.036   1
   0  -2 -17 1690.09 2116.05   6
   0  -2 -18-1558.36 2089.78   6
   0  -1  -1 90479.0 4408.13   9
   0  -1  -2 12416.1 2254.43   6
   0  -1   2 9042.60 1812.52   3
   0  -1  -2 9803.19 1915.73   8
   0  -1   2 11479.7 2403.58   1
   0  -1   2 6971.95 1697.21   7
   0  -1   3 140639. 9544.18   1
   0  -1   3 133578. 7885.78   3
   0  -1   3 136214. 8227.76   7
   0  -1  -3 138007. 6455.30   1
   0  -1  -3 135118. 8316.52   6
   0  -1  -3 143372. 8118.68   8
   0  -1  -3 154200. 9770.87   4
   0  -1  -4 14132.7 2829.22   3
   0  -1  -4 18401.1 3216.44   8
   0  -1   4 19416.2 4007.35   1
   0  -1  -4 16134.0 2705.79   1
   0  -1   4 11625.1 3175.91   7
   0  -1  -4 21462.6 3949.79   4
   0  -1   4 12316.2 2830.93   3
   0  -1  -4 17064.9 3304.41   6
   0  -1  -5 40316.4 5170.44   3
   0  -1   5 43812.4 6549.86   1
   0  -1  -5 42396.2 5030.66   1
   0  -1   5 34906.5 4988.78   3
   0  -1  -5 39288.0 5344.11   6
   0  -1  -5 44481.2 6078.48   4
   0  -1   5 36065.1 5212.31   7
   0  -1   6 17013.9 4415.65   1
   0  -1  -6 22334.8 4191.23   3
   0  -1   6 15563.9 3592.89   7
   0  -1  -6 21170.6 4432.80   4
   0  -1  -6 17697.7 3774.52   6
   0  -1  -6 19662.1 3907.49   1
   0  -1  -7 16392.7 3922.06   6
   0  -1   7 15447.5 3744.99   7
   0  -1   7 10796.3 3688.39   1
   0  -1  -7 15399.7 3713.01   1
   0  -1  -7 16335.8 3771.32   3
   0  -1  -8 38484.2 6233.74   3
   0  -1   8 37021.3 7394.77   1
   0  -1   8 39640.5 6359.80   7
   0  -1  -8 47327.6 7073.76   6
   0  -1  -9 14476.5 4077.71   3
   0  -1   9 18097.3 5399.66   1
   0  -1  -9 17689.4 4558.75   6
   0  -1   9 19847.6 4599.39   7
   0  -1  10 1596.03 1454.01   1
   0  -1 -10-230.328 532.208   3
   0  -1  10 611.626 851.466   7
   0  -1 -10 953.846 1113.91   6
   0  -1  11 1403.42 1350.48   7
   0  -1 -11-71.1292 319.180   6
   0  -1 -11 413.757 751.393   3
   0  -1  11-119.454 485.000   1
   0  -1 -12 5467.92 2899.84   3
   0  -1  12 3467.20 2744.97   1
   0  -1  12 3623.80 2260.93   7
   0  -1 -12 6455.90 3177.07   6
   0  -1  13 1264.50 1382.71   7
   0  -1 -13 1592.67 1649.75   6
   0  -1 -13-443.436 856.642   3
   0  -1  13-1500.34 1894.18   1
   0  -1 -14 8637.12 3983.76   6
   0  -1 -14 5311.21 3103.11   3
   0  -1  14 5939.50 3084.04   7
   0  -1  14 5601.23 3829.23   1
   0  -1  15 186.333 558.779   7
   0  -1 -15-214.143 651.425   3
   0  -1  15-55.7226 399.954   1
   0  -1  16 1721.30 2326.44   1
   0  -1 -16 918.904 1409.92   3
   0  -1 -16-367.746 878.500   6
   0  -1 -17-32.7923 278.006   3
   0  -1  17-2949.30 3183.95   1
   0  -1  18 3031.71 3373.76   1
   0   0  -3 241276. 9920.61   3
   0   0  -3 213415. 7173.70   7
   0   0   3 228913. 10229.3   1
   0   0   3 230195. 8057.55   6
   0   0   3 228768. 7120.12   7
   0   0  -3 227870. 8359.71   4
   0   0   3 227781. 10264.3   3
   0   0  -3 229090. 8051.41   6
   0   0  -3 222897. 10364.3   1
   0   0   3 221303. 8591.91   4
   0   0  -4 29440.8 3376.78   6
   0   0  -4 30013.7 3488.25   4
   0   0   4 24087.2 3204.80   4
   0   0   4 27790.9 3223.08   6
   0   0  -4 34593.1 4101.58   3
   0   0  -4 28671.4 4225.20   1
   0   0  -4 30505.7 3020.31   7
   0   0   4 27803.4 4093.42   1
   0   0   4 33427.3 4913.65   3
   0   0   4 30024.4 3013.05   7
   0   0   5 19005.2 3020.19   6
   0   0  -5 19935.8 3523.20   3
   0   0  -5 19076.6 2724.87   7
   0   0   5 15079.2 3024.75   4
   0   0  -5 18741.2 3071.04   4
   0   0  -5 19314.7 3105.53   6
   0   0   5 18792.5 2702.58   7
   0   0   5 20387.7 4252.42   3
   0   0  -5 21396.3 4039.73   1
   0   0   5 21772.4 4063.32   1
   0   0   6 29451.4 3713.72   7
   0   0   6 23102.7 4705.29   1
   0   0  -6 33128.6 4506.48   6
   0   0  -6 26582.1 4095.59   4
   0   0   6 29179.3 4700.83   4
   0   0   6 29584.0 5596.81   3
   0   0  -6 25306.6 4912.62   1
   0   0  -6 29462.1 4577.84   3
   0   0  -6 29774.9 3735.55   7
   0   0   7 16717.6 4023.76   4
   0   0  -7 22395.3 3959.26   6
   0   0  -7 18859.9 3675.95   4
   0   0   7 19432.5 4506.79   1
   0   0  -7 18964.2 4000.74   3
   0   0   7 21448.8 3460.89   7
   0   0  -7 19331.6 3230.71   7
   0   0   8 4031.26 2208.49   4
   0   0  -8 5215.38 2017.99   6
   0   0   8 3573.64 2296.09   1
   0   0  -8 4460.40 1713.12   7
   0   0   8 5566.77 1891.39   7
   0   0  -8 4354.96 1884.64   3
   0   0  -9 17770.1 4405.99   3
   0   0  -9 15131.5 3818.60   6
   0   0   9 16285.8 4497.43   4
   0   0   9 9779.51 2788.92   7
   0   0   9 11629.2 4035.47   1
   0   0  -9 11870.9 2960.86   7
   0   0  10 4198.92 2657.26   4
   0   0  10 1418.14 1103.51   7
   0   0  10 1306.89 1409.35   1
   0   0 -10 1923.14 1405.71   6
   0   0 -10 3207.52 2228.22   3
   0   0  11 6412.64 3296.27   1
   0   0 -11 13436.8 4371.59   3
   0   0  11 12146.1 3433.75   7
   0   0 -11 12850.9 3909.27   6
   0   0  11 9463.17 4400.00   4
   0   0  12 1234.08 1525.45   1
   0   0 -12 1507.73 1377.60   6
   0   0  12 6399.91 4466.13   4
   0   0  12 749.090 900.502   7
   0   0 -12 3094.54 2178.13   3
   0   0 -13 7718.16 3628.14   3
   0   0  13 7741.85 3823.19   1
   0   0  13 5379.36 2654.60   7
   0   0 -13 13379.1 4306.69   6
   0   0 -14 163.956 534.676   3
   0   0  14 4130.30 3878.29   4
   0   0  14 992.690 1129.77   7
   0   0 -14 1023.76 1231.57   6
   0   0  14 352.296 902.691   1
   0   0 -15 1416.18 1503.62   6
   0   0 -15 4014.22 2768.41   3
   0   0  15-1288.48 1813.25   1
   0   0 -16 11.5952 155.631   3
   0   0  16 1470.28 2033.59   1
   0   0 -17 2216.16 2252.42   3
   0   0  17 5409.74 4091.93   1
   0   1   0 81.7719 121.813   5
   0   1   0 552.281 526.392   8
   0   1   0 173.888 375.794   1
   0   1   0 405.416 368.182   6
   0   1  -1 93098.7 4930.25   5
   0   1  -1 109626. 6507.02   7
   0   1   1 86294.5 5286.60   8
   0   1   1 97346.0 4531.38   5
   0   1   1 93308.6 5357.81   6
   0   1  -1 89745.6 5459.40   1
   0   1   2 9615.13 1494.54   9
   0   1  -2 10184.3 2159.15   1
   0   1  -2 9993.32 2007.37   3
   0   1   2 10414.1 1914.17   8
   0   1   2 10218.7 2322.92   4
   0   1   2 11092.9 2142.16   6
   0   1  -2 9272.18 1953.88   7
   0   1   3 138273. 9260.05   4
   0   1  -3 145466. 9391.22   1
   0   1  -3 146078. 8126.32   7
   0   1   3 137406. 7823.44   3
   0   1  -3 124392. 8132.30   3
   0   1   3 140006. 8408.03   6
   0   1   4 14748.9 2999.82   6
   0   1  -4 9569.89 2977.57   1
   0   1  -4 16633.0 2910.51   7
   0   1   4 17873.1 3526.41   4
   0   1  -4 14333.0 3347.90   3
   0   1   4 16861.9 3049.25   3
   0   1   4 14604.6 2528.49   1
   0   1  -4 13381.6 3081.65   4
   0   1   5 38892.9 3830.45   7
   0   1  -5 44247.3 3336.33   6
   0   1   5 44286.4 5611.16   4
   0   1  -5 48163.1 5876.37   4
   0   1  -5 37812.2 5851.18   3
   0   1   5 33638.3 4364.43   1
   0   1  -5 45586.5 6513.88   1
   0   1  -5 45361.7 5048.82   7
   0   1   5 41834.3 5542.20   6
   0   1   5 43694.4 5364.97   3
   0   1   6 20887.2 4159.53   6
   0   1  -6 20174.7 3627.80   7
   0   1   6 16030.7 2621.24   7
   0   1  -6 20481.5 2649.50   6
   0   1   6 19771.6 3946.08   4
   0   1  -6 16734.2 3674.01   4
   0   1   6 16777.1 3485.84   1
   0   1  -6 22126.1 5038.06   3
   0   1  -7 13742.6 4274.11   3
   0   1   7 13520.4 3451.99   1
   0   1  -7 15297.4 2615.55   6
   0   1  -7 14620.3 3287.01   7
   0   1  -7 12101.8 3079.74   4
   0   1   7 15636.0 2914.88   7
   0   1   7 13787.0 3458.22   4
   0   1   8 37507.1 6100.99   4
   0   1   8 26297.3 5158.36   1
   0   1  -8 35541.5 6877.31   3
   0   1   8 36892.0 4677.54   7
   0   1  -8 37229.2 4492.16   6
   0   1   9 14854.1 3133.98   7
   0   1   9 14005.9 3982.90   1
   0   1  -9 12211.2 4056.77   3
   0   1  -9 18218.0 3448.96   6
   0   1   9 16911.9 4473.80   4
   0   1  10 3552.05 2675.97   4
   0   1  10 2068.66 1211.27   7
   0   1 -10 1763.77 1128.98   6
   0   1  10 399.333 712.040   1
   0   1 -10 879.290 224.384   3
   0   1 -11-160.887 1993.30   3
   0   1  11 36.9178 170.195   7
   0   1  11-989.379 1190.73   1
   0   1 -11 1025.39 915.346   6
   0   1  12 4847.99 1348.99   4
   0   1 -12 1772.87 1498.46   3
   0   1 -12 7038.02 2537.18   6
   0   1  12 4417.02 1962.38   7
   0   1  12 6037.70 3115.98   1
   0   1  13-643.821 785.491   7
   0   1 -13-1616.48 1282.25   6
   0   1  13-1501.56 1642.16   1
   0   1  13 556.582 1279.31   4
   0   1  14 4427.87 3365.95   1
   0   1 -14 9458.50 4114.30   3
   0   1  14 8113.78 3323.65   4
   0   1 -15-648.552 1148.90   3
   0   1  15 740.093 893.075   4
   0   1 -16 1709.28 1938.64   3
   0   1  16-1801.84 2192.09   4
   0   1  17 2118.98 3666.24   4
   0   1 -17 1687.71 2003.50   3
   0   2   0 182720. 8360.31   5
   0   2   0 192579. 9221.89   6
   0   2   0 190936. 9395.42   1
   0   2   0 176879. 11207.3   8
   0   2   1 744399. 15933.6   5
   0   2  -1 729693. 15900.1   6
   0   2   1 746926. 19995.8   6
   0   2  -1 789561. 20157.4   1
   0   2   1 784811. 22822.0   8
   0   2   1 758835. 11948.3   2
   0   2  -1 752849. 17905.2   5
   0   2  -2 404857. 10017.4   6
   0   2   2 382824. 16098.0   8
   0   2   2 398606. 13311.0   9
   0   2  -2 377754. 17697.5   7
   0   2   2 398409. 15987.6   6
   0   2  -2 365729. 15770.2   1
   0   2  -2 394864. 14100.0   5
   0   2  -3 19288.3 4022.33   1
   0   2   3 23503.8 4055.76   8
   0   2  -3 19639.5 3800.70   3
   0   2   3 21502.6 3121.05   9
   0   2   3 19803.1 3831.50   6
   0   2  -3 16980.3 3812.32   7
   0   2   4 52513.8 7504.42   4
   0   2  -4 41559.3 6943.49   1
   0   2   4 52440.7 5008.71   9
   0   2   4 48578.7 5857.02   8
   0   2  -4 55397.6 6795.08   3
   0   2  -4 46772.4 6422.95   7
   0   2  -5 75875.4 8642.93   3
   0   2   5 91721.4 10244.2   4
   0   2   5 90022.1 6686.95   9
   0   2  -6 14805.8 4485.50   3
   0   2   6 19547.2 4872.87   4
   0   2   6 14078.4 2663.32   9
   0   2   7 9050.23 2549.96   7
   0   2   7 5312.14 2566.38   4
   0   2  -7 7324.50 3339.85   3
   0   2   8 4599.29 1852.97   7
   0   2  -8 3716.47 2774.38   3
   0   2   8 5400.00 2394.36   4
   0   2  -9 9558.27 5553.09   3
   0   2   9 6851.92 2297.00   7
   0   2   9 4571.11 2392.18   4
   0   2  10 541.456 859.419   4
   0   2  10 661.002 728.431   7
   0   2 -10 2608.73 3773.90   3
   0   2  11 674.446 1129.20   4
   0   2 -11 4236.51 4351.78   3
   0   2  11 403.742 563.890   7
   0   2  12 3301.74 1665.51   7
   0   2 -12 1601.65 2353.15   3
   0   2  12 5983.61 3241.47   4
   0   2  13 3578.21 2575.53   4
   0   2 -13 72.6129 1526.81   3
   0   2  14 215.251 1060.32   4
   0   2 -14-719.554 2512.47   3
   0   2  15-697.034 1851.66   4
   0   2 -15-5070.09 3478.57   3
   0   2 -16-6250.86 3965.76   3
   0   2  16-3226.88 2940.83   4
   0   2  17-731.343 1476.56   4
   0   2 -17-2896.91 2775.73   3
   0   3   0-113.267 246.367   5
   0   3   0 668.557 660.349   6
   0   3   0-107.720 1035.89   8
   0   3   0-167.628 343.445   1
   0   3   1 55222.0 5282.59   5
   0   3   1 59701.0 4535.72   2
   0   3   1 52417.4 6369.34   6
   0   3  -1 53049.2 5703.42   5
   0   3  -1 54703.2 8076.32   8
   0   3  -1 52796.8 6541.93   1
   0   3   1 55127.6 7575.30   8
   0   3  -1 53305.3 5528.38   6
   0   3   2 3565.10 1881.11   8
   0   3  -2 3546.47 1628.30   5
   0   3   2 3477.72 1573.43   5
   0   3  -2 4493.03 1923.86   1
   0   3  -3 35661.1 6089.56   3
   0   3  -3 35384.5 5038.01   5
   0   3  -3 33263.4 5632.08   1
   0   3   3 36489.4 6141.81   8
   0   3   4 29877.1 6724.97   4
   0   3   4 37143.1 6144.84   8
   0   3  -4 32412.4 5599.17   3
   0   3   5 2464.60 1956.49   4
   0   3   5 1664.80 1285.80   8
   0   3  -5 4777.40 2725.86   3
   0   3  -6 20355.9 5165.09   3
   0   3   6 23150.7 6272.34   4
   0   3   6 27089.7 5344.63   8
   0   3  -7 18393.5 5533.56   3
   0   3   7 23775.1 6342.34   4
   0   3   8 8389.00 3748.65   4
   0   3  -8 11075.3 5113.47   3
   0   3  -9 4415.73 4516.46   3
   0   3   9 1048.71 1329.07   4
   0   3   9-663.330 770.335   7
   0   3  10 9193.06 3972.93   4
   0   3 -10 14367.6 6680.28   3
   0   3  10 6675.70 2334.35   7
   0   3  11 2459.95 1433.69   7
   0   3  11 3994.97 2742.71   4
   0   3  12 2142.27 1386.31   7
   0   3  12 5664.78 3101.09   4
   0   3  13 2397.64 2168.26   4
   0   3 -13 270.125 3068.84   3
   0   3  14 1356.49 1699.18   4
   0   3 -14 3707.09 3230.42   3
   0   3 -15-8144.69 4867.58   3
   0   3  15 4528.01 3262.13   4
   0   3  16-865.781 2228.25   4
   0   3 -16 1865.67 1257.28   3
   0   3  17-9550.79 5274.91   4
   0   3  18-7904.97 5077.30   4
   0   4   0 112032. 12218.4   8
   0   4   0 120160. 9209.41   5
   0   4   1 92303.7 6454.31   2
   0   4  -1 82064.5 10739.0   8
   0   4   1 83758.6 7472.93   5
   0   4   1 97095.8 11487.0   8
   0   4  -1 94562.8 8576.83   5
   0   4   2 18860.5 2304.84   2
   0   4   2 34638.1 5015.08   5
   0   4   2 30792.2 6565.53   8
   0   4  -2 34118.2 7397.17   8
   0   4   3 1237.68 1290.62   8
   0   4  -4 401.514 901.544   3
   0   4   4 3945.06 2310.07   8
   0   4   5 1564.92 1451.45   8
   0   4   5 2758.56 2773.55   4
   0   4  -5 3354.40 2407.84   3
   0   4   6 2885.23 2499.99   4
   0   4  -6 6056.53 3744.22   3
   0   4   6 6901.19 3056.58   8
   0   4   7 7377.61 3201.03   8
   0   4  -7 1761.70 2231.44   3
   0   4   7 6758.63 3883.73   4
   0   4   8 13486.6 5530.20   4
   0   4  -8 5484.52 3158.24   3
   0   4  -9 2983.03 3621.41   3
   0   4   9 904.574 1430.78   4
   0   4  10 5853.50 3629.01   4
   0   4 -10 6656.86 4184.81   3
   0   4  11 4012.14 3001.44   4
   0   4  11 872.876 970.564   7
   0   4 -12 4024.06 5261.86   3
   0   4  12 2192.42 2420.86   4
   0   4  13-1311.71 1745.19   4
   0   4 -13 8923.29 6921.78   3
   0   4  14-1249.23 1734.46   4
   0   4 -14 4373.64 4244.08   3
   0   4  15 1527.16 1975.42   4
   0   4 -15 1703.53 3153.24   3
   0   4  16 3465.66 3461.68   4
   0   4  17 4102.20 3509.11   4
   0   5   0-1369.18 1484.03   8
   0   5   0-314.049 513.333   2
   0   5   1 4233.84 2612.86   8
   0   5  -1 4169.41 2623.48   8
   0   5   1 2613.29 1119.88   2
   0   5   2 356.209 275.060   2
   0   5  -2 1985.53 1863.93   8
   0   5  -3 2325.71 2098.41   8
   0   5   3 4975.07 2907.80   8
   0   5   4 7034.52 3722.39   8
   0   5  -4 6458.00 3505.01   3
   0   5  -5-82.5051 902.774   3
   0   5   5 626.393 1042.06   8
   0   5   5 944.213 1572.12   4
   0   5   6 3869.35 2591.30   8
   0   5   6 4105.27 3356.66   4
   0   5  -6 7094.12 3828.02   3
   0   5   7 6039.43 3250.95   8
   0   5   7 2758.20 2804.32   4
   0   5  -7 6034.09 3746.72   3
   0   5   8 1186.21 1456.76   8
   0   5  -8 1394.90 2208.78   3
   0   5   8 4336.64 3547.07   4
   0   5   9-298.722 934.784   4
   0   5  -9 2792.70 3026.87   3
   0   5  10-80.3015 483.126   4
   0   5 -10 4965.04 3652.10   3
   0   5  11 2030.93 2418.31   4
   0   5 -11 6622.26 4528.17   3
   0   5 -12 5037.54 4544.12   3
   0   5  12 2835.43 2847.53   4
   0   5 -13 10287.6 6078.57   3
   0   5  13 619.662 1332.13   4
   0   5  14-2536.02 2714.63   4
   0   5 -14 4309.59 5074.82   3
   0   5  15-2032.01 2459.64   4
   0   6   0 14892.6 5466.64   8
   0   6   1 10673.0 4540.47   8
   0   6  -1 12003.1 5143.30   8
   0   6   2 4085.41 2850.64   8
   0   6  -2 4882.62 3131.76   8
   0   6  -3 3708.58 2810.67   8
   0   6   3 2416.75 2222.97   8
   0   6   4 559.986 1081.75   8
   0   6  -4-1258.64 1644.30   3
   0   6  -4 694.849 1261.20   8
   0   6   5 792.063 1296.65   8
   0   6   5-198.910 807.490   4
   0   6  -5-1958.57 2047.26   3
   0   6  -6 305.047 3132.83   3
   0   6   6 5012.86 4121.90   4
   0   6   6 1058.91 1500.80   8
   0   6   7-1564.33 2339.03   4
   0   6  -7 8179.05 4929.89   3
   0   6   7 3757.37 2834.33   8
   0   6   8 5169.02 4283.58   4
   0   6   8 3480.72 2746.20   8
   0   6  -8-1156.12 2535.31   3
   0   6  -9-741.719 873.008   3
   0   6   9 2311.45 2879.48   4
   0   6  10-1565.12 2366.40   4
   0   6 -10 1535.81 2621.12   3
   0   6 -11 492.057 3586.44   3
   0   6  11-295.397 1024.31   4
   0   6  12-1240.34 2088.75   4
   0   6 -12-608.921 5687.24   3
   0   6  13-5474.06 4374.25   4
   0   7   0 1236.78 1662.58   8
   0   7  -1-68.2580 391.282   8
   0   7   1 69.0871 395.966   8
   0   7   2 729.662 1304.59   8
   0   7  -2-146.111 579.240   8
   0   7  -3-493.839 1286.58   3
   0   7  -3 218.303 722.483   8
   0   7   3 52.9399 355.664   8
   0   7   4-209.437 714.599   8
   0   7  -4-5209.06 3704.42   3
   0   7   4-347.888 1169.74   4
   0   7  -4-2403.18 2466.75   8
   0   7   5-2331.62 2404.99   8
   0   7   5 3809.58 3923.18   4
   0   7  -5 1720.99 1932.76   3
   0   7  -5 700.363 1644.58   8
   0   7   6 2739.40 2613.39   8
   0   7  -6-1205.31 1882.81   8
   0   7   6-2657.71 3317.30   4
   0   7  -6 4922.75 3839.66   3
   0   7   7-140.049 768.348   4
   0   7  -7-2730.75 2960.99   8
   0   7   7 3561.07 2989.34   8
   0   7   8 657.299 1668.59   4
   0   7   8 1417.89 1896.82   8
   0   7   9 2323.64 3143.30   4
   0   7  -9 4298.75 3064.77   3
   0   7   9 2158.70 2362.38   8
   0   8   0 374.221 984.622   8
   0   8   1 519.657 1169.97   8
   0   8  -1 4508.93 3411.32   8
   0   8   2 402.155 1038.00   8
   0   8  -2 2338.96 2035.04   8
   0   8   3 396.603 1042.91   8
   0   8  -3-4045.77 3517.32   3
   0   8  -3-1291.53 1863.11   8
   0   8   4 5225.73 4960.71   4
   0   8  -4 1618.35 2133.99   8
   0   8  -4-4354.99 3678.25   3
   0   8   4-1913.52 2307.99   8
   0   8  -5 207.173 785.939   8
   0   8   5 1392.37 1977.53   8
   0   8   6 458.330 1139.82   8
   0   8  -6 1510.82 2197.35   8
   0   8   7-4010.72 3381.68   8
   0   8   8 2204.01 2518.68   8
   0   8   9 433.384 1125.20   8
   1  -8  -6 3849.76 3417.12   6
   1  -8  -5 273.077 887.733   6
  -1  -8   5 420.813 934.866   9
   1  -8  -4-3289.22 3006.57   6
  -1  -8   4-555.545 1070.86   9
  -1  -8   3 760.386 1251.83   9
   1  -8  -3 939.172 1573.19   6
   1  -8  -2-493.494 1022.17   9
  -1  -8   2-1418.91 1710.67   9
   1  -8  -2-1889.92 2187.22   6
   1  -8  -1 1115.99 1537.32   9
   1  -8  -1 3180.78 2793.45   6
  -1  -8   1 1655.20 1842.07   9
   1  -8   0 570.009 1099.11   9
  -1  -8   0 2193.85 2116.80   9
  -1  -8  -1 67.0714 367.421   9
   1  -8   1 752.737 1263.61   9
  -1  -8  -1 2663.59 2321.89   6
  -1  -8  -2 208.804 642.557   9
   1  -8   2 647.325 1172.18   9
  -1  -8  -2-568.265 1110.48   6
  -1  -8  -3-161.108 610.651   6
  -1  -8  -3-1859.31 1895.31   9
   1  -8   3 596.456 1127.06   9
  -1  -8  -4 376.974 841.915   9
   1  -8   4-41.6026 298.554   9
  -1  -8  -4-47.8711 342.957   6
  -1  -8  -5 896.411 1525.92   6
  -1  -8  -5 1063.86 1396.93   9
  -1  -8  -6 1980.56 2328.12   6
  -1  -7  11 2307.19 2703.49   1
  -1  -7  10 1236.07 1914.76   1
  -1  -7   9 1649.54 2138.49   1
   1  -7  -9-2662.84 2885.26   6
   1  -7  -8 784.447 1528.49   6
  -1  -7   8-1623.81 2049.22   1
  -1  -7   7-1505.64 1909.27   1
   1  -7  -7-2230.07 2513.78   6
  -1  -7   6 2335.43 2290.44   1
   1  -7  -6-208.840 749.839   6
   1  -7  -5 1429.90 1911.55   6
  -1  -7   5 1186.19 1569.43   1
   1  -7  -4 1061.56 1604.57   6
  -1  -7   4 215.915 612.165   9
  -1  -7   4 1719.59 1812.60   1
   1  -7  -3 1055.90 1378.84   9
  -1  -7   3 1651.11 1698.71   1
  -1  -7   3-218.595 613.033   9
   1  -7  -3 619.659 1195.23   6
   1  -7  -2 2044.28 1917.76   9
  -1  -7   2-174.573 545.880   9
   1  -7  -2 390.399 926.833   6
  -1  -7   1-474.392 897.766   9
  -1  -7   1 512.622 883.898   6
   1  -7  -1 1245.65 1326.31   5
   1  -7  -1-1096.15 1525.98   6
   1  -7  -1 1552.93 1672.37   9
   1  -7   0 2897.13 2284.63   9
  -1  -7   0 851.386 1187.93   6
   1  -7   0 1756.24 1905.30   6
  -1  -7   0 1980.85 1822.88   9
   1  -7   1 383.813 832.161   9
   1  -7   1 2267.41 2152.95   6
  -1  -7  -1 2351.10 2041.74   6
  -1  -7  -1 3244.69 2320.00   9
  -1  -7  -2-1772.36 1836.41   6
  -1  -7  -2 328.051 729.746   9
  -1  -7  -3 1086.43 1485.62   6
   1  -7   3 2636.84 2193.43   9
  -1  -7  -3-61.5934 312.747   9
   1  -7   4 274.451 710.382   9
  -1  -7  -4 1214.56 1619.62   6
  -1  -7  -4-189.565 542.683   9
   1  -7   5 1108.73 1488.08   1
   1  -7   5 2670.83 2229.39   9
  -1  -7  -5 2865.26 2560.65   6
  -1  -7  -5-754.487 1073.26   9
   1  -7   6-1548.92 1717.30   9
   1  -7   6 2457.18 2331.76   1
  -1  -7  -6-361.810 935.430   6
   1  -7   7 1445.38 1874.51   1
   1  -7   7-888.830 1314.91   9
  -1  -7  -7 1717.94 2093.45   6
   1  -7   8-829.912 1483.79   1
  -1  -7  -8-1907.43 2264.01   6
   1  -7   8 442.587 939.858   9
   1  -7   9 2417.80 2228.89   9
  -1  -7  -9 3209.37 3012.67   6
   1  -7   9 8.04943 2916.38   1
   1  -7  10-130.524 636.978   1
   1  -7  10 477.322 1006.03   9
   1  -7  11-3096.31 3219.10   1
  -1  -6  12-2415.09 2814.44   1
   1  -6 -12 482.929 1247.85   6
   1  -6 -11-644.495 1404.63   6
  -1  -6  11 1633.73 2234.25   1
   1  -6 -10-2535.43 2715.62   6
  -1  -6  10 317.917 953.157   1
   1  -6 -10 530.911 1005.90   5
   1  -6  -9-114.649 562.955   6
  -1  -6   9 2069.14 2341.76   1
   1  -6  -9 34.9170 250.183   5
   1  -6  -8-1008.81 1627.73   6
   1  -6  -8 1651.71 1664.96   5
  -1  -6   8 2150.58 2296.13   1
   1  -6  -7-461.292 850.087   5
   1  -6  -7-206.631 717.815   6
  -1  -6   7 1348.62 1584.37   1
  -1  -6   6-527.120 1049.29   1
   1  -6  -6 1168.13 1304.14   5
   1  -6  -6-646.562 1236.60   6
  -1  -6   5 3467.43 2575.01   1
   1  -6  -5 903.049 1106.65   5
   1  -6  -5 5042.27 3361.28   6
  -1  -6   4 270.570 686.689   1
   1  -6  -4 1060.23 1499.70   6
   1  -6  -4 694.195 941.585   5
   1  -6  -3-129.878 444.092   9
  -1  -6   3 1727.63 1356.61   6
   1  -6  -3 2487.65 2233.89   6
  -1  -6   3 1614.59 1259.46   1
   1  -6  -3 119.454 383.500   5
  -1  -6   2 2447.50 1852.56   9
  -1  -6   2 1989.22 1529.56   6
   1  -6  -2 4540.17 2940.21   6
   1  -6  -2 4284.34 2291.93   5
  -1  -6   2 643.939 960.675   1
   1  -6  -2 2524.00 1957.25   9
  -1  -6   1 3573.00 2148.15   6
   1  -6  -1 6113.63 3333.05   6
  -1  -6   1 5065.74 2547.56   1
   1  -6  -1 3597.63 2121.59   5
   1  -6  -1 6412.17 3146.46   9
  -1  -6   1 2680.91 1925.41   9
  -1  -6   0 6054.91 2562.53   1
   1  -6   0 4232.99 2728.42   6
   1  -6   0 10690.1 3721.76   5
  -1  -6   0 7130.16 3150.81   6
   1  -6   0 7400.87 3689.10   9
  -1  -6   0 6263.40 2922.54   9
   1  -6   1 4751.53 2860.98   6
  -1  -6  -1 2798.63 2051.77   6
  -1  -6  -1 1967.93 1402.02   1
   1  -6   1 2098.69 1680.91   5
  -1  -6  -1 787.163 1029.12   9
   1  -6   1 581.869 786.432   1
   1  -6   1 1786.04 1648.28   9
  -1  -6  -2 5516.93 2178.74   1
   1  -6   2 4700.25 2624.87   1
  -1  -6  -2 6042.84 2819.96   9
  -1  -6  -2 7467.56 3474.36   6
   1  -6   2 8858.62 3907.11   6
   1  -6   2 5456.62 2889.32   9
  -1  -6  -3 1380.79 1545.53   6
  -1  -6  -3-952.567 1106.95   9
   1  -6   3 973.911 1223.10   9
   1  -6   3-304.251 662.444   1
   1  -6   4 2217.97 1859.42   9
   1  -6   4 3102.00 2253.23   1
  -1  -6  -4 2254.00 1688.99   9
  -1  -6  -4 1890.55 1867.86   6
   1  -6   5-422.801 881.008   1
   1  -6   5-8.72466 1443.38   9
  -1  -6  -5 1300.69 1276.60   9
  -1  -6  -5 970.734 1380.79   6
   1  -6   6 837.998 1307.55   1
  -1  -6  -6-766.440 1264.68   6
   1  -6   6 735.109 1089.31   9
  -1  -6  -7 2367.51 2289.84   6
   1  -6   7 1418.49 1786.82   1
   1  -6   7 2224.59 1920.09   9
   1  -6   8-1179.46 1706.34   1
  -1  -6  -8-558.177 1144.97   6
   1  -6   8-1704.04 1708.17   9
   1  -6   9 4372.51 2784.63   9
  -1  -6  -9 4334.03 3299.39   6
   1  -6   9 524.402 1188.75   1
   1  -6  10 1928.18 1884.11   9
   1  -6  10 236.505 832.517   1
  -1  -6 -10 1273.99 1841.19   6
   1  -6  11 1406.88 1640.64   9
   1  -6  11 548.905 1320.61   1
  -1  -6 -11 1022.53 1697.33   6
   1  -6  12 2637.10 3010.19   1
  -1  -6 -12 479.651 1195.81   6
   1  -6  12 1911.95 1949.55   9
   1  -6  13-930.932 1385.80   9
   1  -5 -16 1370.61 1974.72   5
   1  -5 -15 3744.95 3174.82   5
  -1  -5  14 3452.53 3562.27   1
   1  -5 -14 6078.72 4428.41   6
   1  -5 -14 2983.86 2747.53   5
  -1  -5  13 6666.08 4776.93   1
   1  -5 -13 1110.04 1835.62   6
   1  -5 -13 4143.98 3129.39   5
   1  -5 -12 4555.16 3161.34   5
   1  -5 -12 5436.51 3943.42   6
  -1  -5  12 7055.61 4736.33   1
   1  -5 -11 11926.7 5673.83   6
  -1  -5  11 11067.0 5644.27   1
   1  -5 -11 9227.08 4324.50   5
  -1  -5  10 545.393 1221.13   1
   1  -5 -10 387.202 993.661   6
   1  -5 -10 2025.94 1945.59   5
   1  -5  -9-332.570 895.449   6
  -1  -5   9 890.843 1496.62   1
   1  -5  -9-52.4161 300.237   5
   1  -5  -8 3670.04 2409.33   5
  -1  -5   8 505.791 1082.00   1
   1  -5  -8 3615.45 2871.40   6
   1  -5  -7 1129.44 1560.76   6
  -1  -5   7 1429.38 1736.80   1
   1  -5  -7 4308.81 2509.87   5
   1  -5  -6 6759.36 3149.74   5
   1  -5  -6 8533.17 4129.57   6
  -1  -5   6 5253.83 3931.62   1
   1  -5  -5 6.95224 93.4896   5
  -1  -5   5 454.463 521.698   6
  -1  -5   5 379.730 812.786   1
   1  -5  -4 3368.50 2473.68   6
   1  -5  -4 1928.50 1472.15   5
  -1  -5   4 2081.08 1237.26   6
  -1  -5   4 2750.56 2071.76   1
   1  -5  -3 1518.81 1292.12   5
   1  -5  -3 1015.25 1128.18   9
  -1  -5   3-111.312 305.321   6
   1  -5  -3 1033.72 1330.61   6
  -1  -5   3 1419.52 1409.67   1
   1  -5  -2 1502.89 1266.13   5
   1  -5  -2 3230.41 2014.39   9
   1  -5  -2 2659.25 2072.86   6
  -1  -5   2 1839.79 1510.23   1
  -1  -5   2 1851.33 1316.60   6
   1  -5  -1 649.399 836.898   5
   1  -5  -1 2366.50 1900.76   6
  -1  -5   1 4638.26 2249.36   1
   1  -5  -1 4281.08 2766.15   9
  -1  -5   1 1804.66 1365.82   6
   1  -5   0 5401.69 2611.92   9
  -1  -5   0 4270.17 2197.59   6
   1  -5   0 3520.68 2264.22   6
  -1  -5   0 5046.30 2196.04   1
   1  -5   0 4161.94 1785.71   1
  -1  -5   0 4314.76 2248.90   9
   1  -5   0 3282.20 1993.27   5
   1  -5   1 18713.9 5048.20   9
  -1  -5  -1 20692.9 5074.49   6
  -1  -5  -1 13660.9 3426.85   1
   1  -5   1 22166.4 5236.84   5
  -1  -5  -1 17674.0 4341.70   9
   1  -5   1 17132.0 4180.57   1
   1  -5   1 21124.9 5539.68   6
   1  -5   2 9405.76 3362.66   1
   1  -5   2 13489.2 4366.58   6
   1  -5   2 7705.03 3197.52   5
  -1  -5  -2 9009.56 3140.28   9
  -1  -5  -2 8730.56 3407.69   6
   1  -5   2 11037.8 3830.92   9
  -1  -5  -2 8925.18 2646.68   1
  -1  -5  -2 5187.94 1452.69   5
   1  -5   3 2826.74 1901.33   9
  -1  -5  -3 3169.90 1200.52   5
   1  -5   3 4181.61 2314.93   1
  -1  -5  -3 1129.21 980.843   9
  -1  -5  -3 2798.23 1341.20   1
  -1  -5  -3 5317.74 2662.91   6
  -1  -5  -4 4210.92 2000.81   1
   1  -5   4 7835.27 3473.51   1
  -1  -5  -4 9168.11 2172.05   5
   1  -5   4 6368.40 3119.43   9
  -1  -5  -4 10628.5 3309.09   9
  -1  -5  -4 11451.7 4226.51   6
   1  -5   5-911.218 1228.51   1
  -1  -5  -5-38.7898 153.447   5
  -1  -5  -5-1118.86 1060.27   9
  -1  -5  -5 1958.97 1799.77   6
   1  -5   5 1588.61 1245.89   9
  -1  -5  -5 62.6549 187.936   1
  -1  -5  -6 7365.90 2308.15   5
   1  -5   6 5736.18 3259.59   1
   1  -5   6 5972.78 2841.84   9
  -1  -5  -6-585.200 588.026   1
  -1  -5  -6 8657.41 3916.81   6
   1  -5   7-273.039 749.347   1
  -1  -5  -7 2887.76 1558.66   5
  -1  -5  -7 6017.46 3378.46   6
   1  -5   7 3015.72 2053.72   9
   1  -5   8 2726.03 1991.50   9
  -1  -5  -8 548.654 1055.46   6
   1  -5   8 3920.22 2978.48   1
  -1  -5  -8 974.145 976.399   5
  -1  -5  -9 1807.05 1433.77   5
  -1  -5  -9 773.242 1296.13   6
   1  -5   9 4985.36 3520.85   1
  -1  -5 -10-757.109 1326.43   6
   1  -5  10 2489.75 2603.32   1
   1  -5  11-1681.62 2235.11   1
  -1  -5 -11-343.251 923.393   6
   1  -5  12 2120.65 2618.81   1
  -1  -5 -12 325.865 933.940   6
  -1  -5 -13-221.454 795.071   6
   1  -5  13 2092.16 2710.97   1
  -1  -5 -14 472.216 1197.79   6
   1  -5  14-2939.17 3344.24   1
   1  -4 -17 1511.72 2149.68   5
   1  -4 -16 3664.96 3474.61   6
   1  -4 -16 1842.54 2311.35   5
  -1  -4  15 5947.16 4754.45   1
   1  -4 -15 1280.87 1873.74   5
   1  -4 -15 460.880 1190.53   6
   1  -4 -14 589.849 1302.80   6
  -1  -4  14 3296.15 3416.58   1
   1  -4 -14-530.122 1169.48   5
   1  -4 -13 2389.11 2535.57   6
   1  -4 -13 140.573 582.554   5
  -1  -4  13 711.679 1530.11   1
   1  -4 -12-313.143 888.199   6
  -1  -4  12-313.965 980.808   1
   1  -4 -11 3483.95 2686.21   5
   1  -4 -11 1504.92 1885.00   6
  -1  -4  11 7978.68 4197.36   1
   1  -4 -10 9147.59 4757.06   6
   1  -4 -10 15885.7 5655.86   5
  -1  -4  10 9335.77 5110.78   1
   1  -4  -9 1473.88 1585.01   5
   1  -4  -9-962.581 1414.91   6
  -1  -4   9 2437.06 2407.94   1
   1  -4  -8 941.474 1356.29   6
   1  -4  -8 810.144 1112.67   5
  -1  -4   8 1959.67 1873.59   1
   1  -4  -8 402.890 269.134   2
  -1  -4   7 4063.44 2821.61   1
   1  -4  -7 4673.54 2544.58   5
   1  -4  -7 4659.90 3168.78   6
   1  -4  -6 5473.69 3067.66   6
  -1  -4   6 7204.92 3553.65   1
   1  -4  -6 6704.82 2873.65   5
   1  -4  -5 1540.83 1579.17   6
  -1  -4   5 364.534 753.105   1
  -1  -4   5 1055.70 654.177   6
   1  -4  -5 2451.68 1655.55   5
  -1  -4   4 5647.91 1700.29   6
   1  -4  -4 5294.91 2340.94   5
  -1  -4   4 5055.80 2640.60   1
   1  -4  -4 5238.80 2849.29   6
   1  -4  -3 10795.8 4005.32   6
   1  -4  -3 6090.33 2670.64   5
   1  -4  -3 10955.8 3453.78   9
  -1  -4   3 10244.4 3673.02   1
  -1  -4   3 7176.39 2082.09   6
   1  -4  -2 6160.07 2519.46   9
   1  -4  -2 6751.44 2993.25   6
  -1  -4   2 5877.05 2104.11   6
  -1  -4   2 7210.56 2966.39   1
   1  -4  -2 8120.32 2871.31   5
  -1  -4   1 4940.51 2263.72   1
   1  -4  -1 5787.34 2678.50   6
   1  -4  -1 5094.15 2566.93   9
  -1  -4   1 5334.43 2234.53   6
   1  -4  -1 2690.07 2109.30   5
   1  -4   0 6359.23 2453.17   5
   1  -4   0 9236.80 2468.24   1
  -1  -4   0 6740.29 2422.26   1
   1  -4   0 7728.58 2975.66   9
   1  -4   0 6318.00 2773.87   6
  -1  -4   0 7823.04 2683.50   6
  -1  -4  -1 31744.9 5660.69   6
  -1  -4  -1 36101.5 5566.05   9
   1  -4   1 37151.9 6238.55   9
  -1  -4  -1 24254.1 4677.60   1
   1  -4   1 31388.2 5741.43   5
   1  -4   1 31272.1 5253.39   1
   1  -4   1 38613.1 6697.80   6
  -1  -4  -2 4211.26 2508.64   1
   1  -4   2 11059.5 3455.67   9
  -1  -4  -2 12215.0 3177.30   9
  -1  -4  -2 9447.85 1796.00   5
   1  -4   2 8630.73 3031.43   1
  -1  -4  -2 11944.3 3625.57   6
   1  -4   2 19830.2 4924.45   6
   1  -4   2 10624.5 3413.59   5
   1  -4   3 21861.5 4821.64   9
  -1  -4  -3 19377.6 2793.97   5
  -1  -4  -3 20404.5 4988.06   6
  -1  -4  -3 22559.6 4284.31   9
   1  -4   3 20992.1 4919.98   1
   1  -4   4 9175.97 3136.62   9
  -1  -4  -4 7565.28 1854.45   2
  -1  -4  -4 5438.37 2613.18   6
  -1  -4  -4 6610.87 2288.15   9
   1  -4   4 9909.18 3797.99   1
  -1  -4  -4 6483.54 1746.06   5
   1  -4   5 15684.4 4325.94   9
   1  -4   5 14835.2 4722.56   1
  -1  -4  -5 11379.2 2609.09   5
  -1  -4  -5 15782.4 4754.59   6
  -1  -4  -5 16100.7 3478.80   9
  -1  -4  -5 13466.4 2907.99   2
  -1  -4  -6 1714.81 1129.13   5
  -1  -4  -6 697.112 640.036   2
   1  -4   6 1726.84 1689.00   1
  -1  -4  -6 2847.97 2049.07   6
  -1  -4  -7 2039.27 1123.43   2
  -1  -4  -7 2021.16 1390.51   5
  -1  -4  -7 4021.55 2534.08   6
   1  -4   7 2558.73 2174.24   1
  -1  -4  -7 2170.12 1251.90   1
  -1  -4  -8 788.709 799.978   1
  -1  -4  -8 709.294 1107.35   6
  -1  -4  -8 778.958 743.904   2
  -1  -4  -8 263.422 559.622   5
   1  -4   8 300.329 785.229   1
  -1  -4  -9 1345.49 1586.71   6
  -1  -4  -9 931.484 886.886   2
   1  -4   9 980.968 1489.73   1
  -1  -4 -10-65.9850 255.368   2
  -1  -4 -10-11.1567 150.247   6
   1  -4  11-1738.89 2179.81   1
  -1  -4 -11 1587.29 1863.23   6
  -1  -4 -12 234.790 1696.87   6
   1  -4  12 1043.48 1766.22   1
   1  -4  13-1738.05 2381.44   1
  -1  -4 -13 2746.90 2654.92   6
  -1  -4 -14-648.997 1337.37   6
   1  -4  14-237.050 917.870   1
  -1  -4 -15 3183.90 3064.03   6
   1  -4  15-3107.15 3463.45   1
  -1  -4 -16 1728.49 2340.76   6
   1  -3 -18-37.7272 356.837   6
   1  -3 -17 4324.64 3686.39   6
   1  -3 -16-544.610 1262.18   6
  -1  -3  16 1768.55 2601.42   1
  -1  -3  15 2406.98 2754.14   1
   1  -3 -15-890.916 1557.53   6
   1  -3 -14 3779.85 3097.54   6
  -1  -3  14 387.753 1136.28   1
  -1  -3  13 8854.36 5228.58   1
   1  -3 -13 25155.4 7709.91   6
   1  -3 -12 23852.2 7099.63   6
  -1  -3  12 14826.5 6522.83   1
   1  -3 -11 29733.4 7869.54   6
  -1  -3  11 36082.8 9778.64   1
   1  -3 -10 3318.48 1672.47   1
   1  -3 -10 14343.3 5231.12   6
  -1  -3  10 10356.7 5185.18   1
   1  -3  -9 769.530 727.053   1
   1  -3  -9 1229.00 1475.52   6
  -1  -3   9 4158.38 3026.20   1
  -1  -3   8 6584.82 3614.09   1
   1  -3  -8 3543.55 2688.08   5
   1  -3  -8 3263.76 2415.25   6
   1  -3  -8 703.008 610.438   1
   1  -3  -7 214.667 283.677   1
   1  -3  -7 9157.37 3831.22   6
  -1  -3   7 16203.4 5445.57   1
   1  -3  -7 14627.3 4812.53   5
   1  -3  -7 7737.71 1909.21   2
  -1  -3   6 8109.29 3573.22   1
   1  -3  -6 6409.64 3504.03   6
   1  -3  -6 4618.33 1309.08   2
   1  -3  -6 12528.0 3983.51   5
  -1  -3   5 4394.22 2792.81   1
  -1  -3   5 2973.58 876.222   6
   1  -3  -5 4996.14 2634.46   6
   1  -3  -5 4661.65 2402.13   5
   1  -3  -4 3656.76 2122.90   6
  -1  -3   4 1577.03 1598.42   1
   1  -3  -4 1693.69 1248.37   8
   1  -3  -4 2600.66 1515.66   5
  -1  -3   4 2196.87 901.783   6
   1  -3  -3 11501.4 3293.59   8
  -1  -3   3 11913.4 3500.23   1
   1  -3  -3 8461.93 3289.68   6
  -1  -3   3 10329.8 2119.56   6
   1  -3  -3 10006.0 2949.32   5
   1  -3  -2 14826.8 3535.00   9
   1  -3  -2 16781.8 3605.68   5
  -1  -3   2 12664.0 2648.30   6
   1  -3  -2 7761.51 2870.51   6
  -1  -3   2 12265.0 3296.95   1
  -1  -3   1 57694.1 5822.70   6
   1  -3  -1 59405.1 6978.53   9
   1  -3  -1 60898.4 6920.25   5
  -1  -3   1 61252.4 7090.60   1
   1  -3  -1 55396.7 7673.62   6
   1  -3   0 11920.6 3144.26   9
   1  -3   0 13788.7 3565.59   6
   1  -3   0 11849.1 2647.29   1
  -1  -3   0 11962.9 2862.82   6
  -1  -3   0 5153.81 2925.30   1
   1  -3   0 13567.0 3443.36   5
  -1  -3  -1 2944.20 1400.41   1
   1  -3   1 4583.54 2102.79   1
   1  -3   1 5969.12 2627.04   6
  -1  -3  -1 2273.12 834.958   5
   1  -3   1 4380.19 1905.56   5
  -1  -3  -1 7793.98 2866.22   6
   1  -3   1 8267.50 2772.62   9
  -1  -3  -2 25467.3 3996.76   9
   1  -3   2 26853.8 4823.75   1
  -1  -3  -2 28798.4 5000.51   6
   1  -3   2 29886.0 4944.19   9
  -1  -3  -2 29667.9 2695.84   5
  -1  -3  -2 28529.0 3818.79   2
   1  -3   2 31296.9 6017.98   6
   1  -3   2 29566.5 5192.08   5
   1  -3   3 18795.5 4015.11   9
  -1  -3  -3 18926.1 4280.36   6
  -1  -3  -3 25243.0 3808.73   9
  -1  -3  -3 23783.3 2748.65   5
  -1  -3  -3 22863.2 3774.18   2
   1  -3   3 19968.6 4423.89   1
   1  -3   3 17216.4 4695.52   7
  -1  -3  -4 15387.1 2831.40   2
   1  -3   4 15580.2 4680.13   7
  -1  -3  -4 19959.0 3322.98   9
   1  -3   4 14594.8 4067.00   1
  -1  -3  -4 13672.4 3833.54   6
  -1  -3  -4 17183.9 2932.64   5
  -1  -3  -5 53503.3 5442.38   9
  -1  -3  -5 50038.7 7628.35   6
  -1  -3  -5 57828.1 5700.21   2
   1  -3   5 51040.2 8226.57   1
   1  -3   6 31832.0 6614.66   7
  -1  -3  -6 34749.8 5175.89   1
  -1  -3  -6 34660.8 4764.30   2
  -1  -3  -6 34313.9 6651.74   6
   1  -3   6 37316.9 7511.13   1
  -1  -3  -7 24404.0 4564.44   1
   1  -3   7 34939.5 7656.67   1
   1  -3   7 26039.8 6387.68   7
  -1  -3  -7 33933.7 5218.33   2
  -1  -3  -7 31484.4 6640.07   6
  -1  -3  -8 3212.88 2162.74   6
  -1  -3  -8 4141.44 2153.28   1
   1  -3   8 3686.73 2439.06   7
  -1  -3  -8 2411.86 1492.72   2
   1  -3   8 5409.93 3152.17   1
   1  -3   9 3091.78 2330.47   7
  -1  -3  -9 6882.23 3334.51   6
  -1  -3  -9 5244.15 2356.71   2
   1  -3   9 3791.96 2777.61   1
  -1  -3 -10 17289.0 5589.17   6
  -1  -3 -10 9312.91 3346.67   2
   1  -3  10 7970.66 4279.88   7
   1  -3  10 13484.0 5633.56   1
   1  -3  11 2161.17 2118.93   7
   1  -3  11 2546.34 1242.54   1
  -1  -3 -11 4519.15 3257.93   6
  -1  -3 -11 126.789 412.852   2
   1  -3  12 664.498 1222.20   7
   1  -3  12 263.374 846.662   1
  -1  -3 -12 771.236 1268.09   6
  -1  -3 -12 793.206 1086.09   2
   1  -3  13 421.607 862.937   7
  -1  -3 -13 733.592 1290.03   6
  -1  -3 -14 1365.65 1839.99   6
   1  -3  14 153.492 706.941   1
   1  -3  14-1089.17 1678.18   7
   1  -3  15 1539.16 2055.11   7
   1  -3  15 1934.45 2621.41   1
  -1  -3 -15 562.639 1225.54   6
   1  -3  16-3727.72 3797.66   1
  -1  -3 -16-2578.88 2713.43   6
   1  -3  16 1170.18 1835.60   7
  -1  -3 -17 3009.22 3034.09   6
  -1  -3 -18-810.971 1616.83   6
   1  -2 -17 1658.31 2137.67   6
  -1  -2  17 2593.22 3137.79   1
  -1  -2  16 2297.87 2848.68   1
   1  -2 -16-2380.71 2467.46   6
  -1  -2  15 5305.00 4171.08   1
   1  -2 -15-2099.92 2232.77   6
   1  -2 -14 1494.24 1814.55   6
  -1  -2  14-1132.23 1858.57   1
  -1  -2  13 6091.88 4145.33   1
   1  -2 -13 6925.04 4110.84   6
  -1  -2  12 960.470 1584.80   1
   1  -2 -12 534.247 1006.88   6
   1  -2 -11 53.2928 306.011   6
  -1  -2  11 509.467 1105.41   1
  -1  -2  10 5560.68 3495.87   1
   1  -2 -10 8415.81 3697.99   6
   1  -2  -9 5939.94 2985.37   6
   1  -2  -9 4050.46 1953.45   1
  -1  -2   9 6290.93 3536.41   1
   1  -2  -8 601.249 481.205   6
   1  -2  -8 681.926 589.299   1
  -1  -2   8 1357.53 1560.32   1
  -1  -2   8 611.644 388.463   6
  -1  -2   7 12176.1 1706.40   6
  -1  -2   7 15596.8 5198.12   1
   1  -2  -7 10396.1 2612.95   1
   1  -2  -7 22419.6 5471.83   6
   1  -2  -6 27485.1 3855.78   1
  -1  -2   6 23321.9 2539.79   6
   1  -2  -6 37304.6 5449.13   8
   1  -2  -6 33421.9 6316.67   6
  -1  -2   6 40834.2 7930.31   1
   1  -2  -5 8816.60 1924.45   1
   1  -2  -5 18394.7 4401.50   5
  -1  -2   5 15551.4 5565.38   1
  -1  -2   5 15305.9 2193.69   6
   1  -2  -5 17649.9 3643.08   8
   1  -2  -5 15756.1 4361.51   6
   1  -2  -4 12400.1 2055.78   2
   1  -2  -4 13220.3 3709.96   6
  -1  -2   4 12756.2 3814.63   1
   1  -2  -4 16287.0 3781.11   5
   1  -2  -4 13195.6 2897.54   8
   1  -2  -3 5296.77 2058.71   5
  -1  -2   3 3159.75 1740.08   1
   1  -2  -3 7379.47 3139.43   6
   1  -2  -3 3100.55 787.058   2
   1  -2  -3 3095.29 1337.57   8
   1  -2  -2 84477.2 7357.34   5
   1  -2  -2 77557.0 7924.39   6
  -1  -2   2 82411.1 8083.66   1
   1  -2  -2 77302.1 6406.18   8
  -1  -2   1 33183.2 5045.62   1
   1  -2  -1 27190.5 4096.33   5
   1  -2  -1 30617.6 4996.90   6
   1  -2  -1 28643.4 4226.36   9
  -1  -2   0 15693.9 3979.22   8
   1  -2   0 14160.0 2851.17   9
   1  -2   0 16190.2 3593.85   7
   1  -2   0 13541.1 2919.53   5
   1  -2   0 16486.3 3440.13   6
   1  -2   1 137393. 10012.7   7
  -1  -2  -1 144380. 11344.7   8
   1  -2   1 128564. 9198.96   5
   1  -2   1 155789. 11486.5   6
   1  -2   1 128409. 8600.15   1
   1  -2   1 142297. 9037.70   9
  -1  -2  -1 128698. 8337.06   2
   1  -2   2 60256.5 6714.85   7
  -1  -2  -2 33057.3 3145.73   5
   1  -2   2 52128.8 6220.09   1
   1  -2   2 59165.1 5896.57   9
  -1  -2  -2 60629.7 5250.46   2
   1  -2   2 52274.1 6278.69   5
  -1  -2  -2 52387.9 6727.17   8
   1  -2   3 69445.2 7599.52   1
  -1  -2  -3 74832.1 5080.54   9
  -1  -2  -3 69191.2 5598.35   2
   1  -2   3 78925.2 7945.55   7
   1  -2   3 75304.7 6703.34   9
  -1  -2  -3 77175.7 8257.87   8
  -1  -2  -3 77318.9 7595.68   6
  -1  -2  -4 24532.5 4574.40   6
  -1  -2  -4 22460.1 2722.33   9
   1  -2   4 23981.5 4865.89   1
   1  -2   4 20580.7 4413.17   7
  -1  -2  -4 24912.6 3691.07   2
  -1  -2  -5 73648.8 8345.18   6
   1  -2   5 77569.4 8677.37   7
   1  -2   5 80036.2 9628.39   1
  -1  -2  -5 75959.5 7281.29   2
   1  -2   6 37151.8 6461.72   7
  -1  -2  -6 33981.4 5913.16   2
   1  -2   6 45804.6 7851.88   1
  -1  -2  -6 47529.4 6216.58   1
  -1  -2  -6 46166.3 6960.35   6
   1  -2   7 25276.5 6168.93   1
   1  -2   7 20299.1 5233.22   7
  -1  -2  -7 32516.6 6085.48   6
  -1  -2  -7 31472.4 5496.98   1
   1  -2   8 3050.54 2250.88   1
   1  -2   8 2891.29 1908.34   7
  -1  -2  -8 1953.33 1542.22   6
   1  -2   9 8936.57 3965.39   1
  -1  -2  -9 12732.3 4233.84   6
   1  -2   9 10412.1 3782.40   7
  -1  -2 -10 3577.63 2312.20   6
   1  -2  10 3970.48 2472.07   7
   1  -2  10 2505.91 2250.10   1
   1  -2  11 9074.45 4501.60   1
  -1  -2 -11 12674.6 4832.60   6
   1  -2  11 12306.6 4563.72   7
  -1  -2 -12 4316.11 2804.59   6
   1  -2  12 2666.30 2218.53   7
   1  -2  12 1711.84 2051.98   1
   1  -2  13 3359.99 4110.32   1
  -1  -2 -13-265.208 728.127   6
   1  -2  13 327.192 810.000   7
  -1  -2 -14-867.888 1374.63   6
   1  -2  14-173.689 612.809   7
   1  -2  14 1082.20 1789.83   1
   1  -2  15 1438.43 2158.83   1
  -1  -2 -15-203.922 695.483   6
   1  -2  15 2908.33 2593.69   7
  -1  -2 -16 831.818 1452.49   6
   1  -2  16-2271.36 2359.82   7
   1  -2  16-2580.08 3022.73   1
   1  -2  17 1470.94 1949.77   7
  -1  -2 -17-15.1066 202.350   6
  -1  -1  18-1327.10 1936.50   1
  -1  -1  17 453.125 1252.01   1
   1  -1 -17 2338.26 2339.43   3
   1  -1 -16 2316.36 2277.06   6
   1  -1 -16-862.376 1363.89   3
  -1  -1  16 1069.72 1852.13   1
   1  -1 -15-863.076 1308.53   3
   1  -1 -15 2551.64 2288.30   6
  -1  -1  15 2889.46 2924.18   1
   1  -1 -14 2456.83 2155.44   6
  -1  -1  14 4228.65 3402.02   1
   1  -1 -14 3397.88 2488.39   3
  -1  -1  13 30717.0 8811.16   1
   1  -1 -13 25374.0 6637.25   3
   1  -1 -13 31331.5 7389.51   6
   1  -1 -12 56971.9 9683.70   6
  -1  -1  12 52569.6 11126.4   1
   1  -1 -12 57755.9 9593.04   3
  -1  -1  11 35062.9 8713.81   1
   1  -1 -11 21649.0 5600.83   3
   1  -1 -11 20439.7 5474.48   6
  -1  -1  10 16702.5 5776.30   1
   1  -1 -10 18095.6 4951.44   6
  -1  -1  10 14262.7 3151.99   6
   1  -1 -10 13767.9 4187.22   3
  -1  -1   9 18115.6 5653.66   1
   1  -1  -9 20141.3 5042.21   6
   1  -1  -9 22694.8 5111.32   3
  -1  -1   9 17890.0 3389.74   6
  -1  -1   8 4189.73 1559.50   6
   1  -1  -8 4258.38 2753.99   6
  -1  -1   8 6220.90 3107.73   1
   1  -1  -8 2603.61 1531.12   3
   1  -1  -7 34188.8 5586.31   3
  -1  -1   7 28546.6 3947.48   6
   1  -1  -7 21510.2 4372.59   1
  -1  -1   7 30963.6 6589.09   1
   1  -1  -7 23009.2 4878.66   6
   1  -1  -6 10658.0 3122.93   6
   1  -1  -6 6948.56 2242.50   1
  -1  -1   6 10286.6 4124.61   1
  -1  -1   6 9175.51 2159.60   6
   1  -1  -6 10615.7 3170.93   3
  -1  -1   5 59386.3 6809.68   3
   1  -1  -5 62873.4 6709.77   3
  -1  -1   5 51819.8 4729.16   6
   1  -1  -5 65853.0 7639.58   4
   1  -1  -5 60114.6 7242.86   6
   1  -1  -5 39185.5 5854.88   1
  -1  -1   5 69650.4 9007.30   1
   1  -1  -4 7826.23 2483.74   4
   1  -1  -4 5303.62 1900.83   1
   1  -1  -4 9341.63 2644.79   6
  -1  -1   4 4315.10 1581.89   3
   1  -1  -4 6659.22 1981.63   3
  -1  -1   4 6210.76 1625.56   6
  -1  -1   4 7077.96 2494.49   1
  -1  -1   3 275796. 14224.1   1
  -1  -1   3 295243. 12007.9   3
   1  -1  -3 301438. 14146.2   6
   1  -1  -3 277607. 9230.40   8
   1  -1  -3 279078. 10656.0   2
   1  -1  -3 283069. 14098.3   4
  -1  -1   2 187134. 10750.1   1
   1  -1  -2 172517. 6159.99   8
  -1  -1   2 180366. 8631.01   3
   1  -1  -2 179909. 9390.75   5
   1  -1  -2 199261. 11098.4   4
   1  -1  -2 172265. 10253.6   6
   1  -1  -2 176278. 7256.76   2
   1  -1  -1 10181.1 1706.79   7
   1  -1  -1 14168.2 3108.32   6
  -1  -1   1 9880.46 3482.30   1
   1  -1  -1 9373.89 2170.63   4
   1  -1  -1 9222.97 1532.99   2
   1  -1  -1 9179.18 1999.70   5
   1  -1   0 220489. 10039.1   5
   1  -1   0 231505. 8733.24   9
   1  -1   0 209725. 8151.43   7
  -1  -1   0 229758. 9913.40   2
  -1  -1   0 225561. 11228.5   8
  -1  -1  -1 298028. 10572.0   2
   1  -1   1 309323. 10605.0   7
   1  -1   1 288156. 11568.2   5
   1  -1   1 291008. 9662.13   9
  -1  -1  -1 311297. 12324.1   8
   1  -1   2 181846. 8949.87   7
   1  -1   2 171907. 9604.09   5
  -1  -1  -2 177741. 9847.35   8
   1  -1   2 178298. 7775.67   9
  -1  -1  -2 185681. 8856.79   2
   1  -1   2 182514. 8354.11   3
   1  -1   3 16150.4 3036.22   3
  -1  -1  -3 17141.8 3341.39   8
   1  -1   3 25543.3 3763.00   7
   1  -1   3 23660.3 5147.72   1
  -1  -1  -3 15036.8 3199.40   2
  -1  -1  -4 14093.7 3212.30   8
   1  -1   4 19337.2 4149.22   1
   1  -1   4 13864.5 2813.91   3
   1  -1   4 17654.4 3258.41   7
   1  -1   5 168114. 10679.0   7
   1  -1   5 145636. 10049.2   3
  -1  -1  -5 172449. 11474.4   1
   1  -1   5 174655. 13274.4   1
  -1  -1  -5 171324. 10578.6   3
   1  -1   6 89359.0 10259.2   1
  -1  -1  -6 95519.4 9221.42   1
  -1  -1  -6 88196.2 8184.43   3
   1  -1   6 98334.1 8726.80   7
  -1  -1  -6 86903.7 8451.70   6
   1  -1   7 15346.1 4606.45   1
  -1  -1  -7 21044.8 4380.51   3
  -1  -1  -7 17740.2 4072.10   6
   1  -1   7 16960.2 3896.20   7
  -1  -1  -8 53418.1 7580.62   6
  -1  -1  -8 50556.3 7082.86   3
   1  -1   8 62864.1 7909.74   7
   1  -1   8 56127.5 9158.44   1
  -1  -1  -9 7739.68 2884.49   3
   1  -1   9 6857.95 2795.42   7
  -1  -1  -9 5471.76 2784.57   6
   1  -1   9 6112.34 3448.58   1
  -1  -1 -10 5237.81 2569.77   6
   1  -1  10 3889.67 2170.48   7
   1  -1  10 4838.05 2960.91   1
  -1  -1 -10 2663.79 1798.52   3
   1  -1  11 2522.50 1844.26   7
  -1  -1 -11 93.1735 354.827   3
   1  -1  11 2253.18 2126.78   1
  -1  -1 -11 2130.25 1730.81   6
  -1  -1 -12 7445.64 3410.92   6
  -1  -1 -12 6119.19 3026.16   3
   1  -1  12 6170.21 3698.80   1
   1  -1  12 5408.88 3008.44   7
  -1  -1 -13 3903.00 2591.58   6
   1  -1  13 1243.80 1428.69   7
  -1  -1 -13-237.385 626.130   3
   1  -1  13 2403.44 2422.80   1
  -1  -1 -14 2821.57 2300.45   6
   1  -1  14 2179.38 1976.09   7
  -1  -1 -14 312.122 753.402   3
   1  -1  14 944.016 1592.04   1
  -1  -1 -15 1708.25 1865.74   6
   1  -1  15 1853.20 1896.37   7
  -1  -1 -15-1240.73 1574.27   3
  -1  -1 -16 1442.59 1777.69   3
  -1  -1 -16-1441.27 1767.45   6
   1  -1  16 138.867 537.352   7
  -1  -1 -17 1537.08 1920.44   3
  -1   0  19 2562.67 3064.76   1
  -1   0  18 1513.68 2262.47   1
   1   0 -17-1495.02 1837.38   3
  -1   0  17 182.037 752.201   1
  -1   0  16 6431.17 4281.83   1
   1   0 -16 3964.25 2866.69   3
   1   0 -15 668.972 1099.97   6
  -1   0  15 5372.34 3750.41   4
   1   0 -15 3250.75 2486.48   3
  -1   0  15 3794.52 3152.46   1
  -1   0  14 7012.98 3971.98   4
   1   0 -14 3312.34 2325.55   6
  -1   0  14 5174.96 3520.39   1
   1   0 -14 3848.37 2632.29   3
  -1   0  13 2968.68 2547.38   1
  -1   0  13 1718.97 1223.79   7
   1   0 -13 3697.91 2427.77   3
   1   0 -13 1501.40 1488.98   6
   1   0 -12 985.027 1513.59   3
  -1   0  12 599.229 705.578   7
  -1   0  12 706.222 1187.67   1
   1   0 -12-816.780 1044.59   6
  -1   0  12 2805.04 3916.70   4
   1   0 -11 1531.46 944.276   7
  -1   0  11 4498.55 2854.61   1
   1   0 -11 1022.04 1165.49   3
  -1   0  11 3040.68 1537.42   7
   1   0 -11 2056.28 1680.33   6
  -1   0  10 8493.47 2495.45   7
   1   0 -10 8422.79 3036.97   6
  -1   0  10 17063.6 5918.51   4
   1   0 -10 4678.90 1576.09   7
  -1   0  10 7516.84 3610.98   1
   1   0 -10 7007.10 3041.75   3
  -1   0   9 4665.38 2618.85   1
   1   0  -9 1474.38 1163.87   7
   1   0  -9 5496.61 2643.67   3
  -1   0   9 9134.74 4323.56   4
   1   0  -9 4820.85 2162.90   6
  -1   0   9 2727.44 1318.41   7
  -1   0   8 10428.0 3780.99   1
   1   0  -8 8122.39 1949.87   7
   1   0  -8 6227.94 2318.68   6
  -1   0   8 11858.5 2564.26   7
   1   0  -8 6368.21 2296.25   3
  -1   0   8 7679.69 2622.24   6
  -1   0   8 7480.40 3335.58   4
  -1   0   7 1921.94 1222.57   6
   1   0  -7 1588.61 970.995   7
   1   0  -7-473.291 891.995   3
  -1   0   7 2045.14 1530.26   1
  -1   0   7 2126.90 990.749   7
  -1   0   7 1658.14 1825.21   4
   1   0  -7 1986.47 1296.62   6
   1   0  -6 8793.26 2438.80   6
   1   0  -6 9056.43 1748.93   7
  -1   0   6 7416.90 2732.57   1
   1   0  -6 8368.80 2812.03   1
   1   0  -6 8053.25 2331.56   3
  -1   0   6 11001.4 2121.49   7
  -1   0   6 9706.39 3004.89   4
  -1   0   6 10582.2 2758.87   6
  -1   0   5 2359.36 3003.49   1
  -1   0   5 13847.9 4050.10   4
  -1   0   5 15087.7 4370.59   3
   1   0  -5 9737.87 3232.66   4
   1   0  -5 6428.65 3197.46   6
   1   0  -5 5237.61 3118.48   1
  -1   0   5 12845.4 3022.08   6
   1   0  -5 14283.2 3545.89   3
   1   0  -5 4048.11 1079.49   7
   1   0  -4 103835. 4901.00   7
  -1   0   4 104154. 7604.58   6
   1   0  -4 109033. 8779.28   1
  -1   0   4 97061.4 8182.04   3
   1   0  -4 97725.5 7441.31   3
   1   0  -4 85450.2 6975.76   6
  -1   0   4 98657.6 8589.48   4
   1   0  -4 107988. 8148.78   4
  -1   0   4 102359. 8374.94   1
  -1   0   3 104435. 7199.40   6
   1   0  -3 95830.9 6464.13   3
  -1   0   3 96929.8 7315.95   1
   1   0  -3 104556. 7623.78   6
  -1   0   3 97946.6 7326.61   3
   1   0  -3 98405.4 7155.91   4
  -1   0   3 93784.5 7729.21   4
   1   0  -3 116326. 8537.97   1
   1   0  -2 176413. 7327.66   3
   1   0  -2 186979. 9660.29   2
  -1   0   2 188806. 9643.60   4
  -1   0   2 209841. 10029.9   1
   1   0  -2 189319. 9103.56   4
  -1   0   2 175982. 7929.79   3
   1   0  -1 5769.19 1334.03   5
  -1   0   1 7791.55 1318.91   3
  -1   0   1 6408.35 1582.88   2
  -1   0   1 8702.65 2137.24   4
  -1   0   0 229418. 6375.79   8
  -1   0   0 232812. 7222.79   4
   1   0   1 61650.4 4115.27   5
  -1   0  -1 65840.6 3979.90   8
   1   0   1 62964.5 4973.45   2
  -1   0  -1 61706.7 4805.09   2
  -1   0  -1 51555.4 3897.68   7
  -1   0  -2 48288.0 4307.73   5
   1   0   2 53604.2 3898.01   3
  -1   0  -2 59419.6 3663.46   3
   1   0   3 29617.6 3687.07   7
   1   0   3 30155.9 3756.30   3
  -1   0  -3 25943.8 3954.55   1
  -1   0  -3 27439.4 3014.21   3
  -1   0  -3 30240.3 3515.83   7
   1   0   3 23525.5 2015.07   4
  -1   0  -4 52179.3 5012.85   7
   1   0   4 52057.4 5440.95   7
   1   0   4 45491.3 5428.17   3
  -1   0  -4 47535.7 4719.92   3
  -1   0  -4 33735.1 3696.75   4
  -1   0  -4 48254.9 5919.08   1
   1   0   4 48686.6 3608.85   4
   1   0   5 268401. 14709.0   3
  -1   0  -5 286567. 15595.9   1
  -1   0  -5 290971. 12529.1   7
   1   0   5 305513. 13823.5   7
  -1   0  -5 294556. 13347.8   3
  -1   0  -5 302915. 11627.5   4
   1   0   5 286734. 10279.3   4
   1   0   6 4377.75 1339.79   4
  -1   0  -6 6704.17 2136.03   7
   1   0   6 10002.7 3510.37   3
  -1   0  -6 8060.53 2043.89   4
  -1   0  -6 6340.91 2320.29   3
   1   0   6 7436.91 2312.29   7
   1   0   7 12036.8 3123.11   7
   1   0   7 10341.7 2549.53   4
   1   0   7 15086.9 4175.11   1
  -1   0  -7 12664.1 3306.05   3
  -1   0  -7 13517.8 3157.64   6
  -1   0  -7 13773.3 3044.00   4
   1   0   8 1859.18 1264.03   7
  -1   0  -8 1685.79 1353.82   3
  -1   0  -8 1754.88 1192.11   6
  -1   0  -8 1172.36 927.681   4
   1   0   8 2175.19 1824.11   1
   1   0   8-961.452 1196.18   4
   1   0   9 24037.2 6132.18   1
  -1   0  -9 23696.5 5014.46   3
  -1   0  -9 23374.5 4677.94   6
   1   0   9 24062.4 4840.13   7
  -1   0  -9 22869.0 4516.61   4
   1   0   9 24130.6 4897.34   4
  -1   0 -10 5878.31 2456.71   6
  -1   0 -10 7575.64 3090.00   3
   1   0  10 3982.81 2191.98   4
   1   0  10 4397.63 2314.62   7
   1   0  10 2325.72 2968.76   1
  -1   0 -11 35057.8 6498.42   6
   1   0  11 33536.3 6273.45   7
  -1   0 -11 26413.4 5864.91   3
   1   0  11 30253.2 6462.64   4
   1   0  12 561.483 836.509   7
  -1   0 -12 1386.03 1694.88   3
  -1   0 -12 3905.60 2242.92   6
   1   0  13 16127.6 5384.89   4
  -1   0 -13 14942.2 4604.46   6
  -1   0 -13 14436.5 4862.98   3
   1   0  13 16573.5 4649.48   7
  -1   0 -14-715.820 1054.59   6
   1   0  14 211.508 562.461   7
  -1   0 -14 1367.96 1553.97   3
   1   0  14-517.175 2204.36   4
  -1   0 -15-665.560 1051.67   6
  -1   0 -15 269.611 724.160   3
   1   0  15-108.879 421.645   7
  -1   0 -16 2539.59 2334.57   3
  -1   0 -17 3522.44 2883.35   3
  -1   1  19 13352.9 6768.50   4
  -1   1  18 14141.7 6839.68   4
  -1   1  17 2255.65 2463.71   1
   1   1 -17 3345.98 2805.93   3
  -1   1  16 3100.92 3180.25   4
  -1   1  16 1284.28 1774.45   1
   1   1 -16 1217.56 1629.88   3
  -1   1  15 2222.40 1602.61   4
   1   1 -15 3120.70 2514.20   3
  -1   1  15-415.130 961.914   1
  -1   1  14 5250.30 3256.35   1
   1   1 -14 459.521 931.333   3
  -1   1  13 35109.4 8994.96   4
   1   1 -13 33724.7 7677.72   3
   1   1 -13 33889.3 6657.73   6
  -1   1  13 26434.5 7066.65   1
   1   1 -12 48359.7 9102.38   3
   1   1 -12 54887.3 7928.66   6
  -1   1  12 48331.7 5400.03   7
  -1   1  12 52626.4 10406.6   4
  -1   1  12 48149.9 9264.18   1
   1   1 -11 24087.8 4899.39   6
  -1   1  11 24197.3 6008.43   1
   1   1 -11 23884.2 6045.69   3
  -1   1  11 21295.9 6034.61   4
  -1   1  11 24934.4 3682.96   7
  -1   1  10 19239.6 5173.34   4
  -1   1  10 14011.5 2583.43   7
  -1   1  10 11926.5 4100.58   1
   1   1 -10 10410.0 3937.72   3
   1   1 -10 13014.8 3351.01   6
  -1   1   9 20627.1 5107.09   4
   1   1  -9 20757.7 4090.62   6
  -1   1   9 20312.4 2891.06   7
  -1   1   9 13516.6 4102.93   1
   1   1  -9 12923.6 4135.20   3
  -1   1   8 5585.79 2274.06   1
   1   1  -8 6811.11 3818.29   3
   1   1  -8 1727.15 1185.65   7
  -1   1   8 7399.62 2961.44   4
  -1   1   8 3351.38 1042.45   7
   1   1  -7 24493.8 4393.36   7
  -1   1   7 23544.4 4646.44   1
  -1   1   7 27147.8 2614.27   7
   1   1  -7 20813.7 5139.42   3
  -1   1   7 31383.5 5816.83   4
   1   1  -6 8074.16 2403.70   7
  -1   1   6 12153.5 3647.04   4
  -1   1   6 13936.6 3349.82   1
   1   1  -6 10865.6 4037.86   3
  -1   1   6 8663.92 1346.40   7
   1   1  -5 59181.8 7079.47   7
   1   1  -5 56085.7 7472.80   3
  -1   1   5 64353.0 7247.50   4
  -1   1   5 61512.7 6229.81   1
  -1   1   5 65628.7 6940.30   3
  -1   1   5 64364.9 7529.10   6
   1   1  -5 51971.8 7289.58   4
   1   1  -5 76125.5 8899.86   1
  -1   1   4 7595.21 2466.30   6
  -1   1   4 6451.23 1784.08   1
   1   1  -4 11922.4 3454.47   4
  -1   1   4 7103.30 2279.90   4
   1   1  -4 7193.91 2776.74   1
  -1   1   4 6038.47 1842.50   3
   1   1  -4 11330.2 3258.04   3
   1   1  -4 7482.12 2534.05   7
  -1   1   3 287031. 11552.8   3
   1   1  -3 272264. 12511.8   3
  -1   1   3 276318. 13514.8   6
  -1   1   3 269967. 10041.7   1
  -1   1   3 274216. 13010.5   4
   1   1  -2 191012. 9242.41   3
  -1   1   2 175213. 7424.85   2
  -1   1   2 180183. 10066.8   6
  -1   1   2 173368. 5524.37   7
  -1   1   2 178202. 9811.09   4
  -1   1   1 10761.7 2186.76   5
  -1   1   1 8428.39 1537.27   2
   1   1  -1 7186.19 1589.40   3
  -1   1   1 8045.72 1956.68   6
  -1   1   1 10501.2 2251.64   4
   1   1  -1 11402.9 2509.63   2
  -1   1   0 225691. 7995.60   7
  -1   1   0 209484. 10296.7   6
  -1   1   0 221888. 8483.64   9
  -1   1   0 202448. 8949.02   4
  -1   1   0 225737. 8628.97   2
   1   1   0 208613. 9241.66   2
   1   1   0 211499. 10328.0   8
  -1   1   0 233075. 10328.9   5
  -1   1  -1 290076. 10070.1   7
   1   1   1 309378. 12355.3   8
  -1   1  -1 304591. 11818.2   5
  -1   1  -1 285970. 9347.45   9
  -1   1  -1 304146. 11674.4   1
   1   1   1 298922. 11123.4   2
  -1   1  -2 184075. 8888.27   7
  -1   1  -2 196116. 10431.8   1
  -1   1  -2 175179. 9854.30   5
   1   1   2 178268. 9706.40   8
  -1   1  -2 170970. 7993.87   3
   1   1   2 178169. 9300.01   2
  -1   1  -3 30991.0 3973.28   7
  -1   1  -3 36451.5 5160.54   1
  -1   1  -3 11262.1 2575.65   3
  -1   1  -3 22391.3 4278.75   5
   1   1   3 14975.5 3035.33   8
   1   1   3 14812.5 2577.20   3
   1   1   4 21570.5 3375.02   3
  -1   1  -4 21647.2 3497.13   7
  -1   1  -4 16248.6 3687.53   1
   1   1   4 15639.9 1383.65   9
   1   1   4 15717.1 3245.61   4
  -1   1  -4 15676.5 3645.37   3
  -1   1  -4 18798.0 2657.53   4
  -1   1  -5 173062. 12292.5   3
  -1   1  -5 160711. 10437.4   7
   1   1   5 161073. 5347.19   9
   1   1   5 162912. 11157.3   4
  -1   1  -5 168329. 8730.03   4
   1   1   5 189008. 11176.7   3
  -1   1  -5 149978. 12177.4   1
   1   1   5 186551. 10788.9   7
   1   1   6 100845. 8252.11   7
   1   1   6 94305.6 8500.29   4
  -1   1  -6 96294.9 10041.2   3
  -1   1  -6 92535.1 6797.03   4
  -1   1  -7 21512.6 5175.19   3
   1   1   7 22940.5 4098.72   7
   1   1   7 17953.7 3798.21   4
  -1   1  -7 21052.3 3475.63   4
  -1   1  -8 47704.2 7778.40   3
  -1   1  -8 54645.1 5906.63   6
   1   1   8 51383.8 6663.37   7
  -1   1  -8 65502.4 6448.22   4
   1   1   8 52960.8 6771.19   4
   1   1   9 9281.75 2988.22   4
   1   1   9 6800.84 2669.72   7
  -1   1  -9 3942.90 1799.48   4
  -1   1  -9 2974.70 1241.22   3
  -1   1  -9 6028.70 2130.34   6
  -1   1 -10 1677.90 1914.21   3
  -1   1 -10 2561.87 1410.13   6
   1   1  10 5594.74 2658.06   4
   1   1  10 2155.59 1459.77   7
   1   1  11 3574.84 1951.08   7
  -1   1 -11 3704.60 1808.46   6
  -1   1 -11 3928.69 1529.16   3
   1   1  11 2603.87 1379.08   4
   1   1  12 7948.39 3051.01   7
  -1   1 -12 5046.46 2771.42   3
  -1   1 -12 7974.04 2805.79   6
   1   1  12 2432.74 1954.60   4
   1   1  13-37.2944 1642.54   4
  -1   1 -13 3708.30 2013.37   6
  -1   1 -13-778.307 1533.78   3
   1   1  13 3647.71 2122.45   7
   1   1  14 2600.75 3025.13   4
   1   1  14 1543.53 1431.23   7
  -1   1 -14 1530.25 1849.23   3
   1   1  15-112.010 401.328   7
  -1   1 -15 1083.62 1504.77   3
   1   1  15 838.001 2592.71   4
  -1   1 -16-403.747 957.402   3
  -1   1 -17 2432.68 2453.31   3
  -1   2  19 6846.26 5105.32   4
  -1   2  18-450.387 1270.77   4
   1   2 -17-4245.19 3351.37   3
  -1   2  17 4014.37 6292.37   4
  -1   2  16 234.147 839.737   4
   1   2 -16-216.127 2267.66   3
  -1   2  15-718.192 1392.44   4
   1   2 -15-100.582 2530.62   3
   1   2 -14-5676.77 3616.42   3
  -1   2  14-3449.09 2878.47   4
  -1   2  14-1218.41 1408.60   1
   1   2 -13 6713.27 4226.58   3
  -1   2  13 4614.34 2589.16   1
  -1   2  13 3405.46 2702.03   4
   1   2 -12 2161.42 2152.82   3
  -1   2  12 1179.21 1232.90   1
  -1   2  12 4357.11 2879.15   4
  -1   2  11 3317.52 2374.72   4
  -1   2  11 717.953 555.386   7
  -1   2  11 640.474 852.222   1
   1   2 -11 2928.02 3444.16   3
   1   2 -10 9930.95 5007.86   3
  -1   2  10 3711.35 1219.20   7
  -1   2  10 3099.33 1749.28   1
  -1   2  10 5731.09 2865.39   4
  -1   2   9 4829.53 2858.89   4
  -1   2   9 3488.46 1144.53   7
  -1   2   9 6837.14 2418.03   1
  -1   2   8-440.661 748.419   4
  -1   2   8 762.694 506.450   7
  -1   2   8 742.662 728.795   1
  -1   2   7 13520.2 4045.63   4
  -1   2   7 4306.72 1196.80   7
  -1   2   7 13072.0 2795.77   1
   1   2  -7 13303.3 5035.11   3
   1   2  -6 41152.4 7408.21   3
  -1   2   6 33644.1 6370.89   4
  -1   2   6 35573.3 4086.58   1
  -1   2   5 22312.5 2771.04   1
   1   2  -5 11703.0 3628.90   3
  -1   2   5 16768.8 4320.69   4
   1   2  -4 8464.52 3747.10   7
   1   2  -4 16481.3 3786.25   3
  -1   2   4 14589.7 2778.58   8
  -1   2   4 11901.3 3736.77   4
  -1   2   4 13749.3 2778.45   9
  -1   2   4 11302.4 2912.00   3
  -1   2   4 13346.4 1692.83   1
  -1   2   3 5373.94 1569.07   8
   1   2  -3 15184.4 4444.64   1
   1   2  -3 7883.83 2571.48   3
  -1   2   3 4482.61 2385.70   6
  -1   2   3 11424.9 3279.51   4
  -1   2   3 10413.3 2527.00   9
   1   2  -2 76130.9 7371.72   3
  -1   2   2 65914.0 3676.32   2
  -1   2   2 92178.7 8361.08   6
  -1   2   2 90327.5 7669.55   5
  -1   2   2 83303.5 8640.04   4
  -1   2   2 85197.9 6919.72   9
  -1   2   2 85381.2 6520.91   8
  -1   2   2 82073.4 6320.30   7
   1   2  -1 31298.8 5113.12   2
  -1   2   1 25644.1 4117.66   6
   1   2  -1 31546.0 5457.74   8
  -1   2   1 28866.4 3851.99   8
  -1   2   1 27654.0 4175.77   5
  -1   2   1 29067.2 4050.61   9
  -1   2   1 27379.5 2867.21   2
  -1   2   1 35675.5 2933.62   1
  -1   2   1 35312.0 4275.05   7
  -1   2   0 15351.5 2902.27   7
   1   2   0 15799.2 3650.55   8
  -1   2   0 15034.2 2873.45   9
  -1   2   0 12945.7 2952.77   5
  -1   2   0 14467.1 2822.45   6
   1   2   0 17341.4 3142.93   2
  -1   2   0 14762.9 2351.57   1
  -1   2  -1 136405. 8053.02   6
  -1   2  -1 142287. 9253.08   7
   1   2   1 138850. 10637.3   8
  -1   2  -1 135377. 9478.59   5
  -1   2  -1 133506. 8347.23   1
   1   2   1 135075. 7880.52   2
  -1   2  -2 58193.8 6089.15   7
  -1   2  -2 57781.8 6465.77   5
  -1   2  -2 57447.9 4861.15   6
   1   2   2 55102.8 5253.12   2
  -1   2  -2 58530.7 6271.41   1
   1   2   2 54656.3 6748.90   8
  -1   2  -3 74571.0 6898.31   3
  -1   2  -3 74099.5 7648.28   5
   1   2   3 79432.6 8274.62   8
  -1   2  -3 81507.4 8160.74   1
  -1   2  -3 65829.6 6738.07   7
  -1   2  -3 69477.8 5426.15   6
  -1   2  -4 22010.2 4285.24   3
  -1   2  -4 33630.9 5746.98   1
   1   2   4 26201.9 5026.57   8
   1   2   5 69712.0 9074.75   4
  -1   2  -5 76465.0 8677.54   3
   1   2   5 76461.7 5082.25   9
   1   2   5 76330.3 8484.00   8
  -1   2  -6 45637.4 7731.33   3
   1   2   6 46490.4 4053.71   9
   1   2   6 58246.6 8452.06   4
  -1   2  -7 29158.1 5252.12   4
  -1   2  -7 28465.8 6529.94   3
   1   2   7 34098.9 6608.34   4
   1   2   7 28638.6 3283.88   9
   1   2   7 34017.9 5738.64   7
   1   2   8 2145.42 1366.40   7
   1   2   8 1436.79 750.065   9
  -1   2  -8 2271.58 897.175   6
  -1   2  -8 6246.64 4256.44   3
   1   2   8 3715.34 2128.99   4
  -1   2  -8 2008.60 1512.87   4
   1   2   9 9385.69 2939.64   7
  -1   2  -9 10631.7 2092.93   6
   1   2   9 8561.62 1945.97   9
   1   2   9 8523.51 3160.18   4
  -1   2  -9 7778.25 2542.36   4
  -1   2  -9 13449.2 6060.03   3
   1   2  10 2561.14 1059.36   9
  -1   2 -10 2662.41 1135.78   6
   1   2  10 2562.47 1545.33   4
  -1   2 -10 7631.20 5175.16   3
   1   2  10 3935.21 2071.81   7
   1   2  11 11069.3 3941.22   4
  -1   2 -11 12688.5 2726.56   6
  -1   2 -11 18569.4 6309.77   3
   1   2  11 7569.95 2966.41   7
   1   2  12 2204.80 1590.25   7
  -1   2 -12 7002.66 3853.14   3
   1   2  12 3993.57 2420.60   4
   1   2  13 2317.90 1946.30   4
  -1   2 -13 779.217 1397.32   3
   1   2  13 2172.00 1633.79   7
   1   2  14 776.664 1002.24   7
   1   2  14 2751.65 2256.27   4
   1   2  15-5626.39 3452.76   4
  -1   2 -15-4787.80 3437.30   3
  -1   2 -16-6904.73 4245.37   3
   1   2  16-3972.75 3095.34   4
  -1   2 -17-1209.71 1828.29   3
  -1   3  18-8493.79 5524.12   4
  -1   3  17-7776.45 5020.90   4
   1   3 -16-4889.51 3828.33   3
  -1   3  16-2611.53 2764.97   4
   1   3 -15-578.922 3595.23   3
  -1   3  15-2891.27 2755.51   4
   1   3 -14 5775.59 4945.16   3
  -1   3  14 6841.42 4028.17   4
  -1   3  13 12601.3 5342.75   4
   1   3 -13 7139.99 6304.97   3
  -1   3  12 15633.3 5691.36   4
   1   3 -12 25722.7 8780.92   3
  -1   3  11 39449.3 8722.55   4
   1   3 -11 39612.7 10272.7   3
  -1   3  10 2966.65 1231.08   7
  -1   3  10 10427.9 4310.22   4
  -1   3   9-77.6385 358.846   4
   1   3  -9 3455.82 4727.08   3
  -1   3   9-656.895 605.722   7
  -1   3   8 3730.43 2582.22   4
   1   3  -8 15895.9 5665.45   3
  -1   3   7 11146.1 4224.77   4
   1   3  -7 12888.9 4691.28   3
   1   3  -6 7683.29 3330.64   3
  -1   3   6 10307.1 4131.23   4
  -1   3   5 3047.34 1558.48   8
   1   3  -5 7753.58 3495.81   3
  -1   3   5 8083.68 3495.98   4
   1   3  -4 257.133 1939.53   3
  -1   3   4 3003.88 2668.95   4
  -1   3   4 1780.88 1175.31   8
  -1   3   3 6749.14 2201.98   7
  -1   3   3 14237.3 4403.14   4
   1   3  -3 8272.34 2910.98   3
  -1   3   3 10970.5 3173.47   8
  -1   3   2 13863.1 3347.39   8
  -1   3   2 10852.6 2924.88   7
   1   3  -2 8882.45 3840.88   1
   1   3  -2 12576.0 2507.44   5
  -1   3   2 13106.0 4134.36   4
  -1   3   2 13428.5 3314.10   5
  -1   3   1 59265.3 6917.20   5
   1   3  -1 66196.4 8412.37   2
  -1   3   1 63828.9 4691.40   1
  -1   3   1 49801.0 6447.18   7
  -1   3   1 61833.2 7481.36   8
   1   3  -1 71363.1 9625.22   8
   1   3  -1 62040.3 4989.59   5
  -1   3   0 11304.9 3254.88   8
  -1   3   0 14663.5 3349.90   6
   1   3   0 17101.5 3552.39   2
   1   3   0 11929.7 1906.56   5
  -1   3   0 12662.9 3292.13   5
   1   3   0 15383.1 4245.81   8
  -1   3   0 12968.6 2650.92   1
   1   3   1 4968.52 2874.23   8
   1   3   1 3171.87 1419.12   2
  -1   3  -1 5682.35 1889.64   1
  -1   3  -1 5047.27 2014.36   5
  -1   3  -1 6520.97 2056.41   6
   1   3   1 1688.09 940.594   5
  -1   3  -2 29626.3 4877.13   1
  -1   3  -2 29756.4 4170.76   6
   1   3   2 29233.3 4111.06   2
   1   3   2 27209.8 5637.88   8
  -1   3  -3 18211.5 4239.47   3
   1   3   3 18957.9 4822.66   8
  -1   3  -3 17719.9 4088.02   1
   1   3   3 9883.48 3206.54   2
  -1   3  -3 21640.4 3283.81   6
  -1   3  -4 16166.2 2570.14   6
  -1   3  -4 16036.5 4056.43   3
   1   3   4 19321.4 4855.90   8
  -1   3  -5 58580.0 7974.32   3
  -1   3  -5 48673.7 3959.88   6
   1   3   5 45710.2 7496.46   8
   1   3   6 34618.9 7827.78   4
  -1   3  -6 30582.1 2638.14   6
  -1   3  -6 29619.8 6310.75   3
   1   3   6 36629.2 6972.19   8
   1   3   7 26143.6 6955.25   4
  -1   3  -7 27134.0 6306.18   3
  -1   3  -8 1993.17 2752.01   3
   1   3   8 3489.19 1400.34   9
   1   3   8 3894.24 2688.21   4
   1   3   9 2456.63 1707.89   7
   1   3   9 1952.48 1056.85   9
   1   3   9 1789.30 1773.79   4
   1   3  10 22470.1 6432.41   4
  -1   3 -10 28964.2 8750.97   3
   1   3  10 11897.0 3936.96   7
   1   3  11 5587.87 2497.18   7
   1   3  11 1608.40 1669.29   4
   1   3  12 2649.71 2161.88   4
   1   3  12 1115.63 1150.44   7
  -1   3 -12 2186.03 5560.34   3
   1   3  13 7.06270 1374.37   7
  -1   3 -13-1285.07 1895.10   3
   1   3  13-217.999 631.574   4
  -1   3 -14-591.141 1655.76   3
   1   3  14 21.7066 206.004   4
   1   3  15 1276.31 1650.40   4
  -1   3 -15-3765.10 3358.82   3
   1   3  16 7283.69 4154.95   4
  -1   3 -16-6965.02 4647.67   3
  -1   4  16 5281.39 3988.24   4
  -1   4  15 728.175 1417.66   4
   1   4 -15 1559.38 3003.27   3
  -1   4  14 1292.46 1819.70   4
   1   4 -14 3267.05 3613.78   3
   1   4 -13 10505.9 5688.17   3
  -1   4  13-26.5996 252.823   4
  -1   4  12 3260.90 2736.05   4
   1   4 -12 1970.13 3651.23   3
  -1   4  11 3945.84 2952.59   4
   1   4 -11 6159.37 5984.05   3
   1   4 -10 20078.0 8170.18   3
  -1   4  10 7920.50 4051.48   4
   1   4  -9 743.277 1767.94   3
  -1   4   9-1938.26 2023.39   4
  -1   4   8 1570.77 1892.11   4
   1   4  -8 4289.38 2186.81   3
   1   4  -7 4138.44 2474.32   3
  -1   4   7 6096.78 3531.13   4
   1   4  -6 8218.61 4050.53   3
  -1   4   6 4129.34 2162.75   8
  -1   4   6 4161.35 2881.39   4
  -1   4   5 4271.95 2868.88   4
   1   4  -5 2365.78 2365.09   3
  -1   4   5 1843.83 1437.96   8
  -1   4   4 4917.42 3236.92   4
   1   4  -4 7471.16 3330.99   3
  -1   4   4 5953.52 2902.83   8
  -1   4   3 5306.11 3009.71   4
   1   4  -3 309.906 1820.46   3
  -1   4   3 8188.82 3080.43   8
   1   4  -3 6842.11 2180.53   5
   1   4  -2 6461.77 2121.31   5
  -1   4   2 2755.13 2141.10   8
   1   4  -2 9839.99 4079.86   8
  -1   4   1 2112.94 1066.99   1
   1   4  -1 1816.53 1338.96   2
  -1   4   1 5211.92 3196.69   8
  -1   4   1 3141.18 1108.11   2
   1   4  -1 2520.48 1081.15   5
   1   4  -1 7399.08 3417.76   8
  -1   4   0 8163.00 2357.42   1
   1   4   0 6404.91 2370.63   2
  -1   4   0 7673.00 2998.27   8
   1   4   0 6058.03 3026.10   8
   1   4   0 8225.40 1785.05   5
   1   4   1 22684.1 3568.96   5
   1   4   1 32190.0 7068.51   8
   1   4   1 32731.6 4705.44   2
  -1   4  -1 28091.6 5900.48   8
  -1   4  -1 27155.7 4624.80   1
   1   4   2 8330.00 2337.75   2
  -1   4  -2 12558.9 3063.34   6
   1   4   2 12996.2 4504.11   8
  -1   4  -2 11693.8 3276.78   1
   1   4   3 8982.27 2239.21   2
   1   4   3 20974.5 5972.39   8
  -1   4  -3 23634.3 4016.69   6
  -1   4  -4 8784.52 3012.34   3
  -1   4  -4 6466.96 1882.24   6
   1   4   4 5568.40 3472.03   8
  -1   4  -5 15698.0 2612.93   6
  -1   4  -5 16077.5 4689.08   3
   1   4   5 14685.5 4841.32   8
   1   4   6 3020.57 2574.37   4
  -1   4  -6 1594.15 663.117   6
   1   4   6 2042.83 1786.29   8
   1   4   7 3257.02 2281.33   8
  -1   4  -7 1663.42 797.823   3
   1   4   7 2892.24 2589.01   4
  -1   4  -8 2587.16 2639.62   3
   1   4   8-437.364 1025.36   4
  -1   4  -9 2540.04 2943.40   3
   1   4   9 2439.38 2424.23   4
   1   4  10 1160.51 1659.89   4
  -1   4 -10 4612.08 4148.24   3
   1   4  11-1452.93 1424.46   7
  -1   4 -11 3113.38 3389.52   3
   1   4  11 2205.40 2264.67   4
   1   4  12-519.399 1090.09   4
   1   4  12 1258.03 1301.74   7
  -1   4 -12 4331.31 5698.28   3
   1   4  13 1013.22 1521.11   4
  -1   4 -13 12173.9 6846.66   3
   1   4  14 206.827 693.635   4
  -1   4 -14 5448.69 4570.26   3
   1   4  15-107.223 507.962   4
  -1   4 -15 5061.31 4081.02   3
   1   4  16 649.478 1288.42   4
  -1   5  14 6714.77 4457.52   4
   1   5 -14 8804.62 6641.42   3
  -1   5  13-396.831 1065.82   4
   1   5 -13 11425.4 6188.79   3
  -1   5  12 2229.07 2492.12   4
   1   5 -12 11349.2 6335.81   3
  -1   5  11 5475.52 3872.83   4
   1   5 -11 8177.47 5360.77   3
   1   5 -10 2645.95 3704.71   3
  -1   5  10 890.938 1554.09   4
   1   5  -9 3082.35 3273.60   3
  -1   5   9 616.103 1287.39   4
  -1   5   8 2393.19 2524.16   4
   1   5  -8 960.860 1192.81   3
  -1   5   7 2276.73 2443.59   4
   1   5  -7 3451.49 2139.04   3
  -1   5   7 1055.30 1259.15   8
  -1   5   6 6986.22 4221.95   4
  -1   5   6 7484.84 3333.58   8
   1   5  -6 7861.63 4774.73   3
  -1   5   5 967.244 1546.76   4
   1   5  -5 1400.89 2020.08   3
  -1   5   5-99.0095 384.519   8
   1   5  -4 5314.57 3552.10   8
  -1   5   4 4293.77 3185.20   4
   1   5  -4 567.168 981.847   3
  -1   5   4 1219.57 1358.16   8
  -1   5   3-354.654 895.270   4
   1   5  -3 647.918 1177.37   8
   1   5  -3-2826.16 3209.08   3
  -1   5   3-33.4491 225.090   8
   1   5  -2 1241.64 1560.40   8
   1   5  -2 96.9442 263.933   5
  -1   5   2 738.445 1424.46   8
  -1   5   1 667.464 529.114   2
   1   5  -1 3150.95 2406.02   8
   1   5  -1 774.471 677.980   5
  -1   5   1 708.277 547.966   2
  -1   5   1 2525.30 1927.81   8
   1   5   0 522.416 705.433   2
  -1   5   0 2424.91 1506.24   1
   1   5   0 4934.26 2957.59   8
  -1   5   0 2497.72 2296.70   8
   1   5   0 3918.38 1422.99   5
   1   5   1 18293.5 5798.64   8
  -1   5  -1 17848.3 4286.74   1
  -1   5  -1 16599.7 5086.43   8
   1   5   1 12751.5 2691.66   5
   1   5   1 9858.57 2645.26   2
   1   5   2 8066.08 2435.13   2
   1   5   2 9229.62 4088.04   8
  -1   5  -2 10562.9 4176.95   8
   1   5   3 641.623 590.934   2
   1   5   3-235.761 662.342   8
  -1   5  -4 7756.89 3766.39   3
   1   5   4 9424.63 4238.00   8
  -1   5  -5 878.191 2309.59   3
   1   5   5-192.791 612.054   8
  -1   5  -6 15367.9 5532.17   3
   1   5   6 7379.05 3933.37   8
   1   5   7 2302.11 2574.32   4
  -1   5  -7 2869.33 1987.45   3
   1   5   7 5329.60 3249.70   8
  -1   5  -8 5130.49 3544.28   3
   1   5   8-8.30535 612.317   4
   1   5   8 3803.92 2774.44   8
  -1   5  -9 226.964 1028.08   3
   1   5   9 617.926 1376.10   4
  -1   5 -10 10601.0 5192.37   3
   1   5  10 1955.74 2452.39   4
   1   5  11 385.510 1080.24   4
  -1   5 -11 120.002 1988.42   3
   1   5  12-180.793 731.994   4
  -1   5 -12 5655.01 5184.67   3
  -1   5 -13 9203.62 5609.61   3
   1   5  13 1058.83 1755.26   4
  -1   5 -14 10227.4 7211.02   3
   1   5  14-860.022 1575.83   4
   1   5  15 1325.04 1964.66   4
   1   5  16-2433.17 2691.44   4
  -1   6  12-1594.31 2321.03   4
   1   6 -12 4905.08 5327.72   3
  -1   6  11 1125.29 1943.21   4
   1   6 -11 4043.99 5131.01   3
  -1   6  10-2296.05 2393.48   4
   1   6 -10 6728.73 5803.62   3
  -1   6   9 1732.44 2402.77   4
   1   6  -9-3068.41 3151.11   3
  -1   6   8 458.176 1232.71   4
   1   6  -8-2393.41 2399.43   3
  -1   6   8-2025.58 1957.17   8
  -1   6   7 2024.88 1939.84   8
   1   6  -7 6291.28 4225.98   3
  -1   6   7 3289.08 3280.82   4
   1   6  -6 219.070 817.787   8
  -1   6   6-1309.43 2055.86   4
  -1   6   6 2221.38 2028.17   8
   1   6  -6 4113.48 2835.50   3
   1   6  -5 8996.48 5020.17   8
  -1   6   5 5290.85 3137.67   8
  -1   6   5 3868.51 3487.60   4
   1   6  -5 9158.96 5190.12   3
  -1   6   4-181.219 582.312   8
  -1   6   4-1479.25 2123.19   4
   1   6  -4-490.769 1124.95   8
   1   6  -4-603.059 1147.01   3
   1   6  -3-2763.04 2466.83   3
  -1   6   3 399.670 1087.26   4
   1   6  -3 3039.34 2689.71   8
  -1   6   3-386.096 847.719   8
  -1   6   2 3747.29 2621.61   8
   1   6  -2 2738.53 2472.14   8
  -1   6   1 7212.48 3597.88   8
   1   6  -1 6558.35 3738.54   8
  -1   6   0 10141.1 4250.64   8
   1   6   0 9069.07 4521.61   8
  -1   6  -1 1479.77 1633.65   8
   1   6   1 4115.26 2938.73   8
  -1   6  -2 534.757 997.717   8
   1   6   2 4224.62 3014.39   8
  -1   6  -3-1828.16 1892.04   8
   1   6   3 945.131 1445.16   8
  -1   6  -4 4919.64 3222.01   8
  -1   6  -4 399.459 2095.90   3
   1   6   4 2317.65 2293.29   8
   1   6   5 1516.24 1986.43   8
  -1   6  -5 910.743 1855.86   3
  -1   6  -6 1639.22 2500.11   3
   1   6   6-434.043 1205.00   4
   1   6   6 2636.32 2492.11   8
   1   6   7 1174.90 1674.73   8
  -1   6  -7 5774.20 4257.43   3
   1   6   7-2115.36 2713.48   4
  -1   6  -8 1942.24 1842.06   3
   1   6   8 1451.26 1877.16   8
   1   6   8 1089.94 1985.44   4
  -1   6  -9 3394.32 3544.14   3
   1   6   9 2024.90 2742.31   4
   1   6   9 619.741 1241.29   8
   1   6  10-817.284 1746.80   4
  -1   6 -10 1312.25 1897.78   3
  -1   6 -11 5170.77 4043.75   3
   1   6  11-618.126 1514.85   4
  -1   6 -12-1090.08 2825.95   3
   1   6  12 30.5302 334.324   4
   1   6  13-1351.81 2204.50   4
  -1   7   9 1347.65 2326.17   4
   1   7  -9-1435.41 3484.38   3
   1   7  -8-1338.11 4329.44   3
  -1   7   8-2305.24 2267.48   8
  -1   7   8-267.853 1038.63   4
   1   7  -8 3946.91 3840.92   8
  -1   7   7-3111.27 3533.46   4
   1   7  -7 760.808 1626.52   8
  -1   7   7 1577.78 1865.68   8
   1   7  -7 6233.23 4415.50   3
   1   7  -6 1370.87 2106.56   8
   1   7  -6 3864.96 4427.90   3
  -1   7   6 2105.29 2903.43   4
  -1   7   6 312.349 829.513   8
  -1   7   5-185.653 856.158   4
  -1   7   5-515.910 1068.03   8
   1   7  -5 1915.73 3226.74   3
   1   7  -5-614.652 1358.42   8
   1   7  -4 1331.94 1931.13   8
  -1   7   4 1072.33 1542.96   8
   1   7  -4-3985.48 3274.65   3
  -1   7   4 2795.24 3290.34   4
  -1   7   3 406.889 1239.15   4
   1   7  -3-539.362 1192.36   8
  -1   7   3-1876.78 2036.95   8
   1   7  -3-839.893 1500.48   3
   1   7  -2-173.600 660.309   8
  -1   7   2 526.333 1388.18   4
  -1   7   2 2436.38 2307.63   8
  -1   7   1 712.909 1236.12   8
   1   7  -1 1114.33 1649.85   8
   1   7   0 7422.07 4234.73   8
  -1   7   0-1155.85 1564.41   8
   1   7   1 1039.36 1592.67   8
  -1   7  -1 1441.67 1749.87   8
   1   7   2-41.4048 321.396   8
  -1   7  -2-432.640 968.734   8
  -1   7  -3-2088.33 2316.56   3
   1   7   3 3075.44 2803.17   8
  -1   7  -3 3118.47 2649.72   8
  -1   7  -4-1676.81 2085.37   3
  -1   7  -4-1320.91 1774.51   8
   1   7   4-659.734 1314.42   8
  -1   7  -5-1358.89 1890.91   3
  -1   7  -5 1595.62 2020.73   8
   1   7   5 37.2137 316.213   8
  -1   7  -6 3601.98 3175.95   8
   1   7   6-1527.51 2041.37   8
   1   7   6-1740.19 2656.82   4
  -1   7  -6 3578.45 3896.27   3
   1   7   7 5858.10 4029.12   8
   1   7   7-1119.83 2160.36   4
   1   7   8-2110.45 3004.08   4
  -1   7  -8 948.276 505.096   3
   1   7   8-4212.32 3446.25   8
   1   7   9-4090.57 3431.92   8
  -1   7  -9-2224.51 3228.41   3
   1   7   9-5845.91 5043.36   4
   1   7  10 1453.47 2516.52   4
   1   8  -5 296.410 978.996   8
  -1   8   5-1931.38 2220.64   8
  -1   8   4 6177.25 5408.39   4
   1   8  -4 2147.70 2562.41   8
  -1   8   4 1635.55 2051.10   8
   1   8  -3 3446.48 3169.35   8
   1   8  -3-446.712 1185.04   3
  -1   8   3-1438.24 2568.40   4
  -1   8   3 1600.28 2030.00   8
  -1   8   2 2021.42 2978.43   4
   1   8  -2-4877.94 3888.50   3
  -1   8   2-1249.43 1784.59   8
   1   8  -2 2491.53 2652.07   8
  -1   8   1 1767.47 2703.68   4
  -1   8   1 4031.95 3192.45   8
   1   8  -1 384.169 1031.28   8
   1   8   0-7.66224 1787.16   8
  -1   8   0 1062.75 1628.72   8
  -1   8  -1-2007.22 2234.62   8
   1   8   1-1565.32 2090.28   8
  -1   8  -2 1071.29 1642.06   8
   1   8   2 1249.85 1880.89   8
  -1   8  -3 851.043 1596.12   3
  -1   8  -3-2088.19 2324.82   8
   1   8   3-1667.56 2198.87   8
  -1   8  -4-1751.22 2174.92   8
   1   8   4 2614.77 2780.97   8
  -1   8  -4 1928.40 2423.65   3
  -1   8  -5 446.796 1131.68   8
   1   8   5 1875.32 2375.57   8
  -1   8  -6 4487.25 3725.34   8
   1   8   6-375.893 1073.89   8
   1   8   7-1563.55 2207.33   8
  -1   8  -7 807.378 1649.27   8
  -1   9  -1-1008.55 1711.79   8
  -1   9  -2-3064.11 2990.70   8
   2  -8  -6-819.647 1714.93   6
   2  -8  -5 154.699 732.797   6
   2  -8  -4 1870.38 2512.12   6
  -2  -8   4-1082.75 1506.37   9
  -2  -8   3 899.441 1370.84   9
   2  -8  -3 1519.64 2241.12   6
  -2  -8   2 544.891 1066.36   9
   2  -8  -2-920.394 1734.44   6
   2  -8  -1 1010.71 1516.93   9
  -2  -8   1-475.325 995.827   9
   2  -8   0-270.524 783.280   9
  -2  -8   0 2900.76 2445.89   9
  -2  -8  -1-375.122 880.853   6
   2  -8   1 1361.39 1754.72   9
  -2  -8  -1-2187.05 2107.95   9
  -2  -8  -2-1452.05 1690.54   9
  -2  -8  -2-2449.84 2319.90   6
   2  -8   2-1932.52 2090.63   9
  -2  -8  -3 1546.23 1894.75   6
  -2  -8  -3 1397.83 1626.52   9
   2  -8   3-522.458 1088.63   9
  -2  -8  -4 3140.42 2771.27   6
  -2  -8  -4 2063.39 1931.32   9
  -2  -8  -5 1159.71 1726.41   6
  -2  -8  -6 142.782 620.604   6
  -2  -7  10 4390.16 3646.02   1
  -2  -7   9 1473.97 2044.19   1
   2  -7  -9 137.573 2431.52   6
  -2  -7   8-275.103 855.874   1
   2  -7  -8 1478.39 2240.00   6
   2  -7  -7 1103.01 1896.36   6
  -2  -7   7-1260.91 1769.44   1
   2  -7  -6 2202.14 2629.52   6
   2  -7  -6 1812.97 1865.37   5
  -2  -7   6 824.766 1380.49   1
  -2  -7   5 1825.06 1985.82   1
   2  -7  -5 967.572 1713.78   6
   2  -7  -5 3447.81 2513.12   5
  -2  -7   4 1149.25 1516.68   1
   2  -7  -4 1887.31 1828.23   5
   2  -7  -4-2520.01 2727.31   6
  -2  -7   3 1654.51 1749.10   1
   2  -7  -3 2221.44 1961.96   5
  -2  -7   2-76.0179 359.911   1
  -2  -7   2 1023.30 1336.06   9
   2  -7  -2 1605.26 1663.51   5
   2  -7  -1 3343.80 3104.34   6
   2  -7  -1 1485.56 1713.17   9
  -2  -7   1 1245.34 1379.60   6
   2  -7  -1 3098.81 2321.91   5
  -2  -7   1-397.300 828.928   9
  -2  -7   0 2037.56 1865.18   9
  -2  -7   0 442.539 852.527   6
   2  -7   0 2228.27 1988.54   5
   2  -7   0 1137.35 1496.42   9
   2  -7   1 875.955 1263.66   5
   2  -7   1-635.596 1117.69   9
  -2  -7  -1-269.325 671.868   9
  -2  -7  -1 661.770 1077.13   6
  -2  -7  -2 2101.21 1844.60   9
   2  -7   2-1516.07 1726.33   9
  -2  -7  -2 1591.50 1721.87   6
   2  -7   3 1083.76 1461.02   9
  -2  -7  -3-1427.86 1492.04   9
  -2  -7  -3 793.387 1251.30   6
  -2  -7  -4 999.298 1218.67   9
   2  -7   4 268.735 729.942   9
  -2  -7  -4-1428.81 1726.76   6
  -2  -7  -5 2817.33 2492.31   6
   2  -7   5-2546.51 2259.33   9
  -2  -7  -5 1564.81 1494.54   9
   2  -7   6 1127.84 1515.35   9
  -2  -7  -6 219.515 715.000   6
  -2  -7  -7-1849.20 2133.06   6
   2  -7   7 520.600 1042.24   9
  -2  -7  -8 3305.09 2931.80   6
   2  -7   8 504.140 1037.97   9
  -2  -7  -9-2138.29 2424.95   6
   2  -7   9 1250.70 1657.01   9
   2  -7  10 2597.43 2422.54   9
   2  -6 -13-757.188 1431.94   5
  -2  -6  12 2749.77 3009.91   1
   2  -6 -12-947.471 1561.01   5
  -2  -6  11 5477.14 4101.22   1
   2  -6 -11 5471.57 3653.30   5
   2  -6 -11 2144.04 2691.05   6
   2  -6 -10 8.90578 829.112   6
   2  -6 -10 683.883 1259.19   5
  -2  -6  10 2499.10 2320.15   1
  -2  -6   9-672.708 1337.48   1
   2  -6  -9 628.547 1389.12   6
   2  -6  -9 2493.69 2338.78   5
  -2  -6   8-170.699 647.790   1
   2  -6  -8-103.550 463.163   5
   2  -6  -8-625.389 1355.39   6
  -2  -6   7 1799.84 2027.18   1
   2  -6  -7 3356.39 3075.34   6
   2  -6  -7 1768.36 1856.48   5
  -2  -6   6 4069.07 2984.21   1
   2  -6  -6 2419.59 2561.32   6
   2  -6  -6 5117.44 3059.49   5
  -2  -6   5 4403.41 3234.73   1
   2  -6  -5 6375.81 4086.95   6
   2  -6  -5 6572.85 3359.89   5
   2  -6  -4-67.5649 331.473   5
   2  -6  -4 35.1728 299.272   6
  -2  -6   4 643.105 1071.10   1
   2  -6  -3-75.8742 435.210   6
  -2  -6   3 305.887 569.155   6
   2  -6  -3 3052.49 2183.29   5
  -2  -6   3 1702.77 1669.76   1
   2  -6  -2-1068.71 1627.50   6
   2  -6  -2-344.112 726.756   5
  -2  -6   2 592.847 829.917   6
  -2  -6   2 284.056 654.068   1
   2  -6  -1 2350.76 1996.02   9
  -2  -6   1 164.127 454.869   6
   2  -6  -1-68.2261 324.249   5
   2  -6  -1 1649.45 2028.83   6
  -2  -6   1 311.738 657.575   1
   2  -6   0 2724.08 2635.56   6
  -2  -6   0 5407.77 2742.46   9
  -2  -6   0 1187.12 1269.42   6
   2  -6   0 2233.98 1877.04   5
  -2  -6   0 2589.54 1821.58   1
   2  -6   0 3971.02 2592.40   9
  -2  -6  -1 411.055 700.382   1
  -2  -6  -1-229.190 577.259   6
   2  -6   1 819.139 1157.65   5
   2  -6   1 1725.08 1721.74   9
  -2  -6  -1 586.159 889.962   9
  -2  -6  -2 2415.03 1935.96   6
  -2  -6  -2 3685.24 2032.94   1
   2  -6   2 6390.30 3730.32   5
   2  -6   2 3981.95 2836.64   9
  -2  -6  -2 3102.05 2011.66   9
  -2  -6  -3 2242.63 1548.19   1
  -2  -6  -3 831.320 986.948   6
   2  -6   3 97.9866 407.137   9
  -2  -6  -3 3350.21 2044.82   9
   2  -6   4 2463.07 2046.44   9
  -2  -6  -4 6152.62 3289.92   6
  -2  -6  -4 3028.73 1902.36   9
  -2  -6  -5 811.776 1232.63   6
  -2  -6  -5 1892.84 1479.65   9
   2  -6   5 119.041 453.126   9
  -2  -6  -6 864.078 1311.94   6
  -2  -6  -6 2473.39 1674.97   9
   2  -6   6 1175.72 1434.99   9
  -2  -6  -7 586.279 1115.19   6
   2  -6   7 731.783 1143.99   9
  -2  -6  -8 2281.53 2271.00   6
   2  -6   8 1640.59 1735.22   9
  -2  -6  -9-813.307 1399.79   6
   2  -6   9 1028.05 1398.60   9
  -2  -6 -10 903.856 1869.00   6
   2  -6  10 3289.39 2543.00   9
   2  -6  11 497.558 1006.07   9
  -2  -6 -11-2089.70 2393.19   6
   2  -6  12-134.856 532.840   9
   2  -6  13-230.932 709.040   9
   2  -6  14 1421.72 1787.43   9
   2  -5 -15 1805.23 2287.64   5
   2  -5 -14 2190.74 2783.93   6
   2  -5 -14-76.7630 459.847   5
   2  -5 -13-1204.37 1998.56   6
  -2  -5  13 4208.87 3789.88   1
   2  -5 -13 486.016 1125.79   5
   2  -5 -12 2777.61 2615.64   5
  -2  -5  12 598.705 1377.17   1
   2  -5 -12 3767.63 3421.64   6
   2  -5 -11 2627.60 2776.17   6
   2  -5 -11-733.293 1303.97   5
  -2  -5  11-710.653 1446.23   1
  -2  -5  10 202.754 741.108   1
   2  -5 -10 4005.42 3335.66   6
   2  -5 -10 3208.07 2644.67   5
  -2  -5   9-41.5547 322.366   1
   2  -5  -9 1975.36 2009.56   5
   2  -5  -9 4115.88 3295.91   6
  -2  -5   8 1902.49 2084.54   1
   2  -5  -8 416.322 1023.34   6
   2  -5  -8-202.038 623.117   5
  -2  -5   7 3068.89 2534.79   1
   2  -5  -7 2699.68 2211.47   5
   2  -5  -7 2241.36 2321.74   6
   2  -5  -6 4194.22 2669.94   5
   2  -5  -6 2741.59 2515.26   6
  -2  -5   6 573.464 1044.69   1
   2  -5  -5 12431.6 5145.92   6
  -2  -5   5 8548.27 2348.37   6
   2  -5  -5 7353.12 3505.53   5
  -2  -5   5 5461.70 3176.08   1
   2  -5  -4 5729.61 3522.34   6
  -2  -5   4 3679.04 1667.26   6
   2  -5  -4 5460.85 2876.47   5
  -2  -5   4 4788.07 2746.29   1
   2  -5  -3 4871.48 3479.13   6
   2  -5  -3 2428.89 1855.11   5
  -2  -5   3 3317.63 2185.38   1
  -2  -5   3 2762.99 1553.99   6
   2  -5  -2 921.027 1390.96   6
  -2  -5   2-237.872 561.228   1
   2  -5  -2-864.445 1087.37   5
  -2  -5   2 1932.86 1349.33   6
   2  -5  -1 111.225 485.808   6
  -2  -5   1 764.053 970.946   1
  -2  -5   1 505.775 721.246   6
   2  -5  -1 345.087 684.915   5
   2  -5  -1 1420.57 1419.08   9
  -2  -5   0 589.679 831.174   1
  -2  -5   0 784.095 934.559   6
   2  -5   0 1311.72 1365.93   9
   2  -5   0-856.376 1089.37   5
   2  -5   0 754.054 1283.67   6
  -2  -5  -1 2206.59 1586.67   1
  -2  -5  -1 2006.22 1551.62   6
   2  -5   1 1740.49 1585.22   5
   2  -5   1 3141.00 2116.54   9
  -2  -5  -2 1012.71 1142.36   6
  -2  -5  -2 2335.30 1634.85   1
  -2  -5  -2 1174.39 1095.97   9
   2  -5   2 2996.29 2133.53   5
   2  -5   2 2014.42 1694.98   9
   2  -5   3 5677.12 3013.05   5
   2  -5   3 5632.41 2835.25   9
  -2  -5  -3 874.160 1018.26   1
  -2  -5  -3 4360.48 2063.19   9
  -2  -5  -3 3007.95 2038.28   6
   2  -5   4 2979.10 2069.75   9
  -2  -5  -4 3155.38 1717.98   9
  -2  -5  -4 564.403 847.334   1
  -2  -5  -4 3549.01 2167.87   6
  -2  -5  -5 1006.84 1261.80   6
  -2  -5  -5 186.107 407.643   2
  -2  -5  -5 871.794 889.500   9
   2  -5   5 1458.06 1453.68   9
  -2  -5  -6 934.093 1258.01   6
   2  -5   6 1702.99 1582.32   9
  -2  -5  -6 1525.40 1230.92   2
  -2  -5  -6 2514.12 1456.55   9
  -2  -5  -7 5785.63 3241.92   6
   2  -5   7 4295.90 2547.88   9
   2  -5   7 4329.13 3047.34   1
  -2  -5  -8-424.071 908.386   6
   2  -5   8 2503.52 2430.65   1
   2  -5   8 257.552 632.607   9
   2  -5   9 1501.01 1972.08   1
   2  -5   9 1168.37 1369.97   9
  -2  -5  -9 2146.14 2117.86   6
  -2  -5 -10-515.040 1075.57   6
   2  -5  10-803.329 1510.09   1
   2  -5  10-304.675 712.675   9
  -2  -5 -11 233.693 751.156   6
   2  -5  11 1279.13 1489.25   9
   2  -5  12 3124.02 2374.48   9
  -2  -5 -12 387.697 1002.64   6
   2  -5  13 1380.30 1609.92   9
  -2  -5 -13-1851.91 2270.10   6
   2  -5  14 3638.23 2664.30   9
   2  -4 -16 4225.28 3551.35   5
   2  -4 -16 2488.05 3019.06   6
   2  -4 -15 3638.48 3514.23   6
  -2  -4  15 792.845 1734.32   1
   2  -4 -15 2313.46 2558.64   5
   2  -4 -14 3950.48 3529.41   6
   2  -4 -14 2529.58 2599.98   5
  -2  -4  14 6064.02 5088.75   1
   2  -4 -13-260.201 874.388   6
   2  -4 -13 1030.71 1609.27   5
   2  -4 -12 10223.9 5289.22   6
  -2  -4  12 4032.15 3507.04   1
   2  -4 -12 1392.97 1809.78   5
   2  -4 -11 6831.17 4187.57   6
  -2  -4  11 7825.89 5001.13   1
   2  -4 -11 10479.8 4791.25   5
   2  -4 -10 18887.1 6832.70   6
  -2  -4  10 6599.62 4120.19   1
   2  -4 -10 14945.9 5511.96   5
   2  -4  -9 5302.45 3511.61   6
  -2  -4   9 3390.40 2812.68   1
   2  -4  -9 5041.90 3080.84   5
  -2  -4   8-714.026 1230.40   1
   2  -4  -8 3878.16 2896.14   6
   2  -4  -8 996.698 1318.76   5
  -2  -4   7 6642.20 1549.12   6
   2  -4  -7 10093.1 3945.76   5
   2  -4  -7 9229.36 4356.63   6
  -2  -4   7 8519.13 4030.90   1
   2  -4  -6 27203.3 6528.90   5
   2  -4  -6 27187.6 7432.54   6
  -2  -4   6 18257.6 5624.78   1
   2  -4  -5 3724.21 2763.69   6
   2  -4  -5 8736.49 3514.47   5
  -2  -4   5 3628.75 2392.43   1
  -2  -4   4 1502.84 1447.53   1
   2  -4  -4 2002.56 1632.60   5
   2  -4  -4 2847.64 2279.56   6
   2  -4  -3 2896.59 2271.02   6
   2  -4  -3 3420.18 2078.29   5
  -2  -4   3 921.539 1084.34   1
   2  -4  -2 10236.9 4252.18   6
  -2  -4   2 8836.16 3257.23   1
   2  -4  -2 7086.57 2899.11   5
   2  -4  -1 3725.34 2099.35   9
   2  -4  -1 5701.01 3200.45   6
  -2  -4   1 4606.36 2290.24   1
   2  -4  -1 5821.58 2635.91   5
   2  -4   0 5666.91 3257.72   6
   2  -4   0 4386.36 2386.65   5
   2  -4   0 3297.10 2140.59   9
  -2  -4   0 2937.68 1821.47   1
  -2  -4  -1 2894.75 1844.06   1
  -2  -4  -1 12730.4 3709.01   6
   2  -4   1 13424.9 4122.98   5
   2  -4   1 14724.2 4288.41   9
  -2  -4  -2 425.158 729.602   1
   2  -4   2 2132.69 1576.77   9
  -2  -4  -2 2321.97 1580.41   6
   2  -4   2 551.391 855.118   5
   2  -4   3 2316.44 2724.84   7
  -2  -4  -3 5195.40 2454.25   6
   2  -4   3 1798.83 1588.02   5
  -2  -4  -3 2530.76 1529.53   2
  -2  -4  -3 3979.80 1771.30   9
   2  -4   3 5327.29 2503.92   9
   2  -4   4 2393.03 1994.75   7
   2  -4   4 3472.70 2022.52   9
  -2  -4  -4 1547.40 1035.76   9
  -2  -4  -4 3082.66 2075.10   6
  -2  -4  -4 1792.56 1354.76   2
   2  -4   5-240.110 640.908   7
  -2  -4  -5 3116.29 2048.29   6
  -2  -4  -5 2033.05 1412.06   2
   2  -4   5 1795.90 1459.21   9
  -2  -4  -5 1268.20 626.035   5
  -2  -4  -5 961.008 805.271   9
  -2  -4  -6 10318.1 3125.86   2
  -2  -4  -6 13369.9 4400.81   6
   2  -4   6 14173.9 5031.42   7
  -2  -4  -6 10405.7 2712.40   9
  -2  -4  -6 10809.1 2491.93   5
   2  -4   6 9598.52 3447.80   9
   2  -4   6 10365.7 4273.22   1
   2  -4   7-478.356 965.019   1
  -2  -4  -7 484.406 685.775   2
   2  -4   7 4749.04 2993.49   7
  -2  -4  -7 2246.07 1931.56   6
   2  -4   7 1923.81 1542.63   9
  -2  -4  -7 2242.67 1324.89   5
  -2  -4  -8 112.641 342.420   2
   2  -4   8 266.037 731.570   7
  -2  -4  -8 157.186 513.617   6
   2  -4   8 383.817 699.781   9
   2  -4   9 1874.85 2011.88   7
  -2  -4  -9 1656.16 1376.67   2
  -2  -4  -9 3140.76 2385.32   6
   2  -4   9 678.252 948.711   9
   2  -4   9 2576.77 2469.22   1
   2  -4  10 51.3564 345.667   7
  -2  -4 -10-1017.18 1134.49   2
   2  -4  10 446.104 1077.18   1
  -2  -4 -10 37.8079 914.050   6
   2  -4  10 877.458 1286.86   9
   2  -4  11 3642.98 3025.26   7
   2  -4  11 1052.46 1235.40   9
  -2  -4 -11 1115.10 1535.56   6
   2  -4  11-47.4093 367.797   1
   2  -4  12-690.174 1368.30   7
  -2  -4 -12 569.374 1141.55   6
   2  -4  12-122.284 431.076   9
   2  -4  13 2210.56 2542.22   7
   2  -4  13 442.584 839.344   9
  -2  -4 -13 1082.79 1637.31   6
  -2  -4 -14-7.40905 140.707   6
   2  -4  14 1385.23 2085.59   7
   2  -4  14 807.450 1159.49   9
  -2  -4 -15-2005.72 2401.91   6
   2  -4  15 158.016 726.812   7
   2  -4  16 168.346 773.349   7
   2  -3 -17 2695.22 3106.48   6
  -2  -3  16 1060.09 2018.24   1
   2  -3 -16-2167.02 2675.09   6
   2  -3 -15 1413.28 2076.27   6
  -2  -3  15 120.784 661.265   1
   2  -3 -14-336.195 974.262   6
  -2  -3  14 346.324 1080.87   1
   2  -3 -14-434.349 1065.70   5
   2  -3 -13-79.6734 456.852   6
  -2  -3  13-52.2017 404.917   1
   2  -3 -12 4905.87 3457.76   6
  -2  -3  12 1686.64 2207.74   1
   2  -3 -12 5722.91 3605.83   5
  -2  -3  11 9814.38 5352.92   1
   2  -3 -11 7146.20 4022.91   6
   2  -3 -11 6992.34 3832.90   5
   2  -3 -10 2061.20 2089.80   6
   2  -3 -10 1736.04 1831.00   5
  -2  -3  10 6.64781 126.538   1
   2  -3  -9 2343.16 2158.27   6
   2  -3  -9 1280.94 1089.84   2
   2  -3  -9 2366.14 2046.60   5
  -2  -3   9 1619.06 1872.83   1
   2  -3  -8 9705.47 4273.37   6
  -2  -3   8 5198.76 1505.98   6
   2  -3  -8 6912.14 2356.10   2
   2  -3  -8 13052.5 4582.63   5
  -2  -3   8 11321.0 4745.64   1
  -2  -3   7 6303.52 1860.46   6
   2  -3  -7 3906.12 2626.34   6
   2  -3  -7 6361.62 2088.81   2
  -2  -3   7 5623.84 3124.63   1
   2  -3  -7 9493.07 3720.70   5
   2  -3  -6 20928.7 6039.34   6
   2  -3  -6 29445.4 6373.04   5
   2  -3  -6 24325.5 4901.32   8
  -2  -3   6 14050.8 4747.61   1
   2  -3  -6 27184.4 3908.21   2
   2  -3  -5-7.28789 56.4450   2
   2  -3  -5-197.255 489.489   5
  -2  -3   5-181.866 500.306   1
   2  -3  -5-19.9445 125.737   8
   2  -3  -5 849.809 1166.45   6
   2  -3  -4 1026.66 632.250   2
   2  -3  -4 2748.23 2057.11   6
  -2  -3   4 1815.36 1501.58   1
   2  -3  -4 1746.86 1121.03   8
   2  -3  -4 2582.50 1706.68   5
   2  -3  -3 554.376 913.179   6
  -2  -3   3-277.596 564.041   1
   2  -3  -3 1497.37 1268.96   5
   2  -3  -2 22601.3 4923.76   5
  -2  -3   2 18528.0 5161.41   1
   2  -3  -2 24149.4 6185.58   6
  -2  -3   1 9069.84 3511.12   1
   2  -3  -1 13974.7 4758.49   6
   2  -3  -1 16200.3 4149.21   5
   2  -3   0 7851.80 2887.38   5
  -2  -3   0 1267.62 1194.46   1
   2  -3   0 8905.84 2790.99   9
   2  -3   0 9391.42 3337.00   7
   2  -3   1 13929.5 4266.85   7
   2  -3   1 8625.15 3196.54   5
  -2  -3  -1 13343.0 3609.21   2
   2  -3   1 6565.47 2596.56   9
  -2  -3  -2-161.419 390.467   2
   2  -3   2 282.784 565.205   5
   2  -3   2 705.687 797.044   9
   2  -3   2 189.256 469.775   7
   2  -3   3 12566.6 4155.71   7
  -2  -3  -3 14713.2 3710.24   2
   2  -3   3 14941.7 4388.82   5
   2  -3   3 10810.1 3267.44   9
   2  -3   4 16948.7 4085.55   9
  -2  -3  -4 15642.1 3633.47   2
   2  -3   4 18604.3 4809.96   7
  -2  -3  -4 13794.2 2574.99   9
   2  -3   5 9496.45 3899.55   7
  -2  -3  -5 10769.4 3044.09   2
  -2  -3  -5 9365.65 2073.74   9
  -2  -3  -5 12645.0 3819.65   6
   2  -3   5 10029.1 3117.15   9
  -2  -3  -6 1521.73 1194.23   2
  -2  -3  -6 2344.09 1781.14   6
   2  -3   6 1475.91 1443.60   7
   2  -3   6 2024.27 1429.62   9
  -2  -3  -7 3086.08 1657.90   2
   2  -3   7 1693.57 1287.07   9
   2  -3   7 1831.92 1670.62   7
  -2  -3  -7 595.570 894.834   6
   2  -3   8 9750.61 3900.51   7
   2  -3   8 3699.09 1976.70   9
   2  -3   8 7808.99 3921.85   1
  -2  -3  -8 6807.58 2814.27   2
  -2  -3  -8 5899.81 2930.99   6
  -2  -3  -9 303.588 625.898   2
   2  -3   9 2559.49 2358.21   1
  -2  -3  -9 2694.61 2060.42   6
   2  -3   9 99.1062 422.248   7
   2  -3   9 311.010 574.783   9
  -2  -3 -10 4226.39 2963.20   6
   2  -3  10-253.384 703.953   7
  -2  -3 -10 1379.74 1399.04   2
   2  -3  10 2316.92 1609.90   9
  -2  -3 -11-800.335 1117.07   2
  -2  -3 -11 475.731 939.214   6
   2  -3  11-1252.36 1633.60   7
   2  -3  12 947.501 1481.84   7
  -2  -3 -12 1035.31 1444.48   6
  -2  -3 -12 1803.55 1748.15   2
   2  -3  13 7895.67 4454.00   7
  -2  -3 -13 4888.55 3276.34   6
  -2  -3 -13 4042.94 2720.81   2
  -2  -3 -14 3871.96 2760.49   2
  -2  -3 -14-1145.18 1654.27   6
   2  -3  14 2179.41 2431.23   7
  -2  -3 -15-668.794 1316.40   6
   2  -3  15 1229.06 1891.94   7
  -2  -3 -16-2340.82 2558.14   6
   2  -3  16 1719.06 2309.96   7
   2  -3  17 5652.73 4314.64   7
  -2  -3 -17-320.175 983.423   6
   2  -3  18-3987.51 3721.28   7
  -2  -2  17-1531.29 2424.01   1
   2  -2 -17-1811.67 2432.27   6
   2  -2 -16-3456.09 3221.24   6
  -2  -2  16-3809.69 3704.44   1
   2  -2 -15 84.2893 482.503   6
  -2  -2  15-291.731 994.297   1
   2  -2 -14 1954.07 2231.17   6
  -2  -2  14 1870.56 2428.81   1
   2  -2 -13 1412.45 1823.55   6
  -2  -2  13 170.395 706.853   1
   2  -2 -12 5868.83 3576.92   6
  -2  -2  12 10268.4 5258.27   1
  -2  -2  11 27295.3 8216.66   1
   2  -2 -11 25155.1 7151.33   6
  -2  -2  10 16652.5 6094.95   1
   2  -2 -10 15587.4 5478.52   6
  -2  -2   9 3489.42 2880.54   1
   2  -2  -9 4158.48 2699.17   6
  -2  -2   9 4428.05 1741.32   6
  -2  -2   8 18598.9 5720.06   1
   2  -2  -8 22982.1 6127.84   6
  -2  -2   8 15397.5 3162.55   6
  -2  -2   7 29976.1 4402.78   6
   2  -2  -7 28775.1 6707.75   6
   2  -2  -7 36482.4 7130.88   5
  -2  -2   7 32308.2 7152.29   1
   2  -2  -7 28216.4 4696.43   8
   2  -2  -7 28722.8 5108.34   2
   2  -2  -6 34469.0 7214.95   6
   2  -2  -6 54518.1 8449.62   5
  -2  -2   6 40442.9 7589.40   1
   2  -2  -6 39033.2 5091.50   8
   2  -2  -6 50427.2 6272.61   2
   2  -2  -5 34088.7 6144.33   5
  -2  -2   5 34288.6 6560.21   1
   2  -2  -5 32339.6 6718.62   6
   2  -2  -5 34158.7 4449.85   8
   2  -2  -5 33447.8 4771.81   2
   2  -2  -4 34687.5 7002.46   6
   2  -2  -4 31707.4 5716.87   5
   2  -2  -4 35830.6 4190.49   8
  -2  -2   4 29286.7 5824.45   1
   2  -2  -4 26739.6 3970.74   2
   2  -2  -3 27862.4 6234.61   6
   2  -2  -3 24783.8 4774.17   5
   2  -2  -3 25025.9 3587.76   2
  -2  -2   3 25077.8 5151.42   1
   2  -2  -3 19323.3 2764.22   8
   2  -2  -2 31512.2 4755.34   7
   2  -2  -2 24043.1 5060.91   4
   2  -2  -2 25808.2 4755.85   5
   2  -2  -2 22866.6 3660.11   2
   2  -2  -1 51351.1 6034.56   7
   2  -2  -1 41113.7 6015.24   5
  -2  -2   1 42145.1 6195.12   2
   2  -2   0 35628.7 5763.41   5
   2  -2   0 44168.2 5657.54   7
   2  -2   1 21740.5 4464.01   5
   2  -2   1 15754.0 3496.66   7
   2  -2   1 15998.3 3535.87   9
  -2  -2  -1 19988.5 4236.49   2
   2  -2   2 25295.9 4142.67   9
   2  -2   2 23845.9 4852.06   5
  -2  -2  -2 23000.1 1914.67   5
   2  -2   2 26179.0 4607.02   7
  -2  -2  -2 24779.0 4339.94   2
   2  -2   3 11087.6 2779.50   9
   2  -2   3 10941.1 3069.67   7
  -2  -2  -3 12664.9 3101.96   2
  -2  -2  -3 12325.0 1851.17   5
   2  -2   3 11178.7 3406.05   5
  -2  -2  -4 3939.42 1867.01   2
   2  -2   4 3436.55 1587.87   9
  -2  -2  -4 4546.32 1070.32   9
   2  -2   4 2383.34 1475.44   7
   2  -2   5 6772.13 2607.08   7
   2  -2   5 6095.47 2106.53   9
  -2  -2  -5 5812.00 2387.25   2
  -2  -2  -6 733.341 859.753   2
   2  -2   6-522.877 760.276   7
   2  -2   6 29.0505 142.864   9
  -2  -2  -7 5817.39 2568.11   2
   2  -2   7 5712.84 2649.52   7
   2  -2   7 5604.83 2058.05   9
   2  -2   8 206.817 526.841   7
  -2  -2  -8 5352.66 2782.87   6
   2  -2   8 2907.04 1490.99   9
  -2  -2  -8 2659.04 1836.27   2
  -2  -2  -9 4540.25 2543.44   2
   2  -2   9 7246.12 3273.10   7
  -2  -2  -9 4185.81 2397.39   6
   2  -2  10 2366.42 1961.91   7
  -2  -2 -10 1554.08 1522.64   6
  -2  -2 -10 4371.74 2961.82   2
  -2  -2 -11-192.602 559.236   6
   2  -2  11 792.964 1190.00   7
  -2  -2 -11 721.518 1127.44   2
  -2  -2 -12 892.731 1259.24   6
  -2  -2 -12-584.231 1063.03   2
   2  -2  12 1630.37 1785.44   7
   2  -2  13 3639.69 3402.85   7
  -2  -2 -13 2535.50 2219.32   6
   2  -2  14-532.720 1111.17   7
  -2  -2 -14 6298.12 3660.13   6
  -2  -2 -15 1403.22 1804.06   6
   2  -2  15 2203.37 2349.41   7
   2  -2  16-1583.55 2062.37   7
  -2  -2 -16-1551.74 1974.66   6
  -2  -2 -16-2408.53 2485.04   2
   2  -2  17 1873.23 2318.93   7
  -2  -2 -17-1210.57 1806.47   6
  -2  -2 -17-1766.47 2189.68   2
  -2  -1  18 3311.28 3532.28   1
   2  -1 -17 331.233 887.577   3
  -2  -1  17-3106.98 3314.28   1
   2  -1 -16-1019.72 1496.89   3
   2  -1 -16 1592.00 2107.62   6
   2  -1 -15 544.852 1178.33   6
   2  -1 -15-685.564 1178.60   3
  -2  -1  15 1624.80 2243.05   1
   2  -1 -14 3438.19 2831.62   6
  -2  -1  14 1387.05 2003.32   1
   2  -1 -14 51.6703 310.531   3
   2  -1 -13 7035.20 3878.86   6
   2  -1 -13 5561.87 3088.47   3
  -2  -1  13 6565.19 4320.95   1
   2  -1 -12 2644.19 2279.53   6
  -2  -1  12 707.716 1320.28   1
   2  -1 -12 438.223 829.779   3
  -2  -1  11 1204.58 1642.06   1
   2  -1 -11 773.309 1182.37   6
   2  -1 -11-142.373 451.769   3
   2  -1 -10 7794.88 3567.25   6
  -2  -1  10 2705.72 2342.27   1
   2  -1 -10 6060.14 2753.19   3
   2  -1  -9 6478.91 3161.88   6
  -2  -1   9 8937.57 2917.31   6
  -2  -1   9 10162.3 4328.83   1
   2  -1  -9 9222.76 3345.07   3
  -2  -1   8 3953.13 1889.40   6
   2  -1  -8 4472.21 2544.35   6
   2  -1  -8 6971.53 2701.80   3
  -2  -1   8 4596.15 2878.47   1
   2  -1  -7 44699.3 6521.40   3
   2  -1  -7 48737.6 8153.75   6
  -2  -1   7 34862.1 5325.25   6
   2  -1  -7 44675.6 7553.86   1
  -2  -1   7 41406.1 7882.87   1
   2  -1  -6 7007.98 2987.56   6
  -2  -1   6 8550.30 2625.33   6
  -2  -1   6 8079.50 3228.48   1
   2  -1  -6 6168.90 2582.39   2
   2  -1  -6 7165.45 2600.92   3
  -2  -1   5 34635.8 5265.58   6
   2  -1  -5 31273.7 4765.04   3
   2  -1  -5 27903.0 5901.60   6
   2  -1  -5 36085.1 6281.65   5
  -2  -1   5 30780.8 5880.35   1
   2  -1  -5 36289.3 5681.67   2
  -2  -1   5 32302.6 4937.86   3
  -2  -1   4 9506.59 3203.48   1
  -2  -1   4 14293.8 3100.04   3
   2  -1  -4 9719.59 2682.78   2
   2  -1  -4 8100.68 2764.76   5
   2  -1  -4 8190.19 2209.20   3
   2  -1  -3 703.882 234.262   4
  -2  -1   3 3258.54 1441.82   3
   2  -1  -3 1668.96 1148.42   2
  -2  -1   3 3077.42 1796.96   1
   2  -1  -3 2233.94 705.472   7
   2  -1  -3 1336.43 982.502   5
   2  -1  -2 117360. 6046.48   7
  -2  -1   2 111706. 7341.51   3
   2  -1  -2 104005. 7792.28   2
   2  -1  -2 107206. 8649.44   5
   2  -1  -2 119908. 9036.22   4
  -2  -1   2 130550. 10590.8   2
   2  -1  -1 10873.8 1991.62   7
   2  -1  -1 9629.36 2438.37   4
  -2  -1   1 13198.2 3268.02   2
   2  -1  -1 8068.62 2421.46   5
   2  -1  -1 9913.72 2441.69   2
   2  -1   0 66323.8 6531.36   2
   2  -1   0 80997.3 6098.09   7
   2  -1   0 67135.3 7189.38   5
  -2  -1   0 73353.4 4931.23   5
   2  -1   0 78918.4 6422.07   4
  -2  -1   0 59799.4 7004.41   8
  -2  -1   0 73979.3 7557.30   2
  -2  -1  -1 31084.3 4696.07   2
  -2  -1  -1 30074.5 4488.72   8
  -2  -1  -1 31756.8 3227.92   5
   2  -1   1 28876.5 3932.96   7
   2  -1   1 29005.4 3493.15   4
   2  -1   1 27307.6 4560.96   5
  -2  -1  -2 3090.49 1608.41   2
   2  -1   2 1910.25 1118.07   5
  -2  -1  -2 1529.89 756.076   5
   2  -1   2 1680.92 1224.99   7
  -2  -1  -2 854.674 1127.52   8
   2  -1   3 59619.6 6523.94   7
  -2  -1  -3 55781.1 5112.49   5
   2  -1   3 51787.7 6507.02   5
   2  -1   3 52732.8 4816.01   3
   2  -1   3 51543.4 4775.21   9
  -2  -1  -3 64357.8 7180.20   8
  -2  -1  -3 62199.0 6932.43   2
   2  -1   4 5361.32 2221.03   7
   2  -1   4 5444.46 1791.03   3
  -2  -1  -4 4687.40 1993.87   2
  -2  -1  -4 4071.17 1476.77   5
   2  -1   4 3260.43 1207.45   9
   2  -1   5 3834.89 1468.39   3
  -2  -1  -5 7833.19 2929.98   2
   2  -1   5 5905.43 2380.60   7
   2  -1   5 4595.27 1449.82   9
   2  -1   6 14590.2 3842.48   7
   2  -1   6 12831.6 3249.12   3
   2  -1   6 10615.7 2224.04   9
  -2  -1  -6 16507.4 4194.47   2
   2  -1   7 7714.44 2924.72   7
  -2  -1  -7 7603.73 2593.48   3
   2  -1   7 7799.81 1941.29   9
  -2  -1  -8 1696.26 1083.76   3
   2  -1   8 1463.51 1299.35   7
   2  -1   9 4033.58 2261.84   7
  -2  -1  -9 2808.55 1828.83   6
  -2  -1  -9 3050.93 1808.65   3
   2  -1  10 3213.79 2114.95   7
  -2  -1 -10 5903.81 2770.39   6
  -2  -1 -10 3457.40 2035.13   3
  -2  -1 -11 2335.49 1820.95   6
   2  -1  11 1275.09 1390.27   7
  -2  -1 -11 1192.34 1260.51   3
   2  -1  12 9078.77 4017.46   7
  -2  -1 -12 9829.02 4020.11   6
  -2  -1 -12 8756.84 3656.71   3
  -2  -1 -13 5024.02 2929.29   6
   2  -1  13 7303.95 3636.68   7
  -2  -1 -13 4577.02 2734.60   3
   2  -1  14 7257.95 3781.93   7
  -2  -1 -14 10025.2 4332.11   6
  -2  -1 -14 6970.59 3560.95   3
  -2  -1 -15 3424.26 2609.40   3
  -2  -1 -15 2686.85 2344.13   6
   2  -1  15 3967.90 2914.61   7
   2  -1  16-96.6790 473.364   7
  -2  -1 -16-829.101 1347.52   3
   2  -1  17 3219.72 2836.66   7
  -2   0  18-2275.42 2792.64   1
  -2   0  17 5365.81 4145.64   1
   2   0 -17-1096.13 1588.55   3
  -2   0  16 565.279 1299.07   1
   2   0 -16 181.851 619.691   3
  -2   0  15 1439.26 2002.18   1
   2   0 -15 59.1783 338.868   3
  -2   0  15 2684.91 3305.64   4
  -2   0  14-1688.53 2087.36   1
   2   0 -14-1124.45 1415.46   3
  -2   0  13 14998.7 6490.34   4
  -2   0  13 7687.16 4428.11   1
   2   0 -13 6767.17 3325.66   3
   2   0 -12 32226.7 7102.05   3
  -2   0  12 29646.4 8257.34   1
  -2   0  12 33043.0 9555.98   4
  -2   0  11 17847.8 6199.03   1
  -2   0  11 26769.6 7902.28   4
   2   0 -11 13466.0 4405.86   3
   2   0 -10 6524.78 1629.28   7
  -2   0  10 4184.84 3072.20   1
   2   0 -10 9205.35 3589.29   3
  -2   0   9 5927.63 3071.68   1
   2   0  -9 7434.52 1706.57   7
   2   0  -9 7712.91 3010.55   3
  -2   0   9 8225.18 4723.00   4
   2   0  -8 589.129 563.232   7
  -2   0   8 4123.59 3511.67   4
  -2   0   8 1016.16 1198.44   1
   2   0  -8 2088.46 1453.39   3
  -2   0   7 96679.0 11132.5   1
   2   0  -7 92525.9 9240.38   3
  -2   0   7 105555. 12716.3   4
   2   0  -6 103402. 6650.99   7
   2   0  -6 111790. 9481.17   3
  -2   0   6 113211. 10310.6   6
  -2   0   6 114370. 11184.7   1
  -2   0   6 123560. 12857.9   4
  -2   0   5 195535. 13256.9   3
   2   0  -5 203084. 11849.3   3
  -2   0   5 190293. 13043.1   6
  -2   0   5 183435. 13405.2   1
  -2   0   5 201222. 15320.8   4
   2   0  -5 193631. 15848.2   2
   2   0  -4 3375.81 1315.62   4
  -2   0   4 5419.46 2253.76   3
  -2   0   4 2759.64 1766.57   6
  -2   0   4 3834.68 1866.26   1
   2   0  -4 5674.49 2383.33   2
   2   0  -4 2924.87 879.805   3
  -2   0   4 8630.77 3488.53   4
   2   0  -3 19690.8 2842.09   3
   2   0  -3 21067.1 4320.94   2
  -2   0   3 17389.4 3667.95   2
  -2   0   3 16192.8 2904.43   3
   2   0  -3 17478.4 3582.09   5
  -2   0   3 17941.1 4021.13   1
  -2   0   3 18458.1 4245.87   4
   2   0  -3 14366.8 3260.64   4
   2   0  -2 117392. 6106.39   3
  -2   0   2 103223. 6261.84   3
   2   0  -2 112886. 8144.42   5
  -2   0   2 108925. 9238.12   2
  -2   0   2 117184. 9616.27   4
   2   0  -2 106168. 8447.05   4
   2   0  -2 103809. 8615.27   2
  -2   0   1 10224.8 1491.86   3
   2   0  -1 9047.41 1149.43   3
   2   0  -1 8206.50 1600.92   8
  -2   0   1 4215.94 1735.64   2
  -2   0   1 11939.5 3039.69   4
   2   0  -1 9205.29 2392.07   2
   2   0  -1 6387.40 1786.90   5
  -2   0   1 10488.4 2366.01   5
   2   0  -1 10961.7 2526.89   4
   2   0   0 68251.9 4770.68   8
  -2   0   0 62264.4 6363.82   2
   2   0   0 70411.0 6148.87   5
   2   0   0 73965.2 5937.12   4
  -2   0   0 71462.6 5985.80   5
  -2   0   0 66028.9 4785.01   8
   2   0   0 66491.2 6548.75   2
   2   0   1 11228.4 2795.94   2
  -2   0  -1 12444.8 2840.57   2
  -2   0  -1 13732.0 2696.11   5
   2   0   1 13534.8 2713.59   5
   2   0   1 6620.61 2524.88   7
   2   0   1 9301.75 1880.06   8
  -2   0  -1 11743.2 2166.95   8
   2   0   1 7683.28 1957.80   4
   2   0   2 13983.6 1944.10   3
   2   0   2 14596.5 2873.49   7
  -2   0  -2 12738.8 2991.52   7
  -2   0  -2 12635.7 3051.18   2
  -2   0  -2 12924.9 1516.00   3
   2   0   2 11451.6 2525.32   5
  -2   0  -2 15022.2 2903.17   5
  -2   0  -2 12353.4 2438.16   8
   2   0   2 11886.2 3078.05   2
  -2   0  -3-362.602 455.402   8
  -2   0  -3-825.888 740.386   7
   2   0   3 1432.64 1093.38   7
   2   0   3 1441.68 1306.42   3
  -2   0  -3 766.699 697.143   5
  -2   0  -3 118.912 681.050   2
  -2   0  -3 176.099 223.682   3
  -2   0  -3 119.364 50.9329   9
   2   0   4 6029.25 2142.62   7
   2   0   4 554.852 432.008   4
  -2   0  -4 2972.26 1865.06   2
   2   0   4 9154.95 2614.63   3
  -2   0  -4 3804.36 1681.20   5
  -2   0  -4 5622.38 1505.87   3
  -2   0  -5 10898.4 2490.32   3
   2   0   5 10163.2 3391.50   7
   2   0   5 10776.9 3196.38   3
   2   0   5 7774.86 1293.36   4
   2   0   6 685.879 1273.18   7
  -2   0  -6 2180.58 1353.55   3
   2   0   6 534.692 311.821   9
   2   0   6 2178.17 752.464   4
   2   0   7 1706.68 1301.47   7
  -2   0  -7 866.235 806.304   3
   2   0   7 427.891 306.961   9
   2   0   7-232.030 642.543   4
   2   0   8 5090.33 1691.88   4
   2   0   8 4524.22 2393.49   7
  -2   0  -8 3448.73 1734.30   3
   2   0   8 3495.29 961.250   9
   2   0   9 9156.82 3377.50   7
  -2   0  -9 4976.51 2343.18   3
   2   0   9 11272.1 3080.08   4
  -2   0 -10 1325.15 1216.26   6
   2   0  10 4503.25 2580.46   4
  -2   0 -10 1212.85 1172.26   3
   2   0  10 1131.52 1204.82   7
   2   0  11 25137.2 5357.78   4
  -2   0 -11 15947.3 4414.55   6
   2   0  11 16875.6 4906.02   7
  -2   0 -11 16969.9 4680.92   3
   2   0  12 37.1910 235.885   7
  -2   0 -12 2099.63 1729.82   3
  -2   0 -12 1127.29 1227.07   6
   2   0  13 937.658 1227.40   7
  -2   0 -13 1726.82 1591.10   6
  -2   0 -13 633.095 1002.84   3
   2   0  14 769.730 1156.12   7
  -2   0 -14 1197.49 1385.60   6
  -2   0 -14 1679.32 1722.28   3
  -2   0 -15-150.323 511.806   6
  -2   0 -15 447.511 937.823   3
   2   0  15 1119.75 1446.06   7
   2   0  16-1620.49 1810.21   7
  -2   0 -16-333.467 852.376   3
  -2   0 -17-20.1919 220.713   3
  -2   1  18 11097.0 6319.52   4
   2   1 -17 13.3765 179.222   3
  -2   1  17 3558.42 3508.33   4
   2   1 -16-947.074 1452.49   3
  -2   1  16-1035.42 1633.65   1
  -2   1  15 2164.91 2272.93   1
   2   1 -15-677.000 1183.46   3
  -2   1  15 2997.18 3629.16   4
   2   1 -14 870.207 1295.39   3
  -2   1  14-976.694 1469.82   1
  -2   1  13 4600.68 3060.74   1
  -2   1  13 4821.76 3805.37   4
   2   1 -13 2139.07 1959.59   3
  -2   1  12-659.859 2310.82   4
  -2   1  12 519.602 987.579   1
  -2   1  11 2643.77 2124.70   1
   2   1 -11-5814.10 3030.78   3
  -2   1  11-1706.44 2795.84   4
  -2   1  10 5765.05 3085.47   1
   2   1 -10 3563.44 1595.58   3
   2   1 -10 2524.24 1563.66   7
  -2   1  10 3645.07 2374.02   4
  -2   1   9 7075.02 3319.55   1
   2   1  -9 6859.67 2845.47   3
   2   1  -9 4992.91 2216.96   7
  -2   1   9 2894.53 1921.97   4
  -2   1   8 5852.12 2663.10   1
   2   1  -8 6572.75 3340.93   3
  -2   1   8 2892.10 1239.87   4
   2   1  -8 2773.52 1860.59   7
   2   1  -7 39899.9 7114.50   7
   2   1  -7 40539.1 7148.20   3
  -2   1   7 45892.7 7663.78   4
  -2   1   7 39600.1 6476.41   1
   2   1  -6 5571.90 3138.95   7
   2   1  -6 7938.91 3590.76   3
  -2   1   6 9889.40 2920.80   1
  -2   1   6 10863.7 3284.26   4
   2   1  -5 31872.1 5703.73   3
  -2   1   5 40914.9 5480.38   3
  -2   1   5 32421.6 5043.02   1
  -2   1   5 36639.5 6102.68   4
  -2   1   4 11684.2 2858.59   1
  -2   1   4 8320.39 2895.73   4
   2   1  -4 10401.4 3281.85   3
  -2   1   4 10487.1 2547.74   3
  -2   1   3 11.6041 50.5687   7
  -2   1   3 894.269 876.134   6
   2   1  -3 2581.86 1676.03   3
  -2   1   3 3148.77 1783.50   4
   2   1  -3 2450.51 1684.91   2
  -2   1   3 2145.33 1374.68   2
  -2   1   3 2677.50 1130.87   3
   2   1  -3 2431.86 1971.36   4
   2   1  -2 115052. 7779.89   3
  -2   1   2 110969. 6411.64   3
  -2   1   2 125745. 10366.7   6
  -2   1   2 126814. 9885.47   5
   2   1  -2 140399. 11183.2   8
  -2   1   2 105778. 8109.72   4
   2   1  -2 147300. 11758.7   2
  -2   1   2 115567. 8969.61   2
   2   1  -1 10021.1 2090.24   5
  -2   1   1 7479.61 1956.70   4
   2   1  -1 11541.5 2172.79   3
  -2   1   1 8968.35 2417.13   2
   2   1  -1 10155.1 2753.83   2
   2   1  -1 11992.0 2824.94   8
  -2   1   1 8950.73 2607.77   5
  -2   1   1 6921.51 1656.04   7
  -2   1   0 62435.7 5578.40   7
   2   1   0 72935.9 7169.47   2
   2   1   0 71320.3 4940.74   5
  -2   1   0 73232.7 7227.85   5
  -2   1   0 69233.2 6676.92   2
   2   1   0 69496.6 6587.15   8
  -2   1   0 66777.4 5238.41   4
  -2   1  -1 30221.7 3835.82   7
   2   1   1 29187.7 4420.23   8
   2   1   1 36450.1 5168.32   2
   2   1   1 32292.4 3233.26   5
  -2   1  -1 28907.6 4606.61   5
  -2   1  -1 29111.0 2927.69   4
  -2   1  -1 33596.4 4911.03   2
  -2   1  -1 25844.2 3327.05   9
   2   1   2 535.354 601.386   8
   2   1   2 1140.40 947.145   2
  -2   1  -2 1772.81 987.620   7
  -2   1  -2 965.534 365.557   3
  -2   1  -2 3488.33 1811.76   2
   2   1   2 668.302 497.663   5
  -2   1  -2 1272.80 540.987   4
  -2   1  -2 622.036 591.373   5
  -2   1  -2 2013.27 915.023   9
  -2   1  -3 56126.3 5488.23   3
   2   1   3 52033.5 4787.25   3
   2   1   3 53890.5 6387.46   8
  -2   1  -3 55522.3 6811.10   5
   2   1   3 53887.0 7303.25   2
  -2   1  -3 45932.6 5519.92   7
  -2   1  -3 49572.2 4501.49   9
   2   1   4 7367.48 2529.73   7
  -2   1  -4 4903.78 2108.68   3
   2   1   4 5779.70 1795.76   3
   2   1   5 8313.78 2771.49   7
  -2   1  -5 7698.88 3099.11   3
   2   1   5 6677.17 2142.20   3
   2   1   6 9980.16 3121.52   7
  -2   1  -6 15789.6 4011.53   3
   2   1   6 16079.6 3596.26   4
   2   1   7 8960.89 2588.90   4
   2   1   7 12497.4 3582.85   7
  -2   1  -7 8617.78 3166.95   3
  -2   1  -7 702.747 452.814   4
  -2   1  -8 718.440 542.975   4
   2   1   8 1312.08 1284.05   7
   2   1   8-237.690 419.836   4
   2   1   9 3804.49 2091.32   7
  -2   1  -9 2173.31 1073.97   4
   2   1   9 3412.69 1689.92   4
  -2   1  -9 1462.83 210.745   3
  -2   1 -10 1614.79 1026.27   4
   2   1  10 4765.17 2534.72   7
  -2   1 -10 1235.36 1320.23   3
   2   1  10 4756.84 2049.61   4
  -2   1 -11 1733.77 1326.32   6
   2   1  11 922.476 1114.87   7
  -2   1 -11 2832.68 720.130   3
   2   1  11 1936.90 1414.14   4
  -2   1 -12 12790.3 3749.19   6
   2   1  12 13987.8 4479.35   7
  -2   1 -12 13883.6 4822.25   3
   2   1  12 10079.4 3393.20   4
   2   1  13 5895.48 3002.27   7
  -2   1 -13 6580.54 3421.70   3
   2   1  13 9479.48 3557.14   4
  -2   1 -13 6912.59 2876.75   6
   2   1  14 5982.13 3118.47   7
  -2   1 -14 7406.58 3729.09   3
   2   1  15 1079.40 1368.11   7
  -2   1 -15 1638.76 1868.21   3
   2   1  16 905.092 1292.56   7
  -2   1 -16 240.842 750.429   3
  -2   1 -17 1087.74 1670.03   3
  -2   2  18 1621.43 4356.23   4
  -2   2  17 3026.47 3329.69   4
   2   2 -16-9149.47 4858.52   3
  -2   2  16 3867.22 3612.21   4
  -2   2  15-2310.62 2671.89   4
   2   2 -15-6641.33 4037.08   3
  -2   2  14 2433.31 4388.10   4
   2   2 -14-6454.33 3912.86   3
  -2   2  14 1344.26 1525.09   1
  -2   2  13 4023.83 2519.12   1
   2   2 -13-1347.77 2522.54   3
  -2   2  13-2388.81 2849.09   4
  -2   2  12 12100.0 5125.05   4
  -2   2  12 13447.6 4398.19   1
   2   2 -12 10640.4 4586.31   3
  -2   2  11 18273.3 4878.02   1
   2   2 -11 24082.2 7276.41   3
  -2   2  11 23722.7 7010.04   4
   2   2 -10 21415.2 7619.80   3
  -2   2  10 12248.0 3792.96   1
  -2   2  10 20851.8 6580.86   4
  -2   2   9 6594.68 3404.13   4
  -2   2   9 5461.58 2395.90   1
   2   2  -9 12095.1 5844.40   3
  -2   2   8 17400.3 4086.75   1
  -2   2   8 21711.7 5679.10   4
   2   2  -8 23105.6 7296.68   3
   2   2  -7 32028.2 7571.74   3
  -2   2   7 38466.0 7156.93   4
  -2   2   7 31530.8 5052.17   1
   2   2  -6 47180.0 8500.93   3
  -2   2   6 47083.0 7606.04   4
  -2   2   6 43749.2 5516.31   1
  -2   2   5 38378.9 2873.75   7
  -2   2   5 37077.3 6478.06   4
   2   2  -5 36306.7 6396.67   3
  -2   2   5 34090.2 4479.09   1
  -2   2   4 32360.9 3185.14   7
   2   2  -4 28046.7 5331.43   3
  -2   2   4 25083.9 4039.05   1
  -2   2   4 32855.3 5840.84   4
  -2   2   3 21804.5 3545.43   2
   2   2  -3 28753.2 4958.89   3
  -2   2   3 24510.5 3073.82   7
  -2   2   3 23414.3 4713.05   4
  -2   2   2 26213.0 3923.22   2
  -2   2   2 20807.2 3080.73   7
   2   2  -2 21097.6 3986.98   3
   2   2  -2 25641.1 5601.64   2
   2   2  -2 25916.6 5662.90   8
  -2   2   2 23497.0 4579.19   4
  -2   2   2 24027.7 2478.15   8
  -2   2   1 44265.3 4794.09   7
  -2   2   1 48657.6 6566.85   6
  -2   2   1 45962.0 6109.86   4
  -2   2   1 36563.8 3702.17   8
   2   2  -1 39166.1 6539.85   8
  -2   2   1 46415.8 5255.09   2
   2   2  -1 52742.6 7115.12   2
  -2   2   0 37964.8 5752.32   6
  -2   2   0 37327.4 4680.79   7
   2   2   0 40515.5 2615.31   5
  -2   2   0 45729.6 5892.62   4
  -2   2   0 42101.6 5344.04   2
   2   2   0 40285.6 6214.51   8
   2   2   0 40395.8 5675.00   2
  -2   2  -1 18857.8 3615.18   7
  -2   2  -1 11833.3 2855.41   4
  -2   2  -1 18936.4 3909.09   6
  -2   2  -1 15267.5 3807.42   1
  -2   2  -1 16688.1 3741.53   2
  -2   2  -1 19647.9 3563.93   9
   2   2   1 19445.8 4338.76   8
   2   2   1 19744.7 3908.40   2
  -2   2  -2 15855.8 3200.11   3
   2   2   2 31147.2 5638.66   8
  -2   2  -2 27245.5 4090.88   9
   2   2   2 25625.9 4650.46   2
  -2   2  -2 27289.0 5016.37   1
  -2   2  -3 14302.0 3075.27   3
  -2   2  -3 11381.1 3437.95   1
   2   2   3 12769.3 3629.34   8
   2   2   3 12819.8 3726.59   2
  -2   2  -4 3713.29 1297.63   3
   2   2   4 4419.67 2369.96   8
  -2   2  -5 7672.02 3001.03   3
   2   2   5 8524.62 3247.63   8
  -2   2  -6 2365.56 2691.14   3
   2   2   7 5240.78 2557.73   4
   2   2   7 5089.14 2662.94   7
  -2   2  -7 10349.5 4587.32   3
  -2   2  -7 8002.29 2432.90   4
   2   2   8 3715.31 2241.23   7
   2   2   8 1824.17 1510.99   4
  -2   2  -8 258.996 1010.01   4
   2   2   9 4407.07 2346.09   4
   2   2   9 3633.62 2061.22   7
  -2   2  -9 4161.36 1566.45   4
   2   2  10 4623.56 2457.17   7
  -2   2 -10 7628.81 4677.68   3
   2   2  10-568.732 834.389   4
   2   2  11 242.936 551.824   4
   2   2  11 1651.72 1492.90   7
  -2   2 -11 2641.63 1427.19   6
  -2   2 -11 257.551 2421.59   3
   2   2  12 882.372 1178.76   7
  -2   2 -12 408.968 1255.21   3
   2   2  12 2446.61 1623.24   4
   2   2  13 2044.13 1770.44   7
  -2   2 -13 3795.84 2743.99   3
   2   2  13 3515.03 2174.93   4
   2   2  14 5753.59 3081.11   4
   2   2  14 1350.94 1482.60   7
   2   2  15 1477.89 1585.95   7
  -2   2 -15-8581.17 4688.06   3
  -2   2 -16 1321.02 1897.07   3
  -2   2 -17 3332.57 3109.71   3
  -2   3  17 831.142 1739.28   4
   2   3 -16-5570.05 4171.16   3
  -2   3  16-4020.20 3640.36   4
   2   3 -15-3875.52 3430.83   3
  -2   3  15-4666.77 3735.39   4
   2   3 -14 165.364 2241.90   3
  -2   3  14-3613.07 3118.56   4
  -2   3  13 9319.82 4756.84   4
   2   3 -13 2799.70 4029.54   3
  -2   3  12 8809.92 4320.51   4
   2   3 -12 6734.99 6315.18   3
  -2   3  11 3777.00 2756.22   4
   2   3 -11 12378.9 6800.44   3
  -2   3  10 2016.82 1933.24   4
   2   3 -10 6042.61 5412.37   3
  -2   3  10 2815.30 1422.56   1
  -2   3   9 553.567 975.293   4
   2   3  -9 5204.36 4534.24   3
  -2   3   9 1222.80 859.152   1
  -2   3   8 9327.23 3832.24   4
  -2   3   8 8112.86 1470.08   7
  -2   3   8 8681.61 2068.86   1
   2   3  -8 8284.76 5621.68   3
  -2   3   7 3598.64 2240.41   4
  -2   3   7 4655.46 1287.95   7
  -2   3   7 5395.70 1468.89   1
  -2   3   6 19492.2 2962.79   7
   2   3  -6 20823.2 5671.06   3
  -2   3   6 20127.9 2534.72   1
  -2   3   6 23427.8 5824.48   4
  -2   3   5-129.643 181.166   1
  -2   3   5 302.505 393.165   7
  -2   3   5-1700.67 1532.11   4
   2   3  -5-291.358 1877.90   3
  -2   3   4 386.856 713.119   4
   2   3  -4 2283.59 2577.84   3
  -2   3   4 721.948 479.185   1
  -2   3   4 2142.29 1111.25   7
  -2   3   4 1631.92 949.657   8
   2   3  -3 1687.32 1757.94   8
  -2   3   3-68.3486 291.401   4
  -2   3   3 749.312 465.163   1
   2   3  -3 1386.42 1403.93   3
  -2   3   3 275.095 418.129   7
  -2   3   3 122.770 233.553   2
  -2   3   3-180.249 764.175   8
  -2   3   2 24902.4 3586.73   2
  -2   3   2 23806.6 5377.35   4
  -2   3   2 23583.7 3866.84   8
   2   3  -2 32046.2 7173.23   8
  -2   3   2 28197.7 4476.70   7
  -2   3   2 18939.6 2768.12   1
  -2   3   1 10153.7 3345.98   4
  -2   3   1 10658.2 2759.41   8
   2   3  -1 11535.2 4196.84   8
  -2   3   1 11049.4 2373.75   1
  -2   3   1 13114.0 2767.59   2
  -2   3   0 6688.23 2184.78   2
  -2   3   0 7538.89 2421.12   8
   2   3   0 8995.01 2910.60   2
  -2   3   0 6108.90 2029.74   1
   2   3   0 10554.9 3749.41   8
  -2   3   0 5474.30 2288.54   4
  -2   3  -1 2384.83 1423.33   4
  -2   3  -1 5351.23 2023.63   1
  -2   3  -1 3378.77 1921.16   2
   2   3   1 5264.30 2081.75   2
   2   3   1 8103.20 3178.90   8
   2   3   2-312.181 519.173   2
  -2   3  -2 874.862 797.203   6
  -2   3  -2-818.543 863.616   1
   2   3   2 1795.13 1512.95   8
  -2   3  -3 11803.2 3423.16   3
  -2   3  -3 14731.8 3156.58   6
   2   3   3 6343.22 2536.57   2
   2   3   3 17916.9 4857.18   8
   2   3   4 16181.0 3987.98   2
  -2   3  -4 13440.7 3100.93   6
  -2   3  -4 19805.7 4492.77   3
   2   3   4 18222.7 5064.15   8
   2   3   5 11078.8 4006.37   8
  -2   3  -5 7703.18 2614.91   6
  -2   3  -5 11126.2 3645.52   3
   2   3   6 1792.58 1591.84   8
  -2   3  -6 482.511 549.144   6
  -2   3  -6 2869.24 2065.15   3
  -2   3  -7 3080.01 3616.15   3
   2   3   7 4862.83 2943.28   4
   2   3   7 1974.47 1710.97   8
   2   3   8 5234.57 3045.26   4
  -2   3  -8 12679.8 5860.71   3
   2   3   9-112.220 403.671   7
  -2   3  -9 3777.09 4015.51   3
   2   3   9 558.132 1012.61   4
   2   3  10 1341.06 1549.29   4
   2   3  10 2276.69 1786.13   7
   2   3  11-1180.83 1433.83   4
   2   3  11 872.003 1110.14   7
   2   3  12 2684.97 1999.05   7
  -2   3 -12 4897.44 3069.48   3
   2   3  12 1521.82 1618.24   4
   2   3  13 2402.72 2049.25   4
   2   3  13 3145.75 2235.91   7
   2   3  14 1366.69 1576.62   4
   2   3  14 1340.67 1502.94   7
  -2   3 -14-932.629 3298.34   3
  -2   3 -15 2739.58 2943.36   3
  -2   3 -16 582.240 2993.90   3
  -2   4  15 2975.87 3010.06   4
   2   4 -15 2681.08 3090.87   3
  -2   4  14 711.904 1409.82   4
   2   4 -14 4789.31 6150.00   3
  -2   4  13 7078.86 4266.09   4
   2   4 -13 11351.2 6896.18   3
  -2   4  12 2261.86 2326.58   4
   2   4 -12 3447.23 5168.71   3
   2   4 -11 11799.2 6690.79   3
  -2   4  11 4314.92 3110.70   4
  -2   4  10 11511.0 4889.74   4
   2   4 -10 19008.5 7618.09   3
  -2   4   9-11.1974 150.819   4
   2   4  -9 10939.4 5776.07   3
  -2   4   8-1014.56 1406.13   4
   2   4  -8 5123.15 3640.56   3
  -2   4   7 8385.08 3711.55   4
   2   4  -7 10768.8 4557.47   3
  -2   4   6 22608.9 6460.00   4
   2   4  -6 15284.9 4824.00   3
   2   4  -5 7865.28 4163.22   3
  -2   4   5 5813.83 3175.47   4
  -2   4   5 8488.69 2655.25   8
   2   4  -4 2528.44 2485.93   8
   2   4  -4 4836.84 2933.34   3
  -2   4   4 2442.26 2010.89   4
  -2   4   4 2516.85 1493.05   8
   2   4  -3 2442.63 2642.14   8
   2   4  -3 325.976 473.270   3
   2   4  -3 1999.85 978.235   5
  -2   4   3 2182.48 1845.80   4
  -2   4   3 2402.10 1494.42   8
   2   4  -2 9892.83 4316.07   8
  -2   4   2 8970.29 3673.39   4
  -2   4   2 8522.16 1936.32   2
   2   4  -2 7853.93 1886.14   5
  -2   4   2 7718.56 2761.98   8
  -2   4   2 7933.63 1768.36   1
  -2   4   1 4468.19 2118.50   8
  -2   4   1 2620.55 1158.22   1
   2   4  -1 3353.81 2399.97   8
  -2   4   1 2750.94 1588.01   2
  -2   4   1 1973.06 1639.51   4
   2   4  -1 3626.99 971.881   5
  -2   4   0 3223.96 1841.03   8
  -2   4   0 2782.13 1465.73   2
  -2   4   0 2076.13 1620.38   4
  -2   4   0 2296.57 1234.39   1
   2   4   0 3714.61 2458.51   8
   2   4   1 12993.5 4760.15   8
  -2   4  -1 11803.7 3092.75   1
  -2   4  -1 8751.48 2832.69   2
   2   4   2 2144.07 1409.47   2
   2   4   2 1973.82 2042.79   8
   2   4   3 3359.03 1808.85   2
  -2   4  -3-482.948 919.346   3
   2   4   3 5079.03 2902.58   8
  -2   4  -4 3033.43 1484.73   6
   2   4   4 814.629 904.951   2
  -2   4  -4 1777.53 1078.22   3
  -2   4  -5 1482.54 985.597   6
   2   4   5 1516.35 1613.28   8
  -2   4  -5 4506.44 2722.07   3
  -2   4  -6 12291.1 4378.36   3
   2   4   6 8555.95 4075.26   8
  -2   4  -7 6397.16 3278.15   3
   2   4   7 3345.82 2452.11   8
   2   4   8-295.484 847.889   4
   2   4   8-970.672 1345.07   8
  -2   4  -9 2337.46 3171.14   3
   2   4   9-284.297 844.698   4
   2   4  10 1397.08 1864.43   4
   2   4  10-563.214 1002.70   7
  -2   4 -10 235.946 1482.39   3
   2   4  11 525.985 935.705   7
   2   4  11 2585.02 2500.06   4
   2   4  12-286.171 689.695   7
   2   4  12-337.062 887.452   4
   2   4  13-2190.25 2233.51   4
   2   4  13 2681.49 2129.14   7
   2   4  14-2674.36 2460.89   4
  -2   4 -14 3419.51 3534.43   3
   2   4  15-1596.94 1915.03   4
  -2   4 -15 21.1155 282.557   3
  -2   5  14 3486.71 3287.35   4
   2   5 -13 921.708 3685.63   3
  -2   5  13 4304.06 3540.39   4
   2   5 -12 2655.52 3761.75   3
  -2   5  12-450.977 1115.80   4
  -2   5  11-520.748 1175.23   4
   2   5 -11 6437.25 4977.33   3
  -2   5  10 28.2049 268.312   4
   2   5 -10 4407.67 2918.61   3
   2   5  -9 2787.18 3608.66   3
  -2   5   9 974.870 1551.69   4
  -2   5   8 2392.80 2545.23   4
   2   5  -8 1202.41 1692.40   3
   2   5  -7 1402.24 2070.89   3
  -2   5   7 4334.40 3174.93   4
  -2   5   6 4621.01 3224.90   4
   2   5  -6 4973.19 3514.92   3
  -2   5   6 633.496 877.712   8
  -2   5   5 8969.29 4414.80   4
   2   5  -5 10583.8 4916.81   3
  -2   5   5 9369.75 3354.87   8
   2   5  -5 10763.3 5672.38   8
   2   5  -4 8899.37 4992.29   8
  -2   5   4 4770.66 3151.00   4
   2   5  -4 3048.96 2765.92   3
  -2   5   4 3144.36 1984.48   8
  -2   5   3 2365.71 2173.49   4
   2   5  -3-449.018 1296.60   3
   2   5  -3 3041.11 2710.99   8
  -2   5   3 2458.67 1778.20   8
  -2   5   2 1182.86 1498.94   4
  -2   5   2 30.9500 89.4656   2
   2   5  -2 2534.22 2362.31   8
  -2   5   2 1890.88 1573.77   8
  -2   5   1 1015.99 738.098   2
  -2   5   1 303.806 740.941   4
  -2   5   1 1210.22 855.680   1
   2   5  -1 2705.47 2355.96   8
  -2   5   1-425.329 751.095   8
  -2   5   0 1339.22 1041.34   2
  -2   5   0 2071.91 1677.56   8
  -2   5   0 2397.81 2038.17   4
   2   5   0 1351.49 1632.32   8
  -2   5   0 795.206 773.320   1
  -2   5  -1 401.656 651.679   2
  -2   5  -1 606.818 924.363   8
  -2   5  -2 1699.36 1587.31   8
   2   5   2 1643.38 1805.13   8
   2   5   3 5181.90 3565.25   8
  -2   5  -4 1876.51 2278.69   3
   2   5   4 2689.20 2355.86   8
  -2   5  -5-697.866 1171.95   3
   2   5   5 23.1488 220.487   8
  -2   5  -6 2538.14 2440.21   3
   2   5   6 1440.91 1756.86   8
  -2   5  -7-366.269 911.733   3
   2   5   7 1499.35 1809.19   8
   2   5   8 447.039 1157.32   4
  -2   5  -8-1276.82 2360.39   3
   2   5   8 2508.81 2370.01   8
   2   5   9 2116.87 2576.78   4
  -2   5  -9 965.539 3209.94   3
   2   5  10 1233.72 1981.35   4
  -2   5 -10 580.425 2728.19   3
   2   5  11 1237.57 1979.01   4
   2   5  11 618.461 1144.93   7
  -2   5 -11 464.301 2423.37   3
   2   5  12 5738.22 4202.72   4
   2   5  12-55.2113 330.849   7
  -2   5 -12 7382.52 5922.86   3
   2   5  13-4187.36 3531.57   4
  -2   5 -13 5950.46 5890.74   3
   2   5  14-388.186 1060.65   4
  -2   5 -14 13536.7 7363.64   3
   2   5  15 4685.35 3661.84   4
  -2   6  11 2422.92 2769.80   4
   2   6 -11 6861.68 5891.09   3
  -2   6  10 2424.43 2733.82   4
   2   6 -10 8231.02 5729.80   3
  -2   6   9-283.246 923.533   4
   2   6  -9 534.248 2248.30   3
  -2   6   8-138.464 638.717   4
   2   6  -8-1038.14 2949.81   3
   2   6  -7 4889.46 2201.95   3
  -2   6   7-1289.33 1927.24   4
  -2   6   7-165.735 509.861   8
   2   6  -7 1899.52 2657.13   8
   2   6  -6 6063.57 4579.44   8
   2   6  -6 5072.41 4617.07   3
  -2   6   6 3012.02 2164.50   8
  -2   6   6 1319.62 1925.99   4
   2   6  -5 9665.24 5557.38   8
  -2   6   5 7183.52 4438.11   4
   2   6  -5 8342.32 4594.54   3
  -2   6   5 4729.40 2725.02   8
  -2   6   4 1446.84 1962.08   4
   2   6  -4 263.637 902.850   3
   2   6  -4 4394.70 3587.26   8
  -2   6   4 1005.08 1269.31   8
   2   6  -3 721.738 1395.33   8
  -2   6   3-107.419 527.928   4
   2   6  -3-941.958 868.152   3
  -2   6   3 2334.63 1951.83   8
  -2   6   2-402.353 1005.57   4
   2   6  -2 2028.62 2256.73   8
  -2   6   2-1852.81 1748.89   8
  -2   6   1 2855.73 2636.32   4
   2   6  -1 968.603 1521.30   8
  -2   6   1-1188.28 1402.89   8
  -2   6   0 71.8957 412.485   4
  -2   6   0 1374.81 1518.56   8
   2   6   0 345.699 895.827   8
  -2   6  -1 2875.56 2223.84   8
   2   6   1-484.863 1059.05   8
  -2   6  -2 3845.31 2620.52   8
   2   6   2 5175.03 3481.46   8
  -2   6  -3 828.651 1249.24   8
  -2   6  -3-4032.86 2937.56   3
   2   6   3-901.189 1465.77   8
  -2   6  -4 255.440 740.301   3
   2   6   4 4504.35 3312.31   8
  -2   6  -5 3068.56 2573.96   3
   2   6   5-1138.03 1685.98   8
  -2   6  -6-777.941 1316.27   3
   2   6   6 1467.24 1930.87   8
  -2   6  -7 15756.5 6134.52   3
   2   6   7 1848.59 2188.84   8
   2   6   8 624.015 1494.25   4
  -2   6  -8-1705.25 3115.43   3
   2   6   8 2252.33 2443.87   8
   2   6   9 445.294 1289.90   4
  -2   6  -9 2385.73 2589.27   3
   2   6   9-1200.04 1808.46   8
   2   6  10-192.003 859.038   4
  -2   6 -10-518.164 3477.10   3
   2   6  11-1927.53 2724.90   4
  -2   6 -11-802.081 1757.10   3
  -2   6 -12 2358.80 2955.01   3
   2   6  12 2234.70 2915.04   4
   2   6  13 3337.78 3520.47   4
  -2   7   8-5026.14 2180.05   4
   2   7  -8-1753.42 2683.26   8
   2   7  -8-7657.27 4843.88   3
   2   7  -7-75.4588 541.840   8
  -2   7   7 928.145 1818.54   4
   2   7  -6 1664.83 2463.07   8
   2   7  -6 3052.96 2939.33   3
  -2   7   6 1309.59 2149.69   4
   2   7  -5 1852.24 2263.53   3
   2   7  -5 4781.15 4032.38   8
  -2   7   5 972.923 1839.91   4
  -2   7   4-1847.33 2514.53   4
   2   7  -4 2195.59 2640.14   8
   2   7  -4-2869.81 2801.09   3
   2   7  -3 2641.16 2803.16   8
  -2   7   3 2899.68 3130.53   4
   2   7  -3-415.614 1063.70   3
  -2   7   3 540.033 1034.25   8
  -2   7   2 173.833 758.040   4
  -2   7   2 597.229 1094.96   8
   2   7  -1 1190.01 1800.45   8
  -2   7   1 543.099 1321.62   4
  -2   7   1 4815.13 3265.02   8
  -2   7   0 95.0355 544.511   4
  -2   7   0 270.366 740.424   8
   2   7   0 1264.60 1839.10   8
  -2   7  -1 316.692 976.011   4
   2   7   1 184.752 702.657   8
  -2   7  -2 176.477 611.482   8
   2   7   2 661.839 2024.48   8
  -2   7  -3 1997.39 2099.55   8
   2   7   3 3817.20 3235.67   8
  -2   7  -4 1034.33 1556.77   8
  -2   7  -4-2428.32 2516.74   3
   2   7   4 564.978 1256.84   8
  -2   7  -5-96.4785 507.420   3
   2   7   5-1073.75 1749.54   8
  -2   7  -5 2456.01 2491.28   8
  -2   7  -6 2738.84 2743.79   3
   2   7   6 2127.32 2491.70   8
   2   7   7 1000.74 2025.73   4
   2   7   7-41.3413 351.045   8
   2   7   8 975.254 2031.59   4
  -2   7  -8-6861.59 4559.16   3
   2   7   8-3464.80 3251.38   8
   2   7   9 618.964 1643.79   4
  -2   7  -9 4404.28 5195.81   3
   2   7   9 382.976 1095.08   8
  -2   8   4 1209.36 2282.71   4
  -2   8   3-806.068 1854.40   4
   2   8  -3 308.837 1005.19   8
  -2   8   2-4543.08 4347.42   4
   2   8  -2-3952.76 3544.20   3
   2   8  -2 1187.59 1932.87   8
  -2   8   1 848.259 1845.67   4
   2   8  -1 4019.08 3511.37   8
  -2   8   0 191.528 856.145   4
   2   8   0 3940.53 3457.35   8
  -2   8  -1-1406.40 2253.59   4
   2   8   1-471.257 1195.19   8
  -2   8  -2 1502.04 1935.05   8
   2   8   2 600.035 1351.32   8
  -2   8  -2 1848.28 2495.77   4
  -2   8  -3 3025.76 3005.59   3
  -2   8  -3-3071.74 2811.32   8
   2   8   3-2863.94 2968.66   8
  -2   8  -4 502.936 1163.32   8
   2   8   4 2050.70 2537.27   8
  -2   8  -5 1997.22 2391.22   8
   2   8   5 2724.65 2948.40   8
  -2   8  -6-953.252 1720.20   8
  -2   8  -7 1390.71 2177.67   8
  -3  -8   3 1821.42 1970.59   9
  -3  -8   2-3083.50 2558.13   9
   3  -8  -1 1436.35 1819.51   5
  -3  -8   1-752.193 1259.95   9
   3  -8   0-980.048 1508.92   5
  -3  -8   0 1077.61 1500.96   9
  -3  -8  -1 838.976 1341.49   6
   3  -8   1-782.215 1356.72   5
  -3  -8  -1 1690.31 1860.52   9
  -3  -8  -2 1987.02 2115.57   6
  -3  -8  -2 5198.33 3193.80   9
  -3  -8  -3 1712.20 2010.23   6
  -3  -8  -4 1151.13 1686.54   6
  -3  -8  -5 2093.24 2327.31   6
   3  -7 -10 764.165 1474.22   5
   3  -7  -9 2325.97 2511.20   5
  -3  -7   9 3109.58 3059.53   1
  -3  -7   8 1703.82 2202.58   1
   3  -7  -8 1612.66 2614.07   6
   3  -7  -8 3455.61 2985.63   5
   3  -7  -7 356.285 1214.44   6
   3  -7  -7 89.0061 467.543   5
  -3  -7   7 2224.55 2438.05   1
  -3  -7   6 2001.55 2239.93   1
   3  -7  -6 474.116 1388.67   6
   3  -7  -6 6038.41 3758.03   5
  -3  -7   5-1314.90 1764.45   1
   3  -7  -5 1424.64 2390.43   6
   3  -7  -5 68.5067 391.549   5
   3  -7  -4 2015.68 2085.17   5
  -3  -7   4-1725.20 1958.89   1
   3  -7  -3 2407.03 2251.98   5
  -3  -7   3-2256.00 2173.92   1
   3  -7  -2 75.1373 395.347   5
  -3  -7   2 3014.63 2440.07   1
  -3  -7   1 1887.78 1743.87   6
   3  -7  -1-311.806 805.098   5
  -3  -7   0-813.198 1179.34   6
  -3  -7   0 652.528 1070.23   9
   3  -7   0 1179.26 1574.49   5
   3  -7   1 555.990 1102.00   9
  -3  -7  -1 2061.36 1929.09   6
   3  -7   1 910.783 1397.32   5
  -3  -7  -1-558.757 976.231   9
  -3  -7  -2-2032.85 1966.17   6
   3  -7   2 1814.22 1997.73   5
   3  -7   2 926.840 1419.73   9
  -3  -7  -2 614.383 1003.08   9
  -3  -7  -3-2623.26 2289.51   6
  -3  -7  -3-1620.12 1579.83   9
  -3  -7  -4-648.239 1168.00   6
  -3  -7  -4-620.234 943.814   9
   3  -7   4 987.709 1465.47   9
  -3  -7  -5-1514.82 1833.41   6
   3  -7   5 1570.86 1853.99   9
  -3  -7  -6 702.491 1283.07   6
   3  -7   6 392.815 932.240   9
   3  -7   7 1285.65 2526.15   9
  -3  -7  -7 1191.03 1718.43   6
  -3  -7  -8-693.629 1350.08   6
   3  -7   8 3183.56 2699.87   9
   3  -7   9 2205.30 2272.93   9
   3  -6 -13 1292.85 2009.69   5
   3  -6 -12-25.1143 274.469   5
  -3  -6  11-2055.00 2548.41   1
   3  -6 -11 2192.97 2514.44   5
  -3  -6  10-1249.29 1925.87   1
   3  -6 -10-575.015 1258.76   5
   3  -6 -10-3503.15 3702.08   6
  -3  -6   9 1354.60 1935.38   1
   3  -6  -9 1444.80 2336.97   6
   3  -6  -9 3583.18 3067.47   5
  -3  -6   8-1224.72 1781.29   1
   3  -6  -8-223.650 906.350   6
   3  -6  -8 928.290 1521.96   5
   3  -6  -7 347.724 1117.51   6
   3  -6  -7 1002.00 1538.09   5
  -3  -6   7 978.863 1536.85   1
   3  -6  -6 1721.41 2467.47   6
   3  -6  -6-2588.69 2402.07   5
  -3  -6   6 600.144 1162.33   1
   3  -6  -5 2456.84 2937.48   6
   3  -6  -5 2160.06 2133.58   5
  -3  -6   5 720.279 1232.65   1
   3  -6  -4-1816.98 1906.62   5
   3  -6  -4 2561.54 2998.19   6
  -3  -6   4 1178.39 1529.04   1
  -3  -6   3 617.664 856.886   6
   3  -6  -3 4338.04 2886.59   5
  -3  -6   3 1046.44 1401.10   1
  -3  -6   2 382.960 699.566   6
   3  -6  -2 139.876 511.761   5
  -3  -6   1-306.835 727.927   1
  -3  -6   1-60.4222 286.920   6
   3  -6  -1-762.840 1192.22   5
  -3  -6   0-487.123 906.372   1
  -3  -6   0 312.212 671.762   6
   3  -6   0-1036.80 1397.52   5
  -3  -6  -1 1870.93 1767.95   1
  -3  -6  -1 4685.01 2676.67   6
   3  -6   1 3450.45 2581.44   5
   3  -6   1 4706.63 2984.84   9
  -3  -6  -2 615.566 1016.01   1
  -3  -6  -2 5557.48 2997.12   6
   3  -6   2 4320.60 2937.92   5
   3  -6   2 6048.39 3377.24   9
  -3  -6  -2 5170.62 2626.45   9
  -3  -6  -3 18.9899 179.975   1
  -3  -6  -3-1804.89 1756.09   6
   3  -6   3 465.121 982.656   5
   3  -6   3-321.884 777.951   9
  -3  -6  -3 2276.57 1686.55   9
  -3  -6  -4 1344.63 1559.13   6
   3  -6   4-987.084 1362.45   9
  -3  -6  -4 2624.74 1899.49   9
  -3  -6  -5 2834.11 2328.00   6
   3  -6   5 1769.47 1827.89   9
  -3  -6  -5-1517.21 1281.48   9
   3  -6   6-115.833 469.522   9
  -3  -6  -6-482.811 989.994   6
  -3  -6  -7 1559.03 1834.66   6
   3  -6   7-53.4473 321.181   9
  -3  -6  -8 1006.22 1521.48   6
   3  -6   8 714.464 1185.54   9
  -3  -6  -9 529.571 1139.24   6
   3  -6   9-2214.08 2111.61   9
  -3  -6 -10-595.504 1248.84   6
   3  -6  10 730.599 1229.38   9
   3  -6  11-2183.68 2156.51   9
   3  -6  12 913.171 1415.61   9
   3  -6  13-1285.13 1704.46   9
   3  -5 -14-2818.23 2912.11   5
   3  -5 -13-3876.01 3927.05   6
   3  -5 -13-3639.14 3237.96   5
   3  -5 -12 2137.47 2835.88   6
  -3  -5  12-522.042 1288.29   1
   3  -5 -12 2012.45 2354.45   5
   3  -5 -11-1445.89 2274.56   6
  -3  -5  11-897.883 1631.44   1
   3  -5 -11-3139.05 2874.05   5
  -3  -5  10 1033.23 1681.78   1
   3  -5 -10 159.740 632.741   5
  -3  -5   9-1690.71 2072.69   1
   3  -5  -9-946.586 1765.99   6
   3  -5  -9 622.306 1219.90   5
   3  -5  -8 2987.43 3088.04   6
   3  -5  -8 8921.08 4446.22   5
  -3  -5   8 1350.64 1779.36   1
   3  -5  -7 111.737 1133.61   6
   3  -5  -7-552.371 1095.32   5
  -3  -5   7 1111.32 1552.94   1
   3  -5  -6 4370.20 3698.17   6
   3  -5  -6 2143.80 2100.58   5
  -3  -5   6 2247.91 2128.80   1
   3  -5  -5 7042.19 4629.37   6
  -3  -5   5 7984.04 3878.64   1
   3  -5  -5 12170.7 4913.34   5
   3  -5  -4 3284.65 3163.02   6
  -3  -5   4 2108.70 1938.31   1
   3  -5  -4 2065.22 1948.39   5
  -3  -5   3 1915.20 2320.33   1
   3  -5  -3 1648.57 1699.42   5
  -3  -5   2 1020.01 1301.86   1
   3  -5  -2 2683.26 2130.35   5
  -3  -5   1-264.666 660.816   1
   3  -5  -1 1848.22 1755.09   5
  -3  -5   0 235.519 627.006   1
   3  -5   0 1485.11 1580.76   5
  -3  -5  -1 1222.76 1449.83   1
  -3  -5  -1 274.695 603.748   6
   3  -5   1-576.923 998.667   5
   3  -5   1 504.835 896.895   9
  -3  -5  -2 1366.10 1571.17   1
  -3  -5  -2-632.157 455.146   6
   3  -5   2-173.655 558.914   5
   3  -5   2 1444.15 1516.72   9
  -3  -5  -3 5575.15 2881.65   6
   3  -5   3 5780.99 3297.88   5
   3  -5   3 10281.8 4346.81   9
  -3  -5  -3 7086.72 2735.34   9
  -3  -5  -3 1267.61 1547.95   1
   3  -5   4 37.7866 494.457   7
  -3  -5  -4 1385.28 1479.17   6
   3  -5   4 759.862 1222.68   5
  -3  -5  -4 2433.17 1866.65   2
   3  -5   4 934.977 1219.89   9
  -3  -5  -4 3580.34 1799.87   9
   3  -5   5 1010.64 1526.14   7
  -3  -5  -5 2342.09 1984.45   6
   3  -5   5 2494.53 1994.23   9
  -3  -5  -5 5482.86 2851.97   2
  -3  -5  -5 3605.14 1597.50   9
   3  -5   6 778.992 1359.57   7
  -3  -5  -6 187.384 578.737   6
  -3  -5  -6 2804.65 2039.18   2
  -3  -5  -6 890.719 843.621   9
   3  -5   6 323.547 720.597   9
  -3  -5  -7 5451.56 3220.96   6
   3  -5   7 946.016 1527.37   7
   3  -5   7 1786.57 1703.33   9
   3  -5   8 3604.69 3055.51   7
  -3  -5  -8 1529.85 1762.05   6
   3  -5   8 4755.83 2803.45   9
  -3  -5  -9-699.623 1230.47   6
   3  -5   9 404.717 829.098   9
   3  -5  10 315.051 959.214   7
  -3  -5 -10 57.6278 365.275   6
   3  -5  10 891.500 1247.63   9
  -3  -5 -11-1338.91 1822.24   6
   3  -5  11 731.089 1147.57   9
   3  -5  11 778.084 1558.55   7
   3  -5  12 2262.19 2052.63   9
  -3  -5 -12 2780.37 2716.06   6
   3  -5  12 658.283 1483.53   7
   3  -5  13 1512.60 1707.46   9
   3  -5  13-2873.01 3201.02   7
   3  -4 -15-2477.83 3197.29   6
   3  -4 -15-343.176 1003.94   5
   3  -4 -14-352.100 1163.56   6
  -3  -4  14 2828.06 3147.07   1
   3  -4 -14-851.012 1539.76   5
   3  -4 -13 3520.14 3559.77   6
  -3  -4  13 1262.96 2024.72   1
   3  -4 -13 10375.0 5230.56   5
  -3  -4  12-677.238 1428.54   1
   3  -4 -12-946.409 1790.51   6
   3  -4 -12 2504.68 2498.25   5
  -3  -4  11 2658.57 2711.30   1
   3  -4 -11 531.361 1305.06   6
   3  -4 -11 3312.72 2791.94   5
   3  -4 -10 4530.51 3717.79   6
  -3  -4  10 1197.81 1746.25   1
   3  -4 -10 1703.21 1946.75   5
   3  -4  -9 2538.62 2723.60   6
  -3  -4   9 495.255 1073.34   1
   3  -4  -8 963.047 1647.30   6
   3  -4  -8-110.166 468.952   5
  -3  -4   8 312.063 815.503   1
   3  -4  -7 1651.89 2126.65   6
  -3  -4   7 1909.59 1934.23   1
   3  -4  -7 93.9338 421.597   5
   3  -4  -6 7229.87 4663.40   6
  -3  -4   6 2783.24 2246.82   1
   3  -4  -6 9037.84 4033.82   5
   3  -4  -5 4504.79 3461.64   6
  -3  -4   5 1037.28 1072.29   1
   3  -4  -5 1767.09 1742.96   5
   3  -4  -4 8415.31 4733.20   6
  -3  -4   4 5827.38 3076.15   1
   3  -4  -4 5195.60 2917.71   5
  -3  -4   3 65.5218 322.131   1
   3  -4  -3-582.624 955.462   5
  -3  -4   2 2640.92 2042.71   1
   3  -4  -2 3695.71 2364.64   5
  -3  -4   1 1824.37 1715.46   1
   3  -4  -1 602.372 946.806   5
  -3  -4   0 675.958 1068.68   1
   3  -4   0 14031.4 4783.74   5
   3  -4   0 10866.9 4773.78   7
   3  -4   1 6087.22 3060.34   5
   3  -4   1 11084.2 4455.43   7
  -3  -4  -1 6973.25 3092.53   2
   3  -4   2 6834.12 3455.46   7
   3  -4   2 5547.31 2983.08   5
  -3  -4  -2 6342.76 3253.19   2
   3  -4   2 8025.97 3520.16   9
   3  -4   3 7374.70 3589.12   7
   3  -4   3 5228.52 2965.47   5
  -3  -4  -3 10358.0 3867.34   2
   3  -4   3 10974.7 3849.17   9
   3  -4   4 19.5956 186.707   7
  -3  -4  -4 739.503 1017.42   2
   3  -4   4 809.551 1193.77   5
   3  -4   4 714.744 965.231   9
  -3  -4  -4 912.864 782.279   9
   3  -4   5-684.758 1123.02   7
  -3  -4  -5 1430.28 1385.54   2
   3  -4   5 346.261 673.046   9
  -3  -4  -5-273.880 408.715   9
  -3  -4  -6 1346.84 1330.36   2
  -3  -4  -6 2093.44 1830.22   6
   3  -4   6 2218.75 2070.22   7
  -3  -4  -6 1276.88 853.000   9
   3  -4   6-203.493 517.693   9
   3  -4   7 10462.8 4725.23   7
  -3  -4  -7 2657.05 1884.49   2
  -3  -4  -7 3823.55 2549.96   6
   3  -4   7 5951.77 2814.81   9
   3  -4   8 2027.73 2103.72   7
  -3  -4  -8 1045.05 1209.43   2
  -3  -4  -8 2869.32 2281.01   6
   3  -4   8 2351.71 1787.70   9
   3  -4   9 6862.91 4007.64   7
  -3  -4  -9 5009.00 2726.98   2
  -3  -4  -9 2343.15 2126.84   6
   3  -4   9 4049.17 2371.83   9
   3  -4  10 1647.45 2036.59   7
  -3  -4 -10 881.302 1181.21   2
  -3  -4 -10-841.317 1316.16   6
   3  -4  10-847.268 1100.09   9
  -3  -4 -11-1110.61 1369.12   2
  -3  -4 -11 273.207 774.712   6
   3  -4  11 2031.98 2347.87   7
   3  -4  11 237.598 592.070   9
   3  -4  12 2605.24 2759.84   7
  -3  -4 -12 195.317 677.896   6
   3  -4  12 1488.86 1508.78   9
   3  -4  13 933.202 1713.63   7
  -3  -4 -13 2629.89 2576.33   6
   3  -4  14 1432.78 2198.24   7
  -3  -4 -14-1749.14 2174.78   6
   3  -4  15 913.329 1815.00   7
   3  -3 -17-1582.32 2646.95   6
   3  -3 -16 2011.60 2873.77   6
   3  -3 -16-480.338 1206.74   5
   3  -3 -15 4152.19 3984.42   6
  -3  -3  15-2283.12 2859.16   1
   3  -3 -15 3088.08 2968.74   5
   3  -3 -14 1321.78 2168.76   6
  -3  -3  14-295.721 991.737   1
   3  -3 -14 327.353 937.682   5
  -3  -3  13 2707.40 2891.95   1
   3  -3 -13 2814.35 3058.31   6
   3  -3 -13 3888.08 3123.93   5
  -3  -3  12 6786.21 4694.80   1
   3  -3 -12 1559.05 2204.39   6
   3  -3 -12 2073.62 2201.84   5
  -3  -3  11 8896.27 5073.32   1
   3  -3 -11 5220.79 3915.72   6
   3  -3 -11 2794.82 2464.21   5
   3  -3 -10 4357.29 3481.52   6
  -3  -3  10 5052.54 3448.49   1
   3  -3 -10 4089.35 2872.11   5
  -3  -3   9 1155.70 1571.24   1
   3  -3  -9 118.808 471.861   5
   3  -3  -8 2604.09 2572.84   6
  -3  -3   8 21.4212 203.937   1
   3  -3  -8 524.409 956.988   5
   3  -3  -7 6731.98 2508.28   2
   3  -3  -7 5034.07 3517.73   6
  -3  -3   7 7193.29 3573.36   1
   3  -3  -7 4767.73 1926.07   8
   3  -3  -7 6693.97 3468.12   5
   3  -3  -6 8988.33 2363.37   8
   3  -3  -6 8337.55 2667.98   2
   3  -3  -6 3122.67 2734.25   6
  -3  -3   6 4875.06 2743.05   1
   3  -3  -6 9288.22 4031.11   5
   3  -3  -5 6754.67 2382.37   2
  -3  -3   5 3933.51 2700.64   1
   3  -3  -5 5707.37 1767.43   8
   3  -3  -5 5143.94 2741.78   5
   3  -3  -4 17332.7 3756.18   2
  -3  -3   4 10629.2 4264.38   1
   3  -3  -4 19857.4 5408.49   5
  -3  -3   3 2872.97 2585.77   1
   3  -3  -3 3876.19 2291.57   5
   3  -3  -3 3082.80 1553.36   2
   3  -3  -2 8262.16 3441.04   7
  -3  -3   2 7194.54 3534.05   1
   3  -3  -2 9251.57 3756.58   5
   3  -3  -1 3318.97 2044.17   5
  -3  -3   1-1005.90 1143.29   2
   3  -3  -1 688.897 934.803   7
  -3  -3   1 1445.96 1514.52   1
   3  -3   0 27719.1 5940.03   7
   3  -3   0 19798.6 5219.24   5
  -3  -3   0 18851.2 5044.79   2
   3  -3   1 11709.8 3779.60   7
  -3  -3  -1 7900.47 3807.10   2
   3  -3   1 8224.64 3505.39   5
  -3  -3  -2 14595.3 4361.26   2
   3  -3   2 11802.8 3832.95   7
   3  -3   2 12262.8 4233.83   5
   3  -3   2 11849.0 3448.78   9
  -3  -3  -3 1327.12 1271.56   2
   3  -3   3 4330.92 2475.44   5
   3  -3   3 5423.67 2373.31   9
   3  -3   3 6211.35 2837.00   7
   3  -3   4 16415.7 4739.01   7
  -3  -3  -4 14985.7 4344.55   2
  -3  -3  -4 10073.2 1609.39   5
   3  -3   4 16555.3 5169.51   5
   3  -3   4 13029.5 3736.42   9
  -3  -3  -5 7676.93 3128.26   2
  -3  -3  -5 9370.43 1928.60   5
   3  -3   5 12815.6 4575.18   7
   3  -3   5 7617.28 2829.85   9
  -3  -3  -5 9490.26 1918.39   9
   3  -3   6 2199.13 1856.29   7
  -3  -3  -6 769.585 982.793   2
  -3  -3  -6 1296.62 642.028   9
  -3  -3  -6 1563.85 850.793   5
   3  -3   6 1988.65 1436.23   9
   3  -3   7 5546.44 3239.14   7
  -3  -3  -7 4662.07 2500.10   2
   3  -3   7 5517.65 2471.55   9
   3  -3   8 1742.83 1785.38   7
  -3  -3  -8 4330.04 2502.67   2
  -3  -3  -8 4072.61 2579.58   6
   3  -3   8 5976.75 2635.95   9
   3  -3   9 1978.32 1980.73   7
  -3  -3  -9 194.468 550.857   2
  -3  -3  -9-835.200 1202.62   6
   3  -3   9-462.085 712.482   9
   3  -3  10 112.745 492.531   7
  -3  -3 -10 936.559 1254.48   2
   3  -3  10 378.831 654.207   9
   3  -3  11 2210.19 2271.36   7
  -3  -3 -11 60.1549 329.523   2
  -3  -3 -11 838.898 1282.34   6
   3  -3  11-1157.21 1162.45   9
   3  -3  12 3271.96 2876.95   7
  -3  -3 -12 2134.36 2033.51   2
  -3  -3 -12 3766.56 2807.70   6
   3  -3  12 2567.58 1763.64   9
  -3  -3 -13-74.9392 393.655   2
   3  -3  13 1673.42 2139.67   7
  -3  -3 -13 1425.68 1786.64   6
   3  -3  14 2232.75 2566.42   7
  -3  -3 -14-681.932 1224.41   2
  -3  -3 -14 2516.34 2460.93   6
  -3  -3 -15-229.987 771.222   6
   3  -3  15 737.470 1526.63   7
   3  -3  16-37.6305 356.547   7
  -3  -3 -16 2589.09 2684.05   6
  -3  -2  16-802.786 1699.90   1
  -3  -2  15-2631.77 2982.38   1
  -3  -2  14 69.5513 466.765   1
  -3  -2  13 3382.46 3131.90   1
   3  -2 -13 13311.1 6419.36   6
   3  -2 -12 887.599 1602.74   6
  -3  -2  12 1975.01 2285.20   1
   3  -2 -12 1514.70 1869.14   5
   3  -2 -11 6595.11 4231.98   6
   3  -2 -11 2041.63 2078.41   5
  -3  -2  11 2483.57 2446.40   1
   3  -2 -10 2230.13 2389.25   6
   3  -2 -10 1267.97 1565.89   5
  -3  -2  10 173.863 614.525   1
   3  -2  -9 11103.7 5190.75   6
  -3  -2   9 10924.3 4515.17   1
   3  -2  -9 8375.24 4065.95   5
  -3  -2   8 2571.84 2132.07   1
   3  -2  -8 5508.68 2980.71   5
   3  -2  -8 3563.35 1619.74   8
  -3  -2   7 7875.63 3634.67   1
   3  -2  -7 10281.6 3962.35   5
   3  -2  -7 10062.0 2460.66   8
  -3  -2   6 9193.03 3713.56   1
   3  -2  -6 4818.22 2553.90   5
   3  -2  -6 9494.31 2181.45   8
  -3  -2   5 1647.96 1192.01   1
   3  -2  -5 2710.26 1583.04   2
   3  -2  -5 2167.38 982.789   8
   3  -2  -5 2005.56 1587.97   5
   3  -2  -4 1872.46 1178.49   7
  -3  -2   4-580.371 900.394   1
   3  -2  -4-188.391 406.953   2
   3  -2  -4-1230.93 1207.35   5
  -3  -2   3 10526.1 4239.57   1
   3  -2  -3 8828.56 2840.30   2
   3  -2  -3 14597.0 3246.97   7
   3  -2  -3 11079.7 3695.49   5
   3  -2  -2 7571.08 2370.17   7
   3  -2  -2 5059.35 2108.07   2
   3  -2  -2 4467.13 2235.69   5
  -3  -2   2 3055.14 2060.47   2
   3  -2  -1 11106.6 3156.30   2
   3  -2  -1 13408.9 3332.52   7
  -3  -2   1 14355.1 4344.98   2
   3  -2  -1 9929.54 3511.16   5
   3  -2   0 3075.66 1717.45   4
  -3  -2   0 4552.53 2537.40   2
   3  -2   0 4967.58 2498.67   5
   3  -2   0 3798.63 1712.83   7
   3  -2   1 26425.2 5001.34   7
   3  -2   1 28718.0 5954.37   5
  -3  -2  -1 27887.9 3534.20   5
  -3  -2  -1 27351.7 5790.25   2
   3  -2   2 34139.8 5773.25   7
   3  -2   2 38304.1 7029.55   5
  -3  -2  -2 39321.5 3678.17   5
  -3  -2  -2 35564.9 6352.44   2
   3  -2   3 48030.1 7126.69   7
   3  -2   3 56701.3 8655.74   5
  -3  -2  -3 47848.2 4584.46   5
  -3  -2  -3 55040.3 7751.86   2
   3  -2   4 7445.61 2862.54   7
   3  -2   4 8461.89 2616.08   9
  -3  -2  -4 3822.25 2054.21   2
   3  -2   4 6253.06 2917.18   5
  -3  -2  -4 7616.15 1972.12   5
   3  -2   5 27824.8 5863.70   7
  -3  -2  -5 26442.3 5618.11   2
  -3  -2  -5 23224.1 3650.25   5
   3  -2   5 29430.0 4809.18   9
  -3  -2  -5 22081.1 1964.69   9
  -3  -2  -6 7030.01 3077.13   2
  -3  -2  -6 6579.80 2205.78   5
   3  -2   6 12431.1 4036.59   7
   3  -2   6 7492.66 2529.39   9
  -3  -2  -7 919.534 1127.76   2
   3  -2   7 250.075 595.945   7
   3  -2   7 899.993 835.517   9
  -3  -2  -8 403.831 780.385   2
   3  -2   8 399.569 563.199   9
   3  -2   8-161.842 500.420   7
   3  -2   9 2371.59 1999.11   7
  -3  -2  -9 2285.79 1938.87   2
   3  -2   9 1595.74 1140.47   9
  -3  -2 -10 2817.49 2249.73   2
   3  -2  10 3908.18 2677.52   7
  -3  -2 -10 3071.88 2679.56   6
   3  -2  10 2213.82 1366.81   9
  -3  -2 -11 912.107 1341.11   2
  -3  -2 -11 352.376 784.975   6
   3  -2  11-814.704 1275.01   7
   3  -2  11 611.085 730.360   9
  -3  -2 -12 434.303 965.105   2
   3  -2  12 586.184 1126.73   7
  -3  -2 -12 1500.59 1673.24   6
  -3  -2 -13 2789.41 2542.82   2
   3  -2  13 5639.35 3639.74   7
  -3  -2 -13 552.457 1050.08   6
  -3  -2 -14 1620.17 2006.93   2
  -3  -2 -14 243.578 722.422   6
   3  -2  14 2387.28 2463.48   7
  -3  -2 -15 1175.91 1649.07   6
  -3  -2 -15 162.471 655.521   2
   3  -2  15-296.870 902.310   7
  -3  -2 -16 852.894 1543.63   2
   3  -2  16 1583.00 2160.33   7
  -3  -2 -16 2333.80 2412.38   6
  -3  -2 -17 833.050 1495.95   6
   3  -2  17 2569.97 2847.39   7
   3  -1 -17 2587.54 2525.91   3
  -3  -1  17 636.248 1504.33   1
  -3  -1  16 3198.30 3280.70   1
   3  -1 -16 628.925 1197.97   3
  -3  -1  15 3014.28 3077.65   1
   3  -1 -15 2021.54 2064.88   3
  -3  -1  14-129.858 616.304   1
   3  -1 -14 1618.57 1774.51   3
   3  -1 -13 2083.96 1932.39   3
  -3  -1  13 1063.12 1695.12   1
  -3  -1  12-496.009 1103.85   1
   3  -1 -12 236.691 624.138   3
  -3  -1  11 1083.38 1553.72   1
   3  -1 -11 832.201 1119.53   3
   3  -1 -10 1597.68 1480.26   3
  -3  -1  10 2198.32 2094.98   1
  -3  -1   9-1079.80 1389.58   1
   3  -1  -9 1044.25 1138.42   3
   3  -1  -8 8264.21 3627.10   5
  -3  -1   8 4184.19 2858.74   1
   3  -1  -8 3066.63 1848.62   3
  -3  -1   7 5800.64 3058.61   1
   3  -1  -7 5715.56 2913.26   5
   3  -1  -7 4957.42 2171.30   3
   3  -1  -6 20863.7 4347.56   3
  -3  -1   6 21909.5 5547.62   1
   3  -1  -6 25282.2 5757.13   5
   3  -1  -5 23453.8 2393.73   7
   3  -1  -5 45398.2 5976.46   3
   3  -1  -5 51209.1 7743.92   5
  -3  -1   5 47343.7 7997.26   1
   3  -1  -4 67652.4 4717.38   7
  -3  -1   4 42535.3 5627.30   3
   3  -1  -4 67834.5 8536.90   5
  -3  -1   4 58410.7 9316.47   1
   3  -1  -3 3564.07 1235.72   7
   3  -1  -3 1853.63 1296.89   2
  -3  -1   3 422.973 719.413   3
  -3  -1   3 1570.97 1357.41   2
   3  -1  -3 4171.62 1973.98   5
   3  -1  -2 71543.0 6090.45   7
   3  -1  -2 67827.4 8073.15   5
   3  -1  -2 57627.4 6956.84   4
   3  -1  -2 62516.5 7536.27   2
  -3  -1   2 71418.3 9511.14   2
   3  -1  -1 41622.9 4971.15   7
   3  -1  -1 35421.2 5848.34   5
   3  -1  -1 39513.2 5378.64   4
   3  -1  -1 40274.3 6113.35   2
  -3  -1   1 43996.4 7373.96   2
   3  -1   0-614.746 764.131   2
   3  -1   0 424.602 674.122   7
   3  -1   0 58.6658 190.688   4
  -3  -1   0 1514.65 1232.87   2
  -3  -1   0 1532.02 1179.84   8
   3  -1   0 1741.86 1133.68   5
  -3  -1   0 412.790 477.074   5
   3  -1   1 721.502 622.526   4
   3  -1   1 1729.49 1132.85   7
  -3  -1  -1 2385.61 1421.46   8
  -3  -1  -1-38.5825 196.627   2
   3  -1   1 1124.32 1049.86   5
  -3  -1  -1 323.059 413.802   5
   3  -1   2 34480.0 5967.55   5
  -3  -1  -2 33916.8 4550.30   5
   3  -1   2 20507.9 3190.49   4
  -3  -1  -2 35616.0 6109.38   2
   3  -1   2 36761.7 5744.62   7
   3  -1   3 15451.1 3852.95   7
  -3  -1  -3 11769.6 3553.73   2
   3  -1   3 8690.57 3059.47   5
  -3  -1  -3 12341.4 2872.46   5
  -3  -1  -4 8999.39 3193.69   2
   3  -1   4 9643.87 3338.96   7
   3  -1   4 8894.06 2062.57   3
   3  -1   4 7423.91 2982.62   5
  -3  -1  -4 8529.13 2439.10   5
   3  -1   5 13848.1 4203.49   7
   3  -1   5 13909.1 2894.68   3
  -3  -1  -5 16194.2 4427.19   2
  -3  -1  -6 10256.4 3758.00   2
   3  -1   6 6242.53 3721.86   7
   3  -1   6 11235.9 2882.34   3
  -3  -1  -7 4756.42 2831.76   2
   3  -1   7-283.777 604.920   7
   3  -1   7 2294.36 1062.34   9
   3  -1   8 265.635 609.586   7
  -3  -1  -8 129.789 451.292   2
   3  -1   8 1105.13 743.794   9
  -3  -1  -9-468.188 900.344   2
   3  -1   9 296.264 670.036   7
   3  -1   9 684.182 594.190   9
   3  -1  10-251.655 640.617   7
   3  -1  10 1704.74 954.151   9
  -3  -1 -10-569.165 1046.96   2
   3  -1  11 428.116 868.974   7
  -3  -1 -11-642.188 1169.70   2
  -3  -1 -11 2788.57 2087.76   6
   3  -1  12-658.106 1120.17   7
  -3  -1 -12 1946.54 1797.69   6
  -3  -1 -12-1894.59 2106.90   2
   3  -1  13 2010.18 2028.93   7
  -3  -1 -13 349.554 788.288   6
  -3  -1 -13 120.363 554.270   2
   3  -1  14 808.401 1337.00   7
  -3  -1 -14 1015.80 1841.11   6
  -3  -1 -14-3997.11 3315.25   2
   3  -1  15-1595.44 1950.93   7
  -3  -1 -15-131.694 520.752   6
  -3  -1 -15-848.847 1576.96   2
   3  -1  16-2742.05 2653.25   7
  -3  -1 -16-799.397 1333.01   6
  -3  -1 -16-4154.50 3583.83   2
   3  -1  17 1532.01 2056.37   7
  -3  -1 -17-1089.45 1878.41   2
   3  -1  18 2252.69 2582.02   7
  -3   0  18 2518.69 2948.09   1
  -3   0  17-1901.74 2493.05   1
   3   0 -17-1647.53 1984.71   3
   3   0 -16-1544.27 1840.39   3
  -3   0  16-1226.65 1949.05   1
  -3   0  15 1797.55 2281.98   1
   3   0 -15-475.753 979.190   3
  -3   0  14 4917.45 4428.71   4
  -3   0  14 1859.89 2241.30   1
   3   0 -14-159.027 542.454   3
  -3   0  13 659.915 1279.31   1
   3   0 -13 51.6730 296.115   3
  -3   0  12-916.413 1441.67   1
   3   0 -12 1889.85 1713.40   3
  -3   0  11 5746.42 3467.81   1
   3   0 -11 3992.22 2468.65   3
   3   0 -10 2330.81 1732.24   3
  -3   0  10 241.996 664.731   1
   3   0  -9 211.781 261.880   7
   3   0  -9 224.764 511.528   3
  -3   0   9 1208.58 1400.38   1
   3   0  -8 534.274 524.317   7
   3   0  -8 748.494 884.088   3
   3   0  -7 2514.89 1436.66   7
  -3   0   7 2653.40 1863.41   1
   3   0  -7 4435.43 2109.47   3
  -3   0   7 5253.30 3710.00   4
  -3   0   6 800.442 988.761   1
   3   0  -6 1513.59 1199.34   3
  -3   0   6 4954.21 3990.34   4
  -3   0   5 15044.7 4394.20   1
  -3   0   5 21136.7 5961.25   4
   3   0  -5 13863.4 3183.79   3
  -3   0   5 7502.67 2647.16   3
   3   0  -5 8210.40 3388.77   5
  -3   0   4 1035.98 1068.17   3
  -3   0   4 599.867 1151.18   1
   3   0  -4 1754.89 1068.66   3
  -3   0   4 1158.79 1124.44   2
   3   0  -4 2244.19 1482.51   5
  -3   0   4 4947.50 3320.21   4
   3   0  -3 3867.11 1697.38   8
  -3   0   3 6461.61 1896.24   3
  -3   0   3 7595.26 2921.54   2
   3   0  -3 7181.09 1861.43   3
   3   0  -3 6877.46 2374.26   5
  -3   0   3 11503.2 4342.96   4
   3   0  -2 539.998 563.181   7
  -3   0   2 2374.77 1107.97   3
  -3   0   2 907.110 960.779   2
   3   0  -2 1164.33 603.029   3
   3   0  -2 643.929 704.040   5
  -3   0   2 977.605 1108.31   5
  -3   0   2 3275.82 2291.59   4
   3   0  -2-608.415 1205.02   4
   3   0  -2 648.698 528.421   8
   3   0  -1 190972. 11111.2   7
   3   0  -1 183604. 9170.21   8
  -3   0   1 194247. 6516.45   3
   3   0  -1 185793. 5762.09   3
   3   0  -1 180664. 11910.3   5
  -3   0   1 187942. 12216.5   5
   3   0  -1 193011. 12397.3   4
  -3   0   1 194353. 11119.8   8
  -3   0   1 179404. 13840.6   2
   3   0   0 87578.0 7749.50   7
   3   0   0 80967.3 8045.43   5
  -3   0   0 79358.2 7800.43   5
   3   0   0 75821.8 7376.01   4
   3   0   0 82705.2 6391.14   8
  -3   0   0 62397.0 6028.62   8
  -3   0   0 78262.1 8876.54   2
   3   0   1 277196. 14909.6   5
  -3   0  -1 255861. 14221.8   5
   3   0   1 264983. 12847.8   4
   3   0   1 274380. 12284.8   8
  -3   0  -1 260571. 12335.6   8
  -3   0  -1 266955. 16256.3   2
   3   0   2 33739.2 5217.19   7
   3   0   2 32319.3 5080.89   5
  -3   0  -2 27759.3 4808.28   5
   3   0   2 30322.9 3954.20   4
  -3   0  -2 29195.1 4400.32   8
  -3   0  -2 32190.1 5884.26   2
  -3   0  -3 420.300 1012.78   2
  -3   0  -3 648.069 448.695   9
   3   0   3 1118.31 1064.03   7
   3   0   3 695.320 732.617   3
   3   0   3 67.8086 235.956   5
   3   0   3 1702.83 1102.95   4
  -3   0  -3 688.647 712.339   8
  -3   0  -4 2258.54 1600.22   2
   3   0   4 206.197 485.548   4
   3   0   4-5.18437 163.958   7
   3   0   4 2524.12 1436.69   3
  -3   0  -4 820.001 549.194   3
  -3   0  -4 13.0574 61.8963   9
  -3   0  -5 11386.4 3984.86   2
   3   0   5 4617.78 3064.79   7
   3   0   5 7851.63 2293.58   3
  -3   0  -5 5407.03 1637.18   3
  -3   0  -6 13001.1 4214.56   2
   3   0   6 8893.23 4047.91   7
   3   0   6 7404.69 2585.11   3
  -3   0  -6 10426.4 2487.95   3
   3   0   7 11074.0 3903.49   7
  -3   0  -7 8362.28 2478.25   3
  -3   0  -7 6838.84 3133.31   2
   3   0   8 1798.14 1549.97   7
  -3   0  -8-929.488 871.514   3
   3   0   8 1187.02 715.698   4
  -3   0  -8-86.9627 790.193   2
   3   0   9 3113.85 2121.86   7
   3   0   9 1959.59 1122.47   4
  -3   0  -9 829.356 883.490   3
   3   0  10 1809.25 1675.63   7
  -3   0 -10 210.515 475.169   3
   3   0  11 5709.09 3075.62   7
  -3   0 -11 4744.09 2401.78   3
   3   0  12-127.185 474.619   7
  -3   0 -12 1962.80 1700.85   6
  -3   0 -12 310.726 651.942   3
   3   0  13 785.426 1219.41   7
  -3   0 -13 222.607 591.902   6
  -3   0 -13 918.533 1186.59   3
  -3   0 -14 7172.74 3476.31   6
   3   0  14 5234.85 3245.63   7
  -3   0 -14 6421.95 3316.89   3
   3   0  15-502.031 1039.65   7
  -3   0 -15-1053.42 1418.76   3
   3   0  16 631.530 1203.25   7
  -3   0 -16-1413.39 1734.19   3
   3   0  17 96.0656 486.030   7
  -3   0 -17-2603.73 2482.63   3
   3   1 -17 1882.80 2169.00   3
  -3   1  17 9344.86 7242.62   4
  -3   1  16-3316.82 3004.63   1
   3   1 -16 2031.46 2165.92   3
   3   1 -15 59.4453 356.658   3
  -3   1  15-856.344 1480.62   1
  -3   1  14 3618.87 2950.16   1
   3   1 -14 4859.73 3350.95   3
  -3   1  14 6859.82 4946.81   4
  -3   1  13 2016.92 2123.39   1
   3   1 -13-470.438 932.079   3
  -3   1  13 292.774 2242.80   4
  -3   1  12 3059.31 4377.42   4
  -3   1  12 560.239 1069.51   1
   3   1 -12-5269.96 3006.53   3
  -3   1  11 1675.79 1761.45   1
  -3   1  11 3627.71 2423.24   4
   3   1 -10 314.390 1725.03   3
  -3   1  10 3809.85 3360.71   4
  -3   1  10 3851.41 2441.98   1
   3   1  -9 1209.09 1263.26   7
   3   1  -9 156.946 1663.60   3
  -3   1   9 1606.98 1530.74   1
  -3   1   9 3985.50 2951.85   4
   3   1  -8 1497.02 1551.42   7
   3   1  -8 3771.53 2558.57   3
  -3   1   8 3206.20 2113.06   1
  -3   1   8 1471.92 1145.60   4
  -3   1   7 6750.19 2937.89   1
   3   1  -7 4561.10 2673.72   3
  -3   1   7 5476.19 3299.32   4
  -3   1   6 21154.1 5275.53   4
  -3   1   6 21928.4 4921.73   1
   3   1  -6 21280.2 5087.10   3
   3   1  -5 44901.3 6852.35   3
  -3   1   5 38870.8 5823.94   3
  -3   1   5 39282.7 6690.57   1
  -3   1   5 44412.8 7529.88   4
   3   1  -4 59431.9 7256.99   3
  -3   1   4 42467.7 5448.55   3
   3   1  -4 67477.0 8422.96   5
  -3   1   4 60997.3 8386.95   4
  -3   1   4 62085.3 8103.06   2
   3   1  -3 3069.48 1802.79   8
   3   1  -3 3216.58 1772.16   3
  -3   1   3 2488.97 1325.79   2
  -3   1   3 412.833 492.321   3
   3   1  -3 3097.40 1581.71   5
  -3   1   3 1132.69 894.709   4
  -3   1   2 66985.1 5098.71   3
   3   1  -2 69531.8 6282.50   3
   3   1  -2 65420.7 6754.51   5
  -3   1   2 61283.7 7339.16   4
   3   1  -2 62891.0 7460.22   8
  -3   1   2 72257.9 8790.62   2
   3   1  -1 42797.4 4283.10   3
  -3   1   1 39445.0 3296.70   3
   3   1  -1 45455.2 5265.81   5
  -3   1   1 39124.7 5505.58   4
   3   1  -1 37459.0 5420.72   8
  -3   1   1 40497.1 6342.13   2
  -3   1   0 851.044 728.126   7
   3   1   0 1437.06 691.426   3
   3   1   0 1827.85 1036.10   5
  -3   1   0 71.8018 83.7529   4
  -3   1   0 855.631 518.374   8
   3   1   0 906.453 828.149   8
  -3   1   0 2521.98 1597.71   2
  -3   1  -1 444.841 631.630   2
  -3   1  -1 1393.01 774.654   3
   3   1   1 828.550 620.321   5
  -3   1  -1 729.775 551.913   8
  -3   1  -1 922.856 672.120   9
  -3   1  -1 2003.99 1302.84   4
   3   1   1 1003.16 1078.61   8
  -3   1  -2 38920.6 3789.24   3
   3   1   2 34353.6 4512.78   5
  -3   1  -2 41022.6 4553.69   4
  -3   1  -2 29806.5 3891.01   9
   3   1   2 32462.6 5363.11   8
  -3   1  -2 33590.6 6153.07   2
  -3   1  -3 11370.6 3759.91   2
   3   1   3 15380.6 4572.70   7
  -3   1  -3 14636.3 2849.12   3
   3   1   3 11944.1 2230.28   3
  -3   1  -3 8841.07 2091.95   9
   3   1   3 15213.0 3817.54   8
   3   1   4 11522.3 3739.56   7
  -3   1  -4 10124.7 2564.98   3
  -3   1  -4 3339.93 2041.32   2
   3   1   4 11148.4 2446.80   3
  -3   1  -4 6484.38 1794.22   9
   3   1   5 13298.8 3971.18   7
  -3   1  -5 12086.1 3052.60   3
   3   1   5 13714.8 2981.65   3
  -3   1  -5 8406.68 3218.44   2
   3   1   6 7882.89 3167.63   7
  -3   1  -6 7004.17 2036.76   3
   3   1   6 5891.92 2003.75   3
  -3   1  -6 8133.05 3419.12   2
   3   1   7 1584.99 1070.54   4
  -3   1  -7 467.856 637.492   3
   3   1   8 1453.98 1000.72   4
   3   1   8 4127.22 2336.82   7
  -3   1  -8-345.305 1881.81   3
   3   1   9 45.0839 174.745   4
   3   1   9 2551.54 1912.60   7
  -3   1  -9-620.287 2352.02   3
   3   1  10 2556.28 1360.62   4
   3   1  10 1347.19 1440.97   7
  -3   1 -10-174.674 465.140   3
   3   1  11 1855.84 1742.42   7
  -3   1 -11 3549.06 2207.34   3
   3   1  11 3105.71 1623.95   4
   3   1  12-289.577 711.138   7
  -3   1 -12 46.4048 265.790   3
   3   1  13 529.195 986.374   7
  -3   1 -13 858.865 1081.17   6
  -3   1 -13 2531.67 2066.20   3
   3   1  14 495.691 981.463   7
  -3   1 -14 1877.04 1873.75   3
   3   1  15 153.827 561.628   7
  -3   1 -15 1049.54 1474.07   3
   3   1  16-302.128 809.576   7
  -3   1 -16-1170.62 1637.64   3
  -3   1 -17-1915.89 2203.41   3
  -3   2  17 2992.33 3465.19   4
   3   2 -16-29.8381 2643.63   3
  -3   2  16 3173.63 4259.00   4
  -3   2  15-3575.82 3531.70   4
   3   2 -15-9072.26 4799.52   3
   3   2 -14-4178.06 3197.97   3
  -3   2  14-1827.79 2467.44   4
   3   2 -13-271.530 2440.88   3
  -3   2  13 639.863 1084.73   1
  -3   2  13 926.225 2241.74   4
  -3   2  12 90.1467 392.328   1
   3   2 -12-110.899 1340.47   3
  -3   2  12-1676.22 3361.12   4
  -3   2  11 3523.07 2310.25   1
   3   2 -11 4304.76 3568.08   3
  -3   2  11 677.146 3176.19   4
  -3   2  10 1957.89 1671.71   1
   3   2 -10 2009.02 3265.56   3
  -3   2  10-2727.22 3505.35   4
   3   2  -9 22307.4 7387.43   3
  -3   2   9 12506.8 3961.65   1
  -3   2   9 2412.75 647.846   4
   3   2  -8 9576.12 5634.84   3
  -3   2   8 3924.34 2084.94   1
  -3   2   8 11197.5 4923.98   4
   3   2  -7 12651.0 5623.25   3
  -3   2   7 11501.0 3391.24   1
  -3   2   7 12898.9 4738.14   4
  -3   2   6 6726.51 2462.47   1
  -3   2   6 11116.4 3903.68   4
   3   2  -6 14612.6 4784.89   3
  -3   2   5 1523.65 1157.27   1
  -3   2   5 190.259 236.180   7
  -3   2   4 1626.36 1681.45   4
   3   2  -4 913.274 1297.28   8
  -3   2   4 166.279 249.802   7
   3   2  -4 648.370 1181.54   3
  -3   2   4 1337.72 1158.17   2
  -3   2   3 11630.1 3569.23   4
  -3   2   3 4183.61 1405.24   7
   3   2  -3 6693.35 2576.31   3
  -3   2   3 9790.90 3172.24   2
   3   2  -3 9444.20 3746.66   8
   3   2  -3 12316.9 3302.24   5
  -3   2   3 5665.22 1856.60   3
   3   2  -2 4719.08 2614.71   8
  -3   2   2 2800.27 1450.86   7
   3   2  -2 7490.71 2602.61   3
  -3   2   2 5607.29 2313.27   2
  -3   2   2 6399.42 2356.66   4
   3   2  -2 5167.53 1773.21   5
  -3   2   1 9781.45 2813.39   4
  -3   2   1 9938.68 2685.41   7
   3   2  -1 7745.74 2526.83   3
  -3   2   1 12335.8 3442.45   2
   3   2  -1 11157.5 2274.98   5
   3   2  -1 13545.1 3909.15   8
  -3   2   0 3859.53 1670.33   4
  -3   2   0 5078.39 2128.12   2
   3   2   0 3907.14 1234.37   5
   3   2   0 4969.09 2447.08   8
   3   2   1 29139.9 3160.41   5
  -3   2  -1 30861.7 4306.41   4
   3   2   1 25682.9 5352.17   8
  -3   2  -1 32888.4 5940.18   2
  -3   2  -2 36445.5 4710.91   3
  -3   2  -2 33981.3 4133.17   4
  -3   2  -2 41898.4 7006.30   2
   3   2   2 37404.4 6612.84   8
  -3   2  -3 61208.2 6706.96   3
   3   2   3 56150.4 8222.56   8
  -3   2  -3 46107.6 4251.40   4
  -3   2  -4 3368.41 962.991   4
  -3   2  -4 9042.65 3176.86   3
   3   2   4 4847.71 1890.80   3
   3   2   4 7515.49 2942.65   8
  -3   2  -4 4355.13 2536.32   2
  -3   2  -5 33492.2 6570.12   3
  -3   2  -5 19897.6 1827.81   4
   3   2   5 30226.1 6422.11   8
   3   2   6 10291.7 4008.60   7
  -3   2  -6 15008.9 5068.20   3
   3   2   7 171.132 465.044   4
   3   2   7 1452.95 1252.26   7
   3   2   8-724.095 963.896   4
   3   2   8-720.835 1018.02   7
  -3   2  -8 1034.22 2978.39   3
   3   2   9 2149.15 1636.18   4
   3   2   9 714.552 1025.81   7
   3   2  10 843.470 1003.06   4
   3   2  10 2561.76 2000.93   7
   3   2  11 71.5774 289.576   4
   3   2  11 1173.64 1398.31   7
  -3   2 -11-811.616 1749.17   3
   3   2  12-140.144 409.977   4
   3   2  12 3000.27 2305.83   7
   3   2  13 4747.88 2991.65   7
  -3   2 -13 1649.60 1568.24   3
   3   2  14-617.345 1102.21   7
  -3   2 -14 3018.85 1392.98   3
   3   2  15 3086.59 2515.71   7
  -3   2 -15 3586.16 2995.49   3
   3   2  16-723.955 1245.95   7
  -3   2 -16 1631.38 2094.57   3
  -3   2 -17 1821.54 2298.44   3
  -3   3  16-5729.86 4634.40   4
   3   3 -15 1062.68 1838.16   3
  -3   3  15-3018.74 3786.19   4
   3   3 -14 390.992 1105.53   3
  -3   3  14-752.973 4039.14   4
   3   3 -13 437.841 1429.68   3
  -3   3  13-4747.31 3652.49   4
  -3   3  12 2987.67 3135.56   4
   3   3 -12 4418.32 4423.82   3
   3   3 -11 12313.9 6592.13   3
  -3   3  11 9828.62 4777.56   4
  -3   3  10 7889.12 4504.59   4
   3   3 -10 12447.5 6169.63   3
  -3   3   9 2043.83 2004.69   4
  -3   3   9 2389.76 1478.91   1
   3   3  -9 1763.75 2410.84   3
  -3   3   8 837.662 1213.65   4
  -3   3   8 960.244 893.756   1
   3   3  -8 4650.38 4169.63   3
  -3   3   7 6027.62 3267.23   4
   3   3  -7 2759.29 2844.01   3
  -3   3   7 5312.89 1964.62   1
  -3   3   6 7535.09 3325.81   4
  -3   3   6 3953.30 1220.41   7
   3   3  -6 6673.32 3237.95   3
  -3   3   6 6973.93 2149.57   1
  -3   3   5 5385.68 2705.51   4
  -3   3   5 5625.42 1913.40   1
  -3   3   5 5574.98 1663.82   7
   3   3  -5 4135.38 1877.61   3
  -3   3   4 17087.5 4796.69   4
  -3   3   4 16241.3 3311.75   7
   3   3  -4 21643.5 5319.63   3
  -3   3   4 17915.6 3744.90   2
   3   3  -4 22386.4 7431.69   8
   3   3  -3 6124.57 3416.10   8
  -3   3   3 2641.92 1842.36   4
  -3   3   3 2838.36 1398.89   7
   3   3  -3 5392.36 2699.94   3
  -3   3   3 5955.21 2307.05   2
   3   3  -2 5895.88 3129.41   8
  -3   3   2 6951.20 2845.56   4
   3   3  -2 4871.61 2428.14   3
  -3   3   2 9640.08 3022.54   2
   3   3  -2 10857.7 2503.83   5
  -3   3   2 7251.78 1604.94   8
  -3   3   1 424.198 452.125   8
  -3   3   1-604.003 813.695   4
  -3   3   1 353.157 907.827   2
   3   3  -1 650.891 990.361   8
   3   3  -1 1158.04 593.818   5
  -3   3   0 15827.5 4142.79   4
  -3   3   0 9280.62 3346.67   1
  -3   3   0 22642.6 4789.82   2
   3   3   0 24376.2 6330.16   8
  -3   3  -1 7822.41 3569.84   2
  -3   3  -1 4959.60 2223.99   4
   3   3   1 3661.21 2323.94   8
  -3   3  -2 11936.2 3749.85   2
  -3   3  -2 8547.28 3006.88   4
   3   3   2 7491.61 3414.08   8
  -3   3  -3 972.380 1662.85   4
  -3   3  -3 3808.67 1674.83   3
   3   3   3 4646.22 2497.11   8
  -3   3  -3 471.608 756.339   2
  -3   3  -4 7020.89 2231.35   4
   3   3   4 10189.4 3989.02   8
  -3   3  -4 1746.86 1467.29   2
  -3   3  -5 308.399 439.148   4
  -3   3  -5 11600.1 4227.73   3
   3   3   5 10286.4 4086.53   8
  -3   3  -6-732.766 406.306   4
  -3   3  -6 5306.78 3189.14   3
   3   3   6 2395.88 1958.12   8
  -3   3  -7 219.285 318.070   4
  -3   3  -7 10053.0 5675.62   3
   3   3   7 6857.27 3417.75   8
   3   3   8 1784.72 1830.07   4
   3   3   8 5411.11 3097.22   7
   3   3   9 1549.75 1717.98   4
   3   3   9-51.3479 294.707   7
  -3   3  -9 5062.58 4845.22   3
   3   3  10-818.981 1229.86   4
   3   3  10 1901.15 1799.52   7
   3   3  11-311.687 735.041   7
  -3   3 -11 2658.51 4046.01   3
   3   3  11 2202.74 1968.71   4
   3   3  12 2494.17 2052.54   4
   3   3  12 5259.57 3095.52   7
  -3   3 -12 6069.57 5539.04   3
   3   3  13 4584.62 2977.82   7
  -3   3 -13 1227.16 1959.46   3
   3   3  14 2094.34 2067.25   7
  -3   3 -14-2486.75 2809.96   3
   3   3  15 833.464 1338.70   7
  -3   3 -15-5575.44 4267.52   3
  -3   3 -16-8971.74 5468.09   3
   3   4 -14 6126.71 4666.81   3
  -3   4  14 536.298 1293.33   4
   3   4 -13 963.588 4439.52   3
  -3   4  13 2880.56 2865.29   4
  -3   4  12 1882.20 2215.48   4
   3   4 -12 9059.04 7041.86   3
  -3   4  11 4068.09 3123.67   4
   3   4 -11 4060.56 5131.67   3
  -3   4  10 2216.33 2220.39   4
   3   4 -10 12217.7 6453.10   3
  -3   4   9 793.806 1282.06   4
   3   4  -9 6613.84 5047.98   3
  -3   4   8 3003.84 2419.86   4
   3   4  -8 494.562 2075.95   3
  -3   4   7-30.3424 235.982   4
   3   4  -7-2436.31 2818.63   3
  -3   4   6 425.498 1588.19   4
   3   4  -6 5383.71 4188.80   3
   3   4  -5 1365.12 2012.84   8
  -3   4   5 920.582 1231.11   4
  -3   4   5 1163.26 590.038   1
  -3   4   4 2668.32 973.979   1
  -3   4   4 4250.96 2478.25   4
   3   4  -4 7024.49 3655.19   3
  -3   4   4 779.016 595.215   1
  -3   4   4 6301.32 1914.52   8
   3   4  -4 8425.32 4737.97   8
   3   4  -3 1278.35 1604.70   8
  -3   4   3 973.226 1201.91   4
   3   4  -3-2260.48 2233.44   3
  -3   4   3 593.858 661.163   2
  -3   4   3-296.662 374.466   1
  -3   4   3 730.686 680.352   8
   3   4  -2 3178.24 2559.98   8
  -3   4   2 4568.58 2533.55   4
   3   4  -2-927.174 1770.88   3
  -3   4   2 4906.58 2044.77   2
  -3   4   2 2563.06 1236.41   1
   3   4  -2 1054.45 735.098   5
  -3   4   2 2801.72 1420.42   8
  -3   4   1-272.157 470.153   8
  -3   4   1 372.309 702.112   4
  -3   4   1 1413.47 1109.78   2
  -3   4   1-357.736 510.321   1
   3   4  -1-183.255 590.458   8
  -3   4   0 9278.18 3397.42   4
  -3   4   0 11373.0 3316.90   8
  -3   4   0 14464.1 3980.17   2
  -3   4   0 10536.7 3080.49   1
   3   4   0 15174.7 5321.16   8
  -3   4  -1 5032.65 2675.12   2
  -3   4  -1 2416.15 1673.78   4
   3   4   1 3816.20 2614.83   8
  -3   4  -2 2632.38 1847.98   2
  -3   4  -2 4986.84 2324.00   4
   3   4   2 9579.86 4142.82   8
  -3   4  -3 1111.96 1056.08   4
  -3   4  -3 4050.17 3297.37   3
   3   4   3 6012.94 3299.02   8
  -3   4  -3-1276.70 1316.99   2
  -3   4  -4 238.958 471.003   4
  -3   4  -4 1400.70 1205.04   3
  -3   4  -4-366.919 716.053   2
   3   4   4 630.295 1078.82   8
  -3   4  -5-814.571 839.197   4
   3   4   5 274.085 717.481   8
  -3   4  -6 281.845 1660.62   3
   3   4   6 630.339 1101.02   8
  -3   4  -7 8175.85 4201.16   3
   3   4   7 5980.02 3444.26   8
   3   4   8 2072.69 2253.20   4
   3   4   8 1683.60 1863.73   8
   3   4   9 1411.32 1901.38   4
  -3   4  -9 10664.5 5065.83   3
   3   4  10 1399.79 1903.78   4
   3   4  10-505.120 1006.54   7
   3   4  11 1121.56 1677.38   4
   3   4  11 2897.94 2375.41   7
   3   4  12-431.671 1015.09   4
   3   4  12 1141.18 1490.96   7
  -3   4 -12 6239.97 7063.15   3
   3   4  13-145.868 576.000   4
   3   4  13 2937.83 2442.46   7
  -3   4 -13 2759.97 2905.17   3
   3   4  14-2525.20 2322.10   7
  -3   4 -14 2298.02 3051.20   3
  -3   4 -15 2165.76 3014.99   3
   3   5 -13 6707.86 7530.43   3
  -3   5  13 2338.20 2676.50   4
  -3   5  12-410.291 1080.84   4
   3   5 -12-272.875 2533.73   3
  -3   5  11 2792.62 2723.05   4
   3   5 -11 6731.90 4732.09   3
   3   5 -10 8118.90 6713.54   3
  -3   5  10 3442.98 2928.21   4
  -3   5   9-613.225 1203.33   4
   3   5  -9 2032.06 2886.38   3
  -3   5   8 2019.88 2125.78   4
   3   5  -8 4112.01 2137.21   3
   3   5  -7-10.7724 205.056   8
   3   5  -7 2814.97 3149.40   3
  -3   5   7 287.736 782.463   4
   3   5  -6 2391.25 2938.96   8
  -3   5   6-2199.16 2112.02   4
   3   5  -6 4560.73 3396.30   3
   3   5  -5 11190.9 5450.15   3
  -3   5   5 10364.1 3050.17   8
   3   5  -5 12463.7 6405.88   8
  -3   5   5 5040.38 3123.57   4
   3   5  -4 2253.80 2584.05   8
  -3   5   4 983.577 1348.07   4
   3   5  -4 24.7724 1432.19   3
  -3   5   4 449.794 648.796   8
   3   5  -3 1682.70 2122.92   8
  -3   5   3 1958.19 1857.24   4
   3   5  -3 3440.29 2876.02   3
  -3   5   3 3264.94 1804.58   8
   3   5  -2 1093.89 1637.38   8
  -3   5   2 78.8520 364.086   4
  -3   5   2-943.436 1002.79   8
   3   5  -2-510.773 2248.11   3
  -3   5   1 1182.29 1374.67   4
  -3   5   1 2600.52 1462.76   2
  -3   5   1-348.820 628.734   8
   3   5  -1 1508.27 1862.71   8
  -3   5   0 2533.18 1961.47   4
  -3   5   0-25.0243 158.279   2
  -3   5   0 2515.93 1759.22   8
   3   5   0 669.469 1216.18   8
  -3   5  -1 520.622 833.052   8
  -3   5  -1 1930.97 1544.71   2
  -3   5  -1-389.610 752.567   4
   3   5   1 1674.28 1909.77   8
  -3   5  -2 1361.22 1403.62   2
  -3   5  -2-203.019 530.317   4
   3   5   2 1112.52 1554.13   8
  -3   5  -3 122.925 441.102   2
  -3   5  -3 929.845 1109.00   4
  -3   5  -3 2128.01 3070.81   3
  -3   5  -4-295.763 613.067   4
  -3   5  -4-148.363 775.216   3
  -3   5  -4-1541.69 1601.82   2
   3   5   4-637.773 1191.23   8
  -3   5  -5-347.120 652.545   4
   3   5   5 647.305 1309.27   8
   3   5   6 921.177 1456.59   8
  -3   5  -6 5502.68 3886.12   3
  -3   5  -7 4685.54 3696.06   3
   3   5   7 6252.80 3841.51   8
   3   5   8 2543.79 2486.47   8
  -3   5  -8 6835.71 4479.12   3
   3   5   9 5067.37 4007.02   4
  -3   5  -9 635.950 1942.05   3
   3   5  10 4470.02 3832.81   4
  -3   5 -10 570.702 1058.70   3
   3   5  11 3144.72 3210.72   4
   3   5  11-1885.97 2090.02   7
  -3   5 -11 5761.55 5328.06   3
   3   5  12 2688.45 1375.89   4
   3   5  12-2281.23 2253.44   7
  -3   5 -12 5391.89 4998.63   3
   3   5  13-620.606 1374.42   4
   3   5  13 659.136 1217.45   7
  -3   5 -14 13294.4 9012.22   3
   3   6 -11 753.398 4577.43   3
   3   6 -10 3814.44 4196.21   8
  -3   6  10-737.594 1460.49   4
   3   6 -10 5855.73 5451.90   3
   3   6  -9 724.354 1807.18   8
  -3   6   9 816.349 1499.56   4
   3   6  -9 5113.36 4601.60   3
   3   6  -8-373.228 1274.24   8
  -3   6   8 1414.49 1930.37   4
   3   6  -8-901.709 1895.92   3
   3   6  -7 3373.17 5121.38   8
  -3   6   7 125.799 563.779   4
   3   6  -6 3044.75 3436.74   8
  -3   6   6-1947.22 2174.55   4
   3   6  -5-227.896 904.135   8
  -3   6   5 3534.98 2874.76   4
   3   6  -4 1129.98 1931.10   8
  -3   6   4 2047.98 2147.62   4
   3   6  -4-1364.79 1751.70   3
   3   6  -3 4129.79 3543.67   8
  -3   6   3 3462.36 2741.61   4
   3   6  -3-1774.31 1989.66   3
   3   6  -2-94.1170 517.163   8
  -3   6   2 586.167 1109.28   4
  -3   6   1 2774.74 2371.53   4
   3   6  -1 765.932 1436.63   8
  -3   6   1 904.435 1151.37   8
  -3   6   0 1527.03 1537.69   8
  -3   6   0 960.644 1376.62   4
   3   6   0 1670.46 2087.72   8
  -3   6  -1 2333.44 1960.86   8
  -3   6  -1 58.1957 333.478   4
   3   6   1 710.601 1352.67   8
  -3   6  -2 2884.19 2249.98   8
  -3   6  -2 323.751 774.896   4
   3   6   2 4616.57 3438.71   8
  -3   6  -3-1767.46 1783.80   4
  -3   6  -3-1179.42 1620.44   3
   3   6   3 678.416 1324.69   8
  -3   6  -3-255.328 692.419   8
  -3   6  -4 2806.90 2217.63   4
  -3   6  -4-75.3578 412.965   3
   3   6   4 534.361 1182.03   8
  -3   6  -5 564.012 980.557   4
  -3   6  -5-11.3925 152.576   2
   3   6   5 981.294 1612.73   8
  -3   6  -6 5705.51 3649.58   3
   3   6   6 1189.62 1794.35   8
  -3   6  -7-1229.19 1233.90   3
   3   6   7 1155.21 1787.41   8
   3   6   8 477.148 1307.68   4
   3   6   8 2303.15 2557.20   8
   3   6   9 2163.95 2853.85   4
  -3   6  -9 1521.66 870.571   3
   3   6   9-243.449 844.336   8
   3   6  10-1353.31 2304.11   4
  -3   6 -10-280.062 4806.93   3
   3   6  11 686.654 1651.74   4
  -3   6 -11 4894.39 3169.53   3
   3   6  12-1808.60 2671.94   4
   3   6  12-1874.52 2219.73   7
  -3   6 -12 3010.58 4881.00   3
   3   6  13 3107.08 3447.31   4
   3   7  -8-4853.42 3952.70   3
  -3   7   7-3250.69 3157.10   4
   3   7  -7-7445.57 4750.07   3
   3   7  -7 2451.51 3266.94   8
   3   7  -6-2568.67 3252.59   8
  -3   7   6 3672.59 3309.31   4
   3   7  -6 9445.45 5231.44   3
  -3   7   5-1063.25 1757.42   4
   3   7  -5-21.4295 2115.60   8
   3   7  -5 1936.31 2334.96   3
   3   7  -4 230.291 912.538   8
  -3   7   4 432.079 1106.49   4
   3   7  -4-1161.24 1791.47   3
   3   7  -3 4180.75 3771.14   8
  -3   7   3-2399.12 2579.52   4
   3   7  -3-1665.42 2133.87   3
  -3   7   2 180.319 698.980   4
   3   7  -2 3208.51 3214.48   8
  -3   7   1-102.809 521.708   4
   3   7  -1 1352.16 2044.95   8
  -3   7   0-664.554 1315.20   4
   3   7   0 1334.74 2005.96   8
  -3   7  -1-1290.77 1810.65   4
   3   7   1 230.483 827.987   8
  -3   7  -2 2530.46 2502.10   4
   3   7   2 1447.09 2067.42   8
  -3   7  -3 2159.72 2278.24   4
  -3   7  -3-2182.86 2404.47   3
   3   7   3-2286.32 1392.93   8
  -3   7  -4 316.930 866.789   8
  -3   7  -4-1830.53 2061.64   4
  -3   7  -4-477.450 1139.63   3
   3   7   4 1436.94 2075.74   8
  -3   7  -5-1152.88 1721.56   8
  -3   7  -5 1500.86 2711.55   3
   3   7   5 992.221 1735.03   8
  -3   7  -6 8927.90 5137.73   3
   3   7   6 3012.64 3053.40   8
  -3   7  -7-797.398 2605.36   3
   3   7   7 710.487 1498.38   8
   3   7   8 459.948 1396.25   4
  -3   7  -8-114.168 623.075   3
   3   7   9-4971.44 4673.74   4
  -3   7  -9-3650.35 3691.09   3
  -3   8   3-1564.99 2351.95   4
  -3   8   2 3062.70 3264.71   4
  -3   8   1-1176.89 2002.33   4
  -3   8   0 3646.77 3479.80   4
  -3   8  -1-858.720 1668.11   4
  -3   8  -2 1342.79 2047.73   4
  -3   8  -2-5412.52 4028.63   3
  -3   8  -3-1305.99 1995.30   3
   4  -8  -5-660.917 1370.14   5
   4  -8  -4-942.620 1619.19   5
   4  -8  -3-299.220 905.661   5
   4  -8  -2-1572.91 2067.02   5
   4  -8  -1 1212.13 1812.17   5
  -4  -8   1 2944.62 2494.14   9
   4  -8   0-789.662 1464.48   5
  -4  -8   0-807.431 1295.28   9
   4  -8   1-290.683 891.871   5
  -4  -8  -2-1158.99 1661.18   6
  -4  -8  -3-867.216 1466.84   6
   4  -7  -9-4669.09 3868.16   5
   4  -7  -8 2248.76 2623.96   5
   4  -7  -7-122.444 598.599   5
  -4  -7   7-294.333 940.241   1
   4  -7  -6 4395.07 3505.78   5
  -4  -7   6-31.9553 302.075   1
   4  -7  -5 2024.00 2330.04   5
  -4  -7   5 373.377 1008.71   1
   4  -7  -4-374.378 984.212   5
  -4  -7   4 546.473 1193.51   1
   4  -7  -3-1761.39 2108.21   5
  -4  -7   3 2963.31 2722.11   1
   4  -7  -2-234.344 762.248   5
  -4  -7   2 2084.77 2243.22   1
  -4  -7   1 876.167 1254.44   6
  -4  -7   1 537.046 1121.59   1
   4  -7  -1 1944.78 2189.05   5
  -4  -7   0-340.332 799.937   6
   4  -7   0 948.292 1531.37   5
  -4  -7  -1 924.074 1347.55   6
   4  -7   1 2211.03 2352.18   5
  -4  -7  -1 125.075 464.857   9
  -4  -7  -2 1930.29 1990.96   6
   4  -7   2 2316.39 2430.03   5
  -4  -7  -2 2746.90 2120.41   9
  -4  -7  -3-1001.53 1465.50   6
   4  -7   3-493.044 1134.13   5
  -4  -7  -4-81.2106 427.210   6
   4  -7   5 404.982 983.788   9
  -4  -7  -5 1798.25 2060.43   6
  -4  -7  -6 3042.51 2750.60   6
   4  -7   6 793.330 1379.06   9
   4  -6 -11 647.928 1466.50   5
   4  -6 -10-1949.61 2496.63   5
   4  -6  -9 366.656 1060.30   5
  -4  -6   9-326.030 988.550   1
   4  -6  -8-2692.91 2808.33   5
  -4  -6   8 843.313 1544.57   1
   4  -6  -7-1539.54 2071.58   5
  -4  -6   7 4099.85 3316.50   1
   4  -6  -6-1497.03 1990.30   5
  -4  -6   6 3296.73 2901.79   1
  -4  -6   5 2494.35 2469.27   1
   4  -6  -5-620.597 1249.55   5
  -4  -6   4 2946.84 2637.80   1
   4  -6  -4 2445.95 2422.56   5
  -4  -6   3 441.977 799.072   6
  -4  -6   3-230.074 727.367   1
   4  -6  -3-581.753 1158.93   5
  -4  -6   2 1150.99 1613.90   1
  -4  -6   2 1470.83 1493.87   6
   4  -6  -2 2053.56 2148.60   5
  -4  -6   1 206.463 681.668   1
  -4  -6   1 3670.70 2414.43   6
   4  -6  -1 2563.48 2389.10   5
  -4  -6   0 1500.00 1839.95   1
  -4  -6   0 1090.74 1345.59   6
   4  -6   0 1730.96 1966.46   5
  -4  -6  -1 1072.39 1563.92   1
  -4  -6  -1 326.924 753.168   6
   4  -6   1 2128.62 2197.77   5
  -4  -6  -2-877.321 1425.77   1
  -4  -6  -2 1126.31 1429.97   6
   4  -6   2 444.623 1017.50   5
  -4  -6  -3 1166.76 1666.10   1
  -4  -6  -3 1559.43 1722.53   6
   4  -6   3 1775.88 2065.81   5
  -4  -6  -3 1854.24 1530.08   9
  -4  -6  -4 2176.70 2296.82   1
  -4  -6  -4 3034.80 2466.03   6
   4  -6   4 1218.44 1740.56   5
  -4  -6  -5 93.4596 444.023   6
   4  -6   5 3525.12 2696.56   9
  -4  -6  -6 240.497 731.744   6
   4  -6   6 1024.04 1453.64   9
  -4  -6  -7-2722.08 2532.30   6
   4  -6   7 3102.49 2536.48   9
  -4  -6  -8-290.973 852.649   6
   4  -6   8-558.496 1081.18   9
   4  -6   9-3093.03 3297.37   7
  -4  -6  -9 1287.41 1847.36   6
   4  -6   9-65.0224 371.552   9
   4  -6  10-12.0622 161.486   9
   4  -6  11-1142.05 1587.88   9
   4  -5 -12-560.935 1309.42   5
  -4  -5  11 85.8800 514.662   1
   4  -5 -11 4693.04 3720.71   5
   4  -5 -10 1365.19 1970.98   5
  -4  -5  10 3500.14 3175.28   1
   4  -5  -9 1745.00 2190.86   5
  -4  -5   9-1822.29 2218.23   1
   4  -5  -8 1214.90 1792.31   5
  -4  -5   8 2416.84 2477.43   1
  -4  -5   7 3515.62 2905.71   1
   4  -5  -7-231.319 765.669   5
  -4  -5   6 2015.70 2150.76   1
   4  -5  -6 2619.92 2516.90   5
  -4  -5   5 3970.20 2965.86   1
   4  -5  -5 2739.92 2510.89   5
  -4  -5   4-180.089 624.854   1
   4  -5  -4-1603.07 1873.90   5
  -4  -5   3 2073.59 2112.59   1
   4  -5  -3 1739.17 1911.03   5
  -4  -5   2 1054.22 1510.29   1
   4  -5  -2-207.764 650.138   5
  -4  -5   1 1102.75 1557.75   1
   4  -5  -1 3734.81 2734.42   5
  -4  -5   0 599.628 1162.93   1
   4  -5   0 2713.44 2335.89   5
   4  -5   1 5537.06 3866.24   7
  -4  -5  -1-815.412 1380.12   1
   4  -5   1 2664.53 2337.22   5
   4  -5   2 3972.46 3132.75   7
   4  -5   2 4080.35 2937.88   5
  -4  -5  -2 404.553 983.844   1
   4  -5   3 6659.71 4035.51   7
   4  -5   3 8145.14 4232.20   5
  -4  -5  -3 5031.75 3070.67   2
   4  -5   4 3008.97 2723.36   7
   4  -5   4 4203.21 3102.15   5
  -4  -5  -4 1999.21 1948.02   2
  -4  -5  -4 373.770 582.823   9
   4  -5   5 738.637 1365.09   7
  -4  -5  -5 2787.10 2319.18   6
  -4  -5  -5 4668.17 2987.09   2
   4  -5   5-674.316 1083.91   9
   4  -5   6-902.717 1536.13   7
  -4  -5  -6 202.600 642.486   6
   4  -5   6 105.997 429.612   9
   4  -5   7 4171.47 3377.25   7
  -4  -5  -7 3824.80 2869.35   6
  -4  -5  -7 6774.48 3555.41   2
   4  -5   7 8401.25 3830.00   9
  -4  -5  -8 7321.38 4088.02   6
   4  -5   8 6549.89 3524.00   9
   4  -5   8 10013.4 5370.68   7
   4  -5   9 253.289 879.031   7
  -4  -5  -9 3142.69 2755.69   6
   4  -5   9 34.6466 1367.30   9
   4  -5  10 233.548 870.216   7
  -4  -5 -10-1064.06 1650.76   6
   4  -5  10 1301.03 1535.38   9
   4  -5  11 1628.62 2371.75   7
  -4  -5 -11 60.1809 404.028   6
   4  -5  11 1629.92 1736.17   9
   4  -4 -14 707.088 1446.06   5
  -4  -4  13 1365.27 2112.30   1
   4  -4 -13 1081.07 1746.79   5
  -4  -4  12-1212.40 1922.88   1
   4  -4 -12-4432.92 3454.86   5
   4  -4 -11-918.821 1537.57   5
  -4  -4  11 4046.33 3380.97   1
   4  -4 -10 252.197 788.423   5
  -4  -4  10 2517.15 2570.12   1
   4  -4  -9 7733.23 4273.76   5
  -4  -4   9 4875.46 3591.42   1
  -4  -4   8 443.927 1008.71   1
   4  -4  -8-31.3906 267.165   5
  -4  -4   7 2878.99 2501.67   1
   4  -4  -7 3311.42 3320.25   5
  -4  -4   6 2613.19 2335.61   1
   4  -4  -6 3261.97 2627.11   5
  -4  -4   5 1515.36 1757.96   1
   4  -4  -5 768.178 1249.95   5
  -4  -4   4 2644.59 2313.97   1
   4  -4  -4-618.516 1098.65   5
  -4  -4   3 1579.93 1796.90   1
   4  -4  -3 1500.29 1678.37   5
   4  -4  -2 1037.10 2405.38   7
  -4  -4   2 236.666 703.425   1
   4  -4  -2 708.256 1136.40   5
  -4  -4   1 455.802 995.016   1
   4  -4  -1 2613.61 2271.91   7
   4  -4  -1 514.066 960.453   5
   4  -4   0 1974.13 1932.46   7
   4  -4   0 530.453 977.105   5
  -4  -4   0-671.945 1104.22   2
  -4  -4   0 2112.69 2173.93   1
   4  -4   1 1113.48 1435.69   7
   4  -4   1 2010.30 2026.66   5
  -4  -4  -1-909.859 1300.77   2
   4  -4   2 21082.1 6251.04   7
   4  -4   2 13326.9 5318.87   5
  -4  -4  -2 25195.1 6838.30   2
   4  -4   3 422.527 894.054   7
   4  -4   3 395.641 888.335   5
  -4  -4  -3 217.285 629.964   2
   4  -4   4 4106.09 2840.33   7
  -4  -4  -4 4168.21 2717.24   2
   4  -4   4 3607.37 2832.18   5
   4  -4   5 6303.55 3601.58   7
  -4  -4  -5 5203.25 3006.70   2
   4  -4   5 6826.58 3842.68   5
   4  -4   5 6515.66 3053.31   9
  -4  -4  -5 3673.15 1469.36   9
   4  -4   6 9016.61 4465.39   7
  -4  -4  -6 7164.95 3514.39   2
   4  -4   6 4188.32 2449.18   9
   4  -4   7 719.075 1287.90   7
  -4  -4  -7 2781.49 2203.62   2
   4  -4   7 1575.29 1504.87   9
   4  -4   8 9088.87 4727.75   7
  -4  -4  -8 8232.08 3843.18   2
  -4  -4  -8 8509.40 4239.08   6
   4  -4   8 5690.23 2869.78   9
   4  -4   9 13050.4 5857.80   7
  -4  -4  -9 3128.78 2417.25   2
  -4  -4  -9 7628.71 4117.18   6
   4  -4   9 7394.97 3289.77   9
   4  -4  10 654.009 1357.18   7
  -4  -4 -10 814.390 1259.42   2
  -4  -4 -10 969.034 1504.78   6
   4  -4  10 1883.02 1672.52   9
  -4  -4 -11-818.799 1291.08   2
  -4  -4 -11 293.451 850.611   6
   4  -4  11-273.923 643.753   9
   4  -4  12 10237.1 1630.47   7
  -4  -4 -12-2217.85 2400.41   6
   4  -4  13-2620.91 3010.88   7
  -4  -4 -13-1102.07 1736.98   6
  -4  -3  14-1532.87 2247.89   1
   4  -3 -14-154.514 656.085   5
  -4  -3  13 956.411 1706.73   1
   4  -3 -13-970.042 1592.45   5
   4  -3 -12 2116.43 2278.37   5
  -4  -3  12-195.811 743.519   1
   4  -3 -11 2444.66 2373.46   5
  -4  -3  11 259.502 821.721   1
   4  -3 -10 6204.88 3671.00   5
  -4  -3  10 6299.01 3889.23   1
  -4  -3   9 11894.4 5126.95   1
   4  -3  -9 8683.80 4228.51   5
  -4  -3   8 727.246 1232.79   1
   4  -3  -8 903.066 1330.99   5
  -4  -3   7 4239.49 2937.89   1
   4  -3  -7 3766.08 2660.99   5
  -4  -3   6-398.415 875.912   1
   4  -3  -6 517.463 966.878   5
  -4  -3   5 450.902 599.072   1
   4  -3  -5 3847.93 2595.99   5
   4  -3  -4 3819.72 2337.63   7
  -4  -3   4 1076.46 1435.45   1
   4  -3  -4 2371.17 2005.21   5
  -4  -3   3-244.647 694.673   1
   4  -3  -3 1937.10 1631.05   7
   4  -3  -3 3558.99 2516.65   5
  -4  -3   2 2138.86 2084.56   1
   4  -3  -2 2345.52 1623.25   7
   4  -3  -2 4762.80 2902.50   5
   4  -3  -1 9694.74 3574.07   7
   4  -3  -1 3175.52 2249.85   5
  -4  -3   1 3647.79 2526.63   2
   4  -3   0 28123.0 6083.16   7
   4  -3   0 25708.1 6632.30   5
  -4  -3   0 25856.9 6971.62   2
   4  -3   1 36.4649 219.646   7
  -4  -3  -1 564.245 1247.79   2
   4  -3   2 3988.81 2409.83   7
  -4  -3  -2 7075.98 3415.26   2
   4  -3   2 4395.51 2593.03   5
   4  -3   3 20003.6 5514.27   7
  -4  -3  -3 15507.9 5177.34   2
   4  -3   3 15785.1 5607.51   5
   4  -3   4 2956.98 2151.33   7
  -4  -3  -4 11459.9 4207.31   2
   4  -3   4 11718.4 4776.73   5
   4  -3   5 839.252 1185.42   7
  -4  -3  -5-221.926 591.220   2
   4  -3   5 518.163 997.530   5
   4  -3   6 24313.3 6680.05   7
  -4  -3  -6 18392.3 5398.24   2
   4  -3   7 28123.0 7364.83   7
   4  -3   7 26286.5 5899.17   9
  -4  -3  -7 36893.9 8014.80   2
   4  -3   8 18562.3 6100.27   7
  -4  -3  -8 9888.94 4183.77   2
   4  -3   8 15617.2 4408.55   9
   4  -3   9 9999.03 4725.73   7
  -4  -3  -9 8938.26 4087.86   2
   4  -3   9 9666.77 3643.70   9
   4  -3  10 498.247 1094.98   7
  -4  -3 -10-1739.08 1856.45   2
   4  -3  11 2178.78 2377.11   7
  -4  -3 -11 356.009 864.260   2
  -4  -3 -11 3760.75 2903.05   6
   4  -3  12 541.208 1229.76   7
  -4  -3 -12-204.132 234.343   2
  -4  -3 -12-1065.91 1581.90   6
   4  -3  13 50.0154 387.891   7
  -4  -3 -13-982.138 1517.24   2
   4  -3  14 1713.47 2353.18   7
  -4  -3 -14-1009.27 1578.22   2
  -4  -3 -14-424.085 1047.46   6
  -4  -3 -15-341.777 965.503   6
  -4  -2  15 1661.75 2346.05   1
   4  -2 -15 149.540 669.302   5
  -4  -2  14 274.637 920.619   1
   4  -2 -14 5037.21 3751.85   5
  -4  -2  13-1292.26 1921.18   1
   4  -2 -13 3448.71 2987.23   5
   4  -2 -12-277.183 813.810   5
  -4  -2  12 166.771 660.572   1
   4  -2 -11-182.492 634.262   5
  -4  -2  11 2589.44 2492.50   1
  -4  -2  10 3645.04 2835.09   1
   4  -2 -10 3442.44 2647.85   5
  -4  -2   9 4599.53 3064.05   1
   4  -2  -9 2716.75 2265.23   5
  -4  -2   8 5048.79 3110.21   1
   4  -2  -8 8375.81 3842.75   5
  -4  -2   7 3219.13 2428.94   1
   4  -2  -7 1635.34 1647.27   5
   4  -2  -6 6554.64 2045.97   7
  -4  -2   6 2598.79 2158.45   1
   4  -2  -6 1528.41 1552.88   5
   4  -2  -5 11937.2 3049.07   7
  -4  -2   5 5973.53 3367.78   1
   4  -2  -5 10557.1 3991.11   5
  -4  -2   4 5902.14 3295.09   1
   4  -2  -4 6804.01 2280.61   7
   4  -2  -4 9911.84 3802.44   5
   4  -2  -3 5420.45 2310.71   7
   4  -2  -3 8665.88 3559.06   5
  -4  -2   3 10251.7 4085.83   2
  -4  -2   3 3299.99 2497.67   1
   4  -2  -2 13129.3 3249.28   7
   4  -2  -2 9982.51 3822.49   5
  -4  -2   2 14039.2 4911.89   2
   4  -2  -1 6736.76 2452.78   7
   4  -2  -1 3169.32 2103.97   5
   4  -2   0 1008.43 980.303   7
  -4  -2   0 1156.03 1355.85   2
   4  -2   0 1932.83 1700.51   5
   4  -2   1 1638.42 1472.63   7
   4  -2   1-833.698 909.558   4
  -4  -2  -1 3998.54 2344.80   2
   4  -2   1 3242.60 1991.73   5
  -4  -2  -1 3297.00 1428.63   5
   4  -2   2 5431.97 2479.69   7
  -4  -2  -2 4812.13 2725.68   2
   4  -2   2 3677.87 2346.62   5
  -4  -2  -2 3774.47 1443.98   5
   4  -2   3 11452.7 3798.28   7
  -4  -2  -3 12234.6 4260.94   2
   4  -2   3 10135.1 3968.33   5
  -4  -2  -3 10616.0 2514.13   5
   4  -2   4 13365.5 4214.18   7
  -4  -2  -4 10223.6 4019.78   2
   4  -2   4 9444.29 3930.19   5
  -4  -2  -4 12148.8 2907.78   5
   4  -2   5 2601.75 1931.94   7
  -4  -2  -5 3735.71 2368.58   2
   4  -2   5 4699.11 2792.33   5
  -4  -2  -5 1397.99 1035.30   5
   4  -2   6 8770.75 3683.31   7
  -4  -2  -6 6338.72 3153.64   2
   4  -2   7 20589.1 5922.69   7
  -4  -2  -7 24343.3 6394.57   2
   4  -2   8 11653.0 4575.23   7
  -4  -2  -8 14765.3 5185.81   2
   4  -2   9 9004.00 4175.59   7
  -4  -2  -9 13045.7 5061.85   2
  -4  -2 -10 261.895 733.661   2
   4  -2  10 229.029 689.493   7
  -4  -2 -11 914.542 1422.46   2
   4  -2  11 581.180 1140.79   7
   4  -2  12 166.951 635.067   7
  -4  -2 -12 2204.16 2160.77   6
  -4  -2 -12 4110.40 3131.44   2
  -4  -2 -13 605.738 1245.06   2
   4  -2  13-1557.63 2014.31   7
  -4  -2 -13 2116.65 2161.32   6
  -4  -2 -14-1074.64 1712.95   2
   4  -2  14-1771.99 2228.49   7
  -4  -2 -14 2053.15 2181.29   6
  -4  -2 -15-971.792 1676.71   2
   4  -2  15 259.522 884.230   7
  -4  -2 -15-489.415 1093.20   6
   4  -2  16-512.775 1286.87   7
  -4  -2 -16-894.169 1519.86   6
  -4  -2 -16-2939.73 2990.65   2
  -4  -2 -17 3095.85 2914.14   6
  -4  -1  17-2153.34 2754.80   1
  -4  -1  16-2641.39 2965.24   1
   4  -1 -16 726.711 1317.23   3
  -4  -1  15 6098.43 4347.86   1
   4  -1 -15 5213.64 4077.59   5
   4  -1 -15-585.351 1137.80   3
  -4  -1  14 1706.57 2217.59   1
   4  -1 -14 6039.14 4220.56   5
   4  -1 -14 2070.91 2058.45   3
  -4  -1  13 309.739 907.260   1
   4  -1 -13 1288.73 1869.31   5
   4  -1 -13 3913.50 2719.44   3
   4  -1 -12 1792.96 2108.29   5
   4  -1 -12-1313.00 1512.02   3
  -4  -1  12-812.319 1402.96   1
  -4  -1  11 7549.66 4085.84   1
   4  -1 -11 4818.96 3298.23   5
   4  -1 -11 7112.65 3372.69   3
  -4  -1  10 564.237 1067.99   1
   4  -1 -10 6337.17 3605.34   5
   4  -1 -10 3290.12 2193.71   3
  -4  -1   9 1771.20 1820.12   1
   4  -1  -9 5467.11 3314.92   5
   4  -1  -9 2133.44 1684.73   3
  -4  -1   8 5497.91 3122.17   1
   4  -1  -8 12594.9 4634.89   5
   4  -1  -8 10699.7 3585.80   3
  -4  -1   7 7173.59 3696.80   1
   4  -1  -7 5245.05 2864.67   5
   4  -1  -7 7655.00 2921.02   3
   4  -1  -6 5938.78 1425.95   7
  -4  -1   6 3754.08 2508.31   1
   4  -1  -6 5445.16 2835.14   5
  -4  -1   5 160.259 523.724   1
   4  -1  -5 1749.30 879.394   7
   4  -1  -5 1874.99 824.034   8
   4  -1  -5 3189.57 2079.63   5
   4  -1  -4 15624.3 2911.38   7
  -4  -1   4 12370.3 3246.02   3
   4  -1  -4 8390.41 3340.89   5
  -4  -1   4 10390.1 3998.75   2
  -4  -1   4 11457.4 4697.28   1
   4  -1  -3 6431.45 2097.32   7
   4  -1  -3 4876.13 2691.59   5
   4  -1  -2 32504.4 4887.89   7
   4  -1  -2 25958.4 5665.42   5
  -4  -1   2 31309.4 7216.65   2
   4  -1  -1 4237.40 1978.94   7
  -4  -1   1 3828.95 2144.32   2
   4  -1  -1 1636.43 1172.75   5
   4  -1   0-213.041 411.127   4
   4  -1   0 681.507 778.825   7
   4  -1   0 97.4454 344.992   5
   4  -1   1 44151.0 7353.73   7
   4  -1   1 42094.2 7395.26   5
  -4  -1  -1 44241.0 5891.31   5
   4  -1   1 46390.3 5696.19   4
  -4  -1  -1 46534.2 8074.48   2
   4  -1   2 59408.1 8241.40   7
   4  -1   2 54109.1 8487.18   5
   4  -1   2 48725.1 5554.27   4
  -4  -1  -2 51261.6 8480.78   2
   4  -1   3 1606.57 889.497   4
   4  -1   3 13233.7 4094.43   7
  -4  -1  -3 18272.2 4987.05   2
   4  -1   3 9885.39 3599.35   5
   4  -1   4 19094.8 4877.58   7
  -4  -1  -4 18263.6 5099.36   2
   4  -1   4 16169.3 4750.00   5
  -4  -1  -5-1008.59 1230.15   2
   4  -1   5 204.852 536.302   5
  -4  -1  -5 54.7286 113.708   9
   4  -1   6 36002.2 7289.21   7
   4  -1   6 34762.6 4922.64   3
  -4  -1  -6 33650.7 7351.77   2
   4  -1   7 21998.4 5993.22   7
  -4  -1  -7 37582.4 8085.05   2
  -4  -1  -8 20013.2 6116.09   2
   4  -1   8 15779.3 5340.81   7
   4  -1   9 21429.8 6647.83   7
  -4  -1  -9 32266.4 8113.84   2
  -4  -1 -10 2509.98 2314.97   2
   4  -1  10 4514.15 2904.11   7
  -4  -1 -11 871.251 1424.80   2
   4  -1  11 1006.49 1431.92   7
  -4  -1 -12 1730.42 2103.25   2
   4  -1  12 792.680 1312.47   7
  -4  -1 -13-254.674 840.921   2
   4  -1  13 1664.48 1969.88   7
  -4  -1 -13 1169.46 1525.20   6
  -4  -1 -14-1000.20 1729.98   2
  -4  -1 -14 5321.34 3329.92   6
  -4  -1 -15 35.6630 337.415   2
   4  -1  15 214.660 756.332   7
  -4  -1 -15 2386.66 2286.93   6
   4  -1  16-278.203 891.175   7
  -4  -1 -16-122.980 533.811   6
  -4   0  17 3328.37 3293.56   1
  -4   0  16 2462.43 2758.24   1
   4   0 -16-1459.78 1829.88   3
  -4   0  15 1865.87 2319.64   1
   4   0 -15-487.061 1013.07   3
  -4   0  14 3678.70 3140.92   1
   4   0 -14-278.841 733.438   3
  -4   0  13 1763.77 2079.72   1
   4   0 -13 1761.53 1764.81   3
   4   0 -12 1905.08 1755.35   3
  -4   0  12 1671.12 1935.12   1
   4   0 -11 2944.86 2084.38   3
  -4   0  11 3962.08 2838.06   1
  -4   0  11 9493.87 5722.67   4
  -4   0  10 2349.65 2083.39   1
   4   0 -10-259.500 589.738   3
  -4   0  10 4476.44 5484.99   4
   4   0  -9 1139.47 597.887   7
  -4   0   9 11699.6 4576.22   1
   4   0  -9 17463.9 4583.86   3
   4   0  -9 17708.7 6044.18   5
  -4   0   9 22400.6 7216.83   4
   4   0  -8-400.480 412.028   7
   4   0  -8-59.8915 254.788   3
   4   0  -8 273.301 695.930   5
   4   0  -7 36244.3 4540.42   7
   4   0  -7 41016.2 6352.92   3
   4   0  -7 38374.8 8440.20   5
  -4   0   7 41876.8 8186.27   1
  -4   0   7 52069.8 10368.4   4
  -4   0   6 695.137 1040.29   1
   4   0  -6 385.498 474.901   7
   4   0  -6-901.675 866.651   3
   4   0  -6-1416.28 1422.70   5
   4   0  -5 2757.85 1672.49   8
   4   0  -5 1683.36 1043.09   7
  -4   0   5 1670.00 1643.04   1
  -4   0   5 2824.91 1601.96   3
   4   0  -5 2908.94 1567.97   3
   4   0  -5 2755.37 1885.31   5
  -4   0   5 3677.68 3480.31   4
   4   0  -4 6713.68 2482.08   7
   4   0  -4 5742.21 1992.21   8
  -4   0   4 6171.45 1974.82   3
  -4   0   4 5264.62 3036.62   2
   4   0  -4 6822.27 3023.08   5
   4   0  -4 8950.52 2309.90   3
   4   0  -3 38373.5 5474.98   7
  -4   0   3 50980.4 5138.73   3
   4   0  -3 47227.7 4652.07   3
   4   0  -3 51014.7 7649.36   5
   4   0  -3 43769.3 5069.01   8
  -4   0   3 48998.7 8886.22   2
   4   0  -2 995.127 947.679   7
  -4   0   2 3072.94 1221.19   3
  -4   0   2 1382.42 1444.03   2
   4   0  -2 2016.36 1379.53   5
   4   0  -2 2075.88 800.778   3
   4   0  -2 3142.73 1327.40   8
   4   0  -1 37479.2 5801.96   7
   4   0  -1 50159.7 7348.77   5
   4   0  -1 51862.9 5669.78   8
  -4   0   1 56734.6 9081.67   2
  -4   0   0 8375.62 2541.82   8
   4   0   0 11539.3 3378.29   7
  -4   0   0 7936.72 3462.57   2
   4   0   0 12136.6 2807.09   8
   4   0   0 9122.13 3065.95   5
   4   0   0 9718.94 2722.60   4
   4   0   1 14620.9 3768.11   7
  -4   0  -1 16863.8 4832.09   2
   4   0   1 10694.9 3396.32   5
   4   0   1 12561.9 3011.82   4
  -4   0  -1 12403.0 3141.77   8
   4   0   2 7302.40 2893.42   7
  -4   0  -2 9682.12 3592.81   2
   4   0   2 5919.08 2552.76   5
   4   0   2 8086.95 2301.61   4
  -4   0  -2 8315.54 2619.96   8
  -4   0  -3 847.033 1223.46   2
   4   0   3 3107.40 1782.40   7
   4   0   3 3144.84 1829.29   5
   4   0   3 317.722 790.082   4
  -4   0  -4 103.778 564.167   2
   4   0   4-567.849 832.885   7
   4   0   4 467.137 283.712   3
   4   0   4 1096.36 1105.53   5
  -4   0  -4-58.5004 156.482   9
   4   0   4-418.961 957.643   4
  -4   0  -5 15828.1 4890.84   2
   4   0   5 15833.3 4799.64   7
   4   0   5 9500.60 2223.48   3
   4   0   5 7734.10 1582.63   4
  -4   0  -5 10027.3 1986.97   9
   4   0   6 29202.5 6522.17   7
  -4   0  -6 25716.5 6606.86   2
   4   0   6 20810.2 3976.53   3
  -4   0  -7 10424.2 4384.76   2
   4   0   7 9501.27 4680.95   7
   4   0   7 11202.2 3055.66   3
  -4   0  -7 11134.0 2784.48   3
  -4   0  -8 1686.06 1748.62   2
   4   0   8 3441.54 2360.47   7
  -4   0  -8 113.761 299.809   3
  -4   0  -9 2776.25 2747.61   2
   4   0   9 5899.46 3198.11   7
  -4   0  -9 2572.59 1526.59   3
  -4   0 -10 21925.0 6861.23   2
   4   0  10 31763.5 7808.14   7
  -4   0 -10 27168.6 5356.40   3
  -4   0 -11-418.156 993.535   2
   4   0  11 1009.30 1404.82   7
  -4   0 -11-292.700 582.369   3
  -4   0 -12-611.764 1260.32   2
   4   0  12 442.255 958.703   7
  -4   0 -12 1708.54 1490.07   3
  -4   0 -13-309.235 939.662   2
   4   0  13 2159.11 2181.29   7
  -4   0 -13-946.117 1172.20   3
  -4   0 -14-2890.54 2993.72   2
   4   0  14 998.491 1528.08   7
  -4   0 -14-254.875 690.212   6
  -4   0 -14 596.011 982.236   3
  -4   0 -15-390.255 1140.07   2
   4   0  15 1104.27 1651.11   7
  -4   0 -15-181.209 571.187   3
   4   0  16-1884.68 2223.33   7
   4   0  17-1402.36 1977.70   7
   4   1 -16 2026.84 2199.96   3
  -4   1  16 4822.77 5139.12   4
  -4   1  15 1918.38 2246.28   1
   4   1 -15 3419.46 2742.67   3
  -4   1  15 8255.80 7211.06   4
  -4   1  14-1391.28 1844.97   1
   4   1 -14 84.7013 414.760   3
  -4   1  13 4126.54 3054.79   1
   4   1 -13 2748.71 2270.48   3
  -4   1  13 7206.16 5487.95   4
  -4   1  12-664.823 1171.42   1
  -4   1  12 4288.32 4736.27   4
   4   1 -12 1852.55 1793.24   3
   4   1 -11 2834.13 1545.01   3
  -4   1  11 5916.42 3314.86   1
   4   1 -10 4511.99 1856.71   3
  -4   1  10 5728.38 3100.26   1
  -4   1  10 7583.07 5347.06   4
  -4   1   9 5211.26 2823.10   1
   4   1  -9 1488.88 1458.31   3
  -4   1   9 7641.28 4833.47   4
  -4   1   8 8650.35 3518.04   1
   4   1  -8 7602.80 3198.62   3
  -4   1   8 12418.0 5471.94   4
  -4   1   7 7460.04 3242.35   1
   4   1  -7 6312.52 2699.94   3
   4   1  -7 7750.17 3647.88   5
  -4   1   7 8247.73 4671.43   4
  -4   1   6 8782.18 3746.96   1
   4   1  -6 6084.57 2634.66   3
   4   1  -6 7857.17 3286.36   5
  -4   1   6 13934.8 5384.07   4
  -4   1   5 1291.08 1391.90   1
  -4   1   5 1356.18 2280.34   4
   4   1  -5 1974.67 1769.60   8
   4   1  -5 2908.74 1941.80   3
  -4   1   5 2990.79 2046.04   2
   4   1  -5 1811.25 1541.59   5
   4   1  -4 12414.5 4313.99   8
  -4   1   4 10938.0 3010.51   3
   4   1  -4 12652.9 3395.57   3
  -4   1   4 15006.5 4719.95   2
   4   1  -4 12756.1 3803.84   5
  -4   1   4 16676.9 5138.04   4
   4   1  -3 4077.49 2027.26   8
   4   1  -3 8626.22 2647.52   3
  -4   1   3 9822.21 3845.63   2
  -4   1   3 2981.04 1430.17   3
   4   1  -3 5816.77 2554.11   5
  -4   1   3 3374.86 2216.83   4
   4   1  -2 34707.2 4616.12   3
  -4   1   2 29386.4 3553.55   3
   4   1  -2 31341.2 5424.17   5
   4   1  -2 26601.7 5055.90   8
  -4   1   2 26906.7 5773.63   4
  -4   1   2 47043.1 8409.00   2
  -4   1   1 3742.10 2247.27   2
   4   1  -1 3716.68 1453.20   3
  -4   1   1 1514.08 745.877   3
   4   1  -1 2695.40 1527.72   5
  -4   1   1 4211.48 2676.13   4
   4   1  -1 1662.54 1214.91   8
  -4   1   0 492.287 801.568   2
   4   1   0 910.853 600.838   3
   4   1   0 1291.50 1037.40   5
  -4   1   0 1673.13 2335.24   4
   4   1   0 1725.84 1260.43   8
  -4   1   0 830.799 609.540   8
   4   1   1 44450.1 3496.47   3
   4   1   1 44678.7 6057.72   5
  -4   1  -1 52046.2 7035.91   4
   4   1   1 55417.4 7521.42   8
  -4   1  -1 48021.9 5181.34   8
  -4   1  -1 47815.4 8220.44   2
   4   1   2 35520.7 8904.03   7
   4   1   2 50574.7 3800.72   3
   4   1   2 45929.8 6134.72   5
   4   1   2 55414.3 7668.25   8
  -4   1  -2 49123.5 5694.60   8
  -4   1  -2 63684.3 9472.69   2
  -4   1  -3 15980.7 4778.60   2
  -4   1  -3 11722.2 1644.12   3
   4   1   3 14306.2 2290.48   3
   4   1   3 13225.0 4362.71   7
   4   1   3 9317.27 2898.14   5
   4   1   3 12365.8 3780.42   8
  -4   1  -3 13853.8 3216.94   8
  -4   1  -4 18130.3 5123.38   2
   4   1   4 13888.8 4573.69   7
  -4   1  -4 12488.6 2050.15   3
   4   1   4 16358.7 2908.48   3
  -4   1  -5-137.697 456.704   2
   4   1   5 1088.98 1225.57   7
   4   1   5-226.200 1017.50   3
  -4   1  -5-1666.45 868.362   3
  -4   1  -5 402.836 487.958   9
   4   1   6 38681.6 7651.42   7
   4   1   6 34605.9 6081.04   3
  -4   1  -6 38864.2 4763.20   3
  -4   1  -6 34803.4 7633.75   2
  -4   1  -7 15207.1 5005.05   2
   4   1   7 22247.3 6045.12   7
  -4   1  -7 16759.2 3459.15   3
  -4   1  -8 6931.16 4606.71   2
   4   1   8 21832.5 6008.23   7
  -4   1  -8 23422.7 4428.99   3
   4   1   8 16357.4 3512.68   4
   4   1   9 31342.6 7593.79   7
  -4   1  -9 27214.4 5080.32   3
   4   1  10 6206.62 3415.53   7
  -4   1 -10 2201.12 1525.06   3
  -4   1 -10 2693.54 2373.11   2
   4   1  11 657.076 1146.20   7
  -4   1 -11 1425.00 1307.13   3
  -4   1 -11 478.733 1050.69   2
   4   1  12-451.205 971.555   7
  -4   1 -12-1464.20 1406.06   3
  -4   1 -12-1489.81 1947.95   2
  -4   1 -13 2569.26 2683.80   2
   4   1  13 1960.89 2079.73   7
  -4   1 -13 729.600 1051.09   3
   4   1  14 1059.22 1560.78   7
  -4   1 -14-70.8667 346.379   3
  -4   1 -14-1415.14 2082.04   2
  -4   1 -15-591.744 1400.37   2
   4   1  15-73.7701 421.813   7
  -4   1 -15 1286.49 1560.46   3
   4   1  16-1092.19 1661.50   7
   4   1  17-780.248 1439.90   7
   4   2 -16 6381.90 4167.33   3
   4   2 -15-8085.74 4559.09   3
  -4   2  15 8099.11 5424.08   4
   4   2 -14-4148.38 3173.57   3
  -4   2  14 10529.5 6491.62   4
   4   2 -13-129.419 1118.49   3
  -4   2  13 3113.79 3419.64   4
  -4   2  12 1117.19 1433.99   1
   4   2 -12 1065.90 952.009   3
  -4   2  12 1408.16 1644.09   4
   4   2 -11 4864.26 2985.53   3
  -4   2  11 4033.45 3392.85   4
  -4   2  11 3440.10 2400.30   1
   4   2 -10 6036.15 4090.47   3
  -4   2  10 4597.28 2627.51   1
  -4   2  10 8585.44 4741.59   4
   4   2  -9 4212.80 3035.06   3
  -4   2   9 3961.45 2311.02   1
  -4   2   9 906.438 381.854   4
  -4   2   8 4865.03 2456.90   1
   4   2  -8 10178.9 5120.85   3
  -4   2   8 4193.42 2478.54   4
  -4   2   7 824.839 993.807   1
  -4   2   7 1319.60 1343.28   4
   4   2  -6 3157.77 2799.89   8
  -4   2   6 4908.48 2454.24   1
   4   2  -6 7640.57 3904.42   3
  -4   2   6 3578.94 1771.85   4
   4   2  -5 14852.1 5582.75   8
   4   2  -5 9488.51 3780.04   3
  -4   2   5 11214.6 3767.23   2
  -4   2   5 5546.04 2891.93   1
   4   2  -5 15223.1 4604.74   5
  -4   2   5 5735.89 1763.91   4
   4   2  -4 7939.92 3648.74   3
   4   2  -4 5777.04 3187.92   8
  -4   2   4 6126.16 2934.50   2
   4   2  -4 10998.5 3499.69   5
  -4   2   4 4589.85 1607.14   4
  -4   2   3 371.448 505.090   7
   4   2  -3 12180.3 3497.70   3
  -4   2   3 9941.04 3829.95   2
   4   2  -3 8127.62 3814.81   8
  -4   2   3 9158.79 2451.38   3
   4   2  -3 7086.97 2481.69   5
  -4   2   3 1537.90 1730.73   4
   4   2  -2 13298.8 3390.33   3
  -4   2   2 16108.5 4752.53   2
   4   2  -2 12560.9 3216.20   5
  -4   2   2 6764.34 1901.03   3
  -4   2   2 11178.6 3487.96   4
   4   2  -2 4670.55 2508.20   8
  -4   2   1 7427.38 3115.09   2
   4   2  -1 10828.0 2930.43   3
   4   2  -1 7749.73 2317.65   5
  -4   2   1 2680.98 1106.48   3
  -4   2   1 4534.37 1778.87   4
   4   2  -1 6450.55 2736.06   8
  -4   2   0 661.139 928.347   2
   4   2   0 2325.65 988.963   3
   4   2   0 1819.37 1055.37   5
  -4   2   0 1188.19 557.477   8
   4   2   0-395.502 696.652   8
  -4   2   0-565.976 1248.11   4
  -4   2  -1 4197.09 2388.90   2
  -4   2  -1 3923.05 1421.46   3
   4   2   1 4058.55 1505.77   5
  -4   2  -1 5065.85 1453.52   8
   4   2   1 5225.98 2549.11   8
  -4   2  -1 3704.45 1093.05   4
  -4   2  -2 5087.21 2801.39   2
  -4   2  -2 9106.40 2703.10   3
   4   2   2 4121.64 1551.29   5
   4   2   2 3070.11 1982.31   8
  -4   2  -2 3929.36 1189.82   4
  -4   2  -3 8646.02 3571.02   2
   4   2   3 13679.7 4435.44   8
  -4   2  -3 8264.38 2201.09   4
  -4   2  -4 6848.33 3336.74   2
  -4   2  -4 17678.1 4499.83   3
   4   2   4 10994.2 2772.27   3
  -4   2  -4 15394.9 3047.33   4
   4   2   4 8191.53 3403.05   8
  -4   2  -5 1900.02 1700.11   2
   4   2   5 2761.66 2178.45   7
   4   2   5 2089.54 1758.04   8
  -4   2  -6 2174.62 1838.91   2
   4   2   6 1262.90 1464.85   7
  -4   2  -7 7420.18 3467.81   2
   4   2   7 23007.9 6558.91   7
  -4   2  -7 23496.9 5682.19   3
   4   2   8 2442.07 1783.25   4
   4   2   8 17492.7 5614.26   7
  -4   2  -8 13279.0 4201.69   3
  -4   2  -8 3546.95 2477.79   2
   4   2   9 9937.18 3523.90   4
   4   2   9 12482.2 4758.23   7
  -4   2  -9 9624.37 3207.30   3
  -4   2  -9 1262.93 1537.83   2
   4   2  10-407.041 882.816   7
  -4   2 -10-1436.82 2330.29   3
  -4   2 -10-1237.17 1592.92   2
   4   2  11 1337.87 1649.49   7
  -4   2 -11-4214.67 2603.50   3
  -4   2 -11-921.371 1443.74   2
   4   2  12 3285.38 2655.48   7
  -4   2 -12 97.1286 492.789   2
   4   2  13 1049.53 1542.40   7
  -4   2 -13-140.912 513.604   3
   4   2  14-875.673 1435.23   7
  -4   2 -14 4240.27 2935.26   3
  -4   2 -14-2061.35 2495.03   2
   4   2  15-602.170 1216.46   7
   4   2  16-2437.84 2487.34   7
   4   3 -15-8555.71 5240.81   3
   4   3 -14 624.812 2006.34   3
  -4   3  14 952.398 6764.89   4
   4   3 -13-721.422 1483.47   3
  -4   3  13-2731.98 2988.02   4
   4   3 -12 10762.6 6003.23   3
  -4   3  12-2443.87 2696.98   4
   4   3 -11 5026.54 3796.06   3
  -4   3  11-7374.97 4482.74   4
   4   3 -10 13669.5 7666.51   3
  -4   3  10-225.826 748.324   4
   4   3  -9 20593.1 8203.69   3
  -4   3   9 9136.40 3968.00   4
   4   3  -8 2099.21 3411.82   3
  -4   3   8 1014.75 1020.34   1
  -4   3   8 3281.90 2902.83   4
  -4   3   7 3828.04 2099.13   1
   4   3  -7 5803.88 4701.75   3
  -4   3   7 4696.12 3298.14   4
  -4   3   6 3507.32 2467.95   4
   4   3  -6 949.233 1670.89   8
  -4   3   6 873.583 927.485   1
   4   3  -6 1015.32 3199.54   3
  -4   3   5 3094.95 2330.07   4
   4   3  -5 1354.83 1871.83   8
   4   3  -5 6050.93 4033.05   3
  -4   3   5 1960.62 1491.63   2
  -4   3   5 1814.73 1417.18   1
   4   3  -5 5462.20 2849.68   5
  -4   3   4 4479.17 2566.90   4
   4   3  -4 2524.95 2383.89   8
  -4   3   4 170.686 335.569   7
   4   3  -4 2989.34 1906.19   3
  -4   3   4 654.889 912.892   2
   4   3  -4 3667.70 2061.25   5
   4   3  -3 3346.24 2540.84   8
  -4   3   3 1919.84 2123.05   4
   4   3  -3 6147.70 3179.11   3
  -4   3   3 1203.45 1269.47   2
   4   3  -3-125.303 327.086   5
  -4   3   2 5659.23 2472.56   4
   4   3  -2 5274.00 2412.30   3
  -4   3   2 2702.15 1880.60   2
   4   3  -2 3019.31 1384.26   5
   4   3  -2 3763.93 2805.93   8
  -4   3   1 2131.56 1780.11   4
   4   3  -1 3895.61 1997.84   3
  -4   3   1 5915.85 2990.40   2
   4   3  -1 4202.30 1416.25   5
   4   3  -1 4231.08 2655.03   8
   4   3   0 19802.0 2607.25   5
  -4   3   0 23479.7 4977.93   4
  -4   3   0 31915.5 6618.82   2
   4   3   0 29746.9 7108.48   8
  -4   3  -1 1529.31 1183.71   4
  -4   3  -1 1237.67 1318.76   2
   4   3   1 214.532 584.021   8
  -4   3  -2 4713.80 1943.65   4
  -4   3  -2 4214.51 2511.50   2
  -4   3  -2 3498.11 1866.37   3
   4   3   2 4673.20 2731.44   8
  -4   3  -3 11210.1 4389.81   2
  -4   3  -3 26755.5 5603.80   3
  -4   3  -3 14695.9 3245.56   4
   4   3   3 17250.5 5416.79   8
  -4   3  -4 4625.59 1658.37   4
  -4   3  -4 4522.51 2659.93   2
  -4   3  -4 7164.12 2907.94   3
   4   3   4 9543.63 4018.94   8
  -4   3  -5-349.918 744.441   2
  -4   3  -5 26.4765 104.700   4
   4   3   5-132.691 477.802   8
  -4   3  -6 4986.25 2838.39   2
   4   3   6 20882.4 6316.02   8
   4   3   7 29610.2 7527.72   7
  -4   3  -7 47536.2 10344.3   3
   4   3   8 18872.0 6124.30   7
  -4   3  -8 34080.4 9369.38   3
   4   3   9 3948.61 2773.72   4
   4   3   9 6985.46 3711.30   7
  -4   3  -9-1632.74 1776.71   2
   4   3  10 31.4037 243.118   4
   4   3  10 1437.77 1692.68   7
  -4   3 -10 549.649 1076.78   2
   4   3  11 940.057 1399.52   7
  -4   3 -11 1037.13 2735.83   3
   4   3  12-121.512 516.040   7
  -4   3 -12-600.925 1256.94   3
   4   3  13 547.365 1126.54   7
  -4   3 -13 353.575 975.933   3
   4   3  14-257.524 791.820   7
   4   3  15-2160.49 2349.43   7
   4   3  16 1002.06 1623.97   7
   4   4 -14 6312.68 4907.82   3
   4   4 -13 4101.92 3511.18   3
  -4   4  13-5295.24 4143.47   4
   4   4 -12 2778.30 6270.23   3
  -4   4  12 1129.67 1827.43   4
  -4   4  11 8406.82 4765.68   4
   4   4 -11 10528.2 7543.12   3
  -4   4  10 3645.21 3009.12   4
   4   4 -10 6259.29 4616.21   3
  -4   4   9 7850.67 4237.30   4
   4   4  -9 4963.65 5202.47   3
  -4   4   8-1132.56 1547.73   4
   4   4  -8 1061.87 2051.13   8
   4   4  -8 4774.44 3703.43   3
  -4   4   7 3837.09 2749.25   4
   4   4  -7 4454.03 4059.40   8
   4   4  -7 10123.7 5115.35   3
  -4   4   6 3523.70 2595.63   4
   4   4  -6 4518.93 3914.14   8
   4   4  -6 6624.36 4031.65   3
   4   4  -5-1864.64 2382.82   8
  -4   4   5 266.046 676.922   4
   4   4  -5 405.459 1132.67   3
   4   4  -4 3861.90 3243.95   8
  -4   4   4 2327.01 1935.36   4
  -4   4   4 576.304 783.159   2
   4   4  -4 2853.40 1774.37   5
   4   4  -3-466.186 1068.94   8
  -4   4   3 1949.54 1730.47   4
   4   4  -3 2622.60 2746.30   3
  -4   4   3 2614.72 1771.69   2
   4   4  -3 1642.05 1080.31   5
  -4   4   2 336.559 698.961   4
   4   4  -2 1889.05 1921.86   3
  -4   4   2 1328.94 1279.63   2
   4   4  -2 2400.90 3052.08   8
  -4   4   1 1550.61 1459.01   4
   4   4  -1-471.661 2468.99   3
  -4   4   1 720.231 944.148   2
  -4   4   1 2164.90 1058.74   8
   4   4  -1 3229.53 2611.55   8
  -4   4   0 907.274 816.858   8
  -4   4   0 1402.07 1411.20   4
  -4   4   0 210.754 525.828   2
   4   4   0 2731.20 2357.86   8
  -4   4  -1 1092.56 1155.94   4
  -4   4  -1 1749.07 1591.92   2
   4   4   1 175.356 590.586   8
  -4   4  -2 14863.0 4293.70   4
  -4   4  -2 12871.2 4519.50   2
  -4   4  -2 5127.26 3342.85   3
   4   4   2 17205.9 6117.64   8
  -4   4  -3-168.318 423.442   4
  -4   4  -3 1269.46 1460.36   2
  -4   4  -3-1689.76 1956.98   3
   4   4   3 1455.48 1700.11   8
  -4   4  -4 1590.95 1659.55   2
  -4   4  -4 1077.21 1024.80   4
   4   4   4 1693.93 1841.62   8
  -4   4  -5 1343.02 1536.32   2
  -4   4  -5 3662.78 2608.71   3
   4   4   5 5086.66 3220.52   8
  -4   4  -6-365.156 812.049   2
  -4   4  -6 8364.32 4661.09   3
   4   4   6 4630.68 3113.87   8
  -4   4  -7-945.193 1711.84   3
   4   4   7-263.037 754.977   8
  -4   4  -7-1882.69 1879.60   2
  -4   4  -8 19333.2 7734.48   3
  -4   4  -8 939.957 1364.84   2
   4   4   9 1227.32 1791.65   4
   4   4   9 5410.07 3515.97   7
  -4   4  -9 8457.60 5476.79   3
  -4   4  -9 594.840 1123.30   2
   4   4  10-162.573 657.207   4
   4   4  10 1063.16 1535.95   7
   4   4  11 916.175 1434.81   7
  -4   4 -11 3473.87 3632.04   3
   4   4  12 1445.88 1816.57   7
  -4   4 -12-1951.19 2736.17   3
   4   4  13-146.580 592.232   7
   4   4  14 2290.10 2400.64   7
   4   4  15-450.889 1091.02   7
   4   5 -12 6489.80 2879.20   3
  -4   5  11-1137.22 1787.53   4
   4   5 -11 2495.22 2584.42   3
  -4   5  10 459.795 1092.15   4
   4   5 -10 5314.02 4954.44   8
   4   5 -10-1672.50 3694.28   3
  -4   5   9 1415.29 1847.83   4
   4   5  -9 3454.76 3944.59   8
   4   5  -9 645.777 2579.85   3
  -4   5   8 951.485 1877.29   4
   4   5  -8 1880.32 2219.28   8
   4   5  -8 1555.14 4362.46   3
   4   5  -7-2382.11 3126.32   8
  -4   5   7 215.406 673.557   4
   4   5  -7 743.999 2486.85   3
   4   5  -6 9246.29 5933.22   8
  -4   5   6 1762.10 1873.84   4
   4   5  -6 6217.48 3735.98   3
   4   5  -5 4341.02 3894.17   8
  -4   5   5 993.729 1367.91   4
   4   5  -5 8260.20 3486.11   3
   4   5  -4 1921.13 2476.55   8
  -4   5   4 1519.91 1539.74   4
   4   5  -4 6268.18 4484.17   3
   4   5  -3 4086.29 3522.47   8
  -4   5   3-2846.44 2199.53   4
   4   5  -3 4582.29 3061.13   3
  -4   5   2 887.547 1199.64   4
   4   5  -2 1727.68 1769.44   3
   4   5  -2 3284.94 2701.69   8
  -4   5   1 1054.69 1278.63   4
   4   5  -1 3678.16 3077.09   8
  -4   5   0 1478.64 1481.36   4
  -4   5   0 305.837 628.997   2
   4   5   0-479.701 1091.72   8
  -4   5  -1 2915.94 2074.08   2
   4   5   1 1295.42 1770.92   8
  -4   5  -2 5762.78 2802.56   4
  -4   5  -2 3609.34 2464.20   2
  -4   5  -2 2019.72 1970.01   3
   4   5   2 5628.53 3675.86   8
  -4   5  -3 2481.57 2146.56   2
  -4   5  -3 7920.31 3214.51   4
  -4   5  -3 4491.87 1893.25   3
  -4   5  -4 955.945 1370.87   2
  -4   5  -4 27.6972 185.727   4
  -4   5  -4 3963.97 2444.16   3
   4   5   4 1432.93 2341.60   8
  -4   5  -5-432.095 940.168   2
   4   5   5 2860.39 2634.63   8
  -4   5  -6-339.733 845.988   2
   4   5   6-1200.79 1722.34   8
  -4   5  -7 7937.71 5214.18   3
   4   5   7 2868.04 2694.50   8
  -4   5  -7 969.583 1457.77   2
  -4   5  -8 11406.1 5765.77   3
   4   5   8 6296.41 4232.26   8
  -4   5  -8-1423.51 1806.43   2
   4   5   9 3210.67 3222.87   4
  -4   5  -9 5945.39 4611.66   3
  -4   5  -9-2211.88 2313.10   2
   4   5  10-647.304 1476.63   4
   4   5  10 957.528 1581.59   7
  -4   5 -10 2006.36 4064.35   3
  -4   5 -10 788.809 1423.45   2
   4   5  11-3481.51 3435.35   4
   4   5  11-1518.95 1950.57   7
  -4   5 -11-3966.19 5154.37   3
   4   5  12 595.078 1222.52   7
   4   5  13 92.0034 482.706   7
   4   6 -10 3254.52 4090.81   3
   4   6  -9-1192.60 2399.41   8
  -4   6   9 2649.58 2647.21   4
   4   6  -9 3633.33 4550.45   3
   4   6  -8-816.188 1952.76   8
  -4   6   8 346.000 929.217   4
   4   6  -8 2330.97 2624.36   3
   4   6  -7-2891.59 3591.24   8
  -4   6   7 2217.56 2773.07   4
   4   6  -7-1759.91 1327.34   3
   4   6  -6 2992.36 3547.47   8
  -4   6   6-1136.40 1591.65   4
   4   6  -6 1770.96 1553.18   3
   4   6  -5 3400.98 3654.52   8
  -4   6   5-751.990 1262.92   4
   4   6  -5 6991.31 4478.66   3
   4   6  -4 1512.33 2348.01   8
  -4   6   4 572.241 1076.60   4
   4   6  -4 2828.31 3442.25   3
  -4   6   3 946.442 1355.45   4
   4   6  -3 1514.86 1847.36   3
   4   6  -3-2569.05 2957.12   8
  -4   6   2-1530.97 1690.45   4
   4   6  -2-2077.16 2156.39   3
   4   6  -2-1043.21 444.908   8
  -4   6   1 743.709 1157.16   4
   4   6  -1 851.001 1610.77   8
  -4   6   0-521.536 952.832   4
   4   6   0 765.995 1502.93   8
  -4   6  -1-60.8778 320.444   4
   4   6   1 150.683 657.594   8
  -4   6  -2 332.082 737.270   4
  -4   6  -2-3373.06 2812.88   3
   4   6   2-964.451 1654.13   8
  -4   6  -3 1174.99 1368.31   4
  -4   6  -3-1081.21 1615.38   3
   4   6   3 816.814 1516.07   8
  -4   6  -4-948.594 1541.55   3
   4   6   4-1741.42 2217.53   8
   4   6   5 1593.07 2125.73   8
  -4   6  -5 4211.36 3330.07   3
  -4   6  -6-960.369 1646.45   3
   4   6   6-677.007 1395.66   8
  -4   6  -7-825.195 1442.25   2
  -4   6  -7 217.678 823.942   3
   4   6   7-618.526 1348.01   8
  -4   6  -8 706.826 3258.54   3
   4   6   8 200.625 777.740   8
  -4   6  -8-505.122 1149.02   2
   4   6   9 3695.89 3764.10   4
  -4   6  -9 6301.27 6313.20   3
   4   6   9 1597.64 2229.60   8
  -4   6  -9-2307.22 2498.74   2
   4   6  10 3225.57 3597.18   4
  -4   6 -10 2257.59 2518.66   2
   4   6  11 5225.86 4631.25   4
   4   7  -7-2248.28 2677.36   3
  -4   7   6 2790.98 2697.49   4
   4   7  -6-2252.08 317.873   3
   4   7  -5-2054.28 2981.91   8
  -4   7   5-1029.71 1605.38   4
   4   7  -5 4077.22 3426.16   3
  -4   7   4 2272.75 2341.35   4
   4   7  -4 743.203 1443.20   3
   4   7  -4 2236.40 3025.30   8
  -4   7   3-2328.22 2330.62   4
   4   7  -3-3260.02 2997.17   3
   4   7  -3 814.532 1774.35   8
  -4   7   2-340.027 877.507   4
   4   7  -2-2628.87 2679.72   3
   4   7  -2 356.790 1145.45   8
  -4   7   1-2292.98 2248.00   4
   4   7  -1-4524.58 3518.07   3
   4   7  -1-783.008 1662.86   8
  -4   7   0-1873.06 2006.64   4
   4   7   0 2397.38 2862.99   8
  -4   7  -1 81.9182 414.776   4
   4   7   1-1566.77 2282.49   8
  -4   7  -2-5253.30 3786.75   3
   4   7   2-1254.52 2028.27   8
  -4   7  -3-1476.61 2042.55   3
   4   7   3-350.705 1066.42   8
  -4   7  -4 6520.42 4389.43   3
   4   7   4-3025.97 3124.87   8
  -4   7  -5 3284.65 3205.88   3
  -4   7  -6 20297.5 8350.29   3
  -4   7  -7 1091.43 3578.72   3
  -4   8   2-1115.05 1776.38   4
  -4   8   1 7534.97 4566.09   4
  -4   8   0 3013.51 2855.69   4
  -4   8  -1-8897.67 5227.97   3
  -4   8  -2 507.410 1256.69   3
  -5  -7   5-266.488 918.703   1
   5  -7  -4 3445.47 3243.20   5
  -5  -7   4 5887.34 4248.39   1
  -5  -7   3-1681.41 2240.11   1
   5  -7  -3 3128.40 3052.97   5
  -5  -7   2 719.306 1448.31   1
   5  -7  -2-773.279 1503.60   5
  -5  -7   1 2537.49 2695.87   1
  -5  -7   1-5.74977 108.776   6
   5  -7  -1 435.297 1122.81   5
  -5  -7   0 845.554 1343.09   6
   5  -7   0 5608.87 4027.21   5
  -5  -7  -1 1552.22 1855.19   6
   5  -7   1 801.880 1527.70   5
  -5  -7  -2-2334.00 2317.05   6
   5  -7   2-1197.60 1878.68   5
  -5  -7  -3 2584.96 2485.91   6
  -5  -7  -4 1131.38 1678.71   6
   5  -6  -8-1841.10 2480.57   5
   5  -6  -7-693.964 1490.43   5
  -5  -6   7 2130.48 2550.45   1
  -5  -6   6-923.121 1651.69   1
   5  -6  -6 791.204 1556.86   5
  -5  -6   5 5604.12 4017.78   1
   5  -6  -5 8080.37 4865.06   5
  -5  -6   4-3630.14 3203.04   1
   5  -6  -4-62.3874 418.814   5
  -5  -6   3 6495.04 4261.21   1
   5  -6  -3 7229.07 4431.07   5
  -5  -6   2 3446.58 3099.12   1
   5  -6  -2 714.130 1377.27   5
  -5  -6   1-2014.18 2371.14   1
   5  -6  -1 3152.87 2874.97   5
  -5  -6   0 86.0780 491.630   1
   5  -6   0 21.7869 238.961   5
  -5  -6  -1 3188.72 3004.44   1
   5  -6   1-2061.87 2336.67   5
  -5  -6  -2-2416.91 2637.37   1
   5  -6   2-1152.77 1764.59   5
  -5  -6  -3-623.732 1345.13   1
   5  -6   3-2043.34 2379.64   5
  -5  -6  -4 4884.81 3778.15   1
   5  -6   4-959.983 1761.42   7
  -5  -6  -4 437.759 1000.55   6
   5  -6   4 2832.84 2843.25   5
   5  -6   5 789.392 1615.53   7
  -5  -6  -5 1428.27 1849.20   6
   5  -6   6-256.002 934.904   7
  -5  -6  -6 446.446 1059.23   6
   5  -6   7 4626.16 4061.23   7
  -5  -6  -7 397.749 1027.08   6
   5  -5 -10-292.265 965.361   5
  -5  -5  10 5816.85 4268.66   1
   5  -5  -9 3695.89 3379.86   5
  -5  -5   9-2515.65 2738.80   1
  -5  -5   8 261.911 864.508   1
   5  -5  -8-1690.98 2248.80   5
  -5  -5   7-1501.85 2035.00   1
   5  -5  -7-3958.83 3377.77   5
  -5  -5   6 4859.52 3614.27   1
   5  -5  -6 390.737 1040.04   5
  -5  -5   5 2603.39 2626.45   1
   5  -5  -5-3066.98 2852.28   5
  -5  -5   4 3722.18 3135.29   1
   5  -5  -4 1387.23 1879.66   5
  -5  -5   3 1325.40 1875.73   1
   5  -5  -3 1200.80 1716.81   5
  -5  -5   2 2013.08 2326.23   1
   5  -5  -2 2937.49 2649.03   5
  -5  -5   1 947.948 1609.85   1
   5  -5  -1 1105.89 1613.65   5
  -5  -5   0-1984.86 2359.77   1
   5  -5   0-221.857 756.817   7
  -5  -5  -1 1020.47 1705.44   1
   5  -5   1 888.503 1503.91   7
   5  -5   1-1192.38 1690.86   5
   5  -5   2 3212.61 2862.23   7
   5  -5   2 2121.98 2285.44   5
  -5  -5  -2 4108.59 3082.43   2
   5  -5   3 279.943 852.027   7
   5  -5   3 1048.86 1634.49   5
  -5  -5  -3-1601.57 1935.90   2
   5  -5   4-1554.30 2038.76   7
   5  -5   4 1994.75 2296.14   5
  -5  -5  -4 1267.84 1724.99   2
   5  -5   5-984.707 1654.35   7
   5  -5   5 689.860 1375.12   5
  -5  -5  -5 1669.84 1980.63   2
   5  -5   6 2673.41 3973.11   7
  -5  -5  -6 3014.32 2657.50   2
   5  -5   7 3430.66 3239.14   7
  -5  -5  -7 1269.09 1723.50   2
   5  -5   8-536.510 1315.67   7
  -5  -5  -8 5365.23 3752.07   6
   5  -5   9 1513.90 2272.49   7
  -5  -5  -9-68.9010 436.130   6
   5  -4 -12 1536.91 2127.29   5
   5  -4 -11-1644.64 2160.46   5
  -5  -4  11 795.735 1547.55   1
  -5  -4  10 7600.12 4648.21   1
   5  -4 -10 6816.27 4324.62   5
  -5  -4   9 2167.22 2419.76   1
   5  -4  -9 4223.99 3351.77   5
  -5  -4   8-86.3858 473.574   1
   5  -4  -8 737.560 1382.17   5
  -5  -4   7-461.124 1078.35   1
   5  -4  -7-173.615 660.613   5
  -5  -4   6 5207.79 3597.18   1
   5  -4  -6 780.263 1378.68   5
  -5  -4   5 19479.3 7362.59   1
   5  -4  -5 27613.3 8319.09   5
  -5  -4   4 22285.3 7463.33   1
   5  -4  -4 21429.1 7115.45   5
   5  -4  -3 2709.88 2335.73   7
  -5  -4   3 2490.20 2516.67   1
   5  -4  -3 811.307 1334.50   5
  -5  -4   2 1086.94 1687.62   1
   5  -4  -2 1957.27 1959.47   7
   5  -4  -2 1830.07 1979.30   5
  -5  -4   1 1902.46 2256.62   1
   5  -4  -1 1823.59 1871.35   7
   5  -4  -1-1298.82 1656.33   5
   5  -4   0 6362.62 3486.45   7
   5  -4   0 8818.85 4320.52   5
  -5  -4   0 7936.86 4229.73   2
   5  -4   1 2678.91 2280.92   7
   5  -4   1 1454.22 1772.89   5
  -5  -4  -1-94.4353 463.382   2
   5  -4   2 3774.92 2747.89   7
   5  -4   2 5497.99 3503.48   5
  -5  -4  -2 8552.18 4396.60   2
   5  -4   3 2446.65 2258.09   7
   5  -4   3 2262.70 2293.08   5
  -5  -4  -3 2242.28 2238.66   2
   5  -4   4 2538.63 2357.04   7
  -5  -4  -4 2818.99 2493.16   2
   5  -4   4 1330.04 1794.96   5
   5  -4   5-504.000 1078.95   7
  -5  -4  -5-310.330 824.843   2
   5  -4   5 2119.90 2310.48   5
   5  -4   6 2000.04 2211.73   7
  -5  -4  -6 2807.99 2483.92   2
   5  -4   7 4461.61 3402.94   7
  -5  -4  -7 7003.12 3934.59   2
   5  -4   8 6239.49 4148.67   7
  -5  -4  -8 3244.12 2700.89   2
   5  -4   9 4905.90 3794.69   7
  -5  -4  -9 7010.82 4015.00   2
   5  -4  10-398.302 1115.84   7
  -5  -4 -10 205.266 697.355   2
  -5  -4 -10 2182.43 2434.92   6
   5  -4  11 1478.14 2219.06   7
  -5  -4 -11 337.763 977.995   6
   5  -3 -13 3195.12 2995.88   5
  -5  -3  13-474.509 1223.20   1
   5  -3 -12 693.554 1359.09   5
  -5  -3  12-1885.17 2356.94   1
  -5  -3  11 4500.85 3525.23   1
   5  -3 -11 427.368 1040.22   5
  -5  -3  10 1861.65 2200.88   1
   5  -3 -10 428.041 1017.65   5
  -5  -3   9-1861.76 2148.80   1
   5  -3  -9 140.973 571.891   5
  -5  -3   8 1052.65 1586.89   1
   5  -3  -8-718.072 1269.05   5
  -5  -3   7-1082.91 1593.57   1
   5  -3  -7 696.763 1231.74   5
  -5  -3   6 2345.37 2338.47   1
   5  -3  -6-703.146 1222.42   5
   5  -3  -5 1838.06 1561.92   7
  -5  -3   5 2129.57 2237.35   1
   5  -3  -5-1264.76 1616.88   5
   5  -3  -4 3859.36 2276.09   7
  -5  -3   4 2778.13 2589.06   1
   5  -3  -4 3549.28 2670.66   5
  -5  -3   3 633.677 1250.66   1
   5  -3  -3 1132.26 1221.71   7
   5  -3  -3 3887.00 2756.12   5
   5  -3  -2 5510.14 2693.81   7
   5  -3  -2 4749.99 3011.83   5
  -5  -3   2 5414.41 3402.52   2
   5  -3  -1 1958.43 1625.67   7
   5  -3  -1 2913.60 2346.02   5
  -5  -3   1 4264.94 3039.55   2
   5  -3   0 8004.78 3358.26   7
   5  -3   0 7442.43 3756.69   5
  -5  -3   0 8308.08 4228.33   2
   5  -3   1 1932.78 1696.88   7
  -5  -3  -1 1446.93 1748.24   2
   5  -3   1 2826.77 2341.80   5
   5  -3   2 4993.96 2812.13   7
  -5  -3  -2 4110.93 2906.60   2
   5  -3   2 3483.61 2644.36   5
   5  -3   3 6523.43 3318.42   7
  -5  -3  -3 2208.12 2107.91   2
   5  -3   3 2843.91 2440.12   5
   5  -3   4 2240.56 2008.95   7
  -5  -3  -4 2649.80 2302.25   2
   5  -3   4 1143.20 1579.82   5
   5  -3   5-58.3256 334.856   7
  -5  -3  -5 1249.14 1583.02   2
   5  -3   5 2228.24 2246.03   5
   5  -3   6 3452.74 2661.67   7
  -5  -3  -6 2386.03 2201.82   2
   5  -3   7 114.848 501.566   7
  -5  -3  -7 2724.73 2384.49   2
   5  -3   8 3824.18 2991.21   7
  -5  -3  -8 3693.81 2820.41   2
   5  -3   9 1471.88 1918.67   7
  -5  -3  -9 3295.73 2715.50   2
   5  -3  10-29.5695 281.153   7
  -5  -3 -10 4368.64 3191.74   2
   5  -3  11 3835.70 3313.70   7
  -5  -3 -11 1691.64 2029.97   2
   5  -3  12 4429.68 3685.99   7
  -5  -3 -12 818.660 1443.95   2
  -5  -3 -12 712.056 1386.98   6
   5  -3  13 2299.07 2748.54   7
  -5  -3 -13-1852.59 2222.19   2
  -5  -3 -13 3834.20 3268.84   6
  -5  -3 -14-3579.78 3154.82   2
  -5  -2  14 70.1270 469.462   1
   5  -2 -14-902.706 1626.65   5
   5  -2 -13 2428.89 2575.67   5
  -5  -2  13-48.7637 377.355   1
   5  -2 -12 1042.75 1629.52   5
  -5  -2  12 2880.32 2799.66   1
  -5  -2  11 5006.95 3570.40   1
   5  -2 -11 2928.42 2640.55   5
  -5  -2  10 1483.15 1887.07   1
   5  -2 -10 302.799 823.176   5
  -5  -2   9 15646.5 6231.92   1
   5  -2  -9 11438.7 4924.93   5
  -5  -2   8 8921.29 4624.07   1
   5  -2  -8 9794.06 4452.00   5
  -5  -2   7 4657.84 3206.32   1
   5  -2  -7 7794.49 3890.86   5
   5  -2  -6 19857.6 3890.01   7
  -5  -2   6 14831.4 5737.07   1
   5  -2  -6 15876.8 5442.97   5
   5  -2  -5 22743.8 4245.65   7
  -5  -2   5 15304.2 6338.25   1
   5  -2  -5 27081.9 7018.02   5
  -5  -2   4 10630.4 4980.17   1
   5  -2  -4 15184.8 3532.08   7
   5  -2  -4 12184.3 4864.24   5
   5  -2  -3 20901.8 4613.83   7
   5  -2  -3 29273.3 7250.82   5
  -5  -2   3 28162.1 7633.45   2
   5  -2  -2 293.074 536.412   7
   5  -2  -2 2215.37 1943.40   5
   5  -2  -1 1088.72 1084.46   7
  -5  -2   1 130.613 518.649   2
   5  -2  -1 74.2681 353.864   5
   5  -2   0 1735.54 1429.78   7
  -5  -2   0 2479.13 2220.61   2
   5  -2   0 1823.46 1370.56   5
   5  -2   1 5170.39 2570.63   7
  -5  -2  -1 3653.86 2910.59   2
   5  -2   1 3706.64 2526.09   5
   5  -2   2 9505.23 3664.84   7
  -5  -2  -2 6785.19 3558.50   2
   5  -2   2 9715.44 4301.15   5
   5  -2   3 3711.85 2346.54   7
  -5  -2  -3 7747.54 3454.26   2
   5  -2   3 6018.51 3076.87   5
   5  -2   4 11238.7 4338.78   7
  -5  -2  -4 8633.34 4070.52   2
   5  -2   4 10225.3 4429.94   5
   5  -2   5 3657.51 2493.20   7
  -5  -2  -5 2499.13 2170.41   2
   5  -2   5 2945.21 2414.34   5
   5  -2   6 6730.07 3485.21   7
  -5  -2  -6 6474.34 3546.06   2
   5  -2   7 2316.32 2112.72   7
  -5  -2  -7 3674.07 2723.18   2
   5  -2   8 30374.2 7968.73   7
  -5  -2  -8 32128.6 8529.83   2
   5  -2   9 9152.73 4487.75   7
  -5  -2  -9 6665.15 3544.16   2
   5  -2  10 1112.41 974.577   7
  -5  -2 -10 491.783 1077.70   2
   5  -2  11-286.053 849.525   7
  -5  -2 -11 1549.83 1972.43   2
   5  -2  12 305.252 905.959   7
  -5  -2 -12-990.593 1627.18   2
   5  -2  13 4303.15 3522.92   7
  -5  -2 -13-349.350 996.544   2
  -5  -2 -13 3048.99 2776.82   6
   5  -2  14 2449.03 2752.18   7
  -5  -2 -14 1788.77 2321.41   2
  -5  -2 -14 2425.22 2511.26   6
  -5  -2 -15-2065.16 2357.16   6
  -5  -1  15-1254.70 1977.54   1
  -5  -1  14 162.490 688.067   1
   5  -1 -14-331.020 1006.66   5
   5  -1 -13 1461.93 2031.76   5
   5  -1 -13 2611.19 2276.86   3
  -5  -1  13-187.829 712.163   1
  -5  -1  12 739.037 1362.07   1
   5  -1 -12 567.837 1214.88   5
   5  -1 -12 1175.15 1469.02   3
  -5  -1  11 2696.69 2513.81   1
   5  -1 -11 2777.34 2578.35   5
   5  -1 -11 188.215 1546.04   3
  -5  -1  10 4099.70 3014.24   1
   5  -1 -10-164.777 603.575   5
  -5  -1   9 1318.98 1675.60   1
   5  -1  -9 3853.66 2813.73   5
  -5  -1   8 11375.8 4874.22   1
   5  -1  -8 7757.06 3863.71   5
  -5  -1   7 473.301 994.646   1
   5  -1  -7-667.563 1102.66   5
   5  -1  -6 21289.0 3506.51   7
  -5  -1   6 19265.6 6583.83   1
   5  -1  -6 22537.8 6460.13   5
  -5  -1   5 2620.86 2406.61   1
   5  -1  -5 3522.35 1533.51   7
   5  -1  -5 2331.05 1970.67   5
   5  -1  -4 14403.6 3427.58   7
   5  -1  -4 18991.8 5669.63   5
  -5  -1   4 18061.3 6153.94   2
   5  -1  -3 14979.2 3708.17   7
  -5  -1   3 15292.3 5630.23   2
   5  -1  -3 12503.7 4423.19   5
   5  -1  -2 14991.1 3922.90   7
  -5  -1   2 16090.3 5700.53   2
   5  -1  -2 13828.5 4795.50   5
   5  -1  -1 1102.28 1080.78   7
  -5  -1   1 2145.85 2038.84   2
   5  -1  -1-952.715 1194.56   5
   5  -1   0 2623.11 1993.04   7
  -5  -1   0 4301.15 3081.94   2
   5  -1   0 3130.71 2161.24   5
   5  -1   1 7492.93 3131.44   7
  -5  -1  -1 6237.64 3448.05   2
   5  -1   1 7101.43 3271.41   5
   5  -1   2 1160.24 968.649   4
   5  -1   2 857.776 1070.67   7
  -5  -1  -2 2187.06 1957.31   2
   5  -1   2 612.447 972.456   5
   5  -1   3 4328.59 1735.23   4
   5  -1   3 11984.2 4397.93   7
  -5  -1  -3 14775.4 5164.36   2
   5  -1   3 7944.97 3552.99   5
   5  -1   4 3749.62 2561.16   7
  -5  -1  -4 2486.04 2108.64   2
   5  -1   4 2583.07 2055.63   5
   5  -1   5 4307.39 2638.10   7
  -5  -1  -5 2815.75 2277.41   2
   5  -1   5 2828.88 2181.56   5
   5  -1   6-1900.03 1807.84   7
  -5  -1  -6 570.971 1045.62   2
   5  -1   7 17714.5 5861.32   7
  -5  -1  -7 13405.5 5433.54   2
  -5  -1  -8 4727.10 3158.35   2
   5  -1   8 4325.13 3388.06   7
  -5  -1  -9 2675.87 2406.61   2
   5  -1   9 4461.24 3037.36   7
  -5  -1 -10 1976.69 2178.45   2
   5  -1  10 1428.08 1772.88   7
  -5  -1 -11 775.203 1415.66   2
   5  -1  11 1800.95 2054.53   7
  -5  -1 -12 279.533 883.371   2
   5  -1  12 1728.02 2077.47   7
  -5  -1 -13 1674.01 275.969   2
   5  -1  13 6128.03 4028.11   7
  -5  -1 -14 1159.06 1937.96   2
   5  -1  14 3489.10 3138.77   7
  -5  -1 -14 4031.10 3082.57   6
  -5  -1 -15 2103.66 2260.90   6
  -5   0  16-823.529 1586.50   1
   5   0 -16 1389.54 1815.26   3
  -5   0  15-80.5384 481.477   1
   5   0 -15 762.461 1289.62   3
   5   0 -15 2937.40 3239.69   5
  -5   0  14 6122.61 4057.29   1
   5   0 -14 2365.26 2177.08   3
   5   0 -14 1961.39 2546.22   5
   5   0 -13-5.11993 3364.94   3
   5   0 -13 1809.15 2344.71   5
  -5   0  13 179.890 668.573   1
  -5   0  12-1465.75 1837.32   1
   5   0 -12-692.590 1079.51   3
   5   0 -12-615.142 1307.71   5
  -5   0  11 8093.03 4166.16   1
   5   0 -11 4035.30 2489.28   3
   5   0 -11 8486.05 4646.64   5
  -5   0  10 7194.22 3820.09   1
   5   0 -10 6590.92 3029.09   3
   5   0 -10 5712.58 4368.93   5
  -5   0   9 3974.50 2788.59   1
   5   0  -9 3166.04 1995.23   3
   5   0  -9 5847.26 3520.00   5
  -5   0   8 9493.27 4479.56   1
   5   0  -8 8244.39 3033.99   3
   5   0  -8 10064.0 4424.37   5
   5   0  -7 605.548 900.093   8
  -5   0   7-657.638 1137.48   1
   5   0  -7 662.740 645.911   7
   5   0  -7 679.273 1105.25   5
   5   0  -7 376.133 612.755   3
   5   0  -6 4529.76 2093.99   8
  -5   0   6 5819.77 3458.08   1
   5   0  -6 8864.50 2596.44   7
   5   0  -6 6499.01 3269.41   5
   5   0  -6 6021.58 2285.44   3
   5   0  -5 25355.5 4717.78   7
  -5   0   5 10882.5 2898.43   3
   5   0  -5 22999.6 6023.10   5
  -5   0   5 21090.8 6578.05   2
  -5   0   5 14681.7 5611.66   1
   5   0  -5 13972.2 3217.88   3
   5   0  -5 15930.8 3438.05   8
   5   0  -4 69421.0 7909.58   7
  -5   0   4 68157.7 6916.27   3
   5   0  -4 70997.3 6561.00   3
   5   0  -4 72859.6 10531.6   5
   5   0  -4 55902.4 6170.45   8
  -5   0   4 78372.7 12865.9   2
   5   0  -3 20444.7 4458.06   7
  -5   0   3 21392.0 3494.49   3
  -5   0   3 22633.8 6692.83   2
   5   0  -3 17722.3 5098.29   5
   5   0  -3 19837.8 3683.22   8
   5   0  -2-572.074 766.261   7
  -5   0   2 1025.65 1413.67   2
   5   0  -2 711.320 985.638   5
   5   0  -2 687.083 683.286   8
   5   0  -1 5553.35 2476.97   7
  -5   0   1 1782.84 1804.96   2
   5   0  -1 6345.77 2892.03   5
   5   0  -1 4668.42 1872.48   8
  -5   0   0 5816.79 2494.06   8
   5   0   0 8521.08 3291.25   7
  -5   0   0 9208.62 3943.65   2
   5   0   0 5831.45 2728.48   5
   5   0   1 560.851 844.822   7
  -5   0  -1-864.043 1220.14   2
   5   0   1 1141.51 1209.73   5
   5   0   2 108.545 384.109   7
  -5   0  -2 128.165 469.866   2
   5   0   2 455.882 767.394   5
   5   0   3 4514.50 2562.86   7
  -5   0  -3 3396.89 2436.84   2
   5   0   3 2914.13 2160.06   5
   5   0   3 4092.59 1892.53   4
   5   0   4 2008.59 1054.38   4
   5   0   4 3075.11 2187.18   7
  -5   0  -4 1543.64 1661.67   2
   5   0   4-967.763 1144.96   5
  -5   0  -5 147.310 520.846   2
   5   0   5 910.164 1226.50   7
   5   0   5-305.755 552.320   3
  -5   0  -6 9725.14 4300.45   2
   5   0   6 11981.3 4857.90   7
  -5   0  -7 17276.3 5846.20   2
   5   0   7 27973.9 7427.93   7
  -5   0  -8-666.457 1176.96   2
   5   0   8 1523.98 1731.57   7
  -5   0  -9 8642.11 4482.39   2
   5   0   9 19540.1 6384.17   7
  -5   0 -10 3702.61 2967.32   2
   5   0  10 12444.3 5241.00   7
  -5   0 -11-1250.95 1795.26   2
   5   0  11 1106.30 1599.88   7
  -5   0 -12 896.319 1585.41   2
   5   0  12 1925.71 2168.32   7
  -5   0 -13 892.737 1650.87   2
   5   0  13-734.179 1374.04   7
  -5   0 -14 1515.03 2239.01   2
   5   0  14 1679.02 2133.60   7
   5   0  15-533.160 1234.67   7
   5   1 -16-1072.64 1611.34   3
   5   1 -15 928.034 1437.47   3
   5   1 -14 291.366 772.252   3
   5   1 -14 49.9373 423.920   5
   5   1 -13 256.195 693.386   3
   5   1 -13 2218.81 2714.88   5
  -5   1  13-886.578 1418.68   1
   5   1 -12-1374.83 1538.65   3
   5   1 -12 3305.11 3172.69   5
  -5   1  12-233.279 699.074   1
  -5   1  12 5249.79 5157.92   4
  -5   1  11-178.103 588.125   1
   5   1 -11-788.870 1115.51   3
   5   1 -11 3292.88 3022.98   5
  -5   1  11 4911.78 4312.66   4
  -5   1  10 1839.23 1832.58   1
   5   1 -10 2323.95 1830.04   3
   5   1 -10 1502.18 1944.22   5
  -5   1   9 3083.73 2330.11   1
   5   1  -9-452.051 770.852   3
   5   1  -9 4355.51 3152.65   5
  -5   1   9 7488.50 5201.04   4
   5   1  -8 13745.4 5729.33   8
  -5   1   8 7089.63 3639.56   1
   5   1  -8 9832.05 3404.38   3
   5   1  -8 9458.62 4414.22   5
  -5   1   8 9943.08 5848.88   4
   5   1  -7-157.266 564.614   8
  -5   1   7-125.063 475.615   1
   5   1  -7 2204.31 2025.74   5
  -5   1   7 1290.19 2455.94   4
   5   1  -6 21089.0 6612.72   8
  -5   1   6 21282.2 7002.38   1
   5   1  -6 25310.3 4757.68   3
   5   1  -6 28004.9 6968.59   5
  -5   1   6 24848.1 7569.79   4
   5   1  -5 1879.84 2145.20   8
  -5   1   5 2498.73 1555.60   3
   5   1  -5 287.316 1328.36   3
  -5   1   5 4581.61 3144.89   2
   5   1  -5 5033.92 2782.70   5
  -5   1   5 6315.13 3943.92   4
  -5   1   4 11807.6 3244.70   3
  -5   1   4 15575.3 5724.59   2
   5   1  -4 16861.1 3337.08   3
   5   1  -4 18111.4 5104.31   5
  -5   1   4 19198.3 6462.50   4
   5   1  -4 17920.4 4649.53   8
  -5   1   3 11436.7 2418.00   3
  -5   1   3 20942.0 6592.02   2
   5   1  -3 14712.4 2814.61   3
   5   1  -3 14376.7 4524.21   5
  -5   1   3 20331.5 6151.89   4
   5   1  -3 11639.1 3493.74   8
  -5   1   2 6631.08 1478.10   3
  -5   1   2 8905.98 4204.12   2
   5   1  -2 10691.0 2137.81   3
   5   1  -2 14676.2 4272.06   5
  -5   1   2 18324.4 5615.94   4
   5   1  -2 12113.4 3592.69   8
   5   1  -1-2109.90 1745.72   7
  -5   1   1 2806.09 2244.26   2
   5   1  -1-119.318 600.908   3
   5   1  -1 503.632 757.838   5
  -5   1   1 2723.38 3142.38   4
   5   1  -1 2043.08 1456.56   8
  -5   1   0 3011.53 1393.42   8
   5   1   0 1551.94 1716.29   7
  -5   1   0 4178.17 2690.12   2
   5   1   0 3205.99 1972.53   5
   5   1   0 2053.52 1489.60   8
   5   1   1 8143.59 3483.05   7
  -5   1  -1 6211.86 3302.31   2
   5   1   1 8168.63 2897.99   5
   5   1   1 5412.30 2567.94   8
  -5   1  -1 9425.16 2605.08   8
   5   1   2 8.34150 1401.73   7
  -5   1  -2 2047.47 1889.27   2
   5   1   2 1228.08 1124.27   5
   5   1   2 1140.90 1175.91   8
  -5   1  -2 2215.95 1341.69   8
  -5   1  -3 8648.67 3920.34   2
   5   1   3 7490.43 3436.18   7
   5   1   3 4665.35 2216.92   5
  -5   1  -4 1628.87 1717.77   2
   5   1   4 2829.72 2143.50   7
   5   1   4 4821.01 2309.38   5
   5   1   4 2857.62 1056.68   3
  -5   1  -5 4590.27 3424.48   2
   5   1   5 2958.24 2562.07   7
  -5   1  -5 3838.66 1095.15   3
  -5   1  -6 760.882 1194.39   2
   5   1   6-615.178 1056.89   7
  -5   1  -6-42.5623 138.453   3
  -5   1  -7 10329.6 4502.24   2
   5   1   7 8896.05 4135.78   7
  -5   1  -7 10601.3 2509.89   3
  -5   1  -8 885.826 1336.02   2
   5   1   8 4512.55 3085.32   7
  -5   1  -9-271.568 761.102   2
   5   1   9 3673.32 2815.21   7
  -5   1 -10-126.882 538.969   2
   5   1  10 2390.61 2336.57   7
  -5   1 -11 1289.19 1794.42   2
   5   1  11 3737.91 2982.61   7
  -5   1 -12 3244.64 2974.64   2
   5   1  12 4287.10 3274.64   7
  -5   1 -13 3639.25 3294.75   2
   5   1  13 9691.28 5038.40   7
   5   1  14-1749.67 2179.11   7
   5   1  15 819.299 1522.24   7
   5   2 -15 5982.67 3873.08   3
   5   2 -14-2950.06 2633.84   3
  -5   2  14 3737.20 3836.80   4
   5   2 -13-6265.80 3715.16   3
  -5   2  13 3088.34 4075.71   4
   5   2 -12-1944.05 2004.01   3
  -5   2  12 3786.74 3743.52   4
   5   2 -11-1169.35 2474.06   3
  -5   2  11 91.4823 397.583   1
  -5   2  10 1806.11 1703.68   1
   5   2 -10 261.238 307.357   3
   5   2 -10 1109.44 1745.05   5
  -5   2  10 2870.07 3952.66   4
  -5   2   9 10461.2 4007.56   1
   5   2  -9 9061.50 3551.39   3
   5   2  -9 10751.1 5158.31   5
  -5   2   9 9729.93 5499.35   4
   5   2  -8 5404.38 3976.27   8
  -5   2   8 5933.93 3010.91   1
   5   2  -8 7889.16 3520.79   3
   5   2  -8 6227.08 3711.11   5
  -5   2   8 5437.99 3911.90   4
   5   2  -7 12721.7 5769.04   8
  -5   2   7 6386.71 3357.41   1
   5   2  -7 7849.00 3828.75   3
   5   2  -7 10968.6 4877.11   5
  -5   2   7 3106.46 3289.76   4
   5   2  -6 21326.8 7543.31   8
  -5   2   6 9685.72 4099.58   1
   5   2  -6 17220.9 5626.10   3
   5   2  -6 16204.9 5496.72   5
  -5   2   6 14524.6 5333.91   4
   5   2  -5 25965.9 7693.06   8
   5   2  -5 29693.9 6568.32   3
  -5   2   5 21897.5 6517.22   2
   5   2  -5 27084.3 6585.93   5
  -5   2   5 23027.2 6696.97   4
   5   2  -4 13726.5 4855.57   8
  -5   2   4 12145.1 4452.87   4
   5   2  -4 19361.4 5170.00   3
  -5   2   4 14846.9 5463.59   2
   5   2  -4 17729.4 4866.11   5
   5   2  -3 33989.1 6151.87   3
   5   2  -3 30229.4 5967.78   5
  -5   2   3 25611.4 7158.82   2
  -5   2   3 19282.3 3526.80   3
  -5   2   3 16180.5 5178.16   4
   5   2  -3 27705.7 6616.79   8
  -5   2   2 2682.35 537.211   2
   5   2  -2 2589.99 2136.38   3
  -5   2   2-250.742 1264.39   3
   5   2  -2-20.3480 1095.65   5
  -5   2   2 602.369 1685.07   4
   5   2  -2 1911.31 1660.17   8
  -5   2   1 1075.28 1373.45   2
   5   2  -1 1454.58 1454.06   3
   5   2  -1 1517.28 1189.49   5
  -5   2   1 1173.27 677.623   3
  -5   2   1 3370.56 2550.01   4
   5   2  -1-1110.72 1243.55   8
  -5   2   0-1631.99 909.478   3
  -5   2   0 1469.75 1591.38   2
   5   2   0 2086.96 1223.72   3
   5   2   0 2518.06 1446.33   5
  -5   2   0 1250.41 621.307   3
  -5   2   0 777.338 1911.18   4
   5   2   0 986.502 1169.10   8
  -5   2  -1 8129.13 4407.32   2
   5   2   1 5335.88 1778.09   3
  -5   2  -1 4156.59 1251.28   3
   5   2   1 4362.42 1837.28   5
  -5   2  -1 4513.14 1107.43   3
  -5   2  -1 7716.28 3304.89   4
   5   2   1 6836.54 3249.40   8
  -5   2  -2 7503.87 3661.06   2
  -5   2  -2 12001.9 2416.01   3
   5   2   2 7138.39 2450.02   5
  -5   2  -2 13957.8 4463.57   4
   5   2   2 7003.29 3190.98   8
  -5   2  -3 5892.92 3280.40   2
   5   2   3 7523.13 3783.16   7
  -5   2  -3 8460.94 2476.02   3
   5   2   3 3762.47 1449.49   3
   5   2   3 5439.77 2874.78   8
  -5   2  -4 8238.46 4112.22   2
   5   2   4 6889.87 4383.05   7
  -5   2  -4 9557.99 2460.76   3
   5   2   4 9211.21 3839.00   8
  -5   2  -5 137.990 505.288   2
   5   2   5 2802.78 2302.26   7
  -5   2  -5 2234.14 1239.97   3
  -5   2  -6 4251.73 2817.51   2
   5   2   6 8150.32 4215.79   7
  -5   2  -6 7307.58 2130.99   3
  -5   2  -7 1326.26 1588.72   2
   5   2   7 4421.52 2962.29   7
  -5   2  -8 16038.1 5676.66   2
   5   2   8 34956.3 8532.61   7
  -5   2  -9 57.9438 348.115   2
   5   2   9 10327.0 4764.91   7
  -5   2 -10 1316.93 1717.28   2
   5   2  10-493.701 1070.11   7
  -5   2 -11 997.570 1555.74   2
   5   2  11 47.5305 341.478   7
  -5   2 -12 1031.88 1653.11   2
   5   2  12 549.379 1189.17   7
   5   2  13 615.162 1289.18   7
   5   2  14 1659.61 2150.67   7
   5   3 -14 156.829 3615.20   3
   5   3 -13-967.050 1656.52   3
  -5   3  13 2467.04 4491.34   4
   5   3 -12-1085.13 1730.55   3
  -5   3  12-437.553 1752.67   4
   5   3 -11 5834.59 3362.03   3
  -5   3  11-735.149 1543.34   4
   5   3 -10 381.110 2042.82   3
  -5   3  10 709.850 1350.40   4
   5   3  -9-2248.21 2872.74   8
   5   3  -9 2542.83 3624.43   3
   5   3  -9 975.847 1600.55   5
   5   3  -8 1553.82 2305.83   8
   5   3  -8 5004.48 4336.11   3
   5   3  -8 5481.79 3576.86   5
  -5   3   8-216.456 2183.31   4
   5   3  -7-2840.34 2990.69   8
  -5   3   7-1707.64 1493.84   1
   5   3  -7-992.680 1239.44   3
   5   3  -7 1834.94 1936.04   5
  -5   3   7-4191.31 3131.27   4
   5   3  -6-1629.04 2153.26   8
  -5   3   6 1288.68 1369.17   1
   5   3  -6 3607.90 3607.24   3
   5   3  -6 518.419 951.833   5
  -5   3   6 344.010 1816.85   4
   5   3  -5 768.777 1400.73   8
   5   3  -5 4129.72 3285.70   3
  -5   3   5 1840.87 1734.81   2
   5   3  -5 77.5221 337.749   5
  -5   3   5-1528.36 2020.72   4
   5   3  -4 6817.85 3950.97   8
   5   3  -4 9334.21 4362.15   3
  -5   3   4 6529.45 3416.45   2
   5   3  -4 5149.75 2517.26   5
  -5   3   4 2552.08 2102.26   4
   5   3  -3 3012.79 947.930   3
  -5   3   3 3588.84 2553.89   2
   5   3  -3 4623.55 2173.44   5
  -5   3   3-77.0503 1750.61   4
   5   3  -3 1661.74 1860.21   8
   5   3  -2 6840.67 2680.92   3
  -5   3   2 1256.18 1489.33   2
   5   3  -2 3461.22 1702.42   5
   5   3  -2 5738.02 3334.11   8
  -5   3   2 3991.89 2435.87   4
   5   3  -1 8688.88 3283.24   3
  -5   3   1 5359.69 3227.45   2
   5   3  -1 4142.80 1651.26   5
   5   3  -1 4164.11 2773.22   8
  -5   3   1 3511.16 2074.42   4
  -5   3   0 8254.96 3760.47   2
   5   3   0 6763.31 2592.26   3
   5   3   0 4636.24 1576.10   5
   5   3   0 6365.27 3225.51   8
  -5   3   0 3591.41 1101.24   4
  -5   3  -1 269.149 690.083   2
  -5   3  -1-1005.34 1780.33   3
   5   3   1-387.856 442.673   5
   5   3   1 102.222 424.696   8
  -5   3  -1-161.071 1235.41   4
  -5   3  -2 7889.78 4031.60   2
  -5   3  -2 12557.4 4074.19   3
   5   3   2 3532.77 2498.05   8
  -5   3  -2 4528.28 1767.18   4
  -5   3  -3 4028.06 2765.57   2
  -5   3  -3 4474.71 1946.57   3
   5   3   3 4472.28 2836.74   8
  -5   3  -3 2388.70 1243.71   4
  -5   3  -4 2309.96 2105.73   2
  -5   3  -4 6344.27 3271.09   3
   5   3   4 3523.41 2551.85   8
  -5   3  -5 1227.98 1535.86   2
  -5   3  -5 2707.81 2753.40   3
   5   3   5-317.407 780.067   8
  -5   3  -6 4047.65 2795.83   2
   5   3   6 1177.21 1617.63   7
   5   3   6 6003.95 3469.38   8
  -5   3  -7-1124.75 1485.18   2
   5   3   7 3625.44 2833.83   7
  -5   3  -8 197.664 634.473   2
   5   3   8 8481.82 4338.03   7
  -5   3  -9 2946.05 2388.73   2
   5   3   9 2816.56 2539.23   7
  -5   3 -10 558.194 1128.62   2
   5   3  10 3560.87 2891.19   7
  -5   3 -11 3673.90 3007.49   2
   5   3  11 2094.83 2274.57   7
  -5   3 -12-970.245 1611.24   2
   5   3  12 1666.75 2081.21   7
   5   3  13 304.993 914.290   7
   5   3  14 2204.82 2513.25   7
   5   4 -13 6639.25 4868.31   3
   5   4 -12 1452.50 4291.29   3
  -5   4  12-5583.07 4378.01   4
   5   4 -11 2068.93 3036.51   8
  -5   4  11 352.443 1863.57   4
   5   4 -10 2375.99 3196.62   8
  -5   4  10 924.678 1973.87   4
   5   4  -9 2178.44 3001.14   8
  -5   4   9-1339.78 1903.61   4
   5   4  -8-889.146 1865.49   8
   5   4  -8 481.997 1737.34   3
  -5   4   8 2611.19 2557.15   4
   5   4  -7-313.897 1071.54   8
   5   4  -7-255.478 1638.18   3
  -5   4   7 779.921 1348.42   4
   5   4  -6 6607.50 4728.11   8
   5   4  -6 9582.50 5006.78   3
  -5   4   6-59.9801 360.760   4
  -5   4   5 18843.7 6275.84   4
   5   4  -5 29528.7 9580.66   8
   5   4  -5 17084.2 5781.35   3
   5   4  -4 20431.5 7743.70   8
  -5   4   4 20960.4 6292.16   4
   5   4  -4 15126.6 5137.31   3
  -5   4   4 14103.6 4699.82   2
  -5   4   3 1413.39 1578.29   4
   5   4  -3 1695.45 1515.73   3
  -5   4   3-289.235 696.727   2
   5   4  -3 2218.77 2417.28   8
  -5   4   2 3544.79 3002.85   4
   5   4  -2 5605.48 3814.95   3
  -5   4   2 1089.20 1353.91   2
   5   4  -2 1451.87 1893.09   8
  -5   4   1-586.096 944.805   4
   5   4  -1 1226.22 1255.15   3
  -5   4   1 1549.83 1604.69   2
   5   4  -1-597.035 1184.64   8
  -5   4   0 8172.56 3517.48   4
   5   4   0 889.797 1097.11   3
  -5   4   0 8178.66 3725.18   2
   5   4   0 7533.24 4123.65   8
  -5   4  -1 2865.66 1905.95   4
  -5   4  -1 1909.79 1850.32   2
   5   4   1 3102.69 2617.63   8
  -5   4  -2 7807.98 2907.71   4
  -5   4  -2 2327.31 2111.40   2
  -5   4  -2 7485.23 3291.14   3
   5   4   2 4888.18 3261.09   8
  -5   4  -3-838.498 1299.89   2
  -5   4  -3 3099.53 2464.66   3
   5   4   3 460.309 998.415   8
  -5   4  -4-2695.08 2345.83   3
   5   4   4-90.6550 445.465   8
  -5   4  -5 1189.26 1580.52   2
   5   4   5-2084.02 2153.82   8
  -5   4  -6-1394.20 1718.60   2
   5   4   6 2007.01 2141.21   8
  -5   4  -7 568.430 1106.32   2
   5   4   7 6934.00 4247.58   7
   5   4   7 7647.37 4254.19   8
  -5   4  -8 3083.29 2622.41   2
   5   4   8-1199.12 1738.18   7
  -5   4  -9-246.675 758.305   2
   5   4   9 2911.77 2680.47   7
  -5   4 -10-605.678 1222.64   2
   5   4  10-728.957 1350.75   7
  -5   4 -11 633.979 1293.44   2
   5   4  11-1423.03 1899.60   7
   5   4  12-1105.33 1710.64   7
   5   5 -12 5578.93 4724.49   3
   5   5 -11 1327.72 2528.62   8
   5   5 -11 20515.9 8831.88   3
   5   5 -10 1205.93 2384.18   8
   5   5 -10 7995.67 5711.69   3
  -5   5  10 4232.50 3495.90   4
   5   5  -9 25.3590 340.251   8
   5   5  -9 5078.22 5116.08   3
  -5   5   9 869.038 1525.49   4
  -5   5   8 7881.10 4427.57   4
   5   5  -8-1020.81 2114.56   8
   5   5  -8 4923.91 4684.73   3
  -5   5   7-2360.24 2340.56   4
   5   5  -7-1857.03 2779.82   8
   5   5  -7 4879.93 3397.94   3
   5   5  -6 2092.46 2861.90   8
  -5   5   6 2277.61 2228.76   4
   5   5  -6 3684.55 3969.91   3
   5   5  -5 1758.64 2534.04   8
  -5   5   5-779.028 1264.63   4
   5   5  -5-280.597 1043.42   3
  -5   5   4 773.722 1225.06   4
   5   5  -4-1881.10 1925.82   3
   5   5  -4 1009.95 1856.22   8
  -5   5   3 1680.63 1757.56   4
   5   5  -3 7978.69 3855.48   3
   5   5  -3 3982.40 3565.88   8
  -5   5   2 1490.20 1612.74   4
   5   5  -2 700.044 1303.66   3
   5   5  -2 1451.78 2093.16   8
  -5   5   1-740.323 1107.81   4
   5   5  -1 1336.77 1542.81   3
   5   5  -1 629.860 1347.89   8
  -5   5   0 592.152 967.257   4
   5   5   0-746.323 1159.43   3
   5   5   0-2134.60 2430.88   8
  -5   5  -1-608.697 952.329   4
   5   5   1 44.7271 347.336   8
  -5   5  -2 93.8505 431.240   2
  -5   5  -2-2580.75 2328.63   3
   5   5   2 1013.83 1635.68   8
  -5   5  -3-1465.34 1777.30   2
   5   5   3 1711.94 2110.60   8
  -5   5  -4 12.7536 170.846   2
   5   5   4 517.528 1159.89   8
  -5   5  -5 1071.09 1593.97   2
   5   5   5 347.008 952.322   8
  -5   5  -6 149.191 602.312   2
   5   5   6 5117.26 3684.50   8
  -5   5  -7-762.480 1376.09   2
   5   5   7-1000.03 1647.81   8
  -5   5  -8 810.098 1441.74   2
   5   5   8-1273.40 1888.85   8
  -5   5  -9-2217.50 2428.59   2
   5   5   9 999.018 1695.47   7
  -5   5 -10 3367.23 3060.36   2
   5   5  10 6153.60 4158.87   7
   5   6  -9 1682.58 4744.90   3
   5   6  -8 4221.05 4516.83   8
  -5   6   8-1697.73 2086.84   4
   5   6  -8-5820.89 4324.71   3
   5   6  -7-1021.50 2180.34   8
  -5   6   7 1335.12 1790.75   4
   5   6  -7-3093.95 2448.69   3
   5   6  -6 221.468 990.739   8
  -5   6   6 3297.67 2730.42   4
   5   6  -5 6803.11 5349.46   8
  -5   6   5 3343.99 2673.89   4
   5   6  -5 3103.11 2796.31   3
  -5   6   4-62.1047 355.263   4
   5   6  -4 5600.23 3655.33   3
   5   6  -4 7149.40 5329.75   8
  -5   6   3 5058.91 3141.86   4
   5   6  -3 2336.10 2321.31   3
   5   6  -3 3475.15 3617.48   8
  -5   6   2-582.390 1043.71   4
   5   6  -2-2059.49 2159.68   3
   5   6  -2 1759.99 2513.32   8
  -5   6   1 1060.42 1380.86   4
   5   6  -1-3048.58 2621.04   3
   5   6  -1 2086.06 2678.39   8
  -5   6   0 2516.05 2087.07   4
   5   6   0-1116.43 1593.31   3
   5   6   0 914.842 1738.35   8
   5   6   1-213.617 828.551   8
   5   6   2-468.785 1212.10   8
   5   6   3-959.615 1722.66   8
   5   6   4-1405.72 2072.43   8
   5   6   5 465.653 1192.37   8
   5   6   6 7683.79 4867.79   8
   5   6   9 109.264 653.096   4
  -5   7   5-1657.90 1981.28   4
   5   7  -5-9603.55 5378.20   3
  -5   7   4 309.491 837.099   4
   5   7  -4 3473.96 3166.91   3
  -5   7   3 2015.04 2093.61   4
   5   7  -3 3413.75 3098.33   3
  -5   7   2 222.590 683.440   4
   5   7  -2-271.035 865.346   3
  -5   7   1 1866.53 1947.06   4
   5   7  -1 5341.32 3829.89   3
   5   7   0-1235.47 1844.88   3
   5   7   1-9446.32 5120.24   3
  -6  -7   0 2149.70 2285.11   6
  -6  -6   4 7902.46 5096.13   1
  -6  -6   3-4001.96 3616.81   1
   6  -6  -3 1008.44 1776.21   5
  -6  -6   2-3393.08 3327.61   1
   6  -6  -2-1023.84 1773.31   5
  -6  -6   1 1581.38 2274.05   1
   6  -6  -1-3405.73 3215.20   5
  -6  -6   0 10682.3 5923.78   1
   6  -6   0 1287.92 1975.81   5
  -6  -6  -1-1608.85 2305.99   1
   6  -6   1 2433.44 2725.66   5
   6  -6   2 4858.47 3949.14   7
  -6  -6  -2-3362.25 3358.57   1
  -6  -6  -3 2330.09 2806.56   1
   6  -6   3 2456.71 2842.97   7
   6  -6   4-228.296 882.894   7
  -6  -6  -4-860.469 1712.52   1
  -6  -5   7 2015.95 2528.46   1
   6  -5  -7 1479.76 2180.03   5
  -6  -5   6 8.71130 165.048   1
   6  -5  -6-1747.41 2328.82   5
  -6  -5   5 5403.78 4099.88   1
   6  -5  -5 7449.08 4726.84   5
  -6  -5   4 13881.9 6574.79   1
   6  -5  -4 11121.7 5677.69   5
  -6  -5   3 933.458 1710.92   1
   6  -5  -3 3078.56 2943.45   5
  -6  -5   2 1993.23 2513.96   1
   6  -5  -2 4984.06 3703.88   5
   6  -5  -1-864.018 1476.48   7
  -6  -5   1-90.0789 540.094   1
   6  -5  -1 1759.15 2190.37   5
  -6  -5   0 264.867 932.463   1
   6  -5   0 551.344 1183.76   7
   6  -5   0 958.998 1617.41   5
   6  -5   1-35.9561 305.036   7
   6  -5   1 1613.81 2111.54   5
  -6  -5  -1-692.907 1368.31   2
  -6  -5  -1-888.503 1718.90   1
   6  -5   2 2713.09 2690.98   7
   6  -5   2 1939.61 2340.67   5
  -6  -5  -2 1844.70 2250.10   2
   6  -5   3 1894.63 2292.56   7
   6  -5   3 3941.32 3386.72   5
  -6  -5  -3 1202.37 1828.09   2
   6  -5   4 1232.69 1891.47   7
   6  -5   4-2284.20 2621.59   5
  -6  -5  -4 484.585 1164.39   2
   6  -5   5 4765.72 3812.01   7
   6  -5   5-379.671 1087.11   5
  -6  -5  -5 1904.80 2315.35   2
   6  -5   6 4395.23 3756.48   7
  -6  -5  -6 3731.75 3252.66   2
   6  -5   7-1814.28 2477.68   7
  -6  -4   9-1359.24 2042.72   1
   6  -4  -9 349.020 1022.69   5
  -6  -4   8-1806.26 2324.98   1
   6  -4  -8 2720.13 2819.30   5
  -6  -4   7-1360.25 2002.82   1
   6  -4  -7-685.293 1396.39   5
  -6  -4   6 2161.01 2519.30   1
   6  -4  -6 443.688 1107.62   5
  -6  -4   5 662.806 1398.05   1
   6  -4  -5-667.475 1337.99   5
  -6  -4   4 3175.04 3076.51   1
   6  -4  -4 5244.46 3692.03   5
  -6  -4   3-126.870 622.087   1
   6  -4  -3 6769.59 4137.05   5
  -6  -4   2 756.478 1531.53   1
   6  -4  -2-1055.31 1422.45   7
   6  -4  -2 922.217 1510.08   5
   6  -4  -1 1684.60 1809.99   7
   6  -4  -1 1857.45 2131.12   5
  -6  -4   1 6475.56 4125.12   2
  -6  -4   1 3350.99 3247.74   1
   6  -4   0 1317.75 1625.28   7
   6  -4   0-1499.02 1918.54   5
  -6  -4   0 2093.94 2362.71   2
   6  -4   1 2873.14 2447.97   7
   6  -4   1 3561.69 2980.26   5
  -6  -4  -1 3104.92 2889.24   2
   6  -4   2 3280.20 2679.43   7
   6  -4   2 4407.84 3362.31   5
  -6  -4  -2 605.344 1276.29   2
   6  -4   3 888.711 1432.40   7
   6  -4   3 3945.71 3552.37   5
  -6  -4  -3 5357.40 3798.05   2
   6  -4   4-757.081 1359.49   7
  -6  -4  -4 650.650 1322.79   2
   6  -4   4 2628.60 2695.36   5
   6  -4   5 586.845 1231.54   7
  -6  -4  -5-719.500 1391.88   2
   6  -4   5 349.403 1001.54   5
   6  -4   6 1485.53 2016.22   7
  -6  -4  -6 361.992 989.789   2
   6  -4   7-136.458 628.734   7
  -6  -4  -7-1290.77 1879.66   2
   6  -4   8 4965.14 3901.97   7
  -6  -4  -8 849.497 1532.13   2
   6  -4   9-405.462 1147.42   7
  -6  -4  -9-1434.93 2004.60   2
  -6  -4 -10 1938.86 2347.97   2
  -6  -3  11 1374.80 2052.59   1
   6  -3 -11 1453.04 2033.91   5
  -6  -3  10-1892.78 2361.10   1
   6  -3 -10 258.778 843.141   5
  -6  -3   9-2945.84 2901.56   1
   6  -3  -9 1887.95 2242.81   5
  -6  -3   8 1659.51 2158.45   1
   6  -3  -8 3952.24 3207.40   5
  -6  -3   7-1331.56 1928.19   1
   6  -3  -7 407.186 1017.00   5
  -6  -3   6 9540.03 5172.09   1
   6  -3  -6 7144.48 4209.09   5
  -6  -3   5 6011.90 4130.71   1
   6  -3  -5 6780.56 4046.31   5
  -6  -3   4 14349.7 6459.65   1
   6  -3  -4 16472.0 6325.22   5
   6  -3  -3 30110.1 6431.75   7
   6  -3  -3 25811.4 7721.21   5
   6  -3  -2 11699.8 4087.07   7
   6  -3  -2 10379.8 4815.36   5
  -6  -3   2 6589.85 4107.21   2
   6  -3  -1 87.6190 363.224   7
   6  -3  -1-164.330 602.091   5
   6  -3   0 115.154 429.214   7
   6  -3   0 1736.16 1957.90   5
  -6  -3   0 768.752 1406.00   2
   6  -3   1 1770.44 1738.17   7
  -6  -3  -1 5789.83 3842.61   2
   6  -3   1 2718.28 2633.92   5
   6  -3   2 579.374 1027.41   7
  -6  -3  -2 800.701 1418.79   2
   6  -3   2 4437.77 3206.66   5
   6  -3   3 2116.77 2028.26   7
  -6  -3  -3 1957.65 2206.84   2
   6  -3   3 2708.88 2552.54   5
   6  -3   4-646.501 1156.80   7
   6  -3   4-331.840 911.478   5
   6  -3   5 18.2524 200.436   7
  -6  -3  -5-546.042 1166.30   2
   6  -3   5 2361.01 2476.52   5
   6  -3   6 1977.90 2150.38   7
  -6  -3  -6 2492.58 2503.27   2
   6  -3   7 480.527 1092.08   7
  -6  -3  -7 1113.41 1685.22   2
   6  -3   8 4069.34 3274.68   7
  -6  -3  -8 2498.89 2549.76   2
   6  -3   9-1605.10 2119.88   7
  -6  -3  -9 1252.93 1830.59   2
   6  -3  10-742.927 1487.32   7
  -6  -3 -10 1983.57 2336.42   2
  -6  -3 -11 827.142 1532.85   2
  -6  -3 -12 1039.63 1748.08   2
  -6  -2  12-191.730 1160.20   1
   6  -2 -12-1928.23 2339.01   5
  -6  -2  11 63.5070 425.642   1
   6  -2 -11 1946.22 2288.72   5
  -6  -2  10 2355.60 2546.40   1
   6  -2 -10 490.712 1122.92   5
  -6  -2   9 1837.73 2224.33   1
   6  -2  -9 1022.36 1587.44   5
  -6  -2   8 5189.97 3723.30   1
   6  -2  -8 4318.28 3209.84   5
  -6  -2   7 4084.58 3309.69   1
   6  -2  -7 3332.79 2781.17   5
  -6  -2   6 1835.70 2234.04   1
   6  -2  -6 8682.46 4438.99   5
  -6  -2   5 8038.76 4737.80   1
   6  -2  -5 10081.7 4722.04   5
  -6  -2   4 3387.43 3103.45   1
   6  -2  -4 3729.17 1934.33   7
   6  -2  -4 806.195 1316.23   5
   6  -2  -3 4539.65 2233.92   7
   6  -2  -3 3210.74 2588.15   5
  -6  -2   3 2908.93 2580.81   2
   6  -2  -2 2410.85 1708.35   7
   6  -2  -2 1243.46 1589.20   5
  -6  -2   2 6295.57 4182.78   2
   6  -2  -1 2239.75 1719.75   7
  -6  -2   1 1020.58 1595.83   2
   6  -2  -1 1938.95 1968.01   5
   6  -2   0 2241.53 1791.88   7
  -6  -2   0 5502.36 3664.12   2
   6  -2   0 3699.43 2577.21   5
   6  -2   1 1540.81 1542.77   7
  -6  -2  -1 4476.25 3569.29   2
   6  -2   1 1943.53 2722.12   5
   6  -2   2 16203.4 5182.12   7
  -6  -2  -2 9984.17 4868.35   2
   6  -2   2 18694.4 6230.12   5
   6  -2   3 4169.43 2716.83   7
  -6  -2  -3 2162.32 2236.44   2
   6  -2   3-206.977 666.027   5
   6  -2   4 9855.34 4309.89   7
  -6  -2  -4 4260.53 3138.41   2
   6  -2   4 6758.61 3873.48   5
   6  -2   5 596.953 787.196   7
  -6  -2  -5 1612.46 1938.03   2
   6  -2   6 1161.29 1570.49   7
  -6  -2  -6 1875.51 2110.39   2
   6  -2   7 1701.53 1952.17   7
  -6  -2  -7 2313.87 2372.16   2
   6  -2   8-1701.14 2010.54   7
  -6  -2  -8 1254.28 1774.00   2
   6  -2   9-41.8803 325.084   7
  -6  -2  -9-65.2889 412.677   2
   6  -2  10-2785.74 2733.88   7
  -6  -2 -10 83.5362 477.212   2
   6  -2  11-1924.15 2344.42   7
  -6  -2 -11-1142.62 1808.60   2
  -6  -2 -12 5938.49 4234.53   2
  -6  -1  14-1675.96 2274.07   1
   6  -1 -13 845.432 1604.49   5
  -6  -1  13 1204.95 1874.23   1
  -6  -1  12 762.483 1451.65   1
   6  -1 -12 678.188 1388.85   5
  -6  -1  11 1393.40 1921.71   1
   6  -1 -11 546.526 1207.26   5
  -6  -1  10-536.223 1174.88   1
   6  -1 -10 62.6997 397.338   5
  -6  -1   9 3429.12 2953.44   1
   6  -1  -9-72.7689 417.291   5
  -6  -1   8 1979.74 2247.68   1
   6  -1  -8-405.244 963.736   5
  -6  -1   7 445.422 1075.18   1
   6  -1  -7 3737.26 2870.21   5
  -6  -1   6 3821.10 3201.54   1
   6  -1  -6 6559.81 3877.81   5
   6  -1  -5 24002.0 4676.83   7
   6  -1  -5 15075.4 5588.74   5
   6  -1  -4 41569.1 6508.21   7
   6  -1  -4 39507.0 9153.90   5
  -6  -1   4 35737.4 9710.15   2
   6  -1  -3 40750.0 6886.86   7
  -6  -1   3 39259.2 9926.03   2
   6  -1  -3 32019.5 8191.11   5
   6  -1  -2 12339.8 4032.45   7
  -6  -1   2 8900.32 4607.88   2
   6  -1  -2 9639.17 4362.86   5
   6  -1  -1 1405.15 1374.66   7
  -6  -1   1 1893.52 2134.45   2
   6  -1  -1 3229.62 2417.60   5
   6  -1   0 720.550 1021.89   7
  -6  -1   0 3758.06 2954.33   2
   6  -1   0 1013.63 1344.67   5
   6  -1   1 12752.0 4618.50   7
  -6  -1  -1 14823.4 5794.23   2
   6  -1   1 7797.04 3732.21   5
   6  -1   2 2463.85 2020.22   7
  -6  -1  -2 4302.90 3092.30   2
   6  -1   2-602.364 1046.80   5
   6  -1   3 11652.1 4530.08   7
  -6  -1  -3 9674.82 4623.15   2
   6  -1   3 6792.11 3558.40   5
   6  -1   4 1128.27 1451.56   7
  -6  -1  -4 331.921 859.113   2
   6  -1   4 686.851 1146.44   5
   6  -1   5 7448.16 3821.27   7
  -6  -1  -5 6987.28 3966.42   2
   6  -1   5 8088.94 3899.72   5
   6  -1   6 3185.67 2569.50   7
  -6  -1  -6 1184.29 1650.55   2
   6  -1   7 2200.06 2194.68   7
  -6  -1  -7 3213.63 2758.24   2
   6  -1   8 3385.43 2797.97   7
  -6  -1  -8 11005.5 5200.24   2
   6  -1   9 1025.13 1581.47   7
  -6  -1  -9 2583.29 2580.12   2
   6  -1  10 499.517 1135.01   7
  -6  -1 -10 499.451 1165.76   2
   6  -1  11-340.101 963.273   7
  -6  -1 -11 112.848 571.383   2
   6  -1  12 2868.65 2878.57   7
  -6  -1 -12 1423.49 2097.24   2
  -6   0  15 614.173 1355.83   1
  -6   0  14-2780.56 2799.67   1
   6   0 -13-2141.66 2617.79   5
  -6   0  13 268.024 844.958   1
  -6   0  12 3468.54 2961.13   1
   6   0 -12-1967.58 2416.66   5
  -6   0  11 961.314 1529.06   1
   6   0 -11 1413.65 1974.61   5
   6   0 -11-757.278 1096.04   3
  -6   0  10 72.6869 415.733   1
   6   0 -10 868.890 1495.23   5
   6   0 -10-631.536 954.469   3
  -6   0   9 1528.81 1905.30   1
   6   0  -9 2945.29 2666.83   5
   6   0  -9 1941.50 1590.22   3
  -6   0   8-602.835 1206.93   1
   6   0  -8-1306.96 1727.81   5
   6   0  -8-980.630 1067.61   3
  -6   0   7-1348.70 1835.35   1
   6   0  -7 900.374 1398.61   5
  -6   0   6 1529.84 2002.19   1
   6   0  -6 6608.20 2491.09   7
   6   0  -6 4647.85 3101.71   5
   6   0  -5 6851.45 2664.63   7
   6   0  -5 6826.27 3539.57   5
  -6   0   5 4169.18 3199.69   2
   6   0  -4 6176.32 2641.11   7
  -6   0   4 5671.04 3776.37   2
   6   0  -4 4398.26 2883.03   5
   6   0  -3 8648.30 3251.93   7
  -6   0   3 10960.5 5244.56   2
   6   0  -3 3857.76 2567.42   5
   6   0  -3 7573.37 2317.91   8
   6   0  -2 2069.78 1625.59   7
  -6   0   2 3279.06 2827.44   2
   6   0  -2 2479.81 2053.99   5
   6   0  -2 2414.35 1357.41   8
   6   0  -1 1199.97 1300.99   7
  -6   0   1 2894.64 2602.57   2
   6   0  -1 1215.90 1405.71   5
   6   0   0 8609.83 3746.64   7
  -6   0   0 4813.10 3300.96   2
   6   0   0 9259.65 3815.53   5
   6   0   1 8063.73 3772.87   7
  -6   0  -1 15177.4 5722.79   2
   6   0   1 10167.4 4028.18   5
   6   0   2 1072.67 1358.60   7
  -6   0  -2 638.088 1179.36   2
   6   0   2 1109.28 1311.47   5
   6   0   3 8767.76 4007.09   7
  -6   0  -3 2886.32 2931.95   2
   6   0   3 7682.75 3472.05   5
   6   0   4 3491.11 2599.53   7
  -6   0  -4 5260.26 3396.41   2
   6   0   4 5271.09 2931.76   5
   6   0   5 1454.67 1727.78   7
  -6   0  -5 2717.69 2455.59   2
   6   0   5 1479.26 1555.60   5
   6   0   6 353.459 876.085   7
  -6   0  -6 3371.27 3200.21   2
  -6   0  -7-2270.67 2293.41   2
   6   0   7-1319.30 1728.79   7
  -6   0  -8 744.408 1336.01   2
   6   0   8 3053.39 2700.24   7
  -6   0  -9-828.924 1442.39   2
   6   0   9-222.249 747.320   7
  -6   0 -10 3190.22 2911.42   2
   6   0  10 1333.41 1868.90   7
  -6   0 -11-1810.18 2267.02   2
   6   0  11 434.020 1269.56   7
  -6   0 -12-749.859 1513.37   2
   6   0  12-343.780 995.417   7
   6   1 -13-4181.21 3771.65   5
  -6   1  12 1359.45 1758.12   1
   6   1 -12-1382.53 1535.29   3
   6   1 -12-2625.28 2876.37   5
  -6   1  11 2046.31 2114.17   1
   6   1 -11-494.532 876.538   3
   6   1 -11-1592.70 2154.61   5
  -6   1  10 1234.41 1626.26   1
   6   1 -10 982.803 1177.00   3
   6   1 -10-1345.29 1904.78   5
  -6   1   9-653.649 1187.61   1
   6   1  -9 660.988 915.689   3
   6   1  -9 2543.14 2522.65   5
  -6   1   9 2539.06 3658.06   4
  -6   1   8-438.990 988.882   1
   6   1  -8 441.934 707.799   3
   6   1  -8 2871.01 2587.00   5
  -6   1   7 1678.63 1984.72   1
   6   1  -7 1787.54 1464.23   7
   6   1  -7-244.929 494.888   3
   6   1  -7 1660.65 1903.90   5
  -6   1   6 2664.28 2586.64   1
   6   1  -6 3241.28 2032.77   7
   6   1  -6 5548.34 3370.13   5
  -6   1   6 4190.33 3561.53   4
   6   1  -6 9383.30 3604.16   8
   6   1  -5 15515.0 4646.56   7
  -6   1   5 17366.3 6529.16   2
   6   1  -5 23826.1 6752.09   5
  -6   1   5 21765.5 7251.39   4
   6   1  -5 16050.7 4452.29   8
   6   1  -4 43565.7 7967.19   7
   6   1  -4 43358.7 8950.74   5
  -6   1   4 47362.8 10972.0   2
   6   1  -4 33365.8 6230.55   8
   6   1  -3 34552.2 7247.76   7
   6   1  -3 38440.3 8063.61   5
  -6   1   3 40912.8 10241.6   2
   6   1  -3 34891.1 6345.80   8
   6   1  -2 12112.4 4262.15   7
  -6   1   2 12712.0 5516.89   2
   6   1  -2 16477.5 5025.96   5
   6   1  -2 15504.8 4262.96   8
   6   1  -1 2927.12 2139.37   7
  -6   1   1 6.37049 121.190   2
   6   1  -1 236.019 579.395   5
   6   1  -1 2063.16 1553.96   8
   6   1   0 798.339 1142.29   7
   6   1   0 998.224 1155.06   5
   6   1   0 2317.85 1688.77   8
   6   1   1 17811.9 5525.45   7
  -6   1  -1 8967.52 4820.01   2
   6   1   1 7769.58 3146.88   5
   6   1   1 11407.1 3923.03   8
   6   1   2 2965.75 2292.17   7
  -6   1  -2 4323.84 3076.20   2
   6   1   2 2996.40 1946.73   5
   6   1   3 14163.0 5146.71   7
  -6   1  -3 5133.29 3353.10   2
   6   1   3 7012.67 2986.12   5
   6   1   4 665.995 1148.17   7
  -6   1  -4 1627.73 1890.98   2
   6   1   4-324.222 649.387   5
  -6   1  -5 11152.0 4960.73   2
   6   1   5 14055.7 5422.39   7
  -6   1  -6 1094.51 1559.31   2
   6   1   6 550.952 1105.59   7
  -6   1  -7 1473.99 1823.00   2
   6   1   7 5641.36 3642.26   7
  -6   1  -8 32.1082 272.686   2
   6   1   8 13.6789 1835.70   7
  -6   1  -9 87.0174 458.042   2
   6   1   9 1155.88 1737.91   7
  -6   1 -10-2094.15 2308.44   2
   6   1  10 1201.96 1817.66   7
  -6   1 -11 68.1258 430.305   2
   6   1  11-599.427 1306.19   7
   6   1  12 2829.95 2900.56   7
   6   2 -14 1612.49 2483.83   5
   6   2 -13 4039.07 3797.46   5
   6   2 -12 5597.39 4306.89   5
  -6   2  12 10826.5 7764.48   4
   6   2 -11-3419.09 2462.21   3
   6   2 -11-1565.97 2189.73   5
   6   2 -10-6108.98 3165.94   3
   6   2 -10 1448.59 2021.02   5
  -6   2  10 4065.64 4079.75   4
   6   2  -9 1977.96 2404.95   8
  -6   2   9 1064.57 1415.52   1
   6   2  -9-2830.30 2070.73   3
   6   2  -9-337.970 935.825   5
   6   2  -8-1243.18 1813.49   8
  -6   2   8 3320.66 2553.16   1
   6   2  -8-322.917 1255.05   3
   6   2  -8 1776.13 2056.27   5
  -6   2   8 4562.32 4122.58   4
   6   2  -7 2665.63 2506.84   8
  -6   2   7 2284.84 2194.84   1
   6   2  -7-634.457 906.264   3
   6   2  -7 48.5636 326.082   5
  -6   2   7 2584.88 3188.01   4
  -6   2   6 3563.90 2871.37   1
   6   2  -6 5293.79 2326.21   3
   6   2  -6 3426.88 2624.66   5
  -6   2   6 9150.88 5153.13   4
   6   2  -6 6151.54 3592.94   8
  -6   2   5 9940.79 5160.39   2
   6   2  -5 6533.41 3428.10   5
  -6   2   5 9843.70 4922.74   4
   6   2  -5 7952.84 3865.41   8
  -6   2   4 4347.29 3254.37   2
   6   2  -4 2059.27 1854.22   5
  -6   2   4 5860.58 4175.48   4
   6   2  -4 3872.57 2834.12   8
  -6   2   3 1395.95 1839.30   2
   6   2  -3 3755.21 2370.89   5
  -6   2   3 4252.95 4327.58   4
   6   2  -3 3734.55 2449.39   8
  -6   2   2 5959.04 3732.09   2
   6   2  -2 4106.21 2333.31   5
  -6   2   2 3089.76 3113.48   4
   6   2  -2 3318.22 2267.87   8
  -6   2   1 356.780 898.328   2
   6   2  -1 738.771 931.099   5
   6   2  -1 1047.42 1264.11   8
  -6   2   0 2032.90 2121.08   2
   6   2   0 2691.62 1686.63   5
  -6   2   0 2773.48 2702.83   4
   6   2   0 542.682 911.806   8
   6   2   1 2612.33 2277.10   7
  -6   2  -1 1958.72 2078.47   2
   6   2   1 399.316 629.480   5
   6   2   1 2418.37 1948.11   8
   6   2   2 13991.7 5229.71   7
  -6   2  -2 13654.4 5499.51   2
   6   2   2 14315.4 3815.64   5
   6   2   2 15937.8 5054.01   8
  -6   2  -3 4300.63 3094.37   2
   6   2   3 1844.23 1929.97   7
   6   2   3 41.4136 202.894   5
   6   2   3 2659.46 2133.06   8
  -6   2  -4 5536.17 3594.21   2
   6   2   4 2568.89 2313.22   7
  -6   2  -5 2628.88 2414.59   2
   6   2   5 2493.77 2324.65   7
  -6   2  -6-1164.67 1605.03   2
   6   2   6 1576.02 1874.66   7
  -6   2  -7 1999.63 1777.26   2
   6   2   7 4243.33 3157.00   7
  -6   2  -8-56.6680 358.492   2
   6   2   8-205.848 714.800   7
  -6   2  -9 117.444 525.038   2
   6   2   9 709.853 1363.18   7
  -6   2 -10 3867.00 3091.59   2
   6   2  10 873.689 1554.74   7
  -6   2 -11 1181.81 1763.71   2
   6   2  11 1367.99 1992.11   7
   6   2  12 4017.18 3496.85   7
   6   3 -14 640.389 1575.32   5
   6   3 -13 283.918 1014.74   5
   6   3 -12-406.098 1172.08   5
   6   3 -11 226.373 840.733   5
  -6   3  11 52.2614 1944.16   4
   6   3 -10 921.202 1849.90   8
   6   3 -10 3675.62 3243.41   5
  -6   3  10 616.571 1475.37   4
   6   3  -9 1956.47 2616.05   8
   6   3  -9 459.047 567.908   3
   6   3  -9-312.076 901.990   5
  -6   3   9 1260.90 1287.44   4
   6   3  -8-2371.77 2784.63   8
   6   3  -8 3232.66 2998.12   3
   6   3  -8-85.4434 449.254   5
  -6   3   8 5935.70 4269.70   4
   6   3  -7-2701.03 2856.43   8
   6   3  -7 4430.36 3300.36   3
   6   3  -7 877.532 1367.68   5
  -6   3   7-2492.33 2664.93   4
   6   3  -6 4955.54 3713.00   8
  -6   3   6 3592.90 2682.98   1
   6   3  -6 4215.84 3368.57   5
  -6   3   6 12156.8 5808.82   4
  -6   3   5 5942.23 3584.89   2
   6   3  -5 4250.52 2689.55   5
  -6   3   5 9884.63 4907.26   4
   6   3  -5 8794.26 4739.07   8
  -6   3   4 20391.1 6885.34   2
  -6   3   4 13272.4 5551.72   4
   6   3  -4 21198.5 6938.16   8
  -6   3   3 31703.5 8583.63   2
  -6   3   3 24049.8 7009.17   4
   6   3  -3 36059.2 8912.82   8
  -6   3   2 11066.1 5000.11   2
  -6   3   2 8090.85 3738.49   4
   6   3  -2 6320.49 3628.53   8
  -6   3   1 2511.63 1669.36   2
  -6   3   1-2211.59 1914.84   4
   6   3  -1-610.795 1107.03   8
  -6   3   0 655.520 1197.77   2
  -6   3   0 900.237 1011.45   4
   6   3   0 194.646 616.749   8
  -6   3  -1 6652.73 3838.95   2
  -6   3  -1 5252.15 3113.23   4
   6   3   1 3227.57 2496.94   8
  -6   3  -2 1378.12 1764.42   2
   6   3   2 2411.99 2166.72   8
  -6   3  -3 3992.48 3025.21   2
   6   3   3 2034.74 2179.93   8
  -6   3  -4 997.703 1516.58   2
   6   3   4 967.380 1513.20   7
   6   3   4 1583.76 1799.50   8
  -6   3  -5 2096.20 2193.61   2
   6   3   5 340.494 898.387   7
   6   3   5 2243.36 1455.16   8
  -6   3  -6 843.757 1388.27   2
   6   3   6 3300.28 2799.07   7
  -6   3  -7 254.460 763.118   2
   6   3   7-668.208 1277.02   7
  -6   3  -8-878.770 1428.50   2
   6   3   8 4361.76 3295.18   7
  -6   3  -9 941.720 1502.47   2
   6   3   9-158.858 643.417   7
  -6   3 -10-1707.02 2068.70   2
   6   3  10-273.880 866.618   7
   6   3  11 1001.31 1699.03   7
   6   4 -12 368.538 1293.72   8
   6   4 -11-976.672 2066.22   8
   6   4 -10-1100.97 2150.49   8
  -6   4  10-2293.70 2844.94   4
   6   4  -9 1591.38 2530.81   8
  -6   4   9-4669.84 3928.79   4
   6   4  -8-522.595 1415.65   8
  -6   4   8-8341.63 5082.55   4
   6   4  -7-151.021 739.780   8
  -6   4   7-2099.56 2467.92   4
   6   4  -6 2683.86 3028.07   8
  -6   4   6 2017.14 2340.08   4
  -6   4   5-1633.65 2041.32   4
   6   4  -5 1502.23 2194.08   8
  -6   4   4-1500.14 1886.61   4
   6   4  -4 8468.92 5051.26   8
  -6   4   3 3794.68 2872.49   2
  -6   4   3 3780.38 1601.49   4
   6   4  -3 488.859 1179.47   8
  -6   4   2-362.194 885.918   2
   6   4  -2 22.4445 246.226   8
  -6   4   2-1492.58 3038.32   4
  -6   4   1 233.417 708.351   2
   6   4  -1 676.633 1319.29   8
  -6   4   1 905.399 905.277   4
  -6   4   0-1250.67 1643.77   2
   6   4   0-630.081 1248.52   8
  -6   4   0-2557.06 2052.62   4
  -6   4  -1 3052.23 2605.96   2
   6   4   1 6267.36 3891.63   8
  -6   4  -2 3176.53 2712.18   2
   6   4   2 4021.17 3089.55   8
  -6   4  -3 186.894 996.320   2
   6   4   3 2490.08 2427.84   8
  -6   4  -4 2036.35 2235.87   2
   6   4   4-132.330 562.337   8
  -6   4  -5-2826.26 2644.96   2
   6   4   5 539.671 1146.49   8
  -6   4  -6-2239.81 2357.16   2
   6   4   6 1922.93 2297.64   7
   6   4   6-3073.61 2774.18   8
  -6   4  -7 1355.17 1837.52   2
   6   4   7 1911.65 2278.76   7
  -6   4  -8 4026.24 3188.52   2
   6   4   8-792.146 1460.99   7
  -6   4  -9 740.555 1386.62   2
   6   4   9 1771.68 2207.36   7
   6   5 -10-887.043 2035.23   8
   6   5  -9-1327.20 2452.44   8
   6   5  -8 596.401 1614.29   8
  -6   5   8-3456.65 3205.67   4
   6   5  -7 4761.50 4474.34   8
  -6   5   7-3591.33 3168.72   4
  -6   5   6-2213.12 2415.49   4
   6   5  -6-7277.81 5414.14   8
  -6   5   5 13194.8 5732.58   4
   6   5  -5 11072.8 6517.88   8
   6   5  -4 5704.39 4567.06   8
  -6   5   4 8551.32 4492.98   4
   6   5  -3 4328.70 3886.96   8
  -6   5   3 4766.33 3259.20   4
   6   5  -2 2090.39 2640.37   8
  -6   5   2 4684.31 3133.64   4
   6   5  -1-900.213 1692.77   8
  -6   5   1 3469.41 2606.79   4
   6   5   0 1480.87 2132.22   8
   6   5   1 2589.57 2771.24   8
   6   5   2 71.9872 455.747   8
   6   5   3 1065.35 1741.33   8
  -6   5  -4-311.610 909.122   2
   6   5   4 1946.68 2347.24   8
  -6   5  -5 1088.91 1727.33   2
   6   5   5-718.505 1429.90   8
  -6   5  -6-4154.39 3406.64   2
   6   5   6-1455.51 2047.64   8
  -6   5  -7-2833.89 2832.67   2
   6   5   7 2923.47 2931.41   8
  -6   5  -8-2695.54 2783.79   2
  -6   6   6 379.196 986.142   4
  -6   6   5 4523.11 3318.44   4
  -6   6   4 4852.95 3354.91   4
   6   6  -4 4184.08 4245.75   8
  -6   6   3 2212.63 2213.57   4
   6   6  -3 1059.64 2094.84   8
   6   6  -2-1571.58 2501.31   8
   6   6  -1-4196.97 4000.59   8
   6   6   0 2998.06 3322.56   8
   6   6   1 1421.51 2247.19   8
   6   6   2-287.111 994.339   8
   7  -6   2-616.759 1423.51   7
  -7  -5   2 2834.62 3205.38   1
  -7  -5   1 2770.06 3201.72   1
  -7  -5   0 1804.04 2602.57   1
   7  -5   1 742.717 1420.11   7
  -7  -5  -1 3958.57 3514.95   2
  -7  -5  -1-639.343 1561.34   1
   7  -5   2 3872.69 3319.41   7
  -7  -5  -2-899.417 1690.82   2
   7  -5   3 1503.86 2122.85   7
  -7  -5  -3-417.184 1161.62   2
   7  -5   4-2628.90 2884.39   7
  -7  -5  -4 2844.38 3054.14   2
  -7  -5  -5-1483.74 2219.47   2
  -7  -5  -6 2781.55 3062.58   2
  -7  -4   6 673.187 1513.18   1
   7  -4  -6-1926.03 2448.48   5
  -7  -4   5 1256.46 2072.08   1
   7  -4  -5 386.480 1082.09   5
  -7  -4   4 3678.20 3562.06   1
   7  -4  -4 3896.61 3392.33   5
  -7  -4   3-1479.63 2282.50   1
   7  -4  -3 1469.97 2058.67   5
  -7  -4   2 3378.38 3473.44   1
   7  -4  -2 1082.69 1751.05   5
   7  -4  -1-162.200 580.576   7
   7  -4  -1 3224.36 3007.31   5
  -7  -4   1 2193.67 2582.57   2
  -7  -4   1 3124.84 3364.71   1
   7  -4   0 2182.84 2180.24   7
   7  -4   0 920.020 1609.21   5
  -7  -4   0 3477.49 3277.79   2
   7  -4   1 1546.83 1885.19   7
   7  -4   1 971.368 1664.04   5
  -7  -4  -1 3300.31 3215.51   2
   7  -4   2 3667.79 2987.83   7
   7  -4   2 3495.86 3191.50   5
  -7  -4  -2 4921.13 3945.35   2
   7  -4   3-739.110 1381.41   7
   7  -4   3-923.365 1664.65   5
  -7  -4  -3-1248.56 1997.75   2
   7  -4   4-791.545 1472.40   7
   7  -4   4-860.145 1633.36   5
   7  -4   5 2774.15 2837.30   7
  -7  -4  -5-987.631 1789.19   2
   7  -4   5 1717.97 2347.57   5
   7  -4   6 375.448 1073.54   7
  -7  -4  -6 393.304 1133.66   2
  -7  -4  -7-5530.88 4268.03   2
  -7  -4  -8-4482.93 3864.81   2
  -7  -3   8 521.722 1309.17   1
   7  -3  -8-3656.58 3321.05   5
  -7  -3   7-629.755 1437.08   1
   7  -3  -7 1249.40 1918.52   5
  -7  -3   6 2044.44 2596.28   1
   7  -3  -6-2165.28 2494.49   5
  -7  -3   5 3618.92 3471.96   1
   7  -3  -5 1929.17 2323.45   5
  -7  -3   4-75.5402 506.800   1
   7  -3  -4 3131.99 2918.91   5
  -7  -3   3 1768.54 2467.84   1
   7  -3  -3 2222.32 2427.12   5
   7  -3  -2 1268.44 1434.08   7
   7  -3  -2 437.477 1064.96   5
  -7  -3   2-406.551 1101.98   2
   7  -3  -1 1437.26 1576.30   7
   7  -3  -1 2364.02 2459.45   5
  -7  -3   1 3396.03 3201.99   2
   7  -3   0-307.956 754.347   7
   7  -3   0-1388.26 1885.37   5
  -7  -3   0 951.144 1697.73   2
   7  -3   1 2462.95 2206.26   7
   7  -3   1 3794.84 3133.88   5
  -7  -3  -1 7569.26 4794.80   2
   7  -3   2 1024.89 1470.95   7
  -7  -3  -2 12496.2 6153.06   2
   7  -3   2 7625.81 4493.01   5
   7  -3   3 3076.18 2630.88   7
  -7  -3  -3 9516.39 5361.31   2
   7  -3   3 3700.85 3177.67   5
   7  -3   4 79.5936 436.346   7
  -7  -3  -4-1059.03 1788.46   2
   7  -3   4-671.789 1376.55   5
   7  -3   5-499.544 1125.83   7
  -7  -3  -5-694.675 1453.58   2
   7  -3   5-1146.78 1828.19   5
   7  -3   6-2816.82 2750.98   7
  -7  -3  -6-759.157 1523.91   2
   7  -3   7 1987.19 2376.38   7
  -7  -3  -7 1309.81 2010.56   2
   7  -3   8-150.186 671.774   7
  -7  -3  -8-770.077 1552.31   2
  -7  -3  -9 3313.52 3245.58   2
  -7  -2  10 1148.60 1922.02   1
   7  -2 -10 2564.66 2782.32   5
  -7  -2   9 2030.88 2542.71   1
   7  -2  -9-1597.18 2166.16   5
  -7  -2   8-2937.22 3056.19   1
   7  -2  -8 4479.85 3831.04   5
  -7  -2   7 427.263 1169.83   1
   7  -2  -7 3090.76 2936.56   5
  -7  -2   6-2197.38 2669.65   1
   7  -2  -6-7.52623 143.055   5
  -7  -2   5-1868.09 2489.14   1
   7  -2  -5-430.907 1066.55   5
  -7  -2   4 1788.84 2451.56   1
   7  -2  -4 14.1347 190.050   5
   7  -2  -3-1341.15 1341.84   7
   7  -2  -3 1748.86 2078.64   5
  -7  -2   3-49.3177 382.311   2
   7  -2  -2 1854.38 1647.40   7
   7  -2  -2 5421.56 3607.32   5
  -7  -2   2 603.216 1340.78   2
   7  -2  -1 1959.51 1769.18   7
  -7  -2   1 3290.40 3124.58   2
   7  -2  -1-357.327 916.353   5
   7  -2   0 808.366 1180.85   7
  -7  -2   0 987.708 1705.31   2
   7  -2   0 1500.24 1869.17   5
   7  -2   1 903.809 1294.19   7
  -7  -2  -1 1634.21 2178.18   2
   7  -2   1 4366.04 3200.48   5
   7  -2   2 2590.32 2265.50   7
  -7  -2  -2 4551.05 3613.10   2
   7  -2   2 4617.03 3320.52   5
   7  -2   3 5596.43 3436.16   7
  -7  -2  -3 3297.03 3068.63   2
   7  -2   3 7920.57 4404.11   5
   7  -2   4 148.777 577.161   7
  -7  -2  -4 861.147 1565.30   2
   7  -2   4 3208.10 2843.04   5
   7  -2   5 1470.22 1866.85   7
  -7  -2  -5-531.260 1231.22   2
   7  -2   5-415.651 1037.08   5
   7  -2   6 1880.75 2170.90   7
  -7  -2  -6 1279.85 1918.46   2
   7  -2   7-1356.51 1889.57   7
  -7  -2  -7 194.881 753.811   2
   7  -2   8 131.051 603.630   7
  -7  -2  -8-2955.36 2970.22   2
   7  -2   9 2854.08 2896.02   7
  -7  -2  -9 1164.87 1889.88   2
  -7  -1  11 1856.82 2395.74   1
   7  -1 -11-795.572 1573.37   5
  -7  -1  10-1499.13 2139.79   1
   7  -1 -10-671.171 1415.42   5
  -7  -1   9 1285.44 1982.40   1
   7  -1  -9 6637.17 4372.07   5
  -7  -1   8-2973.90 3031.83   1
   7  -1  -8 2087.00 2417.26   5
  -7  -1   7-1084.60 1848.06   1
   7  -1  -7 2295.35 2497.56   5
  -7  -1   6 3995.24 3599.22   1
   7  -1  -6-1319.08 1863.63   5
  -7  -1   5-1374.55 2131.25   1
   7  -1  -5-1672.87 2061.51   5
   7  -1  -4 1460.35 1362.22   7
   7  -1  -4 2600.89 2517.09   5
  -7  -1   4 4794.29 1988.54   2
   7  -1  -3 723.305 2285.02   7
   7  -1  -3 3188.22 2724.92   5
  -7  -1   3 2681.78 2834.60   2
   7  -1  -2 3796.86 2412.05   7
  -7  -1   2 1589.80 2174.19   2
   7  -1  -2-697.905 1248.49   5
   7  -1  -1 32.1150 230.551   7
  -7  -1   1-1648.09 2197.86   2
   7  -1   0 2598.48 2700.55   7
  -7  -1   0 4143.66 3446.04   2
   7  -1   0 3652.13 2777.86   5
   7  -1   1 2059.44 2916.42   7
  -7  -1  -1 3125.75 2962.02   2
   7  -1   1 8863.43 4319.78   5
   7  -1   2 6446.33 3607.54   7
  -7  -1  -2 7226.87 4281.09   2
   7  -1   2 3856.32 2860.22   5
   7  -1   3 2894.90 2478.92   7
  -7  -1  -3 2180.07 2444.20   2
   7  -1   3 3022.44 2551.44   5
   7  -1   4 3600.64 2842.70   7
  -7  -1  -4 3973.96 3293.32   2
   7  -1   4-315.941 832.606   5
   7  -1   5 982.449 1525.13   7
  -7  -1  -5-1781.90 2206.41   2
   7  -1   5 1392.07 1763.13   5
   7  -1   6 3257.09 2849.97   7
  -7  -1  -6-237.867 810.587   2
   7  -1   7-566.668 1219.45   7
  -7  -1  -7-1591.73 2113.33   2
   7  -1   8 4961.71 3700.41   7
  -7  -1  -8 2281.28 2560.87   2
   7  -1   9-1799.94 2283.96   7
  -7  -1  -9 2247.75 2585.58   2
  -7   0  13 1590.68 2182.84   1
  -7   0  12 3006.46 2956.59   1
  -7   0  11 543.591 1246.69   1
   7   0 -11 3352.55 3265.74   5
  -7   0  10-677.274 1390.63   1
   7   0 -10 3354.35 3190.32   5
  -7   0   9 984.491 1688.67   1
   7   0  -9 483.145 1184.05   5
  -7   0   8 3540.05 3244.17   1
   7   0  -8 3375.85 3070.21   5
  -7   0   7-1341.02 2030.27   1
   7   0  -7 1555.09 2048.24   5
  -7   0   6 1823.06 2416.61   1
   7   0  -6 3020.18 2796.71   5
   7   0  -5 265.885 589.830   7
   7   0  -5 1874.23 2151.67   5
  -7   0   5 1862.16 2351.70   2
  -7   0   5 4340.84 3777.71   1
   7   0  -4 1334.89 1375.32   7
   7   0  -4 361.962 919.275   5
  -7   0   4 712.715 1468.13   2
   7   0  -3-12.7104 139.301   7
  -7   0   3 1958.31 2431.84   2
   7   0  -3 3881.83 2918.69   5
   7   0  -2-1771.67 1703.91   7
  -7   0   2 3390.54 3177.48   2
   7   0  -2 2230.10 2146.35   5
   7   0  -1-43.7168 276.896   7
  -7   0   1-2168.96 2508.11   2
   7   0  -1-184.344 600.875   5
   7   0   0 2746.36 2267.57   7
  -7   0   0-2682.80 2752.54   2
   7   0   0-610.539 1072.72   5
   7   0   1 3929.92 2792.40   7
  -7   0  -1 974.852 1643.67   2
   7   0   1 2098.10 1969.02   5
   7   0   2 7493.10 3974.97   7
  -7   0  -2 6086.27 4070.50   2
   7   0   2 8755.48 4007.63   5
   7   0   3 8575.44 4379.04   7
  -7   0  -3 5809.12 3953.67   2
   7   0   3 3474.17 2527.11   5
   7   0   4 3087.94 2703.09   7
  -7   0  -4-964.844 1607.08   2
   7   0   4 1791.42 1821.15   5
   7   0   5 842.814 1451.04   7
  -7   0  -5 718.124 1384.28   2
   7   0   6 827.101 1466.45   7
  -7   0  -6-706.066 1374.72   2
   7   0   7-1338.92 1913.02   7
  -7   0  -7-1204.80 1806.61   2
   7   0   8 31.7714 301.862   7
  -7   0  -8 2071.55 2394.20   2
   7   0   9-882.638 1628.32   7
  -7   0  -9 892.131 1596.76   2
   7   0  10 397.806 1113.42   7
   7   1 -12-1037.31 1890.18   5
  -7   1  11 748.856 1387.41   1
   7   1 -11-1808.28 2429.06   5
  -7   1  10 1513.56 1980.18   1
   7   1 -10-1455.93 2123.42   5
  -7   1   9 869.448 1521.66   1
   7   1  -9 4581.27 3675.48   5
  -7   1   8 348.513 984.261   1
   7   1  -8 1839.59 2272.23   5
  -7   1   7-1732.08 2260.49   1
   7   1  -7 415.859 1054.78   5
  -7   1   6 5361.62 4077.69   1
   7   1  -6 218.839 746.175   5
   7   1  -5 1901.17 1664.74   7
   7   1  -5 4430.63 3252.43   5
  -7   1   5 3161.04 3060.99   2
   7   1  -4 1966.00 1743.33   7
  -7   1   4 763.927 1520.13   2
   7   1  -4-1977.92 2093.01   5
   7   1  -3 1115.55 1350.55   7
  -7   1   3 2747.97 2880.99   2
   7   1  -3 338.604 830.073   5
   7   1  -2-371.312 793.647   7
  -7   1   2 1066.01 1775.58   2
   7   1  -2 1388.56 1610.60   5
   7   1  -1 570.457 1010.98   7
  -7   1   1-1497.87 2074.93   2
   7   1  -1-182.096 560.879   5
   7   1   0 6454.81 3496.05   7
  -7   1   0 2237.79 2509.06   2
   7   1   0 2219.39 1897.69   5
   7   1   1 8869.81 4215.12   7
  -7   1  -1 3926.67 3289.82   2
   7   1   1 3255.03 2251.69   5
   7   1   2 6557.56 3729.66   7
  -7   1  -2 5931.69 4013.36   2
   7   1   2 5557.14 2906.22   5
   7   1   3 4473.99 3166.63   7
  -7   1  -3 3672.24 3140.75   2
   7   1   3 2570.81 1967.00   5
  -7   1  -4-957.104 1593.73   2
   7   1   4 71.2526 327.817   5
   7   1   5 3719.30 3060.56   7
  -7   1  -5-218.765 758.072   2
   7   1   6-479.493 1130.72   7
  -7   1  -6 1314.76 1854.07   2
   7   1   7 1443.53 2011.76   7
  -7   1  -7 1020.59 1635.65   2
   7   1   8-1620.91 2188.63   7
  -7   1  -8 2971.71 2812.38   2
  -7   1  -9-2728.32 2730.71   2
   7   1   9 5019.51 3947.91   7
   7   2 -12 3800.43 3639.41   5
   7   2 -11 3812.38 3541.64   5
   7   2 -10 1596.28 2228.32   5
  -7   2  10 5392.63 4433.40   4
   7   2  -9 3105.52 3021.94   5
  -7   2   9 8947.95 5375.58   4
  -7   2   8 2866.28 2668.50   1
   7   2  -8 2092.41 2408.71   5
  -7   2   8 3427.67 4154.68   4
  -7   2   7-623.305 1295.41   1
  -7   2   7-445.831 1558.29   4
  -7   2   6 80.5994 482.893   1
   7   2  -6 340.632 913.291   5
   7   2  -5-1475.14 1669.04   7
   7   2  -5-232.056 723.341   5
  -7   2   5 447.120 1132.61   2
   7   2  -4 4659.45 2992.94   7
  -7   2   4 3152.25 3050.58   2
   7   2  -4 1123.41 1513.82   5
  -7   2   4 5247.67 3762.45   4
   7   2  -3 157.148 554.133   7
  -7   2   3 2876.72 3394.56   2
   7   2  -3 176.787 566.592   5
  -7   2   3 3191.95 3089.78   4
   7   2  -3 197.566 571.094   8
   7   2  -2 2137.13 2061.15   7
  -7   2   2-1731.00 2239.99   2
   7   2  -2 505.446 901.475   5
   7   2  -2-450.816 854.805   8
   7   2  -1 117.944 489.111   7
  -7   2   1 1092.37 1758.34   2
   7   2  -1-149.456 493.448   8
   7   2   0 924.841 1376.97   7
  -7   2   0 2105.10 2422.52   2
   7   2   0 1103.38 1353.95   8
   7   2   1 2045.51 2078.71   7
  -7   2  -1 4342.66 3536.59   2
   7   2   1 2551.18 2094.69   8
   7   2   2 4505.42 3486.69   7
  -7   2  -2 2831.13 2778.31   2
   7   2   2 3544.76 2526.17   8
   7   2   3 7346.69 4094.38   7
  -7   2  -3 2757.25 2731.12   2
   7   2   4 3728.40 2958.78   7
  -7   2  -4 2291.07 4003.37   2
   7   2   5 3336.58 2871.27   7
  -7   2  -5 3576.20 3067.18   2
  -7   2  -6 3461.73 2998.64   2
   7   2   6 3430.08 2991.17   7
  -7   2  -7-273.895 841.925   2
   7   2   7-548.514 1228.19   7
  -7   2  -8-1953.37 2255.39   2
   7   2   8 5218.49 3896.35   7
   7   2   9 8.52999 161.915   7
  -7   3   9 1764.13 2565.75   4
  -7   3   8 2965.34 3220.74   4
  -7   3   7-3057.02 3154.61   4
  -7   3   6-1018.90 1750.19   4
   7   3  -6 289.829 890.380   8
  -7   3   5 1230.90 1813.48   2
  -7   3   5 2986.33 4367.94   4
   7   3  -5 1328.43 1845.49   8
  -7   3   4-413.981 1076.68   2
  -7   3   4 2819.51 2175.35   4
   7   3  -4 2180.31 2288.82   8
  -7   3   3 4014.31 3376.90   2
  -7   3   3 4689.62 3686.76   4
   7   3  -3 2267.10 2275.02   8
  -7   3   2-156.438 662.778   2
  -7   3   2 1426.82 3183.58   4
   7   3  -2 1377.80 1734.37   8
  -7   3   1 804.085 1494.24   2
   7   3  -1-946.024 1414.34   8
  -7   3   0 53.6271 384.172   2
   7   3   0-1246.69 1613.16   8
   7   3   1 1819.66 2116.28   7
  -7   3  -1 697.041 1384.99   2
   7   3   2 1469.85 1900.69   7
  -7   3  -2 2293.65 2518.32   2
   7   3   2 4562.41 3105.95   8
   7   3   3 885.626 1481.87   7
  -7   3  -3 1547.00 2067.92   2
   7   3   3 1692.27 1915.69   8
   7   3   4-69.0021 414.639   7
  -7   3  -4 635.031 1320.70   2
   7   3   4 49.9216 334.907   8
  -7   3  -5-256.989 834.815   2
   7   3   5 3705.65 3081.46   7
  -7   3  -6 149.262 631.932   2
   7   3   6 1296.22 1855.79   7
  -7   3  -7-608.501 1271.63   2
   7   3   7 4398.10 3461.39   7
  -7   4   8 4793.91 4243.97   4
   7   4  -8-859.264 1805.38   8
  -7   4   7-1819.07 1401.93   4
   7   4  -7 5128.48 4322.60   8
  -7   4   6-129.906 657.964   4
   7   4  -6 9.72367 184.097   8
  -7   4   5 2894.39 2594.03   4
   7   4  -5 27.8259 304.306   8
  -7   4   4-119.553 2098.02   4
   7   4  -4 3194.38 3181.46   8
  -7   4   3-2569.54 2590.69   4
   7   4  -3 3277.36 3137.74   8
   7   4  -2-659.987 1373.56   8
  -7   4   1 948.928 1598.68   2
   7   4  -1 1017.08 1672.49   8
  -7   4   0 212.429 759.334   2
   7   4   0-4492.39 3452.74   8
  -7   4  -1 1262.44 1864.76   2
   7   4   1 556.336 1202.59   8
  -7   4  -2 3156.36 2981.56   2
   7   4   2 4122.04 3255.05   8
   7   4   3-958.853 1683.23   7
  -7   4  -3-729.736 1446.87   2
   7   4   3 2267.71 2415.86   8
  -7   4  -4 2375.40 2624.19   2
   7   4   4-4512.82 3617.31   7
   7   4   4 3113.59 2847.67   8
  -7   4  -5-24.3414 265.667   2
   7   4   5 1865.18 2227.93   8
  -7   4  -6 1520.92 2095.99   2
  -7   4  -7-2563.30 2714.56   2
   7   5  -7 1852.46 2822.13   8
  -7   5   6-7161.83 4873.80   4
   7   5  -6 5284.77 4702.24   8
  -7   5   5-6558.98 4543.55   4
   7   5  -5 3369.86 3694.63   8
  -7   5   4-2322.87 2626.12   4
   7   5  -4 4163.81 4033.72   8
   7   5  -3 4431.88 4071.78   8
   7   5  -2 721.427 1610.75   8
   7   5  -1 1745.85 2452.19   8
   7   5   0-296.358 992.831   8
   7   5   1 3148.26 3180.20   8
   7   5   2 7838.64 4962.86   8
   7   5   3 3999.94 3518.84   8
   8  -4   1-2317.75 2446.16   7
   8  -4   2 1280.72 1874.67   7
   8  -4   3-1353.09 1987.00   7
   8  -3  -3-631.021 1391.89   5
   8  -3  -2 1953.99 2424.02   5
   8  -3  -1 1701.08 1786.76   5
   8  -3   0-402.666 931.180   7
   8  -3   0 1208.37 1891.34   5
   8  -3   1-308.102 842.159   7
   8  -3   1 4837.22 3794.95   5
   8  -3   2 520.431 1130.87   7
   8  -3   2 1022.96 1757.12   5
   8  -3   3-240.603 793.568   7
   8  -3   3-1532.60 2172.86   5
   8  -3   4-1580.02 2096.13   7
   8  -3   5-1469.54 2081.17   7
   8  -2  -6 4410.84 3772.29   5
  -8  -2   5-1584.80 2467.40   1
   8  -2  -5 607.039 1376.74   5
  -8  -2   4-184.050 845.778   1
   8  -2  -4 796.024 1550.02   5
   8  -2  -3 477.255 1179.39   5
  -8  -2   3-382.414 1145.45   2
   8  -2  -2-1153.06 1805.33   5
  -8  -2   2-1904.23 2570.57   2
   8  -2  -1 2746.26 2283.14   7
   8  -2  -1 482.764 1154.62   5
  -8  -2   1 1437.21 2238.55   2
   8  -2   0 1263.82 1610.98   7
   8  -2   0 1380.24 1942.11   5
  -8  -2   0-2142.66 2737.24   2
   8  -2   1 1830.81 2007.15   7
  -8  -2  -1 1776.79 2488.51   2
   8  -2   1 1166.62 1784.36   5
   8  -2   2 1679.23 1986.24   7
  -8  -2  -2 1564.10 2327.85   2
   8  -2   2 488.727 1159.37   5
   8  -2   3-597.668 1222.27   7
  -8  -2  -3-1460.93 2244.06   2
   8  -2   3 535.040 1222.11   5
   8  -2   4 722.351 1383.94   7
  -8  -2  -4-469.541 1269.81   2
   8  -2   4 1081.74 1822.05   5
   8  -2   5-248.208 832.144   7
   8  -2   5 426.262 1110.22   5
   8  -2   6-1180.07 1864.71   7
   8  -1  -8 2204.70 2743.79   5
  -8  -1   7-61.9783 478.925   1
   8  -1  -7-892.621 1718.70   5
  -8  -1   6-2613.56 3149.42   1
   8  -1  -6 1871.14 2443.55   5
  -8  -1   5-1525.16 2425.03   1
   8  -1  -5 229.438 837.809   5
   8  -1  -4 688.574 1417.36   5
  -8  -1   4-598.467 1440.18   2
   8  -1  -3 6888.25 4377.37   5
  -8  -1   3 6696.47 4845.88   2
   8  -1  -2-1060.65 1389.80   7
   8  -1  -2 1483.90 1986.62   5
  -8  -1   2-2406.31 2908.37   2
   8  -1  -1 1211.63 1541.37   7
  -8  -1   1 4109.45 3797.08   2
   8  -1  -1-3429.89 2965.28   5
   8  -1   0-1910.99 2004.01   7
  -8  -1   0 1894.20 2565.13   2
   8  -1   0 1565.53 1980.86   5
   8  -1   1-193.219 658.314   7
  -8  -1  -1 457.572 1252.04   2
   8  -1   1 824.503 1428.35   5
   8  -1   2 695.629 1288.10   7
  -8  -1  -2 5671.68 4377.89   2
   8  -1   2 2449.46 2459.78   5
   8  -1   3 1446.10 1911.99   7
  -8  -1  -3 914.260 1750.10   2
   8  -1   3 1538.10 1953.85   5
   8  -1   4-600.970 1267.19   7
  -8  -1  -4-4239.81 3748.86   2
   8  -1   4-1550.51 1969.03   5
   8  -1   5 430.424 1101.33   7
  -8  -1  -5 836.668 1660.74   2
   8  -1   5 2657.33 2587.62   5
   8  -1   6-617.906 1353.69   7
  -8   0   9 3863.49 3649.89   1
   8   0  -9 4483.85 3994.18   5
  -8   0   8 2965.26 3237.43   1
   8   0  -8 2175.63 2736.04   5
  -8   0   7 416.295 1230.32   1
   8   0  -7-3283.28 3298.35   5
  -8   0   6 1733.34 2555.11   1
   8   0  -6 193.599 782.589   5
   8   0  -5 1606.33 2192.77   5
  -8   0   5 1353.56 2166.74   2
  -8   0   5-3262.49 3544.82   1
   8   0  -4 999.640 1675.87   5
  -8   0   4 1594.49 2373.69   2
   8   0  -3 941.769 1315.07   7
   8   0  -3 4404.54 3405.18   5
  -8   0   3 3185.24 3369.56   2
   8   0  -2 2779.19 2337.15   7
  -8   0   2 981.716 1870.42   2
   8   0  -2-797.001 1403.72   5
   8   0  -1-122.503 506.950   7
  -8   0   1-107.846 616.496   2
   8   0   0 1961.40 2093.27   7
  -8   0   0 4047.59 3744.62   2
   8   0   0-909.782 1433.02   5
   8   0   1 85.6858 450.990   7
  -8   0  -1 1570.35 2310.77   2
   8   0   1 3098.39 2609.57   5
   8   0   2 838.154 1452.27   7
  -8   0  -2 1295.30 2082.67   2
   8   0   2 2627.70 2383.35   5
   8   0   3 744.350 1399.04   7
  -8   0  -3 804.759 1625.87   2
   8   0   3 679.652 1206.64   5
   8   0   4 2326.54 2541.32   7
  -8   0  -4 459.075 1217.94   2
   8   0   4 1032.57 1483.37   5
   8   0   5-608.515 1333.68   7
  -8   0  -5-1074.86 1850.58   2
   8   0   6-673.899 1438.82   7
   8   1 -10 6465.26 4878.40   5
  -8   1   9-1229.80 1983.36   1
   8   1  -9 2259.30 2837.15   5
  -8   1   8 37.3252 352.618   1
   8   1  -8-2494.91 2923.18   5
  -8   1   7-2080.35 2701.73   1
   8   1  -7 4356.15 3772.82   5
  -8   1   6-1613.19 2428.37   1
   8   1  -6-2063.47 2522.83   5
   8   1  -5 1961.76 2374.33   5
  -8   1   5 2927.20 3183.23   2
   8   1  -4 1239.18 1811.39   5
  -8   1   4-118.571 648.197   2
   8   1  -3 4369.29 2878.81   7
  -8   1   3-199.000 842.940   2
   8   1  -3 3148.81 2766.78   5
   8   1  -2 329.606 813.539   7
  -8   1   2-89.3553 564.363   2
   8   1  -2 1862.98 2041.37   5
   8   1  -1 1465.94 1762.08   7
  -8   1   1 890.991 1770.01   2
   8   1  -1-1562.77 1801.90   5
   8   1   0-466.803 1022.74   7
  -8   1   0 635.180 1481.74   2
   8   1   1-1586.21 1939.20   7
  -8   1  -1-1137.32 1967.57   2
   8   1   2 2011.94 2246.48   7
  -8   1  -2 1178.27 1981.20   2
   8   1   3 736.386 1397.87   7
  -8   1  -3 1615.82 2294.48   2
   8   1   4 560.635 1254.18   7
  -8   1  -4-88.7023 531.259   2
   8   1   5 4313.92 3566.63   7
  -8   1  -5 348.361 1042.79   2
   8   1   6-2167.83 2596.46   7
  -8   2   6 479.814 1282.25   1
  -8   2   5-253.153 921.122   2
   8   2  -4-864.629 1310.77   7
  -8   2   4-3439.94 3448.67   2
   8   2  -3 1302.89 1638.47   7
  -8   2   3-548.972 3323.55   2
   8   2  -2 2020.65 2077.43   7
  -8   2   2 58.7199 453.751   2
   8   2  -1-455.950 1005.21   7
  -8   2   1 1956.91 2606.64   2
   8   2   0-1219.87 1661.51   7
  -8   2   0-2296.10 2806.15   2
   8   2   1-792.952 1367.83   7
  -8   2  -1-3152.91 3271.27   2
   8   2   2 2076.23 2263.51   7
  -8   2  -2 5905.48 4440.14   2
   8   2   3-1027.88 1631.22   7
  -8   2  -3-410.084 1157.10   2
   8   2   4 672.999 1353.71   7
  -8   2  -4 1226.47 1975.58   2
  -8   3   7 5623.80 4362.21   4
  -8   3   6 12240.8 6161.71   4
   8   3  -5-558.699 1174.09   7
  -8   3   5 6636.95 4955.34   4
   8   3  -4-1615.09 2002.69   7
  -8   3   4 1345.83 2102.94   2
   8   3  -3-13.9059 1843.57   7
  -8   3   3 822.420 1665.50   2
   8   3  -2-1409.61 1879.32   7
  -8   3   2-1627.55 2351.79   2
   8   3  -1-2015.34 2255.02   7
  -8   3   1-3914.25 3644.72   2
   8   3   0-300.924 870.131   7
  -8   3   0-2521.03 2927.37   2
   8   3   1-298.622 873.848   7
  -8   3  -1 1336.34 2127.38   2
   8   3   2-138.083 600.809   7
  -8   3  -2 94.2667 563.461   2
  -8   3  -3-2624.46 2953.52   2
  -8   3  -4 1208.88 1987.90   2
   8   4  -1-2117.53 2454.68   8
   8   4   0-933.233 1610.97   8
   8   4   1 5140.12 3758.33   8
  -8   4  -2 4643.15 3987.90   2
   8   4   2 2086.02 2392.11   8
  -8   4  -3 299.891 1015.46   2
   8   4   3-2018.45 2362.77   8
   9  -2   1 2004.48 2264.03   7
   9  -2   2-4532.98 3516.36   7
   9  -1  -3-1646.68 2329.62   5
   9  -1  -2 6818.96 4639.58   5
   9  -1  -1 1644.47 2240.66   5
   9  -1   0 3197.68 2791.97   7
   9  -1   0-1310.36 1973.14   5
   9  -1   1-6043.64 3963.48   7
   9  -1   1-2208.54 2538.92   5
   9  -1   2 3536.14 3126.50   7
   9  -1   2-370.941 1034.80   5
   9  -1   3-2379.97 2612.10   5
   9  -1   4 2746.35 2799.64   5
   9   0  -5-1707.59 2454.76   5
   9   0  -4 2938.48 3121.25   5
   9   0  -3 2961.93 3038.24   5
   9   0  -2-2319.04 2612.09   5
   9   0  -1 2556.72 2476.81   7
   9   0  -1-564.951 1259.31   5
   9   0   0 206.666 726.033   7
   9   0   0 558.308 1227.43   5
   9   0   1 392.782 1030.84   7
   9   0   2-3131.38 2993.88   7
   9   1  -2 684.496 1268.73   7
   9   1  -1 2318.68 2399.56   7
   9   1   0-3509.95 3025.04   7
   9   1   1 1289.21 1882.59   7
   9   2  -2-862.558 1440.89   7
   9   2  -1 912.462 1513.28   7
   0   0   0    0.00    0.00   0
TITL PR2-43 A in P2(1)
REM P2(1) (#4 in standard setting)
CELL 0.71073   6.819463   6.611539  14.278940  90.0000  91.8827  90.0000
ZERR   12.00   0.002426   0.003274   0.005535   0.0000   0.0375   0.0000
LATT -1
SYMM -x, y+1/2,-z
SFAC C H N O
UNIT 12.00 12.00 12.00 12.00
TREF
HKLF 4
END
;
_shelx_hkl_checksum              61995
loop_
_space_group_symop_operation_xyz
'x, y, z'
'-x, y+1/2, -z'
loop_
_atom_site_label
_atom_site_type_symbol
_atom_site_fract_x
_atom_site_fract_y
_atom_site_fract_z
_atom_site_U_iso_or_equiv
_atom_site_adp_type
_atom_site_occupancy
_atom_site_site_symmetry_order
_atom_site_calc_flag
_atom_site_refinement_flags_posn
_atom_site_refinement_flags_adp
_atom_site_refinement_flags_occupancy
_atom_site_disorder_assembly
_atom_site_disorder_group
C1 C 0.9346(14) 0.3549(16) 0.4387(6) 0.044(3) Uani 1 1 d . . . . .
C2 C 1.0091(14) 0.3635(18) 0.5327(7) 0.047(3) Uani 1 1 d . . . . .
H2 H 1.1420 0.3813 0.5470 0.057 Uiso 1 1 calc R U . . .
C3 C 0.8787(13) 0.3447(16) 0.5991(7) 0.044(3) Uani 1 1 d . . . . .
H3 H 0.9227 0.3415 0.6614 0.053 Uiso 1 1 calc R U . . .
C4 C 0.6139(13) 0.3315(18) 0.4858(7) 0.045(3) Uani 1 1 d . . . . .
C5 C 0.5463(13) 0.3188(18) 0.6542(6) 0.044(3) Uani 1 1 d . . . . .
H5 H 0.4152 0.2929 0.6267 0.052 Uiso 1 1 calc R U . . .
C6 C 0.5331(16) 0.4977(18) 0.7194(9) 0.060(3) Uani 1 1 d . . . . .
H6 H 0.6118 0.6107 0.6969 0.072 Uiso 1 1 calc R U . . .
C7 C 0.6112(15) 0.4261(19) 0.8133(9) 0.058(3) Uani 1 1 d . . . . .
H7 H 0.5472 0.4920 0.8657 0.070 Uiso 1 1 calc R U . . .
C8 C 0.5674(18) 0.199(2) 0.8074(9) 0.059(3) Uani 1 1 d . . . . .
C9 C 0.688(2) 0.053(3) 0.8730(10) 0.095(6) Uani 1 1 d . . . . .
H9A H 0.7879 -0.0146 0.8377 0.114 Uiso 1 1 calc R U . . .
H9B H 0.7523 0.1291 0.9232 0.114 Uiso 1 1 calc R U . . .
C10 C 0.389(3) 0.005(3) 0.9119(11) 0.127(8) Uani 1 1 d . . . . .
H10A H 0.3771 0.0764 0.9707 0.153 Uiso 1 1 calc R U . . .
H10B H 0.2915 -0.1023 0.9093 0.153 Uiso 1 1 calc R U . . .
C11 C 0.3545(17) 0.145(2) 0.8329(8) 0.063(3) Uani 1 1 d . . . . .
H11 H 0.2880 0.2668 0.8550 0.076 Uiso 1 1 calc R U . . .
N1 N 1.0613(11) 0.3658(14) 0.3684(6) 0.056(3) Uani 1 1 d . . . . .
H1A H 1.0181 0.3655 0.3112 0.067 Uiso 1 1 calc R U . . .
H1B H 1.1854 0.3731 0.3808 0.067 Uiso 1 1 calc R U . . .
N2 N 0.7456(10) 0.3440(16) 0.4176(5) 0.046(2) Uani 1 1 d . . . . .
N3 N 0.6828(10) 0.3298(13) 0.5791(5) 0.039(2) Uani 1 1 d . . . . .
N4 N 0.8270(15) 0.448(2) 0.8184(8) 0.101(5) Uani 1 1 d . . . . .
N5 N 0.9009(17) 0.548(2) 0.8739(9) 0.079(3) Uani 1 1 d . . . . .
N6 N 0.986(2) 0.640(4) 0.9264(13) 0.167(8) Uani 1 1 d . . . . .
O1 O 0.3369(11) 0.5577(13) 0.7294(5) 0.079(3) Uani 1 1 d . . . . .
H1 H 0.2920 0.5990 0.6790 0.118 Uiso 1 1 calc R U . . .
O2 O 0.4367(9) 0.3216(15) 0.4690(5) 0.060(2) Uani 1 1 d . . . . .
O3 O 0.6022(9) 0.1471(13) 0.7126(5) 0.053(2) Uani 1 1 d . . . . .
O4 O 0.2442(11) 0.057(2) 0.7634(6) 0.121(5) Uani 1 1 d . . . . .
H4 H 0.2773 0.1015 0.7126 0.181 Uiso 1 1 calc R U . . .
O5 O 0.574(2) -0.077(2) 0.9070(13) 0.178(7) Uani 1 1 d . . . . .
loop_
_atom_site_aniso_label
_atom_site_aniso_U_11
_atom_site_aniso_U_22
_atom_site_aniso_U_33
_atom_site_aniso_U_23
_atom_site_aniso_U_13
_atom_site_aniso_U_12
C1 0.045(6) 0.043(6) 0.046(6) 0.000(7) 0.012(5) 0.002(6)
C2 0.028(5) 0.060(7) 0.054(6) 0.006(7) 0.001(5) -0.001(6)
C3 0.037(5) 0.054(6) 0.042(5) -0.014(7) 0.009(5) 0.009(6)
C4 0.035(6) 0.058(7) 0.043(6) -0.003(8) 0.006(5) 0.003(7)
C5 0.033(5) 0.065(7) 0.034(5) 0.012(7) 0.006(4) -0.003(6)
C6 0.066(8) 0.058(8) 0.056(8) -0.007(6) 0.009(6) 0.010(6)
C7 0.042(7) 0.084(9) 0.049(7) -0.015(7) 0.002(6) -0.007(6)
C8 0.062(8) 0.076(9) 0.041(7) -0.004(7) 0.000(6) 0.016(7)
C9 0.092(11) 0.141(16) 0.054(8) 0.016(11) 0.008(8) 0.046(12)
C10 0.114(14) 0.19(2) 0.081(11) 0.052(13) -0.018(11) -0.059(15)
C11 0.064(8) 0.070(8) 0.055(8) -0.011(8) 0.001(7) 0.005(7)
N1 0.040(5) 0.080(7) 0.048(5) 0.003(6) 0.008(4) 0.002(5)
N2 0.020(4) 0.073(6) 0.046(5) -0.003(6) 0.003(4) 0.000(5)
N3 0.027(4) 0.050(5) 0.041(5) -0.004(6) 0.002(3) -0.001(5)
N4 0.053(7) 0.165(13) 0.085(9) -0.055(9) -0.001(6) -0.016(7)
N5 0.062(8) 0.095(10) 0.080(9) 0.009(8) -0.005(7) 0.001(7)
N6 0.099(11) 0.206(19) 0.194(16) -0.071(17) -0.048(11) -0.025(14)
O1 0.078(5) 0.101(7) 0.059(5) 0.011(5) 0.018(4) 0.038(6)
O2 0.027(4) 0.099(6) 0.054(4) -0.010(6) 0.001(3) -0.003(4)
O3 0.050(4) 0.067(5) 0.042(4) -0.005(4) 0.004(3) 0.004(4)
O4 0.073(6) 0.216(14) 0.074(7) 0.008(8) 0.007(5) -0.050(8)
O5 0.143(13) 0.166(15) 0.223(16) 0.124(12) -0.047(12) -0.030(11)
loop_
_atom_type_symbol
_atom_type_description
_atom_type_scat_dispersion_real
_atom_type_scat_dispersion_imag
_atom_type_scat_source
C C 0.0033 0.0016 'International Tables Vol C Tables 4.2.6.8 and 6.1.1.4'
H H 0.0000 0.0000 'International Tables Vol C Tables 4.2.6.8 and 6.1.1.4'
N N 0.0061 0.0033 'International Tables Vol C Tables 4.2.6.8 and 6.1.1.4'
O O 0.0106 0.0060 'International Tables Vol C Tables 4.2.6.8 and 6.1.1.4'
loop_
_geom_angle_atom_site_label_1
_geom_angle_atom_site_label_2
_geom_angle_atom_site_label_3
_geom_angle
_geom_angle_site_symmetry_1
_geom_angle_site_symmetry_3
_geom_angle_publ_flag
N2 C1 N1 118.6(8) . . ?
N2 C1 C2 122.4(8) . . ?
N1 C1 C2 118.9(8) . . ?
C3 C2 C1 116.4(9) . . ?
C3 C2 H2 121.8 . . ?
C1 C2 H2 121.8 . . ?
C2 C3 N3 122.2(9) . . ?
C2 C3 H3 118.9 . . ?
N3 C3 H3 118.9 . . ?
O2 C4 N2 122.5(9) . . ?
O2 C4 N3 119.0(8) . . ?
N2 C4 N3 118.5(8) . . ?
N3 C5 O3 107.6(8) . . ?
N3 C5 C6 118.1(10) . . ?
O3 C5 C6 106.2(7) . . ?
N3 C5 H5 108.2 . . ?
O3 C5 H5 108.2 . . ?
C6 C5 H5 108.2 . . ?
O1 C6 C7 107.9(9) . . ?
O1 C6 C5 111.1(9) . . ?
C7 C6 C5 106.1(9) . . ?
O1 C6 H6 110.5 . . ?
C7 C6 H6 110.5 . . ?
C5 C6 H6 110.5 . . ?
N4 C7 C6 109.7(10) . . ?
N4 C7 C8 106.8(11) . . ?
C6 C7 C8 101.3(10) . . ?
N4 C7 H7 112.8 . . ?
C6 C7 H7 112.8 . . ?
C8 C7 H7 112.8 . . ?
O3 C8 C7 104.5(11) . . ?
O3 C8 C11 110.8(10) . . ?
C7 C8 C11 113.2(11) . . ?
O3 C8 C9 108.7(10) . . ?
C7 C8 C9 118.4(12) . . ?
C11 C8 C9 101.2(11) . . ?
O5 C9 C8 109.4(12) . . ?
O5 C9 H9A 109.8 . . ?
C8 C9 H9A 109.8 . . ?
O5 C9 H9B 109.8 . . ?
C8 C9 H9B 109.8 . . ?
H9A C9 H9B 108.2 . . ?
O5 C10 C11 109.4(14) . . ?
O5 C10 H10A 109.8 . . ?
C11 C10 H10A 109.8 . . ?
O5 C10 H10B 109.8 . . ?
C11 C10 H10B 109.8 . . ?
H10A C10 H10B 108.3 . . ?
O4 C11 C10 111.2(13) . . ?
O4 C11 C8 115.3(9) . . ?
C10 C11 C8 101.4(11) . . ?
O4 C11 H11 109.6 . . ?
C10 C11 H11 109.6 . . ?
C8 C11 H11 109.6 . . ?
C1 N1 H1A 120.0 . . ?
C1 N1 H1B 120.0 . . ?
H1A N1 H1B 120.0 . . ?
C1 N2 C4 120.5(8) . . ?
C3 N3 C4 119.8(7) . . ?
C3 N3 C5 120.0(7) . . ?
C4 N3 C5 120.2(7) . . ?
N5 N4 C7 120.5(12) . . ?
N6 N5 N4 174.7(17) . . ?
C6 O1 H1 109.5 . . ?
C8 O3 C5 107.9(8) . . ?
C11 O4 H4 109.5 . . ?
C9 O5 C10 109.2(15) . . ?
loop_
_geom_bond_atom_site_label_1
_geom_bond_atom_site_label_2
_geom_bond_distance
_geom_bond_site_symmetry_2
_geom_bond_publ_flag
C1 N2 1.316(11) . ?
C1 N1 1.348(11) . ?
C1 C2 1.421(12) . ?
C2 C3 1.326(12) . ?
C2 H2 0.9300 . ?
C3 N3 1.360(11) . ?
C3 H3 0.9300 . ?
C4 O2 1.226(9) . ?
C4 N2 1.349(10) . ?
C4 N3 1.398(10) . ?
C5 N3 1.445(10) . ?
C5 O3 1.452(12) . ?
C5 C6 1.509(15) . ?
C5 H5 0.9800 . ?
C6 O1 1.408(12) . ?
C6 C7 1.503(15) . ?
C6 H6 0.9800 . ?
C7 N4 1.478(14) . ?
C7 C8 1.532(16) . ?
C7 H7 0.9800 . ?
C8 O3 1.424(13) . ?
C8 C11 1.550(15) . ?
C8 C9 1.561(17) . ?
C9 O5 1.267(18) . ?
C9 H9A 0.9700 . ?
C9 H9B 0.9700 . ?
C10 O5 1.37(2) . ?
C10 C11 1.474(19) . ?
C10 H10A 0.9700 . ?
C10 H10B 0.9700 . ?
C11 O4 1.357(13) . ?
C11 H11 0.9800 . ?
N1 H1A 0.8600 . ?
N1 H1B 0.8600 . ?
N4 N5 1.140(15) . ?
N5 N6 1.115(16) . ?
O1 H1 0.8200 . ?
O4 H4 0.8200 . ?
