#------------------------------------------------------------------------------
#$Date: 2021-03-05 04:18:23 +0200 (Fri, 05 Mar 2021) $
#$Revision: 262687 $
#$URL: file:///home/coder/svn-repositories/cod/cif/7/06/03/7060312.cif $
#------------------------------------------------------------------------------
#
# This file is available in the Crystallography Open Database (COD),
# http://www.crystallography.net/
#
# All data on this site have been placed in the public domain by the
# contributors.
#
data_7060312
loop_
_publ_author_name
'Surov, Artem O.'
'Voronin, Alexander P.'
'Vasilev, Nikita A.'
'Ilyukhin, Andrey B.'
'Perlovich, German L.'
_publ_section_title
;
 Novel cocrystals of the potent 1,2,4-thiadiazole-based neuroprotector
 with carboxylic acids: virtual screening, crystal structures and
 solubility performance
;
_journal_issue                   6
_journal_name_full               'New Journal of Chemistry'
_journal_page_first              3034
_journal_page_last               3047
_journal_paper_doi               10.1039/D0NJ05644H
_journal_volume                  45
_journal_year                    2021
_chemical_formula_moiety         'C11 H13 N3 O S, 0.5(C4 H4 O4)'
_chemical_formula_sum            'C13 H15 N3 O3 S'
_chemical_formula_weight         293.34
_space_group_IT_number           2
_space_group_name_Hall           '-P 1'
_space_group_name_H-M_alt        'P -1'
_symmetry_cell_setting           triclinic
_symmetry_Int_Tables_number      2
_symmetry_space_group_name_Hall  '-P 1'
_symmetry_space_group_name_H-M   'P -1'
_atom_sites_solution_hydrogens   mixed
_audit_conform_dict_location     ftp://ftp.iucr.org/pub/cif_core.dic
_audit_conform_dict_name         cif_core.dic
_audit_conform_dict_version      2.4.3
_audit_creation_date             2020-08-01T10:24:57-00:00
_audit_creation_method           'WinGX routine CIF_UPDATE'
_audit_update_record
;
2021-01-14 deposited with the CCDC.	2021-01-19 downloaded from the CCDC.
;
_cell_angle_alpha                84.8780(10)
_cell_angle_beta                 85.1150(10)
_cell_angle_gamma                74.3440(10)
_cell_formula_units_Z            2
_cell_length_a                   5.75080(10)
_cell_length_b                   8.5166(2)
_cell_length_c                   14.7464(3)
_cell_measurement_reflns_used    7881
_cell_measurement_temperature    296(2)
_cell_measurement_theta_max      78.19
_cell_measurement_theta_min      3.01
_cell_volume                     691.26(2)
_computing_cell_refinement       'Bruker SAINT'
_computing_data_collection       'Bruker APEX3'
_computing_data_reduction        'Bruker SAINT'
_computing_molecular_graphics    'Bruker SHELXTL'
_computing_publication_material  'Bruker SHELXTL'
_computing_structure_refinement  'SHELXL-2018/3 (Sheldrick, 2018)'
_computing_structure_solution    'SHELXS-2018 (Sheldrick, 2015)'
_diffrn_ambient_temperature      296(2)
_diffrn_measured_fraction_theta_full 0.979
_diffrn_measured_fraction_theta_max 0.948
_diffrn_measurement_device_type
'Bruker AXS D8 VENTURE PHOTON III C14 IuS 3.0'
_diffrn_measurement_method       '\w scans'
_diffrn_radiation_monochromator  graphite
_diffrn_radiation_type           CuK\a
_diffrn_radiation_wavelength     1.54178
_diffrn_reflns_av_R_equivalents  0.0286
_diffrn_reflns_av_unetI/netI     0.0259
_diffrn_reflns_Laue_measured_fraction_full 0.979
_diffrn_reflns_Laue_measured_fraction_max 0.948
_diffrn_reflns_limit_h_max       7
_diffrn_reflns_limit_h_min       -7
_diffrn_reflns_limit_k_max       10
_diffrn_reflns_limit_k_min       -10
_diffrn_reflns_limit_l_max       18
_diffrn_reflns_limit_l_min       -18
_diffrn_reflns_number            10893
_diffrn_reflns_point_group_measured_fraction_full 0.979
_diffrn_reflns_point_group_measured_fraction_max 0.948
_diffrn_reflns_theta_full        67.679
_diffrn_reflns_theta_max         78.882
_diffrn_reflns_theta_min         8.41
_diffrn_standards_number         0
_exptl_absorpt_coefficient_mu    2.193
_exptl_absorpt_correction_T_max  0.7542
_exptl_absorpt_correction_T_min  0.4964
_exptl_absorpt_correction_type   multi-scan
_exptl_absorpt_process_details
;
 SADABS 2016/2: Krause, L., Herbst-Irmer, R., Sheldrick G.M. & Stalke D.,
 J. Appl. Cryst. 48 (2015) 3-10
;
_exptl_crystal_colour            colourless
_exptl_crystal_density_diffrn    1.409
_exptl_crystal_description       plate
_exptl_crystal_F_000             308
_exptl_crystal_size_max          0.3
_exptl_crystal_size_mid          0.2
_exptl_crystal_size_min          0.08
_refine_diff_density_max         0.194
_refine_diff_density_min         -0.368
_refine_diff_density_rms         0.034
_refine_ls_extinction_method     none
_refine_ls_goodness_of_fit_ref   0.984
_refine_ls_hydrogen_treatment    constr
_refine_ls_matrix_type           full
_refine_ls_number_parameters     210
_refine_ls_number_reflns         2831
_refine_ls_number_restraints     0
_refine_ls_restrained_S_all      0.984
_refine_ls_R_factor_all          0.0397
_refine_ls_R_factor_gt           0.0374
_refine_ls_shift/su_max          0
_refine_ls_shift/su_mean         0
_refine_ls_structure_factor_coef Fsqd
_refine_ls_weighting_details
'w=1/[\s^2^(Fo^2^)+(0.0600P)^2^+0.2000P] where P=(Fo^2^+2Fc^2^)/3'
_refine_ls_weighting_scheme      calc
_refine_ls_wR_factor_gt          0.1035
_refine_ls_wR_factor_ref         0.1058
_reflns_Friedel_coverage         0
_reflns_number_gt                2643
_reflns_number_total             2831
_reflns_threshold_expression     'I > 2\s(I)'
_cod_data_source_file            d0nj05644h2.cif
_cod_data_source_block           TDZH_FumAc
_cod_depositor_comments
'Adding full bibliography for 7060311--7060315.cif.'
_cod_database_code               7060312
_shelx_res_file
;
TITL 1_a.res in P-1
    shelx.res
    created by SHELXL-2018/3 at 10:24:50 on 01-Aug-2020
REM Old TITL 1 in P-1
 
REM SHELXT solution in P-1
REM R1 0.216,  Rweak 0.011,  Alpha 0.062,  Orientation as input
REM Formula found by SHELXT:  C16 N2 O2 S
 
CELL  1.54178   5.7508   8.5166  14.7464   84.878   85.115   74.344
ZERR    2.000   0.0001   0.0002   0.0003    0.001    0.001    0.001
LATT  1
 
SFAC C H N O S
UNIT 26 30 6 6 2
TEMP 23
SHEL 10 .1
L.S. 8
htab
 
HTAB N3 O22
EQIV $1 -x+1, -y, -z
EQIV $2  x-1,  y,  z
HTAB O1 O1_$1
HTAB C5 O1_$1
HTAB O1B N1_$2
HTAB C11 S1
HTAB O21 N2
 
conf
BOND $H
ACTA
 
WGHT    0.060000    0.200000
FVAR       0.56727
S1    5    0.969491    0.580036    0.138855    11.00000    0.05609    0.05442 =
         0.05018   -0.02169    0.01795   -0.03185
N1    3    0.882249    0.421220    0.108542    11.00000    0.06256    0.05498 =
         0.05003   -0.02394    0.01732   -0.03205
N2    3    0.641923    0.494444    0.239172    11.00000    0.04491    0.03853 =
         0.03787   -0.01089    0.00595   -0.01881
N3    3    0.732570    0.714660    0.296397    11.00000    0.04861    0.04213 =
         0.04389   -0.01533    0.01126   -0.02414
AFIX  43
H3B   2    0.618490    0.710325    0.337443    11.00000   -1.20000
AFIX   0
C1    1    0.712659    0.395505    0.168352    11.00000    0.04697    0.03812 =
         0.03821   -0.01046    0.00273   -0.01751
C2    1    0.769928    0.603961    0.233757    11.00000    0.03861    0.03414 =
         0.03783   -0.00626    0.00065   -0.01332
C3    1    0.593774    0.260256    0.162707    11.00000    0.06975    0.05131 =
         0.04191   -0.01577    0.01034   -0.03543
AFIX  23
part 1
H3A   2    0.420444    0.307337    0.161403    10.55000   -1.20000
H3C   2    0.622743    0.187842    0.217564    10.55000   -1.20000
part 2
AFIX  23
H3D   2    0.443455    0.282354    0.200414    10.45000   -1.20000
H3E   2    0.698465    0.158317    0.186720    10.45000   -1.20000
part 0
AFIX   0
PART   1
O1    4    0.618723    0.007193    0.099517    10.55000    0.08370    0.04555 =
         0.05901   -0.02054    0.00394   -0.03288
AFIX   3
H1    2    0.636623   -0.045817    0.044667    10.55000   -1.20000
AFIX   0
C4    1    0.681423    0.157877    0.078980    10.55000    0.04402    0.03967 =
         0.04321   -0.01547    0.00626   -0.01734
AFIX  13
H4A   2    0.857122    0.137577    0.067814    10.55000   -1.20000
AFIX   0
C5    1    0.555126    0.251961   -0.002553    10.55000    0.10785    0.07410 =
         0.04189   -0.00297   -0.01289   -0.04112
AFIX 137
H5A   2    0.600419    0.352709   -0.014792    10.55000   -1.50000
H5B   2    0.383131    0.275050    0.009998    10.55000   -1.50000
H5C   2    0.601491    0.187969   -0.054729    10.55000   -1.50000
AFIX   0
PART   2
O1B   4    0.345482    0.164889    0.060385    10.45000    0.04907    0.05434 =
         0.06321   -0.02650    0.00507   -0.02367
AFIX   3
H1B   2    0.219952    0.217359    0.071505    10.45000   -1.20000
AFIX   0
C4B   1    0.538656    0.240739    0.061310    10.45000    0.05766    0.04341 =
         0.04791   -0.01013   -0.00125   -0.02756
AFIX  13
H4BA  2    0.503600    0.346265    0.025676    10.45000   -1.20000
AFIX   0
C5B   1    0.762022    0.124751    0.022599    10.45000    0.06292    0.09459 =
         0.07261   -0.03931    0.01965   -0.04103
AFIX 137
H5BA  2    0.899906    0.165181    0.028902    10.45000   -1.50000
H5BB  2    0.745858    0.115362   -0.040813    10.45000   -1.50000
H5BC  2    0.783490    0.019354    0.054891    10.45000   -1.50000
AFIX   0
PART   0
C6    1    0.850457    0.836651    0.305545    11.00000    0.04467    0.03390 =
         0.04011   -0.00621   -0.00117   -0.01604
C7    1    0.760349    0.938401    0.376330    11.00000    0.05907    0.04860 =
         0.04850   -0.01691    0.00927   -0.02524
AFIX  43
H7A   2    0.628615    0.923980    0.414067    11.00000   -1.20000
AFIX   0
C8    1    0.866540    1.060892    0.390581    11.00000    0.07731    0.05554 =
         0.06224   -0.02733    0.00789   -0.03209
AFIX  43
H8A   2    0.805923    1.128494    0.438042    11.00000   -1.20000
AFIX   0
C9    1    1.062080    1.083691    0.334856    11.00000    0.07000    0.05262 =
         0.07237   -0.01779    0.00051   -0.03552
AFIX  43
H9A   2    1.132985    1.166307    0.344605    11.00000   -1.20000
AFIX   0
C10   1    1.151002    0.983112    0.264814    11.00000    0.05325    0.04997 =
         0.06247   -0.00743    0.00413   -0.02732
AFIX  43
H10A  2    1.282712    0.998071    0.227243    11.00000   -1.20000
AFIX   0
C11   1    1.046426    0.859743    0.249640    11.00000    0.05146    0.04344 =
         0.04811   -0.01162    0.00619   -0.02189
AFIX  43
H11A  2    1.107659    0.792590    0.202029    11.00000   -1.20000
AFIX   0
O21   4    0.289357    0.464112    0.363997    11.00000    0.06036    0.06119 =
         0.04764   -0.02220    0.01926   -0.03612
AFIX   3
H21   2    0.408547    0.474062    0.322127    11.00000   -1.20000
AFIX   0
O22   4    0.384234    0.658086    0.434587    11.00000    0.05466    0.05184 =
         0.04623   -0.01230    0.01013   -0.02959
C21   1    0.264126    0.561640    0.430183    11.00000    0.04419    0.04164 =
         0.03817   -0.00681    0.00362   -0.01748
C22   1    0.072768    0.546657    0.501613    11.00000    0.04957    0.04868 =
         0.03848   -0.01246    0.00858   -0.02182
AFIX  43
H22A  2    0.054952    0.607769    0.552179    11.00000   -1.20000
 
AFIX   0
HKLF 4
 
 
 
 
REM  1_a.res in P-1
REM wR2 = 0.1058, GooF = S = 0.984, Restrained GooF = 0.984 for all data
REM R1 = 0.0374 for 2643 Fo > 4sig(Fo) and 0.0397 for all 2831 data
REM 210 parameters refined using 0 restraints
 
END
 
WGHT      0.0518      0.1814
 
REM Instructions for potential hydrogen bonds
HTAB N3 O22
HTAB C3 S1_$2
HTAB O1 O1_$1
HTAB C5 O1_$1
HTAB O1B N1_$2
HTAB C5B N1
EQIV $4 x+1, y, z
HTAB C5B O1B_$4
HTAB C11 S1
HTAB O21 N2
 
REM Highest difference peak  0.194,  deepest hole -0.368,  1-sigma level  0.034
Q1    1   0.9957  0.5160  0.1875  11.00000  0.05    0.19
Q2    1   0.8448  0.6114  0.1952  11.00000  0.05    0.19
Q3    1   0.6483  0.3312  0.1607  11.00000  0.05    0.17
Q4    1   0.8205  0.6279  0.1335  11.00000  0.05    0.16
Q5    1   0.8081  0.7661  0.3014  11.00000  0.05    0.16
Q6    1   1.0030  1.0396  0.3728  11.00000  0.05    0.15
Q7    1   0.1484  0.5506  0.4631  11.00000  0.05    0.15
Q8    1   0.9646  0.8388  0.2871  11.00000  0.05    0.15
Q9    1   0.5396  0.4996  0.2747  11.00000  0.05    0.14
Q10   1   1.0891  0.9278  0.2628  11.00000  0.05    0.14
Q11   1   0.5939  0.2348  0.1166  11.00000  0.05    0.13
Q12   1   0.8853  0.2122  0.0026  11.00000  0.05    0.13
Q13   1   0.6145  0.4714  0.2054  11.00000  0.05    0.13
Q14   1   0.3907  0.3198  0.1925  11.00000  0.05    0.13
Q15   1   0.7294  0.5348  0.2403  11.00000  0.05    0.13
Q16   1   0.8790  0.3735  0.1419  11.00000  0.05    0.13
Q17   1  -0.0625  0.5661  0.4773  11.00000  0.05    0.12
Q18   1   0.6515  0.5650  0.2182  11.00000  0.05    0.12
Q19   1   0.9289  1.0886  0.3416  11.00000  0.05    0.12
Q20   1   0.8356  0.9822  0.3885  11.00000  0.05    0.12
;
_shelx_res_checksum              66180
_shelx_hkl_file
;
  -2   0   0   64.98    2.67
  -2   0   0   66.04    2.66
   2   0   0   65.70    2.68
  -3   0   0  187.07    7.52
  -3   0   0  186.07    7.50
  -3   0   0  188.02    7.51
   3   0   0  183.17    7.53
  -4   0   0    0.62    0.10
  -4   0   0    0.45    0.12
  -4   0   0    0.55    0.09
   4   0   0    0.97    0.16
   4   0   0    0.78    0.13
  -5   0   0    0.32    0.15
  -5   0   0    0.15    0.18
  -5   0   0    0.09    0.08
  -5   0   0    0.01    0.13
   5   0   0    0.46    0.17
  -6   0   0    0.87    0.18
  -6   0   0    1.03    0.21
  -6   0   0    0.88    0.16
  -7   0   0    0.35    0.08
   7   0   0    0.34    0.09
  -6   1   0    2.48    0.27
  -6   1   0    3.09    0.25
  -6   1   0    2.41    0.29
  -5   1   0    1.17    0.44
  -5   1   0    1.07    0.14
   4  -1   0   14.62    0.74
   4  -1   0   13.64    0.70
  -4   1   0   13.34    0.68
  -4   1   0   15.06    0.66
   3  -1   0  350.39   14.28
  -3   1   0  336.30   14.27
  -3   1   0  367.33   14.25
  -3   1   0  356.51   14.27
  -3   1   0  363.36   14.25
   2  -1   0   36.94    1.59
   2  -1   0   37.52    1.63
  -2   1   0   39.72    1.62
  -2   1   0   42.06    1.60
  -2   1   0   39.48    1.63
  -2   1   0   40.36    1.62
  -1   1   0    4.54    0.21
  -1   1   0    4.77    0.22
  -1  -1   0   17.08    0.70
  -1  -1   0   16.22    0.68
  -2  -1   0  115.60    4.75
  -2  -1   0  120.09    4.75
  -2  -1   0  119.16    4.75
   2   1   0  116.46    4.76
   2   1   0  117.45    4.72
  -3  -1   0   30.38    1.29
  -3  -1   0   30.75    1.29
  -4  -1   0   64.89    2.67
  -4  -1   0   65.38    2.69
   4   1   0   61.12    2.70
   4   1   0   66.54    2.70
  -5  -1   0    1.12    0.24
  -5  -1   0    1.43    0.26
  -5  -1   0    1.05    0.14
  -5  -1   0    1.26    0.27
   5   1   0    1.10    0.18
  -6  -1   0    0.20    0.13
  -6  -1   0   -0.06    0.17
  -7  -1   0    0.48    0.11
  -7  -1   0    0.56    0.09
   7   1   0    0.39    0.11
  -6   2   0    2.46    0.24
  -6   2   0    2.38    0.24
  -6   2   0    2.29    0.24
  -5   2   0   11.43    0.72
  -5   2   0   10.03    0.52
  -5   2   0   10.73    0.68
  -5   2   0   10.47    0.60
   4  -2   0    0.81    0.20
  -4   2   0    0.59    0.10
  -4   2   0    0.55    0.20
  -4   2   0    0.36    0.14
  -4   2   0    0.63    0.25
  -4   2   0    0.61    0.22
   3  -2   0   33.70    1.46
  -3   2   0   35.56    1.44
  -3   2   0   34.11    1.45
  -3   2   0   32.42    1.47
   2  -2   0   48.73    1.99
  -2   2   0   48.16    1.98
  -2   2   0   48.02    1.98
  -2   2   0   47.45    1.97
  -2   2   0   47.47    1.96
   1   2   0  311.85   12.47
  -2  -2   0    0.71    0.06
  -2  -2   0    0.76    0.08
  -2  -2   0    0.78    0.08
   2   2   0    0.73    0.05
   2   2   0    0.75    0.07
  -3  -2   0    3.00    0.19
  -3  -2   0    3.22    0.20
  -3  -2   0    2.84    0.18
   3   2   0    3.39    0.22
   3   2   0    3.21    0.19
   3   2   0    3.10    0.16
  -4  -2   0   14.35    0.80
  -4  -2   0   13.73    0.66
   4   2   0   14.97    0.69
   4   2   0   13.96    0.73
  -5  -2   0   15.70    0.89
  -5  -2   0   15.17    0.81
  -5  -2   0   15.71    0.94
  -5  -2   0   14.70    0.72
  -5  -2   0   15.49    0.85
   5   2   0   15.85    0.77
  -6  -2   0    9.44    0.57
  -6  -2   0    9.61    0.65
  -6  -2   0    9.68    0.61
  -7  -2   0    4.85    0.32
  -7  -2   0    4.23    0.29
   7   2   0    3.49    0.29
  -6   3   0    1.01    0.13
  -6   3   0    0.95    0.13
  -5   3   0   11.03    0.68
  -5   3   0   10.87    0.59
  -5   3   0   11.58    0.68
   4  -3   0    0.00    0.19
  -4   3   0    0.25    0.15
  -4   3   0    0.08    0.09
  -4   3   0    0.39    0.26
  -4   3   0    0.42    0.19
  -4   3   0    0.30    0.20
  -4   3   0    0.30    0.18
   3  -3   0    0.77    0.13
  -3   3   0    1.08    0.13
  -3   3   0    1.21    0.24
  -3   3   0    0.87    0.15
   2  -3   0   12.53    0.58
  -2   3   0   13.44    0.57
  -2   3   0   13.05    0.58
  -2   3   0   12.52    0.56
  -2   3   0   11.42    0.68
  -2   3   0   12.90    0.58
   1  -3   0  100.79    4.26
  -1   3   0  105.26    4.26
  -1   3   0  104.58    4.26
  -1   3   0  108.59    4.28
  -1   3   0  108.67    4.25
   0  -3   0   32.55    1.35
   0   3   0   33.60    1.38
   0   3   0   33.90    1.36
  -1  -3   0   11.76    0.53
   1   3   0   12.05    0.51
   1   3   0   12.19    0.52
  -2  -3   0   25.90    1.11
  -2  -3   0   25.30    1.08
   2   3   0   26.39    1.06
   2   3   0   25.71    1.07
  -3  -3   0   96.90    4.03
  -3  -3   0   98.89    4.01
   3   3   0   98.45    3.97
   3   3   0   95.65    4.04
   3   3   0  101.98    3.99
  -4  -3   0    0.65    0.15
  -4  -3   0    0.78    0.11
   4   3   0    1.08    0.14
   4   3   0    0.86    0.13
  -5  -3   0    6.40    0.52
  -5  -3   0    5.33    0.46
  -5  -3   0    5.33    0.33
   5   3   0    6.07    0.43
   5   3   0    5.14    0.36
  -6  -3   0   43.70    2.09
  -7  -3   0    3.13    0.22
   7   3   0    2.98    0.25
  -5   4   0    1.25    0.21
  -5   4   0    1.29    0.21
   4  -4   0    0.26    0.25
  -4   4   0    0.32    0.16
  -4   4   0    0.31    0.20
  -4   4   0    0.25    0.10
  -4   4   0    0.27    0.18
  -4   4   0    0.08    0.18
   3  -4   0   17.70    0.83
  -3   4   0   18.84    0.81
  -3   4   0   15.91    1.00
  -3   4   0   16.30    0.83
  -3   4   0   16.80    0.83
   2  -4   0    1.14    0.14
  -2   4   0    1.27    0.14
  -2   4   0    1.18    0.14
  -2   4   0    1.26    0.14
  -2   4   0    1.52    0.19
   1  -4   0   89.21    3.77
  -1   4   0  102.23    3.81
  -1   4   0   92.81    3.77
  -1   4   0   89.52    3.80
  -1   4   0   92.47    3.81
   0   4   0    4.19    0.21
   0   4   0    4.22    0.25
   0   4   0    4.32    0.23
  -1  -4   0  294.10   12.16
  -1  -4   0  304.42   12.20
   1   4   0  303.52   12.16
   1   4   0  310.64   12.18
  -2  -4   0   20.81    0.94
  -2  -4   0   19.47    0.84
   2   4   0   18.76    0.86
  -3  -4   0   13.67    0.67
  -3  -4   0   13.77    0.63
   3   4   0   13.92    0.60
   3   4   0   13.52    0.65
  -4  -4   0   33.55    1.49
  -4  -4   0   33.87    1.45
   4   4   0   34.34    1.48
  -5  -4   0   13.63    0.65
  -5  -4   0   13.90    0.84
  -5  -4   0   13.26    0.77
  -5  -4   0   13.52    0.78
   5   4   0   13.36    0.72
   5   4   0   13.87    0.68
  -6  -4   0    7.65    0.56
  -6  -4   0    8.67    0.51
   6   4   0    9.72    0.57
  -7  -4   0    8.44    0.42
  -7  -4   0    8.39    0.44
   7   4   0    7.83    0.44
  -4   5   0    8.01    0.56
  -4   5   0    9.95    0.57
  -3   5   0    3.08    0.41
  -3   5   0    3.63    0.33
  -3   5   0    3.35    0.25
  -3   5   0    2.50    0.40
  -3   5   0    3.42    0.36
  -2   5   0    2.55    0.25
  -2   5   0    2.77    0.22
  -2   5   0    2.73    0.22
   1  -5   0   39.04    1.64
  -1   5   0   38.43    1.63
  -1   5   0   39.57    1.64
  -1   5   0   39.68    1.69
   0  -5   0   41.41    1.67
   0   5   0   39.31    1.66
   0   5   0   39.05    1.69
   0   5   0   40.31    1.68
  -1  -5   0   64.94    2.60
  -1  -5   0   60.77    2.64
   1   5   0   63.86    2.61
   1   5   0   62.61    2.59
   1   5   0   64.54    2.62
  -2  -5   0   84.63    3.48
  -2  -5   0   82.32    3.53
   2   5   0   85.30    3.50
   2   5   0   88.86    3.47
  -3  -5   0   11.65    0.73
  -3  -5   0   13.30    0.63
   3   5   0   13.30    0.64
   3   5   0   14.27    0.60
  -4  -5   0   25.30    1.24
  -4  -5   0   25.57    1.17
  -4  -5   0   28.14    1.34
   4   5   0   27.59    1.49
   4   5   0   27.99    1.36
   4   5   0   26.21    1.26
  -5  -5   0   15.87    0.86
  -5  -5   0   15.22    0.88
  -5  -5   0   14.59    0.82
   5   5   0   15.40    0.86
   5   5   0   14.69    0.78
   5   5   0   16.57    0.76
  -6  -5   0    2.96    0.28
  -6  -5   0    3.05    0.31
   6   5   0    2.72    0.30
  -4   6   0    9.55    0.52
  -3   6   0    0.14    0.24
  -3   6   0    0.11    0.16
  -3   6   0   -0.14    0.17
   2  -6   0    1.35    0.21
  -2   6   0    0.99    0.19
  -2   6   0    1.04    0.22
  -2   6   0    0.44    0.30
  -2   6   0    1.09    0.18
  -2   6   0    1.35    0.33
  -2   6   0    1.05    0.18
   1  -6   0   60.05    2.51
  -1   6   0   57.65    2.46
  -1   6   0   59.43    2.48
  -1   6   0   57.82    2.44
   0  -6   0   29.31    1.33
   0   6   0   28.91    1.27
   0   6   0   30.49    1.30
   0   6   0   28.98    1.25
  -1  -6   0   60.92    2.63
   1   6   0   59.33    2.55
   1   6   0   61.60    2.60
   1   6   0   66.53    2.59
   2   6   0   83.93    3.39
   2   6   0   81.93    3.42
  -3  -6   0    1.97    0.25
   3   6   0    1.93    0.15
   3   6   0    1.74    0.18
  -4  -6   0   87.67    3.87
  -4  -6   0   93.21    3.94
   4   6   0   97.31    3.96
   4   6   0   84.81    3.84
   4   6   0   93.85    3.96
   4   6   0   92.40    3.79
  -5  -6   0    5.16    0.46
   5   6   0    5.45    0.46
   5   6   0    5.89    0.35
   5   6   0    5.75    0.38
  -6  -6   0    0.06    0.15
   6   6   0   -0.23    0.16
   6   6   0    0.44    0.16
  -3   7   0    0.18    0.12
  -2   7   0    0.32    0.14
  -2   7   0    0.08    0.13
  -2   7   0    0.34    0.19
  -2   7   0    0.25    0.14
  -1   7   0   26.63    1.51
  -1   7   0   25.31    1.21
  -1   7   0   23.67    1.20
  -1   7   0   26.29    1.32
  -1   7   0   24.32    1.15
  -1   7   0   27.26    1.23
   0  -7   0   63.15    2.75
   0   7   0   63.13    2.77
   0   7   0   70.42    2.77
   0   7   0   58.78    3.05
   0   7   0   62.97    2.67
   0   7   0   63.49    2.66
   0   7   0   62.52    3.11
   0   7   0   67.31    2.71
  -1  -7   0   42.72    1.92
   1   7   0   42.98    1.93
   1   7   0   41.21    1.98
   1   7   0   46.08    2.30
   1   7   0   41.60    1.82
   1   7   0   45.31    1.93
   1   7   0   42.56    1.86
   1   7   0   43.24    1.84
  -2  -7   0   28.25    1.35
   2   7   0   28.56    1.25
   2   7   0   29.20    1.35
   2   7   0   30.03    1.28
   2   7   0   28.67    1.36
   2   7   0   27.20    1.42
   2   7   0   30.27    1.67
  -3  -7   0   36.61    1.73
  -3  -7   0   37.20    1.76
   3   7   0   36.93    1.59
   3   7   0   36.97    1.78
   3   7   0   38.46    1.69
   3   7   0   37.21    1.70
   3   7   0   38.13    1.62
  -4  -7   0   35.73    1.74
   4   7   0   37.58    1.77
   4   7   0   37.14    1.61
   4   7   0   38.65    1.73
   4   7   0   36.82    1.67
  -5  -7   0    0.62    0.18
   5   7   0    0.86    0.21
   5   7   0    0.59    0.12
   5   7   0    0.73    0.14
  -6  -7   0   18.41    0.83
  -2   8   0   -0.01    0.13
  -2   8   0    0.22    0.12
  -2   8   0    0.01    0.10
  -1   8   0    6.24    0.52
  -1   8   0    7.45    0.47
  -1   8   0    6.49    0.60
  -1   8   0    7.40    0.49
   0   8   0    3.34    0.28
   0   8   0    3.21    0.26
   0   8   0    3.05    0.43
   0   8   0    3.21    0.42
   0   8   0    2.66    0.29
  -1  -8   0   47.44    2.23
   1   8   0   54.20    2.33
   1   8   0   52.18    2.36
   1   8   0   48.95    2.13
  -2  -8   0    0.46    0.24
   2   8   0    0.51    0.25
   2   8   0    0.38    0.17
   2   8   0    0.49    0.11
   2   8   0    0.52    0.19
   2   8   0    0.25    0.19
  -3  -8   0    4.58    0.41
   3   8   0    4.61    0.30
   3   8   0    4.86    0.57
   3   8   0    4.39    0.34
   3   8   0    4.11    0.37
   3   8   0    4.21    0.40
  -4  -8   0    5.49    0.45
   4   8   0    5.63    0.48
   4   8   0    4.98    0.42
  -5  -8   0    0.08    0.19
   5   8   0   -0.03    0.08
  -1   9   0    0.94    0.14
  -1   9   0    0.99    0.21
  -1   9   0    1.01    0.14
   0   9   0    4.58    0.47
   0   9   0    5.00    0.32
   0   9   0    4.90    0.34
   0   9   0    5.06    0.34
  -1  -9   0    6.23    0.43
   1   9   0    5.61    0.43
   1   9   0    6.68    0.39
   1   9   0    5.80    0.56
   1   9   0    6.07    0.35
   1   9   0    6.45    0.41
  -2  -9   0   15.21    0.81
   2   9   0   16.52    0.79
   2   9   0   15.94    0.77
   2   9   0   13.73    0.96
   2   9   0   15.48    0.73
   2   9   0   15.68    0.82
  -3  -9   0   25.59    1.25
   3   9   0   26.10    1.19
   3   9   0   28.84    1.48
   3   9   0   25.93    1.20
   3   9   0   26.90    1.27
   3   9   0   25.41    1.15
  -4  -9   0    1.88    0.23
   4   9   0    2.08    0.20
  -5  -9   0   20.42    0.91
   5   9   0   19.76    0.89
   0  10   0    0.18    0.09
   0  10   0    0.18    0.07
   0  10   0    0.12    0.12
   1  10   0    9.50    0.47
   1  10   0    8.86    0.46
   1  10   0    9.07    0.60
  -2 -10   0    0.13    0.11
   2  10   0    0.06    0.11
   2  10   0    0.18    0.10
   2  10   0    0.09    0.07
   2  10   0   -0.04    0.07
   3  10   0    0.71    0.10
  -4 -10   0    0.00    0.08
   4  10   0    0.02    0.05
   4  10  -1   16.67    0.74
  -4 -10   1   16.40    0.74
   3  10  -1    0.22    0.07
   3  10  -1    0.19    0.09
  -3 -10   1    0.10    0.09
   2  10  -1    1.06    0.20
   2  10  -1    1.14    0.14
   2  10  -1    1.37    0.19
   2  10  -1    1.09    0.13
  -2 -10   1    1.44    0.20
   1  10  -1    8.90    0.44
   1  10  -1    7.69    0.43
   1  10  -1    8.71    0.59
   1  10  -1    9.10    0.57
  -1 -10   1    8.60    0.49
   0  10  -1    0.08    0.07
   0  10  -1    0.07    0.07
   0  10  -1    0.01    0.08
   5   9  -1   12.37    0.57
  -5  -9   1   13.14    0.61
   4   9  -1   11.96    0.83
   4   9  -1   12.62    0.62
  -4  -9   1   12.74    0.81
   3   9  -1    1.01    0.19
   3   9  -1    1.17    0.14
   3   9  -1    0.85    0.26
   3   9  -1    1.14    0.16
  -3  -9   1    0.92    0.20
   2   9  -1    0.22    0.13
   2   9  -1    0.33    0.09
   2   9  -1    0.14    0.09
   2   9  -1    0.29    0.18
   2   9  -1    0.27    0.12
  -2  -9   1    0.21    0.14
   1   9  -1   32.94    1.44
   1   9  -1   36.08    1.50
   1   9  -1   31.56    1.74
   1   9  -1   33.69    1.54
   1   9  -1   33.78    1.51
   0   9  -1    0.26    0.10
   0   9  -1    0.22    0.17
   0   9  -1    0.19    0.12
   0   9  -1    0.16    0.10
   0   9  -1    0.19    0.14
  -1   9  -1   12.24    0.75
  -1   9  -1   12.51    0.61
  -1   9  -1   13.64    0.62
   5   8  -1    6.85    0.37
  -5  -8   1    5.75    0.42
   4   8  -1   21.12    0.96
   4   8  -1   19.74    0.90
   4   8  -1   20.45    1.07
  -4  -8   1   18.24    1.03
   3   8  -1    0.42    0.14
   3   8  -1    0.67    0.13
   3   8  -1    0.83    0.16
   3   8  -1    0.80    0.18
   3   8  -1    0.52    0.27
  -3  -8   1    0.45    0.17
   2   8  -1    1.73    0.19
   2   8  -1    1.81    0.37
   2   8  -1    1.44    0.25
   2   8  -1    1.78    0.21
   2   8  -1    1.71    0.23
   1   8  -1   36.67    1.97
   1   8  -1   35.39    1.55
   1   8  -1   34.82    1.68
   1   8  -1   34.94    1.64
   1   8  -1   37.12    1.62
   0   8  -1    3.21    0.44
   0   8  -1    3.47    0.27
   0   8  -1    3.42    0.40
   0   8  -1    3.32    0.31
   0   8  -1    3.11    0.28
  -1   8  -1   21.40    0.99
  -1   8  -1   21.94    1.03
  -1   8  -1   20.25    1.29
  -2   8  -1    9.73    0.47
  -2   8  -1    8.60    0.59
  -2   8  -1    9.12    0.47
   6   7  -1    0.18    0.13
   5   7  -1    0.35    0.12
   5   7  -1    0.36    0.11
  -5  -7   1    0.40    0.16
   4   7  -1    0.07    0.15
   4   7  -1    0.42    0.14
   4   7  -1   -0.08    0.09
  -4  -7   1    0.27    0.17
   3   7  -1    1.45    0.18
   3   7  -1    0.84    0.17
   3   7  -1    1.34    0.25
   3   7  -1    1.23    0.15
  -3  -7   1    1.49    0.27
   2   7  -1    8.42    0.43
   2   7  -1    8.37    0.79
   2   7  -1    8.86    0.69
   2   7  -1    8.11    0.73
   2   7  -1    8.69    0.46
   2   7  -1    8.87    0.54
  -2  -7   1    7.89    0.53
   1   7  -1    0.08    0.13
   1   7  -1    0.42    0.09
   1   7  -1    0.31    0.10
   1   7  -1    0.14    0.18
   1   7  -1    0.16    0.22
   1   7  -1    0.08    0.14
  -1  -7   1   -0.06    0.11
   0   7  -1   25.47    1.16
   0   7  -1   24.25    1.27
   0   7  -1   24.36    1.22
   0   7  -1   25.90    1.54
   0   7  -1   25.01    1.13
   0   7  -1   25.50    1.13
   0   7  -1   27.82    1.22
   0  -7   1   25.86    1.21
  -1   7  -1   11.09    0.64
  -1   7  -1    9.95    0.58
  -1   7  -1   12.23    0.61
  -1   7  -1   11.98    0.88
  -1   7  -1   12.10    0.65
  -1   7  -1   11.57    0.60
   1  -7   1   11.62    0.67
  -2   7  -1    2.46    0.39
  -2   7  -1    2.16    0.28
  -2   7  -1    2.41    0.28
  -2   7  -1    2.24    0.30
   6   6  -1    1.86    0.18
   6   6  -1    1.32    0.21
   5   6  -1    8.36    0.56
   5   6  -1    7.90    0.44
   5   6  -1    7.95    0.48
  -5  -6   1    7.93    0.57
   4   6  -1   12.42    0.70
   4   6  -1   13.91    0.82
   4   6  -1   13.36    0.65
   4   6  -1   13.80    0.83
  -4  -6   1   11.07    0.76
  -4  -6   1   13.10    0.80
   3   6  -1    8.67    0.42
  -3  -6   1    8.32    0.53
   2   6  -1    0.00    0.05
   2   6  -1    0.11    0.07
  -2  -6   1    0.18    0.11
   1   6  -1   14.23    0.66
   1   6  -1   15.20    0.70
   1   6  -1   14.77    0.69
  -1  -6   1   14.43    0.73
   0   6  -1   12.01    0.59
   0   6  -1   11.71    0.56
   0   6  -1   11.44    0.57
   0  -6   1   12.26    0.62
  -1   6  -1    5.70    0.34
  -1   6  -1    7.19    0.38
  -1   6  -1    5.96    0.36
   1  -6   1    6.49    0.40
  -2   6  -1   15.98    0.81
  -2   6  -1   17.46    1.10
  -2   6  -1   16.29    0.85
  -2   6  -1   17.16    0.81
  -2   6  -1   17.42    0.89
   2  -6   1   16.41    0.85
  -3   6  -1    0.89    0.19
   6   5  -1    7.04    0.43
   6   5  -1    6.84    0.45
   6   5  -1    6.55    0.46
  -6  -5   1    7.17    0.47
  -6  -5   1    7.14    0.44
   5   5  -1   47.92    2.17
   5   5  -1   51.66    2.13
   5   5  -1   53.83    2.26
  -5  -5   1   49.26    2.23
  -5  -5   1   47.39    2.24
  -5  -5   1   48.57    2.21
   4   5  -1  149.63    6.13
   4   5  -1  149.19    6.23
   4   5  -1  147.62    6.07
  -4  -5   1  146.87    6.12
  -4  -5   1  149.10    6.20
   3   5  -1    2.04    0.15
   3   5  -1    1.64    0.17
   2   5  -1   96.13    3.95
   2   5  -1   99.89    3.91
  -2  -5   1   93.09    3.98
   1   5  -1    9.38    0.42
   1   5  -1    8.48    0.44
   1   5  -1    9.40    0.45
  -1  -5   1    9.12    0.47
   0   5  -1  215.11    8.79
   0   5  -1  220.43    8.80
   0   5  -1  226.06    8.77
   0  -5   1  210.02    8.82
  -1   5  -1    1.48    0.17
  -1   5  -1    1.89    0.16
  -1   5  -1    1.70    0.14
   1  -5   1    2.01    0.18
  -2   5  -1   81.07    3.45
  -2   5  -1   85.57    3.48
  -2   5  -1   86.04    3.50
  -2   5  -1   84.00    3.46
  -3   5  -1    1.67    0.19
  -3   5  -1    1.74    0.32
  -3   5  -1    1.23    0.24
  -3   5  -1    1.52    0.22
  -4   5  -1    0.26    0.17
  -4   5  -1    0.11    0.16
   6   4  -1    2.87    0.30
   6   4  -1    3.18    0.27
   6   4  -1    3.71    0.31
  -6  -4   1    3.19    0.31
  -6  -4   1    3.01    0.32
   5   4  -1  183.27    6.97
   5   4  -1  173.18    7.03
  -5  -4   1  177.23    6.91
  -5  -4   1  162.92    7.12
  -5  -4   1  174.26    7.07
  -5  -4   1  152.65    7.10
   4   4  -1    2.16    0.21
  -4  -4   1    2.06    0.20
  -4  -4   1    1.72    0.22
   3   4  -1   95.94    3.78
   3   4  -1   91.55    3.83
  -3  -4   1   93.01    3.86
  -3  -4   1   92.44    3.80
  -2  -4   1 1000.00   40.02
   1   4  -1   38.95    1.58
   1   4  -1   37.80    1.56
  -1  -4   1   37.06    1.60
   0   4  -1    0.44    0.10
   0   4  -1    0.35    0.07
   0   4  -1    0.37    0.06
  -1   4  -1    0.47    0.08
  -1   4  -1    0.49    0.07
  -1   4  -1    0.55    0.07
   1  -4   1    0.38    0.07
  -2   4  -1    6.61    0.31
  -2   4  -1    6.09    0.32
  -2   4  -1    5.40    0.36
  -2   4  -1    6.11    0.32
   2  -4   1    5.78    0.33
  -3   4  -1    5.86    0.34
  -3   4  -1    5.08    0.39
  -3   4  -1    4.88    0.60
   3  -4   1    5.22    0.38
  -4   4  -1    2.77    0.35
  -4   4  -1    2.91    0.34
  -4   4  -1    2.97    0.24
  -5   4  -1    0.06    0.12
  -5   4  -1   -0.05    0.10
   7   3  -1    0.30    0.11
  -7  -3   1    0.39    0.11
  -7  -3   1    0.24    0.09
   6   3  -1    8.99    0.50
   6   3  -1    9.28    0.51
  -6  -3   1    8.32    0.57
  -6  -3   1    8.55    0.60
   5   3  -1  330.59   12.66
   5   3  -1  300.45   12.71
  -5  -3   1  303.35   12.83
  -5  -3   1  310.48   12.76
  -5  -3   1  319.60   12.60
   4   3  -1   43.84    1.89
   4   3  -1   44.76    1.88
  -4  -3   1   43.75    1.88
  -4  -3   1   43.04    1.84
   3   3  -1   30.14    1.24
   3   3  -1   30.12    1.31
   3   3  -1   30.32    1.26
  -3  -3   1   30.33    1.32
   2   3  -1   67.38    2.79
   2   3  -1   71.93    2.78
  -2  -3   1   67.59    2.84
   1   3  -1    3.81    0.18
   1   3  -1    3.89    0.19
  -1  -3   1    3.53    0.20
   0   3  -1   47.14    1.89
   0   3  -1   45.64    1.86
   0   3  -1   47.11    1.88
   0  -3   1   45.19    1.87
  -1   3  -1    3.04    0.16
  -1   3  -1    3.26    0.17
  -1   3  -1    3.05    0.16
  -1   3  -1    2.93    0.17
   1  -3   1    3.14    0.17
  -2   3  -1   33.71    1.33
  -2   3  -1   32.71    1.34
  -2   3  -1   32.44    1.33
  -2   3  -1   31.12    1.32
  -2   3  -1   28.45    1.35
   2  -3   1   31.26    1.35
  -3   3  -1    5.82    0.32
  -3   3  -1    5.79    0.37
  -3   3  -1    6.37    0.33
  -3   3  -1    5.90    0.34
   3  -3   1    6.06    0.36
  -4   3  -1    0.35    0.10
  -4   3  -1    0.67    0.24
  -4   3  -1    0.58    0.18
  -4   3  -1    0.49    0.19
  -5   3  -1    0.74    0.16
  -5   3  -1    0.72    0.17
  -5   3  -1    0.63    0.17
  -6   3  -1   -0.05    0.10
  -6   3  -1    0.04    0.07
   7   2  -1    0.58    0.12
  -7  -2   1    0.45    0.09
  -7  -2   1    0.46    0.11
  -6  -2   1    1.19    0.32
  -6  -2   1    0.64    0.18
   5   2  -1  114.81    4.72
   5   2  -1  117.82    4.80
  -5  -2   1  119.19    4.76
  -5  -2   1  113.40    4.66
  -5  -2   1  115.10    4.87
  -5  -2   1  111.12    4.82
  -5  -2   1  108.02    4.91
   4   2  -1    7.63    0.40
   4   2  -1    7.41    0.42
  -4  -2   1    7.02    0.38
  -4  -2   1    7.49    0.41
   3   2  -1   33.78    1.38
   3   2  -1   32.27    1.41
  -3  -2   1   32.32    1.40
   2   2  -1   72.95    2.96
   2   2  -1   75.43    2.97
  -2  -2   1   71.87    3.00
   0   2  -1   42.58    1.73
   0   2  -1   43.07    1.75
   0   2  -1   43.35    1.74
  -1   2  -1   13.10    0.58
  -1   2  -1   13.64    0.57
  -1   2  -1   14.05    0.58
  -2   2  -1   26.89    1.13
  -2   2  -1   28.07    1.13
  -2   2  -1   26.40    1.13
  -2   2  -1   27.66    1.15
   2  -2   1   26.17    1.15
  -3   2  -1   42.43    1.79
  -3   2  -1   41.99    1.82
  -3   2  -1   42.46    1.82
  -3   2  -1   44.26    1.79
   3  -2   1   43.23    1.83
  -4   2  -1    4.07    0.33
  -4   2  -1    4.46    0.27
  -4   2  -1    3.69    0.42
  -4   2  -1    3.74    0.43
  -4   2  -1    4.64    0.39
   4  -2   1    4.41    0.39
  -5   2  -1    1.23    0.21
  -5   2  -1    1.68    0.26
  -5   2  -1    1.75    0.29
  -5   2  -1    1.79    0.19
  -6   2  -1    0.70    0.13
  -6   2  -1    0.75    0.14
  -6   2  -1    0.75    0.12
   7   1  -1    0.20    0.10
  -7  -1   1    0.10    0.08
  -7  -1   1    0.08    0.07
  -6  -1   1    0.88    0.19
  -6  -1   1    0.81    0.21
  -6  -1   1    0.93    0.18
   5   1  -1    0.90    0.25
   5   1  -1    0.83    0.17
  -5  -1   1    1.01    0.21
  -5  -1   1    0.58    0.21
  -5  -1   1    0.78    0.25
  -5  -1   1    1.13    0.25
  -5  -1   1    1.12    0.14
   4   1  -1    7.38    0.42
   4   1  -1    7.80    0.45
  -4  -1   1    7.57    0.39
  -4  -1   1    8.19    0.42
   3   1  -1   72.05    3.05
   3   1  -1   75.37    3.02
  -3  -1   1   75.23    3.01
  -3  -1   1   72.53    3.02
  -3  -1   1   71.01    3.02
  -3  -1   1   75.23    3.01
   2   1  -1    8.23    0.35
  -2  -1   1    7.50    0.36
  -2  -1   1    7.12    0.35
  -2  -1   1    7.60    0.35
  -2   1  -1  176.24    7.07
  -2   1  -1  179.44    7.08
  -2   1  -1  179.62    7.05
  -2   1  -1  170.29    7.05
   2  -1   1  172.23    7.05
  -3   1  -1    0.19    0.06
  -3   1  -1    0.22    0.09
  -3   1  -1    0.18    0.06
  -3   1  -1    0.14    0.05
   3  -1   1    0.25    0.07
  -4   1  -1   48.73    1.99
  -4   1  -1   45.68    1.99
  -4   1  -1   46.30    2.01
   4  -1   1   47.16    2.03
   4  -1   1   48.23    2.04
  -5   1  -1   19.48    0.90
  -5   1  -1   19.30    1.31
  -5   1  -1   21.78    1.35
  -6   1  -1    1.73    0.22
  -6   1  -1    1.68    0.24
  -6   1  -1    1.90    0.22
  -7   0   1    0.06    0.11
  -6   0   1    1.74    0.25
  -6   0   1    1.41    0.26
  -6   0   1    1.73    0.23
   5   0  -1    0.67    0.24
   5   0  -1    0.26    0.15
  -5   0   1    0.24    0.09
  -5   0   1    0.32    0.15
  -5   0   1    0.44    0.20
  -5   0   1    0.13    0.15
  -5   0   1    0.56    0.20
   4   0  -1    0.66    0.13
   4   0  -1    1.00    0.17
  -4   0   1    0.73    0.13
  -4   0   1    0.91    0.11
  -4   0   1    1.26    0.16
   3   0  -1   16.26    0.74
   3   0  -1   17.20    0.79
  -3   0   1   16.53    0.72
  -3   0   1   16.85    0.74
  -3   0   1   15.06    0.74
  -3   0   1   17.24    0.74
   2   0  -1  207.46    8.35
  -2   0   1  210.56    8.35
  -2   0   1  204.95    8.35
   0   0  -1    6.42    0.27
  -2   0  -1   84.56    3.46
  -2   0  -1   87.80    3.48
   2   0   1   85.06    3.45
  -3   0  -1    5.21    0.28
  -3   0  -1    4.94    0.26
  -3   0  -1    4.91    0.27
   3   0   1    5.33    0.29
  -4   0  -1    1.30    0.15
  -4   0  -1    1.37    0.15
   4   0   1    1.19    0.17
   4   0   1    1.31    0.17
  -5   0  -1    6.91    0.52
  -5   0  -1    6.79    0.38
  -5   0  -1    6.71    0.49
  -5   0  -1    7.24    0.57
  -6   0  -1    9.39    0.53
  -6   0  -1    8.92    0.58
  -6   0  -1   10.38    0.63
  -7   0  -1   -0.05    0.08
  -7   0  -1    0.02    0.07
   7   0   1    0.02    0.08
  -6   1   1    6.13    0.44
  -6   1   1    6.64    0.48
  -6   1   1    6.78    0.43
   5  -1  -1    3.88    0.37
  -5   1   1    2.75    0.40
  -5   1   1    2.88    0.33
  -5   1   1    2.37    0.32
  -5   1   1    3.02    0.35
  -5   1   1    2.67    0.22
   4  -1  -1   60.61    2.64
   4  -1  -1   62.11    2.58
  -4   1   1   59.79    2.53
  -4   1   1   58.41    2.57
  -4   1   1   64.22    2.55
   3  -1  -1  156.12    6.51
  -3   1   1  161.94    6.49
  -3   1   1  158.90    6.52
  -3   1   1  165.22    6.50
   2  -1  -1    7.15    0.33
  -2   1   1    6.90    0.32
  -2   1   1    6.78    0.33
  -2   1   1    6.93    0.33
   1  -1  -1   25.84    1.09
  -1   1   1   28.49    1.10
  -1   1   1   25.43    1.10
  -1  -1  -1   69.65    2.81
   1   1   1   69.70    2.80
  -2  -1  -1  350.58   14.06
  -3  -1  -1   21.56    0.94
  -3  -1  -1   22.11    0.93
   3   1   1   21.94    0.90
  -4  -1  -1   14.30    0.68
  -4  -1  -1   14.52    0.67
   4   1   1   13.76    0.68
   4   1   1   14.20    0.69
  -5  -1  -1    0.89    0.21
  -5  -1  -1    0.88    0.21
  -5  -1  -1    0.95    0.23
  -5  -1  -1    0.89    0.13
  -6  -1  -1   58.27    2.27
  -6  -1  -1   43.75    2.24
  -7  -1  -1    2.60    0.22
  -7  -1  -1    3.20    0.19
   7   1   1    2.66    0.22
  -6   2   1    6.89    0.37
  -6   2   1    6.95    0.45
  -6   2   1    6.59    0.42
   5  -2  -1    5.75    0.49
  -5   2   1    5.76    0.41
  -5   2   1    5.62    0.33
  -5   2   1    5.55    0.46
  -5   2   1    5.07    0.42
  -5   2   1    5.85    0.51
  -4   2   1   38.55    1.88
  -4   2   1   38.65    1.61
  -4   2   1   36.18    1.72
  -4   2   1   36.67    1.74
  -4   2   1   38.63    1.84
   3  -2  -1   74.11    3.12
  -3   2   1   73.83    3.14
  -3   2   1   75.86    3.10
  -3   2   1   78.15    3.11
  -2   2   1    0.90    0.09
  -2   2   1    0.83    0.09
  -2   2   1    1.00    0.09
   1  -2  -1    3.57    0.18
  -1   2   1    3.52    0.16
  -1   2   1    3.40    0.17
  -1  -2  -1   31.62    1.25
  -1  -2  -1   30.15    1.27
   1   2   1   30.78    1.26
   1   2   1   30.82    1.26
  -2  -2  -1    4.01    0.21
  -2  -2  -1    4.20    0.20
  -2  -2  -1    4.10    0.22
   2   2   1    4.13    0.19
  -3  -2  -1   47.75    2.00
  -3  -2  -1   47.76    2.00
  -3  -2  -1   48.59    1.99
   3   2   1   49.23    2.01
   3   2   1   48.17    1.97
  -4  -2  -1    2.36    0.19
   4   2   1    2.62    0.23
   4   2   1    2.31    0.20
  -5  -2  -1   10.25    0.69
  -5  -2  -1   10.52    0.68
  -5  -2  -1    9.84    0.52
  -5  -2  -1   10.20    0.64
   5   2   1   10.25    0.55
  -6  -2  -1   66.88    2.93
  -6  -2  -1   68.93    3.00
  -6  -2  -1   65.60    2.78
  -6  -2  -1   67.85    2.87
   7   2   1    3.36    0.28
  -6   3   1    0.24    0.09
  -6   3   1    0.23    0.08
  -5   3   1    0.83    0.19
  -5   3   1    0.44    0.18
  -5   3   1    0.58    0.16
   4  -3  -1    5.60    0.52
  -4   3   1    6.91    0.45
  -4   3   1    6.95    0.58
  -4   3   1    6.88    0.54
  -4   3   1    6.80    0.37
  -4   3   1    6.84    0.51
  -4   3   1    6.62    0.51
   3  -3  -1   52.87    2.26
  -3   3   1   51.87    2.28
  -3   3   1   53.25    2.23
  -3   3   1   56.58    2.26
   2  -3  -1   55.25    2.30
  -2   3   1   54.33    2.27
  -2   3   1   58.56    2.32
  -2   3   1   55.41    2.31
  -2   3   1   54.50    2.28
   1  -3  -1   27.23    1.16
  -1   3   1   28.41    1.16
  -1   3   1   28.30    1.15
  -1   3   1   28.00    1.18
   0  -3  -1    1.75    0.09
   0   3   1    1.72    0.10
   0   3   1    1.76    0.11
  -1  -3  -1   73.37    3.15
   1   3   1   76.48    3.13
   1   3   1   82.42    3.15
  -2  -3  -1   73.53    2.99
  -2  -3  -1   74.06    2.96
  -2  -3  -1   74.39    3.00
   2   3   1   72.66    2.97
   2   3   1   72.54    2.97
  -3  -3  -1  181.51    7.37
  -3  -3  -1  179.84    7.40
  -3  -3  -1  183.00    7.39
   3   3   1  188.79    7.38
   3   3   1  179.97    7.39
   3   3   1  183.89    7.35
  -4  -3  -1  100.78    4.13
   4   3   1  104.62    4.13
   4   3   1   96.67    4.22
  -5  -3  -1   51.69    2.54
  -5  -3  -1   59.02    2.36
  -5  -3  -1   57.25    2.47
  -5  -3  -1   53.65    2.45
  -5  -3  -1   54.89    2.53
   5   3   1   58.98    2.36
  -6  -3  -1    7.43    0.57
  -6  -3  -1    6.80    0.50
  -7  -3  -1    2.91    0.29
  -7  -3  -1    2.88    0.21
   7   3   1    3.13    0.35
  -5   4   1    5.98    0.42
  -5   4   1    5.28    0.45
   4  -4  -1   22.22    1.18
  -4   4   1   21.37    1.12
  -4   4   1   23.96    1.05
  -4   4   1   23.63    1.21
  -4   4   1   23.72    1.09
  -4   4   1   25.37    1.26
   3  -4  -1   20.22    0.94
  -3   4   1   20.46    0.91
  -3   4   1   19.69    1.15
  -3   4   1   19.00    1.04
  -3   4   1   20.15    0.95
  -3   4   1   22.08    1.14
   2  -4  -1    0.18    0.07
  -2   4   1    0.20    0.07
  -2   4   1    0.33    0.10
   1  -4  -1  206.93    8.59
  -1   4   1  216.79    8.59
  -1   4   1  207.67    8.62
  -1   4   1  223.32    8.61
  -1   4   1  214.20    8.63
   0  -4  -1    8.61    0.38
   0   4   1    8.38    0.38
   0   4   1    7.56    0.38
   0   4   1    6.90    0.35
  -1  -4  -1  689.35   27.61
  -2  -4  -1  316.00   12.74
  -2  -4  -1  315.66   12.72
   2   4   1  330.18   12.70
   2   4   1  304.44   12.72
  -3  -4  -1    7.63    0.39
  -3  -4  -1    7.16    0.41
   3   4   1    7.40    0.38
   3   4   1    7.61    0.36
  -4  -4  -1    4.18    0.28
   4   4   1    4.65    0.29
  -5  -4  -1   26.64    1.41
  -5  -4  -1   27.69    1.34
  -5  -4  -1   27.53    1.22
  -5  -4  -1   26.85    1.32
   5   4   1   30.22    1.24
  -6  -4  -1   14.68    0.88
  -6  -4  -1   16.40    0.82
   6   4   1   18.49    0.91
  -7  -4  -1    0.02    0.09
  -7  -4  -1    0.20    0.12
   7   4   1    0.06    0.10
  -5   5   1    0.61    0.14
   4  -5  -1    9.23    0.60
  -4   5   1    7.45    0.46
  -4   5   1    7.63    0.54
  -4   5   1    7.40    0.51
  -4   5   1    7.44    0.48
  -3   5   1    6.01    0.42
  -3   5   1    5.95    0.37
  -3   5   1    6.43    0.53
  -3   5   1    7.06    0.51
  -3   5   1    5.88    0.45
  -3   5   1    6.36    0.55
  -2   5   1    5.68    0.36
  -2   5   1    5.68    0.34
  -2   5   1    5.39    0.32
   1  -5  -1    1.39    0.15
  -1   5   1    1.19    0.12
  -1   5   1    1.50    0.15
  -1   5   1    1.39    0.14
   0  -5  -1   68.76    2.72
   0   5   1   65.09    2.72
   0   5   1   66.06    2.71
   0   5   1   63.41    2.69
  -1  -5  -1   84.02    3.38
  -1  -5  -1   80.61    3.41
   1   5   1   83.19    3.39
   1   5   1   83.58    3.39
   1   5   1   82.35    3.37
  -2  -5  -1   26.87    1.18
  -2  -5  -1   24.98    1.13
   2   5   1   26.87    1.12
   2   5   1   26.89    1.14
  -3  -5  -1  136.46    5.68
  -3  -5  -1  139.61    5.63
   3   5   1  138.92    5.63
  -4  -5  -1   45.99    2.05
  -4  -5  -1   48.00    2.20
   4   5   1   51.09    2.07
   4   5   1   49.07    2.02
   4   5   1   48.88    2.24
  -5  -5  -1   13.40    0.84
  -5  -5  -1   13.92    0.70
   5   5   1   14.69    0.98
   5   5   1   16.56    0.80
   5   5   1   14.19    0.73
  -6  -5  -1    6.28    0.59
  -6  -5  -1    5.80    0.38
  -6  -5  -1    5.71    0.44
   6   5   1    6.30    0.44
   7   5   1    0.26    0.12
  -4   6   1    0.48    0.15
   3  -6  -1    0.76    0.19
  -3   6   1    0.98    0.18
  -3   6   1    1.11    0.19
  -3   6   1    1.02    0.21
  -3   6   1    1.38    0.28
   2  -6  -1   11.14    0.58
  -2   6   1   11.06    0.66
  -2   6   1   11.84    0.61
  -2   6   1   11.74    0.85
  -2   6   1   10.86    0.57
  -2   6   1   11.27    0.60
  -2   6   1   12.00    0.79
  -2   6   1   11.60    0.66
  -1   6   1   -0.02    0.08
  -1   6   1   -0.01    0.08
   0  -6  -1   16.90    0.82
   0  -6  -1   17.53    0.78
   0   6   1   16.73    0.75
   0   6   1   16.42    0.77
   0   6   1   16.84    0.79
  -1  -6  -1  107.84    4.31
  -1  -6  -1  103.35    4.35
   1   6   1  104.13    4.32
   1   6   1  100.89    4.28
   1   6   1  109.52    4.30
  -2  -6  -1  112.19    4.75
   2   6   1  114.56    4.68
   2   6   1  118.11    4.70
  -3  -6  -1   10.93    0.64
   3   6   1   11.85    0.58
   3   6   1   11.78    0.55
  -4  -6  -1    6.07    0.50
   4   6   1    6.77    0.54
   4   6   1    6.64    0.36
   4   6   1    6.91    0.39
   4   6   1    6.55    0.44
   4   6   1    6.73    0.53
  -5  -6  -1   17.02    0.92
   5   6   1   17.32    0.80
   5   6   1   17.76    0.95
   5   6   1   16.81    0.84
  -6  -6  -1    0.78    0.16
   6   6   1    0.82    0.18
  -3   7   1    0.44    0.12
  -3   7   1    0.52    0.18
  -2   7   1    0.26    0.13
  -2   7   1    0.11    0.12
  -2   7   1    0.40    0.17
  -2   7   1    0.55    0.22
  -2   7   1    0.02    0.18
  -1   7   1    2.28    0.24
  -1   7   1    2.19    0.27
  -1   7   1    2.25    0.39
  -1   7   1    2.68    0.39
  -1   7   1    2.57    0.28
   0  -7  -1   39.56    1.76
   0   7   1   39.06    1.67
   0   7   1   40.92    1.77
   0   7   1   38.06    1.78
   0   7   1   41.29    2.12
   0   7   1   37.93    1.89
   0   7   1   39.25    1.71
   0   7   1   38.24    1.68
  -1  -7  -1    1.81    0.24
   1   7   1    1.58    0.24
   1   7   1    1.70    0.17
   1   7   1    2.07    0.16
   1   7   1    1.80    0.20
   1   7   1    1.72    0.23
   1   7   1    2.09    0.40
   1   7   1    1.64    0.31
  -2  -7  -1   33.03    1.52
   2   7   1   33.05    1.52
   2   7   1   31.19    1.51
   2   7   1   34.55    1.44
   2   7   1   36.37    1.85
   2   7   1   30.74    1.57
   2   7   1   32.27    1.41
  -3  -7  -1    0.46    0.23
  -3  -7  -1    0.28    0.16
   3   7   1    0.33    0.17
   3   7   1    0.10    0.18
   3   7   1    0.25    0.09
   3   7   1    0.38    0.13
   3   7   1    0.39    0.22
   3   7   1    0.28    0.09
  -4  -7  -1    1.00    0.21
   4   7   1    1.36    0.20
   4   7   1    1.38    0.27
   4   7   1    1.38    0.17
   4   7   1    1.19    0.23
  -5  -7  -1   24.78    1.22
   5   7   1   25.80    1.13
   5   7   1   24.90    1.10
   5   7   1   24.34    1.20
  -6  -7  -1    1.84    0.26
   6   7   1    1.50    0.17
  -2   8   1    2.87    0.26
  -2   8   1    2.90    0.32
  -1   8   1    0.07    0.14
  -1   8   1    0.11    0.12
  -1   8   1    0.09    0.16
  -1   8   1    0.07    0.10
   0   8   1   71.26    3.07
   0   8   1   71.17    3.00
   0   8   1   72.24    3.08
   0   8   1   73.70    3.42
  -1  -8  -1   23.33    1.18
   1   8   1   23.14    1.35
   1   8   1   20.67    1.36
   1   8   1   23.62    1.06
   1   8   1   27.03    1.76
   1   8   1   24.97    1.18
  -2  -8  -1   74.47    3.24
   2   8   1   76.18    3.09
   2   8   1   73.01    3.44
  -3  -8  -1    0.34    0.15
   3   8   1    0.18    0.11
   3   8   1   -0.02    0.08
   3   8   1    0.17    0.14
   3   8   1    0.36    0.20
   3   8   1    0.51    0.15
  -4  -8  -1    0.77    0.18
   4   8   1    1.17    0.18
   4   8   1    0.73    0.16
   4   8   1    1.04    0.21
  -5  -8  -1    9.14    0.54
   5   8   1    9.44    0.52
   5   8   1    8.91    0.46
  -1   9   1   22.77    1.15
  -1   9   1   20.52    0.98
  -1   9   1   22.35    0.98
   0   9   1    5.63    0.53
   0   9   1    6.12    0.35
   0   9   1    5.83    0.37
   0   9   1    5.90    0.38
  -1  -9  -1    9.06    0.55
   1   9   1    9.61    0.57
   1   9   1    9.01    0.72
   1   9   1    8.85    0.48
   1   9   1    9.65    0.55
   1   9   1    9.09    0.52
  -2  -9  -1    0.11    0.14
   2   9   1   -0.08    0.16
   2   9   1   -0.01    0.09
   2   9   1   -0.08    0.09
   2   9   1    0.05    0.10
   2   9   1    0.04    0.13
  -3  -9  -1   10.37    0.62
   3   9   1   10.69    0.58
   3   9   1   11.76    0.58
   3   9   1   10.70    0.53
   3   9   1   10.91    0.63
  -4  -9  -1    3.93    0.32
   4   9   1    4.45    0.29
   0  10   1   13.45    0.66
   0  10   1   11.24    0.58
   0  10   1   12.54    0.70
   1  10   1   10.60    0.64
   1  10   1   10.15    0.50
   1  10   1    9.03    0.49
  -2 -10  -1   -0.13    0.14
   2  10   1    0.26    0.09
   2  10   1    0.15    0.08
   2  10   1    0.37    0.14
  -3 -10  -1    8.55    0.46
   3  10   1    8.13    0.42
   3  10   1    9.22    0.44
  -4 -10  -1    1.28    0.15
   4  10   1    1.25    0.11
   4  10  -2    8.22    0.38
  -4 -10   2    8.47    0.40
   3  10  -2    8.18    0.43
  -3 -10   2    9.08    0.52
   2  10  -2   11.28    0.55
   2  10  -2    9.31    0.66
   2  10  -2   11.33    0.55
   2  10  -2   11.47    0.52
  -2 -10   2   10.20    0.54
   1  10  -2    1.83    0.22
   1  10  -2    1.55    0.18
   1  10  -2    1.84    0.21
   1  10  -2    1.71    0.16
  -1 -10   2    1.16    0.16
   0  10  -2    9.39    0.43
   0  10  -2    8.40    0.52
   5   9  -2    6.76    0.36
  -5  -9   2    6.91    0.36
   4   9  -2   -0.01    0.07
   4   9  -2    0.07    0.10
  -4  -9   2    0.02    0.11
   3   9  -2    5.86    0.51
   3   9  -2    6.59    0.40
   3   9  -2    5.79    0.37
   3   9  -2    6.76    0.44
   3   9  -2    6.34    0.34
  -3  -9   2    5.19    0.42
   2   9  -2    0.79    0.23
   2   9  -2    0.63    0.16
   2   9  -2    0.67    0.13
   2   9  -2    0.71    0.14
   2   9  -2    0.86    0.13
   1   9  -2    5.74    0.34
   1   9  -2    5.00    0.40
   1   9  -2    5.01    0.50
   1   9  -2    4.56    0.34
   1   9  -2    4.33    0.29
   0   9  -2   32.60    1.45
   0   9  -2   35.90    1.50
   0   9  -2   34.33    1.51
   0   9  -2   33.93    1.74
   0   9  -2   33.30    1.51
  -1   9  -2    7.03    0.38
  -1   9  -2    6.70    0.51
  -1   9  -2    8.90    0.41
   5   8  -2    3.74    0.25
  -5  -8   2    3.28    0.31
   4   8  -2    4.00    0.27
   4   8  -2    3.96    0.29
   4   8  -2    4.00    0.39
  -4  -8   2    3.44    0.36
   3   8  -2   27.14    1.35
   3   8  -2   28.09    1.27
   3   8  -2   26.49    1.20
   3   8  -2   26.35    1.25
   3   8  -2   26.08    1.47
   2   8  -2    0.81    0.14
   2   8  -2    0.91    0.29
   2   8  -2    0.85    0.20
   2   8  -2    0.72    0.16
   2   8  -2    0.87    0.18
   1   8  -2    9.58    0.57
   1   8  -2    9.06    0.62
   1   8  -2    9.75    0.50
   1   8  -2   10.98    0.58
   1   8  -2    8.61    0.79
   0   8  -2    2.12    0.24
   0   8  -2    1.69    0.35
   0   8  -2    1.47    0.26
   0   8  -2    1.69    0.20
   0   8  -2    1.58    0.24
  -1   8  -2    0.72    0.16
  -1   8  -2    0.62    0.22
  -1   8  -2    0.81    0.17
  -1   8  -2    0.48    0.15
  -2   8  -2    3.50    0.36
  -2   8  -2    4.12    0.28
   6   7  -2    1.43    0.14
   5   7  -2    2.34    0.22
   5   7  -2    2.61    0.21
  -5  -7   2    1.86    0.27
   4   7  -2    2.97    0.38
   4   7  -2    2.74    0.27
   4   7  -2    3.05    0.25
  -4  -7   2    3.03    0.38
   3   7  -2    4.31    0.28
   3   7  -2    4.10    0.46
   3   7  -2    4.01    0.29
   3   7  -2    4.17    0.33
   3   7  -2    4.03    0.67
  -3  -7   2    3.90    0.41
   2   7  -2    5.75    0.34
   2   7  -2    5.36    0.31
   2   7  -2    5.62    0.40
   2   7  -2    5.04    0.41
   2   7  -2    5.75    0.50
   2   7  -2    4.88    0.59
  -2  -7   2    4.72    0.39
   1   7  -2    6.30    0.40
   1   7  -2    4.95    0.30
   1   7  -2    4.73    0.57
   1   7  -2    4.70    0.52
   1   7  -2    5.08    0.42
   1   7  -2    5.42    0.32
  -1  -7   2    4.75    0.38
   0   7  -2    0.12    0.09
   0   7  -2    0.03    0.19
   0   7  -2    0.06    0.21
   0   7  -2    0.48    0.16
   0   7  -2    0.17    0.14
   0   7  -2    0.46    0.11
   0  -7   2    0.12    0.14
  -1   7  -2    3.06    0.30
  -1   7  -2    4.63    0.34
  -1   7  -2    3.99    0.38
  -1   7  -2    4.10    0.35
  -1   7  -2    4.86    0.52
  -1   7  -2    5.04    0.46
   1  -7   2    4.49    0.41
  -2   7  -2    1.38    0.21
  -2   7  -2    1.04    0.23
  -2   7  -2    1.99    0.44
   6   6  -2    6.58    0.36
   5   6  -2   25.18    1.17
   5   6  -2   26.33    1.13
  -5  -6   2   23.92    1.19
  -5  -6   2   24.04    1.40
   4   6  -2   44.15    2.02
   4   6  -2   41.51    1.81
   4   6  -2   42.53    1.88
  -4  -6   2   41.03    1.96
  -4  -6   2   40.55    1.91
   3   6  -2  176.95    7.03
   3   6  -2  167.28    7.14
   3   6  -2  178.79    7.27
   3   6  -2  170.74    7.09
  -3  -6   2  175.96    7.31
   2   6  -2   11.55    0.57
   2   6  -2   11.64    0.53
  -2  -6   2   11.03    0.62
   1   6  -2   17.18    0.77
   1   6  -2   16.22    0.75
  -1  -6   2   16.75    0.82
   0   6  -2    0.07    0.07
   0   6  -2    0.08    0.06
   0   6  -2    0.33    0.09
   0  -6   2    0.06    0.09
  -1   6  -2    1.15    0.14
  -1   6  -2    0.75    0.17
  -1   6  -2    0.61    0.18
  -1   6  -2    0.48    0.26
   1  -6   2    0.76    0.17
  -2   6  -2    6.44    0.45
  -2   6  -2    6.34    0.41
  -2   6  -2    5.89    0.47
  -2   6  -2    6.65    0.62
   2  -6   2    6.50    0.52
   6   5  -2   15.54    0.88
   6   5  -2   17.78    0.87
   6   5  -2   18.28    0.86
  -6  -5   2   18.89    0.88
  -6  -5   2   16.61    1.02
   5   5  -2    0.27    0.20
   5   5  -2    0.16    0.12
   5   5  -2    0.27    0.11
  -5  -5   2    0.32    0.19
  -5  -5   2   -0.10    0.20
  -5  -5   2    0.53    0.25
   4   5  -2    1.82    0.32
   4   5  -2    1.81    0.21
   4   5  -2    1.74    0.29
   4   5  -2    3.16    0.52
  -4  -5   2    2.13    0.26
  -4  -5   2    1.73    0.31
  -4  -5   2    1.74    0.32
   3   5  -2    3.98    0.27
   3   5  -2    4.30    0.28
  -3  -5   2    4.23    0.33
   2   5  -2    4.61    0.25
   2   5  -2    4.77    0.28
  -2  -5   2    4.72    0.31
   1   5  -2  201.81    8.35
   1   5  -2  215.26    8.32
  -1  -5   2  202.93    8.38
   0   5  -2   26.43    1.15
   0   5  -2   26.26    1.16
   0   5  -2   30.10    1.18
   0  -5   2   25.62    1.20
  -1   5  -2    4.81    0.27
  -1   5  -2    4.95    0.29
   1  -5   2    5.06    0.31
  -2   5  -2    1.56    0.20
  -2   5  -2    1.47    0.18
  -2   5  -2    1.26    0.16
   2  -5   2    1.59    0.20
  -4   5  -2    0.49    0.18
  -4   5  -2    0.53    0.32
  -7  -4   2    0.10    0.09
   6   4  -2    0.36    0.14
   6   4  -2    0.43    0.16
   6   4  -2    0.46    0.13
  -6  -4   2    0.66    0.17
  -6  -4   2    0.35    0.16
   5   4  -2   41.11    1.69
   5   4  -2   40.30    1.75
  -5  -4   2   33.83    1.79
  -5  -4   2   38.55    1.80
   4   4  -2  268.91   10.80
  -4  -4   2  264.52   10.82
   3   4  -2   39.66    1.68
   3   4  -2   39.41    1.62
  -3  -4   2   38.84    1.71
   2   4  -2   52.91    2.28
   2   4  -2   56.96    2.25
  -2  -4   2   55.23    2.31
   1   4  -2   24.38    1.08
  -1  -4   2   26.19    1.10
   0   4  -2   11.71    0.54
   0   4  -2   12.23    0.53
   0  -4   2   11.88    0.56
  -1   4  -2   28.89    1.18
  -1   4  -2   28.52    1.20
  -1   4  -2   27.07    1.21
  -1   4  -2   27.08    1.17
  -1   4  -2   29.76    1.18
   1  -4   2   27.21    1.18
  -2   4  -2   49.76    2.12
  -2   4  -2   52.57    2.12
  -2   4  -2   53.25    2.11
  -2   4  -2   48.12    2.14
  -2   4  -2   50.88    2.10
   2  -4   2   50.11    2.13
  -3   4  -2    7.80    0.58
  -3   4  -2    7.81    0.68
  -3   4  -2    6.59    0.41
  -3   4  -2    7.07    0.46
   3  -4   2    7.04    0.46
  -4   4  -2    7.01    0.53
  -4   4  -2    6.04    0.48
  -4   4  -2    7.54    0.51
  -4   4  -2    7.21    0.40
  -5   4  -2    0.47    0.14
  -5   4  -2    0.51    0.12
   7   3  -2    2.24    0.27
  -7  -3   2    2.34    0.22
  -7  -3   2    2.38    0.19
   6   3  -2    0.22    0.14
   6   3  -2    0.19    0.16
  -6  -3   2    0.14    0.15
  -6  -3   2   -0.04    0.12
   5   3  -2   15.05    0.75
   5   3  -2   14.91    0.80
  -5  -3   2   15.26    0.86
  -5  -3   2   14.94    0.88
  -5  -3   2   13.92    0.68
   4   3  -2   16.58    0.79
  -4  -3   2   16.40    0.73
  -4  -3   2   15.87    0.79
   3   3  -2   90.78    3.68
   3   3  -2   94.64    3.66
   3   3  -2   88.05    3.73
  -3  -3   2   88.86    3.74
  -3  -3   2   91.15    3.69
   2   3  -2    3.22    0.16
   2   3  -2    3.15    0.16
  -2  -3   2    3.32    0.21
   1   3  -2   29.50    1.19
  -1  -3   2   28.44    1.23
   0   3  -2  104.10    4.24
   0   3  -2  107.34    4.26
   0  -3   2  104.85    4.28
  -1   3  -2  227.41    8.77
  -1   3  -2  220.06    8.77
  -1   3  -2  206.36    8.76
  -1   3  -2  219.23    8.77
  -2   3  -2   95.02    3.57
  -2   3  -2   84.88    3.56
  -2   3  -2   81.00    3.59
  -2   3  -2   89.33    3.59
  -2   3  -2   88.03    3.65
   2  -3   2   87.85    3.60
  -3   3  -2    1.51    0.16
  -3   3  -2    2.01    0.24
  -3   3  -2    1.34    0.14
   3  -3   2    1.25    0.17
  -4   3  -2   28.97    1.32
  -4   3  -2   27.16    1.43
  -4   3  -2   30.11    1.44
  -4   3  -2   28.51    1.25
  -5   3  -2    6.36    0.45
  -5   3  -2    6.87    0.46
  -5   3  -2    5.91    0.41
  -6   3  -2    0.21    0.08
   7   2  -2    0.13    0.10
  -7  -2   2   -0.01    0.07
  -7  -2   2    0.07    0.09
   6   2  -2    5.51    0.39
   6   2  -2    5.60    0.38
  -6  -2   2    5.10    0.44
  -6  -2   2    5.22    0.38
  -6  -2   2    4.83    0.43
   5   2  -2   12.37    0.72
   5   2  -2   12.73    0.66
  -5  -2   2   10.67    0.78
  -5  -2   2   12.34    0.69
  -5  -2   2   12.10    0.75
  -5  -2   2   12.73    0.78
  -5  -2   2   12.28    0.59
   4   2  -2    0.19    0.09
   4   2  -2    0.27    0.09
   3   2  -2    9.11    0.47
   3   2  -2    9.20    0.44
  -3  -2   2    8.86    0.47
  -3  -2   2    8.94    0.45
   2   2  -2    7.78    0.34
   2   2  -2    7.62    0.32
  -2  -2   2    7.26    0.37
   1   2  -2   32.46    1.27
   1   2  -2   30.80    1.27
  -1  -2   2   30.62    1.31
   0   2  -2   17.93    0.75
   0   2  -2   18.99    0.78
   0   2  -2   18.09    0.76
   0  -2   2   18.04    0.77
  -2   2  -2    2.90    0.17
  -2   2  -2    3.44    0.18
  -2   2  -2    3.34    0.20
  -2   2  -2    3.25    0.18
   2  -2   2    3.39    0.19
  -3   2  -2    8.43    0.40
  -3   2  -2    8.09    0.42
  -3   2  -2    7.14    0.44
   3  -2   2    8.15    0.43
  -4   2  -2   87.43    3.85
  -4   2  -2   86.30    3.86
  -4   2  -2   90.74    3.65
  -4   2  -2   90.80    3.75
  -5   2  -2   14.93    0.84
  -5   2  -2   14.58    0.69
  -5   2  -2   14.61    0.76
  -5   2  -2   14.93    0.85
  -6   2  -2    2.16    0.21
  -6   2  -2    2.40    0.21
  -6   2  -2    1.87    0.20
   7   1  -2    0.25    0.11
  -7  -1   2    0.25    0.12
  -7  -1   2    0.25    0.10
   6   1  -2    1.10    0.32
   6   1  -2    0.50    0.17
  -6  -1   2    0.28    0.16
  -6  -1   2    0.19    0.14
  -6  -1   2    0.34    0.13
   5   1  -2   27.16    1.23
   5   1  -2   26.69    1.30
  -5  -1   2   26.57    1.36
  -5  -1   2   26.09    1.14
  -5  -1   2   26.90    1.25
  -5  -1   2   25.34    1.30
  -5  -1   2   24.01    1.38
   4   1  -2    3.48    0.28
   4   1  -2    3.32    0.24
  -4  -1   2    3.39    0.22
  -4  -1   2    3.75    0.38
   3   1  -2    2.74    0.18
  -3  -1   2    2.74    0.17
   2   1  -2  192.54    7.49
  -2  -1   2  177.83    7.50
  -2  -1   2  188.31    7.48
   1   1  -2   44.43    1.81
  -1  -1   2   45.06    1.83
  -2   1  -2  393.32   15.92
  -2   1  -2  397.36   15.91
  -2   1  -2  397.56   15.93
   2  -1   2  401.14   15.92
  -3   1  -2   46.89    1.92
  -3   1  -2   45.63    1.94
   3  -1   2   45.70    1.89
  -4   1  -2    7.96    0.42
   4  -1   2    7.94    0.47
  -5   1  -2    8.38    0.44
  -5   1  -2    8.99    0.74
  -6   1  -2    0.16    0.10
  -6   1  -2    0.16    0.10
  -6   1  -2    0.15    0.10
   6   0  -2    5.90    0.41
  -6   0   2    5.73    0.37
  -6   0   2    5.25    0.46
  -6   0   2    6.10    0.39
  -6   0   2    5.11    0.42
   5   0  -2   24.99    1.20
  -5   0   2   26.25    1.39
  -5   0   2   24.01    1.30
  -5   0   2   23.80    1.19
  -5   0   2   25.10    1.24
  -5   0   2   24.92    1.09
   4   0  -2   90.59    3.75
   4   0  -2   91.02    3.82
  -4   0   2   94.89    3.75
  -4   0   2   85.45    3.76
  -4   0   2   92.51    3.72
   3   0  -2   94.08    3.78
   3   0  -2   91.10    3.83
  -3   0   2   92.87    3.75
  -3   0   2   93.97    3.78
  -3   0   2   89.56    3.78
   2   0  -2  194.96    7.92
  -2   0   2  195.73    7.93
  -2   0   2  200.23    7.91
  -1   0  -2   55.99    2.27
  -2   0  -2    3.70    0.19
  -2   0  -2    2.89    0.18
   2   0   2    3.28    0.16
  -3   0  -2   55.70    2.31
  -3   0  -2   57.18    2.32
   3   0   2   54.83    2.27
  -4   0  -2   25.80    1.19
  -4   0  -2   26.67    1.17
   4   0   2   27.79    1.22
  -5   0  -2    8.24    0.57
  -5   0  -2    7.46    0.51
  -5   0  -2    6.88    0.40
  -5   0  -2    8.14    0.59
  -6   0  -2    0.28    0.11
  -6   0  -2    0.25    0.12
  -6   0  -2    0.11    0.12
  -7   0  -2   -0.08    0.07
  -6   1   2    3.22    0.31
  -6   1   2    3.62    0.28
  -6   1   2    3.20    0.32
   5  -1  -2   10.72    0.65
  -5   1   2   10.75    0.71
  -5   1   2   10.26    0.63
  -5   1   2   11.07    0.53
  -5   1   2   10.83    0.77
  -5   1   2   10.06    0.64
   4  -1  -2  114.76    4.43
   4  -1  -2  102.51    4.45
  -4   1   2   97.29    4.37
  -4   1   2  105.26    4.32
  -4   1   2  109.57    4.36
   3  -1  -2   31.21    1.40
  -3   1   2   33.42    1.40
  -3   1   2   33.31    1.42
  -3   1   2   32.89    1.37
   2  -1  -2   24.22    1.05
  -2   1   2   25.40    1.04
  -2   1   2   24.61    1.05
   1  -1  -2  192.51    7.68
  -1   1   2  190.33    7.69
  -1  -1  -2   76.09    3.04
   1   1   2   74.98    3.04
  -2  -1  -2    5.53    0.27
   2   1   2    5.77    0.26
  -3  -1  -2   40.38    1.67
  -3  -1  -2   39.92    1.67
   3   1   2   39.22    1.63
  -4  -1  -2    0.19    0.06
  -4  -1  -2    0.31    0.08
   4   1   2    0.25    0.08
  -5  -1  -2    0.67    0.17
  -5  -1  -2    0.43    0.18
  -5  -1  -2    0.84    0.13
  -5  -1  -2    0.68    0.22
  -6  -1  -2    1.03    0.25
  -6  -1  -2    0.70    0.17
  -7  -1  -2    3.08    0.22
  -7  -1  -2    3.19    0.20
  -7  -1  -2    2.43    0.27
   7   1   2    3.34    0.23
  -6   2   2    2.39    0.22
  -6   2   2    2.17    0.22
  -6   2   2    2.41    0.25
   5  -2  -2    5.69    0.45
  -5   2   2    4.79    0.31
  -5   2   2    4.84    0.39
  -5   2   2    4.92    0.43
  -5   2   2    5.37    0.50
  -5   2   2    4.65    0.39
   4  -2  -2   21.22    1.19
  -4   2   2   28.82    1.52
  -4   2   2   25.64    1.07
  -4   2   2   24.44    1.53
  -4   2   2   23.64    1.20
  -4   2   2   23.33    1.13
  -4   2   2   23.28    1.19
  -3   2   2    7.26    0.42
  -3   2   2    7.62    0.38
  -3   2   2    7.63    0.40
   2  -2  -2   59.22    2.46
  -2   2   2   60.47    2.47
  -2   2   2   59.82    2.47
  -2   2   2   59.84    2.44
   1  -2  -2    8.55    0.36
  -1   2   2    7.72    0.37
  -1   2   2    7.68    0.34
   0  -2  -2   46.98    1.89
   0   2   2   46.80    1.90
   0   2   2   46.98    1.91
  -1  -2  -2   45.88    1.82
   1   2   2   44.90    1.83
   1   2   2   44.50    1.83
  -2  -2  -2    2.23    0.15
  -2  -2  -2    2.46    0.14
  -2  -2  -2    2.35    0.14
   2   2   2    2.36    0.13
  -3  -2  -2  132.63    5.25
  -3  -2  -2  126.36    5.28
  -3  -2  -2  133.25    5.28
   3   2   2  128.31    5.24
  -4  -2  -2    2.05    0.18
  -4  -2  -2    2.59    0.19
   4   2   2    1.88    0.21
   4   2   2    1.78    0.19
  -5  -2  -2   27.05    1.19
  -5  -2  -2   27.46    1.35
  -5  -2  -2   25.47    1.36
  -5  -2  -2   27.80    1.40
  -5  -2  -2   25.63    1.28
  -6  -2  -2   49.83    2.24
  -6  -2  -2   46.94    2.12
  -6  -2  -2   48.55    2.19
  -6  -2  -2   50.19    2.06
  -7  -2  -2    2.75    0.22
   7   2   2    2.96    0.23
  -6   3   2    0.07    0.07
  -6   3   2    0.02    0.07
   5  -3  -2   12.65    0.73
  -5   3   2   13.03    0.74
  -5   3   2   13.42    0.79
  -5   3   2   11.60    0.64
   4  -3  -2    0.52    0.22
  -4   3   2    0.42    0.20
  -4   3   2    0.55    0.11
  -4   3   2    0.53    0.22
  -4   3   2    0.61    0.20
  -4   3   2    0.85    0.17
   3  -3  -2    3.78    0.26
  -3   3   2    3.81    0.27
  -3   3   2    4.13    0.29
  -3   3   2    3.61    0.24
   2  -3  -2  174.85    7.19
  -2   3   2  177.81    7.18
  -2   3   2  183.06    7.22
  -2   3   2  176.56    7.21
   1  -3  -2    7.16    0.34
  -1   3   2    7.61    0.37
  -1   3   2    7.63    0.33
  -1   3   2    7.70    0.35
   0  -3  -2  236.50    9.37
   0  -3  -2  236.91    9.39
   0   3   2  245.51    9.39
   0   3   2  221.27    9.37
   0   3   2  228.49    9.39
  -1  -3  -2   73.12    2.95
  -1  -3  -2   74.80    2.91
   1   3   2   69.35    2.96
   1   3   2   72.58    2.93
  -3  -3  -2  440.45   17.60
  -3  -3  -2  432.99   17.61
  -3  -3  -2  427.01   17.62
   3   3   2  444.36   17.61
   3   3   2  430.20   17.61
   3   3   2  457.39   17.59
  -4  -3  -2   11.64    0.58
  -4  -3  -2   12.29    0.60
   4   3   2   12.58    0.59
   4   3   2   12.23    0.61
  -5  -3  -2   17.55    0.83
  -5  -3  -2   16.91    0.99
  -5  -3  -2   17.12    0.93
  -5  -3  -2   18.65    0.93
  -5  -3  -2   18.52    0.98
  -6  -3  -2   32.75    1.65
  -6  -3  -2   36.98    1.57
  -6  -3  -2   38.50    1.73
  -7  -3  -2    1.63    0.16
  -7  -3  -2    1.53    0.17
   7   3   2    1.43    0.18
  -5   4   2    0.38    0.13
  -5   4   2    0.66    0.19
  -5   4   2    0.56    0.15
   4  -4  -2    0.29    0.22
  -4   4   2    0.33    0.17
  -4   4   2    0.23    0.15
  -4   4   2    0.42    0.20
  -4   4   2    0.43    0.17
  -4   4   2    0.30    0.11
   3  -4  -2   39.19    1.73
  -3   4   2   39.90    1.99
  -3   4   2   40.28    1.84
  -3   4   2   41.47    1.75
  -3   4   2   40.67    1.76
  -3   4   2   40.48    1.92
  -3   4   2   39.44    1.71
   2  -4  -2   60.11    2.51
  -2   4   2   62.06    2.54
  -2   4   2   58.50    2.50
  -2   4   2   62.14    2.54
   1  -4  -2   64.44    2.73
  -1   4   2   66.14    2.72
  -1   4   2   70.24    2.76
  -1   4   2   66.20    2.77
  -1   4   2   68.26    2.75
   0  -4  -2   80.56    3.27
   0  -4  -2   80.84    3.31
   0   4   2   85.09    3.31
   0   4   2   78.93    3.30
   0   4   2   80.10    3.29
  -1  -4  -2   45.49    1.84
   1   4   2   43.45    1.82
   1   4   2   43.91    1.83
  -2  -4  -2  137.23    5.54
  -2  -4  -2  137.63    5.53
   2   4   2  132.78    5.51
   2   4   2  137.79    5.50
  -3  -4  -2  126.59    5.35
   3   4   2  137.12    5.32
   3   4   2  131.09    5.34
  -4  -4  -2   31.80    1.43
   4   4   2   32.84    1.42
   4   4   2   34.18    1.39
  -5  -4  -2   73.82    3.26
  -5  -4  -2   78.85    3.18
  -5  -4  -2   77.64    3.37
  -5  -4  -2   72.62    3.27
   5   4   2   79.85    3.35
  -6  -4  -2    3.05    0.33
  -6  -4  -2    2.34    0.26
  -6  -4  -2    2.79    0.31
   6   4   2    2.78    0.30
  -7  -4  -2    0.85    0.14
  -7  -4  -2    0.82    0.13
   7   4   2    0.62    0.13
  -5   5   2    8.28    0.44
   4  -5  -2   17.55    0.98
  -4   5   2   19.91    0.93
  -4   5   2   19.89    1.04
  -4   5   2   19.43    0.99
  -4   5   2   20.16    0.91
   3  -5  -2   22.42    1.02
  -3   5   2   21.98    1.07
  -3   5   2   22.67    1.07
  -3   5   2   22.04    1.19
  -3   5   2   24.02    1.28
  -3   5   2   24.57    1.14
  -3   5   2   23.18    1.08
  -2   5   2    0.34    0.10
  -2   5   2    0.28    0.09
  -2   5   2    0.41    0.11
  -1   5   2   24.56    1.05
  -1   5   2   21.63    0.96
  -1   5   2   21.70    0.99
  -1   5   2   22.38    1.01
   0  -5  -2   58.68    2.40
   0   5   2   57.17    2.40
   0   5   2   56.32    2.38
   0   5   2   58.56    2.37
  -1  -5  -2   60.32    2.55
  -1  -5  -2   60.21    2.57
   1   5   2   61.76    2.52
   1   5   2   60.09    2.55
   1   5   2   65.34    2.54
  -2  -5  -2  119.75    4.97
  -2  -5  -2  116.14    4.94
   2   5   2  125.99    4.94
   2   5   2  122.06    4.93
   2   5   2  122.59    4.92
  -3  -5  -2  187.41    7.78
  -3  -5  -2  185.68    7.76
   3   5   2  194.28    7.73
   3   5   2  196.53    7.71
  -4  -5  -2   28.51    1.46
  -4  -5  -2   27.26    1.39
  -4  -5  -2   28.38    1.27
   4   5   2   28.68    1.23
   4   5   2   29.30    1.42
   4   5   2   29.02    1.26
   4   5   2   30.64    1.44
  -5  -5  -2   47.98    2.06
  -5  -5  -2   44.42    2.36
   5   5   2   52.23    2.06
  -6  -5  -2   11.64    0.62
  -6  -5  -2   11.06    0.66
   6   5   2   10.53    0.65
   7   5   2    1.34    0.17
  -4   6   2    4.54    0.33
  -4   6   2    4.06    0.30
   3  -6  -2    1.86    0.23
  -3   6   2    1.84    0.22
  -3   6   2    1.24    0.21
  -3   6   2    2.41    0.27
  -3   6   2    1.83    0.30
   2  -6  -2   13.07    0.65
  -2   6   2   12.64    0.64
  -2   6   2   12.46    0.71
  -2   6   2   15.04    0.96
  -2   6   2   12.46    0.85
  -2   6   2   13.68    0.68
  -2   6   2   13.92    0.74
  -2   6   2   13.02    0.67
   1  -6  -2   10.64    0.54
  -1   6   2   10.51    0.51
  -1   6   2    9.86    0.55
  -1   6   2   10.23    0.59
  -1   6   2   11.04    0.63
   0  -6  -2    3.77    0.25
   0   6   2    3.61    0.25
   0   6   2    3.24    0.23
   0   6   2    3.38    0.21
  -1  -6  -2   26.92    1.24
  -1  -6  -2   27.65    1.20
   1   6   2   28.26    1.19
   1   6   2   26.76    1.17
   1   6   2   27.21    1.21
  -2  -6  -2   63.72    2.75
  -2  -6  -2   65.12    2.78
   2   6   2   67.46    2.73
   2   6   2   66.18    2.71
  -3  -6  -2    1.37    0.23
  -3  -6  -2    1.82    0.22
   3   6   2    1.74    0.19
   3   6   2    1.60    0.15
  -4  -6  -2   33.91    1.53
  -4  -6  -2   34.65    1.65
   4   6   2   30.36    1.56
   4   6   2   35.20    1.67
   4   6   2   37.46    1.53
   4   6   2   38.28    1.73
   4   6   2   36.48    1.50
  -5  -6  -2   16.21    0.87
   5   6   2   16.84    0.93
   5   6   2   15.28    0.80
   5   6   2   17.73    0.78
  -6  -6  -2    1.18    0.18
   6   6   2    0.72    0.17
  -3   7   2    0.49    0.16
  -3   7   2    0.28    0.11
  -2   7   2    7.08    0.46
  -2   7   2    7.78    0.62
  -2   7   2    7.49    0.43
  -2   7   2    7.09    0.56
   1  -7  -2   38.16    1.73
  -1   7   2   37.09    1.81
  -1   7   2   35.84    1.67
  -1   7   2   36.70    1.69
  -1   7   2   36.35    1.62
  -1   7   2   39.99    2.00
  -1   7   2   36.40    1.65
   0  -7  -2    9.91    0.57
   0   7   2   10.06    0.50
   0   7   2   10.24    0.60
   0   7   2    8.92    0.78
   0   7   2    8.38    0.91
   0   7   2    9.69    0.48
   0   7   2    9.63    0.55
   0   7   2    9.28    0.52
  -1  -7  -2    0.98    0.18
   1   7   2    1.54    0.35
   1   7   2    1.12    0.22
   1   7   2    1.72    0.22
   1   7   2    1.62    0.30
   1   7   2    1.01    0.15
   1   7   2    1.04    0.31
   1   7   2    0.91    0.13
   1   7   2    1.00    0.13
  -2  -7  -2    0.27    0.15
   2   7   2    0.63    0.29
   2   7   2    0.27    0.14
   2   7   2    0.37    0.16
   2   7   2    0.38    0.10
   2   7   2    0.40    0.20
   2   7   2    0.36    0.22
   2   7   2    0.40    0.09
  -3  -7  -2   10.20    0.71
  -3  -7  -2   11.48    0.68
   3   7   2   10.10    0.60
   3   7   2   10.12    0.62
   3   7   2   12.31    0.69
   3   7   2   10.59    0.53
   3   7   2   11.19    0.56
   3   7   2   10.66    0.70
  -4  -7  -2    5.65    0.44
   4   7   2    5.96    0.35
   4   7   2    6.38    0.48
   4   7   2    5.45    0.44
   4   7   2    5.05    0.38
  -5  -7  -2    2.57    0.30
   5   7   2    2.47    0.30
   5   7   2    3.05    0.26
   5   7   2    3.43    0.27
  -6  -7  -2    0.17    0.11
   6   7   2    0.49    0.11
  -2   8   2   13.25    0.75
  -2   8   2   15.44    0.71
  -2   8   2   14.56    0.83
  -2   8   2   15.76    0.72
  -1   8   2    0.75    0.24
  -1   8   2    0.65    0.14
  -1   8   2    0.93    0.14
  -1   8   2    1.06    0.24
   0   8   2   24.58    1.26
   0   8   2   24.78    1.16
   0   8   2   24.61    1.17
   0   8   2   24.16    1.10
   0   8   2   23.69    1.43
  -1  -8  -2   14.77    0.84
  -1  -8  -2   15.74    0.85
   1   8   2   14.35    0.87
   1   8   2   15.11    0.77
   1   8   2   16.76    0.90
   1   8   2   14.08    0.90
   1   8   2   15.65    0.73
  -2  -8  -2   26.87    1.30
  -2  -8  -2   26.68    1.36
   2   8   2   25.92    1.13
   2   8   2   26.38    1.50
   2   8   2   24.81    1.54
   2   8   2   23.04    1.33
  -3  -8  -2   15.12    0.85
   3   8   2   14.95    0.86
   3   8   2   18.54    0.86
   3   8   2   14.57    0.79
   3   8   2   15.99    0.75
   3   8   2   15.81    0.80
  -4  -8  -2    1.85    0.26
   4   8   2    1.45    0.20
   4   8   2    1.69    0.25
   4   8   2    1.78    0.21
  -5  -8  -2    6.54    0.42
   5   8   2    5.82    0.35
   5   8   2    6.92    0.39
  -6  -8  -2    0.49    0.11
  -1   9   2    6.97    0.38
  -1   9   2    6.90    0.50
  -1   9   2    6.92    0.37
   0   9   2    2.59    0.24
   0   9   2    3.19    0.25
   0   9   2    2.75    0.23
   0   9   2    2.57    0.34
  -1  -9  -2    1.44    0.23
   1   9   2    1.56    0.17
   1   9   2    1.15    0.18
   1   9   2    1.43    0.18
   1   9   2    1.08    0.26
   1   9   2    1.63    0.23
  -2  -9  -2   65.07    2.73
   2   9   2   62.24    2.73
   2   9   2   66.11    2.79
   2   9   2   62.51    2.70
   2   9   2   65.78    2.68
   2   9   2   62.81    2.71
   2   9   2   59.25    2.91
  -3  -9  -2    4.12    0.35
   3   9   2    4.13    0.34
   3   9   2    4.61    0.28
   3   9   2    3.91    0.51
   3   9   2    4.17    0.31
   3   9   2    4.25    0.30
  -4  -9  -2    2.04    0.23
   4   9   2    2.41    0.20
  -5  -9  -2   14.71    0.71
   0  10   2    2.81    0.21
   0  10   2    2.81    0.20
   1  10   2    4.65    0.29
   1  10   2    4.81    0.39
   1  10   2    4.92    0.29
  -2 -10  -2   10.45    0.52
   2  10   2   10.05    0.51
   2  10   2   10.19    0.52
  -3 -10  -2    6.06    0.35
   3  10   2    4.71    0.29
   3  10   2    5.88    0.30
  -4 -10  -2    9.36    0.46
   4  10   2    9.42    0.49
   3  10  -3    2.34    0.17
   3  10  -3    3.35    0.22
  -3 -10   3    2.80    0.21
   2  10  -3    3.52    0.28
   2  10  -3    3.08    0.21
   2  10  -3    2.91    0.19
   2  10  -3    2.76    0.27
  -2 -10   3    2.98    0.26
   1  10  -3    2.89    0.37
   1  10  -3    2.75    0.18
   1  10  -3    3.10    0.25
  -1 -10   3    2.84    0.23
   0  10  -3    1.99    0.20
   0  10  -3    2.70    0.16
   5   9  -3    0.09    0.09
   4   9  -3    3.59    0.29
   4   9  -3    3.44    0.23
  -4  -9   3    3.23    0.29
   3   9  -3   -0.04    0.14
   3   9  -3   -0.01    0.11
   3   9  -3   -0.05    0.07
   3   9  -3   -0.09    0.17
  -3  -9   3    0.08    0.12
   2   9  -3    1.48    0.17
   2   9  -3    1.24    0.20
   2   9  -3    1.52    0.31
   2   9  -3    1.49    0.20
   2   9  -3    1.46    0.16
   1   9  -3    1.30    0.18
   1   9  -3    1.27    0.29
   1   9  -3    1.41    0.18
   1   9  -3    1.07    0.15
   1   9  -3    1.39    0.21
   0   9  -3    0.34    0.14
   0   9  -3    0.03    0.08
   0   9  -3    0.10    0.13
   0   9  -3    0.08    0.10
  -1   9  -3    0.64    0.11
  -1   9  -3    0.64    0.17
   5   8  -3    6.63    0.37
  -5  -8   3    7.10    0.46
   4   8  -3    4.26    0.30
   4   8  -3    3.94    0.27
   4   8  -3    4.20    0.39
  -4  -8   3    3.94    0.39
   3   8  -3    9.79    0.52
   3   8  -3    9.85    0.57
   3   8  -3   10.98    0.60
   3   8  -3   10.38    0.68
   3   8  -3   10.11    0.82
   2   8  -3    8.39    0.46
   2   8  -3    8.06    0.52
   2   8  -3    9.38    0.61
   2   8  -3    8.96    0.52
   2   8  -3    8.16    0.73
   1   8  -3    1.13    0.18
   1   8  -3    0.98    0.14
   1   8  -3    1.45    0.38
   1   8  -3    0.82    0.16
   1   8  -3    0.74    0.19
   0   8  -3   13.07    0.95
   0   8  -3   12.46    0.72
   0   8  -3   12.29    0.62
   0   8  -3   12.93    0.69
   0   8  -3   12.79    0.67
  -1   8  -3    1.68    0.31
  -1   8  -3    1.68    0.22
  -1   8  -3    1.80    0.26
  -1   8  -3    1.68    0.22
  -1   8  -3    1.63    0.22
  -2   8  -3    0.22    0.17
   6   7  -3    2.54    0.19
   5   7  -3    6.50    0.39
   5   7  -3    6.41    0.36
  -5  -7   3    6.41    0.53
   4   7  -3   45.68    2.12
   4   7  -3   45.32    1.98
   4   7  -3   45.88    1.93
  -4  -7   3   42.80    2.07
   3   7  -3   88.58    3.67
   3   7  -3   86.93    3.60
   3   7  -3   89.10    3.80
   3   7  -3   89.02    3.97
   3   7  -3   85.25    3.56
  -3  -7   3   80.95    3.68
   2   7  -3   20.31    1.33
   2   7  -3   21.16    0.96
   2   7  -3   21.81    1.16
   2   7  -3   20.41    1.05
   2   7  -3   22.38    0.99
   2   7  -3   23.18    1.06
  -2  -7   3   20.67    1.06
   1   7  -3   35.74    1.47
   1   7  -3   31.59    1.38
   1   7  -3   31.36    1.48
   1   7  -3   32.62    1.81
   1   7  -3   29.16    1.51
   1   7  -3   29.51    1.36
  -1  -7   3   30.46    1.46
   0   7  -3   15.79    0.74
   0   7  -3   14.67    0.83
   0   7  -3   14.27    0.73
   0   7  -3   17.27    0.82
   0   7  -3   14.82    0.86
   0   7  -3   16.44    1.12
   0  -7   3   16.17    0.83
  -1   7  -3    0.12    0.17
  -1   7  -3    0.13    0.16
  -1   7  -3    0.10    0.20
  -1   7  -3   -0.08    0.14
  -1   7  -3    0.08    0.12
  -2   7  -3    1.74    0.35
  -2   7  -3    1.17    0.19
   6   6  -3    6.15    0.34
  -6  -6   3    6.13    0.40
   5   6  -3    1.12    0.18
   5   6  -3    1.84    0.19
  -5  -6   3    1.40    0.25
  -5  -6   3    1.02    0.24
   4   6  -3    9.94    0.53
   4   6  -3   10.16    0.72
   4   6  -3    9.75    0.57
  -4  -6   3    9.88    0.63
  -4  -6   3    8.53    0.65
   3   6  -3   43.39    1.99
   3   6  -3   39.55    1.77
   3   6  -3   40.47    1.84
  -3  -6   3   40.78    1.84
   2   6  -3    3.80    0.27
   2   6  -3    4.39    0.24
  -2  -6   3    3.86    0.32
   1   6  -3  112.21    4.54
   1   6  -3  112.09    4.52
  -1  -6   3  107.94    4.59
   0   6  -3   23.48    1.05
   0   6  -3   23.17    1.04
   0  -6   3   24.67    1.12
  -1   6  -3    0.24    0.16
  -1   6  -3    0.53    0.22
  -1   6  -3    0.23    0.19
  -1   6  -3    0.12    0.10
  -1   6  -3    0.40    0.10
  -1   6  -3    0.26    0.24
   1  -6   3    0.37    0.14
  -2   6  -3   -0.01    0.14
  -2   6  -3    0.06    0.19
  -2   6  -3   -0.03    0.21
  -2   6  -3    0.31    0.26
   2  -6   3    0.01    0.21
   6   5  -3    2.55    0.22
  -6  -5   3    2.44    0.29
   5   5  -3    0.40    0.11
  -5  -5   3    0.28    0.19
   4   5  -3  247.44    9.55
   4   5  -3  241.42    9.47
   4   5  -3  207.49    9.63
  -4  -5   3  233.85    9.61
  -4  -5   3  236.78    9.51
  -4  -5   3  231.11    9.68
   3   5  -3  139.35    5.51
   3   5  -3  136.30    5.58
  -3  -5   3  133.24    5.63
   2   5  -3   17.98    0.83
   2   5  -3   18.45    0.79
  -2  -5   3   18.02    0.87
   1   5  -3  296.18   12.43
   1   5  -3  313.46   12.41
  -1  -5   3  316.76   12.48
   0   5  -3  128.83    5.39
   0   5  -3  134.66    5.40
   0   5  -3  133.77    5.38
   0  -5   3  134.08    5.44
  -1   5  -3    5.74    0.31
  -1   5  -3    4.96    0.29
  -1   5  -3    5.22    0.34
   1  -5   3    5.78    0.34
  -2   5  -3    3.18    0.24
  -2   5  -3    2.82    0.23
   2  -5   3    2.84    0.27
   6   4  -3    9.60    0.52
   6   4  -3    9.95    0.63
  -6  -4   3   10.06    0.73
  -6  -4   3    8.92    0.56
   5   4  -3   15.13    0.77
   5   4  -3   15.57    0.80
  -5  -4   3   13.84    0.84
  -5  -4   3   13.96    0.90
   4   4  -3  222.76    8.30
   4   4  -3  188.35    8.21
  -4  -4   3  188.56    8.14
   3   4  -3    1.84    0.18
   3   4  -3    1.78    0.13
   2   4  -3   13.29    0.57
   2   4  -3   12.85    0.61
  -2  -4   3   12.99    0.64
   1   4  -3   46.81    1.89
   1   4  -3   43.89    1.91
  -1  -4   3   47.35    1.94
   0   4  -3    3.21    0.20
   0   4  -3    3.32    0.18
   0   4  -3    3.17    0.19
   0  -4   3    3.18    0.21
  -1   4  -3    5.50    0.28
  -1   4  -3    5.62    0.28
  -1   4  -3    5.78    0.29
  -1   4  -3    4.96    0.31
   1  -4   3    5.04    0.29
   1  -4   3    5.80    0.31
  -2   4  -3    1.26    0.14
  -2   4  -3    1.41    0.15
  -2   4  -3    1.21    0.17
  -2   4  -3    1.79    0.16
   2  -4   3    1.74    0.19
   2  -4   3    1.55    0.17
  -3   4  -3    3.35    0.42
  -3   4  -3    2.77    0.42
  -3   4  -3    3.03    0.23
  -4   4  -3    1.56    0.19
  -4   4  -3    1.89    0.25
  -4   4  -3    2.45    0.31
  -4   4  -3    2.06    0.30
  -5   4  -3    0.35    0.12
  -7  -3   3    0.05    0.08
   6   3  -3   19.19    0.95
   6   3  -3   19.64    0.93
  -6  -3   3   19.35    0.99
  -6  -3   3   20.77    1.02
   5   3  -3   11.25    0.66
   5   3  -3   11.84    0.62
  -5  -3   3   10.00    0.63
  -5  -3   3   11.37    0.72
  -5  -3   3   11.62    0.73
   4   3  -3   24.88    1.11
  -4  -3   3   22.83    1.10
  -4  -3   3   24.22    1.04
   3   3  -3   15.76    0.75
   3   3  -3   15.71    0.69
  -3  -3   3   16.24    0.69
  -3  -3   3   15.52    0.75
   2   3  -3    3.91    0.19
   2   3  -3    3.45    0.23
   2   3  -3    3.79    0.18
  -2  -3   3    4.05    0.26
   1   3  -3    3.64    0.16
   1   3  -3    3.53    0.17
  -1  -3   3    3.36    0.21
   0   3  -3   25.15    1.03
   0   3  -3   24.99    1.05
   0   3  -3   24.96    1.04
   0  -3   3   24.89    1.07
  -1   3  -3  220.95    8.82
  -1   3  -3  222.86    8.83
  -1   3  -3  215.62    8.82
   1  -3   3  218.08    8.83
  -2   3  -3    0.24    0.06
  -2   3  -3    0.37    0.07
  -2   3  -3    0.26    0.06
  -3   3  -3   19.78    0.85
  -3   3  -3   19.08    0.89
   3  -3   3   18.70    0.91
  -4   3  -3    2.38    0.32
  -4   3  -3    2.37    0.20
  -4   3  -3    2.42    0.30
  -4   3  -3    2.30    0.33
  -5   3  -3    6.39    0.44
  -5   3  -3    6.26    0.40
  -5   3  -3    5.79    0.43
  -6   3  -3    2.77    0.25
  -7  -2   3    1.55    0.15
   6   2  -3    6.75    0.43
   6   2  -3    6.16    0.42
  -6  -2   3    6.45    0.44
  -6  -2   3    6.65    0.49
  -6  -2   3    5.55    0.46
   5   2  -3    1.14    0.23
   5   2  -3    0.99    0.18
  -5  -2   3    0.83    0.14
  -5  -2   3    1.10    0.26
  -5  -2   3    1.29    0.23
  -5  -2   3    0.77    0.26
  -5  -2   3    0.82    0.24
   4   2  -3   12.10    0.65
   4   2  -3   13.14    0.61
  -4  -2   3   12.47    0.58
  -4  -2   3   12.51    0.64
   3   2  -3   23.52    0.98
   3   2  -3   22.50    1.03
  -3  -2   3   22.53    1.02
   2   2  -3  178.01    7.29
   2   2  -3  187.57    7.31
  -2  -2   3  179.77    7.35
   1   2  -3   38.48    1.59
   1   2  -3   39.73    1.59
  -1  -2   3   39.16    1.63
   0   2  -3   60.26    2.49
   0   2  -3   61.74    2.49
   0  -2   3   62.73    2.51
  -1   2  -3    3.77    0.20
  -1   2  -3    3.97    0.19
  -1   2  -3    3.95    0.20
   1  -2   3    4.16    0.20
  -2   2  -3  178.92    7.13
  -2   2  -3  174.75    7.11
  -2   2  -3  172.28    7.12
  -2   2  -3  181.53    7.17
   2  -2   3  176.71    7.13
  -3   2  -3   76.60    3.09
   3  -2   3   71.27    3.05
   3  -2   3   75.17    3.12
  -4   2  -3   16.90    1.00
  -4   2  -3   15.23    0.93
  -4   2  -3   17.76    0.78
  -4   2  -3   17.32    0.97
  -5   2  -3    0.40    0.16
  -5   2  -3    0.30    0.12
  -5   2  -3    0.36    0.15
  -5   2  -3    0.30    0.14
  -6   2  -3    4.47    0.32
  -6   2  -3    4.94    0.30
  -6   2  -3    4.52    0.32
   6   1  -3    2.64    0.29
  -6  -1   3    2.35    0.31
  -6  -1   3    2.54    0.31
  -6  -1   3    2.48    0.27
   5   1  -3    1.02    0.25
   5   1  -3    0.83    0.18
  -5  -1   3    0.83    0.22
  -5  -1   3    1.02    0.20
  -5  -1   3    0.89    0.23
  -5  -1   3    1.03    0.24
   4   1  -3    4.53    0.33
   4   1  -3    4.54    0.29
  -4  -1   3    4.45    0.26
  -4  -1   3    4.49    0.31
   3   1  -3   25.51    1.04
   3   1  -3   23.92    1.09
  -3  -1   3   23.40    1.06
  -3  -1   3   24.14    1.02
  -3  -1   3   23.69    1.06
   2   1  -3  283.10   10.81
  -2  -1   3  267.99   10.80
  -2  -1   3  256.94   10.83
   1   1  -3  212.36    8.12
   1   1  -3  195.90    8.12
  -1  -1   3  199.66    8.15
  -2   1  -3   70.02    2.95
  -2   1  -3   74.35    2.96
  -2   1  -3   72.75    2.95
   2  -1   3   72.40    2.94
  -3   1  -3   22.73    0.98
  -3   1  -3   22.09    1.00
   3  -1   3   22.40    0.96
  -4   1  -3    2.33    0.20
  -4   1  -3    2.55    0.24
   4  -1   3    2.96    0.41
  -5   1  -3    4.48    0.36
  -5   1  -3    4.57    0.29
  -5   1  -3    4.67    0.42
  -5   1  -3    4.64    0.40
  -6   1  -3    0.30    0.11
  -6   1  -3    0.18    0.10
  -6   1  -3    0.17    0.12
   6   0  -3    0.53    0.17
  -6   0   3   -0.01    0.13
  -6   0   3    0.04    0.14
  -6   0   3    0.01    0.11
  -6   0   3    0.16    0.12
   5   0  -3   17.16    1.04
  -5   0   3   16.02    1.07
  -5   0   3   16.97    1.04
  -5   0   3   16.62    1.03
  -5   0   3   15.56    1.03
  -5   0   3   16.95    0.79
   4   0  -3    1.09    0.15
   4   0  -3    1.42    0.22
  -4   0   3    1.30    0.14
  -4   0   3    1.41    0.17
  -4   0   3    1.17    0.18
   3   0  -3  350.01   14.54
   3   0  -3  362.79   14.48
  -3   0   3  361.09   14.49
  -3   0   3  367.33   14.46
  -3   0   3  359.55   14.49
   1   0  -3    7.27    0.33
  -1   0   3    7.79    0.35
   0   0  -3    3.27    0.15
   0   0  -3    3.10    0.15
   0   0   3    3.20    0.15
   0   0   3    3.35    0.16
  -1   0  -3  168.99    6.55
  -1   0  -3  157.92    6.55
   1   0   3  162.20    6.54
  -2   0  -3   38.06    1.56
  -2   0  -3   36.39    1.56
   2   0   3   38.31    1.55
  -3   0  -3    1.12    0.12
   3   0   3    1.10    0.11
  -4   0  -3    0.02    0.07
  -4   0  -3    0.22    0.07
   4   0   3    0.14    0.09
  -5   0  -3    1.49    0.26
  -5   0  -3    1.63    0.25
  -5   0  -3    1.43    0.16
  -5   0  -3    1.30    0.24
  -6   0  -3    0.07    0.11
  -6   0  -3   -0.07    0.08
  -6   0  -3    0.06    0.10
   6  -1  -3    2.05    0.28
  -6   1   3    2.01    0.30
  -6   1   3    1.78    0.36
  -6   1   3    2.01    0.26
  -6   1   3    2.01    0.21
   5  -1  -3    5.56    0.46
  -5   1   3    5.68    0.33
  -5   1   3    5.39    0.48
  -5   1   3    5.35    0.53
  -5   1   3    5.63    0.43
  -5   1   3    5.80    0.45
   4  -1  -3    5.50    0.41
  -4   1   3    5.38    0.31
  -4   1   3    5.21    0.36
  -4   1   3    5.04    0.35
   3  -1  -3   78.39    3.36
  -3   1   3   81.67    3.38
  -3   1   3   83.80    3.39
  -3   1   3   83.53    3.34
   2  -1  -3  312.36   12.84
  -2   1   3  319.55   12.85
  -2   1   3  327.38   12.83
   1  -1  -3   21.41    0.88
  -1   1   3   20.70    0.89
  -2  -1  -3   30.81    1.32
  -2  -1  -3   31.98    1.32
   2   1   3   32.14    1.30
  -3  -1  -3    2.80    0.19
  -3  -1  -3    2.84    0.19
   3   1   3    3.06    0.17
  -4  -1  -3    0.94    0.13
  -4  -1  -3    0.82    0.12
   4   1   3    1.07    0.16
  -5  -1  -3   16.94    0.93
  -5  -1  -3   16.03    0.94
  -5  -1  -3   16.44    0.87
  -5  -1  -3   16.37    0.78
  -6  -1  -3    1.29    0.20
  -6  -1  -3    1.24    0.20
  -6  -1  -3    1.23    0.22
  -7  -1  -3    0.18    0.08
  -7  -1  -3    0.16    0.07
  -7  -1  -3   -0.02    0.11
   7   1   3    0.01    0.08
  -6   2   3    0.09    0.10
  -6   2   3    0.08    0.08
   5  -2  -3    0.35    0.19
  -5   2   3    0.27    0.17
  -5   2   3    0.13    0.15
  -5   2   3    0.41    0.18
  -5   2   3    0.62    0.17
   4  -2  -3    0.82    0.19
  -4   2   3    0.95    0.13
  -4   2   3    0.91    0.17
  -4   2   3    1.01    0.26
  -4   2   3    0.66    0.27
  -4   2   3    0.96    0.24
  -4   2   3    1.12    0.18
   3  -2  -3   47.50    2.07
  -3   2   3   49.66    2.05
  -3   2   3   50.65    2.10
   2  -2  -3  137.25    5.67
  -2   2   3  138.00    5.68
  -2   2   3  141.38    5.65
  -2   2   3  143.80    5.69
  -1   2   3  405.26   16.22
  -1  -2  -3    4.79    0.22
   1   2   3    4.56    0.22
   1   2   3    4.83    0.22
  -2  -2  -3  160.15    6.66
  -2  -2  -3  164.16    6.63
  -2  -2  -3  167.31    6.65
   2   2   3  168.96    6.64
  -3  -2  -3   98.06    4.04
   3   2   3   99.78    4.01
  -4  -2  -3    3.13    0.23
  -4  -2  -3    3.14    0.23
   4   2   3    2.91    0.25
  -5  -2  -3   15.79    0.87
  -5  -2  -3   14.29    0.73
  -5  -2  -3   15.65    0.82
  -5  -2  -3   16.26    0.90
  -5  -2  -3   13.66    0.81
  -6  -2  -3   25.37    1.28
  -6  -2  -3   28.15    1.39
  -6  -2  -3   26.41    1.17
  -7  -2  -3    4.25    0.25
  -7  -2  -3    4.17    0.28
   7   2   3    4.58    0.29
  -6   3   3    1.54    0.16
  -6   3   3    1.71    0.16
   5  -3  -3    5.08    0.43
  -5   3   3    4.83    0.40
  -5   3   3    4.04    0.41
  -5   3   3    4.60    0.34
   4  -3  -3   23.18    1.33
  -4   3   3   27.05    1.19
  -4   3   3   27.34    1.42
  -4   3   3   29.77    1.30
  -4   3   3   28.00    1.33
  -4   3   3   27.55    1.26
  -4   3   3   27.21    1.49
   3  -3  -3    5.56    0.34
  -3   3   3    5.83    0.36
  -3   3   3    6.35    0.38
  -3   3   3    5.57    0.32
   2  -3  -3   22.09    0.97
  -2   3   3   22.73    0.96
  -2   3   3   22.63    0.99
  -2   3   3   21.64    0.99
   1  -3  -3    6.04    0.28
  -1   3   3    5.87    0.27
  -1   3   3    5.77    0.31
  -1   3   3    5.95    0.29
   0  -3  -3   31.54    1.25
   0  -3  -3   31.06    1.27
   0   3   3   28.29    1.26
   0   3   3   29.12    1.24
   0   3   3   31.20    1.27
  -1  -3  -3   14.25    0.62
  -1  -3  -3   14.04    0.58
   1   3   3   13.34    0.59
  -2  -3  -3   25.17    1.08
  -2  -3  -3   25.62    1.05
  -2  -3  -3   25.11    1.06
   2   3   3   24.63    1.05
  -3  -3  -3   57.53    2.45
  -3  -3  -3   58.47    2.42
   3   3   3   60.51    2.41
  -4  -3  -3   29.72    1.30
  -4  -3  -3   30.16    1.32
   4   3   3   29.21    1.26
   4   3   3   30.47    1.32
  -5  -3  -3    2.60    0.33
  -5  -3  -3    2.22    0.23
  -5  -3  -3    1.94    0.27
  -5  -3  -3    2.39    0.32
  -5  -3  -3    2.57    0.36
  -6  -3  -3    0.80    0.17
  -6  -3  -3    0.76    0.20
  -6  -3  -3    0.96    0.18
  -6  -3  -3    0.81    0.18
  -6  -3  -3    0.90    0.17
   6   3   3    0.84    0.19
  -7  -3  -3    0.73    0.17
  -7  -3  -3    0.57    0.10
   7   3   3    0.56    0.15
  -5   4   3    2.49    0.23
  -5   4   3    2.66    0.26
  -5   4   3    2.84    0.29
   4  -4  -3   16.62    0.99
  -4   4   3   19.80    1.05
  -4   4   3   19.48    0.96
  -4   4   3   18.40    0.91
  -4   4   3   19.71    1.11
  -4   4   3   18.46    0.86
  -3   4   3    3.92    0.31
  -3   4   3    4.02    0.31
  -3   4   3    4.39    0.50
  -3   4   3    3.51    0.26
  -3   4   3    4.05    0.56
  -3   4   3    4.06    0.67
   2  -4  -3   20.30    0.89
  -2   4   3   20.62    0.92
  -2   4   3   19.89    0.89
  -2   4   3   19.91    0.93
   1  -4  -3   37.74    1.53
   1  -4  -3   36.16    1.52
  -1   4   3   36.66    1.51
  -1   4   3   35.96    1.56
  -1   4   3   37.77    1.54
  -1   4   3   35.30    1.54
   0  -4  -3   91.26    3.59
   0  -4  -3   91.25    3.54
   0   4   3   82.71    3.55
   0   4   3   85.49    3.54
   0   4   3   86.77    3.58
   1   4   3    0.81    0.09
  -2  -4  -3   37.16    1.62
  -2  -4  -3   39.48    1.58
  -2  -4  -3   37.50    1.62
   2   4   3   38.84    1.60
   2   4   3   39.34    1.62
   2   4   3   37.54    1.59
  -3  -4  -3    3.99    0.26
  -3  -4  -3    4.04    0.30
   3   4   3    4.54    0.24
   3   4   3    4.50    0.26
  -4  -4  -3   50.46    2.19
   4   4   3   51.23    2.14
   4   4   3   53.25    2.16
  -5  -4  -3   72.92    3.20
  -5  -4  -3   77.12    3.15
  -5  -4  -3   78.82    3.33
  -5  -4  -3   71.37    3.22
   5   4   3   76.97    3.30
  -6  -4  -3   19.21    0.93
  -6  -4  -3   21.30    0.96
  -6  -4  -3   19.66    1.03
   6   4   3   19.98    1.03
   7   4   3    2.59    0.22
  -5   5   3    2.87    0.21
   4  -5  -3    1.60    0.27
  -4   5   3    1.65    0.21
  -4   5   3    1.79    0.28
  -4   5   3    1.86    0.26
  -4   5   3    1.94    0.24
   3  -5  -3   24.17    1.24
  -3   5   3   26.64    1.24
  -3   5   3   28.27    1.76
  -3   5   3   26.23    1.22
  -3   5   3   26.94    1.24
  -3   5   3   28.25    1.51
  -3   5   3   29.47    1.39
   2  -5  -3    0.18    0.08
  -2   5   3    0.03    0.09
  -2   5   3    0.21    0.27
  -2   5   3    0.25    0.16
  -2   5   3    0.07    0.10
   1  -5  -3    4.86    0.29
  -1   5   3    4.95    0.26
  -1   5   3    4.70    0.30
  -1   5   3    4.67    0.29
  -1   5   3    4.93    0.29
   0  -5  -3  132.97    5.43
   0   5   3  133.35    5.42
   0   5   3  135.14    5.40
   0   5   3  132.76    5.44
  -1  -5  -3    4.55    0.28
   1   5   3    4.84    0.27
   1   5   3    4.72    0.25
   1   5   3    4.88    0.26
  -2  -5  -3    0.05    0.07
  -2  -5  -3    0.11    0.08
   2   5   3    0.20    0.06
   2   5   3    0.12    0.07
   2   5   3    0.12    0.04
  -3  -5  -3   53.07    2.28
  -3  -5  -3   51.31    2.25
   3   5   3   52.39    2.21
   3   5   3   56.75    2.35
  -4  -5  -3    0.36    0.17
  -4  -5  -3    0.19    0.11
  -4  -5  -3    0.20    0.18
   4   5   3    0.17    0.19
   4   5   3    0.07    0.08
   4   5   3    0.15    0.10
  -5  -5  -3    5.56    0.37
  -5  -5  -3    5.16    0.51
  -5  -5  -3    4.92    0.43
   5   5   3    5.08    0.45
  -6  -5  -3    7.86    0.47
  -6  -5  -3    6.99    0.49
   6   5   3    8.17    0.52
   7   5   3    1.25    0.15
  -4   6   3    0.52    0.14
  -4   6   3    0.49    0.11
   3  -6  -3   23.89    1.07
  -3   6   3   21.46    1.22
  -3   6   3   24.21    1.08
  -3   6   3   25.91    1.13
  -3   6   3   21.87    1.11
   2  -6  -3    0.79    0.14
  -2   6   3    0.38    0.15
  -2   6   3    0.39    0.11
  -2   6   3    0.58    0.25
  -2   6   3    0.51    0.23
  -2   6   3    0.30    0.12
   1  -6  -3   13.93    0.67
  -1   6   3   13.06    0.71
  -1   6   3   14.39    0.99
  -1   6   3   14.01    0.64
  -1   6   3   13.50    0.68
  -1   6   3   13.04    0.88
  -1   6   3   13.68    0.74
   0  -6  -3   57.94    2.45
   0   6   3   58.83    2.47
   0   6   3   58.06    2.42
   0   6   3   59.18    2.44
  -1  -6  -3   41.42    1.80
  -1  -6  -3   40.47    1.77
   1   6   3   42.00    1.74
   1   6   3   41.30    1.77
   1   6   3   41.50    1.75
  -2  -6  -3   11.90    0.61
  -2  -6  -3   11.77    0.64
   2   6   3   12.31    0.58
   2   6   3   11.96    0.57
   2   6   3   12.12    0.61
  -3  -6  -3   -0.01    0.10
  -3  -6  -3    0.26    0.19
   3   6   3    0.02    0.07
   3   6   3   -0.02    0.08
  -4  -6  -3    9.16    0.62
  -4  -6  -3   10.30    0.55
   4   6   3   11.38    0.53
   4   6   3    9.59    0.58
   4   6   3   10.14    0.50
   4   6   3    9.93    0.69
  -5  -6  -3    5.74    0.43
   5   6   3    5.35    0.45
  -6  -6  -3    2.21    0.26
   6   6   3    2.58    0.28
  -3   7   3   14.97    0.73
  -3   7   3   15.72    0.81
   2  -7  -3    3.87    0.42
  -2   7   3    3.81    0.34
  -2   7   3    3.77    0.42
  -2   7   3    4.46    0.32
  -2   7   3    3.94    0.42
  -2   7   3    4.38    0.30
  -1   7   3   20.37    0.97
  -1   7   3   19.71    1.13
  -1   7   3   19.83    0.99
  -1   7   3   21.02    1.27
  -1   7   3   21.43    1.01
  -1   7   3   20.16    0.95
   0  -7  -3   25.05    1.14
   0  -7  -3   25.19    1.19
   0   7   3   24.20    1.18
   0   7   3   24.45    1.11
   0   7   3   24.69    1.20
   0   7   3   24.91    1.15
   0   7   3   26.76    1.51
   0   7   3   25.97    1.32
   0   7   3   24.29    1.10
  -1  -7  -3   85.71    3.59
  -1  -7  -3   82.41    3.53
   1   7   3   85.83    3.51
   1   7   3   82.67    3.49
   1   7   3   80.08    3.57
   1   7   3   91.16    3.68
   1   7   3   82.37    3.54
   1   7   3   82.27    3.63
   1   7   3   93.91    3.98
   1   7   3   83.24    3.65
  -2  -7  -3   93.10    4.01
  -2  -7  -3   91.87    4.04
   2   7   3   90.65    4.06
   2   7   3   97.20    3.92
   2   7   3   93.44    4.03
   2   7   3   86.66    4.14
   2   7   3   94.53    3.91
   2   7   3  107.61    4.08
   2   7   3  101.44    4.35
  -3  -7  -3   10.19    0.63
  -3  -7  -3    8.46    0.69
   3   7   3   10.45    0.63
   3   7   3    9.82    0.49
   3   7   3    8.72    0.57
   3   7   3    9.01    0.56
   3   7   3    8.95    0.63
   3   7   3   10.47    0.50
  -4  -7  -3    0.07    0.12
   4   7   3    0.01    0.15
   4   7   3    0.04    0.11
   4   7   3    0.05    0.13
  -5  -7  -3    5.59    0.42
   5   7   3    6.51    0.45
  -6  -7  -3    0.51    0.11
   6   7   3    0.48    0.11
  -2   8   3   10.52    0.52
  -2   8   3   10.39    0.59
  -2   8   3    8.82    0.61
  -2   8   3   11.87    0.55
  -1   8   3   12.50    0.65
  -1   8   3   11.92    0.92
  -1   8   3   12.42    0.67
  -1   8   3   12.48    0.76
  -1   8   3   13.20    0.66
   0   8   3   23.75    1.10
   0   8   3   21.83    1.09
   0   8   3   24.14    1.39
   0   8   3   21.53    1.19
   0   8   3   22.86    1.04
  -1  -8  -3   10.76    0.66
   1   8   3   10.87    0.59
   1   8   3   10.91    0.67
   1   8   3   11.71    0.71
   1   8   3   10.85    0.61
   1   8   3   10.61    0.69
   1   8   3   11.43    0.86
  -2  -8  -3   54.89    2.47
   2   8   3   54.20    2.42
   2   8   3   60.84    2.51
   2   8   3   56.41    2.40
   2   8   3   53.38    2.44
   2   8   3   55.85    2.72
   2   8   3   60.27    2.46
   2   8   3   55.03    2.49
  -3  -8  -3   15.07    0.83
   3   8   3   14.17    0.78
   3   8   3   16.09    0.73
   3   8   3   14.65    0.84
   3   8   3   16.29    0.82
   3   8   3   15.75    0.79
  -4  -8  -3   70.56    3.11
   4   8   3   70.75    3.04
   4   8   3   71.62    3.00
   4   8   3   77.61    3.12
  -5  -8  -3   14.12    0.73
   5   8   3   14.88    0.72
  -6  -8  -3   10.58    0.56
  -2   9   3    1.01    0.12
  -1   9   3    6.18    0.50
  -1   9   3    7.14    0.50
  -1   9   3    6.74    0.37
   0   9   3   14.36    0.71
   0   9   3   15.57    0.68
   0   9   3   15.14    0.71
   0   9   3   11.98    0.85
   0   9   3   13.85    0.77
   1   9   3    9.84    0.48
   1   9   3    9.59    0.53
   1   9   3    8.82    0.59
   1   9   3   10.13    0.73
   1   9   3    8.18    0.51
  -2  -9  -3    3.89    0.35
   2   9   3    3.17    0.33
   2   9   3    4.22    0.26
   2   9   3    3.36    0.42
   2   9   3    4.00    0.29
   2   9   3    3.68    0.31
   2   9   3    4.12    0.36
  -3  -9  -3    8.91    0.53
   3   9   3    8.18    0.49
   3   9   3    9.76    0.54
   3   9   3    8.71    0.49
   3   9   3    9.33    0.46
  -4  -9  -3   15.51    0.77
   4   9   3   15.29    0.73
   4   9   3   15.12    0.71
  -5  -9  -3    7.69    0.44
   0  10   3   -0.06    0.06
   0  10   3    0.02    0.07
   0  10   3    0.01    0.12
   1  10   3    2.96    0.22
   1  10   3    2.90    0.29
   1  10   3    2.88    0.21
   2  10   3    1.37    0.15
   2  10   3    1.09    0.13
   2  10   3    1.05    0.20
  -3 -10  -3   14.32    0.64
   3  10   3   13.28    0.60
   3  10   3   12.60    0.62
  -4 -10  -3    6.33    0.33
   3  10  -4   -0.04    0.07
  -3 -10   4    0.07    0.08
   2  10  -4    2.34    0.23
   2  10  -4    2.58    0.20
   2  10  -4    2.68    0.25
   2  10  -4    2.30    0.16
  -2 -10   4    2.52    0.20
   1  10  -4    0.13    0.06
   1  10  -4    0.06    0.09
  -1 -10   4    0.13    0.10
   4   9  -4    0.89    0.11
   4   9  -4    0.77    0.15
  -4  -9   4    0.44    0.12
   3   9  -4    8.22    0.61
   3   9  -4   11.52    0.63
   3   9  -4   11.47    0.63
  -3  -9   4    9.46    0.62
   2   9  -4    3.52    0.40
   2   9  -4    3.27    0.25
   2   9  -4    2.87    0.30
   2   9  -4    3.29    0.26
   2   9  -4    3.52    0.32
   1   9  -4    0.59    0.12
   1   9  -4    0.36    0.11
   1   9  -4    0.60    0.16
   1   9  -4    0.46    0.19
   0   9  -4    1.30    0.19
   0   9  -4    1.02    0.28
   0   9  -4    1.16    0.16
  -1   9  -4    0.29    0.09
  -1   9  -4    0.22    0.12
  -5  -8   4    2.88    0.29
   4   8  -4    3.73    0.37
   4   8  -4    3.68    0.25
   4   8  -4    4.19    0.28
  -4  -8   4    3.37    0.36
   3   8  -4    5.12    0.37
   3   8  -4    5.32    0.45
   3   8  -4    5.12    0.53
   3   8  -4    5.70    0.44
   3   8  -4    5.18    0.35
   2   8  -4    7.67    0.56
   2   8  -4    8.07    0.50
   2   8  -4    7.91    0.43
   2   8  -4    7.50    0.68
   2   8  -4    7.64    0.47
   1   8  -4    7.70    0.41
   1   8  -4    7.91    0.46
   1   8  -4    6.20    0.65
   1   8  -4    6.74    0.46
   1   8  -4    6.99    0.51
   0   8  -4    3.73    0.31
   0   8  -4    3.59    0.36
   0   8  -4    3.51    0.42
   0   8  -4    3.09    0.34
   0   8  -4    3.38    0.46
  -1   8  -4    4.83    0.36
  -1   8  -4    5.35    0.34
  -1   8  -4    4.62    0.47
  -1   8  -4    4.10    0.39
  -2   8  -4    0.03    0.15
  -2   8  -4    0.17    0.11
   6   7  -4    2.56    0.16
   5   7  -4    5.94    0.36
   5   7  -4    5.64    0.40
  -5  -7   4    5.97    0.42
   4   7  -4    1.38    0.20
   4   7  -4    1.27    0.16
   4   7  -4    1.40    0.28
  -4  -7   4    1.19    0.28
   3   7  -4    1.51    0.26
   3   7  -4    0.82    0.16
   3   7  -4    0.90    0.32
   3   7  -4    0.98    0.18
   2   7  -4   52.56    2.31
   2   7  -4   52.98    2.42
   2   7  -4   52.85    2.24
   2   7  -4   57.87    2.71
   2   7  -4   51.29    2.21
   2   7  -4   52.30    2.31
  -2  -7   4   50.28    2.33
   1   7  -4    5.87    0.63
   1   7  -4    5.11    0.34
   1   7  -4    5.72    0.48
   1   7  -4    5.73    0.40
   1   7  -4    5.23    0.41
   1   7  -4    5.46    0.33
  -1  -7   4    4.98    0.42
   0   7  -4    0.48    0.16
   0   7  -4    0.42    0.16
   0   7  -4    0.46    0.14
   0   7  -4    0.44    0.23
   0   7  -4    0.25    0.11
   0  -7   4    0.35    0.26
  -1   7  -4    3.43    0.37
  -1   7  -4    3.90    0.35
  -1   7  -4    3.99    0.33
  -1   7  -4    4.12    0.51
  -1   7  -4    3.71    0.36
  -2   7  -4    2.73    0.31
  -2   7  -4    2.39    0.38
  -2   7  -4    2.60    0.26
   6   6  -4    4.53    0.27
   5   6  -4    0.21    0.11
   5   6  -4    0.34    0.10
  -5  -6   4    0.35    0.20
  -5  -6   4    0.54    0.23
   4   6  -4   20.22    0.95
   4   6  -4   20.26    0.95
   4   6  -4   16.09    1.03
  -4  -6   4   17.35    1.00
  -4  -6   4   19.01    1.04
   3   6  -4    5.21    0.56
   3   6  -4    5.55    0.32
   3   6  -4    5.81    0.41
   3   6  -4    5.46    0.35
  -3  -6   4    5.54    0.42
   2   6  -4   26.56    1.22
   2   6  -4   28.16    1.18
  -2  -6   4   27.55    1.29
   1   6  -4    0.23    0.07
   1   6  -4    0.23    0.08
  -1  -6   4    0.25    0.11
   0   6  -4   68.22    2.81
   0   6  -4   66.51    2.81
   0  -6   4   68.65    2.88
  -1   6  -4   55.10    2.47
  -1   6  -4   53.40    2.38
  -1   6  -4   60.18    2.83
  -1   6  -4   53.81    2.48
  -1   6  -4   65.49    2.62
  -1   6  -4   53.79    2.37
   1  -6   4   57.50    2.44
  -2   6  -4   10.14    0.60
  -2   6  -4   10.21    0.80
  -2   6  -4   10.10    0.61
   6   5  -4    0.61    0.12
  -6  -5   4    0.70    0.16
   5   5  -4    3.83    0.31
   5   5  -4    3.77    0.29
  -5  -5   4    3.74    0.43
   4   5  -4   54.98    2.47
   4   5  -4   59.07    2.41
   4   5  -4   47.65    2.54
  -4  -5   4   61.69    2.56
  -4  -5   4   59.02    2.45
  -4  -5   4   55.57    2.54
   3   5  -4  199.32    7.71
   3   5  -4  185.99    7.77
  -3  -5   4  187.83    7.82
   2   5  -4   41.65    1.69
   2   5  -4   39.46    1.72
  -2  -5   4   39.97    1.78
   1   5  -4   69.43    2.87
   0   5  -4   20.02    0.91
   0   5  -4   20.95    0.90
  -1   5  -4    3.14    0.23
  -1   5  -4    3.16    0.21
  -1   5  -4    3.20    0.22
   1  -5   4    3.24    0.26
  -2   5  -4    4.85    0.31
  -2   5  -4    4.50    0.42
  -2   5  -4    5.03    0.43
  -2   5  -4    5.45    0.65
   2  -5   4    4.42    0.32
   6   4  -4    0.12    0.09
   6   4  -4    0.12    0.18
   6   4  -4    0.45    0.15
  -6  -4   4    0.22    0.13
  -6  -4   4    0.45    0.23
   5   4  -4   43.62    1.89
   5   4  -4   41.57    1.89
   5   4  -4   41.57    1.82
  -5  -4   4   40.14    1.95
   4   4  -4  233.92    9.44
   4   4  -4  244.17    9.52
  -4  -4   4  220.19    9.56
  -4  -4   4  230.38    9.45
   3   4  -4    6.39    0.38
  -3  -4   4    6.60    0.41
   2   4  -4   27.56    1.24
   2   4  -4   28.93    1.19
  -2  -4   4   28.82    1.27
   1   4  -4    0.18    0.04
   1   4  -4    0.27    0.09
  -1  -4   4    0.14    0.07
   0   4  -4    2.09    0.17
   0   4  -4    2.16    0.14
   0  -4   4    2.35    0.18
  -1   4  -4    1.66    0.13
  -1   4  -4    1.76    0.14
  -1   4  -4    1.87    0.13
  -1   4  -4    1.37    0.17
   1  -4   4    1.57    0.16
  -2   4  -4   16.12    0.75
  -2   4  -4   16.21    0.74
   2  -4   4   17.30    0.78
  -3   4  -4   -0.09    0.32
  -3   4  -4   -0.01    0.21
  -3   4  -4    0.31    0.26
  -4   4  -4    0.41    0.18
  -4   4  -4    0.07    0.15
  -5   4  -4    3.27    0.27
  -5   4  -4    3.07    0.26
   6   3  -4    0.78    0.19
   6   3  -4    0.63    0.15
  -6  -3   4    0.63    0.16
   5   3  -4   37.73    1.83
  -5  -3   4   39.37    1.88
  -5  -3   4   37.84    1.81
   4   3  -4  126.08    5.15
  -4  -3   4  123.36    5.14
   3   3  -4    5.00    0.31
   3   3  -4    4.85    0.26
  -3  -3   4    5.03    0.32
   2   3  -4   36.76    1.55
   2   3  -4   37.99    1.54
  -2  -3   4   38.15    1.62
   1   3  -4   18.22    0.77
   1   3  -4   18.41    0.78
  -1  -3   4   18.64    0.83
   0   3  -4   63.17    2.58
   0   3  -4   62.27    2.58
   0  -3   4   64.77    2.61
  -1   3  -4    2.23    0.14
  -1   3  -4    2.18    0.14
  -1   3  -4    1.99    0.14
   1  -3   4    2.37    0.16
  -2   3  -4  125.94    5.07
  -2   3  -4  112.03    5.06
  -2   3  -4  129.92    5.10
  -2   3  -4  119.63    5.11
   2  -3   4  139.28    5.11
   2  -3   4  126.46    5.10
  -3   3  -4    0.34    0.09
  -3   3  -4    0.43    0.11
   3  -3   4    0.26    0.13
   3  -3   4    0.61    0.15
  -4   3  -4    0.51    0.17
  -4   3  -4    0.44    0.25
  -4   3  -4    0.58    0.17
  -5   3  -4    1.24    0.19
  -5   3  -4    1.46    0.26
  -5   3  -4    1.22    0.18
   6   2  -4    1.89    0.23
   6   2  -4    1.90    0.25
  -6  -2   4    1.30    0.21
  -6  -2   4    1.21    0.24
  -6  -2   4    1.64    0.25
   5   2  -4    2.93    0.28
   5   2  -4    2.59    0.32
  -5  -2   4    2.63    0.29
  -5  -2   4    2.40    0.53
  -5  -2   4    2.63    0.30
  -5  -2   4    2.84    0.39
  -5  -2   4    2.61    0.39
   4   2  -4   39.51    1.77
  -4  -2   4   40.69    1.68
  -4  -2   4   40.19    1.75
   3   2  -4   27.68    1.22
   3   2  -4   26.84    1.16
  -3  -2   4   27.35    1.21
  -3  -2   4   27.31    1.15
   2   2  -4    7.81    0.36
   2   2  -4    8.06    0.35
  -2  -2   4    7.89    0.41
   1   2  -4   32.28    1.31
  -1  -2   4   31.50    1.35
   0   2  -4  280.97   11.28
   0  -2   4  281.90   11.32
  -1   2  -4  323.92   13.26
  -1   2  -4  333.01   13.26
  -1   2  -4  322.02   13.24
   1  -2   4  343.07   13.26
  -2   2  -4   20.98    0.90
  -2   2  -4   19.58    0.86
  -2   2  -4   20.56    0.89
  -2   2  -4   20.42    0.91
   2  -2   4   20.94    0.90
   2  -2   4   22.03    0.89
  -3   2  -4   15.15    0.68
  -3   2  -4   14.39    0.72
   3  -2   4   15.85    0.71
  -4   2  -4    3.22    0.35
  -4   2  -4    2.82    0.22
  -4   2  -4    2.92    0.32
  -5   2  -4    4.60    0.35
  -5   2  -4    4.41    0.39
  -5   2  -4    4.54    0.43
  -6   2  -4    0.15    0.15
  -6   2  -4    0.26    0.09
  -6   2  -4    0.39    0.11
   6   1  -4   13.37    0.74
   6   1  -4   14.39    0.73
  -6  -1   4   15.64    0.81
  -6  -1   4   11.65    0.78
  -6  -1   4   14.72    0.72
  -6  -1   4   15.07    0.75
   5   1  -4    8.16    0.64
   5   1  -4    7.19    0.76
  -5  -1   4    7.89    0.75
  -5  -1   4    6.65    0.61
  -5  -1   4    8.14    0.42
  -5  -1   4    9.27    0.86
  -5  -1   4    7.78    0.72
   4   1  -4   32.25    1.48
   4   1  -4   32.70    1.41
  -4  -1   4   32.35    1.38
  -4  -1   4   33.29    1.45
   3   1  -4  174.96    7.07
   3   1  -4  174.08    7.14
  -3  -1   4  173.42    7.11
  -3  -1   4  177.50    7.10
  -3  -1   4  175.24    7.05
   2   1  -4  243.72    9.79
  -2  -1   4  246.12    9.78
  -2  -1   4  241.69    9.83
   1   1  -4  122.88    4.84
   1   1  -4  120.10    4.85
  -1  -1   4  118.43    4.88
   0   1  -4   99.39    4.00
   0   1  -4   99.98    4.00
   0  -1   4   98.30    4.01
  -1   1  -4  154.26    6.32
  -1   1  -4  160.18    6.33
   1  -1   4  148.84    6.32
   1  -1   4  164.88    6.31
  -2   1  -4   19.92    0.85
  -2   1  -4   20.08    0.86
  -2   1  -4   19.15    0.85
   2  -1   4   19.85    0.85
  -3   1  -4    1.22    0.13
  -3   1  -4    1.26    0.13
   3  -1   4    1.42    0.15
  -4   1  -4    1.15    0.16
  -4   1  -4    1.31    0.16
   4  -1   4    1.60    0.21
  -5   1  -4    1.13    0.22
  -5   1  -4    1.18    0.22
  -5   1  -4    1.61    0.23
  -5   1  -4    1.33    0.15
  -6   1  -4    0.19    0.10
  -6   1  -4    0.12    0.10
  -6   1  -4    0.19    0.10
   6   0  -4    0.84    0.17
  -6   0   4    0.42    0.19
  -6   0   4    0.39    0.13
  -6   0   4    0.62    0.18
  -6   0   4    0.51    0.15
   5   0  -4    0.38    0.17
  -5   0   4    0.32    0.21
  -5   0   4    0.67    0.17
  -5   0   4    0.70    0.22
  -5   0   4    0.64    0.19
  -5   0   4    0.59    0.11
   4   0  -4    0.08    0.11
   4   0  -4   -0.02    0.08
  -4   0   4    0.02    0.09
  -4   0   4    0.25    0.11
  -4   0   4    0.14    0.07
   3   0  -4   14.35    0.66
   3   0  -4   13.55    0.72
  -3   0   4   14.92    0.69
  -3   0   4   14.51    0.68
  -3   0   4   14.55    0.64
   2   0  -4    0.41    0.06
  -2   0   4    0.30    0.05
   1   0  -4  160.15    6.51
  -1   0   4  163.95    6.49
   0   0  -4  184.10    7.42
   0   0   4  184.84    7.43
   0   0   4  186.11    7.42
  -1   0  -4    8.71    0.38
  -1   0  -4    7.69    0.37
   1   0   4    8.63    0.37
  -2   0  -4   25.65    1.08
  -2   0  -4   25.32    1.08
   2   0   4   25.11    1.06
  -3   0  -4   56.57    2.34
  -3   0  -4   55.13    2.32
  -4   0  -4   25.90    1.21
  -4   0  -4   28.04    1.19
  -5   0  -4    0.63    0.13
  -5   0  -4    0.72    0.16
  -5   0  -4    0.66    0.20
  -5   0  -4    0.56    0.16
  -6   0  -4    2.96    0.29
  -6   0  -4    3.17    0.26
  -6   0  -4    3.03    0.29
   6  -1  -4    0.69    0.21
  -6   1   4    0.33    0.14
  -6   1   4    0.47    0.14
  -6   1   4    0.49    0.14
  -6   1   4    0.55    0.11
   5  -1  -4   11.64    0.71
  -5   1   4   12.57    0.80
  -5   1   4   11.45    0.69
  -5   1   4   12.41    0.60
  -5   1   4   11.99    0.83
  -5   1   4   13.20    0.71
   4  -1  -4    0.42    0.16
  -4   1   4    0.56    0.11
  -4   1   4   -0.05    0.22
  -4   1   4    0.50    0.13
  -4   1   4    0.31    0.25
  -4   1   4    0.59    0.19
  -4   1   4    0.49    0.20
   3  -1  -4    2.82    0.26
  -3   1   4    3.11    0.22
  -3   1   4    3.09    0.23
  -2   1   4    0.85    0.09
  -2   1   4    0.77    0.11
   1  -1  -4  230.36    9.09
  -1   1   4  222.34    9.11
  -1   1   4  229.68    9.07
  -1   1   4  223.27    9.08
   0  -1  -4    3.55    0.18
   0   1   4    3.82    0.17
   0   1   4    3.72    0.18
  -1  -1  -4  146.84    5.79
   1   1   4  140.77    5.78
  -2  -1  -4    1.55    0.12
  -2  -1  -4    1.60    0.12
   2   1   4    1.78    0.11
  -3  -1  -4    3.37    0.22
  -3  -1  -4    3.49    0.22
   3   1   4    3.29    0.19
  -4  -1  -4   69.36    2.87
  -4  -1  -4   68.19    2.88
  -5  -1  -4    2.41    0.32
  -5  -1  -4    2.98    0.31
  -5  -1  -4    2.68    0.31
  -5  -1  -4    2.95    0.24
  -5  -1  -4    2.58    0.32
  -6  -1  -4   11.21    0.64
  -6  -1  -4    9.93    0.57
  -6  -1  -4   11.75    0.65
  -7  -1  -4   23.72    1.05
  -7  -1  -4   22.76    1.06
  -7  -1  -4   27.02    1.04
   7   1   4   23.56    1.06
  -6   2   4    0.33    0.10
  -6   2   4    0.33    0.10
   5  -2  -4    4.92    0.60
  -5   2   4    5.09    0.39
  -5   2   4    4.38    0.31
  -5   2   4    4.96    0.49
  -5   2   4    5.24    0.44
  -5   2   4    5.33    0.45
   4  -2  -4    3.59    0.37
  -4   2   4    3.59    0.25
  -4   2   4    4.11    0.37
  -4   2   4    3.56    0.32
  -4   2   4    3.38    0.46
  -4   2   4    3.76    0.51
  -4   2   4    3.72    0.32
  -4   2   4    3.86    0.43
   3  -2  -4   -0.01    0.06
  -3   2   4    0.04    0.08
  -3   2   4    0.04    0.06
  -3   2   4    0.05    0.08
   2  -2  -4   14.34    0.64
  -2   2   4   14.32    0.63
  -2   2   4   14.67    0.66
  -2   2   4   13.64    0.66
   1  -2  -4    7.06    0.31
  -1   2   4    6.65    0.31
  -1   2   4    6.34    0.33
  -1   2   4    6.38    0.29
   0  -2  -4   79.01    3.18
   0  -2  -4   80.37    3.18
   0   2   4   75.80    3.19
   0   2   4   78.97    3.19
   0   2   4   78.71    3.17
  -1  -2  -4    4.46    0.25
  -1  -2  -4    4.81    0.23
   1   2   4    4.69    0.23
   1   2   4    4.90    0.22
  -2  -2  -4    0.42    0.06
   2   2   4    0.46    0.06
  -3  -2  -4  155.54    6.33
  -3  -2  -4  156.72    6.32
   3   2   4  155.04    6.29
  -4  -2  -4  142.44    5.72
  -4  -2  -4  142.05    5.72
   4   2   4  135.23    5.66
  -5  -2  -4   13.68    0.79
  -5  -2  -4   15.69    0.88
  -5  -2  -4   15.44    0.73
  -5  -2  -4   15.17    0.85
  -5  -2  -4   14.19    0.78
  -6  -2  -4    0.18    0.17
  -6  -2  -4    0.20    0.14
  -6  -2  -4    0.20    0.14
  -6  -2  -4    0.21    0.11
  -7  -2  -4    8.22    0.45
  -7  -2  -4    9.37    0.43
   7   2   4    9.20    0.47
   5  -3  -4   14.12    0.96
  -5   3   4   16.95    0.80
  -5   3   4   15.91    0.93
  -5   3   4   17.52    0.91
   4  -3  -4   19.69    1.11
  -4   3   4   20.80    0.99
  -4   3   4   20.83    1.19
  -4   3   4   21.26    1.01
  -4   3   4   18.43    1.22
  -4   3   4   19.77    1.05
  -4   3   4   19.21    0.96
   3  -3  -4   83.48    3.51
  -3   3   4   87.44    3.54
  -3   3   4   83.79    3.54
  -3   3   4   85.22    3.49
   2  -3  -4   18.62    0.84
  -2   3   4   19.18    0.83
  -2   3   4   19.18    0.86
  -2   3   4   19.02    0.87
   1  -3  -4   72.74    2.95
  -1   3   4   73.98    2.98
  -1   3   4   72.78    2.96
  -1   3   4   71.62    2.94
  -1   3   4   72.07    2.99
   0  -3  -4  451.47   18.10
   0  -3  -4  443.30   18.09
   0   3   4  473.18   18.09
   0   3   4  448.29   18.07
   0   3   4  439.53   18.09
  -1  -3  -4   27.50    1.09
  -1  -3  -4   24.82    1.12
   1   3   4   26.26    1.09
   1   3   4   26.13    1.10
  -2  -3  -4  374.93   15.38
  -2  -3  -4  388.76   15.38
  -2  -3  -4  380.55   15.41
   2   3   4  389.50   15.38
  -3  -3  -4    5.77    0.31
  -3  -3  -4    5.86    0.34
   3   3   4    6.11    0.30
  -4  -3  -4   81.80    3.44
  -4  -3  -4   80.87    3.43
   4   3   4   85.42    3.45
   4   3   4   83.36    3.39
  -5  -3  -4    6.82    0.51
  -5  -3  -4    5.14    0.44
  -5  -3  -4    6.34    0.50
  -5  -3  -4    5.88    0.38
  -5  -3  -4    5.97    0.43
  -6  -3  -4   60.93    2.63
  -6  -3  -4   64.30    2.82
  -6  -3  -4   61.49    2.61
  -6  -3  -4   63.94    2.71
   6   3   4   61.01    2.74
  -7  -3  -4    6.79    0.33
  -7  -3  -4    6.48    0.37
   7   3   4    5.95    0.37
  -5   4   4    1.92    0.21
  -5   4   4    1.86    0.17
  -5   4   4    1.73    0.22
   4  -4  -4    8.28    0.55
   4  -4  -4    7.59    0.42
  -4   4   4    7.73    0.50
  -4   4   4    8.14    0.47
  -4   4   4    8.44    0.60
  -4   4   4    8.27    0.44
  -4   4   4    6.83    0.60
  -3   4   4   75.85    3.19
  -3   4   4   74.76    3.51
  -3   4   4   75.50    3.43
  -3   4   4   79.73    3.23
  -3   4   4   81.17    3.30
  -3   4   4   74.24    3.22
   2  -4  -4    0.38    0.09
  -2   4   4    0.18    0.08
  -2   4   4    0.31    0.08
  -2   4   4    0.20    0.08
   1  -4  -4   24.42    0.98
   1  -4  -4   22.13    0.96
  -1   4   4   22.59    0.97
  -1   4   4   21.28    0.99
  -1   4   4   21.48    0.97
  -1   4   4   21.65    0.94
   0  -4  -4  137.88    5.34
   0  -4  -4  136.64    5.37
   0   4   4  133.88    5.36
   0   4   4  124.76    5.37
   0   4   4  127.92    5.36
  -1  -4  -4   26.47    1.25
  -1  -4  -4   30.14    1.20
   1   4   4   29.69    1.24
   1   4   4   29.88    1.22
  -2  -4  -4    0.57    0.10
  -2  -4  -4    0.73    0.08
  -2  -4  -4    0.98    0.12
   2   4   4    0.67    0.09
   2   4   4    0.87    0.11
  -3  -4  -4   40.36    1.74
   3   4   4   40.82    1.70
   3   4   4   40.46    1.70
  -4  -4  -4    0.87    0.14
   4   4   4    1.32    0.14
  -5  -4  -4    2.18    0.31
  -5  -4  -4    1.86    0.28
  -5  -4  -4    1.90    0.23
  -5  -4  -4    2.40    0.30
   5   4   4    2.08    0.29
  -6  -4  -4    0.47    0.14
  -6  -4  -4    0.59    0.13
  -6  -4  -4    0.42    0.14
   6   4   4    0.15    0.12
   7   4   4    0.26    0.10
  -5   5   4    0.15    0.08
   4  -5  -4    5.36    0.42
  -4   5   4    5.22    0.34
  -4   5   4    5.00    0.40
  -4   5   4    5.23    0.34
  -4   5   4    4.36    0.41
   3  -5  -4   19.16    0.88
  -3   5   4   18.32    1.04
  -3   5   4   19.61    0.92
  -3   5   4   18.52    1.13
  -3   5   4   19.69    0.89
  -3   5   4   17.91    1.08
  -3   5   4   20.12    0.97
   2  -5  -4   29.33    1.27
  -2   5   4   28.51    1.27
  -2   5   4   30.53    1.60
  -2   5   4   28.27    1.31
  -2   5   4   29.41    1.36
  -2   5   4   27.98    1.54
   1  -5  -4   79.74    3.34
  -1   5   4   79.57    3.34
  -1   5   4   82.12    3.30
  -1   5   4   81.22    3.37
  -1   5   4   82.15    3.34
   0  -5  -4   46.34    1.93
   0   5   4   45.33    1.91
   0   5   4   44.71    1.93
   0   5   4   46.18    1.89
  -1  -5  -4   62.68    2.78
   1   5   4   67.72    2.74
   1   5   4   68.56    2.74
   1   5   4   67.77    2.76
  -2  -5  -4   62.15    2.63
  -2  -5  -4   62.95    2.63
   2   5   4   61.13    2.60
   2   5   4   64.55    2.58
   2   5   4   61.99    2.58
  -3  -5  -4    5.58    0.35
   3   5   4    5.59    0.30
  -4  -5  -4    7.22    0.43
  -4  -5  -4    6.74    0.52
  -4  -5  -4    6.62    0.55
   4   5   4    7.75    0.57
  -5  -5  -4    2.36    0.30
  -5  -5  -4    2.18    0.26
  -5  -5  -4    2.29    0.32
   5   5   4    2.26    0.31
  -6  -5  -4    0.16    0.13
  -6  -5  -4    0.32    0.13
   7   5   4    0.17    0.09
  -4   6   4    1.39    0.19
  -4   6   4    1.00    0.13
  -3   6   4    2.09    0.39
  -3   6   4    2.40    0.30
  -3   6   4    2.12    0.33
  -3   6   4    1.81    0.28
  -2   6   4   10.83    0.57
  -2   6   4   10.46    0.59
  -2   6   4   10.76    0.78
  -2   6   4   10.99    0.78
  -2   6   4   11.53    0.63
   1  -6  -4   61.83    2.59
  -1   6   4   64.23    2.85
  -1   6   4   62.05    2.66
  -1   6   4   60.91    2.97
  -1   6   4   59.67    2.65
  -1   6   4   62.13    2.62
  -1   6   4   61.74    2.59
   0  -6  -4  119.23    5.11
   0   6   4  128.93    5.08
   0   6   4  124.21    5.12
   0   6   4  127.42    5.10
  -1  -6  -4  142.55    5.73
  -1  -6  -4  136.41    5.70
   1   6   4  136.98    5.69
   1   6   4  143.07    5.65
   1   6   4  137.42    5.66
  -2  -6  -4   15.44    0.78
  -2  -6  -4   14.48    0.75
   2   6   4   14.86    0.73
   2   6   4   15.89    0.70
   2   6   4   15.24    0.70
  -3  -6  -4   71.31    3.10
  -3  -6  -4   61.53    2.81
   3   6   4   67.25    2.77
   3   6   4   64.26    2.76
   3   6   4   74.41    3.19
   3   6   4   62.65    3.00
  -4  -6  -4    4.36    0.34
  -4  -6  -4    4.38    0.39
   4   6   4    4.30    0.44
   4   6   4    4.65    0.31
   4   6   4    3.67    0.27
  -5  -6  -4    2.16    0.28
   5   6   4    2.06    0.30
  -6  -6  -4   12.26    0.61
   6   6   4   10.37    0.63
  -3   7   4    3.56    0.32
  -3   7   4    3.65    0.25
  -2   7   4    1.98    0.22
  -2   7   4    2.37    0.39
  -2   7   4    2.00    0.22
  -2   7   4    2.14    0.33
   1  -7  -4    6.58    0.40
  -1   7   4    5.90    0.52
  -1   7   4    6.07    0.56
  -1   7   4    7.35    0.72
  -1   7   4    6.92    0.75
  -1   7   4    6.50    0.42
   0  -7  -4   10.17    0.58
   0   7   4   10.92    0.59
   0   7   4   11.65    0.74
   0   7   4   10.88    0.54
   0   7   4   11.13    0.56
   0   7   4   11.20    0.86
   0   7   4   11.68    0.64
   0   7   4   11.00    0.64
  -1  -7  -4  154.25    6.19
  -1  -7  -4  155.75    6.24
   1   7   4  134.18    6.23
   1   7   4  154.59    6.14
   1   7   4  146.74    6.51
   1   7   4  156.74    6.14
   1   7   4  152.26    7.18
   1   7   4  154.10    6.29
   1   7   4  149.82    6.18
  -2  -7  -4    1.99    0.43
  -2  -7  -4    2.29    0.28
  -2  -7  -4    1.92    0.28
   2   7   4    1.94    0.41
   2   7   4    1.54    0.25
   2   7   4    1.62    0.23
   2   7   4    1.87    0.18
   2   7   4    2.12    0.31
   2   7   4    1.74    0.17
  -3  -7  -4  234.61    9.73
  -3  -7  -4  236.61    9.82
   3   7   4  267.29    9.87
   3   7   4  227.53    9.75
   3   7   4  243.41    9.69
   3   7   4  222.20    9.74
   3   7   4  242.12    9.69
   3   7   4  243.96    9.85
  -4  -7  -4    5.06    0.40
  -4  -7  -4    4.22    0.42
   4   7   4    5.04    0.42
   4   7   4    4.61    0.35
   4   7   4    5.02    0.32
  -5  -7  -4    3.47    0.30
   5   7   4    3.28    0.33
  -6  -7  -4   20.97    0.99
   6   7   4   23.35    1.02
  -2   8   4    3.32    0.30
  -2   8   4    3.57    0.31
  -2   8   4    3.54    0.26
  -1   8   4   33.21    1.51
  -1   8   4   33.00    1.62
  -1   8   4   33.76    1.50
  -1   8   4   34.37    1.55
  -1   8   4   34.74    1.74
   0   8   4   79.29    3.42
   0   8   4   76.05    3.42
   0   8   4   83.64    3.37
   0   8   4   86.91    3.58
   0   8   4   80.05    3.74
   1   8   4    8.12    0.44
   1   8   4    7.63    0.49
   1   8   4    8.06    0.48
   1   8   4    8.30    0.71
   1   8   4    7.90    0.56
  -2  -8  -4    3.12    0.33
   2   8   4    2.61    0.27
   2   8   4    2.80    0.32
   2   8   4    2.47    0.25
   2   8   4    2.68    0.23
   2   8   4    2.35    0.33
   2   8   4    2.75    0.40
  -3  -8  -4   21.90    1.10
   3   8   4   24.01    1.11
   3   8   4   24.01    1.00
   3   8   4   21.91    1.12
   3   8   4   21.09    1.04
   3   8   4   20.35    1.04
  -4  -8  -4    4.33    0.45
   4   8   4    3.59    0.27
   4   8   4    3.63    0.32
   4   8   4    3.81    0.28
  -5  -8  -4    2.92    0.25
   5   8   4    2.98    0.25
  -6  -8  -4   11.75    0.59
  -1   9   4   -0.09    0.10
  -1   9   4   -0.07    0.13
  -1   9   4   -0.03    0.06
  -1   9   4    0.03    0.09
   0   9   4    0.06    0.17
   0   9   4    0.08    0.08
   0   9   4    0.13    0.09
   0   9   4    0.23    0.14
   0   9   4    0.12    0.09
   1   9   4   53.39    2.30
   1   9   4   53.13    2.53
   1   9   4   51.73    2.29
   1   9   4   53.83    2.24
   1   9   4   55.27    2.38
  -2  -9  -4    0.06    0.15
   2   9   4   -0.06    0.14
   2   9   4    0.05    0.10
   2   9   4    0.02    0.13
   2   9   4    0.04    0.09
   2   9   4    0.07    0.09
  -3  -9  -4    9.33    0.54
   3   9   4    8.40    0.49
   3   9   4    9.20    0.54
   3   9   4    9.49    0.47
   3   9   4    9.99    0.50
  -4  -9  -4    2.85    0.32
   4   9   4    2.70    0.20
   4   9   4    3.02    0.24
   0  10   4    2.01    0.20
   0  10   4    2.60    0.16
   0  10   4    2.72    0.16
   1  10   4   11.89    0.57
   1  10   4   11.70    0.67
   1  10   4   12.07    0.57
   2  10   4    5.48    0.32
   2  10   4    6.05    0.32
  -3 -10  -4    0.11    0.09
  -3 -10  -4    0.09    0.10
   3  10   4    0.18    0.08
   3  10   4    0.22    0.07
  -4 -10  -4    0.56    0.10
   2  10  -5    2.04    0.20
  -2 -10   5    1.89    0.20
   1  10  -5    0.18    0.11
   1  10  -5    0.28    0.10
   4   9  -5    4.19    0.25
  -4  -9   5    5.49    0.30
   3   9  -5    2.41    0.19
   3   9  -5    2.61    0.26
   3   9  -5    1.97    0.28
  -3  -9   5    2.32    0.25
   2   9  -5   13.67    0.69
   2   9  -5   15.59    0.78
   2   9  -5   15.00    0.72
   2   9  -5   15.35    0.90
   1   9  -5    2.74    0.22
   1   9  -5    2.82    0.35
   1   9  -5    3.37    0.28
   1   9  -5    2.99    0.36
   0   9  -5    3.44    0.36
   0   9  -5    3.28    0.28
   0   9  -5    3.19    0.24
  -1   9  -5    2.43    0.17
  -1   9  -5    1.80    0.20
   5   8  -5    0.85    0.10
   4   8  -5    1.17    0.15
   4   8  -5    0.93    0.13
   4   8  -5    1.34    0.22
  -4  -8   5    1.11    0.21
   3   8  -5   17.29    0.86
   3   8  -5   18.51    1.08
   3   8  -5   18.65    0.97
   3   8  -5   16.53    0.81
   2   8  -5   22.62    1.05
   2   8  -5   22.96    1.38
   2   8  -5   25.04    1.22
   2   8  -5   21.93    1.29
   2   8  -5   25.01    1.11
   1   8  -5    2.17    0.23
   1   8  -5    1.90    0.37
   1   8  -5    2.04    0.28
   1   8  -5    2.29    0.40
   0   8  -5    3.23    0.28
   0   8  -5    3.65    0.33
   0   8  -5    3.31    0.57
  -1   8  -5    2.48    0.24
  -1   8  -5    2.23    0.33
  -1   8  -5    2.42    0.33
  -2   8  -5    0.22    0.13
   5   7  -5    0.70    0.16
   4   7  -5    7.55    0.58
  -4  -7   5    8.21    0.56
   3   7  -5    5.46    0.51
   3   7  -5    5.75    0.60
   3   7  -5    5.62    0.36
   3   7  -5    5.89    0.40
   2   7  -5    2.30    0.29
   2   7  -5    2.40    0.23
   2   7  -5    2.67    0.45
   2   7  -5    3.23    0.38
   2   7  -5    2.57    0.23
   2   7  -5    2.49    0.26
  -2  -7   5    2.68    0.34
   1   7  -5    0.73    0.28
   1   7  -5    0.70    0.16
   1   7  -5    1.05    0.21
   1   7  -5    0.88    0.18
   1   7  -5    0.99    0.20
   1   7  -5    0.61    0.12
  -1  -7   5    1.04    0.36
   0   7  -5   25.96    1.55
   0   7  -5   29.60    1.91
   0   7  -5   30.64    1.41
   0   7  -5   26.87    1.23
   0   7  -5   26.50    1.46
   0  -7   5   27.39    1.33
  -1   7  -5    9.61    0.59
  -1   7  -5    9.11    0.56
  -1   7  -5    9.75    0.79
  -2   7  -5    3.19    0.41
  -2   7  -5    4.02    0.36
  -2   7  -5    4.30    0.30
   6   6  -5    7.95    0.40
   5   6  -5   28.90    1.27
   5   6  -5   29.79    1.32
  -5  -6   5   27.97    1.36
   4   6  -5    0.48    0.22
   4   6  -5    0.36    0.12
   4   6  -5    0.28    0.11
  -4  -6   5    0.21    0.23
  -4  -6   5    0.00    0.21
   3   6  -5   48.91    2.35
   3   6  -5   50.16    2.14
   3   6  -5   53.37    2.55
   3   6  -5   51.78    2.21
  -3  -6   5   45.53    2.30
  -3  -6   5   49.89    2.21
   2   6  -5   38.56    1.70
   2   6  -5   37.53    1.77
   2   6  -5   39.85    1.77
   2   6  -5   38.75    1.67
   2   6  -5   41.96    2.16
   2   6  -5   40.28    1.90
  -2  -6   5   39.13    1.77
   1   6  -5    1.19    0.33
   1   6  -5    0.93    0.14
   1   6  -5    1.25    0.23
  -1  -6   5    0.86    0.22
   0   6  -5    2.43    0.34
   0   6  -5    2.52    0.30
   0   6  -5    2.24    0.23
   0   6  -5    2.42    0.33
   0   6  -5    2.25    0.44
   0   6  -5    2.20    0.19
   0  -6   5    2.06    0.26
  -1   6  -5   11.24    0.58
  -1   6  -5   11.92    0.67
  -1   6  -5   11.20    0.68
  -1   6  -5   12.54    0.94
   1  -6   5   11.22    0.66
  -2   6  -5    1.41    0.21
  -2   6  -5    1.61    0.36
  -2   6  -5    1.65    0.23
   6   5  -5    0.31    0.09
  -6  -5   5    0.05    0.12
   5   5  -5   19.35    0.96
   5   5  -5   19.96    0.92
   4   5  -5  136.94    5.56
   4   5  -5  132.90    5.63
  -4  -5   5  140.05    5.68
  -4  -5   5  131.76    5.72
   3   5  -5   14.05    0.76
   3   5  -5   14.32    0.83
   2   5  -5    5.45    0.33
   2   5  -5    5.65    0.30
  -2  -5   5    5.48    0.37
   1   5  -5   16.78    0.79
   1   5  -5   17.28    0.77
  -1  -5   5   18.22    0.86
   0   5  -5    6.15    0.34
   0   5  -5    6.89    0.45
   0  -5   5    6.52    0.40
  -1   5  -5    0.45    0.08
   1  -5   5    0.23    0.12
  -2   5  -5    6.68    0.48
  -2   5  -5    6.85    0.40
  -2   5  -5    7.16    0.49
  -2   5  -5    7.51    0.73
   2  -5   5    7.45    0.42
  -3   5  -5    0.66    0.19
   6   4  -5   11.38    0.59
  -6  -4   5   12.10    0.81
   5   4  -5   27.92    1.35
   5   4  -5   29.21    1.30
  -5  -4   5   28.74    1.44
   4   4  -5    9.29    0.59
   4   4  -5   10.09    0.54
  -4  -4   5   10.06    0.57
  -4  -4   5    9.57    0.74
   3   4  -5   24.18    1.11
  -3  -4   5   24.41    1.13
   2   4  -5    3.10    0.23
   2   4  -5    3.30    0.19
  -2  -4   5    3.16    0.25
   1   4  -5   11.79    0.53
   1   4  -5   11.39    0.56
  -1  -4   5   12.47    0.60
   0   4  -5   28.30    1.31
   0   4  -5   32.00    1.31
   0  -4   5   32.71    1.36
  -1   4  -5    0.86    0.12
   1  -4   5    1.04    0.14
  -2   4  -5   51.40    2.19
  -2   4  -5   51.84    2.18
   2  -4   5   52.53    2.18
  -3   4  -5    2.31    0.30
  -3   4  -5    2.58    0.34
  -4   4  -5    2.83    0.38
  -5   4  -5    1.33    0.15
  -5   4  -5    1.01    0.15
   6   3  -5    5.86    0.37
   6   3  -5    5.06    0.37
   6   3  -5    5.35    0.37
  -6  -3   5    6.02    0.42
  -6  -3   5    6.22    0.39
   5   3  -5    5.27    0.38
   5   3  -5    5.51    0.42
  -5  -3   5    5.40    0.50
  -5  -3   5    5.73    0.41
  -5  -3   5    5.43    0.47
   4   3  -5    0.23    0.17
   4   3  -5    0.38    0.11
  -4  -3   5    0.06    0.11
  -4  -3   5   -0.30    0.22
  -4  -3   5    0.01    0.15
   3   3  -5   14.58    0.70
   3   3  -5   13.69    0.64
  -3  -3   5   14.09    0.70
   2   3  -5   34.36    1.47
   2   3  -5   35.23    1.52
   2   3  -5   35.98    1.46
  -2  -3   5   36.12    1.54
   1   3  -5  120.41    4.84
   1   3  -5  119.29    4.83
  -1  -3   5  119.80    4.89
   0   3  -5    0.42    0.06
   0   3  -5    0.37    0.06
   0  -3   5    0.19    0.07
  -1   3  -5    8.17    0.41
  -1   3  -5    8.41    0.41
   1  -3   5    9.31    0.43
  -2   3  -5  130.09    5.55
  -2   3  -5  141.89    5.54
   2  -3   5  136.78    5.53
  -3   3  -5    0.20    0.09
  -3   3  -5    0.17    0.10
   3  -3   5    0.38    0.14
   3  -3   5    0.04    0.14
  -4   3  -5    1.08    0.18
  -4   3  -5    1.18    0.16
  -4   3  -5    2.04    0.29
  -4   3  -5    1.64    0.25
  -5   3  -5    8.91    0.54
  -5   3  -5    9.33    0.52
   6   2  -5   11.17    0.59
   6   2  -5   10.50    0.59
  -6  -2   5   11.39    0.63
  -6  -2   5   10.84    0.61
   5   2  -5    9.78    0.63
   5   2  -5   10.63    0.60
  -5  -2   5    9.31    0.71
  -5  -2   5   11.33    0.70
  -5  -2   5   10.56    0.62
  -5  -2   5   10.64    0.69
   4   2  -5    0.04    0.16
   4   2  -5    0.24    0.17
   4   2  -5   -0.02    0.17
  -4  -2   5    0.11    0.15
  -4  -2   5   -0.04    0.27
  -4  -2   5    0.32    0.13
  -4  -2   5    0.28    0.11
   3   2  -5    0.66    0.09
   3   2  -5    0.73    0.16
  -3  -2   5    1.07    0.12
  -3  -2   5    0.83    0.13
   2   2  -5   98.72    4.06
   2   2  -5   98.20    4.01
   2   2  -5   99.15    3.99
  -2  -2   5   99.70    4.06
   0   2  -5   26.91    1.10
   0   2  -5   25.66    1.10
   0  -2   5   26.61    1.13
  -1   2  -5  211.69    8.45
  -1   2  -5  203.14    8.46
   1  -2   5  215.40    8.46
  -3   2  -5    4.93    0.31
  -3   2  -5    4.89    0.28
  -4   2  -5    8.96    0.53
  -4   2  -5    6.89    0.47
  -4   2  -5    8.51    0.58
  -4   2  -5    8.06    0.42
  -5   2  -5    2.70    0.33
  -5   2  -5    3.35    0.30
  -5   2  -5    3.24    0.32
  -6   2  -5   -0.11    0.06
   6   1  -5    0.00    0.13
  -6  -1   5    0.03    0.10
  -6  -1   5   -0.12    0.11
  -6  -1   5   -0.03    0.14
  -6  -1   5   -0.03    0.12
   5   1  -5   10.84    0.64
   5   1  -5   10.47    0.68
  -5  -1   5   10.40    0.75
  -5  -1   5   11.09    0.71
  -5  -1   5   12.43    0.67
  -5  -1   5   11.55    0.75
  -5  -1   5   11.00    0.55
   4   1  -5    0.06    0.10
   4   1  -5    0.12    0.08
  -4  -1   5   -0.02    0.08
  -4  -1   5    0.24    0.12
   3   1  -5   58.25    2.55
   3   1  -5   59.79    2.48
  -3  -1   5   62.94    2.47
  -3  -1   5   59.83    2.53
   2   1  -5   28.62    1.29
   2   1  -5   30.09    1.24
  -2  -1   5   28.83    1.26
  -2  -1   5   30.95    1.23
  -2  -1   5   29.62    1.28
   0   1  -5   80.19    3.24
   0   1  -5   81.82    3.25
   0  -1   5   78.66    3.26
   0  -1   5   79.99    3.24
  -1   1  -5    4.24    0.22
  -1   1  -5    4.33    0.23
   1  -1   5    4.02    0.22
   1  -1   5    4.62    0.24
  -2   1  -5  122.46    4.98
  -2   1  -5  123.69    5.01
  -3   1  -5    0.42    0.09
  -3   1  -5    0.43    0.09
   3  -1   5    0.51    0.11
  -4   1  -5   17.00    0.91
  -4   1  -5   15.84    0.81
  -4   1  -5   16.26    0.75
  -4   1  -5   13.86    0.89
  -5   1  -5    3.14    0.35
  -5   1  -5    3.20    0.29
  -5   1  -5    3.35    0.34
  -5   1  -5    2.60    0.24
  -6   1  -5    1.56    0.22
  -6   1  -5    1.25    0.17
  -6   1  -5    1.45    0.21
   6  -1   5    1.31    0.19
   6   0  -5    0.96    0.17
  -6   0   5    0.75    0.14
  -6   0   5    0.93    0.15
  -6   0   5    0.77    0.16
  -6   0   5    0.85    0.17
   5   0  -5   11.32    0.67
  -5   0   5   11.29    0.78
  -5   0   5   11.93    0.71
  -5   0   5   11.34    0.58
  -5   0   5   12.26    0.67
  -5   0   5   12.13    0.79
   4   0  -5   15.86    0.86
  -4   0   5   17.96    1.05
  -4   0   5   17.53    1.04
  -4   0   5   16.71    0.82
  -4   0   5   17.00    0.88
  -4   0   5   15.71    0.95
   3   0  -5   72.09    2.84
   3   0  -5   58.04    2.88
  -3   0   5   65.08    2.79
  -3   0   5   68.77    2.74
  -3   0   5   69.70    2.84
   2   0  -5   23.85    1.08
   2   0  -5   23.79    1.02
  -2   0   5   24.19    1.00
  -2   0   5   23.76    1.04
  -2   0   5   24.19    1.04
   1   0  -5   93.08    3.71
  -1   0   5   90.55    3.69
  -1   0   5   91.80    3.74
   0   0  -5   14.91    0.64
   0   0  -5   15.55    0.64
   0   0   5   14.75    0.65
   0   0   5   14.99    0.64
  -2   0  -5  105.48    4.26
  -2   0  -5  103.31    4.25
   2   0   5  104.94    4.24
  -3   0  -5   33.64    1.47
  -3   0  -5   33.53    1.45
   3   0   5   34.86    1.44
  -4   0  -5    0.90    0.13
  -4   0  -5    0.52    0.16
  -5   0  -5    0.13    0.15
  -5   0  -5    0.18    0.10
  -5   0  -5    0.09    0.11
  -6   0  -5    4.17    0.29
  -6   0  -5    3.94    0.31
  -6   0  -5    3.79    0.32
   6  -1  -5    7.38    0.47
  -6   1   5   10.75    0.54
  -6   1   5    9.75    0.45
  -6   1   5    9.14    0.46
  -6   1   5    8.85    0.53
   5  -1  -5   14.59    0.82
  -5   1   5   15.58    0.81
  -5   1   5   14.74    0.81
  -5   1   5   16.75    0.86
  -5   1   5   15.14    0.93
  -5   1   5   15.46    0.95
   4  -1  -5   13.19    0.76
  -4   1   5   14.37    0.91
  -4   1   5   13.60    0.71
  -4   1   5   14.26    0.70
  -4   1   5   13.00    0.93
  -4   1   5   15.20    0.78
  -4   1   5   13.29    0.65
   3  -1  -5   51.52    2.26
   3  -1  -5   50.93    2.16
  -3   1   5   51.15    2.20
  -3   1   5   52.21    2.15
  -3   1   5   53.20    2.19
   2  -1  -5    3.66    0.21
  -2   1   5    4.14    0.26
  -2   1   5    3.30    0.23
  -2   1   5    3.97    0.21
   1  -1  -5   31.42    1.30
  -1   1   5   32.01    1.27
  -1   1   5   31.12    1.29
  -1   1   5   30.56    1.32
   0  -1  -5   65.10    2.67
   0  -1  -5   66.64    2.67
   0   1   5   65.17    2.67
   0   1   5   66.17    2.66
  -1  -1  -5  168.39    6.88
  -1  -1  -5  175.59    6.88
   1   1   5  168.48    6.87
  -2  -1  -5   15.39    0.68
  -2  -1  -5   15.31    0.68
   2   1   5   14.95    0.66
  -3  -1  -5    5.59    0.31
  -3  -1  -5    5.22    0.31
   3   1   5    5.30    0.28
  -4  -1  -5    3.96    0.27
  -4  -1  -5    3.86    0.28
   4   1   5    3.92    0.26
  -5  -1  -5   10.30    0.54
  -5  -1  -5   11.15    0.60
  -5  -1  -5   10.40    0.65
  -5  -1  -5    9.83    0.65
  -5  -1  -5    9.60    0.56
  -6  -1  -5    5.84    0.41
  -6  -1  -5    5.81    0.36
  -6  -1  -5    5.45    0.41
  -6   2   5    1.29    0.15
  -6   2   5    1.35    0.15
   5  -2  -5   13.80    0.78
  -5   2   5   14.39    0.74
  -5   2   5   15.14    0.76
  -5   2   5   14.82    0.90
  -5   2   5   15.13    0.87
   4  -2  -5   29.12    1.43
  -4   2   5   30.69    1.36
  -4   2   5   28.21    1.55
  -4   2   5   29.29    1.29
  -4   2   5   30.99    1.63
  -4   2   5   30.49    1.35
  -4   2   5   31.30    1.41
  -4   2   5   28.10    1.42
   3  -2  -5    3.35    0.23
  -3   2   5    3.32    0.27
  -3   2   5    3.89    0.27
  -3   2   5    3.56    0.23
   2  -2  -5   49.58    2.05
  -2   2   5   50.00    2.07
  -2   2   5   49.40    2.04
  -2   2   5   48.40    2.08
   1  -2  -5  113.46    4.54
  -1   2   5  112.97    4.52
  -1   2   5  112.37    4.54
  -1   2   5  110.58    4.57
   0  -2  -5   33.63    1.31
   0  -2  -5   30.87    1.31
   0   2   5   31.13    1.32
   0   2   5   31.37    1.31
   0   2   5   31.12    1.30
  -1  -2  -5  544.79   22.26
   1   2   5  566.18   22.24
  -2  -2  -5   34.11    1.44
  -2  -2  -5   33.53    1.42
   2   2   5   33.79    1.41
  -3  -2  -5   86.48    3.60
  -3  -2  -5   86.99    3.61
   3   2   5   88.84    3.57
  -4  -2  -5   22.72    1.02
  -4  -2  -5   21.39    1.02
   4   2   5   22.20    0.97
  -5  -2  -5   18.24    0.95
  -5  -2  -5   20.72    1.07
  -5  -2  -5   19.34    0.96
  -5  -2  -5   19.38    1.04
  -5  -2  -5   20.34    0.93
  -6  -2  -5    3.83    0.34
  -6  -2  -5    3.76    0.27
  -6  -2  -5    4.05    0.34
  -6  -2  -5    3.83    0.29
   6   2   5    3.95    0.33
  -7  -2  -5    0.14    0.08
  -7  -2  -5    0.02    0.08
   7   2   5    0.04    0.10
   5  -3  -5   16.33    0.81
  -5   3   5   15.31    0.85
  -5   3   5   15.70    0.76
  -5   3   5   15.24    0.88
   4  -3  -5    9.53    0.61
  -4   3   5   10.27    0.59
  -4   3   5    9.80    0.54
  -4   3   5    9.81    0.69
  -4   3   5    8.62    0.72
  -4   3   5    8.88    0.49
   3  -3  -5   24.02    1.09
  -3   3   5   24.50    1.32
  -3   3   5   24.45    1.18
  -3   3   5   25.71    1.21
  -3   3   5   25.16    1.12
  -3   3   5   21.93    1.37
   2  -3  -5  134.17    5.54
  -2   3   5  133.92    5.57
  -2   3   5  135.88    5.54
  -2   3   5  142.28    5.67
   1  -3  -5  152.85    6.15
  -1   3   5  151.02    6.18
  -1   3   5  152.78    6.13
  -1   3   5  153.18    6.16
  -1   3   5  152.32    6.17
   0  -3  -5   33.96    1.38
   0  -3  -5   33.22    1.39
   0   3   5   33.01    1.39
   0   3   5   32.04    1.40
   0   3   5   33.75    1.37
  -1  -3  -5  326.66   13.24
  -1  -3  -5  318.65   13.26
   1   3   5  332.64   13.23
   1   3   5  341.38   13.24
  -2  -3  -5   -0.02    0.07
  -2  -3  -5    0.11    0.05
   2   3   5    0.09    0.04
   2   3   5    0.11    0.06
  -3  -3  -5   44.75    1.89
  -3  -3  -5   44.80    1.92
   3   3   5   45.29    1.87
  -4  -3  -5    2.91    0.24
  -4  -3  -5    2.67    0.24
   4   3   5    2.82    0.21
  -5  -3  -5    3.83    0.39
  -5  -3  -5    3.46    0.36
  -5  -3  -5    4.08    0.30
  -5  -3  -5    4.28    0.40
  -5  -3  -5    3.01    0.32
   5   3   5    4.04    0.38
  -6  -3  -5    0.08    0.13
  -6  -3  -5    0.11    0.10
  -6  -3  -5    0.18    0.14
  -6  -3  -5    0.25    0.11
   6   3   5    0.17    0.12
   7   3   5    1.77    0.17
  -5   4   5    1.65    0.20
  -5   4   5    1.26    0.19
  -5   4   5    1.29    0.17
   4  -4  -5   41.93    1.79
   4  -4  -5   37.06    1.65
  -4   4   5   40.53    1.68
  -4   4   5   34.06    1.87
  -4   4   5   38.73    1.67
  -4   4   5   38.12    1.84
  -4   4   5   39.44    1.72
  -3   4   5    0.02    0.09
  -3   4   5    0.16    0.13
  -3   4   5   -0.01    0.12
  -3   4   5    0.05    0.09
  -3   4   5    0.04    0.18
  -3   4   5   -0.07    0.22
   2  -4  -5  201.69    7.93
   2  -4  -5  194.11    7.92
  -2   4   5  190.47    7.97
  -2   4   5  192.14    7.95
  -2   4   5  201.37    7.94
   1  -4  -5    1.58    0.13
   1  -4  -5    1.47    0.16
  -1   4   5    1.39    0.15
  -1   4   5    1.60    0.18
  -1   4   5    1.34    0.14
  -1   4   5    1.43    0.15
   0  -4  -5   34.99    1.38
   0  -4  -5   33.98    1.41
   0   4   5   32.71    1.41
   0   4   5   32.73    1.38
   0   4   5   30.97    1.39
  -1  -4  -5  266.32   10.54
  -1  -4  -5  259.74   10.59
   1   4   5  264.10   10.55
   1   4   5  264.72   10.57
   1   4   5  256.72   10.54
  -2  -4  -5  187.38    7.26
  -2  -4  -5  175.51    7.28
  -2  -4  -5  181.68    7.32
   2   4   5  195.13    7.27
   2   4   5  167.78    7.26
   2   4   5  173.19    7.28
  -3  -4  -5  121.71    5.06
  -3  -4  -5  124.67    5.01
  -4  -4  -5   10.08    0.55
   4   4   5    9.50    0.48
  -5  -4  -5   10.37    0.86
  -5  -4  -5   12.72    0.74
  -5  -4  -5   10.78    0.67
   5   4   5   12.27    0.72
  -6  -4  -5   13.92    0.76
  -6  -4  -5   13.30    0.68
  -6  -4  -5   13.63    0.66
   6   4   5   13.48    0.76
   7   4   5   -0.01    0.09
  -5   5   5    4.25    0.32
   4  -5  -5    7.93    0.62
  -4   5   5    7.92    0.51
  -4   5   5    7.83    0.44
  -4   5   5    8.06    0.47
  -4   5   5    7.98    0.55
   3  -5  -5    1.41    0.17
  -3   5   5    1.16    0.27
  -3   5   5    1.27    0.21
  -3   5   5    1.11    0.16
  -3   5   5    1.30    0.30
  -3   5   5    1.62    0.26
  -3   5   5    1.63    0.20
   2  -5  -5   37.10    1.58
  -2   5   5   35.16    1.61
  -2   5   5   37.86    1.66
  -2   5   5   38.15    2.11
  -2   5   5   36.19    1.59
  -2   5   5   36.16    1.83
  -2   5   5   35.52    1.58
  -2   5   5   36.34    1.87
   1  -5  -5    4.57    0.29
  -1   5   5    4.50    0.28
  -1   5   5    4.25    0.30
  -1   5   5    4.82    0.30
   0  -5  -5   26.21    1.15
   0   5   5   25.43    1.13
   0   5   5   26.58    1.11
  -1  -5  -5  206.55    8.67
   1   5   5  211.29    8.64
   1   5   5  217.54    8.62
   1   5   5  219.40    8.62
  -2  -5  -5  228.15    9.30
  -2  -5  -5  224.97    9.32
   2   5   5  242.79    9.26
   2   5   5  223.03    9.27
   2   5   5  228.36    9.24
  -3  -5  -5   45.66    1.89
   3   5   5   46.02    1.82
   3   5   5   37.62    1.85
  -4  -5  -5   13.58    0.70
  -4  -5  -5   13.02    0.80
  -4  -5  -5   12.60    0.76
   4   5   5   13.65    0.82
   4   5   5   12.82    0.62
  -5  -5  -5   19.10    0.99
  -5  -5  -5   19.26    1.05
  -5  -5  -5   21.01    0.97
   5   5   5   20.45    1.08
  -6  -5  -5    7.30    0.43
   7   5   5    0.04    0.08
  -4   6   5    6.37    0.39
  -4   6   5    6.21    0.35
  -3   6   5    0.97    0.23
  -3   6   5    1.31    0.16
  -3   6   5    1.12    0.23
  -3   6   5    0.94    0.22
  -3   6   5    1.00    0.16
   2  -6  -5    6.94    0.43
  -2   6   5    7.37    0.47
  -2   6   5    6.83    0.42
  -2   6   5    7.40    0.46
  -2   6   5    9.03    0.61
  -2   6   5    7.40    0.63
  -2   6   5    7.28    0.61
   1  -6  -5    4.75    0.32
  -1   6   5    5.17    0.32
  -1   6   5    4.74    0.33
  -1   6   5    4.74    0.48
  -1   6   5    5.34    0.54
  -1   6   5    4.90    0.51
  -1   6   5    4.16    0.37
   0  -6  -5    4.02    0.29
   0   6   5    3.96    0.26
   0   6   5    4.13    0.25
   0   6   5    4.06    0.28
  -1  -6  -5   22.32    1.06
   1   6   5   23.28    1.00
   1   6   5   22.79    1.00
   1   6   5   22.73    1.04
  -2  -6  -5   44.44    1.95
  -2  -6  -5   42.57    1.93
   2   6   5   44.91    1.86
   2   6   5   46.48    1.86
   2   6   5   42.24    1.90
  -3  -6  -5   34.76    1.58
   3   6   5   31.49    1.63
   3   6   5   34.64    1.44
   3   6   5   33.40    1.45
  -4  -6  -5   21.77    1.03
  -4  -6  -5   20.82    1.07
   4   6   5   20.28    1.14
   4   6   5   21.26    0.95
  -5  -6  -5    4.74    0.36
  -5  -6  -5    4.30    0.39
   5   6   5    4.26    0.41
  -6  -6  -5    1.01    0.15
  -3   7   5    1.46    0.15
  -2   7   5    4.84    0.41
  -2   7   5    4.97    0.46
  -2   7   5    4.84    0.46
   1  -7  -5    2.71    0.27
  -1   7   5    3.23    0.40
  -1   7   5    2.64    0.28
  -1   7   5    2.75    0.41
  -1   7   5    2.92    0.27
  -1   7   5    2.81    0.24
   0  -7  -5   64.59    2.73
   0   7   5   64.28    2.74
   0   7   5   62.97    3.09
   0   7   5   66.27    2.71
   0   7   5   68.72    2.79
   0   7   5   65.44    2.68
   0   7   5   63.15    2.78
   0   7   5   61.85    2.90
  -1  -7  -5   18.20    0.93
  -1  -7  -5   16.84    0.89
   1   7   5   19.05    0.84
   1   7   5   18.96    1.19
   1   7   5   17.25    0.89
   1   7   5   17.82    0.92
   1   7   5   18.45    0.83
   1   7   5   18.30    0.87
   1   7   5   18.56    0.99
  -2  -7  -5    3.48    0.40
  -2  -7  -5    3.35    0.32
  -2  -7  -5    2.83    0.35
   2   7   5    3.27    0.49
   2   7   5    2.92    0.22
   2   7   5    2.66    0.31
   2   7   5    2.96    0.32
   2   7   5    3.19    0.29
   2   7   5    3.23    0.41
   2   7   5    2.98    0.22
  -3  -7  -5   35.58    1.61
  -3  -7  -5   34.80    1.56
   3   7   5   30.77    1.53
   3   7   5   37.07    1.49
   3   7   5   36.87    1.65
   3   7   5   34.31    1.51
   3   7   5   32.15    1.54
  -4  -7  -5   13.86    0.78
  -4  -7  -5   14.64    0.78
   4   7   5   14.89    0.83
  -5  -7  -5   25.41    1.14
   5   7   5   22.98    1.17
  -6  -7  -5    5.46    0.33
   6   7   5    6.09    0.34
  -2   8   5    0.90    0.18
  -2   8   5    0.88    0.18
  -2   8   5    0.70    0.12
  -1   8   5    7.50    0.39
  -1   8   5    6.25    0.40
  -1   8   5    6.96    0.51
  -1   8   5    6.23    0.55
  -1   8   5    7.32    0.41
   0   8   5    1.55    0.27
   0   8   5    1.14    0.27
   0   8   5    1.23    0.19
   0   8   5    1.47    0.18
   0   8   5    1.20    0.19
  -1  -8  -5   11.05    0.65
   1   8   5   10.99    0.69
   1   8   5   11.23    0.56
   1   8   5    9.87    0.60
   1   8   5   11.29    0.63
   1   8   5   11.96    0.85
  -2  -8  -5    0.21    0.17
   2   8   5    0.31    0.11
   2   8   5    0.18    0.13
   2   8   5    0.42    0.21
   2   8   5    0.16    0.10
   2   8   5    0.12    0.12
  -3  -8  -5   35.40    1.63
   3   8   5   36.29    1.65
   3   8   5   37.75    1.54
   3   8   5   33.94    1.59
   3   8   5   36.11    1.59
  -4  -8  -5    4.40    0.34
   4   8   5    4.40    0.34
  -5  -8  -5    5.84    0.47
   5   8   5    4.98    0.33
  -6  -8  -5    0.15    0.07
   1  -9  -5    5.01    0.29
  -1   9   5    4.25    0.34
  -1   9   5    4.49    0.27
  -1   9   5    4.75    0.32
  -1   9   5    5.16    0.26
   0   9   5    3.74    0.27
   0   9   5    3.38    0.26
   0   9   5    3.47    0.39
   0   9   5    3.90    0.34
   0   9   5    3.92    0.38
   1   9   5    0.26    0.15
   1   9   5    0.24    0.16
   1   9   5    0.24    0.09
   1   9   5    0.27    0.10
   1   9   5    0.12    0.09
   2   9   5    3.58    0.28
   2   9   5    4.40    0.28
   2   9   5    4.13    0.30
   2   9   5    3.93    0.34
   2   9   5    3.83    0.41
  -3  -9  -5   10.43    0.55
   3   9   5    9.30    0.51
   3   9   5   10.17    0.54
   3   9   5    9.83    0.57
   3   9   5   10.18    0.50
  -4  -9  -5    0.16    0.10
   4   9   5    0.00    0.09
  -5  -9  -5    1.36    0.14
   5   9   5    1.10    0.14
   0 -10  -5    2.37    0.18
   0  10   5    1.69    0.18
   0  10   5    2.64    0.18
   0  10   5    2.18    0.15
   1  10   5    1.20    0.12
   1  10   5    1.07    0.12
   1  10   5    1.07    0.19
   1  10   5    0.59    0.23
   2  10   5   17.72    0.86
   2  10   5   19.27    0.83
   2  10   5   16.41    0.83
  -3 -10  -5    6.35    0.38
   3  10   5    6.22    0.35
   3  10   5    5.08    0.39
   3  10   5    5.81    0.32
   4   9  -6    0.32    0.09
   3   9  -6    0.05    0.07
   3   9  -6    0.00    0.09
   3   9  -6    0.14    0.22
  -3  -9   6    0.01    0.09
   2   9  -6    0.32    0.15
   2   9  -6    0.45    0.10
   2   9  -6    0.22    0.08
   2   9  -6    0.36    0.12
   1   9  -6    1.85    0.19
   1   9  -6    1.36    0.25
   1   9  -6    1.35    0.16
   1   9  -6    1.79    0.22
   0   9  -6    0.13    0.11
   0   9  -6    0.17    0.08
   0   9  -6    0.27    0.14
   5   8  -6    0.21    0.06
   4   8  -6    0.19    0.13
   4   8  -6    0.15    0.08
  -4  -8   6    0.06    0.11
   3   8  -6   12.73    0.71
   3   8  -6   12.87    0.94
   3   8  -6   11.12    0.58
   3   8  -6   12.04    0.62
   2   8  -6   19.62    0.94
   2   8  -6   21.80    1.00
   2   8  -6   22.58    1.29
   2   8  -6   21.66    1.02
   2   8  -6   21.12    1.09
   1   8  -6    0.84    0.15
   1   8  -6    0.90    0.17
   1   8  -6    0.99    0.29
   1   8  -6    0.95    0.17
   1   8  -6    1.06    0.21
   0   8  -6   -0.01    0.08
   0   8  -6    0.08    0.16
   0   8  -6    0.11    0.12
  -1   8  -6   -0.09    0.16
  -1   8  -6   -0.12    0.11
  -1   8  -6    0.07    0.09
   5   7  -6    8.81    0.45
   4   7  -6    1.73    0.20
   4   7  -6    1.65    0.26
   4   7  -6    1.96    0.20
  -4  -7   6    2.20    0.28
   3   7  -6   23.65    1.41
   3   7  -6   25.50    1.12
   3   7  -6   25.98    1.17
   3   7  -6   23.83    1.28
   2   7  -6    3.61    0.28
   2   7  -6    3.79    0.50
   2   7  -6    3.76    0.36
   2   7  -6    3.58    0.38
   2   7  -6    3.71    0.31
   1   7  -6    3.95    0.33
   1   7  -6    3.94    0.53
   1   7  -6    4.42    0.35
   1   7  -6    4.19    0.30
   1   7  -6    3.95    0.38
   0   7  -6    6.57    0.44
   0   7  -6    6.08    0.47
   0   7  -6    6.91    0.66
   0   7  -6    5.80    0.44
  -1   7  -6    0.25    0.20
  -1   7  -6    0.33    0.14
  -1   7  -6    0.33    0.13
  -2   7  -6    3.46    0.27
  -2   7  -6    3.59    0.43
  -2   7  -6    2.67    0.38
   6   6  -6    4.92    0.26
   5   6  -6    1.34    0.16
   5   6  -6    1.59    0.18
  -5  -6   6    1.39    0.26
   4   6  -6   11.54    0.59
   4   6  -6   12.18    0.64
   4   6  -6   11.56    0.74
  -4  -6   6   10.90    0.73
   3   6  -6  252.37   11.26
   3   6  -6  277.87   11.07
   3   6  -6  287.40   11.52
   3   6  -6  288.12   11.15
  -3  -6   6  281.63   11.16
  -3  -6   6  253.79   11.22
   2   6  -6    2.00    0.46
   2   6  -6    2.44    0.26
   2   6  -6    2.54    0.33
   2   6  -6    2.00    0.21
   2   6  -6    2.01    0.20
   2   6  -6    1.94    0.32
   2   6  -6    1.78    0.40
  -2  -6   6    2.48    0.66
  -2  -6   6    2.11    0.29
   1   6  -6   15.07    0.95
   1   6  -6   15.89    0.75
   1   6  -6   16.16    0.83
   1   6  -6   16.40    0.94
   1   6  -6   15.29    0.76
   1   6  -6   18.00    1.20
  -1  -6   6   16.68    0.86
   0   6  -6   82.67    3.58
   0   6  -6   84.81    3.56
   0   6  -6   83.25    3.46
   0   6  -6   82.63    3.44
   0   6  -6   81.00    3.93
   0  -6   6   87.69    3.54
  -1   6  -6    2.40    0.42
  -1   6  -6    2.63    0.31
  -1   6  -6    2.70    0.30
  -2   6  -6    0.75    0.17
  -2   6  -6    0.89    0.30
  -2   6  -6    0.57    0.15
  -3   6  -6   -0.16    0.17
  -6  -5   6   39.93    1.77
   5   5  -6    1.30    0.16
   5   5  -6    0.96    0.17
  -5  -5   6    1.10    0.26
   4   5  -6   35.80    1.63
   4   5  -6   38.06    1.77
  -4  -5   6   32.85    1.77
   3   5  -6  278.63   11.99
   3   5  -6  318.61   12.46
   3   5  -6  298.30   12.07
  -3  -5   6  291.92   12.06
   2   5  -6   10.19    0.54
   2   5  -6   10.57    0.50
  -2  -5   6   10.83    0.60
   1   5  -6    4.35    0.28
   1   5  -6    4.73    0.27
  -1  -5   6    4.70    0.34
   0   5  -6    0.42    0.11
   0   5  -6    0.26    0.08
   0  -5   6    0.34    0.13
  -1   5  -6    5.71    0.43
  -1   5  -6    5.15    0.42
   1  -5   6    5.43    0.39
  -2   5  -6    3.90    0.28
  -2   5  -6    3.50    0.54
  -2   5  -6    3.50    0.34
  -2   5  -6    3.51    0.33
  -2   5  -6    3.46    0.39
   2  -5   6    3.89    0.30
  -3   5  -6    1.48    0.22
  -3   5  -6    2.03    0.28
   6   4  -6   19.03    0.88
  -6  -4   6   18.92    0.93
   5   4  -6    2.70    0.25
   5   4  -6    2.66    0.27
  -5  -4   6    3.00    0.40
   4   4  -6   20.79    1.01
   4   4  -6   19.76    0.94
  -4  -4   6   18.07    1.12
  -4  -4   6   19.22    0.97
   3   4  -6  124.41    5.13
  -3  -4   6  125.12    5.16
   2   4  -6   23.26    1.07
   2   4  -6   24.57    1.03
  -2  -4   6   24.34    1.12
   1   4  -6    5.32    0.31
   1   4  -6    6.06    0.30
  -1  -4   6    5.59    0.35
   0   4  -6   17.09    0.80
   0   4  -6   18.25    0.80
   0  -4   6   18.66    0.85
  -1   4  -6   18.84    0.86
  -1   4  -6   18.77    0.88
   1  -4   6   20.59    0.90
  -2   4  -6    4.74    0.30
   2  -4   6    5.02    0.31
  -3   4  -6    0.44    0.14
  -3   4  -6    0.43    0.19
  -4   4  -6    0.78    0.17
  -4   4  -6    0.82    0.18
  -4   4  -6    0.76    0.17
   6   3  -6    3.80    0.27
   5   3  -6    1.64    0.25
   5   3  -6    1.54    0.21
  -5  -3   6    1.67    0.29
   4   3  -6    4.92    0.36
   4   3  -6    5.08    0.43
  -4  -3   6    4.23    0.35
  -4  -3   6    5.65    0.41
  -4  -3   6    4.56    0.58
   3   3  -6    6.42    0.37
   3   3  -6    6.97    0.41
  -3  -3   6    6.76    0.41
   2   3  -6    3.66    0.20
   2   3  -6    3.60    0.25
   2   3  -6    3.64    0.23
  -2  -3   6    3.67    0.26
   1   3  -6   28.05    1.13
   1   3  -6   27.61    1.13
   1   3  -6   23.78    1.15
  -1  -3   6   27.74    1.19
   0   3  -6    4.50    0.24
   0   3  -6    4.28    0.24
   0  -3   6    4.80    0.28
  -1   3  -6   69.85    2.87
  -1   3  -6   67.99    2.88
   1  -3   6   72.05    2.89
  -2   3  -6   51.22    2.18
  -2   3  -6   52.00    2.20
   2  -3   6   53.29    2.18
  -3   3  -6   87.94    3.73
  -3   3  -6   90.88    3.80
  -3   3  -6   87.56    3.69
  -4   3  -6    1.27    0.22
  -4   3  -6    0.93    0.19
  -4   3  -6    1.04    0.16
  -5   3  -6    0.91    0.17
  -5   3  -6    0.63    0.19
   6   2  -6    4.05    0.30
  -6  -2   6    4.08    0.31
   5   2  -6    4.46    0.36
   5   2  -6    4.53    0.39
  -5  -2   6    5.16    0.44
  -5  -2   6    4.75    0.47
  -5  -2   6    4.64    0.37
   4   2  -6    1.37    0.19
  -4  -2   6    0.83    0.31
  -4  -2   6    0.98    0.18
   3   2  -6    0.03    0.08
  -3  -2   6    0.21    0.08
   2   2  -6   31.46    1.38
   2   2  -6   34.32    1.35
   2   2  -6   31.99    1.42
  -2  -2   6   32.79    1.42
  -2  -2   6   32.75    1.35
   1   2  -6    0.76    0.08
  -1  -2   6    0.80    0.12
   0   2  -6  129.07    5.19
   0   2  -6  130.77    5.20
   0  -2   6  125.95    5.22
  -1   2  -6  174.08    7.12
  -1   2  -6  174.64    7.11
   1  -2   6  184.31    7.11
   1  -2   6  171.41    7.10
  -2   2  -6   46.90    2.01
  -2   2  -6   47.19    1.99
   2  -2   6   48.48    1.98
  -3   2  -6   34.92    1.50
  -3   2  -6   35.07    1.56
   3  -2   6   36.43    1.53
  -4   2  -6    1.94    0.29
  -4   2  -6    1.93    0.24
  -4   2  -6    1.91    0.20
  -4   2  -6    1.87    0.28
  -5   2  -6    2.51    0.25
  -5   2  -6    2.35    0.28
  -6   2  -6    0.24    0.08
  -6   2  -6    0.46    0.10
   6   1  -6    1.01    0.17
  -6  -1   6    0.97    0.24
  -6  -1   6    1.40    0.20
  -6  -1   6    0.76    0.15
   5   1  -6    5.55    0.44
   5   1  -6    5.07    0.39
  -5  -1   6    5.41    0.40
  -5  -1   6    5.41    0.47
  -5  -1   6    4.90    0.51
  -5  -1   6    5.93    0.49
   4   1  -6   44.22    2.04
  -4  -1   6   46.89    2.26
  -4  -1   6   46.74    2.19
  -4  -1   6   46.58    2.02
  -4  -1   6   49.14    2.26
  -4  -1   6   45.39    2.33
   3   1  -6   12.44    0.58
   3   1  -6   12.08    0.65
  -3  -1   6   12.27    0.62
  -3  -1   6   12.88    0.56
   2   1  -6  327.21   13.71
   2   1  -6  352.73   13.66
  -2  -1   6  332.21   13.70
  -2  -1   6  348.36   13.64
   1   1  -6  243.16    9.87
   1   1  -6  251.87    9.86
  -1  -1   6  237.16    9.90
  -1  -1   6  250.24    9.86
   0   1  -6   53.90    2.15
   0   1  -6   52.43    2.15
   0  -1   6   51.73    2.16
   0  -1   6   51.74    2.14
  -1   1  -6    8.60    0.39
  -1   1  -6    8.37    0.40
   1  -1   6    8.38    0.38
   1  -1   6    7.90    0.39
  -2   1  -6   36.90    1.55
  -2   1  -6   36.35    1.54
  -2   1  -6   35.21    1.52
   2  -1   6   37.09    1.53
  -3   1  -6   12.85    0.61
  -3   1  -6   13.15    0.65
   3  -1   6   13.33    0.63
  -4   1  -6    9.95    0.51
  -4   1  -6    9.61    0.63
  -4   1  -6   10.29    0.59
  -5   1  -6    5.07    0.41
  -5   1  -6    5.17    0.38
  -5   1  -6    4.99    0.33
  -5   1  -6    4.84    0.37
  -5   1  -6    4.87    0.41
  -6   1  -6    0.06    0.08
  -6   1  -6    0.07    0.09
   6   0  -6    0.34    0.12
  -6   0   6    0.25    0.13
  -6   0   6    0.46    0.10
  -6   0   6    0.21    0.10
  -6   0   6    0.32    0.12
   5   0  -6    2.72    0.29
   5   0  -6    2.95    0.31
  -5   0   6    2.63    0.28
  -5   0   6    2.61    0.38
  -5   0   6    2.64    0.35
  -5   0   6    2.37    0.33
  -5   0   6    2.48    0.27
   4   0  -6  124.88    5.15
  -4   0   6  119.37    5.24
  -4   0   6  122.83    5.02
  -4   0   6  125.68    5.37
  -4   0   6  124.68    5.10
  -4   0   6  122.97    5.14
   3   0  -6   24.24    1.15
   3   0  -6   24.96    1.08
  -3   0   6   23.92    1.12
  -3   0   6   25.77    1.11
   2   0  -6  132.12    5.50
   2   0  -6  135.23    5.44
  -2   0   6  140.76    5.42
  -2   0   6  128.63    5.47
  -2   0   6  134.65    5.45
   1   0  -6  121.60    4.97
   1   0  -6  122.49    4.94
  -1   0   6  124.65    4.94
  -1   0   6  121.28    4.95
  -1   0   6  124.22    4.99
   0   0  -6   22.11    0.94
   0   0   6   22.47    0.93
   0   0   6   21.97    0.94
  -1   0  -6   14.18    0.61
  -1   0  -6   14.63    0.62
   1   0   6   14.27    0.61
   1   0   6   12.75    0.58
  -2   0  -6   19.65    0.85
  -2   0  -6   18.99    0.84
   2   0   6   18.32    0.82
  -3   0  -6    4.50    0.28
   3   0   6    4.76    0.27
  -4   0  -6    0.81    0.16
  -4   0  -6    0.99    0.20
  -4   0  -6    0.91    0.18
  -4   0  -6    0.71    0.14
   4   0   6    1.28    0.18
  -5   0  -6    3.09    0.33
  -5   0  -6    3.08    0.25
  -5   0  -6    2.90    0.28
  -5   0  -6    2.67    0.25
  -5   0  -6    3.00    0.34
  -6   0  -6   -0.02    0.08
  -6   0  -6    0.05    0.10
  -6   0  -6    0.17    0.09
   6   0   6   -0.01    0.12
   6  -1  -6    1.11    0.15
  -6   1   6    1.48    0.14
  -6   1   6    1.45    0.16
  -6   1   6    1.20    0.17
   5  -1  -6    6.35    0.47
  -5   1   6    5.47    0.43
  -5   1   6    6.54    0.46
  -5   1   6    6.21    0.67
  -5   1   6    5.89    0.56
   4  -1  -6   18.04    0.95
  -4   1   6   18.50    0.91
  -4   1   6   18.75    1.11
  -4   1   6   17.84    0.84
  -4   1   6   17.77    1.02
  -4   1   6   18.94    1.13
  -4   1   6   19.19    0.89
  -4   1   6   19.75    0.96
   3  -1  -6   20.29    0.90
   3  -1  -6   20.61    0.99
  -3   1   6   19.92    0.88
  -3   1   6   19.85    0.94
  -3   1   6   19.56    0.92
   2  -1  -6   94.28    3.75
  -2   1   6   91.13    3.77
  -2   1   6   94.32    3.74
  -2   1   6   88.34    3.78
   1  -1  -6  117.21    4.71
   1  -1  -6  118.80    4.70
  -1   1   6  113.73    4.73
  -1   1   6  116.69    4.69
  -1   1   6  116.17    4.71
   0  -1  -6  535.23   21.93
   0   1   6  559.90   21.92
  -1  -1  -6    8.49    0.41
  -1  -1  -6    8.94    0.42
   1   1   6    8.69    0.40
   1   1   6    9.24    0.39
  -2  -1  -6    0.50    0.08
  -2  -1  -6    0.52    0.10
   2   1   6    0.60    0.08
  -3  -1  -6   87.05    3.61
  -3  -1  -6   86.73    3.60
   3   1   6   87.86    3.57
  -4  -1  -6    0.99    0.16
   4   1   6    1.85    0.19
  -5  -1  -6   11.42    0.61
  -5  -1  -6   11.35    0.90
  -5  -1  -6   13.13    0.85
  -6  -1  -6    5.37    0.37
  -6  -1  -6    4.89    0.38
  -6  -1  -6    5.04    0.30
  -6  -1  -6    5.19    0.33
   6   1   6    5.23    0.37
  -6   2   6   -0.03    0.10
  -6   2   6   -0.01    0.09
   5  -2  -6    4.10    0.35
  -5   2   6    4.07    0.39
  -5   2   6    3.47    0.37
  -5   2   6    4.23    0.31
   4  -2  -6  106.77    4.44
  -4   2   6  111.81    4.36
  -4   2   6  112.40    4.42
  -4   2   6  106.63    4.64
  -4   2   6  108.01    4.37
  -4   2   6   98.19    4.50
  -4   2   6   99.63    4.59
  -4   2   6   96.61    4.36
   3  -2  -6  178.31    7.11
  -3   2   6  172.75    7.03
  -3   2   6  170.79    6.99
  -3   2   6  168.40    7.04
   2  -2  -6  128.94    5.08
  -2   2   6  125.66    5.07
  -2   2   6  123.49    5.09
  -2   2   6  121.74    5.11
   1  -2  -6   28.07    1.17
   1  -2  -6   27.08    1.18
  -1   2   6   28.00    1.18
  -1   2   6   27.51    1.20
  -1   2   6   28.88    1.15
   0  -2  -6    3.37    0.20
   0  -2  -6    3.51    0.20
   0   2   6    3.86    0.21
   0   2   6    3.95    0.19
  -1  -2  -6  110.88    4.62
  -1  -2  -6  114.88    4.63
   1   2   6  115.49    4.61
   1   2   6  114.70    4.60
  -2  -2  -6   16.67    0.78
  -2  -2  -6   17.45    0.78
   2   2   6   17.39    0.75
  -3  -2  -6   80.47    3.39
  -3  -2  -6   81.62    3.39
   3   2   6   83.24    3.35
  -4  -2  -6   34.24    1.53
  -4  -2  -6   34.66    1.54
   4   2   6   34.79    1.48
  -5  -2  -6    3.21    0.36
  -5  -2  -6    3.30    0.36
  -5  -2  -6    3.37    0.36
  -5  -2  -6    3.29    0.30
  -5  -2  -6    2.74    0.30
  -6  -2  -6    0.29    0.13
  -6  -2  -6    0.33    0.12
  -6  -2  -6    0.41    0.14
   6   2   6    0.31    0.13
  -5   3   6    0.75    0.12
  -5   3   6    0.65    0.16
  -5   3   6    0.85    0.22
   4  -3  -6    2.34    0.21
   4  -3  -6    2.62    0.30
  -4   3   6    2.12    0.24
  -4   3   6    2.26    0.37
  -4   3   6    1.72    0.29
  -4   3   6    2.16    0.24
  -4   3   6    2.37    0.23
  -3   3   6    6.62    0.70
  -3   3   6    6.52    0.38
  -3   3   6    6.69    0.42
  -3   3   6    6.57    0.40
   2  -3  -6   45.72    1.88
  -2   3   6   44.33    1.90
  -2   3   6   44.21    1.92
  -2   3   6   44.68    1.88
   1  -3  -6  101.99    4.11
   1  -3  -6  107.00    4.11
  -1   3   6  100.76    4.11
  -1   3   6   97.41    4.12
  -1   3   6   96.23    4.13
  -1   3   6  102.62    4.08
   0  -3  -6   55.81    2.31
   0  -3  -6   57.91    2.30
   0   3   6   56.18    2.29
   0   3   6   53.98    2.31
  -1  -3  -6   66.25    2.88
  -1  -3  -6   70.35    2.90
   1   3   6   72.04    2.88
   1   3   6   73.17    2.89
  -2  -3  -6   53.87    2.35
  -2  -3  -6   58.20    2.32
   2   3   6   55.36    2.30
  -3  -3  -6   60.99    2.50
  -3  -3  -6   57.72    2.52
   3   3   6   60.21    2.47
  -4  -3  -6    1.82    0.20
  -4  -3  -6    1.42    0.19
   4   3   6    1.73    0.17
  -5  -3  -6   26.77    1.39
  -5  -3  -6   27.97    1.37
  -5  -3  -6   25.23    1.26
  -5  -3  -6   27.90    1.34
   5   3   6   25.53    1.32
  -6  -3  -6    6.66    0.44
  -6  -3  -6    6.19    0.44
  -6  -3  -6    6.74    0.37
  -6  -3  -6    6.00    0.38
   6   3   6    6.55    0.45
   7   3   6    2.23    0.17
  -5   4   6    1.37    0.20
  -5   4   6    1.44    0.17
   4  -4  -6    4.86    0.39
  -4   4   6    4.56    0.43
  -4   4   6    5.03    0.34
  -4   4   6    5.10    0.35
  -4   4   6    4.54    0.46
   3  -4  -6    2.06    0.19
  -3   4   6    1.60    0.34
  -3   4   6    1.76    0.21
  -3   4   6    1.73    0.23
  -3   4   6    1.74    0.20
  -3   4   6    1.53    0.33
  -3   4   6    1.85    0.32
   2  -4  -6    2.72    0.20
   2  -4  -6    1.94    0.21
  -2   4   6    2.42    0.22
  -2   4   6    2.02    0.21
  -2   4   6    2.27    0.20
   1  -4  -6   21.44    0.94
   1  -4  -6   21.78    0.94
  -1   4   6   21.41    0.97
  -1   4   6   20.38    0.94
  -1   4   6   20.90    0.94
   0  -4  -6   49.51    2.04
   0   4   6   48.80    2.01
   0   4   6   48.89    2.05
   0   4   6   48.34    2.03
  -1  -4  -6    3.92    0.26
  -1  -4  -6    3.91    0.23
   1   4   6    4.08    0.23
   1   4   6    4.16    0.23
   1   4   6    4.13    0.25
  -2  -4  -6   90.88    3.86
  -2  -4  -6   97.16    3.81
  -2  -4  -6   88.83    3.83
   2   4   6   95.71    3.80
  -3  -4  -6   95.74    4.08
  -3  -4  -6   98.90    4.03
   3   4   6  100.13    4.02
  -4  -4  -6   46.55    2.02
  -4  -4  -6   45.11    1.91
  -4  -4  -6   42.83    1.94
   4   4   6   41.30    1.86
   4   4   6   40.28    2.00
  -5  -4  -6    4.72    0.43
  -5  -4  -6    4.32    0.34
  -5  -4  -6    4.06    0.39
  -5  -4  -6    4.29    0.37
   5   4   6    3.93    0.39
  -6  -4  -6    0.66    0.14
  -6  -4  -6    0.41    0.14
  -6  -4  -6    0.21    0.17
  -6  -4  -6    0.32    0.10
   6   4   6    0.36    0.14
   7   4   6    3.93    0.24
   4  -5  -6    1.05    0.19
  -4   5   6    1.27    0.20
  -4   5   6    1.55    0.19
  -4   5   6    0.83    0.18
  -4   5   6    1.23    0.15
   3  -5  -6    4.78    0.31
  -3   5   6    4.67    0.32
  -3   5   6    4.34    0.45
  -3   5   6    4.44    0.47
  -3   5   6    4.36    0.31
  -3   5   6    4.46    0.34
  -3   5   6    3.96    0.44
   2  -5  -6   12.92    0.62
  -2   5   6   12.10    0.61
  -2   5   6   11.19    0.85
  -2   5   6   12.27    0.62
  -2   5   6   11.92    0.67
  -2   5   6   13.04    0.87
  -2   5   6   12.65    0.83
   1  -5  -6    0.45    0.11
  -1   5   6    0.72    0.17
  -1   5   6    0.92    0.14
  -1   5   6    0.48    0.11
   0  -5  -6   12.82    0.61
   0   5   6   12.28    0.61
   0   5   6   12.07    0.59
  -1  -5  -6   23.57    1.05
   1   5   6   22.56    1.00
   1   5   6   23.13    1.00
   1   5   6   22.69    1.02
  -2  -5  -6   17.84    0.86
  -2  -5  -6   17.55    0.87
   2   5   6   18.48    0.80
   2   5   6   17.08    0.83
   2   5   6   18.86    0.81
  -3  -5  -6    2.30    0.24
   3   5   6    2.40    0.18
  -4  -5  -6   57.50    2.47
  -4  -5  -6   53.69    2.52
  -4  -5  -6   57.30    2.44
   4   5   6   56.29    2.34
   4   5   6   55.09    2.55
  -5  -5  -6    1.94    0.28
  -5  -5  -6    2.24    0.26
  -5  -5  -6    2.05    0.26
   5   5   6    1.88    0.31
  -6  -5  -6    0.18    0.10
   6   5   6    0.05    0.11
  -4   6   6   -0.02    0.07
  -4   6   6   -0.01    0.06
  -3   6   6   12.06    0.73
  -3   6   6   10.37    0.71
  -3   6   6   10.53    0.84
  -3   6   6   11.75    0.57
  -3   6   6   12.19    0.61
   2  -6  -6   31.19    1.32
  -2   6   6   29.87    1.56
  -2   6   6   28.83    1.46
  -2   6   6   29.81    1.36
  -2   6   6   27.23    1.52
  -2   6   6   29.70    1.31
   1  -6  -6    1.70    0.20
  -1   6   6    1.74    0.35
  -1   6   6    1.61    0.18
  -1   6   6    1.26    0.18
  -1   6   6    1.57    0.22
  -1   6   6    1.30    0.28
  -1   6   6    1.90    0.24
   0   6   6   21.19    1.23
   0   6   6   17.08    1.03
   0   6   6   18.37    0.96
   0   6   6   19.23    0.85
   0   6   6   19.84    0.96
  -1  -6  -6    5.35    0.36
   1   6   6    5.58    0.32
   1   6   6    4.92    0.34
   1   6   6    5.45    0.31
  -2  -6  -6  116.77    4.89
  -2  -6  -6  115.00    4.90
   2   6   6  114.14    4.85
   2   6   6  122.97    4.82
   2   6   6  120.80    4.81
  -3  -6  -6   25.79    1.24
   3   6   6   25.81    1.23
   3   6   6   26.40    1.34
   3   6   6   26.84    1.16
  -4  -6  -6  160.10    6.47
  -4  -6  -6  143.38    6.62
   4   6   6  166.61    6.57
   4   6   6  153.10    6.35
  -5  -6  -6    0.28    0.19
  -5  -6  -6    0.19    0.12
   5   6   6    0.19    0.16
  -6  -6  -6    0.07    0.08
   6   6   6    0.12    0.10
  -3   7   6    0.34    0.08
  -3   7   6    0.56    0.12
  -2   7   6    3.86    0.39
  -2   7   6    3.88    0.39
  -2   7   6    3.77    0.28
  -2   7   6    4.33    0.28
   1  -7  -6   72.16    3.01
  -1   7   6   71.39    3.32
  -1   7   6   72.88    3.00
  -1   7   6   71.23    3.03
  -1   7   6   71.07    3.06
  -1   7   6   72.04    3.22
   0  -7  -6    2.54    0.26
   0   7   6    2.65    0.31
   0   7   6    2.44    0.38
   0   7   6    3.14    0.28
   0   7   6    2.76    0.30
   0   7   6    2.47    0.24
   0   7   6    2.51    0.23
   0   7   6    2.07    0.33
  -1  -7  -6  119.63    5.05
  -1  -7  -6  116.03    5.01
   1   7   6  121.08    4.95
   1   7   6  125.22    5.06
   1   7   6  124.15    4.96
   1   7   6  119.78    4.99
   1   7   6  116.20    5.02
   1   7   6  119.79    5.35
   1   7   6  128.79    5.14
  -2  -7  -6   75.92    3.26
  -2  -7  -6   72.47    3.21
  -2  -7  -6   75.58    3.23
   2   7   6   79.16    3.13
   2   7   6   72.62    3.36
   2   7   6   70.98    3.25
   2   7   6   79.41    3.23
   2   7   6   71.65    3.18
   2   7   6   77.74    3.13
   2   7   6   80.12    3.49
  -3  -7  -6    2.87    0.34
   3   7   6    3.04    0.32
   3   7   6    2.65    0.23
   3   7   6    2.34    0.29
  -4  -7  -6    3.85    0.45
  -4  -7  -6    4.85    0.39
   4   7   6    5.48    0.42
  -5  -7  -6    8.84    0.52
   5   7   6   10.44    0.58
  -6  -7  -6   -0.08    0.10
   6   7   6    0.01    0.09
  -2   8   6    0.90    0.12
  -2   8   6    0.83    0.16
  -2   8   6    1.06    0.17
  -1   8   6   26.71    1.15
  -1   8   6   26.63    1.16
  -1   8   6   25.35    1.18
  -1   8   6   27.86    1.39
  -1   8   6   24.42    1.29
   0  -8  -6   14.40    1.01
   0   8   6   16.95    0.83
   0   8   6   16.54    0.94
   0   8   6   16.55    0.78
   0   8   6   18.02    0.84
   0   8   6   16.16    1.03
  -1  -8  -6   23.16    1.19
   1   8   6   25.65    1.21
   1   8   6   25.86    1.29
   1   8   6   27.13    1.14
   1   8   6   26.04    1.19
   1   8   6   24.89    1.42
  -2  -8  -6   65.88    2.94
  -2  -8  -6   63.74    2.95
   2   8   6   70.10    3.01
   2   8   6   72.95    2.93
   2   8   6   70.60    2.95
   2   8   6   71.08    2.86
   2   8   6   68.97    3.17
  -3  -8  -6   13.25    0.72
   3   8   6   13.20    0.68
   3   8   6   14.56    0.75
   3   8   6   14.36    0.68
   3   8   6   12.18    0.66
  -4  -8  -6    1.92    0.24
   4   8   6    1.60    0.21
  -5  -8  -6    0.87    0.13
   5   8   6    0.71    0.12
  -1   9   6    6.02    0.37
  -1   9   6    6.28    0.40
  -1   9   6    5.42    0.31
   0   9   6    0.27    0.11
   0   9   6    0.25    0.14
   0   9   6    0.29    0.12
   0   9   6    0.25    0.09
   1   9   6   10.09    0.56
   1   9   6   11.58    0.66
   1   9   6   11.14    0.73
   1   9   6   11.67    0.59
   1   9   6   11.09    0.55
   2   9   6   27.56    1.36
   2   9   6   28.48    1.22
   2   9   6   23.27    1.19
   2   9   6   28.28    1.28
  -3  -9  -6   39.40    1.72
  -3  -9  -6   39.81    1.86
   3   9   6   42.12    1.78
   3   9   6   37.69    1.69
   3   9   6   41.20    1.82
  -4  -9  -6    9.25    0.47
   4   9   6    9.06    0.49
  -5  -9  -6    7.65    0.36
   5   9   6    7.30    0.39
   0  10   6    0.01    0.05
   1  10   6    2.68    0.27
   1  10   6    2.87    0.24
   1  10   6    3.15    0.19
  -2 -10  -6    5.84    0.37
   2  10   6    4.76    0.27
   2  10   6    6.38    0.34
   2  10   6    4.74    0.31
   3  10   6    3.59    0.27
   3  10   6    3.77    0.25
   3   9  -7    1.21    0.14
   3   9  -7    1.36    0.17
  -3  -9   7    1.55    0.16
   2   9  -7    0.13    0.13
   2   9  -7    0.32    0.10
   2   9  -7    0.26    0.10
   2   9  -7    0.18    0.09
   1   9  -7   -0.02    0.07
   1   9  -7   -0.07    0.10
   1   9  -7   -0.04    0.09
   0   9  -7    0.35    0.13
   0   9  -7    0.29    0.08
   0   9  -7    0.16    0.09
   4   8  -7    9.81    0.49
   4   8  -7    8.57    0.46
  -4  -8   7    9.72    0.47
   3   8  -7    1.78    0.28
   3   8  -7    2.31    0.38
   3   8  -7    1.88    0.32
   2   8  -7    5.02    0.35
   2   8  -7    4.47    0.32
   2   8  -7    5.19    0.32
   2   8  -7    5.19    0.40
   2   8  -7    5.14    0.50
   1   8  -7    7.85    0.56
   1   8  -7    8.94    0.69
   1   8  -7    9.08    0.50
   1   8  -7    8.24    0.53
   0   8  -7    0.02    0.10
   0   8  -7   -0.02    0.08
   0   8  -7   -0.06    0.13
  -1   8  -7    0.17    0.15
  -1   8  -7    0.18    0.11
  -1   8  -7    0.21    0.10
   4   7  -7   18.91    0.88
   4   7  -7   18.37    0.92
   4   7  -7   17.97    0.91
  -4  -7   7   18.55    0.89
   3   7  -7    0.18    0.16
   3   7  -7    0.31    0.22
   3   7  -7   -0.05    0.17
   2   7  -7   -0.02    0.14
   2   7  -7   -0.03    0.10
   2   7  -7    0.28    0.14
   2   7  -7   -0.02    0.21
   2   7  -7    0.01    0.13
   1   7  -7    0.93    0.18
   1   7  -7    0.77    0.15
   1   7  -7    1.03    0.30
   1   7  -7    1.10    0.22
   1   7  -7    0.84    0.18
   0   7  -7    0.85    0.18
   0   7  -7    0.40    0.16
   0   7  -7    0.46    0.24
  -1   7  -7   15.69    0.81
  -1   7  -7   15.69    1.03
  -1   7  -7   15.72    0.82
  -2   7  -7    1.90    0.21
  -2   7  -7    1.97    0.33
  -2   7  -7    1.80    0.25
   5   6  -7    3.06    0.27
  -5  -6   7    3.24    0.35
   4   6  -7    2.35    0.25
   4   6  -7    2.52    0.28
   4   6  -7    1.67    0.38
  -4  -6   7    1.88    0.31
  -4  -6   7    2.45    0.31
   3   6  -7   31.68    1.36
   3   6  -7   30.40    1.71
   3   6  -7   32.97    1.43
   3   6  -7   29.82    1.53
  -3  -6   7   28.76    1.53
   2   6  -7  136.60    5.75
   2   6  -7  150.87    6.30
   2   6  -7  139.26    5.77
   2   6  -7  143.07    5.85
   2   6  -7  142.45    5.97
   2   6  -7  146.48    5.84
  -2  -6   7  124.94    5.92
  -2  -6   7  146.96    5.88
   1   6  -7    2.84    0.36
   1   6  -7    2.58    0.30
   1   6  -7    2.01    0.39
   1   6  -7    2.26    0.20
   1   6  -7    2.60    0.29
   1   6  -7    2.22    0.23
   1   6  -7    2.35    0.44
  -1  -6   7    2.24    0.30
  -1  -6   7    1.74    0.37
   0   6  -7    1.11    0.32
   0   6  -7    1.88    0.19
   0   6  -7    2.16    0.41
   0   6  -7    1.92    0.25
   0   6  -7    1.99    0.26
   0  -6   7    2.17    0.30
  -1   6  -7    3.43    0.49
  -1   6  -7    3.11    0.33
  -1   6  -7    3.17    0.32
  -1   6  -7    3.98    0.37
   1  -6   7    4.11    0.44
  -2   6  -7   -0.07    0.23
  -2   6  -7    0.10    0.14
  -2   6  -7    0.01    0.12
  -3   6  -7    5.72    0.37
   6   5  -7    1.10    0.11
  -6  -5   7    1.69    0.18
   5   5  -7    8.36    0.47
   5   5  -7    8.55    0.44
  -5  -5   7    7.56    0.57
   4   5  -7    0.96    0.17
   4   5  -7    0.89    0.16
  -4  -5   7    1.23    0.29
   3   5  -7    8.36    0.51
   3   5  -7    8.13    0.45
   3   5  -7    7.62    0.75
   3   5  -7    6.24    0.69
  -3  -5   7    8.51    0.51
  -3  -5   7    7.38    0.70
   2   5  -7   16.89    1.07
   2   5  -7   19.82    0.95
   2   5  -7   20.43    1.26
   2   5  -7   19.26    0.84
  -2  -5   7   16.92    1.09
  -2  -5   7   19.61    0.95
   1   5  -7   27.15    1.17
   1   5  -7   25.64    1.17
  -1  -5   7   27.52    1.25
   0   5  -7   11.48    0.58
   0  -5   7   12.36    0.65
  -1   5  -7    3.31    0.44
  -1   5  -7    2.92    0.32
  -1   5  -7    3.02    0.31
  -1   5  -7    3.11    0.23
   1  -5   7    2.88    0.24
  -2   5  -7    2.11    0.27
  -2   5  -7    1.62    0.21
  -2   5  -7    1.46    0.22
  -2   5  -7    1.83    0.43
  -2   5  -7    1.74    0.23
   2  -5   7    1.97    0.23
  -3   5  -7    5.03    0.36
  -3   5  -7    5.47    0.39
  -4   5  -7    0.19    0.14
   6   4  -7   16.99    0.80
  -6  -4   7   18.66    0.85
   5   4  -7    0.45    0.13
   5   4  -7    0.39    0.12
  -5  -4   7    0.03    0.18
   4   4  -7    1.79    0.22
   4   4  -7    1.76    0.26
  -4  -4   7    1.98    0.27
  -4  -4   7    1.66    0.38
   3   4  -7   10.73    0.65
   3   4  -7   11.82    0.60
  -3  -4   7    9.98    0.85
  -3  -4   7   11.65    0.61
   2   4  -7    1.56    0.18
   2   4  -7    1.40    0.15
  -2  -4   7    1.55    0.20
   1   4  -7    0.78    0.13
   1   4  -7    0.82    0.11
  -1  -4   7    0.75    0.14
   0   4  -7    6.51    0.35
   0  -4   7    6.85    0.41
  -1   4  -7    0.04    0.06
   1  -4   7   -0.02    0.07
   1  -4   7   -0.15    0.13
  -2   4  -7    7.92    0.49
  -2   4  -7    8.02    0.43
  -2   4  -7    7.93    0.52
  -2   4  -7    7.67    0.50
   2  -4   7    8.19    0.44
  -3   4  -7   43.74    1.95
  -3   4  -7   46.12    1.99
  -4   4  -7    2.80    0.27
  -4   4  -7    2.49    0.26
  -4   4  -7    2.24    0.34
   6   3  -7   16.11    0.79
  -6  -3   7   17.92    0.83
   5   3  -7    0.06    0.10
   5   3  -7    0.24    0.12
  -5  -3   7    0.09    0.18
   4   3  -7   -0.04    0.14
   4   3  -7    0.09    0.11
  -4  -3   7    0.12    0.13
  -4  -3   7    0.34    0.15
  -4  -3   7   -0.13    0.22
   3   3  -7    2.87    0.25
  -3  -3   7    3.42    0.27
   2   3  -7   15.76    0.70
   2   3  -7   15.38    0.75
   2   3  -7   15.80    0.69
  -2  -3   7   16.29    0.78
   1   3  -7   31.74    1.29
   1   3  -7   29.09    1.31
   1   3  -7   30.62    1.29
  -1  -3   7   30.85    1.35
   0   3  -7  132.86    5.37
   0   3  -7  129.06    5.36
   0  -3   7  134.98    5.40
  -1   3  -7   39.99    1.80
   1  -3   7   45.09    1.82
  -2   3  -7   10.03    0.49
  -2   3  -7    9.33    0.51
   2  -3   7    9.64    0.49
  -3   3  -7   72.34    3.00
  -3   3  -7   65.27    2.93
  -3   3  -7   71.08    3.04
   3  -3   7   70.54    2.92
  -4   3  -7    6.63    0.45
  -4   3  -7    6.28    0.47
  -5   3  -7    1.99    0.21
  -5   3  -7    1.81    0.21
   6   2  -7   21.65    1.08
  -6  -2   7   26.69    1.12
   5   2  -7   23.69    1.19
   5   2  -7   24.44    1.14
  -5  -2   7   24.14    1.25
  -5  -2   7   24.80    1.16
   4   2  -7   21.70    1.03
   4   2  -7   21.54    1.10
  -4  -2   7   20.37    1.19
  -4  -2   7   20.93    1.02
  -4  -2   7   22.42    1.07
   3   2  -7   50.50    2.24
   3   2  -7   55.67    2.30
  -3  -2   7   54.19    2.29
   2   2  -7  179.41    7.35
   2   2  -7  177.15    7.39
  -2  -2   7  189.22    7.40
   1   2  -7  111.96    4.57
   1   2  -7  111.97    4.59
  -1  -2   7  115.92    4.65
  -1  -2   7  111.90    4.62
   0   2  -7   26.07    1.11
   0   2  -7   25.98    1.12
   0  -2   7   25.32    1.14
   0  -2   7   27.36    1.12
  -1   2  -7   23.94    1.07
  -1   2  -7   23.20    1.05
   1  -2   7   23.99    1.05
   1  -2   7   26.30    1.06
  -2   2  -7    4.39    0.31
  -3   2  -7   11.04    0.60
   3  -2   7   11.71    0.58
  -4   2  -7    1.06    0.20
  -4   2  -7    1.19    0.23
  -4   2  -7    0.77    0.16
  -4   2  -7    1.02    0.20
  -5   2  -7    0.38    0.14
  -5   2  -7    0.68    0.15
  -5   2  -7    0.60    0.16
  -6   2  -7    0.80    0.11
  -6   2  -7    0.75    0.14
   6   1  -7    4.87    0.32
  -6  -1   7    5.78    0.33
   5   1  -7    3.83    0.32
   5   1  -7    4.01    0.36
  -5  -1   7    4.11    0.33
  -5  -1   7    4.35    0.42
  -5  -1   7    3.85    0.39
  -5  -1   7    3.68    0.53
   4   1  -7   10.50    0.59
  -4  -1   7    8.78    0.71
  -4  -1   7   10.81    0.60
  -4  -1   7   10.24    0.57
  -4  -1   7    9.01    0.78
   3   1  -7   41.15    1.77
   3   1  -7   41.29    1.83
  -3  -1   7   43.82    1.75
  -3  -1   7   40.69    1.81
   2   1  -7  189.65    7.69
   2   1  -7  186.31    7.73
  -2  -1   7  195.06    7.73
   1   1  -7    3.53    0.21
   1   1  -7    3.74    0.20
  -1  -1   7    3.85    0.24
  -1  -1   7    3.88    0.20
   0   1  -7   16.50    0.70
   0   1  -7   16.05    0.70
   0  -1   7   15.47    0.71
   0  -1   7   15.70    0.69
  -1   1  -7   19.62    0.85
  -1   1  -7   19.41    0.86
  -1   1  -7   19.79    0.87
   1  -1   7   19.87    0.84
   1  -1   7   19.98    0.86
  -2   1  -7   33.73    1.44
  -2   1  -7   34.39    1.48
   2  -1   7   34.72    1.45
  -3   1  -7    0.44    0.11
  -3   1  -7    0.22    0.09
   3  -1   7    0.34    0.10
  -4   1  -7   -0.08    0.09
  -4   1  -7    0.12    0.14
  -4   1  -7    0.16    0.15
  -4   1  -7    0.05    0.10
  -5   1  -7    0.74    0.13
  -5   1  -7    0.82    0.19
  -5   1  -7    0.63    0.16
  -6   1  -7    0.08    0.09
  -6   1  -7    0.00    0.07
   6   0  -7    4.24    0.26
  -6   0   7    3.63    0.26
  -6   0   7    3.98    0.28
  -6   0   7    4.71    0.26
   5   0  -7    6.97    0.46
   5   0  -7    7.25    0.49
  -5   0   7    6.88    0.51
  -5   0   7    7.34    0.45
  -5   0   7    5.77    0.56
  -5   0   7    7.04    0.51
   4   0  -7    8.54    0.54
  -4   0   7    8.91    0.52
  -4   0   7    7.84    0.63
  -4   0   7    9.34    0.54
  -4   0   7    8.54    0.45
  -4   0   7    8.60    0.72
  -4   0   7    8.78    0.67
   3   0  -7   36.28    1.67
   3   0  -7   37.07    1.59
  -3   0   7   38.14    1.62
  -3   0   7   37.03    1.64
  -3   0   7   38.22    1.57
   2   0  -7   43.36    1.92
   2   0  -7   46.38    1.87
  -2   0   7   44.49    1.88
  -2   0   7   43.31    1.90
  -2   0   7   46.32    1.85
   1   0  -7   74.86    3.05
   1   0  -7   74.41    3.03
  -1   0   7   72.14    3.02
  -1   0   7   76.82    3.02
   0   0  -7   71.06    2.85
   0   0  -7   72.11    2.86
   0   0   7   69.91    2.85
   0   0   7   67.01    2.86
  -1   0  -7    0.50    0.08
  -1   0  -7    0.37    0.09
   1   0   7    0.81    0.10
  -2   0  -7   45.64    1.91
  -2   0  -7   44.48    1.88
   2   0   7   44.60    1.87
  -3   0  -7    3.08    0.24
  -3   0  -7    2.97    0.23
   3   0   7    3.29    0.23
  -4   0  -7    2.29    0.35
  -4   0  -7    1.66    0.20
  -5   0  -7    8.28    0.56
  -5   0  -7    8.03    0.54
  -5   0  -7    8.53    0.50
  -5   0  -7    8.96    0.47
  -5   0  -7    8.17    0.45
  -6   0  -7    1.02    0.23
  -6   0  -7    0.88    0.16
  -6   0  -7    1.06    0.19
   6   0   7    1.07    0.25
   6  -1  -7    0.89    0.15
  -6   1   7    0.94    0.15
   5  -1  -7    1.32    0.19
  -5   1   7    0.96    0.22
  -5   1   7    0.79    0.18
  -5   1   7    0.96    0.15
  -5   1   7    0.99    0.21
   4  -1  -7    9.52    0.57
  -4   1   7    8.63    0.57
  -4   1   7    8.45    0.64
  -4   1   7    9.24    0.48
  -4   1   7    9.46    0.52
  -4   1   7   10.29    0.71
  -4   1   7    8.93    0.71
  -4   1   7    9.26    0.55
   3  -1  -7  113.31    4.88
   3  -1  -7  120.63    4.98
  -3   1   7  120.03    4.90
  -3   1   7  121.65    4.86
  -3   1   7  121.59    4.93
   2  -1  -7   24.47    1.14
   2  -1  -7   24.49    1.08
  -2   1   7   24.84    1.09
  -2   1   7   25.29    1.11
  -2   1   7   25.19    1.07
   1  -1  -7   59.61    2.39
   1  -1  -7   61.97    2.41
  -1   1   7   53.19    2.38
  -1   1   7   58.20    2.42
  -1   1   7   58.42    2.39
   0  -1  -7  170.73    6.92
   0  -1  -7  170.51    6.91
   0   1   7  173.89    6.91
   0   1   7  171.43    6.92
  -1  -1  -7    2.55    0.17
  -1  -1  -7    2.66    0.17
   1   1   7    2.85    0.16
   1   1   7    2.59    0.16
  -2  -1  -7  119.45    4.91
  -2  -1  -7  122.07    4.93
   2   1   7  119.65    4.88
  -3  -1  -7   33.04    1.46
  -3  -1  -7   31.92    1.44
   3   1   7   34.37    1.42
  -4  -1  -7   83.10    3.44
  -4  -1  -7   75.85    3.45
  -4  -1  -7   84.71    3.50
  -4  -1  -7   82.38    3.58
   4   1   7   86.51    3.42
  -5  -1  -7   16.19    0.88
  -5  -1  -7   16.06    0.85
  -5  -1  -7   14.32    0.78
  -5  -1  -7   15.32    0.75
  -5  -1  -7   15.46    0.76
   5   1   7   15.69    0.84
  -6  -1  -7    4.68    0.32
  -6  -1  -7    4.58    0.30
  -6  -1  -7    4.14    0.33
  -6  -1  -7    4.56    0.27
   6   1   7    4.30    0.32
   5  -2  -7    1.19    0.21
  -5   2   7    1.41    0.18
  -5   2   7    0.99    0.21
  -5   2   7    1.70    0.23
   4  -2  -7    0.12    0.12
   4  -2  -7    0.48    0.10
  -4   2   7    0.35    0.21
  -4   2   7    0.26    0.12
  -4   2   7    0.34    0.14
  -4   2   7    0.20    0.20
  -4   2   7    0.20    0.10
   3  -2  -7    1.85    0.26
   3  -2  -7    1.65    0.20
  -3   2   7    2.04    0.21
  -3   2   7    2.36    0.28
  -3   2   7    2.22    0.38
  -3   2   7    1.85    0.22
  -3   2   7    1.84    0.36
  -3   2   7    2.18    0.21
   2  -2  -7   11.68    0.55
   2  -2  -7   11.62    0.54
  -2   2   7   11.44    0.58
  -2   2   7   11.78    0.57
  -2   2   7   11.46    0.55
   1  -2  -7  273.09   10.75
   1  -2  -7  255.57   10.73
  -1   2   7  275.38   10.75
  -1   2   7  264.20   10.73
  -1   2   7  268.78   10.71
  -1   2   7  264.41   10.76
   0  -2  -7  128.99    5.19
   0   2   7  129.59    5.16
   0   2   7  125.07    5.18
  -1  -2  -7   83.22    3.40
  -1  -2  -7   83.09    3.39
   1   2   7   81.83    3.37
   1   2   7   83.46    3.37
  -2  -2  -7  132.99    5.46
  -2  -2  -7  138.13    5.48
   2   2   7  131.08    5.43
  -3  -2  -7    7.80    0.44
  -4  -2  -7   35.84    1.68
  -4  -2  -7   34.99    1.59
  -4  -2  -7   36.79    1.62
  -4  -2  -7   34.71    1.62
   4   2   7   34.27    1.52
  -5  -2  -7    9.15    0.54
  -5  -2  -7   10.44    0.65
  -5  -2  -7    9.98    0.62
  -5  -2  -7   10.39    0.55
  -5  -2  -7    9.86    0.56
   5   2   7    9.03    0.61
  -6  -2  -7   10.86    0.57
  -6  -2  -7   11.63    0.65
  -6  -2  -7   11.75    0.58
  -6  -2  -7   11.18    0.62
   6   2   7   11.87    0.63
  -5   3   7    0.08    0.09
  -5   3   7    0.04    0.09
  -5   3   7    0.06    0.07
   4  -3  -7   23.07    1.12
   4  -3  -7   24.13    1.13
  -4   3   7   23.59    1.27
  -4   3   7   22.81    1.09
  -4   3   7   22.54    1.25
  -4   3   7   23.58    1.06
  -4   3   7   22.61    1.13
   3  -3  -7  105.76    4.18
   3  -3  -7  112.22    4.72
  -3   3   7   91.21    4.45
  -3   3   7   95.64    4.47
  -3   3   7  100.92    4.24
  -3   3   7  108.78    4.29
  -3   3   7  100.68    4.51
  -3   3   7  100.91    4.22
  -3   3   7  102.09    4.20
   2  -3  -7   41.32    1.72
   2  -3  -7   42.65    1.71
  -2   3   7   38.39    1.72
  -2   3   7   40.02    1.71
  -2   3   7   39.12    1.75
   1  -3  -7  191.32    7.66
   1  -3  -7  186.85    7.67
  -1   3   7  192.29    7.66
  -1   3   7  190.39    7.69
  -1   3   7  187.05    7.66
   0  -3  -7   61.52    2.43
   0  -3  -7   58.50    2.44
   0   3   7   56.56    2.42
   0   3   7   58.80    2.45
   0   3   7   59.64    2.42
  -1  -3  -7    0.82    0.12
  -1  -3  -7    0.92    0.11
   1   3   7    0.69    0.09
   1   3   7    1.13    0.13
  -2  -3  -7   31.57    1.35
  -2  -3  -7   30.85    1.36
   2   3   7   30.59    1.32
  -3  -3  -7   98.72    4.26
  -3  -3  -7  109.55    4.35
   3   3   7  100.83    4.20
  -4  -3  -7   88.67    3.65
  -4  -3  -7   87.57    3.61
  -4  -3  -7   88.62    3.72
  -4  -3  -7   84.41    3.60
   4   3   7   79.20    3.68
   4   3   7   87.49    3.58
  -5  -3  -7   10.28    0.65
  -5  -3  -7   10.39    0.63
  -5  -3  -7    9.82    0.58
  -5  -3  -7    8.92    0.54
  -5  -3  -7   10.19    0.55
   5   3   7    9.80    0.63
  -6  -3  -7    5.04    0.36
  -6  -3  -7    5.01    0.29
  -6  -3  -7    3.61    0.33
   6   3   7    4.55    0.36
   5  -4  -7    0.60    0.10
  -5   4   7    0.50    0.08
  -5   4   7    0.50    0.10
  -5   4   7    0.57    0.10
   4  -4  -7    1.18    0.19
  -4   4   7    1.44    0.24
  -4   4   7    1.27    0.17
  -4   4   7    0.97    0.15
  -4   4   7    0.81    0.19
   3  -4  -7   45.12    1.91
  -3   4   7   45.22    2.16
  -3   4   7   42.15    1.99
  -3   4   7   45.34    2.25
  -3   4   7   45.19    2.00
  -3   4   7   44.12    1.91
  -3   4   7   47.10    2.18
   2  -4  -7   50.16    2.15
   2  -4  -7   49.56    2.13
  -2   4   7   49.31    2.14
  -2   4   7   50.83    2.44
  -2   4   7   50.59    2.21
  -2   4   7   51.27    2.41
  -2   4   7   52.01    2.42
  -2   4   7   50.44    2.13
   1  -4  -7    3.40    0.23
   1  -4  -7    3.07    0.22
  -1   4   7    2.80    0.22
  -1   4   7    3.14    0.24
  -1   4   7    3.19    0.23
   0  -4  -7   43.23    1.80
   0  -4  -7   43.07    1.82
   0   4   7   42.41    1.83
   0   4   7   43.33    1.81
   0   4   7   43.21    1.79
  -1  -4  -7   18.13    0.82
  -1  -4  -7   16.93    0.80
   1   4   7   18.06    0.81
   1   4   7   17.91    0.79
   1   4   7   17.88    0.79
  -2  -4  -7   26.82    1.18
  -2  -4  -7   26.45    1.21
   2   4   7   26.98    1.16
  -3  -4  -7   75.08    3.22
   3   4   7   77.41    3.15
  -4  -4  -7    0.80    0.27
  -4  -4  -7    1.12    0.20
  -4  -4  -7    1.10    0.25
  -4  -4  -7    1.10    0.19
   4   4   7    1.22    0.26
   4   4   7    1.09    0.15
  -5  -4  -7    5.51    0.43
  -5  -4  -7    5.07    0.39
  -5  -4  -7    4.88    0.42
  -5  -4  -7    5.04    0.37
   5   4   7    4.89    0.43
  -6  -4  -7    5.15    0.30
  -6  -4  -7    4.86    0.35
   6   4   7    4.40    0.36
  -4   5   7    1.96    0.22
  -4   5   7    1.74    0.16
  -4   5   7    1.89    0.22
   3  -5  -7   31.37    1.56
  -3   5   7   30.57    1.50
  -3   5   7   35.76    1.58
  -3   5   7   33.82    1.65
  -3   5   7   33.11    1.65
  -3   5   7   36.30    1.71
  -3   5   7   35.17    1.48
   2  -5  -7   22.39    0.96
  -2   5   7   19.60    1.14
  -2   5   7   20.11    0.94
  -2   5   7   20.26    0.95
  -2   5   7   20.60    1.20
  -2   5   7   19.53    1.01
  -2   5   7   20.94    1.01
  -2   5   7   20.03    1.17
   1  -5  -7   42.15    1.80
  -1   5   7   43.70    2.15
  -1   5   7   37.72    2.00
  -1   5   7   44.10    1.88
   0  -5  -7   44.54    1.90
   0   5   7   44.12    1.86
   0   5   7   44.38    1.91
   0   5   7   45.37    1.89
  -1  -5  -7  154.16    6.19
   1   5   7  149.49    6.13
   1   5   7  150.56    6.14
  -2  -5  -7   14.96    0.77
   2   5   7   15.14    0.70
  -3  -5  -7    0.96    0.27
   3   5   7    0.93    0.12
   3   5   7    1.16    0.29
  -4  -5  -7    0.59    0.16
  -4  -5  -7    0.22    0.15
   4   5   7    0.48    0.13
   4   5   7    0.27    0.17
  -5  -5  -7   19.17    0.94
  -5  -5  -7   18.20    0.92
   5   5   7   18.93    1.01
  -6  -5  -7    5.15    0.33
   6   5   7    5.74    0.46
  -4   6   7    4.29    0.27
  -4   6   7    4.19    0.22
   3  -6  -7   22.97    1.04
   3  -6  -7   19.49    1.15
  -3   6   7   21.47    1.05
  -3   6   7   18.94    1.06
  -3   6   7   22.64    1.00
  -3   6   7   24.83    1.15
  -3   6   7   22.43    0.97
   2  -6  -7   44.45    1.85
  -2   6   7   42.69    2.08
  -2   6   7   41.40    1.88
  -2   6   7   42.93    2.07
  -2   6   7   43.05    1.99
  -2   6   7   42.68    1.84
   1  -6  -7   12.10    0.60
  -1   6   7   11.22    0.63
  -1   6   7   11.11    0.84
  -1   6   7   12.19    0.65
  -1   6   7   11.83    0.78
  -1   6   7   11.44    0.59
  -1   6   7   11.01    0.62
   0  -6  -7   55.79    2.37
   0   6   7   51.33    2.51
   0   6   7   54.57    2.31
   0   6   7   60.49    2.74
   0   6   7   57.75    2.35
   0   6   7   54.70    2.37
  -1  -6  -7    2.52    0.26
   1   6   7    3.17    0.24
   1   6   7    2.99    0.26
   1   6   7    2.66    0.33
   1   6   7    3.01    0.42
   1   6   7    3.05    0.32
  -2  -6  -7  233.79    9.24
  -2  -6  -7  220.00    9.02
   2   6   7  216.31    8.91
   2   6   7  223.02    8.93
   2   6   7  218.74    9.02
   2   6   7  213.52    9.08
  -3  -6  -7   41.77    1.91
  -3  -6  -7   39.71    1.90
  -3  -6  -7   43.90    1.93
   3   6   7   43.10    1.82
   3   6   7   46.59    2.00
   3   6   7   41.05    1.87
  -4  -6  -7   22.77    1.13
  -4  -6  -7   23.28    1.13
   4   6   7   23.36    1.21
  -5  -6  -7    5.94    0.41
   5   6   7    6.54    0.47
  -6  -6  -7    0.28    0.08
   6   6   7    0.35    0.10
  -3   7   7    1.97    0.20
  -3   7   7    2.09    0.15
  -2   7   7    0.26    0.09
  -2   7   7    0.18    0.14
  -2   7   7    0.17    0.08
  -2   7   7    0.14    0.12
   1  -7  -7    0.89    0.17
  -1   7   7    0.98    0.14
  -1   7   7    0.98    0.24
  -1   7   7    0.76    0.15
  -1   7   7    0.98    0.16
  -1   7   7    1.04    0.28
   0  -7  -7  125.04    5.12
   0   7   7  128.41    5.16
   0   7   7  129.41    5.12
   0   7   7  117.91    5.21
   0   7   7  117.57    5.44
   0   7   7  127.08    5.33
  -1  -7  -7   90.75    3.86
  -1  -7  -7   82.07    3.65
   1   7   7   86.11    3.69
   1   7   7   89.50    3.77
   1   7   7   87.05    3.97
   1   7   7   87.47    3.67
   1   7   7   88.13    3.60
  -2  -7  -7    0.10    0.15
  -2  -7  -7    0.13    0.18
   2   7   7    0.25    0.11
   2   7   7    0.28    0.15
   2   7   7    0.29    0.12
   2   7   7    0.08    0.11
   2   7   7    0.40    0.24
   2   7   7    0.31    0.13
  -3  -7  -7    8.45    0.53
  -3  -7  -7    7.43    0.53
  -3  -7  -7    7.70    0.52
   3   7   7    7.67    0.48
   3   7   7    9.59    0.57
  -4  -7  -7   52.67    2.47
  -4  -7  -7   57.33    2.47
   4   7   7   60.73    2.53
  -5  -7  -7    2.90    0.25
   5   7   7    2.55    0.25
  -6  -7  -7   -0.01    0.06
   6   7   7   -0.02    0.06
  -2   8   7    4.21    0.24
  -2   8   7    3.34    0.28
  -2   8   7    4.19    0.29
   1  -8  -7   -0.01    0.14
  -1   8   7    0.07    0.11
  -1   8   7    0.04    0.08
  -1   8   7    0.05    0.11
  -1   8   7    0.08    0.13
  -1   8   7    0.25    0.10
   0   8   7    7.64    0.45
   0   8   7    7.86    0.41
   0   8   7    7.38    0.44
   0   8   7    6.63    0.69
  -1  -8  -7    1.50    0.26
   1   8   7    1.60    0.21
   1   8   7    1.67    0.31
   1   8   7    1.61    0.21
   1   8   7    1.36    0.19
   1   8   7    1.42    0.24
  -2  -8  -7    7.74    0.58
   2   8   7    8.84    0.47
   2   8   7    7.94    0.54
   2   8   7    8.39    0.52
   2   8   7    8.98    0.51
   2   8   7    9.11    0.65
  -3  -8  -7   16.01    0.78
  -3  -8  -7   15.51    0.77
   3   8   7   15.19    0.74
   3   8   7   14.32    0.83
  -4  -8  -7   41.25    1.69
   4   8   7   35.65    1.70
  -5  -8  -7    7.10    0.37
   5   8   7    6.29    0.38
  -1   9   7    2.53    0.21
  -1   9   7    3.25    0.25
  -1   9   7    2.61    0.17
   0  -9  -7    0.76    0.11
   0   9   7    0.45    0.13
   0   9   7    0.50    0.09
   0   9   7    0.51    0.10
   0   9   7    0.39    0.14
   1   9   7    0.12    0.11
   1   9   7    0.45    0.15
   1   9   7    0.13    0.08
   1   9   7    0.15    0.12
   2   9   7    0.75    0.13
   2   9   7    0.53    0.11
   2   9   7    0.45    0.15
  -3  -9  -7   15.97    0.74
  -3  -9  -7   15.42    0.75
   3   9   7   16.56    0.83
   3   9   7   15.70    0.73
  -4  -9  -7    7.13    0.43
   4   9   7    6.43    0.38
  -1 -10  -7    0.26    0.07
   1  10   7    0.15    0.08
   1  10   7    0.18    0.06
   1  10   7    0.05    0.11
  -2 -10  -7   -0.02    0.06
   2  10   7    0.07    0.09
   2  10   7    0.06    0.05
   3  10   7    5.95    0.39
   2   9  -8    8.08    0.54
   2   9  -8   10.98    0.50
  -2  -9   8   10.44    0.49
   1   9  -8    9.16    0.42
   1   9  -8    6.97    0.50
   1   9  -8    9.37    0.45
   0   9  -8    0.27    0.11
   0   9  -8    0.18    0.13
   0   9  -8    0.20    0.10
   4   8  -8    2.98    0.18
   3   8  -8    0.20    0.08
   3   8  -8    0.27    0.11
   3   8  -8    0.04    0.25
  -3  -8   8    0.34    0.12
   2   8  -8    4.01    0.44
   2   8  -8    4.57    0.28
   2   8  -8    5.11    0.32
   2   8  -8    4.52    0.36
   1   8  -8    0.94    0.25
   1   8  -8    0.79    0.15
   1   8  -8    0.80    0.14
   0   8  -8    0.12    0.18
  -1   8  -8    3.91    0.34
  -1   8  -8    4.76    0.28
  -1   8  -8    5.12    0.34
   5   7  -8    0.04    0.05
   4   7  -8    0.86    0.13
  -4  -7   8    0.74    0.23
   3   7  -8    9.51    0.71
   3   7  -8    8.68    0.46
   3   7  -8    8.71    0.57
   3   7  -8    8.76    0.49
   2   7  -8  121.99    5.09
   2   7  -8  118.58    5.03
   2   7  -8  126.18    5.12
   2   7  -8  124.18    5.21
   2   7  -8  127.04    5.49
   1   7  -8   30.43    1.44
   1   7  -8   32.99    1.41
   1   7  -8   29.97    1.49
   1   7  -8   32.35    1.78
   0   7  -8    2.82    0.27
   0   7  -8    2.36    0.29
   0   7  -8    2.53    0.41
  -1   7  -8    2.89    0.40
  -1   7  -8    3.00    0.27
  -1   7  -8    3.34    0.29
  -2   7  -8    5.69    0.35
  -2   7  -8    4.99    0.31
   5   6  -8   18.85    0.83
  -5  -6   8   17.31    0.93
   4   6  -8   11.67    0.59
   4   6  -8   11.08    0.55
  -4  -6   8   10.23    0.68
   3   6  -8    6.57    0.39
   3   6  -8    7.14    0.66
   3   6  -8    7.10    0.44
   3   6  -8    6.00    0.52
  -3  -6   8    6.41    0.62
   2   6  -8   44.24    1.96
   2   6  -8   44.80    2.06
   2   6  -8   43.53    2.05
   2   6  -8   46.50    1.95
   2   6  -8   46.67    2.35
   2   6  -8   42.95    1.88
  -2  -6   8   40.05    2.04
   1   6  -8    2.05    0.28
   1   6  -8    2.04    0.32
   1   6  -8    2.20    0.23
   1   6  -8    2.28    0.28
   1   6  -8    2.47    0.43
   1   6  -8    2.43    0.31
   1   6  -8    2.48    0.29
  -1  -6   8    2.35    0.32
  -1  -6   8    2.14    0.35
   0   6  -8    0.13    0.11
   0   6  -8    0.38    0.29
   0   6  -8    0.24    0.30
   0  -6   8    0.20    0.15
   0  -6   8    0.36    0.32
  -1   6  -8    2.71    0.32
  -1   6  -8    3.50    0.31
  -1   6  -8    3.62    0.32
  -1   6  -8    3.71    0.49
  -2   6  -8    0.37    0.13
  -2   6  -8    0.06    0.20
  -2   6  -8    0.41    0.13
  -2   6  -8    0.32    0.26
   5   5  -8    0.47    0.12
   5   5  -8    0.57    0.11
   4   5  -8   22.25    1.04
   4   5  -8   22.35    0.99
  -4  -5   8   19.35    1.16
   3   5  -8    0.20    0.11
   3   5  -8    0.20    0.13
   3   5  -8    0.15    0.26
  -3  -5   8    0.27    0.16
  -3  -5   8    0.05    0.25
   2   5  -8    9.01    0.48
   2   5  -8    8.78    0.58
   2   5  -8    9.48    0.81
   2   5  -8    9.05    0.47
   2   5  -8    8.64    0.73
   2   5  -8    8.73    0.70
   2   5  -8    9.45    0.56
  -2  -5   8    8.88    0.70
  -2  -5   8    8.51    0.55
   1   5  -8    4.23    0.52
   1   5  -8    4.58    0.35
   1   5  -8    4.50    0.28
   1   5  -8    4.38    0.46
   1   5  -8    4.25    0.39
  -1  -5   8    4.87    0.38
   0   5  -8    1.18    0.15
   0   5  -8    0.79    0.20
   0   5  -8    0.67    0.18
   0   5  -8    1.04    0.39
   0  -5   8    1.10    0.21
  -1   5  -8    0.11    0.18
  -1   5  -8    0.18    0.13
  -1   5  -8   -0.03    0.23
  -1   5  -8    0.03    0.12
  -1   5  -8   -0.09    0.09
   1  -5   8   -0.13    0.12
  -2   5  -8    2.26    0.29
  -2   5  -8    1.87    0.24
  -2   5  -8    1.76    0.39
  -2   5  -8    1.89    0.25
  -3   5  -8    1.41    0.19
  -3   5  -8    1.44    0.19
  -6  -4   8    8.57    0.44
   5   4  -8    5.36    0.35
   5   4  -8    5.30    0.33
  -5  -4   8    5.31    0.44
   4   4  -8    0.22    0.12
   4   4  -8    0.03    0.10
  -4  -4   8   -0.29    0.21
   3   4  -8    1.45    0.40
   3   4  -8    1.20    0.22
   3   4  -8    1.34    0.18
  -3  -4   8    1.57    0.23
  -3  -4   8    1.23    0.33
   2   4  -8    0.75    0.13
   2   4  -8    0.92    0.12
  -2  -4   8    0.89    0.16
  -2  -4   8    0.93    0.15
   1   4  -8    0.31    0.08
   1   4  -8    0.35    0.11
  -1  -4   8    0.22    0.13
   0   4  -8   33.53    1.47
   0  -4   8   34.90    1.52
  -1   4  -8    4.18    0.28
   1  -4   8    4.81    0.30
  -2   4  -8   -0.07    0.09
  -2   4  -8    0.09    0.15
  -2   4  -8    0.14    0.13
  -2   4  -8    0.09    0.11
   2  -4   8    0.32    0.13
  -3   4  -8    2.91    0.30
  -3   4  -8    3.01    0.27
  -4   4  -8    9.79    0.63
  -4   4  -8   10.54    0.53
   6   3  -8    0.05    0.06
  -6  -3   8    0.00    0.14
   5   3  -8   36.54    1.57
   5   3  -8   35.24    1.61
  -5  -3   8   35.47    1.69
   4   3  -8    8.54    0.75
  -4  -3   8   11.89    0.62
   3   3  -8    6.34    0.40
   3   3  -8    6.27    0.71
   3   3  -8    7.39    0.50
  -3  -3   8    5.01    0.65
  -3  -3   8    6.39    0.41
  -3  -3   8    6.17    0.45
   2   3  -8   19.30    0.92
  -2  -3   8   20.87    0.95
   1   3  -8   54.47    2.26
   1   3  -8   50.10    2.27
   1   3  -8   55.03    2.27
  -1  -3   8   59.03    2.37
  -1  -3   8   54.81    2.26
   0   3  -8   65.80    2.69
   0   3  -8   61.70    2.75
   0  -3   8   66.99    2.74
   0  -3   8   64.67    2.72
  -1   3  -8    7.51    0.43
  -1   3  -8    7.61    0.40
   1  -3   8    7.35    0.40
  -2   3  -8   85.18    3.69
  -2   3  -8   88.76    3.62
   2  -3   8   88.81    3.61
  -3   3  -8   73.38    3.06
  -3   3  -8   69.45    3.14
  -3   3  -8   76.27    3.11
   3  -3   8   71.62    3.04
  -4   3  -8    3.92    0.40
  -4   3  -8    4.01    0.34
  -5   3  -8    1.04    0.14
  -5   3  -8    1.07    0.17
   6   2  -8    7.22    0.43
  -6  -2   8    7.53    0.46
   5   2  -8    2.25    0.23
   5   2  -8    2.14    0.24
  -5  -2   8    1.79    0.22
  -5  -2   8    2.32    0.32
   4   2  -8    0.13    0.14
   4   2  -8    0.20    0.11
  -4  -2   8    0.23    0.15
  -4  -2   8    0.13    0.21
  -4  -2   8    0.37    0.15
   3   2  -8   63.56    2.60
   3   2  -8   55.80    2.62
  -3  -2   8   63.41    2.60
   2   2  -8    0.15    0.07
  -2  -2   8    0.18    0.08
   1   2  -8  297.06   12.17
   1   2  -8  307.40   12.18
   1   2  -8  293.46   12.20
  -1  -2   8  307.23   12.17
  -1  -2   8  309.14   12.22
   0   2  -8  331.82   13.43
   0   2  -8  335.05   13.42
   0  -2   8  333.24   13.42
   0  -2   8  334.97   13.44
  -1   2  -8   18.00    0.83
  -1   2  -8   18.19    0.85
   1  -2   8   19.53    0.83
  -2   2  -8    9.12    0.49
   2  -2   8    8.86    0.46
  -3   2  -8    0.71    0.20
  -3   2  -8    0.56    0.26
  -3   2  -8    0.69    0.16
   3  -2   8    0.43    0.14
  -4   2  -8    0.48    0.16
  -4   2  -8    0.22    0.15
  -4   2  -8    0.27    0.11
  -5   2  -8    0.37    0.10
  -5   2  -8    0.54    0.14
  -5   2  -8    0.43    0.14
   6   1  -8    7.56    0.40
  -6  -1   8    8.35    0.40
   5   1  -8    1.26    0.18
   5   1  -8    0.96    0.17
  -5  -1   8    1.01    0.17
  -5  -1   8    1.08    0.22
  -5  -1   8    0.57    0.22
   4   1  -8    0.43    0.13
   4   1  -8    0.54    0.17
  -4  -1   8    0.60    0.22
  -4  -1   8    0.26    0.25
  -4  -1   8    0.21    0.16
  -4  -1   8    0.48    0.14
   3   1  -8   47.38    1.96
   3   1  -8   40.19    2.00
  -3  -1   8   45.40    1.93
   2   1  -8   16.51    0.81
  -2  -1   8   17.54    0.88
   1   1  -8  138.84    5.55
   1   1  -8  132.08    5.57
  -1  -1   8  139.49    5.58
  -1  -1   8  137.49    5.53
   0   1  -8  113.71    4.44
   0   1  -8  107.56    4.43
   0  -1   8  107.05    4.42
   0  -1   8  107.92    4.44
  -1   1  -8   62.56    2.55
  -1   1  -8   60.69    2.57
   1  -1   8   61.73    2.54
  -2   1  -8   44.76    1.89
  -2   1  -8   45.89    1.95
  -3   1  -8   23.87    1.30
  -3   1  -8   22.71    1.05
   3  -1   8   24.94    1.07
  -4   1  -8    1.38    0.17
  -4   1  -8    1.15    0.16
  -4   1  -8    1.23    0.20
  -4   1  -8    1.35    0.26
  -5   1  -8    1.01    0.19
  -5   1  -8    0.92    0.13
  -5   1  -8    0.87    0.16
  -6   1  -8    0.24    0.08
   6   0  -8    0.01    0.06
   5   0  -8    7.46    0.49
   5   0  -8    8.28    0.48
  -5   0   8    8.78    0.48
  -5   0   8    8.66    0.51
  -5   0   8    7.89    0.51
  -5   0   8    7.11    0.57
   4   0  -8    0.12    0.13
   4   0  -8    0.34    0.13
  -4   0   8    0.07    0.12
  -4   0   8    0.15    0.25
  -4   0   8   -0.15    0.22
  -4   0   8    0.14    0.15
  -4   0   8    0.52    0.21
   3   0  -8    4.87    0.33
   3   0  -8    5.56    0.30
   3   0  -8    5.61    0.38
  -3   0   8    5.76    0.33
  -3   0   8    5.53    0.34
  -3   0   8    5.61    0.36
   2   0  -8   18.43    0.85
   2   0  -8   17.00    0.80
   2   0  -8   16.95    0.76
  -2   0   8   16.72    0.77
  -2   0   8   17.56    0.80
  -2   0   8   18.97    0.96
   1   0  -8  131.64    5.16
   1   0  -8  124.11    5.21
   1   0  -8  127.10    5.19
  -1   0   8  130.63    5.21
  -1   0   8  127.01    5.18
  -1   0   8  125.97    5.15
   0   0  -8   97.89    3.89
   0   0  -8   96.17    3.91
   0   0   8   93.69    3.90
  -1   0  -8  238.24    9.45
  -1   0  -8  227.38    9.46
   1   0   8  237.85    9.45
  -2   0  -8   59.10    2.51
  -2   0  -8   60.48    2.48
   2   0   8   59.02    2.47
  -3   0  -8    2.09    0.23
  -3   0  -8    2.73    0.23
   3   0   8    2.77    0.22
  -4   0  -8   17.55    0.81
  -4   0  -8   15.75    0.85
  -4   0  -8   16.56    0.93
  -4   0  -8   16.80    0.83
   4   0   8   18.38    0.83
  -5   0  -8    9.66    0.53
  -5   0  -8   10.44    0.64
  -5   0  -8   10.17    0.52
  -5   0  -8   10.27    0.57
  -6   0  -8    0.11    0.10
  -6   0  -8    0.05    0.08
  -6   0  -8    0.00    0.14
   5  -1  -8    3.78    0.30
   5  -1  -8    4.08    0.32
  -5   1   8    3.93    0.43
  -5   1   8    4.25    0.29
  -5   1   8    3.75    0.38
  -5   1   8    4.38    0.34
   4  -1  -8   10.21    0.59
   4  -1  -8    9.76    0.49
  -4   1   8   10.77    0.69
  -4   1   8    9.37    0.66
  -4   1   8    9.71    0.75
  -4   1   8    9.72    0.56
  -4   1   8    9.58    0.51
   3  -1  -8   14.03    0.73
   3  -1  -8   12.57    0.73
   3  -1  -8   13.20    0.64
  -3   1   8   12.56    0.64
  -3   1   8   13.34    0.68
  -3   1   8   12.44    0.91
  -3   1   8   12.97    0.63
  -3   1   8   13.10    0.70
   2  -1  -8  139.34    5.64
   2  -1  -8  138.39    5.57
  -2   1   8  134.62    5.60
  -2   1   8  136.17    5.60
  -2   1   8  135.44    5.57
   1  -1  -8    0.06    0.05
   1  -1  -8    0.21    0.11
   1  -1  -8    0.19    0.06
  -1   1   8    0.39    0.08
  -1   1   8    0.16    0.08
  -1   1   8    0.17    0.06
  -1   1   8    0.05    0.06
   0  -1  -8   10.74    0.48
   0  -1  -8   10.47    0.48
   0   1   8    9.99    0.48
   0   1   8   10.13    0.47
  -1  -1  -8    1.30    0.13
   1   1   8    1.36    0.12
  -2  -1  -8   21.07    0.94
  -2  -1  -8   21.34    0.97
   2   1   8   20.48    0.92
  -3  -1  -8    0.85    0.14
  -3  -1  -8    0.83    0.15
   3   1   8    0.83    0.13
  -4  -1  -8    0.40    0.15
  -4  -1  -8    0.54    0.19
  -4  -1  -8    0.31    0.13
  -4  -1  -8    0.27    0.23
  -4  -1  -8    0.43    0.12
   4   1   8    0.43    0.14
   4   1   8    0.45    0.24
  -5  -1  -8    5.62    0.37
  -5  -1  -8    5.74    0.45
  -5  -1  -8    5.48    0.35
  -5  -1  -8    5.45    0.43
  -5  -1  -8    6.14    0.40
   5   1   8    5.62    0.44
  -6  -1  -8    1.27    0.18
  -6  -1  -8    1.13    0.14
  -6  -1  -8    1.21    0.18
   6   1   8    1.35    0.21
   5  -2  -8    7.05    0.47
  -5   2   8    7.52    0.47
  -5   2   8    8.42    0.59
  -5   2   8    8.77    0.46
   4  -2  -8   31.00    1.42
   4  -2  -8   33.70    1.52
  -4   2   8   32.58    1.49
  -4   2   8   32.42    1.69
  -4   2   8   33.20    1.63
  -4   2   8   35.20    1.46
  -4   2   8   33.85    1.44
   3  -2  -8    0.77    0.16
   3  -2  -8    0.70    0.11
  -3   2   8    0.51    0.27
  -3   2   8    0.78    0.27
  -3   2   8    0.43    0.14
  -3   2   8    0.55    0.12
  -3   2   8    0.58    0.13
  -3   2   8    0.59    0.14
   2  -2  -8   40.56    1.72
   2  -2  -8   40.98    1.75
  -2   2   8   41.84    1.74
  -2   2   8   40.04    1.77
  -2   2   8   41.37    1.75
   1  -2  -8   39.24    1.71
   1  -2  -8   42.28    1.73
  -1   2   8   40.85    1.71
  -1   2   8   40.09    1.74
  -1   2   8   41.73    1.72
   0  -2  -8  326.57   12.79
   0  -2  -8  311.13   12.78
   0   2   8  314.25   12.80
   0   2   8  320.54   12.77
  -1  -2  -8    5.26    0.30
  -1  -2  -8    5.28    0.30
   1   2   8    5.92    0.30
   1   2   8    5.22    0.28
  -2  -2  -8   13.96    0.67
  -2  -2  -8   13.31    0.68
   2   2   8   14.04    0.63
  -3  -2  -8   12.53    0.65
  -3  -2  -8   11.75    0.62
   3   2   8   12.11    0.58
  -4  -2  -8    4.96    0.47
  -4  -2  -8    5.02    0.45
  -4  -2  -8    5.44    0.46
  -4  -2  -8    5.16    0.40
  -4  -2  -8    5.45    0.36
   4   2   8    5.20    0.34
   4   2   8    5.05    0.44
  -5  -2  -8    4.06    0.30
  -5  -2  -8    3.97    0.36
  -5  -2  -8    3.82    0.33
  -5  -2  -8    4.28    0.38
  -5  -2  -8    3.91    0.32
   5   2   8    3.63    0.36
  -6  -2  -8    3.11    0.26
  -6  -2  -8    3.52    0.26
  -6  -2  -8    2.80    0.30
  -6  -2  -8    3.36    0.22
   6   2   8    3.35    0.28
   5  -3  -8   10.20    0.55
  -5   3   8   11.44    0.61
  -5   3   8   12.40    0.61
  -5   3   8   11.15    0.53
   4  -3  -8    0.34    0.17
  -4   3   8    0.43    0.18
  -4   3   8    0.61    0.15
  -4   3   8    0.07    0.22
  -4   3   8    0.61    0.20
   3  -3  -8   37.89    1.69
   3  -3  -8   36.39    1.98
   3  -3  -8   36.41    1.57
  -3   3   8   34.37    1.84
  -3   3   8   35.82    1.82
  -3   3   8   35.43    1.58
  -3   3   8   37.41    1.66
  -3   3   8   36.46    1.60
  -3   3   8   40.05    1.86
   2  -3  -8   14.41    0.67
   2  -3  -8   14.11    0.70
  -2   3   8   14.00    0.71
  -2   3   8   13.94    0.67
  -2   3   8   13.99    0.68
   1  -3  -8  157.87    6.28
   1  -3  -8  154.06    6.27
  -1   3   8  153.43    6.27
  -1   3   8  153.09    6.30
   0  -3  -8   13.11    0.62
   0  -3  -8   13.39    0.61
   0   3   8   13.59    0.60
   0   3   8   13.62    0.63
  -1  -3  -8    0.08    0.06
  -1  -3  -8    0.10    0.06
   1   3   8    0.17    0.05
   1   3   8    0.12    0.08
  -2  -3  -8   71.11    3.02
  -2  -3  -8   68.04    3.02
   2   3   8   78.54    3.11
  -3  -3  -8   12.64    0.64
  -3  -3  -8   12.22    0.65
   3   3   8   12.07    0.59
  -4  -3  -8    3.23    0.36
  -4  -3  -8    2.48    0.33
  -4  -3  -8    2.66    0.32
  -4  -3  -8    2.43    0.26
   4   3   8    2.85    0.35
   4   3   8    2.32    0.23
  -5  -3  -8    7.00    0.49
  -5  -3  -8    5.68    0.41
  -5  -3  -8    6.79    0.43
  -5  -3  -8    7.26    0.52
  -5  -3  -8    7.76    0.45
   5   3   8    6.67    0.51
  -6  -3  -8    0.71    0.14
  -6  -3  -8    0.53    0.13
   6   3   8    0.74    0.17
   4  -4  -8   14.94    0.74
  -4   4   8   14.37    0.81
  -4   4   8   14.83    0.81
  -4   4   8   15.18    0.69
  -4   4   8   14.72    0.71
   3  -4  -8    9.49    0.51
   3  -4  -8    8.91    0.78
   3  -4  -8   10.04    0.59
  -3   4   8    9.75    0.52
  -3   4   8    9.51    0.69
  -3   4   8    9.83    0.51
  -3   4   8    9.56    0.70
  -3   4   8    9.92    0.70
  -3   4   8    9.70    0.55
   2  -4  -8   30.62    1.31
  -2   4   8   29.07    1.37
  -2   4   8   28.63    1.31
  -2   4   8   31.08    1.58
  -2   4   8   28.30    1.58
  -2   4   8   31.66    1.57
  -2   4   8   29.07    1.31
   1  -4  -8  110.46    4.53
   1  -4  -8  113.30    4.54
  -1   4   8  109.05    4.53
  -1   4   8  110.01    4.56
   0  -4  -8    3.72    0.25
   0  -4  -8    3.58    0.23
   0   4   8    3.74    0.22
   0   4   8    3.64    0.24
  -1  -4  -8   67.92    2.87
  -1  -4  -8   66.34    2.86
   1   4   8   70.26    2.86
   1   4   8   71.17    2.86
  -2  -4  -8   71.01    3.10
  -2  -4  -8   76.73    3.12
   2   4   8   74.97    3.06
  -3  -4  -8   36.26    1.66
  -3  -4  -8   38.13    1.76
   3   4   8   37.14    1.59
  -4  -4  -8   12.53    0.74
  -4  -4  -8   12.72    0.71
  -4  -4  -8   12.65    0.68
   4   4   8   11.09    0.75
   4   4   8   12.69    0.61
  -5  -4  -8    6.54    0.47
  -5  -4  -8    7.11    0.45
  -5  -4  -8    6.89    0.45
   5   4   8    6.33    0.50
  -6  -4  -8    1.45    0.19
  -6  -4  -8    1.44    0.16
   6   4   8    1.67    0.22
  -4   5   8    5.31    0.35
  -4   5   8    4.46    0.27
  -4   5   8    4.97    0.34
   3  -5  -8    1.29    0.21
   3  -5  -8    1.36    0.32
  -3   5   8    1.34    0.25
  -3   5   8    1.33    0.17
  -3   5   8    1.13    0.24
  -3   5   8    1.18    0.15
  -3   5   8    0.89    0.21
   2  -5  -8   17.90    0.82
  -2   5   8   18.31    1.18
  -2   5   8   15.93    1.06
  -2   5   8   16.88    1.01
  -2   5   8   17.36    0.96
   1  -5  -8  140.86    5.74
  -1   5   8  127.87    5.94
  -1   5   8  142.72    6.08
  -1   5   8  150.66    5.81
  -1   5   8  139.28    5.73
   0  -5  -8   43.47    1.87
   0   5   8   43.41    1.88
   0   5   8   44.49    1.86
   0   5   8   43.79    1.83
  -1  -5  -8   13.11    0.66
   1   5   8   12.32    0.61
   1   5   8   13.80    0.65
   1   5   8   13.31    0.62
  -2  -5  -8   10.38    0.57
   2   5   8    9.93    0.50
  -3  -5  -8   51.11    2.24
  -3  -5  -8   50.59    2.23
  -3  -5  -8   48.39    2.23
   3   5   8   49.25    2.18
   3   5   8   52.66    2.52
   3   5   8   52.62    2.14
  -4  -5  -8   31.00    1.41
  -4  -5  -8   29.77    1.43
   4   5   8   28.86    1.49
   4   5   8   30.26    1.32
  -5  -5  -8    2.08    0.25
  -5  -5  -8    1.91    0.24
   5   5   8    1.80    0.28
  -6  -5  -8    0.09    0.07
   6   5   8    0.08    0.10
   3  -6  -8    0.78    0.23
   3  -6  -8    0.99    0.18
  -3   6   8    0.75    0.12
  -3   6   8    0.49    0.18
  -3   6   8    0.74    0.17
  -3   6   8    0.53    0.16
  -3   6   8    0.82    0.13
   2  -6  -8    1.30    0.18
  -2   6   8    0.80    0.14
  -2   6   8    1.06    0.24
  -2   6   8    0.97    0.22
  -2   6   8    1.16    0.16
  -2   6   8    1.15    0.26
   1  -6  -8    0.51    0.12
  -1   6   8    0.74    0.32
  -1   6   8    0.66    0.17
  -1   6   8    0.83    0.17
  -1   6   8    0.83    0.32
  -1   6   8    0.45    0.26
  -1   6   8    0.62    0.17
   0  -6  -8   91.05    3.77
   0   6   8   96.62    3.82
   0   6   8   88.93    3.74
   0   6   8   93.23    4.11
   0   6   8   86.56    3.71
   0   6   8   93.19    3.93
   0   6   8   86.43    3.80
   0   6   8   89.08    3.77
  -1  -6  -8  118.78    4.91
   1   6   8  124.04    5.24
   1   6   8  119.68    4.86
   1   6   8  118.51    5.02
   1   6   8  117.49    4.95
   1   6   8  113.03    4.88
   1   6   8  124.48    4.93
   1   6   8  114.68    4.85
  -2  -6  -8    6.27    0.44
   2   6   8    6.33    0.44
   2   6   8    5.93    0.47
   2   6   8    7.88    0.69
   2   6   8    6.68    0.37
  -3  -6  -8   56.97    2.40
  -3  -6  -8   54.17    2.41
  -3  -6  -8   54.39    2.40
   3   6   8   54.10    2.36
   3   6   8   54.50    2.45
   3   6   8   55.97    2.32
  -4  -6  -8   26.49    1.32
  -4  -6  -8   29.14    1.31
   4   6   8   27.57    1.37
  -5  -6  -8   10.89    0.58
   5   6   8   10.82    0.64
  -6  -6  -8   14.83    0.63
   6   6   8   12.93    0.65
  -3   7   8    0.07    0.07
  -3   7   8    0.00    0.05
  -2   7   8    2.65    0.21
  -2   7   8    2.13    0.29
  -2   7   8    2.58    0.22
  -2   7   8    2.70    0.29
   1  -7  -8    1.52    0.21
   1  -7  -8    1.28    0.19
  -1   7   8    1.15    0.16
  -1   7   8    1.43    0.19
  -1   7   8    1.28    0.27
  -1   7   8    1.43    0.27
  -1   7   8    1.29    0.17
   0  -7  -8   21.60    1.01
   0   7   8   21.21    0.97
   0   7   8   20.55    1.02
   0   7   8   21.01    1.14
   0   7   8   22.92    1.27
   0   7   8   21.30    1.03
  -1  -7  -8    7.78    0.48
   1   7   8    8.54    0.54
   1   7   8    8.21    0.44
   1   7   8    7.25    0.46
   1   7   8    7.77    0.65
   1   7   8    7.27    0.57
  -2  -7  -8   30.23    1.42
   2   7   8   30.62    1.59
   2   7   8   32.38    1.49
   2   7   8   30.11    1.41
  -3  -7  -8   14.83    0.80
  -3  -7  -8   14.37    0.76
  -3  -7  -8   15.06    0.76
   3   7   8   15.02    0.74
   3   7   8   13.72    0.79
  -4  -7  -8    2.35    0.28
   4   7   8    3.07    0.37
  -5  -7  -8   13.35    0.71
   5   7   8   16.24    0.76
  -6  -7  -8    2.73    0.15
   6   7   8    2.20    0.16
   2  -8  -8    0.35    0.15
  -2   8   8    0.16    0.08
  -2   8   8    0.26    0.14
  -2   8   8    0.17    0.06
   1  -8  -8    0.40    0.11
  -1   8   8    0.40    0.09
  -1   8   8    0.66    0.17
  -1   8   8    0.28    0.11
  -1   8   8    0.44    0.17
   0  -8  -8    0.05    0.09
   0   8   8    0.14    0.09
   0   8   8   -0.13    0.09
   0   8   8    0.08    0.13
   0   8   8   -0.04    0.12
   0   8   8    0.02    0.09
   1   8   8    0.31    0.12
   1   8   8    0.41    0.19
   1   8   8    0.45    0.11
   1   8   8    0.34    0.11
   1   8   8    0.24    0.13
   2   8   8    7.42    0.50
   2   8   8    7.31    0.43
   2   8   8    7.34    0.55
   2   8   8    7.71    0.49
  -3  -8  -8    2.25    0.27
  -3  -8  -8    2.33    0.24
   3   8   8    2.07    0.22
   3   8   8    2.34    0.26
  -4  -8  -8   20.07    1.02
   4   8   8   20.01    0.96
  -5  -8  -8    3.92    0.28
   5   8   8    3.89    0.25
   1  -9  -8    0.09    0.09
  -1   9   8   -0.02    0.11
  -1   9   8    0.06    0.05
  -1   9   8    0.01    0.07
   0  -9  -8    1.67    0.16
   0   9   8    1.39    0.13
   0   9   8    1.37    0.17
   0   9   8    1.87    0.14
  -1  -9  -8    4.45    0.39
   1   9   8    4.47    0.35
   1   9   8    4.23    0.36
   1   9   8    4.49    0.35
   1   9   8    4.10    0.26
   2   9   8    1.10    0.25
   2   9   8    1.42    0.19
   2   9   8    1.27    0.21
  -3  -9  -8    0.34    0.09
   3   9   8    0.55    0.13
   3   9   8    0.55    0.09
   4   9   8    0.33    0.09
  -1 -10  -8    1.27    0.12
   1  10   8    1.23    0.10
  -2 -10  -8    3.91    0.23
   2  10   8    3.54    0.23
   2  10   8    3.76    0.22
   3   8  -9    1.16    0.14
   3   8  -9    1.12    0.13
   3   8  -9    0.94    0.24
  -3  -8   9    0.96    0.13
   2   8  -9    0.39    0.12
   2   8  -9    0.55    0.17
   1   8  -9    2.88    0.35
   1   8  -9    3.12    0.23
   1   8  -9    2.84    0.27
   0   8  -9    2.14    0.27
   0   8  -9    2.72    0.21
   0   8  -9    2.87    0.25
  -1   8  -9   -0.15    0.08
  -1   8  -9    0.06    0.07
   4   7  -9    0.93    0.12
   3   7  -9    4.17    0.36
   3   7  -9    4.04    0.27
   3   7  -9    4.35    0.44
  -3  -7   9    3.66    0.41
   2   7  -9   17.89    1.13
   2   7  -9   18.19    0.93
   2   7  -9   18.03    0.87
   2   7  -9   17.43    0.83
   1   7  -9   29.58    1.29
   1   7  -9   27.36    1.33
   1   7  -9   26.82    1.56
   0   7  -9    2.94    0.28
   0   7  -9    2.61    0.26
   0   7  -9    2.64    0.40
  -1   7  -9    3.59    0.44
  -1   7  -9    3.36    0.29
  -1   7  -9    3.18    0.26
  -2   7  -9    0.79    0.15
  -2   7  -9    0.89    0.12
   5   6  -9   31.76    1.34
   4   6  -9    0.63    0.13
   4   6  -9    0.49    0.11
   3   6  -9   27.96    1.51
   3   6  -9   26.89    1.28
   3   6  -9   26.05    1.21
   3   6  -9   26.41    1.18
  -3  -6   9   26.65    1.34
   2   6  -9   51.15    2.30
   2   6  -9   51.26    2.22
   2   6  -9   50.12    2.14
   2   6  -9   51.53    2.58
   2   6  -9   50.86    2.30
   2   6  -9   52.26    2.20
  -2  -6   9   49.29    2.31
   1   6  -9    1.29    0.25
   1   6  -9    1.20    0.22
   1   6  -9    1.96    0.39
  -1  -6   9    1.48    0.28
   0   6  -9    1.90    0.25
   0   6  -9    2.19    0.30
   0   6  -9    2.06    0.27
   0   6  -9    2.07    0.39
  -1   6  -9    2.36    0.27
  -1   6  -9    2.13    0.25
  -1   6  -9    2.38    0.40
  -1   6  -9    2.15    0.28
  -2   6  -9    0.16    0.23
  -2   6  -9    0.19    0.11
  -2   6  -9    0.34    0.18
  -2   6  -9    0.11    0.11
  -3   6  -9   -0.03    0.10
   5   5  -9   43.25    1.85
  -5  -5   9   44.15    1.91
   4   5  -9    1.50    0.19
   4   5  -9    1.25    0.16
  -4  -5   9    1.31    0.27
   3   5  -9   13.46    0.98
   3   5  -9   13.13    0.66
   3   5  -9   13.75    0.71
  -3  -5   9   13.30    0.85
   2   5  -9   30.67    1.68
   2   5  -9   25.97    1.42
   2   5  -9   26.05    1.22
   2   5  -9   28.38    1.40
   2   5  -9   27.63    1.31
   2   5  -9   28.56    1.29
  -2  -5   9   27.52    1.42
   1   5  -9    4.42    0.44
   1   5  -9    4.27    0.56
   1   5  -9    4.42    0.37
   1   5  -9    5.11    0.52
   1   5  -9    4.64    0.31
  -1  -5   9    5.36    0.42
  -1  -5   9    4.50    0.31
   0   5  -9    0.15    0.10
   0   5  -9    0.00    0.13
   0   5  -9    0.31    0.23
   0   5  -9   -0.03    0.12
   0   5  -9    0.21    0.19
   0  -5   9    0.34    0.13
   0  -5   9    0.12    0.23
  -1   5  -9    0.57    0.15
  -1   5  -9    0.32    0.26
  -1   5  -9    0.30    0.12
  -1   5  -9    0.25    0.13
   1  -5   9    0.33    0.14
  -2   5  -9    0.99    0.43
  -2   5  -9    0.90    0.18
  -2   5  -9    1.08    0.18
  -2   5  -9    0.72    0.16
  -3   5  -9    2.50    0.24
  -3   5  -9    2.19    0.26
   5   4  -9   30.56    1.38
  -5  -4   9   32.89    1.49
   4   4  -9    7.49    0.48
   4   4  -9    7.60    0.44
  -4  -4   9    7.72    0.61
   3   4  -9   14.29    0.71
   3   4  -9   14.37    1.01
   3   4  -9   14.67    0.77
  -3  -4   9   13.96    0.77
  -3  -4   9   14.30    0.92
   2   4  -9    8.13    0.73
   2   4  -9    8.45    0.52
   2   4  -9    7.51    0.53
   2   4  -9    7.78    0.69
   2   4  -9    7.24    0.43
   2   4  -9    6.97    0.64
  -2  -4   9    7.96    0.71
  -2  -4   9    8.56    0.50
   1   4  -9    7.98    0.69
   1   4  -9   10.46    0.84
   1   4  -9    9.57    0.48
  -1  -4   9   10.86    0.57
  -1  -4   9    9.25    0.49
   0   4  -9    0.15    0.08
   0   4  -9    0.38    0.17
   0   4  -9    0.12    0.24
   0   4  -9    0.11    0.14
   0   4  -9    0.34    0.23
   0  -4   9   -0.01    0.15
   0  -4   9    0.03    0.13
  -1   4  -9    0.92    0.13
  -1   4  -9    0.98    0.24
  -1   4  -9    1.03    0.18
  -1   4  -9    0.88    0.20
   1  -4   9    1.06    0.15
  -2   4  -9   10.14    0.58
  -2   4  -9   10.29    0.57
  -2   4  -9   10.40    0.58
   2  -4   9    9.24    0.55
  -3   4  -9   22.83    1.05
  -3   4  -9   21.40    1.03
  -3   4  -9   22.12    1.03
  -4   4  -9    1.16    0.18
  -4   4  -9    1.35    0.18
   6   3  -9    0.74    0.08
  -6  -3   9    0.97    0.15
   5   3  -9   10.74    0.57
   5   3  -9    9.97    0.53
  -5  -3   9   10.83    0.64
   4   3  -9   48.45    2.06
   4   3  -9   47.44    2.12
  -4  -3   9   46.90    2.22
   3   3  -9    0.46    0.30
   3   3  -9    0.65    0.15
   3   3  -9    0.57    0.18
  -3  -3   9    0.62    0.27
  -3  -3   9    0.74    0.17
   2   3  -9   33.84    1.50
  -2  -3   9   35.24    1.55
   1   3  -9  102.76    4.23
   1   3  -9  102.70    4.24
  -1  -3   9  105.19    4.29
  -1  -3   9  103.77    4.23
   0   3  -9   34.40    1.52
   0   3  -9   36.27    1.51
   0  -3   9   34.98    1.51
  -1   3  -9   17.48    0.87
  -1   3  -9   19.47    0.85
   1  -3   9   18.60    0.85
  -2   3  -9    4.51    0.38
  -2   3  -9    5.47    0.46
   2  -3   9    5.08    0.32
  -3   3  -9    0.39    0.24
  -3   3  -9    0.41    0.11
  -3   3  -9    0.14    0.18
  -3   3  -9    0.71    0.20
   3  -3   9    0.52    0.23
  -4   3  -9    0.66    0.17
  -4   3  -9    1.01    0.17
  -4   3  -9    0.61    0.12
   6   2  -9    0.04    0.05
  -6  -2   9    0.17    0.08
   5   2  -9    3.92    0.28
   5   2  -9    3.95    0.30
  -5  -2   9    3.91    0.36
   4   2  -9    0.06    0.10
   4   2  -9   -0.07    0.12
  -4  -2   9    0.07    0.19
  -4  -2   9   -0.04    0.11
   3   2  -9    5.21    0.36
   3   2  -9    4.89    0.44
   3   2  -9    5.36    0.62
  -3  -2   9    5.04    0.44
  -3  -2   9    5.14    0.57
  -3  -2   9    5.05    0.35
   2   2  -9    4.18    0.26
   2   2  -9    3.75    0.29
  -2  -2   9    4.32    0.30
   1   2  -9    0.29    0.09
   1   2  -9    0.33    0.14
   1   2  -9    0.37    0.08
  -1  -2   9    0.36    0.14
  -1  -2   9    0.32    0.09
   0   2  -9    6.89    0.36
   0   2  -9    6.28    0.34
   0  -2   9    6.58    0.37
   0  -2   9    6.36    0.34
  -1   2  -9   18.66    0.85
  -1   2  -9   19.38    0.88
   1  -2   9   18.45    0.85
  -2   2  -9   13.80    0.72
   2  -2   9   14.45    0.67
  -3   2  -9    6.80    0.47
  -3   2  -9    6.62    0.42
  -3   2  -9    6.67    0.50
  -3   2  -9    6.10    0.50
   3  -2   9    6.69    0.40
  -4   2  -9    1.41    0.19
  -4   2  -9    1.31    0.22
  -4   2  -9    1.42    0.23
  -5   2  -9    1.83    0.21
  -5   2  -9    2.30    0.31
   6   1  -9    3.22    0.19
   5   1  -9    3.06    0.26
   5   1  -9    3.07    0.25
  -5  -1   9    2.90    0.34
  -5  -1   9    2.87    0.24
  -5  -1   9    3.51    0.33
   4   1  -9    6.32    0.47
   4   1  -9    6.66    0.42
  -4  -1   9    6.52    0.52
  -4  -1   9    5.92    0.58
  -4  -1   9    5.75    0.41
   3   1  -9   34.63    1.50
   3   1  -9   30.50    1.80
   3   1  -9   34.83    1.58
  -3  -1   9   32.67    1.78
  -3  -1   9   31.87    1.68
  -3  -1   9   32.80    1.49
  -3  -1   9   34.94    1.52
   2   1  -9    2.34    0.23
   2   1  -9    2.51    0.20
  -2  -1   9    3.12    0.24
   1   1  -9    1.74    0.15
   1   1  -9    1.71    0.19
  -1  -1   9    1.56    0.15
  -1  -1   9    1.50    0.16
   0   1  -9   36.92    1.52
   0  -1   9   34.40    1.49
   0  -1   9   35.15    1.51
  -1   1  -9   61.00    2.53
   1  -1   9   59.63    2.50
  -2   1  -9    0.31    0.10
   2  -1   9    0.42    0.09
  -3   1  -9   13.17    0.77
  -3   1  -9   12.68    0.72
  -3   1  -9   12.81    0.66
   3  -1   9   13.07    0.64
  -4   1  -9    2.35    0.22
  -4   1  -9    2.66    0.32
  -4   1  -9    2.42    0.29
  -5   1  -9    0.75    0.12
  -5   1  -9    0.75    0.15
  -5   1  -9    0.58    0.15
  -6   1  -9    2.11    0.14
  -6   1  -9    1.79    0.15
   5   0  -9    2.56    0.24
   5   0  -9    2.88    0.25
  -5   0   9    2.78    0.39
  -5   0   9    2.37    0.21
   4   0  -9    8.18    0.50
  -4   0   9    7.62    0.48
  -4   0   9    8.43    0.57
  -4   0   9    7.58    0.67
   3   0  -9    6.26    0.65
   3   0  -9    6.39    0.42
  -3   0   9    6.09    0.39
  -3   0   9    5.46    0.67
  -3   0   9    6.17    0.59
  -3   0   9    6.40    0.70
   2   0  -9    7.04    0.40
   2   0  -9    6.74    0.38
   2   0  -9    7.62    0.44
  -2   0   9    7.02    0.39
  -2   0   9    7.30    0.42
  -2   0   9    7.35    0.41
   1   0  -9    0.06    0.11
   1   0  -9   -0.08    0.11
   1   0  -9    0.03    0.05
  -1   0   9    0.02    0.08
  -1   0   9    0.42    0.09
   0   0  -9    0.02    0.08
   0   0  -9    0.08    0.05
   0   0   9    0.38    0.09
   0   0   9    0.20    0.07
  -1   0  -9    7.50    0.40
   1   0   9    7.41    0.38
  -2   0  -9    0.15    0.10
  -2   0  -9   -0.02    0.07
   2   0   9    0.12    0.07
  -3   0  -9    3.75    0.32
  -3   0  -9    4.10    0.30
   3   0   9    3.82    0.27
  -4   0  -9   -0.27    0.11
  -4   0  -9    0.24    0.13
  -4   0  -9    0.07    0.09
  -4   0  -9    0.19    0.15
  -5   0  -9    9.62    0.58
  -5   0  -9   10.65    0.74
  -5   0  -9    9.66    0.50
  -6   0  -9    2.04    0.17
   5  -1  -9    2.50    0.28
  -5   1   9    2.77    0.27
  -5   1   9    2.53    0.28
  -5   1   9    2.26    0.29
   4  -1  -9   30.18    1.46
   4  -1  -9   31.49    1.39
  -4   1   9   29.48    1.42
  -4   1   9   29.44    1.37
  -4   1   9   28.72    1.57
  -4   1   9   30.90    1.47
   3  -1  -9  130.69    6.11
   3  -1  -9  139.42    5.70
   3  -1  -9  143.69    5.81
  -3   1   9  132.56    5.87
  -3   1   9  138.81    6.08
  -3   1   9  143.15    5.71
  -3   1   9  144.15    5.80
  -3   1   9  146.30    5.78
  -3   1   9  143.20    5.74
   2  -1  -9  154.53    6.20
   2  -1  -9  146.54    6.15
   2  -1  -9  154.51    6.24
  -2   1   9  153.26    6.18
  -2   1   9  150.44    6.21
  -2   1   9  152.06    6.16
   1  -1  -9   58.41    2.39
   1  -1  -9   55.64    2.34
   1  -1  -9   57.36    2.40
  -1   1   9   55.36    2.35
  -1   1   9   57.33    2.38
   0  -1  -9   31.16    1.33
   0  -1  -9   31.35    1.32
   0   1   9   30.82    1.31
   0   1   9   31.27    1.33
  -1  -1  -9    3.91    0.24
  -1  -1  -9    4.15    0.25
   1   1   9    3.60    0.23
  -2  -1  -9   29.86    1.34
  -2  -1  -9   30.23    1.30
   2   1   9   28.90    1.28
  -3  -1  -9    0.70    0.15
  -3  -1  -9    0.70    0.12
   3   1   9    0.61    0.11
  -4  -1  -9    2.74    0.29
  -4  -1  -9    3.28    0.27
  -4  -1  -9    3.24    0.28
  -4  -1  -9    3.08    0.33
   4   1   9    2.98    0.30
  -5  -1  -9    1.89    0.22
  -5  -1  -9    2.12    0.20
  -5  -1  -9    2.00    0.25
  -5  -1  -9    2.52    0.29
  -6  -1  -9    2.26    0.19
  -6  -1  -9    1.87    0.19
   5  -2  -9   17.57    0.85
  -5   2   9   17.71    0.84
  -5   2   9   19.91    0.92
  -5   2   9   18.34    0.82
   4  -2  -9   14.16    0.73
  -4   2   9   14.21    0.88
  -4   2   9   13.57    0.80
  -4   2   9   14.12    0.71
   3  -2  -9   27.06    1.26
   3  -2  -9   26.45    1.54
   3  -2  -9   24.97    1.15
  -3   2   9   26.39    1.18
  -3   2   9   26.63    1.42
  -3   2   9   24.97    1.44
  -3   2   9   28.84    1.40
  -3   2   9   25.76    1.22
  -3   2   9   26.08    1.16
   2  -2  -9   28.02    1.27
   2  -2  -9   30.44    1.36
   2  -2  -9   28.17    1.31
  -2   2   9   29.50    1.28
  -2   2   9   29.57    1.29
  -2   2   9   30.62    1.33
   1  -2  -9  186.72    7.39
   1  -2  -9  174.92    7.37
  -1   2   9  184.06    7.41
  -1   2   9  183.16    7.38
   0  -2  -9    2.75    0.19
   0  -2  -9    2.81    0.19
   0   2   9    2.80    0.18
   0   2   9    3.13    0.21
  -1  -2  -9   97.21    3.96
  -1  -2  -9   96.97    3.97
   1   2   9   95.51    3.94
  -2  -2  -9   41.01    1.79
  -2  -2  -9   41.18    1.76
   2   2   9   40.75    1.73
  -3  -2  -9    2.12    0.26
  -3  -2  -9    1.41    0.20
   3   2   9    1.11    0.14
  -4  -2  -9    0.70    0.20
  -4  -2  -9    0.68    0.16
  -4  -2  -9    0.78    0.23
  -4  -2  -9    0.81    0.15
  -4  -2  -9    0.55    0.17
   4   2   9    0.53    0.15
   4   2   9    0.75    0.25
  -5  -2  -9    2.19    0.34
  -5  -2  -9    2.21    0.29
  -5  -2  -9    2.32    0.26
  -5  -2  -9    2.53    0.23
   5   2   9    2.19    0.36
  -6  -2  -9    0.01    0.05
  -6  -2  -9   -0.03    0.09
  -6  -2  -9   -0.02    0.08
   6   2   9    0.13    0.15
   5  -3  -9    5.85    0.31
  -5   3   9    5.78    0.29
  -5   3   9    5.90    0.34
   4  -3  -9    9.12    0.51
  -4   3   9    9.25    0.46
  -4   3   9    8.20    0.47
  -4   3   9    8.87    0.56
  -4   3   9    8.25    0.60
   3  -3  -9   13.44    0.95
   3  -3  -9   13.67    0.72
   3  -3  -9   13.26    0.64
  -3   3   9   13.15    0.69
  -3   3   9   13.34    0.65
  -3   3   9   12.59    0.86
  -3   3   9   12.00    0.82
  -3   3   9   13.55    0.66
  -3   3   9   13.70    0.83
   2  -3  -9   68.54    2.94
  -2   3   9   71.27    2.94
  -2   3   9   70.32    2.98
  -2   3   9   70.32    3.01
  -2   3   9   75.34    3.20
  -2   3   9   70.72    2.95
  -2   3   9   68.68    3.33
   1  -3  -9   33.46    1.42
   1  -3  -9   32.39    1.42
  -1   3   9   32.56    1.42
  -1   3   9   33.22    1.45
   0  -3  -9   87.03    3.59
   0  -3  -9   88.62    3.58
   0   3   9   88.33    3.56
   0   3   9   85.43    3.57
   0   3   9   87.34    3.60
  -1  -3  -9   48.09    2.02
  -1  -3  -9   47.64    2.02
   1   3   9   47.56    2.10
  -2  -3  -9   35.13    1.62
  -2  -3  -9   38.03    1.61
   2   3   9   37.02    1.56
  -3  -3  -9   40.68    1.76
  -3  -3  -9   38.91    1.78
   3   3   9   40.03    1.70
  -4  -3  -9    0.27    0.17
  -4  -3  -9   -0.07    0.10
  -4  -3  -9   -0.06    0.12
   4   3   9    0.26    0.19
   4   3   9    0.00    0.12
  -5  -3  -9    6.12    0.45
  -5  -3  -9    6.05    0.39
  -5  -3  -9    6.13    0.48
   5   3   9    5.85    0.47
  -6  -3  -9    0.02    0.11
  -6  -3  -9    0.10    0.08
  -6  -3  -9    0.07    0.06
   6   3   9    0.07    0.12
  -4   4   9    2.95    0.27
  -4   4   9    3.72    0.32
  -4   4   9    3.14    0.26
   3  -4  -9    4.48    0.67
   3  -4  -9    5.54    0.40
  -3   4   9    5.65    0.48
  -3   4   9    5.45    0.33
  -3   4   9    5.41    0.35
  -3   4   9    3.82    0.58
  -3   4   9    5.07    0.47
   2  -4  -9   18.10    0.84
  -2   4   9   18.73    1.05
  -2   4   9   18.97    0.91
  -2   4   9   16.87    1.06
  -2   4   9   17.15    0.84
  -2   4   9   18.46    1.09
  -2   4   9   17.16    0.88
   1  -4  -9   12.37    0.66
   1  -4  -9   13.69    0.66
  -1   4   9   13.76    0.68
  -1   4   9   13.77    0.87
  -1   4   9   14.49    0.86
  -1   4   9   14.35    0.92
   0  -4  -9   63.83    2.63
   0  -4  -9   63.88    2.64
   0   4   9   63.02    2.65
   0   4   9   62.90    2.60
   0   4   9   62.55    2.62
  -1  -4  -9  111.53    4.73
  -1  -4  -9  115.57    4.74
   1   4   9  123.14    4.78
   1   4   9  111.78    4.70
  -2  -4  -9  152.98    5.94
  -2  -4  -9  132.95    5.92
   2   4   9  147.32    5.88
  -3  -4  -9    9.55    0.54
  -3  -4  -9    8.75    0.59
  -3  -4  -9    8.68    0.59
  -3  -4  -9    8.96    0.57
   3   4   9    8.62    0.62
   3   4   9    9.20    0.47
  -4  -4  -9    7.08    0.50
  -4  -4  -9    7.06    0.47
  -4  -4  -9    7.26    0.46
   4   4   9    7.19    0.54
   4   4   9    6.34    0.42
  -5  -4  -9   11.27    0.62
  -5  -4  -9   10.73    0.63
  -5  -4  -9   10.68    0.58
  -6  -4  -9    2.74    0.18
  -6  -4  -9    2.24    0.20
   6   4   9    2.69    0.23
   6   4   9    2.44    0.20
  -4   5   9    2.14    0.19
  -4   5   9    2.07    0.14
  -4   5   9    2.02    0.17
   3  -5  -9    1.52    0.34
   3  -5  -9    1.87    0.23
  -3   5   9    1.89    0.25
  -3   5   9    1.59    0.25
  -3   5   9    1.75    0.19
  -3   5   9    1.85    0.18
  -3   5   9    1.80    0.29
   2  -5  -9   -0.02    0.09
  -2   5   9    0.09    0.16
  -2   5   9    0.33    0.18
  -2   5   9    0.13    0.11
  -2   5   9   -0.03    0.10
  -2   5   9    0.21    0.18
   1  -5  -9   13.78    0.65
   1  -5  -9   11.65    0.71
  -1   5   9   13.15    0.84
  -1   5   9   12.21    0.81
  -1   5   9   12.43    0.68
  -1   5   9   14.67    0.92
  -1   5   9   13.14    0.70
  -1   5   9   13.33    0.65
   0  -5  -9    4.67    0.42
   0  -5  -9    4.94    0.32
   0   5   9    5.13    0.54
   0   5   9    5.02    0.31
   0   5   9    5.25    0.39
   0   5   9    5.04    0.45
   0   5   9    4.77    0.38
   0   5   9    5.39    0.53
   0   5   9    4.93    0.34
   0   5   9    4.42    0.36
  -1  -5  -9   22.04    1.11
  -1  -5  -9   23.97    1.05
   1   5   9   21.19    1.14
   1   5   9   22.10    0.99
   1   5   9   24.40    1.08
   1   5   9   21.10    1.07
  -2  -5  -9   40.81    1.84
  -2  -5  -9   44.06    1.80
   2   5   9   40.01    1.79
   2   5   9   36.09    1.83
   2   5   9   41.01    1.72
  -3  -5  -9  141.44    5.68
  -3  -5  -9  137.63    5.67
  -3  -5  -9  138.30    5.71
  -3  -5  -9  134.12    5.68
   3   5   9  136.35    5.60
   3   5   9  134.94    5.64
   3   5   9  154.43    5.72
   3   5   9  119.50    5.71
  -4  -5  -9   11.25    0.64
  -4  -5  -9   11.48    0.63
  -4  -5  -9   10.45    0.65
   4   5   9    9.97    0.67
   4   5   9   11.76    0.65
  -5  -5  -9   86.42    3.55
   5   5   9   83.27    3.63
  -6  -5  -9    0.06    0.05
   6   5   9    0.20    0.09
   3  -6  -9    0.35    0.15
  -3   6   9    0.32    0.14
  -3   6   9    0.07    0.12
  -3   6   9    0.27    0.10
  -3   6   9    0.29    0.08
  -2   6   9    0.27    0.18
  -2   6   9    0.32    0.10
  -2   6   9    0.35    0.15
  -2   6   9    0.36    0.16
  -2   6   9    0.32    0.11
   1  -6  -9    0.07    0.12
   1  -6  -9   -0.07    0.10
  -1   6   9    0.05    0.10
  -1   6   9   -0.09    0.10
  -1   6   9    0.17    0.14
  -1   6   9   -0.06    0.14
  -1   6   9   -0.01    0.11
  -1   6   9   -0.26    0.21
   0  -6  -9   28.63    1.27
   0  -6  -9   27.19    1.33
   0   6   9   30.34    1.55
   0   6   9   28.36    1.24
   0   6   9   28.69    1.41
   0   6   9   28.68    1.43
   0   6   9   27.43    1.30
   0   6   9   27.88    1.29
   0   6   9   25.76    1.29
  -1  -6  -9  154.74    6.41
   1   6   9  163.49    6.70
   1   6   9  153.64    6.34
   1   6   9  152.01    6.50
   1   6   9  150.77    6.42
   1   6   9  162.11    6.35
  -2  -6  -9  146.67    6.11
  -2  -6  -9  155.09    6.09
   2   6   9  142.05    6.12
   2   6   9  143.41    6.07
   2   6   9  152.45    6.29
   2   6   9  144.57    6.00
  -3  -6  -9   14.97    0.86
  -3  -6  -9   14.41    0.87
  -3  -6  -9   15.20    0.77
   3   6   9   13.26    0.74
   3   6   9   13.70    0.68
   3   6   9   13.21    0.89
  -4  -6  -9    2.00    0.27
  -4  -6  -9    2.07    0.26
   4   6   9    2.23    0.27
  -5  -6  -9    6.52    0.39
   5   6   9    6.52    0.42
  -6  -6  -9    1.28    0.11
   6   6   9    0.96    0.12
  -3   7   9    0.86    0.15
   2  -7  -9    0.13    0.12
  -2   7   9    0.06    0.07
  -2   7   9    0.11    0.11
  -2   7   9    0.13    0.10
   1  -7  -9    0.25    0.12
  -1   7   9    0.29    0.14
  -1   7   9    0.26    0.10
  -1   7   9    0.23    0.10
  -1   7   9    0.27    0.16
  -1   7   9    0.45    0.11
   0  -7  -9   15.38    0.81
   0  -7  -9   16.21    0.78
   0   7   9   14.88    0.89
   0   7   9   16.08    0.74
   0   7   9   15.27    0.78
   0   7   9   16.08    0.78
   0   7   9   16.17    0.99
  -1  -7  -9    0.12    0.13
  -1  -7  -9    0.08    0.10
   1   7   9    0.12    0.10
   1   7   9    0.08    0.12
   1   7   9    0.07    0.13
   1   7   9    0.17    0.13
   1   7   9    0.36    0.19
  -2  -7  -9   14.79    0.77
  -2  -7  -9   15.15    0.78
   2   7   9   13.92    0.80
   2   7   9   14.64    0.90
   2   7   9   14.13    0.74
  -3  -7  -9   23.57    1.15
  -3  -7  -9   28.38    1.36
  -3  -7  -9   23.55    1.15
   3   7   9   23.58    1.12
   3   7   9   25.27    1.20
  -4  -7  -9    0.95    0.16
   4   7   9    0.67    0.15
  -5  -7  -9   12.93    0.60
   5   7   9   12.03    0.63
  -2   8   9    0.24    0.10
  -2   8   9    0.30    0.06
   1  -8  -9    7.44    0.38
  -1   8   9    6.36    0.37
  -1   8   9    8.00    0.47
  -1   8   9    7.09    0.47
  -1   8   9    7.02    0.36
   0  -8  -9   27.77    1.27
   0   8   9   25.69    1.25
   0   8   9   28.98    1.25
   0   8   9   31.30    1.38
   0   8   9   28.37    1.23
  -1  -8  -9    1.58    0.20
   1   8   9    1.55    0.18
   1   8   9    1.48    0.18
   1   8   9    1.46    0.26
   1   8   9    1.87    0.24
  -2  -8  -9    6.48    0.43
   2   8   9    6.16    0.50
   2   8   9    6.80    0.40
   2   8   9    6.97    0.46
  -3  -8  -9   30.83    1.30
  -3  -8  -9   29.97    1.32
   3   8   9   30.32    1.30
   3   8   9   27.07    1.36
  -4  -8  -9    2.09    0.20
   4   8   9    2.14    0.23
  -5  -8  -9    0.25    0.06
   5   8   9    0.04    0.06
   0  -9  -9    0.00    0.07
   0   9   9    0.03    0.07
   0   9   9    0.04    0.11
   0   9   9    0.07    0.09
   0   9   9    0.06    0.06
  -1  -9  -9    8.40    0.43
   1   9   9    8.83    0.41
   1   9   9    7.49    0.49
   1   9   9    8.38    0.48
   1   9   9    7.32    0.38
  -2  -9  -9    9.39    0.47
   2   9   9    7.70    0.49
   2   9   9    8.85    0.51
   2   9   9    9.40    0.45
  -3  -9  -9    3.50    0.23
   3   9   9    3.72    0.24
   3   9   9    3.42    0.26
   4   9   9    0.14    0.07
   2   8 -10    0.81    0.18
   2   8 -10    0.46    0.11
   1   8 -10    7.84    0.45
   1   8 -10    6.61    0.50
   1   8 -10    8.28    0.43
   0   8 -10    4.98    0.30
   0   8 -10    4.96    0.28
   0   8 -10    4.21    0.34
   3   7 -10    7.15    0.39
   3   7 -10    9.62    0.47
   3   7 -10    7.46    0.54
  -3  -7  10    7.97    0.44
  -3  -7  10    8.58    0.49
   2   7 -10   24.57    1.33
   2   7 -10   23.90    1.07
  -2  -7  10   22.44    1.12
   1   7 -10    4.94    0.52
   1   7 -10    6.07    0.40
   1   7 -10    5.75    0.37
  -1  -7  10    6.33    0.49
   0   7 -10    1.29    0.28
   0   7 -10    1.31    0.19
   0   7 -10    1.63    0.19
  -1   7 -10    0.39    0.11
  -1   7 -10    0.38    0.15
  -1   7 -10    0.44    0.10
  -2   7 -10    0.28    0.11
   4   6 -10   10.41    0.54
  -4  -6  10   12.28    0.61
   3   6 -10    3.08    0.24
   3   6 -10    3.38    0.43
   3   6 -10    2.46    0.27
  -3  -6  10    3.55    0.40
   2   6 -10    2.81    0.45
   2   6 -10    2.65    0.33
   2   6 -10    2.40    0.26
   2   6 -10    2.83    0.30
  -2  -6  10    2.98    0.38
   1   6 -10    1.03    0.23
   1   6 -10    0.94    0.19
   1   6 -10    0.63    0.26
   1   6 -10    0.96    0.19
  -1  -6  10    0.60    0.21
   0   6 -10    1.66    0.34
   0   6 -10    1.76    0.23
   0   6 -10    1.15    0.19
  -1   6 -10    3.44    0.44
  -1   6 -10    3.58    0.30
  -1   6 -10    3.93    0.31
  -1   6 -10    3.62    0.36
  -2   6 -10    0.10    0.14
  -2   6 -10    0.03    0.11
  -2   6 -10    0.12    0.10
   5   5 -10    0.36    0.08
  -5  -5  10    0.63    0.13
   4   5 -10   13.85    0.70
   4   5 -10   14.29    0.68
  -4  -5  10   15.52    0.81
   3   5 -10    0.18    0.15
   3   5 -10    0.01    0.29
  -3  -5  10    0.36    0.20
   2   5 -10    1.71    0.40
   2   5 -10    2.06    0.28
   2   5 -10    1.47    0.28
   2   5 -10    2.03    0.26
   2   5 -10    1.67    0.27
   2   5 -10    1.74    0.23
  -2  -5  10    1.15    0.28
   1   5 -10    3.48    0.29
   1   5 -10    3.89    0.55
  -1  -5  10    3.24    0.31
  -1  -5  10    3.37    0.40
   0   5 -10    1.62    0.32
   0   5 -10    1.41    0.55
   0   5 -10    0.95    0.17
   0   5 -10    1.45    0.26
   0  -5  10    1.64    0.22
  -1   5 -10    5.91    0.41
  -1   5 -10    6.10    0.61
  -1   5 -10    5.37    0.43
  -1   5 -10    5.39    0.40
  -2   5 -10    0.19    0.14
  -2   5 -10    0.11    0.27
  -2   5 -10    0.26    0.12
  -3   5 -10    1.49    0.18
  -3   5 -10    1.51    0.19
   5   4 -10    0.05    0.06
  -5  -4  10    0.17    0.12
   4   4 -10   11.83    0.63
   4   4 -10   11.91    0.60
  -4  -4  10   12.07    0.74
   3   4 -10   19.11    0.94
   3   4 -10   19.17    1.20
   3   4 -10   19.17    0.90
  -3  -4  10   19.10    1.08
   2   4 -10    3.46    0.29
   2   4 -10    3.04    0.36
   2   4 -10    3.40    0.33
   2   4 -10    3.48    0.45
   2   4 -10    3.10    0.46
  -2  -4  10    3.25    0.46
  -2  -4  10    3.31    0.33
   1   4 -10    2.05    0.33
   1   4 -10    2.04    0.29
   1   4 -10    1.72    0.19
   1   4 -10    2.10    0.27
   1   4 -10    1.85    0.42
  -1  -4  10    1.61    0.19
  -1  -4  10    1.90    0.25
   0   4 -10   57.28    2.56
   0   4 -10   58.18    2.58
   0   4 -10   62.17    2.95
   0   4 -10   58.23    2.55
   0   4 -10   59.01    2.48
   0  -4  10   58.90    2.48
  -1   4 -10   34.91    1.87
  -1   4 -10   32.16    1.52
  -1   4 -10   33.06    1.53
  -1   4 -10   33.32    1.46
  -1   4 -10   31.67    1.50
   1  -4  10   34.19    1.46
  -2   4 -10    4.33    0.34
  -2   4 -10    3.21    0.77
  -2   4 -10    3.72    0.33
  -2   4 -10    4.05    0.31
  -3   4 -10    4.29    0.31
  -3   4 -10    4.53    0.31
  -3   4 -10    4.09    0.36
  -4   4 -10   16.49    0.75
  -4   4 -10   16.30    0.74
   5   3 -10    4.63    0.30
  -5  -3  10    4.64    0.36
   4   3 -10    1.91    0.23
   4   3 -10    2.02    0.23
  -4  -3  10    2.22    0.33
   3   3 -10    5.81    0.62
   3   3 -10    7.13    0.41
   3   3 -10    6.74    0.45
  -3  -3  10    7.10    0.45
  -3  -3  10    7.10    0.58
   2   3 -10   -0.03    0.20
   2   3 -10    0.06    0.21
   2   3 -10    0.15    0.23
   2   3 -10    0.14    0.11
  -2  -3  10    0.02    0.12
  -2  -3  10   -0.30    0.20
   1   3 -10    7.92    0.65
   1   3 -10    8.89    0.45
   1   3 -10    8.48    0.49
   1   3 -10    9.32    0.78
  -1  -3  10    8.74    0.46
  -1  -3  10    9.28    0.51
   0   3 -10    6.52    0.38
   0   3 -10    6.56    0.43
   0  -3  10    7.02    0.38
   0  -3  10    6.97    0.43
  -1   3 -10   65.11    2.60
  -1   3 -10   58.82    2.65
  -1   3 -10   65.19    3.03
  -1   3 -10   58.83    2.65
  -1   3 -10   57.49    2.62
  -1   3 -10   62.78    2.63
   1  -3  10   64.63    2.59
  -2   3 -10    1.89    0.25
  -2   3 -10    1.77    0.23
  -2   3 -10    1.76    0.22
   2  -3  10    1.72    0.20
  -3   3 -10    1.96    0.23
  -3   3 -10    1.26    0.21
  -3   3 -10    1.70    0.19
  -3   3 -10    1.35    0.22
  -4   3 -10    3.38    0.25
  -4   3 -10    3.49    0.26
  -4   3 -10    3.02    0.27
  -5   3 -10    0.09    0.07
   5   2 -10    0.12    0.08
  -5  -2  10    0.03    0.19
   4   2 -10    4.79    0.33
   4   2 -10    4.42    0.36
  -4  -2  10    4.22    0.33
  -4  -2  10    4.24    0.44
   3   2 -10   19.77    1.26
   3   2 -10   20.56    1.02
   3   2 -10   20.40    0.96
  -3  -2  10   20.76    0.99
  -3  -2  10   19.92    0.98
  -3  -2  10   19.18    1.11
   2   2 -10    3.90    0.28
   2   2 -10    3.51    0.52
   2   2 -10    3.59    0.30
   2   2 -10    3.24    0.43
  -2  -2  10    4.43    0.52
  -2  -2  10    4.16    0.41
   1   2 -10    9.30    0.48
  -1  -2  10    9.41    0.51
  -1  -2  10    9.32    0.47
   0   2 -10   23.77    1.08
   0  -2  10   23.75    1.06
   0  -2  10   25.08    1.09
  -1   2 -10    8.42    0.48
   1  -2  10    8.25    0.44
  -2   2 -10   13.95    0.70
  -2   2 -10   14.25    0.79
  -2   2 -10   13.26    0.73
  -2   2 -10   12.25    0.70
   2  -2  10   13.94    0.66
  -3   2 -10   15.68    0.83
  -3   2 -10   15.81    0.87
  -3   2 -10   15.66    0.77
  -3   2 -10   15.68    0.81
   3  -2  10   16.17    0.77
  -4   2 -10    1.16    0.19
  -4   2 -10    1.06    0.19
  -5   2 -10    0.49    0.10
  -5   2 -10    0.55    0.16
  -5   2 -10    0.41    0.10
   5   1 -10   11.57    0.70
  -5  -1  10   12.30    0.63
   4   1 -10   41.75    1.78
   4   1 -10   37.82    1.82
  -4  -1  10   40.48    1.87
  -4  -1  10   42.65    1.81
  -4  -1  10   40.37    1.95
   3   1 -10   15.65    0.84
   3   1 -10   14.79    1.03
   3   1 -10   15.25    0.78
  -3  -1  10   15.64    0.80
  -3  -1  10   15.79    0.79
  -3  -1  10   14.52    0.91
  -3  -1  10   16.16    1.03
   2   1 -10    8.06    0.48
   2   1 -10    8.99    0.48
  -2  -1  10    9.27    0.50
   1   1 -10    0.60    0.10
  -1  -1  10    0.72    0.12
  -1  -1  10    0.78    0.13
   0   1 -10    1.40    0.16
   0  -1  10    1.86    0.19
   0  -1  10    1.40    0.15
  -1   1 -10    0.08    0.07
   1  -1  10    0.11    0.08
   2  -1  10   16.28    0.76
  -3   1 -10    0.11    0.15
  -3   1 -10    0.03    0.17
  -3   1 -10    0.21    0.14
  -3   1 -10    0.32    0.10
   3  -1  10    0.57    0.15
  -4   1 -10    1.02    0.19
  -4   1 -10    0.99    0.21
  -4   1 -10    1.26    0.16
  -5   1 -10   -0.03    0.09
  -5   1 -10    0.04    0.08
  -5   1 -10    0.10    0.13
   5   0 -10    6.89    0.39
  -5   0  10    6.14    0.41
  -5   0  10    8.07    0.49
  -5   0  10    6.26    0.36
   4   0 -10   21.34    1.05
   4   0 -10   22.22    1.01
  -4   0  10   21.83    1.20
  -4   0  10   19.97    1.06
  -4   0  10   20.60    1.00
   3   0 -10   85.19    3.41
   3   0 -10   75.31    3.71
  -3   0  10   80.57    3.41
  -3   0  10   80.25    3.67
  -3   0  10   78.98    3.50
  -3   0  10   83.97    3.40
   2   0 -10   70.30    2.95
   2   0 -10   67.27    2.91
  -2   0  10   72.42    2.96
  -1   0  10    0.63    0.20
  -1   0  10    0.89    0.14
   0   0 -10   50.21    2.08
   0   0  10   48.89    2.05
   0   0  10   48.74    2.06
  -1   0 -10    2.24    0.19
   1   0  10    2.17    0.17
  -2   0 -10    1.98    0.24
  -2   0 -10    1.69    0.21
   2   0  10    1.88    0.17
  -3   0 -10   20.65    1.08
  -3   0 -10   23.82    1.05
  -3   0 -10   23.45    1.10
   3   0  10   24.77    1.05
  -4   0 -10    4.69    0.31
  -4   0 -10    3.64    0.35
  -4   0 -10    4.50    0.40
  -4   0 -10    4.84    0.35
  -5   0 -10    6.90    0.37
  -5   0 -10    6.52    0.41
  -5   0 -10    6.94    0.46
  -6   0 -10    0.47    0.08
  -6   0 -10    0.40    0.08
   5  -1 -10   13.51    0.63
  -5   1  10   13.26    0.67
  -5   1  10   12.27    0.60
  -4   1  10    7.80    0.53
  -4   1  10    7.55    0.47
   3  -1 -10   58.38    2.44
   3  -1 -10   54.80    2.74
   3  -1 -10   55.49    2.34
  -3   1  10   51.60    2.48
  -3   1  10   56.21    2.68
  -3   1  10   60.12    2.43
  -3   1  10   56.36    2.35
   2  -1 -10    0.24    0.10
   2  -1 -10    0.15    0.09
   2  -1 -10    0.26    0.12
   2  -1 -10   -0.05    0.40
  -2   1  10    0.26    0.11
  -2   1  10    0.51    0.11
  -2   1  10    0.44    0.25
   1  -1 -10    1.32    0.18
   1  -1 -10    1.20    0.15
   1  -1 -10    1.10    0.14
  -1   1  10    1.03    0.15
  -1   1  10    1.36    0.17
   0  -1 -10  255.89   10.34
   0  -1 -10  258.78   10.32
   0   1  10  257.77   10.33
   0   1  10  252.08   10.31
  -1  -1 -10   97.21    3.92
  -1  -1 -10   94.27    3.93
   1   1  10   94.51    3.90
  -2  -1 -10    2.79    0.26
  -2  -1 -10    2.98    0.24
   2   1  10    2.90    0.21
  -3  -1 -10   32.07    1.37
  -3  -1 -10   27.41    1.39
  -3  -1 -10   30.69    1.48
   3   1  10   31.65    1.34
  -4  -1 -10    0.24    0.15
  -4  -1 -10    0.18    0.10
  -4  -1 -10    0.29    0.14
   4   1  10    0.06    0.17
  -5  -1 -10    1.11    0.18
  -5  -1 -10    1.20    0.21
  -5  -1 -10    1.37    0.15
  -6  -1 -10    0.08    0.05
  -6  -1 -10    0.02    0.07
  -6  -1 -10    0.03    0.06
   5  -2 -10    0.43    0.08
  -5   2  10    0.28    0.06
  -5   2  10    0.44    0.10
   4  -2 -10   36.42    1.57
  -4   2  10   35.36    1.55
  -4   2  10   34.36    1.61
  -4   2  10   35.14    1.71
   3  -2 -10   31.51    1.40
   3  -2 -10   32.93    1.49
   3  -2 -10   33.59    1.77
  -3   2  10   32.43    1.43
  -3   2  10   34.73    1.61
  -3   2  10   30.51    1.65
  -3   2  10   32.96    1.47
  -3   2  10   32.19    1.70
  -3   2  10   32.04    1.41
   2  -2 -10  125.33    5.31
   2  -2 -10  125.19    5.24
   2  -2 -10  139.87    6.08
  -2   2  10  127.91    5.25
  -2   2  10  131.40    5.70
  -2   2  10  116.86    5.82
  -2   2  10  130.65    5.31
  -2   2  10  131.03    5.30
   1  -2 -10   32.36    1.43
   1  -2 -10   34.73    1.49
   1  -2 -10   32.89    1.42
  -1   2  10   31.87    1.42
  -1   2  10   34.34    1.46
   0  -2 -10  204.46    8.25
   0  -2 -10  203.02    8.25
   0   2  10  205.49    8.25
   0   2  10  202.76    8.22
  -1  -2 -10    2.36    0.20
  -1  -2 -10    2.37    0.20
   1   2  10    2.17    0.18
  -2  -2 -10   22.55    1.01
  -2  -2 -10   21.72    1.04
   2   2  10   21.22    0.97
  -3  -2 -10   26.17    1.18
  -3  -2 -10   26.61    1.41
  -3  -2 -10   24.84    1.25
  -3  -2 -10   23.98    1.17
   3   2  10   25.19    1.13
  -4  -2 -10   55.51    2.30
  -4  -2 -10   54.44    2.42
  -4  -2 -10   45.16    2.32
   4   2  10   59.44    2.28
  -5  -2 -10    9.27    0.52
  -5  -2 -10   10.46    0.60
  -5  -2 -10    9.46    0.50
   5   2  10    8.21    0.73
  -6  -2 -10    0.03    0.07
  -6  -2 -10    0.02    0.05
  -6  -2 -10    0.13    0.08
   4  -3 -10    6.42    0.38
  -4   3  10    5.63    0.40
  -4   3  10    6.23    0.46
  -4   3  10    6.40    0.36
   3  -3 -10   20.73    1.25
   3  -3 -10   19.83    0.94
   3  -3 -10   21.72    1.02
  -3   3  10   22.82    1.20
  -3   3  10   21.62    0.96
  -3   3  10   18.53    1.12
  -3   3  10   21.66    1.00
  -3   3  10   20.50    1.11
   2  -3 -10   58.21    2.51
   2  -3 -10   59.72    2.92
   2  -3 -10   56.20    2.42
  -2   3  10   55.88    2.43
  -2   3  10   57.15    2.47
  -2   3  10   58.81    2.74
  -2   3  10   57.56    2.49
  -2   3  10   56.62    2.63
  -2   3  10   59.13    2.70
   1  -3 -10    0.36    0.10
   1  -3 -10    0.52    0.10
  -1   3  10    0.21    0.22
  -1   3  10    0.25    0.21
  -1   3  10    0.42    0.12
  -1   3  10    0.28    0.11
   0  -3 -10   63.59    2.64
   0  -3 -10   61.33    2.63
   0   3  10   62.90    2.60
   0   3  10   65.01    2.64
  -1  -3 -10    2.87    0.22
  -1  -3 -10    2.81    0.23
   1   3  10    2.78    0.20
  -2  -3 -10   27.28    1.21
  -2  -3 -10   26.02    1.24
   2   3  10   26.04    1.16
  -3  -3 -10  104.42    4.38
  -3  -3 -10  104.44    4.55
  -3  -3 -10  104.38    4.42
  -3  -3 -10  113.63    4.38
   3   3  10   93.25    4.44
   3   3  10  110.45    4.32
  -4  -3 -10   35.63    1.79
  -4  -3 -10   39.57    1.68
  -4  -3 -10   42.87    1.95
   4   3  10   30.77    1.91
   4   3  10   39.47    1.64
  -5  -3 -10    4.52    0.36
  -5  -3 -10    4.42    0.36
  -5  -3 -10    4.61    0.30
   5   3  10    4.58    0.39
  -6  -3 -10    0.14    0.09
  -6  -3 -10    0.11    0.05
  -4   4  10    0.11    0.10
  -4   4  10    0.14    0.06
  -4   4  10    0.12    0.10
   3  -4 -10    0.73    0.15
   3  -4 -10    0.65    0.23
  -3   4  10    0.69    0.19
  -3   4  10    0.74    0.20
  -3   4  10    0.59    0.12
  -3   4  10    0.68    0.13
  -3   4  10    0.85    0.20
   2  -4 -10   31.43    1.84
   2  -4 -10   31.14    1.43
  -2   4  10   35.01    1.74
  -2   4  10   33.82    1.49
  -2   4  10   33.28    1.63
  -2   4  10   32.30    1.44
  -2   4  10   33.46    1.69
   1  -4 -10    2.79    0.35
   1  -4 -10    3.03    0.24
  -1   4  10    3.23    0.31
  -1   4  10    2.90    0.24
  -1   4  10    3.43    0.41
  -1   4  10    2.51    0.30
  -1   4  10    2.75    0.38
  -1   4  10    2.77    0.28
  -1   4  10    2.95    0.39
   0  -4 -10   18.05    0.87
   0  -4 -10   17.61    0.94
   0  -4 -10   20.14    0.96
   0   4  10   18.05    0.86
   0   4  10   18.95    1.12
   0   4  10   17.07    0.89
   0   4  10   19.16    1.10
   0   4  10   18.00    0.83
   0   4  10   17.61    0.81
  -1  -4 -10   10.83    0.57
  -1  -4 -10   11.39    0.58
   1   4  10   10.77    0.53
  -2  -4 -10    9.54    0.52
  -2  -4 -10    9.05    0.58
  -2  -4 -10    8.23    0.63
   2   4  10    9.81    0.66
   2   4  10    9.41    0.58
   2   4  10    9.49    0.55
  -3  -4 -10    3.46    0.36
  -3  -4 -10    3.53    0.30
  -3  -4 -10    3.21    0.35
  -3  -4 -10    3.25    0.34
   3   4  10    2.61    0.34
   3   4  10    3.48    0.26
   3   4  10    3.64    0.34
  -4  -4 -10   13.11    0.68
  -4  -4 -10   13.56    0.73
  -4  -4 -10   13.44    0.69
   4   4  10   10.53    0.72
  -5  -4 -10    8.56    0.50
  -5  -4 -10    8.05    0.45
   5   4  10    7.36    0.51
  -6  -4 -10    7.36    0.34
   6   4  10    6.56    0.35
  -4   5  10    4.62    0.23
   3  -5 -10   19.17    1.09
   3  -5 -10   22.83    0.98
  -3   5  10   22.35    0.93
  -3   5  10   20.82    1.03
  -3   5  10   18.29    1.06
  -3   5  10   22.59    1.25
  -3   5  10   21.00    0.95
   2  -5 -10   30.57    1.77
   2  -5 -10   33.84    1.59
  -2   5  10   33.01    1.46
  -2   5  10   32.72    1.66
  -2   5  10   31.09    1.58
  -2   5  10   33.77    1.62
  -2   5  10   32.29    1.41
   1  -5 -10   22.82    1.05
  -1   5  10   21.38    1.16
  -1   5  10   26.97    1.50
  -1   5  10   21.45    1.61
   0  -5 -10    0.97    0.19
   0  -5 -10    0.90    0.15
   0   5  10    0.80    0.15
   0   5  10    0.92    0.27
   0   5  10    0.90    0.25
   0   5  10    0.82    0.15
   0   5  10    0.93    0.18
  -1  -5 -10    3.25    0.32
  -1  -5 -10    2.84    0.25
   1   5  10    2.81    0.40
   1   5  10    2.87    0.22
   1   5  10    2.36    0.30
   1   5  10    3.13    0.41
   1   5  10    2.26    0.27
  -2  -5 -10  139.14    5.53
  -2  -5 -10  136.08    5.58
   2   5  10  132.18    5.53
   2   5  10  122.58    5.57
   2   5  10  144.85    5.63
   2   5  10  129.20    5.46
  -3  -5 -10   61.03    2.58
  -3  -5 -10   62.01    2.58
  -3  -5 -10   60.56    2.60
  -3  -5 -10   57.57    2.55
   3   5  10   59.92    2.52
   3   5  10   64.85    2.62
   3   5  10   51.37    2.59
  -4  -5 -10   -0.06    0.11
  -4  -5 -10    0.10    0.14
  -4  -5 -10    0.44    0.16
   4   5  10    0.10    0.15
   4   5  10    0.05    0.13
  -5  -5 -10    2.24    0.26
  -5  -5 -10    2.87    0.23
   5   5  10    2.74    0.26
   5   5  10    2.82    0.26
  -6  -5 -10    3.47    0.19
   6   5  10    3.33    0.23
  -3   6  10    4.13    0.25
  -3   6  10    3.92    0.29
  -3   6  10    3.11    0.31
   2  -6 -10    9.82    0.72
   2  -6 -10    9.67    0.55
  -2   6  10   10.38    0.61
  -2   6  10    8.93    0.50
  -2   6  10    9.81    0.67
  -2   6  10    8.78    0.62
  -2   6  10    9.63    0.51
   1  -6 -10    0.39    0.18
   1  -6 -10    0.02    0.13
  -1   6  10    0.08    0.10
  -1   6  10    0.05    0.14
  -1   6  10    0.11    0.13
  -1   6  10    0.09    0.10
  -1   6  10   -0.04    0.13
  -1   6  10    0.07    0.25
   0  -6 -10    1.28    0.21
   0  -6 -10    1.44    0.18
   0   6  10    1.44    0.26
   0   6  10    1.45    0.18
   0   6  10    2.10    0.32
   0   6  10    1.43    0.28
   0   6  10    1.41    0.19
   0   6  10    1.19    0.18
  -1  -6 -10   36.05    1.70
  -1  -6 -10   33.80    1.57
   1   6  10   32.35    1.59
   1   6  10   32.93    1.52
   1   6  10   33.46    1.77
   1   6  10   28.38    1.86
   1   6  10   32.57    1.42
  -2  -6 -10    5.63    0.39
   2   6  10    4.42    0.57
   2   6  10    5.45    0.51
   2   6  10    5.33    0.34
  -3  -6 -10    1.34    0.20
  -3  -6 -10    1.87    0.26
  -3  -6 -10    1.79    0.24
   3   6  10    1.42    0.19
   3   6  10    1.83    0.24
  -4  -6 -10    1.46    0.25
  -4  -6 -10    1.37    0.19
   4   6  10    1.24    0.22
   5   6  10    2.27    0.22
  -6  -6 -10    1.74    0.13
   2  -7 -10   10.72    0.65
  -2   7  10   10.61    0.50
  -2   7  10    9.94    0.56
  -2   7  10   10.97    0.63
   1  -7 -10   21.05    1.02
  -1   7  10   21.25    0.95
  -1   7  10   20.95    1.13
  -1   7  10   21.62    0.98
  -1   7  10   23.64    1.11
  -1   7  10   20.63    0.99
   0  -7 -10    1.08    0.18
   0  -7 -10    1.01    0.17
   0   7  10    0.82    0.14
   0   7  10    1.15    0.16
   0   7  10    0.92    0.14
   0   7  10    0.98    0.22
   0   7  10    0.80    0.24
  -1  -7 -10    6.45    0.43
  -1  -7 -10    7.15    0.56
   1   7  10    5.92    0.40
   1   7  10    6.24    0.47
   1   7  10    6.55    0.55
  -2  -7 -10    7.49    0.48
   2   7  10    7.20    0.49
   2   7  10    7.22    0.44
   2   7  10    7.72    0.61
  -3  -7 -10    2.67    0.28
  -3  -7 -10    3.31    0.28
   3   7  10    2.97    0.26
   3   7  10    3.74    0.33
  -4  -7 -10    9.90    0.52
   4   7  10   10.45    0.56
  -5  -7 -10    2.37    0.17
   5   7  10    1.90    0.17
   1  -8 -10    0.56    0.15
  -1   8  10    0.64    0.13
  -1   8  10    0.38    0.08
  -1   8  10    0.53    0.13
   0  -8 -10    0.55    0.11
   0   8  10    0.41    0.16
   0   8  10    0.40    0.17
   0   8  10    0.54    0.10
   0   8  10    0.37    0.09
  -1  -8 -10    5.75    0.37
   1   8  10    5.96    0.42
   1   8  10    5.73    0.46
   1   8  10    6.17    0.35
  -2  -8 -10    4.48    0.31
  -2  -8 -10    3.44    0.41
   2   8  10    4.26    0.28
   2   8  10    4.84    0.35
   2   8  10    3.89    0.37
  -3  -8 -10   14.29    0.70
   3   8  10   15.83    0.77
   3   8  10   14.14    0.69
  -4  -8 -10   10.72    0.47
   4   8  10    9.34    0.52
   5   8  10    0.97    0.10
   0  -9 -10    0.55    0.13
   0   9  10    0.50    0.10
   0   9  10    0.47    0.10
  -1  -9 -10   10.10    0.61
  -1  -9 -10   12.86    0.55
   1   9  10    9.43    0.54
   1   9  10   10.51    0.57
  -2  -9 -10    2.32    0.18
   2   9  10    2.39    0.17
   2   9  10    2.74    0.23
  -3  -9 -10   12.55    0.55
   3   9  10    9.25    0.56
   4   9  10    5.77    0.31
   1   8 -11   25.17    1.25
   1   8 -11   29.36    1.23
   3   7 -11    0.10    0.20
   2   7 -11    2.85    0.22
   2   7 -11    2.47    0.27
  -2  -7  11    2.65    0.33
   1   7 -11   24.94    1.44
   1   7 -11   29.48    1.29
   1   7 -11   29.47    1.26
  -1  -7  11   29.77    1.28
   0   7 -11    0.08    0.07
   0   7 -11   -0.08    0.09
   0   7 -11    0.08    0.12
  -1   7 -11   -0.07    0.17
  -1   7 -11    0.02    0.08
   4   6 -11    9.86    0.49
  -4  -6  11   11.97    0.55
   3   6 -11    0.26    0.10
   3   6 -11    0.23    0.17
  -3  -6  11    0.16    0.15
   2   6 -11    8.60    0.50
   2   6 -11    9.36    0.55
   2   6 -11    8.03    0.68
  -2  -6  11    8.99    0.57
   1   6 -11    7.41    0.68
   1   6 -11    7.70    0.53
   1   6 -11    8.50    0.48
   1   6 -11    8.26    0.52
  -1  -6  11    8.34    0.54
   0   6 -11    1.74    0.33
   0   6 -11    1.91    0.30
   0   6 -11    2.06    0.22
   0   6 -11    1.94    0.24
   0  -6  11    1.99    0.29
  -1   6 -11    0.10    0.15
  -1   6 -11    0.21    0.25
  -1   6 -11    0.14    0.09
  -1   6 -11    0.12    0.09
  -2   6 -11    0.33    0.14
  -2   6 -11    0.06    0.08
  -2   6 -11    0.20    0.10
   4   5 -11    8.27    0.44
  -4  -5  11    9.51    0.53
   3   5 -11    6.29    0.59
   3   5 -11    6.53    0.39
  -3  -5  11    7.41    0.52
   2   5 -11    4.71    0.44
   2   5 -11    4.14    0.52
   2   5 -11    4.85    0.46
  -2  -5  11    4.57    0.45
   1   5 -11    2.59    0.32
   1   5 -11    2.71    0.29
   1   5 -11    2.68    0.43
   1   5 -11    2.95    0.34
  -1  -5  11    2.85    0.36
   0   5 -11    2.93    0.45
   0   5 -11    2.92    0.30
   0   5 -11    2.62    0.34
   0   5 -11    2.65    0.28
  -1   5 -11    0.31    0.12
  -1   5 -11    0.35    0.28
  -1   5 -11    0.21    0.10
  -1   5 -11    0.42    0.16
  -2   5 -11    3.13    0.28
  -2   5 -11    2.90    0.26
  -2   5 -11    2.87    0.25
  -3   5 -11    0.02    0.08
  -3   5 -11   -0.08    0.14
   5   4 -11    0.07    0.06
  -5  -4  11   -0.01    0.09
   4   4 -11    9.10    0.55
   4   4 -11    8.63    0.48
  -4  -4  11    9.85    0.57
   3   4 -11    6.97    0.66
   3   4 -11    7.59    0.50
   3   4 -11    6.14    0.50
  -3  -4  11    7.06    0.55
   2   4 -11    2.73    0.44
   2   4 -11    2.69    0.37
   2   4 -11    2.54    0.31
  -2  -4  11    2.65    0.36
   1   4 -11    0.63    0.15
   1   4 -11    0.46    0.16
   1   4 -11    0.40    0.17
   1   4 -11    0.53    0.19
   1   4 -11    0.25    0.21
  -1  -4  11    0.73    0.23
  -1  -4  11    0.60    0.18
   0   4 -11    1.73    0.24
   0   4 -11    1.83    0.27
   0   4 -11    1.39    0.21
   0   4 -11    1.07    0.19
   0   4 -11    1.59    0.38
   0  -4  11    1.56    0.20
  -1   4 -11    0.61    0.15
  -1   4 -11    0.23    0.12
  -1   4 -11    0.48    0.26
  -1   4 -11    0.49    0.15
  -2   4 -11    3.59    0.31
  -2   4 -11    3.57    0.31
  -2   4 -11    3.52    0.29
  -3   4 -11    9.56    0.52
  -3   4 -11    9.41    0.52
  -3   4 -11   10.01    0.52
  -4   4 -11    0.53    0.09
  -4   4 -11    0.68    0.11
  -5  -3  11   20.71    0.95
   4   3 -11    0.10    0.09
   4   3 -11   -0.01    0.11
  -4  -3  11   -0.06    0.14
   3   3 -11    0.20    0.13
   3   3 -11    0.38    0.22
   3   3 -11    0.30    0.13
  -3  -3  11    0.51    0.19
   2   3 -11   42.16    1.96
   2   3 -11   44.48    2.08
   2   3 -11   47.06    2.33
  -2  -3  11   45.42    1.97
  -2  -3  11   44.87    2.08
   1   3 -11    0.35    0.13
   1   3 -11    0.18    0.22
   1   3 -11    0.03    0.18
  -1  -3  11    0.22    0.15
  -1  -3  11    0.40    0.16
   0   3 -11   54.91    2.46
   0   3 -11   61.44    2.85
   0   3 -11   53.51    2.45
   0   3 -11   57.13    2.50
   0  -3  11   57.94    2.40
  -1   3 -11    0.44    0.12
  -1   3 -11    0.43    0.15
  -1   3 -11    0.49    0.27
   1  -3  11    0.47    0.12
  -2   3 -11    5.99    0.42
  -2   3 -11    5.83    0.40
  -2   3 -11    6.75    0.53
   2  -3  11    5.54    0.40
  -3   3 -11   -0.08    0.14
  -3   3 -11   -0.06    0.13
  -3   3 -11    0.09    0.10
  -3   3 -11    0.05    0.07
  -4   3 -11    1.54    0.22
  -4   3 -11    1.72    0.17
  -4   3 -11    1.34    0.18
   4  -3  11    1.31    0.16
   5   2 -11   32.32    1.42
  -5  -2  11   33.85    1.44
   4   2 -11    1.69    0.21
   4   2 -11    2.02    0.22
  -4  -2  11    1.87    0.27
   3   2 -11   26.52    1.22
   3   2 -11   26.02    1.16
   3   2 -11   25.54    1.47
  -3  -2  11   25.03    1.29
  -3  -2  11   23.68    1.18
   2   2 -11   53.82    2.56
   2   2 -11   58.10    2.84
   2   2 -11   57.00    2.58
   2   2 -11   57.29    2.40
  -2  -2  11   56.05    2.56
  -2  -2  11   59.03    2.44
   1   2 -11   13.00    0.66
   1   2 -11   11.82    0.69
   1   2 -11   13.54    0.98
   1   2 -11   12.59    0.77
  -1  -2  11   13.93    0.67
  -1  -2  11   13.16    0.63
   0   2 -11   31.50    1.40
   0   2 -11   30.70    1.56
   0   2 -11   34.72    2.11
   0   2 -11   30.27    1.63
   0  -2  11   30.91    1.36
  -1   2 -11   -0.04    0.23
  -1   2 -11    0.10    0.12
  -1   2 -11    0.11    0.12
   1  -2  11    0.04    0.09
  -2   2 -11    0.62    0.21
  -2   2 -11    0.69    0.14
  -2   2 -11    0.88    0.18
  -2   2 -11    0.66    0.16
   2  -2  11    0.87    0.16
  -3   2 -11    1.04    0.19
  -3   2 -11    1.27    0.17
  -3   2 -11    1.05    0.17
  -3   2 -11    1.00    0.19
  -4   2 -11   -0.04    0.06
  -4   2 -11    0.00    0.10
  -4   2 -11    0.00    0.08
  -5   2 -11    0.66    0.14
   5  -2  11    0.60    0.12
   5   1 -11   19.20    0.87
  -5  -1  11   19.80    0.88
   4   1 -11    2.17    0.23
   4   1 -11    2.72    0.25
  -4  -1  11    2.20    0.30
  -4  -1  11    2.32    0.35
  -4  -1  11    2.43    0.23
   3   1 -11   17.55    1.14
   3   1 -11   17.42    0.86
   3   1 -11   18.13    0.92
  -3  -1  11   18.71    1.09
  -3  -1  11   17.66    0.88
  -3  -1  11   18.83    0.94
  -3  -1  11   16.98    1.04
   2   1 -11   40.79    2.11
   2   1 -11   37.69    1.69
   2   1 -11   36.89    1.84
   2   1 -11   40.10    1.78
  -2  -1  11   38.19    1.84
  -2  -1  11   38.22    1.74
  -2  -1  11   41.14    2.23
  -2  -1  11   39.35    1.72
   1   1 -11   49.36    2.13
  -1  -1  11   50.88    2.14
   0   1 -11   18.28    0.84
   0  -1  11   17.35    0.81
  -1   1 -11   30.41    1.53
   1  -1  11   31.23    1.35
  -2   1 -11   24.42    1.19
   2  -1  11   22.81    1.06
  -3   1 -11    3.16    0.32
  -3   1 -11    3.01    0.31
  -3   1 -11    3.06    0.25
  -3   1 -11    3.10    0.31
   3  -1  11    3.51    0.28
  -4   1 -11    0.49    0.14
  -4   1 -11    0.40    0.10
  -4   1 -11    0.68    0.19
  -5   1 -11    2.07    0.16
  -5   1 -11    1.95    0.19
  -5   1 -11    1.99    0.18
   5   0 -11    8.37    0.40
  -5   0  11    7.11    0.38
   4   0 -11    5.39    0.39
   4   0 -11    5.79    0.37
  -4   0  11    6.38    0.50
  -4   0  11    6.26    0.37
  -4   0  11    5.67    0.43
   3   0 -11   12.40    0.64
   3   0 -11   10.94    0.85
   3   0 -11   12.39    0.68
  -3   0  11   11.98    0.63
  -3   0  11   11.32    0.74
  -3   0  11   11.38    0.82
   2   0 -11  149.80    6.27
   2   0 -11  139.76    5.81
  -2   0  11  143.07    5.83
  -2   0  11  138.51    5.82
  -2   0  11  137.67    6.11
   1   0 -11  223.21    9.05
  -1   0  11  217.76    8.95
   0   0 -11   15.34    0.74
   0   0  11   15.71    0.72
   0   0  11   16.23    0.79
  -1   0 -11    2.55    0.23
   1   0  11    2.27    0.19
  -2   0 -11    0.41    0.13
  -2   0 -11    0.24    0.13
  -2   0 -11    0.24    0.17
  -2   0 -11    0.34    0.17
  -3   0 -11    1.19    0.21
  -3   0 -11    1.38    0.22
  -3   0 -11    1.27    0.22
  -3   0 -11    1.29    0.17
   3   0  11    1.36    0.17
  -4   0 -11    0.22    0.08
  -4   0 -11    0.22    0.13
  -4   0 -11    0.24    0.13
  -5   0 -11    0.99    0.16
  -5   0 -11    0.97    0.13
  -5   0 -11    1.14    0.16
   5  -1 -11    0.68    0.09
  -5   1  11    0.60    0.15
  -5   1  11    0.76    0.09
   4  -1 -11    1.63    0.20
   4  -1 -11    1.50    0.20
  -4   1  11    1.49    0.24
  -4   1  11    1.39    0.17
   3  -1 -11    0.62    0.15
   3  -1 -11    0.42    0.23
  -3   1  11    0.49    0.25
  -3   1  11    0.58    0.14
  -3   1  11    0.40    0.20
   2  -1 -11    1.45    0.20
   2  -1 -11    2.12    0.44
  -2   1  11    2.23    0.27
  -2   1  11    1.32    0.47
  -2   1  11    1.85    0.23
  -2   1  11    1.52    0.30
   1  -1 -11   10.76    0.52
   1  -1 -11    9.55    0.52
  -1   1  11   10.44    0.55
   0  -1 -11   71.01    2.98
   0  -1 -11   75.71    2.97
   0   1  11   70.94    2.98
   0   1  11   69.06    2.95
  -1  -1 -11   85.94    3.41
  -1  -1 -11   79.27    3.43
   1   1  11   81.91    3.39
  -2  -1 -11   10.14    0.58
  -2  -1 -11   10.22    0.54
   2   1  11    9.76    0.51
  -3  -1 -11   12.92    0.66
  -3  -1 -11   12.69    0.70
  -3  -1 -11   14.16    0.68
  -3  -1 -11   13.07    0.76
  -3  -1 -11   12.47    0.69
   3   1  11   13.80    0.66
  -4  -1 -11    4.61    0.31
  -4  -1 -11    4.68    0.37
  -4  -1 -11    4.94    0.39
  -4  -1 -11    4.58    0.35
  -5  -1 -11    0.92    0.15
  -5  -1 -11    0.71    0.10
  -5  -1 -11    0.67    0.15
  -6  -1 -11    1.51    0.12
   6   1  11    1.49    0.13
   4  -2 -11    0.12    0.11
  -4   2  11    0.16    0.12
  -4   2  11    0.11    0.08
   3  -2 -11   10.93    0.64
   3  -2 -11   10.77    0.81
   3  -2 -11   11.29    0.61
  -3   2  11   11.05    0.77
  -3   2  11   11.02    0.59
   2  -2 -11   35.10    1.91
   2  -2 -11   35.15    1.53
   2  -2 -11   32.78    1.46
  -2   2  11   34.87    1.53
  -2   2  11   31.43    1.51
  -2   2  11   34.26    1.76
  -2   2  11   35.17    1.74
  -2   2  11   33.34    1.47
   1  -2 -11    5.28    0.40
   1  -2 -11    5.33    0.61
   1  -2 -11    5.80    0.34
   1  -2 -11    5.31    0.36
  -1   2  11    5.88    0.37
  -1   2  11    5.07    0.34
  -1   2  11    5.44    0.52
  -1   2  11    5.86    0.51
   0  -2 -11    7.12    0.39
   0  -2 -11    6.59    0.39
   0   2  11    7.49    0.46
   0   2  11    6.52    0.37
  -1  -2 -11   11.57    0.57
  -1  -2 -11   11.32    0.58
   1   2  11   10.91    0.55
  -2  -2 -11   25.37    1.19
  -2  -2 -11   23.48    1.22
  -2  -2 -11   24.87    1.14
   2   2  11   24.97    1.12
   2   2  11   26.23    1.27
  -3  -2 -11    0.57    0.17
  -3  -2 -11    0.45    0.14
  -3  -2 -11    0.82    0.21
  -3  -2 -11    0.61    0.19
  -3  -2 -11    0.50    0.13
   3   2  11    0.54    0.14
  -4  -2 -11   10.95    0.67
  -4  -2 -11   12.23    0.62
  -4  -2 -11   11.49    0.59
  -4  -2 -11   10.49    0.60
  -5  -2 -11    2.83    0.25
  -5  -2 -11    3.13    0.22
  -5  -2 -11    2.97    0.28
  -6  -2 -11    2.20    0.13
  -6  -2 -11    1.79    0.14
   6   2  11    1.73    0.14
  -4   3  11    8.12    0.39
  -4   3  11    6.44    0.40
  -4   3  11    8.24    0.48
   3  -3 -11    2.23    0.34
   3  -3 -11    2.84    0.27
  -3   3  11    2.68    0.23
  -3   3  11    3.07    0.24
  -3   3  11    2.42    0.31
  -3   3  11    2.43    0.39
   2  -3 -11    3.86    0.64
   2  -3 -11    3.58    0.26
   2  -3 -11    4.11    0.45
  -2   3  11    3.53    0.34
  -2   3  11    3.54    0.51
  -2   3  11    4.02    0.64
  -2   3  11    3.71    0.43
  -2   3  11    3.81    0.35
  -2   3  11    3.43    0.30
   1  -3 -11    9.07    0.81
   1  -3 -11    8.78    0.46
   1  -3 -11    8.69    0.52
   1  -3 -11    8.16    0.54
  -1   3  11    8.22    0.46
  -1   3  11    9.15    0.71
  -1   3  11    8.02    0.64
  -1   3  11    8.43    0.49
   0  -3 -11   10.87    0.58
   0  -3 -11   12.88    0.98
   0  -3 -11   11.10    0.67
   0  -3 -11   12.02    0.61
   0   3  11   11.03    0.55
   0   3  11   11.41    0.59
   0   3  11   12.46    0.84
   0   3  11   11.61    0.74
  -1  -3 -11    4.34    0.30
  -1  -3 -11    4.14    0.30
   1   3  11    3.93    0.27
  -2  -3 -11    0.38    0.17
  -2  -3 -11    0.14    0.29
  -2  -3 -11    0.29    0.17
  -2  -3 -11    0.43    0.17
  -2  -3 -11    0.32    0.12
   2   3  11    0.56    0.12
   2   3  11    0.54    0.17
  -3  -3 -11   10.17    0.54
  -3  -3 -11    8.90    0.53
  -3  -3 -11    8.73    0.54
  -3  -3 -11    9.04    0.59
   3   3  11    9.68    0.50
  -4  -3 -11    2.27    0.28
  -4  -3 -11    2.02    0.22
  -4  -3 -11    2.91    0.28
   4   3  11    2.22    0.32
  -5  -3 -11    0.22    0.08
  -5  -3 -11    0.20    0.11
   5   3  11    0.24    0.18
  -6  -3 -11    7.05    0.30
  -6  -3 -11    5.60    0.31
   6   3  11    6.15    0.33
   4  -4 -11   12.70    0.57
  -4   4  11   11.98    0.55
  -4   4  11   12.25    0.60
   3  -4 -11   20.36    1.34
   3  -4 -11   19.82    0.95
  -3   4  11   19.05    0.97
  -3   4  11   18.47    0.95
  -3   4  11   19.31    0.88
  -3   4  11   18.05    1.00
   2  -4 -11    2.31    0.23
   2  -4 -11    2.13    0.38
   2  -4 -11    1.92    0.24
  -2   4  11    2.12    0.22
  -2   4  11    1.87    0.31
  -2   4  11    2.03    0.33
  -2   4  11    1.95    0.31
  -2   4  11    2.08    0.23
   1  -4 -11   47.75    2.05
   1  -4 -11   48.62    2.53
   1  -4 -11   45.16    2.10
  -1   4  11   50.83    2.39
  -1   4  11   55.78    2.29
  -1   4  11   47.04    2.03
  -1   4  11   47.80    2.21
  -1   4  11   46.35    2.08
  -1   4  11   44.70    2.25
   0  -4 -11   39.80    1.72
   0  -4 -11   37.54    1.78
   0   4  11   38.29    1.75
   0   4  11   39.01    1.72
   0   4  11   42.22    2.03
   0   4  11   39.67    1.90
   0   4  11   41.27    1.86
  -1  -4 -11    8.87    0.57
  -1  -4 -11    8.37    0.49
   1   4  11    9.40    0.54
   1   4  11    8.32    0.46
   1   4  11   10.65    0.78
   1   4  11    8.96    0.58
   1   4  11    9.02    0.82
  -2  -4 -11    0.56    0.18
  -2  -4 -11    0.85    0.18
  -2  -4 -11    0.53    0.14
   2   4  11    0.35    0.18
   2   4  11    0.58    0.13
   2   4  11    0.67    0.18
  -3  -4 -11   23.27    1.12
  -3  -4 -11   23.20    1.11
  -3  -4 -11   25.88    1.13
  -3  -4 -11   25.45    1.19
   3   4  11   24.73    1.18
   3   4  11   23.46    1.08
   3   4  11   20.22    1.13
  -4  -4 -11   29.36    1.31
  -4  -4 -11   29.30    1.32
  -4  -4 -11   27.76    1.36
   4   4  11   26.08    1.33
   4   4  11   31.86    1.38
  -5  -4 -11    0.52    0.10
  -5  -4 -11    0.62    0.14
   5   4  11    0.46    0.15
   5   4  11    0.40    0.12
  -6  -4 -11   14.84    0.64
   3  -5 -11   10.09    0.61
  -3   5  11   10.51    0.59
  -3   5  11   11.34    0.52
  -3   5  11   11.23    0.58
   2  -5 -11    1.75    0.33
   2  -5 -11    1.44    0.20
  -2   5  11    1.10    0.22
  -2   5  11    1.63    0.20
  -2   5  11    1.55    0.25
  -2   5  11    1.47    0.18
  -2   5  11    1.51    0.26
   1  -5 -11    5.67    0.41
   1  -5 -11    6.45    0.39
  -1   5  11    5.80    0.39
  -1   5  11    6.05    0.55
  -1   5  11    6.06    0.51
  -1   5  11    5.70    0.37
  -1   5  11    6.25    0.50
  -1   5  11    6.36    0.40
   0  -5 -11    6.02    0.41
   0   5  11    4.77    0.46
   0   5  11    5.27    0.50
   0   5  11    4.74    0.35
   0   5  11    4.43    0.42
  -1  -5 -11  121.14    5.19
  -1  -5 -11  123.45    5.13
   1   5  11  133.76    5.43
   1   5  11  118.91    5.21
   1   5  11  131.94    5.28
   1   5  11  122.21    5.15
   1   5  11  119.78    5.08
  -2  -5 -11    0.06    0.30
  -2  -5 -11    0.10    0.11
  -2  -5 -11    0.02    0.13
   2   5  11    0.14    0.17
   2   5  11    0.09    0.13
   2   5  11    0.10    0.11
   2   5  11    0.07    0.11
   2   5  11    0.14    0.27
  -3  -5 -11   28.23    1.31
  -3  -5 -11   26.59    1.26
  -3  -5 -11   26.75    1.27
  -3  -5 -11   27.75    1.28
   3   5  11   27.18    1.32
   3   5  11   29.77    1.35
  -4  -5 -11   22.86    1.13
  -4  -5 -11   27.51    1.30
  -4  -5 -11   24.96    1.13
   4   5  11   21.76    1.14
   4   5  11   24.15    1.14
  -5  -5 -11    3.23    0.34
  -5  -5 -11    3.17    0.23
   5   5  11    3.47    0.26
   5   5  11    2.73    0.29
  -6  -5 -11    0.13    0.05
  -3   6  11    1.42    0.13
   2  -6 -11   18.07    1.01
  -2   6  11   15.74    0.87
  -2   6  11   17.52    0.80
  -2   6  11   19.75    0.95
  -2   6  11   17.20    0.87
   1  -6 -11    9.31    0.75
   1  -6 -11    8.65    0.50
  -1   6  11    9.25    0.61
  -1   6  11    9.50    0.60
  -1   6  11    8.96    0.49
  -1   6  11    9.70    0.68
  -1   6  11    9.11    0.48
   0  -6 -11   14.82    0.78
   0  -6 -11   16.10    0.76
   0   6  11   15.05    0.75
   0   6  11   14.49    0.86
   0   6  11   15.07    0.87
   0   6  11   15.02    0.95
  -1  -6 -11   74.40    3.15
  -1  -6 -11   68.47    3.19
   1   6  11   81.35    3.42
   1   6  11   79.12    3.29
   1   6  11   72.76    3.25
   1   6  11   73.84    3.16
  -2  -6 -11    1.32    0.20
  -2  -6 -11    1.44    0.35
  -2  -6 -11    1.29    0.20
   2   6  11    1.51    0.22
   2   6  11    1.51    0.32
   2   6  11    1.32    0.19
   2   6  11    1.31    0.28
  -3  -6 -11   26.42    1.20
  -3  -6 -11   27.14    1.23
   3   6  11   26.39    1.26
  -4  -6 -11   19.10    0.89
   4   6  11   19.46    0.94
  -5  -6 -11    1.06    0.13
   5   6  11    1.52    0.15
   2  -7 -11    3.87    0.29
  -2   7  11    4.13    0.26
  -2   7  11    4.36    0.27
  -2   7  11    3.84    0.22
   1  -7 -11    2.91    0.22
   1  -7 -11    2.76    0.40
  -1   7  11    2.98    0.27
  -1   7  11    2.67    0.20
  -1   7  11    3.18    0.40
   0  -7 -11   11.06    0.59
   0   7  11   11.17    0.57
   0   7  11   11.16    0.72
   0   7  11   11.99    0.67
   0   7  11   11.01    0.56
  -1  -7 -11   11.71    0.64
   1   7  11   12.05    0.77
   1   7  11   12.52    0.71
   1   7  11   12.51    0.63
  -2  -7 -11   14.03    0.71
  -2  -7 -11   13.35    0.88
   2   7  11   14.27    0.69
   2   7  11   13.01    0.74
   2   7  11   13.18    0.80
  -3  -7 -11   10.31    0.52
   3   7  11    8.75    0.54
  -4  -7 -11   20.92    0.87
   4   7  11   18.57    0.93
  -5  -7 -11   17.63    0.78
   5   7  11   19.12    0.82
   1  -8 -11    0.10    0.08
  -1   8  11    0.17    0.07
  -1   8  11    0.08    0.07
   0  -8 -11   10.84    0.67
   0  -8 -11   10.28    0.49
   0   8  11    9.08    0.58
  -1  -8 -11    0.07    0.09
  -1  -8 -11    0.17    0.14
   1   8  11    0.04    0.10
   1   8  11    0.20    0.11
   1   8  11    0.05    0.10
  -2  -8 -11    1.82    0.30
   2   8  11    2.07    0.25
  -3  -8 -11    7.38    0.38
   3   8  11    6.48    0.41
  -1  -9 -11    3.38    0.20
   1   9  11    3.22    0.22
   2   9  11   22.91    1.03
   2   7 -12    3.65    0.31
   1   7 -12   -0.12    0.09
   1   7 -12    0.01    0.11
   1   7 -12    0.07    0.08
   0   7 -12    1.65    0.17
   0   7 -12    1.13    0.19
   0   7 -12    1.57    0.18
  -1   7 -12    0.93    0.15
   3   6 -12    1.79    0.25
  -3  -6  12    2.16    0.31
   2   6 -12    0.07    0.14
   2   6 -12   -0.05    0.11
  -2  -6  12    0.14    0.15
   1   6 -12   -0.10    0.13
   1   6 -12   -0.10    0.08
   0   6 -12    0.06    0.13
   0   6 -12    0.04    0.14
   0   6 -12    0.15    0.09
   0   6 -12   -0.01    0.09
   0  -6  12   -0.03    0.13
  -1   6 -12    0.88    0.14
  -1   6 -12    1.32    0.16
  -1   6 -12    1.09    0.16
  -1   6 -12    1.10    0.22
   1  -6  12    1.16    0.16
  -2   6 -12   -0.08    0.07
  -2   6 -12   -0.02    0.09
   3   5 -12    1.55    0.29
  -3  -5  12    2.12    0.28
   2   5 -12    0.70    0.18
   2   5 -12    0.74    0.23
   2   5 -12    0.76    0.16
  -2  -5  12    0.76    0.19
   1   5 -12    0.09    0.13
   1   5 -12   -0.02    0.11
   1   5 -12   -0.06    0.16
   0   5 -12    0.08    0.15
   0   5 -12    0.17    0.21
   0   5 -12   -0.06    0.10
  -1   5 -12    4.38    0.34
  -1   5 -12    4.08    0.31
  -1   5 -12    4.17    0.32
  -1   5 -12    4.25    0.47
  -2   5 -12    4.95    0.34
  -2   5 -12    5.50    0.35
  -2   5 -12    4.64    0.32
  -3   5 -12    1.99    0.20
  -3   5 -12    2.18    0.17
   4   4 -12   21.17    1.01
  -4  -4  12   24.72    1.08
   3   4 -12   14.41    0.71
   3   4 -12   15.29    0.96
  -3  -4  12   15.67    0.83
   2   4 -12    2.82    0.42
   2   4 -12    2.89    0.35
  -2  -4  12    3.46    0.37
   1   4 -12   17.83    0.90
   1   4 -12   19.30    1.22
   1   4 -12   18.10    0.96
   1   4 -12   18.66    0.93
  -1  -4  12   17.35    0.96
   0   4 -12   11.27    0.64
   0   4 -12   11.97    0.90
   0   4 -12   11.54    0.67
   0   4 -12   11.58    0.64
  -1   4 -12    3.93    0.35
  -1   4 -12    4.38    0.50
  -1   4 -12    4.02    0.33
  -1   4 -12    3.95    0.32
  -2   4 -12    2.10    0.21
  -2   4 -12    2.12    0.23
  -2   4 -12    1.91    0.24
  -3   4 -12    0.32    0.11
  -3   4 -12    0.20    0.08
  -3   4 -12    0.35    0.13
   4   3 -12   11.58    0.59
  -4  -3  12   13.17    0.68
   3   3 -12    0.33    0.20
   3   3 -12    0.42    0.12
  -3  -3  12    0.40    0.18
   2   3 -12   14.65    1.00
   2   3 -12   13.27    0.72
   2   3 -12   13.60    0.80
  -2  -3  12   13.62    0.81
   1   3 -12    9.30    0.60
   1   3 -12    8.84    0.75
   1   3 -12    8.29    0.52
  -1  -3  12    8.55    0.60
   0   3 -12    7.73    0.49
   0   3 -12    7.00    0.49
   0   3 -12    7.96    0.52
   0   3 -12    8.14    0.73
   0  -3  12    8.13    0.55
  -1   3 -12    0.24    0.16
  -1   3 -12    0.07    0.23
   1  -3  12    0.24    0.15
  -2   3 -12    0.22    0.11
  -2   3 -12    0.27    0.13
  -2   3 -12    0.20    0.10
  -3   3 -12    0.01    0.07
  -3   3 -12   -0.02    0.12
  -3   3 -12    0.05    0.08
  -4   3 -12    0.02    0.07
  -4   3 -12    0.00    0.06
   5   2 -12    2.45    0.17
   4   2 -12    8.43    0.51
  -4  -2  12    8.48    0.51
   3   2 -12   13.42    0.75
   3   2 -12   13.41    0.92
   3   2 -12   12.26    0.68
  -3  -2  12   14.19    0.80
   2   2 -12    3.83    0.49
   2   2 -12    2.89    0.39
  -2  -2  12    3.30    0.35
  -2  -2  12    3.26    0.41
   1   2 -12    8.11    0.73
   1   2 -12    7.24    0.48
   1   2 -12    7.95    0.56
  -1  -2  12    8.81    0.51
   0   2 -12    8.36    0.76
   0   2 -12    8.16    0.51
   0   2 -12    8.24    0.55
   0   2 -12    8.71    0.53
   0  -2  12    8.13    0.45
  -1   2 -12    7.99    0.47
  -1   2 -12    7.79    0.51
  -1   2 -12    7.66    0.70
  -1   2 -12    7.68    0.48
  -1   2 -12    8.13    0.54
   1  -2  12    7.20    0.52
   1  -2  12    7.93    0.45
  -2   2 -12   12.40    0.66
  -2   2 -12   12.71    0.80
  -2   2 -12   11.07    0.71
   2  -2  12    9.67    0.63
   2  -2  12   11.03    0.59
  -3   2 -12    0.10    0.09
  -3   2 -12    0.02    0.14
  -3   2 -12   -0.05    0.06
  -3   2 -12    0.13    0.14
  -4   2 -12    1.92    0.17
  -4   2 -12    1.89    0.20
  -4   2 -12    2.02    0.18
  -5   2 -12   -0.06    0.06
   5   1 -12    1.05    0.12
   4   1 -12    2.54    0.23
   4   1 -12    2.72    0.24
  -4  -1  12    2.43    0.27
  -4  -1  12    2.36    0.21
   3   1 -12    4.76    0.52
   3   1 -12    4.85    0.37
   3   1 -12    4.56    0.34
  -3  -1  12    4.29    0.33
  -3  -1  12    5.42    0.50
  -3  -1  12    4.67    0.44
   2   1 -12   41.28    2.14
   2   1 -12   38.36    1.87
  -2  -1  12   41.73    1.96
  -2  -1  12   40.25    1.88
   1   1 -12   68.25    3.08
   1   1 -12   70.59    3.15
   1   1 -12   77.00    3.49
  -1  -1  12   78.64    3.07
  -1  -1  12   70.29    3.15
   0   1 -12    1.48    0.23
   0   1 -12    1.20    0.34
   0   1 -12    2.27    0.31
   0  -1  12    1.20    0.24
   0  -1  12    1.56    0.18
  -1   1 -12   26.39    1.55
  -1   1 -12   27.60    1.29
   1  -1  12   28.46    1.22
  -2   1 -12    0.05    0.13
  -2   1 -12    0.00    0.12
  -2   1 -12    0.01    0.09
  -2   1 -12   -0.09    0.10
   2  -1  12    0.05    0.11
  -3   1 -12    0.57    0.12
  -3   1 -12    0.48    0.14
  -3   1 -12    0.68    0.15
  -3   1 -12    0.63    0.17
  -4   1 -12    2.94    0.22
  -4   1 -12    2.67    0.24
  -4   1 -12    2.90    0.27
  -5   1 -12    0.86    0.11
  -5   1 -12    1.07    0.12
  -5   1 -12    0.93    0.16
   5  -1  12    0.76    0.11
   5   0 -12    2.32    0.15
   4   0 -12    0.99    0.15
   4   0 -12    1.03    0.17
  -4   0  12    0.99    0.19
  -4   0  12    1.04    0.20
  -4   0  12    1.00    0.14
   3   0 -12    4.46    0.33
   3   0 -12    4.77    0.50
   3   0 -12    3.97    0.35
  -3   0  12    4.83    0.44
  -3   0  12    4.82    0.47
  -3   0  12    4.45    0.32
   2   0 -12    2.02    0.38
   2   0 -12    1.59    0.22
   2   0 -12    2.07    0.33
  -2   0  12    2.39    0.37
  -2   0  12    2.37    0.36
  -2   0  12    2.90    0.41
   1   0 -12   17.51    1.19
  -1   0  12   17.73    0.87
  -1   0  12   19.56    1.12
   0   0 -12    7.42    0.69
   0   0 -12    7.01    0.47
   0   0 -12    8.40    0.55
   0   0  12    6.75    0.51
   0   0  12    7.14    0.39
  -1   0 -12   98.58    4.31
  -1   0 -12   93.46    3.97
  -1   0 -12   97.77    4.02
  -1   0 -12   90.67    3.96
   1   0  12   91.00    4.00
   1   0  12   96.53    3.90
  -2   0 -12    0.96    0.17
  -2   0 -12    0.77    0.19
  -2   0 -12    0.88    0.18
  -2   0 -12    0.86    0.14
   2   0  12    0.94    0.15
  -3   0 -12    0.70    0.15
  -3   0 -12    0.61    0.11
  -3   0 -12    0.64    0.17
  -3   0 -12    0.68    0.15
  -4   0 -12    1.76    0.27
  -4   0 -12    2.26    0.22
  -5   0 -12    1.47    0.17
  -5   0 -12    1.71    0.15
  -5   0 -12    1.87    0.17
   4  -1 -12   35.68    1.49
  -4   1  12   32.27    1.56
  -4   1  12   33.64    1.46
   3  -1 -12    3.67    0.31
   3  -1 -12    3.05    0.41
   3  -1 -12    3.39    0.30
  -3   1  12    3.28    0.27
  -3   1  12    3.49    0.40
   2  -1 -12   90.13    3.81
   2  -1 -12   94.87    4.24
  -2   1  12   95.39    3.84
  -2   1  12   90.53    4.03
  -2   1  12   87.56    3.81
   1  -1 -12  105.03    5.10
   1  -1 -12  123.74    5.34
  -1   1  12  123.90    4.88
  -1   1  12  120.11    5.07
   0  -1 -12    2.77    0.30
   0  -1 -12    3.19    0.49
   0   1  12    2.23    0.31
   0   1  12    2.96    0.23
  -1  -1 -12   47.31    2.28
  -1  -1 -12   44.24    1.99
   1   1  12   40.85    1.98
  -2  -1 -12    4.93    0.47
  -2  -1 -12    5.46    0.36
  -2  -1 -12    5.54    0.43
  -2  -1 -12    5.16    0.39
   2   1  12    5.57    0.43
   2   1  12    5.81    0.34
  -3  -1 -12    1.05    0.20
  -3  -1 -12    1.16    0.16
  -3  -1 -12    1.18    0.21
  -3  -1 -12    0.99    0.18
   3   1  12    1.45    0.18
  -4  -1 -12    3.18    0.24
  -4  -1 -12    3.64    0.33
  -5  -1 -12    7.94    0.49
  -5  -1 -12    8.32    0.44
  -5  -1 -12    7.95    0.41
  -4   2  12   21.83    0.97
  -4   2  12   22.14    1.06
   3  -2 -12    1.95    0.23
   3  -2 -12    1.72    0.32
  -3   2  12    1.84    0.30
  -3   2  12    1.84    0.20
   2  -2 -12    1.39    0.20
   2  -2 -12    1.29    0.32
   2  -2 -12    1.41    0.21
  -2   2  12    1.41    0.18
  -2   2  12    1.28    0.29
  -2   2  12    1.04    0.24
   1  -2 -12   95.02    3.77
   1  -2 -12   83.81    3.81
   1  -2 -12   92.39    4.24
  -1   2  12   95.04    4.11
  -1   2  12   89.58    4.00
  -1   2  12   92.53    3.80
   0  -2 -12   17.78    1.17
   0  -2 -12   16.96    0.91
   0  -2 -12   18.43    0.82
   0   2  12   17.24    1.06
   0   2  12   17.84    1.02
   0   2  12   14.60    0.86
  -1  -2 -12    3.27    0.50
  -1  -2 -12    2.94    0.30
  -1  -2 -12    3.83    0.35
   1   2  12    3.56    0.25
   1   2  12    3.46    0.35
  -2  -2 -12    0.56    0.15
  -2  -2 -12    0.46    0.13
  -2  -2 -12    0.20    0.13
  -2  -2 -12    0.35    0.15
   2   2  12    0.48    0.16
   2   2  12    0.29    0.11
  -3  -2 -12    4.89    0.47
  -3  -2 -12    4.86    0.36
  -3  -2 -12    4.83    0.39
  -3  -2 -12    4.23    0.31
   3   2  12    4.63    0.32
  -4  -2 -12    6.00    0.35
  -4  -2 -12    6.27    0.44
  -4  -2 -12    5.58    0.38
  -4  -2 -12    5.69    0.42
  -5  -2 -12    5.56    0.30
  -5  -2 -12    5.43    0.31
  -5  -2 -12    5.47    0.36
   4  -3 -12   29.14    1.25
  -4   3  12   27.33    1.23
  -4   3  12   31.86    1.36
   3  -3 -12    6.21    0.51
  -3   3  12    6.25    0.47
  -3   3  12    6.22    0.36
   2  -3 -12   21.21    0.96
   2  -3 -12   19.96    0.99
   2  -3 -12   19.88    1.28
  -2   3  12   20.81    0.98
  -2   3  12   21.49    1.20
  -2   3  12   21.41    0.95
  -2   3  12   21.75    1.17
   1  -3 -12   55.42    2.66
   1  -3 -12   47.21    2.21
   1  -3 -12   52.78    2.18
  -1   3  12   53.25    2.41
  -1   3  12   47.98    2.45
  -1   3  12   52.36    2.41
   0  -3 -12   61.27    2.51
   0  -3 -12   57.86    2.57
   0  -3 -12   55.56    2.91
   0   3  12   61.27    2.70
   0   3  12   61.67    2.81
  -1  -3 -12   10.97    0.88
  -1  -3 -12   10.96    0.58
  -1  -3 -12   10.55    0.62
   1   3  12   10.21    0.67
   1   3  12   11.04    0.55
   1   3  12   11.26    0.78
  -2  -3 -12   10.45    0.59
  -2  -3 -12   11.72    0.60
  -2  -3 -12   11.54    0.67
  -2  -3 -12   11.42    0.64
   2   3  12   11.29    0.57
   2   3  12   10.71    0.67
  -3  -3 -12   29.19    1.47
  -3  -3 -12   25.62    1.24
  -3  -3 -12   23.14    1.26
  -3  -3 -12   28.09    1.23
   3   3  12   29.21    1.47
   3   3  12   26.03    1.19
  -4  -3 -12    0.77    0.18
  -4  -3 -12    0.61    0.11
  -4  -3 -12    0.45    0.17
   4   3  12    0.77    0.16
  -5  -3 -12    0.03    0.09
  -5  -3 -12    0.04    0.06
   5   3  12    0.02    0.10
   3  -4 -12    1.34    0.22
  -3   4  12    1.45    0.27
  -3   4  12    1.22    0.14
  -3   4  12    1.21    0.19
   2  -4 -12   38.71    1.99
   2  -4 -12   37.47    1.66
  -2   4  12   37.99    1.61
  -2   4  12   40.42    2.03
  -2   4  12   38.10    1.89
  -2   4  12   36.12    1.63
  -2   4  12   36.58    1.74
   1  -4 -12   47.00    1.94
   1  -4 -12   42.89    1.96
   1  -4 -12   45.12    2.34
  -1   4  12   45.00    2.20
  -1   4  12   44.30    2.13
  -1   4  12   45.82    2.08
   0  -4 -12   53.99    2.36
   0  -4 -12   56.68    2.81
   0  -4 -12   55.23    2.53
   0   4  12   55.92    2.50
   0   4  12   53.98    2.64
   0   4  12   58.89    2.56
  -1  -4 -12    6.17    0.62
  -1  -4 -12    5.94    0.42
  -1  -4 -12    6.31    0.39
   1   4  12    6.01    0.47
   1   4  12    5.03    0.35
   1   4  12    5.86    0.53
   1   4  12    5.70    0.47
  -2  -4 -12   25.38    1.15
  -2  -4 -12   24.60    1.18
  -2  -4 -12   25.71    1.22
   2   4  12   26.58    1.25
   2   4  12   21.63    1.18
   2   4  12   24.25    1.10
  -3  -4 -12    8.39    0.49
  -3  -4 -12    8.57    0.53
  -3  -4 -12    7.92    0.48
  -3  -4 -12    8.06    0.46
   3   4  12    8.70    0.53
   3   4  12    7.88    0.51
  -4  -4 -12   48.46    2.07
  -4  -4 -12   46.26    1.99
   4   4  12   44.49    2.02
   4   4  12   47.96    2.06
  -5  -4 -12    7.31    0.36
  -5  -4 -12    6.57    0.39
   5   4  12    7.20    0.40
  -3   5  12   10.02    0.46
  -3   5  12    9.99    0.51
   2  -5 -12    7.17    0.56
  -2   5  12    6.09    0.57
  -2   5  12    5.98    0.45
  -2   5  12    6.73    0.49
  -2   5  12    6.47    0.38
   1  -5 -12   29.48    1.61
   1  -5 -12   27.60    1.26
   1  -5 -12   28.79    1.26
  -1   5  12   27.89    1.38
  -1   5  12   28.85    1.48
  -1   5  12   26.75    1.24
  -1   5  12   26.90    1.45
   0  -5 -12    9.72    0.82
   0  -5 -12    9.90    0.54
   0  -5 -12    9.79    0.57
   0   5  12    9.07    0.62
   0   5  12    9.71    0.72
   0   5  12    9.94    0.54
   0   5  12    9.66    0.66
  -1  -5 -12    0.18    0.11
  -1  -5 -12    0.25    0.12
  -1  -5 -12    0.11    0.21
   1   5  12    0.07    0.15
   1   5  12    0.31    0.16
   1   5  12    0.21    0.18
   1   5  12    0.10    0.11
  -2  -5 -12  152.39    6.27
  -2  -5 -12  150.62    6.23
  -2  -5 -12  143.75    6.49
   2   5  12  145.57    6.41
   2   5  12  165.08    6.36
   2   5  12  153.86    6.29
  -3  -5 -12   29.33    1.46
  -3  -5 -12   35.36    1.51
  -3  -5 -12   34.58    1.50
   3   5  12   35.96    1.57
   3   5  12   32.87    1.52
  -4  -5 -12    2.62    0.24
  -4  -5 -12    2.53    0.21
   4   5  12    2.74    0.25
   4   5  12    2.32    0.26
  -5  -5 -12    4.79    0.25
   5   5  12    4.71    0.27
   5   5  12    4.04    0.32
   2  -6 -12    0.90    0.17
  -2   6  12    0.99    0.18
  -2   6  12    1.28    0.17
  -2   6  12    0.96    0.11
  -2   6  12    1.38    0.18
   1  -6 -12   16.62    0.76
   1  -6 -12   16.18    1.00
  -1   6  12   17.01    0.86
  -1   6  12   14.80    0.74
  -1   6  12   16.75    0.93
   0  -6 -12   13.63    0.71
   0  -6 -12   13.67    0.97
   0   6  12   13.17    0.78
   0   6  12   14.32    0.88
   0   6  12   14.85    0.80
   0   6  12   14.20    0.70
  -1  -6 -12    1.34    0.19
  -1  -6 -12    1.57    0.23
  -1  -6 -12    1.31    0.33
   1   6  12    1.44    0.25
   1   6  12    1.95    0.32
   1   6  12    1.58    0.21
   1   6  12    1.75    0.26
  -2  -6 -12    0.81    0.17
  -2  -6 -12    0.77    0.26
  -2  -6 -12    0.66    0.15
   2   6  12    1.03    0.25
   2   6  12    0.93    0.24
   2   6  12    0.53    0.20
  -3  -6 -12    0.22    0.17
  -3  -6 -12    0.67    0.14
   3   6  12    0.40    0.20
   3   6  12    0.47    0.13
  -4  -6 -12    0.27    0.08
   4   6  12    0.36    0.11
  -5  -6 -12    7.12    0.32
   5   6  12    6.46    0.37
   1  -7 -12    0.62    0.15
   0  -7 -12    3.11    0.30
   0  -7 -12    2.64    0.34
   0   7  12    2.41    0.30
   0   7  12    2.99    0.31
  -1  -7 -12    6.80    0.41
  -1  -7 -12    6.52    0.57
   1   7  12    7.17    0.48
   1   7  12    7.60    0.53
   1   7  12    7.14    0.41
  -2  -7 -12    4.59    0.31
  -2  -7 -12    4.23    0.43
   2   7  12    4.40    0.34
   2   7  12    4.30    0.38
  -3  -7 -12    0.37    0.10
   3   7  12    0.19    0.16
  -4  -7 -12    0.13    0.12
   4   7  12    0.15    0.08
   0  -8 -12    0.15    0.06
   0  -8 -12    0.04    0.08
   0   8  12    0.08    0.07
   0   8  12   -0.01    0.08
  -1  -8 -12    0.16    0.07
  -1  -8 -12    0.31    0.13
   1   8  12    0.21    0.11
   1   8  12    0.23    0.10
  -2  -8 -12    0.50    0.10
   2   8  12    0.36    0.11
   3   8  12    0.29    0.10
   1   7 -13    0.43    0.14
  -3  -6  13    0.52    0.11
   2   6 -13    0.97    0.19
   1   6 -13   -0.01    0.12
   1   6 -13    0.18    0.12
   1   6 -13    0.17    0.08
  -1  -6  13    0.20    0.13
   0   6 -13    0.19    0.09
   0   6 -13    0.12    0.13
   0   6 -13   -0.01    0.07
   0  -6  13    0.05    0.17
  -1   6 -13    0.46    0.09
  -1   6 -13    0.43    0.11
  -1   6 -13    0.24    0.19
  -4  -5  13    0.99    0.14
   3   5 -13   20.29    1.17
  -3  -5  13   22.66    1.01
   2   5 -13    1.06    0.25
   2   5 -13    1.10    0.16
  -2  -5  13    1.09    0.19
   1   5 -13    3.53    0.28
   1   5 -13    3.23    0.42
   1   5 -13    3.72    0.36
   1   5 -13    3.61    0.34
  -1  -5  13    4.05    0.34
   0   5 -13    2.56    0.26
   0   5 -13    2.55    0.24
   0   5 -13    2.48    0.36
   0   5 -13    2.49    0.28
   0  -5  13    2.76    0.28
  -1   5 -13    8.64    0.49
  -1   5 -13    8.24    0.46
  -1   5 -13    8.39    0.60
  -2   5 -13    0.34    0.15
  -2   5 -13    0.41    0.09
  -4  -4  13    9.87    0.59
   3   4 -13    0.10    0.16
  -3  -4  13    0.49    0.15
   2   4 -13    0.75    0.17
   2   4 -13    0.71    0.24
   2   4 -13    0.60    0.16
  -2  -4  13    0.82    0.18
   1   4 -13   11.79    0.69
   1   4 -13   12.60    0.67
   1   4 -13   11.89    0.89
  -1  -4  13   12.68    0.70
   0   4 -13    0.47    0.15
   0   4 -13    0.61    0.15
   0   4 -13    0.33    0.21
   0   4 -13    0.26    0.10
  -1   4 -13   21.35    1.00
  -1   4 -13   20.59    0.98
  -1   4 -13   20.15    1.21
  -1   4 -13   20.15    0.98
  -2   4 -13    1.48    0.21
  -2   4 -13    1.62    0.19
  -2   4 -13    1.74    0.19
  -3   4 -13    0.41    0.10
  -3   4 -13    0.45    0.09
   4   3 -13   21.24    1.00
  -4  -3  13   26.30    1.08
   3   3 -13    3.59    0.40
  -3  -3  13    3.73    0.35
   2   3 -13    1.99    0.23
   2   3 -13    2.27    0.30
   2   3 -13    2.51    0.37
  -2  -3  13    1.87    0.27
   1   3 -13    6.73    0.48
   1   3 -13    6.52    0.44
   1   3 -13    7.01    0.64
  -1  -3  13    7.40    0.50
   0   3 -13    6.15    0.42
   0   3 -13    6.71    0.46
   0   3 -13    5.90    0.61
   0   3 -13    6.48    0.43
  -1   3 -13   14.73    1.02
  -1   3 -13   16.15    0.82
  -1   3 -13   15.63    0.78
  -1   3 -13   15.64    0.80
  -2   3 -13    2.54    0.22
  -2   3 -13    2.38    0.24
  -2   3 -13    2.06    0.26
  -3   3 -13    3.08    0.24
  -3   3 -13    3.01    0.22
  -3   3 -13    2.54    0.24
  -4   3 -13    1.90    0.15
  -4   3 -13    1.92    0.16
   4   2 -13    0.15    0.10
  -4  -2  13    0.26    0.10
   3   2 -13    0.67    0.23
   3   2 -13    0.76    0.15
  -3  -2  13    0.80    0.20
   2   2 -13    1.57    0.25
   2   2 -13    1.66    0.38
  -2  -2  13    1.37    0.26
   1   2 -13    6.74    0.53
   1   2 -13    6.75    0.44
   1   2 -13    7.11    0.67
  -1  -2  13    7.31    0.53
   0   2 -13   46.85    2.13
   0   2 -13   49.84    2.20
   0   2 -13   49.42    2.47
   0  -2  13   48.95    2.07
  -1   2 -13    2.24    0.27
  -1   2 -13    2.03    0.24
  -1   2 -13    1.99    0.29
  -1   2 -13    2.44    0.40
  -1   2 -13    2.25    0.24
   1  -2  13    1.91    0.27
  -2   2 -13    6.55    0.41
  -2   2 -13    6.32    0.42
  -2   2 -13    6.10    0.42
  -2   2 -13    6.62    0.39
   2  -2  13    5.90    0.43
  -3   2 -13    3.96    0.31
  -3   2 -13    4.31    0.28
  -3   2 -13    4.07    0.29
  -3   2 -13    4.30    0.31
   3  -2  13    3.73    0.29
  -4   2 -13    0.65    0.11
  -4   2 -13    0.43    0.09
  -4   2 -13    0.35    0.08
   4  -2  13    0.45    0.10
   4   1 -13    0.50    0.09
  -4  -1  13    0.55    0.13
   3   1 -13    1.18    0.26
   3   1 -13    1.33    0.18
  -3  -1  13    1.34    0.24
  -3  -1  13    1.63    0.27
   2   1 -13   21.42    1.31
  -2  -1  13   20.74    1.09
  -2  -1  13   21.72    1.14
   1   1 -13    7.18    0.53
   1   1 -13    7.57    0.46
   1   1 -13    8.31    0.72
  -1  -1  13    7.15    0.58
  -1  -1  13    7.81    0.54
   0   1 -13   22.30    1.10
   0   1 -13   21.72    1.05
   0   1 -13   24.51    1.40
   0  -1  13   20.80    1.13
   0  -1  13   21.02    1.00
  -1   1 -13    0.09    0.22
  -1   1 -13    0.00    0.11
  -1   1 -13    0.23    0.11
  -1   1 -13   -0.08    0.13
  -1   1 -13   -0.10    0.12
   1  -1  13    0.14    0.15
  -2   1 -13    2.61    0.26
  -2   1 -13    2.69    0.28
  -2   1 -13    2.96    0.24
  -2   1 -13    2.66    0.27
   2  -1  13    2.56    0.28
  -3   1 -13    0.15    0.08
  -3   1 -13    0.22    0.12
  -3   1 -13    0.18    0.11
  -4   1 -13    0.26    0.07
  -4   1 -13    0.25    0.09
  -4   1 -13    0.29    0.10
   4  -1  13    0.14    0.09
  -5   1 -13    0.31    0.07
  -5   1 -13    0.37    0.06
   4   0 -13    9.26    0.43
  -4   0  13    7.85    0.46
   3   0 -13    9.46    0.51
   3   0 -13    7.87    0.64
  -3   0  13    8.82    0.60
  -3   0  13    8.49    0.56
  -3   0  13    9.26    0.48
   2   0 -13   19.15    1.23
  -2   0  13   19.39    1.03
  -2   0  13   20.67    1.10
   1   0 -13   22.61    1.08
   1   0 -13   22.85    1.15
   1   0 -13   22.61    1.39
  -1   0  13   23.35    1.21
  -1   0  13   22.92    1.14
   0   0 -13   14.48    0.77
   0   0 -13   16.25    1.09
   0   0 -13   14.97    0.82
   0   0  13   14.65    0.72
   0   0  13   14.70    0.85
  -1   0 -13    4.06    0.35
  -1   0 -13    4.14    0.33
  -1   0 -13    3.83    0.32
  -1   0 -13    4.22    0.52
  -1   0 -13    3.77    0.37
   1   0  13    3.70    0.36
   1   0  13    3.84    0.30
  -2   0 -13   38.87    1.82
  -2   0 -13   39.11    1.74
  -2   0 -13   37.49    1.77
  -2   0 -13   39.96    1.73
   2   0  13   38.16    1.77
   2   0  13   39.42    1.68
  -3   0 -13    0.96    0.17
  -3   0 -13    1.08    0.17
  -3   0 -13    1.14    0.19
  -3   0 -13    1.12    0.15
   3   0  13    1.03    0.19
  -4   0 -13    0.27    0.10
  -4   0 -13    0.29    0.10
  -4   0 -13    0.22    0.07
  -5   0 -13    0.99    0.10
  -5   0 -13    1.01    0.13
  -5   0 -13    0.66    0.10
   5   0  13    0.91    0.11
   4  -1 -13    1.87    0.16
  -4   1  13    2.04    0.24
  -4   1  13    2.22    0.15
   3  -1 -13   41.52    1.97
   3  -1 -13   39.18    1.75
  -3   1  13   41.17    1.73
  -3   1  13   39.62    1.88
   2  -1 -13    0.43    0.20
  -2   1  13    0.43    0.18
   1  -1 -13   31.82    1.50
   1  -1 -13   35.06    1.88
  -1   1  13   34.69    1.83
   0  -1 -13   16.23    1.09
   0  -1 -13   16.48    0.82
   0   1  13   15.62    0.94
   0   1  13   15.67    0.85
   0   1  13   15.40    0.90
  -1  -1 -13   39.60    1.73
  -1  -1 -13   34.72    1.67
  -1  -1 -13   37.69    1.67
  -1  -1 -13   39.07    1.99
   1   1  13   37.74    1.60
   1   1  13   34.43    1.72
  -2  -1 -13    1.35    0.19
  -2  -1 -13    1.92    0.28
  -2  -1 -13    1.72    0.24
  -2  -1 -13    1.20    0.19
   2   1  13    1.53    0.23
   2   1  13    1.58    0.20
  -3  -1 -13   -0.03    0.11
  -3  -1 -13    0.05    0.07
  -3  -1 -13    0.29    0.12
  -3  -1 -13    0.24    0.11
   3   1  13    0.11    0.11
  -4  -1 -13    1.37    0.17
  -4  -1 -13    1.21    0.14
  -4  -1 -13    1.39    0.20
  -5  -1 -13    2.04    0.18
  -5  -1 -13    1.94    0.15
  -5  -1 -13    1.97    0.17
   5   1  13    1.94    0.17
   4  -2 -13    0.22    0.08
  -4   2  13    0.25    0.07
  -4   2  13    0.17    0.08
   3  -2 -13   35.54    1.72
   3  -2 -13   33.82    1.57
  -3   2  13   34.04    1.55
  -3   2  13   37.39    1.67
   2  -2 -13   21.55    1.25
  -2   2  13   19.00    1.01
  -2   2  13   19.62    1.10
  -1   2  13    6.57    0.65
   0  -2 -13   13.96    0.99
   0  -2 -13   12.93    0.71
   0   2  13   13.62    0.81
  -1  -2 -13   54.55    2.38
  -1  -2 -13   54.09    2.28
  -1  -2 -13   50.58    2.31
  -1  -2 -13   54.10    2.64
   1   2  13   52.05    2.25
   1   2  13   55.40    2.41
  -2  -2 -13    3.11    0.26
  -2  -2 -13    3.57    0.31
  -2  -2 -13    3.86    0.33
   2   2  13    3.04    0.31
   2   2  13    2.95    0.27
  -3  -2 -13   13.82    0.66
  -3  -2 -13   14.34    0.76
  -3  -2 -13   14.75    0.74
  -3  -2 -13   13.44    0.70
   3   2  13   12.39    0.74
  -4  -2 -13    6.68    0.43
  -4  -2 -13    6.75    0.36
  -4  -2 -13    6.91    0.43
   4   2  13    6.13    0.43
  -5  -2 -13    5.64    0.29
  -5  -2 -13    5.53    0.34
   5   2  13    6.03    0.34
   3  -3 -13   10.23    0.63
   3  -3 -13   10.44    0.52
  -3   3  13   10.48    0.50
  -3   3  13   10.69    0.67
   2  -3 -13   10.49    0.78
  -2   3  13    9.93    0.52
   1  -3 -13    0.79    0.15
   1  -3 -13    0.94    0.19
   1  -3 -13    0.82    0.25
  -1   3  13    0.86    0.23
  -1   3  13    0.97    0.22
   0  -3 -13   47.07    2.13
   0  -3 -13   50.17    2.09
   0  -3 -13   53.37    2.52
   0   3  13   46.80    2.24
   0   3  13   46.50    2.33
  -1  -3 -13   55.92    2.54
  -1  -3 -13   61.33    2.88
  -1  -3 -13   59.04    2.51
   1   3  13   63.02    2.66
   1   3  13   60.36    2.77
   1   3  13   55.60    2.47
  -2  -3 -13   12.73    0.98
  -2  -3 -13   14.64    0.72
  -2  -3 -13   16.74    0.94
   2   3  13   12.83    0.87
   2   3  13   13.61    0.69
  -3  -3 -13    0.21    0.12
  -3  -3 -13    0.16    0.10
  -3  -3 -13   -0.02    0.17
  -3  -3 -13    0.17    0.09
   3   3  13    0.23    0.12
  -4  -3 -13    1.79    0.17
  -4  -3 -13    1.92    0.22
   4   3  13    2.06    0.23
  -5  -3 -13    3.51    0.20
  -5  -3 -13    3.48    0.23
   5   3  13    3.11    0.23
   3  -4 -13    5.74    0.30
   3  -4 -13    5.57    0.39
  -3   4  13    5.74    0.29
  -3   4  13    6.80    0.39
   2  -4 -13    0.16    0.13
  -2   4  13    0.28    0.11
  -2   4  13    0.25    0.14
   1  -4 -13    0.23    0.15
   1  -4 -13    0.15    0.16
  -1   4  13    0.18    0.15
  -1   4  13    0.49    0.31
  -1   4  13    0.29    0.16
   0  -4 -13    0.24    0.12
   0  -4 -13    0.24    0.13
   0  -4 -13    0.37    0.20
   0   4  13    0.11    0.15
   0   4  13    0.09    0.15
  -1  -4 -13    8.32    0.47
  -1  -4 -13    7.85    0.49
  -1  -4 -13    7.66    0.68
   1   4  13    7.98    0.57
   1   4  13    8.57    0.63
  -2  -4 -13   88.91    3.76
  -2  -4 -13   87.31    3.78
   2   4  13   94.30    3.87
  -3  -4 -13   48.56    2.11
  -3  -4 -13   48.06    2.06
  -3  -4 -13   44.64    2.08
  -3  -4 -13   48.90    2.07
   3   4  13   49.07    2.14
  -4  -4 -13    4.55    0.27
  -4  -4 -13    4.69    0.32
   4   4  13    4.31    0.33
  -5  -4 -13    2.00    0.16
  -5  -4 -13    2.25    0.15
   5   4  13    1.94    0.17
   2  -5 -13    0.10    0.11
  -2   5  13    0.14    0.12
  -2   5  13    0.22    0.11
  -2   5  13    0.44    0.09
   1  -5 -13    4.31    0.46
   1  -5 -13    4.46    0.30
  -1   5  13    4.44    0.37
  -1   5  13    4.43    0.41
  -1   5  13    4.62    0.39
   0  -5 -13   13.13    0.70
   0  -5 -13   14.04    0.69
   0  -5 -13   13.01    0.93
   0   5  13   13.19    0.76
   0   5  13   13.82    0.86
   0   5  13   14.36    0.91
  -1  -5 -13    5.43    0.44
  -1  -5 -13    5.69    0.39
  -1  -5 -13    6.05    0.58
   1   5  13    5.36    0.49
   1   5  13    6.01    0.47
   1   5  13    5.96    0.52
  -2  -5 -13   11.44    0.63
  -2  -5 -13   10.84    0.81
  -2  -5 -13   11.67    0.65
   2   5  13   11.43    0.69
   2   5  13   12.53    0.71
  -3  -5 -13    1.53    0.19
  -3  -5 -13    1.44    0.19
   3   5  13    1.21    0.19
   3   5  13    1.63    0.23
  -4  -5 -13    2.29    0.17
   4   5  13    2.20    0.23
   4   5  13    2.00    0.22
  -5  -5 -13    2.47    0.15
   2  -6 -13    0.06    0.08
   1  -6 -13    0.62    0.17
   1  -6 -13    0.83    0.13
  -1   6  13    0.58    0.14
  -1   6  13    0.75    0.14
  -1   6  13    0.66    0.14
   0  -6 -13    2.69    0.36
   0  -6 -13    3.04    0.24
   0   6  13    3.25    0.35
   0   6  13    3.18    0.30
   0   6  13    2.97    0.33
  -1  -6 -13    4.63    0.32
  -1  -6 -13    3.93    0.45
   1   6  13    4.68    0.37
   1   6  13    4.26    0.39
   1   6  13    4.80    0.42
  -2  -6 -13    0.44    0.27
  -2  -6 -13    0.64    0.12
   2   6  13    0.57    0.18
   2   6  13    0.61    0.17
  -3  -6 -13    4.04    0.26
   3   6  13    3.19    0.29
   3   6  13    3.47    0.32
  -4  -6 -13    3.46    0.21
   4   6  13    3.89    0.25
   1  -7 -13    2.74    0.24
  -1   7  13    2.90    0.23
   0  -7 -13    2.91    0.20
   0   7  13    2.98    0.27
   0   7  13    3.11    0.25
  -1  -7 -13    0.07    0.08
  -1  -7 -13    0.08    0.12
   1   7  13    0.06    0.10
   1   7  13    0.08    0.10
  -2  -7 -13    0.03    0.07
   2   7  13    0.19    0.12
  -3  -7 -13    0.13    0.07
   3   7  13    0.25    0.10
  -1  -8 -13    9.31    0.40
   1   8  13    7.33    0.42
  -2  -8 -13    9.37    0.42
   2   8  13    8.34    0.45
   2   6 -14    4.86    0.32
   1   6 -14    0.30    0.11
   1   6 -14    0.24    0.13
   0   6 -14    1.08    0.17
   0   6 -14    1.35    0.13
  -3  -5  14    5.32    0.31
   2   5 -14    4.84    0.42
  -2  -5  14    6.21    0.37
   1   5 -14    0.07    0.08
   1   5 -14    0.21    0.14
   1   5 -14    0.26    0.12
  -1  -5  14    0.23    0.12
   0   5 -14    2.13    0.19
   0   5 -14    1.97    0.29
   0   5 -14    2.07    0.24
   0   5 -14    2.34    0.22
   0  -5  14    1.90    0.24
  -1   5 -14    2.58    0.19
  -1   5 -14    1.88    0.25
  -1   5 -14    2.58    0.23
  -1   5 -14    2.40    0.20
   1  -5  14    2.53    0.22
  -2   5 -14    1.98    0.24
   2  -5  14    1.44    0.17
   3   4 -14    9.83    0.61
  -3  -4  14   11.05    0.56
   2   4 -14    0.02    0.13
  -2  -4  14    0.25    0.13
   1   4 -14    0.26    0.10
   1   4 -14    0.05    0.15
   1   4 -14    0.31    0.13
  -1  -4  14    0.49    0.14
   0   4 -14    0.33    0.11
   0   4 -14    0.43    0.20
   0   4 -14    0.70    0.13
   0   4 -14    0.39    0.13
   0  -4  14    0.30    0.13
  -1   4 -14    0.09    0.09
  -1   4 -14    0.15    0.18
  -1   4 -14    0.21    0.11
  -1   4 -14    0.02    0.08
  -2   4 -14    0.58    0.11
  -2   4 -14    0.73    0.12
  -2   4 -14    0.58    0.10
  -3   4 -14    1.24    0.16
  -4  -3  14    2.54    0.21
   3   3 -14    0.41    0.17
  -3  -3  14    0.21    0.13
   2   3 -14    0.45    0.20
  -2  -3  14    0.32    0.14
   1   3 -14    0.35    0.31
   1   3 -14    0.34    0.12
   0   3 -14    0.05    0.10
   0   3 -14   -0.10    0.11
   0   3 -14    0.00    0.17
   0   3 -14   -0.02    0.13
  -1   3 -14    0.13    0.19
  -1   3 -14    0.15    0.10
  -1   3 -14    0.29    0.10
  -1   3 -14    0.19    0.10
  -2   3 -14    3.92    0.29
  -2   3 -14    3.63    0.26
  -2   3 -14    3.90    0.28
  -3   3 -14    0.40    0.12
  -3   3 -14    0.43    0.08
  -4  -2  14   22.55    0.98
   3   2 -14    0.68    0.19
  -3  -2  14    0.87    0.21
   2   2 -14    1.54    0.29
  -2  -2  14    1.47    0.24
   1   2 -14    1.94    0.36
   1   2 -14    2.35    0.29
   1   2 -14    2.40    0.25
  -1  -2  14    2.17    0.31
   0   2 -14    2.09    0.24
   0   2 -14    2.62    0.39
   0   2 -14    2.69    0.31
  -1   2 -14    1.33    0.32
  -1   2 -14    1.19    0.19
  -1   2 -14    1.34    0.19
  -1   2 -14    1.45    0.20
  -2   2 -14    0.77    0.14
  -2   2 -14    0.65    0.12
  -2   2 -14    0.49    0.15
  -2   2 -14    0.69    0.14
   2  -2  14    0.53    0.17
  -3   2 -14    0.42    0.11
  -3   2 -14    0.33    0.08
  -3   2 -14    0.32    0.11
  -3   2 -14    0.34    0.11
   3  -2  14    0.32    0.12
  -4   2 -14    0.23    0.08
  -4   2 -14    0.23    0.06
   3   1 -14    6.66    0.63
   2   1 -14   24.29    1.37
  -2  -1  14   22.13    1.19
  -2  -1  14   22.67    1.16
   1   1 -14   35.16    1.61
   1   1 -14   36.25    1.89
   1   1 -14   33.63    1.53
  -1  -1  14   33.66    1.60
  -1  -1  14   34.76    1.66
   0   1 -14   44.91    2.29
   0   1 -14   43.14    1.95
   0   1 -14   45.00    2.00
   0  -1  14   45.98    2.05
  -1   1 -14    3.68    0.33
  -1   1 -14    3.49    0.29
  -1   1 -14    4.20    0.47
  -1   1 -14    3.44    0.29
   1  -1  14    3.48    0.34
  -2   1 -14    5.16    0.32
  -2   1 -14    5.29    0.35
  -2   1 -14    4.88    0.37
  -2   1 -14    5.17    0.37
   2  -1  14    4.98    0.38
  -3   1 -14    0.42    0.09
  -3   1 -14    0.50    0.12
  -3   1 -14    0.50    0.11
  -3   1 -14    0.57    0.13
   3  -1  14    0.45    0.12
  -4   1 -14    0.02    0.06
  -4   1 -14   -0.01    0.07
  -4   1 -14    0.01    0.05
   4  -1  14   -0.07    0.10
   3   0 -14   36.36    1.81
  -3   0  14   36.52    1.57
  -3   0  14   35.35    1.63
   2   0 -14    5.03    0.51
  -2   0  14    5.13    0.45
  -2   0  14    4.91    0.43
   1   0 -14   19.00    0.94
   1   0 -14   19.94    1.01
   1   0 -14   20.14    1.23
  -1   0  14   19.92    1.02
  -1   0  14   20.46    1.08
   0   0 -14   16.72    0.84
   0   0 -14   17.38    1.11
   0   0 -14   16.00    0.87
   0   0  14   17.42    0.94
  -1   0 -14   29.66    1.37
  -1   0 -14   31.36    1.66
  -1   0 -14   30.37    1.39
   1   0  14   29.28    1.44
  -2   0 -14    0.96    0.16
  -2   0 -14    1.30    0.19
  -2   0 -14    1.24    0.20
  -2   0 -14    1.16    0.16
   2   0  14    1.13    0.19
  -3   0 -14    0.56    0.12
  -3   0 -14    0.60    0.11
  -3   0 -14    0.62    0.13
  -3   0 -14    0.50    0.13
   3   0  14    0.65    0.14
  -4   0 -14    2.16    0.20
  -4   0 -14    2.10    0.17
  -4   0 -14    2.15    0.20
   4   0  14    2.01    0.19
   3  -1 -14   21.99    1.15
   3  -1 -14   19.44    1.01
  -3   1  14   24.78    1.09
   2  -1 -14   17.05    1.39
  -2   1  14   18.60    1.01
   1  -1 -14   25.70    1.44
   1  -1 -14   23.77    1.12
  -1   1  14   23.57    1.26
   0  -1 -14   24.77    1.17
   0  -1 -14   25.06    1.46
   0   1  14   25.24    1.27
  -1  -1 -14    7.26    0.63
  -1  -1 -14    6.41    0.49
  -1  -1 -14    7.10    0.45
   1   1  14    6.97    0.49
  -2  -1 -14    9.94    0.57
  -2  -1 -14    8.87    0.54
  -2  -1 -14    8.63    0.47
  -2  -1 -14    8.68    0.51
   2   1  14    9.20    0.57
  -3  -1 -14    2.18    0.19
  -3  -1 -14    1.91    0.22
  -3  -1 -14    2.44    0.30
  -3  -1 -14    1.99    0.24
   3   1  14    2.29    0.27
  -4  -1 -14    5.32    0.31
  -4  -1 -14    4.91    0.28
  -4  -1 -14    4.81    0.33
   4   1  14    4.59    0.32
  -5  -1 -14    0.31    0.05
  -5  -1 -14    0.30    0.06
   5   1  14    0.38    0.07
   3  -2 -14    5.75    0.42
   3  -2 -14    5.12    0.31
  -3   2  14    5.57    0.30
  -3   2  14    6.83    0.41
   2  -2 -14    2.95    0.37
  -2   2  14    2.92    0.33
   1  -2 -14   20.91    1.00
   1  -2 -14   22.37    1.32
  -1   2  14   21.10    1.14
   0  -2 -14    2.78    0.41
   0  -2 -14    2.89    0.27
   0   2  14    3.01    0.33
  -1  -2 -14   30.35    1.35
  -1  -2 -14   29.07    1.60
   1   2  14   28.52    1.43
  -2  -2 -14    8.61    0.50
  -2  -2 -14    8.32    0.44
  -2  -2 -14    8.15    0.52
   2   2  14    8.56    0.55
  -3  -2 -14    4.40    0.30
  -3  -2 -14    4.13    0.27
  -3  -2 -14    4.45    0.34
   3   2  14    4.62    0.35
  -4  -2 -14    4.82    0.27
  -4  -2 -14    4.86    0.33
   4   2  14    5.00    0.34
  -5  -2 -14    0.40    0.07
  -5  -2 -14    0.37    0.06
   5   2  14    0.50    0.09
   3  -3 -14    4.57    0.33
  -3   3  14    4.91    0.32
   2  -3 -14    3.50    0.38
  -2   3  14    3.60    0.34
   1  -3 -14    0.18    0.16
   1  -3 -14    0.21    0.10
  -1   3  14    0.12    0.12
   0  -3 -14    3.41    0.28
   0  -3 -14    3.12    0.41
   0   3  14    2.86    0.33
  -1  -3 -14    5.08    0.42
  -1  -3 -14    3.92    0.47
  -1  -3 -14    4.39    0.33
   1   3  14    4.47    0.40
  -2  -3 -14   -0.08    0.09
  -2  -3 -14    0.11    0.26
  -2  -3 -14   -0.07    0.08
   2   3  14   -0.02    0.11
  -3  -3 -14   25.36    1.15
  -3  -3 -14   27.31    1.29
  -3  -3 -14   26.73    1.20
   3   3  14   28.12    1.35
  -4  -3 -14    4.47    0.29
  -4  -3 -14    4.45    0.30
   4   3  14    4.02    0.31
  -5  -3 -14   10.51    0.44
  -5  -3 -14    9.23    0.47
   5   3  14    9.91    0.48
  -3   4  14    6.06    0.33
   2  -4 -14    0.21    0.12
  -2   4  14    0.21    0.11
   1  -4 -14    0.77    0.22
   1  -4 -14    0.86    0.14
  -1   4  14    0.80    0.18
  -1   4  14    0.99    0.23
   0  -4 -14    3.81    0.32
   0  -4 -14    3.99    0.46
   0   4  14    3.98    0.41
   0   4  14    3.92    0.38
  -1  -4 -14    1.33    0.30
  -1  -4 -14    1.16    0.22
  -1  -4 -14    1.13    0.17
   1   4  14    1.41    0.24
  -2  -4 -14    9.01    0.50
   2   4  14    8.21    0.55
  -3  -4 -14   25.21    1.09
  -3  -4 -14   26.53    1.14
   3   4  14   24.28    1.20
  -4  -4 -14   18.33    0.77
  -4  -4 -14   18.83    0.84
   4   4  14   15.56    0.83
  -5  -4 -14    5.52    0.28
   2  -5 -14    1.66    0.19
  -2   5  14    1.51    0.16
   1  -5 -14   13.12    0.79
   1  -5 -14   12.35    0.58
  -1   5  14   12.62    0.74
  -1   5  14   11.88    0.70
   0  -5 -14    0.12    0.08
   0  -5 -14    0.00    0.11
   0   5  14    0.01    0.11
   0   5  14    0.10    0.12
  -1  -5 -14    2.05    0.32
  -1  -5 -14    1.82    0.20
   1   5  14    1.85    0.29
   1   5  14    1.80    0.26
  -2  -5 -14    6.90    0.41
   2   5  14    7.36    0.49
  -3  -5 -14    0.15    0.09
   3   5  14    0.17    0.13
  -4  -5 -14    3.94    0.21
   4   5  14    3.63    0.26
   1  -6 -14    8.53    0.51
  -1   6  14    7.21    0.41
   0  -6 -14    1.81    0.25
   0  -6 -14    1.73    0.16
   0   6  14    1.84    0.23
   0   6  14    1.75    0.22
   0   6  14    1.48    0.24
  -1  -6 -14    8.00    0.42
  -1  -6 -14    7.52    0.54
   1   6  14    7.17    0.45
   1   6  14    7.85    0.48
   1   6  14    7.18    0.50
  -2  -6 -14   17.21    0.76
   2   6  14   15.94    0.79
   2   6  14   15.35    0.80
  -3  -6 -14    0.65    0.10
   3   6  14    0.63    0.14
   3   6  14    0.49    0.16
   0  -7 -14   10.35    0.57
  -1  -7 -14    9.75    0.58
  -1  -7 -14   11.26    0.50
   1   7  14   10.72    0.53
  -2  -7 -14    0.28    0.07
   2   7  14    0.29    0.11
  -3  -7 -14    8.76    0.42
   2   5 -15    0.24    0.11
  -2  -5  15    0.17    0.09
   1   5 -15    0.31    0.14
   1   5 -15    0.43    0.11
  -1  -5  15    0.28    0.10
   0   5 -15    0.39    0.10
   0   5 -15    0.24    0.11
   0   5 -15    0.18    0.07
   0  -5  15    0.01    0.09
  -1   5 -15    0.03    0.11
  -1   5 -15    0.07    0.06
   1  -5  15   -0.03    0.13
  -3  -4  15    1.15    0.15
   2   4 -15    0.27    0.13
  -2  -4  15    0.06    0.11
   1   4 -15    2.07    0.29
   1   4 -15    1.72    0.17
   1   4 -15    1.92    0.23
  -1  -4  15    2.06    0.23
   0   4 -15    0.32    0.13
   0   4 -15    0.06    0.12
   0   4 -15    0.31    0.09
   0   4 -15    0.11    0.10
   0  -4  15    0.26    0.11
  -1   4 -15    1.07    0.14
  -1   4 -15    0.91    0.20
  -1   4 -15    1.20    0.16
  -1   4 -15    1.06    0.14
   1  -4  15    1.36    0.18
  -2   4 -15    0.31    0.09
  -2   4 -15    0.35    0.07
  -2   4 -15    0.16    0.07
   3   3 -15    8.67    0.53
  -3  -3  15   10.16    0.49
   2   3 -15    3.57    0.38
  -2  -3  15    3.89    0.33
   1   3 -15    0.54    0.12
   1   3 -15    0.58    0.20
   1   3 -15    0.54    0.15
  -1  -3  15    0.48    0.15
   0   3 -15    0.01    0.10
   0   3 -15    0.04    0.15
   0   3 -15    0.14    0.09
   0  -3  15    0.04    0.11
  -1   3 -15    2.78    0.35
  -1   3 -15    3.06    0.27
  -1   3 -15    3.16    0.24
  -1   3 -15    3.18    0.26
  -2   3 -15    0.03    0.07
  -2   3 -15    0.04    0.07
  -2   3 -15    0.22    0.09
  -3   3 -15    0.07    0.05
  -3   3 -15    0.01    0.07
   3   2 -15    5.16    0.39
  -3  -2  15    6.15    0.43
   2   2 -15    5.76    0.50
  -2  -2  15    6.01    0.41
   1   2 -15   54.95    2.33
   1   2 -15   49.84    2.52
   1   2 -15   53.57    2.26
  -1  -2  15   54.87    2.33
   0   2 -15    3.65    0.33
   0   2 -15    3.75    0.28
   0   2 -15    3.65    0.43
   0  -2  15    4.85    0.37
  -1   2 -15    0.12    0.17
  -1   2 -15    0.05    0.10
  -1   2 -15    0.02    0.08
  -1   2 -15   -0.16    0.10
  -2   2 -15    1.81    0.19
  -2   2 -15    1.54    0.20
  -2   2 -15    1.56    0.20
  -3   2 -15    0.54    0.10
  -3   2 -15    0.22    0.10
  -3   2 -15    0.34    0.07
   3   1 -15    6.06    0.51
  -3  -1  15    7.22    0.38
   2   1 -15    5.44    0.51
  -2  -1  15    6.10    0.42
   1   1 -15    7.02    0.41
   1   1 -15    7.14    0.48
   1   1 -15    7.72    0.77
  -1  -1  15    6.31    0.49
  -1  -1  15    7.09    0.48
   0   1 -15   14.45    0.95
   0   1 -15   15.28    0.92
   0   1 -15   13.93    0.70
   0  -1  15   13.20    0.76
   0  -1  15   12.64    0.87
  -1   1 -15    0.84    0.22
  -1   1 -15    0.59    0.22
  -1   1 -15    1.03    0.16
  -1   1 -15    0.88    0.15
   1  -1  15    0.93    0.19
  -2   1 -15   20.62    0.94
  -2   1 -15   21.12    0.97
  -2   1 -15   21.80    0.99
   2  -1  15   19.97    1.00
  -3   1 -15    1.40    0.17
  -3   1 -15    1.12    0.14
  -3   1 -15    1.42    0.14
  -3   1 -15    1.38    0.18
  -4   1 -15    0.45    0.07
   3   0 -15    1.85    0.24
  -3   0  15    1.61    0.20
   2   0 -15   46.93    2.27
  -2   0  15   50.18    2.06
  -2   0  15   45.62    2.11
   1   0 -15   22.19    1.30
   1   0 -15   22.96    1.02
  -1   0  15   22.82    1.09
  -1   0  15   21.24    1.13
   0   0 -15   23.14    1.12
   0   0 -15   27.06    1.33
   0   0 -15   24.74    1.41
   0   0  15   23.72    1.22
   0   0  15   24.08    1.22
  -1   0 -15    5.33    0.52
  -1   0 -15    4.66    0.50
  -1   0 -15    4.62    0.33
   1   0  15    5.29    0.41
  -2   0 -15   23.25    1.06
  -2   0 -15   23.96    1.09
  -2   0 -15   23.90    1.05
  -2   0 -15   23.34    1.01
   2   0  15   19.38    1.08
  -3   0 -15    0.14    0.08
  -3   0 -15    0.03    0.08
  -3   0 -15    0.10    0.06
  -3   0 -15    0.05    0.12
   3   0  15    0.10    0.09
  -4   0 -15    1.16    0.16
  -4   0 -15    0.73    0.11
  -4   0 -15    1.26    0.16
   4   0  15    1.00    0.13
   3  -1 -15    8.40    0.50
  -3   1  15    7.99    0.45
   2  -1 -15   11.99    0.81
  -2   1  15   14.34    0.75
   1  -1 -15    4.80    0.32
   1  -1 -15    4.86    0.65
  -1   1  15    5.26    0.42
   0  -1 -15   15.80    1.00
   0  -1 -15   15.16    0.75
   0   1  15   14.38    0.85
  -1  -1 -15    0.93    0.15
  -1  -1 -15    0.84    0.26
  -1  -1 -15    1.20    0.28
   1   1  15    1.08    0.21
  -2  -1 -15    9.49    0.63
  -2  -1 -15    9.28    0.53
  -2  -1 -15    9.05    0.48
   2   1  15   10.25    0.69
  -3  -1 -15    3.19    0.28
  -3  -1 -15    3.02    0.21
  -3  -1 -15    3.00    0.22
  -3  -1 -15    2.65    0.24
   3   1  15    2.97    0.26
  -4  -1 -15    0.92    0.12
  -4  -1 -15    1.18    0.11
   4   1  15    0.92    0.12
   3  -2 -15   17.96    0.90
  -3   2  15   19.92    0.88
   2  -2 -15    0.28    0.14
  -2   2  15    0.70    0.16
   1  -2 -15    0.22    0.14
   1  -2 -15    0.33    0.10
  -1   2  15    0.11    0.11
   0  -2 -15   20.70    1.23
   0  -2 -15   20.67    0.98
   0   2  15   21.86    1.11
  -1  -2 -15    0.05    0.17
  -1  -2 -15    0.25    0.09
   1   2  15    0.19    0.13
   2   2  15    8.75    0.59
  -3  -2 -15    1.13    0.14
  -3  -2 -15    1.00    0.15
  -3  -2 -15    1.18    0.16
   3   2  15    1.11    0.17
  -4  -2 -15    0.39    0.08
  -4  -2 -15    0.39    0.07
   4   2  15    0.41    0.10
  -3   3  15    2.07    0.16
   2  -3 -15   12.12    0.75
  -2   3  15   14.14    0.72
   1  -3 -15   25.33    1.19
   1  -3 -15   24.10    1.34
  -1   3  15   25.64    1.24
   0  -3 -15    2.96    0.38
   0  -3 -15    2.74    0.23
   0   3  15    2.52    0.30
  -1  -3 -15    6.02    0.54
  -1  -3 -15    6.16    0.41
   1   3  15    5.60    0.45
  -2  -3 -15   -0.06    0.08
   2   3  15    0.02    0.10
  -3  -3 -15    5.91    0.33
  -3  -3 -15    6.74    0.37
   3   3  15    6.64    0.42
  -4  -3 -15   18.08    0.90
  -4  -3 -15   19.81    0.89
   4   3  15   22.36    0.94
   2  -4 -15   23.87    1.12
  -2   4  15   22.12    1.10
   1  -4 -15    5.53    0.30
   1  -4 -15    4.32    0.42
  -1   4  15    6.12    0.42
   0  -4 -15    9.96    0.69
   0  -4 -15    8.93    0.48
   0   4  15    8.49    0.57
  -1  -4 -15    0.36    0.16
  -1  -4 -15    0.24    0.09
   1   4  15    0.13    0.12
  -2  -4 -15    0.36    0.09
   2   4  15    0.32    0.12
  -3  -4 -15   19.11    0.86
   3   4  15   19.30    1.01
  -4  -4 -15    0.24    0.09
   4   4  15    0.27    0.10
  -1   5  15    3.88    0.28
   0  -5 -15   18.85    1.06
   0  -5 -15   19.98    0.89
   0   5  15   20.65    0.98
  -1  -5 -15    7.02    0.56
  -1  -5 -15    9.67    0.46
   1   5  15    9.45    0.56
  -2  -5 -15    0.24    0.09
   2   5  15    0.24    0.12
  -3  -5 -15    1.07    0.13
   3   5  15    0.88    0.14
   1  -6 -15    3.42    0.24
   0  -6 -15    2.04    0.25
   0  -6 -15    2.91    0.17
   0   6  15    2.20    0.25
  -1  -6 -15    0.07    0.06
  -1  -6 -15    0.15    0.10
   1   6  15    0.04    0.11
  -2  -6 -15    2.12    0.16
   2   6  15    1.92    0.21
  -3  -6 -15    0.68    0.08
  -2  -7 -15    7.03    0.33
   2   4 -16   -0.01    0.08
   1   4 -16    1.03    0.17
  -1  -4  16    1.55    0.18
   0   4 -16    1.24    0.13
   0   4 -16    1.03    0.17
   0   4 -16    1.13    0.17
   0  -4  16    1.24    0.21
  -1   4 -16    0.09    0.05
  -1   4 -16    0.26    0.09
   1  -4  16    0.23    0.08
   2   3 -16    1.91    0.24
  -2  -3  16    2.14    0.22
   1   3 -16    2.50    0.29
   1   3 -16    2.93    0.25
  -1  -3  16    3.50    0.27
   0   3 -16    7.54    0.57
   0   3 -16    9.23    0.49
   0   3 -16    8.96    0.45
   0  -3  16    9.01    0.49
  -1   3 -16    6.46    0.36
  -1   3 -16    7.18    0.43
  -1   3 -16    6.82    0.39
   1  -3  16    6.59    0.39
  -2   3 -16    0.38    0.08
  -2   3 -16    0.31    0.09
  -2   3 -16    0.30    0.09
   2   2 -16    3.34    0.32
  -2  -2  16    3.06    0.27
   1   2 -16    1.98    0.24
   1   2 -16    1.83    0.31
   1   2 -16    1.86    0.19
  -1  -2  16    2.01    0.25
   0   2 -16   11.19    0.58
   0   2 -16   10.89    0.54
   0   2 -16    9.76    0.69
   0  -2  16   10.93    0.58
  -1   2 -16   14.12    0.66
  -1   2 -16   13.85    0.79
  -1   2 -16   11.69    0.74
  -2   2 -16    0.40    0.10
  -2   2 -16    0.38    0.10
  -2   2 -16    0.43    0.09
  -3   2 -16    0.25    0.09
   2   1 -16    4.72    0.40
   1   1 -16    1.71    0.28
   1   1 -16    2.00    0.19
  -1  -1  16    1.79    0.29
   0   1 -16    2.52    0.21
   0   1 -16    2.04    0.26
   0   1 -16    1.96    0.30
   0  -1  16    1.89    0.29
   0  -1  16    2.05    0.27
  -1   1 -16    0.34    0.12
  -1   1 -16    0.43    0.09
  -1   1 -16    0.38    0.25
   1  -1  16    0.22    0.14
  -2   1 -16    5.95    0.31
  -2   1 -16    5.49    0.32
  -2   1 -16    5.46    0.34
   2  -1  16    5.30    0.35
  -3   1 -16    6.28    0.31
  -3   1 -16    6.68    0.34
   3  -1  16    5.55    0.38
   2   0 -16    0.10    0.12
  -2   0  16   -0.06    0.12
   1   0 -16    6.42    0.54
  -1   0  16    5.41    0.49
  -1   0  16    7.36    0.48
   0   0 -16   21.00    0.99
   0   0 -16   21.57    1.20
   0   0 -16   20.46    0.95
   0   0  16   20.48    1.00
   0   0  16   20.77    1.05
  -1   0 -16    0.84    0.23
  -1   0 -16    1.22    0.18
  -1   0 -16    1.32    0.16
   1   0  16    1.01    0.19
   1   0  16    1.27    0.21
  -2   0 -16    0.23    0.11
  -2   0 -16    0.28    0.08
  -2   0 -16    0.13    0.09
   2   0  16    0.28    0.11
  -3   0 -16    0.17    0.11
  -3   0 -16    0.19    0.09
  -3   0 -16    0.21    0.10
   3   0  16    0.06    0.07
   2  -1 -16    7.73    0.52
  -2   1  16    7.08    0.44
   1  -1 -16    0.44    0.11
   1  -1 -16    0.45    0.17
  -1   1  16    0.72    0.18
   0  -1 -16    2.86    0.22
   0  -1 -16    2.24    0.33
   0   1  16    2.27    0.28
  -1  -1 -16    0.77    0.13
  -1  -1 -16    0.96    0.24
   1   1  16    0.94    0.18
  -2  -1 -16    0.11    0.07
   2   1  16    0.12    0.09
  -3  -1 -16    0.09    0.07
  -3  -1 -16    0.11    0.09
   3   1  16    0.10    0.08
   4   1  16   -0.09    0.05
   2  -2 -16   17.76    0.89
  -2   2  16   15.48    0.81
   1  -2 -16    3.90    0.24
   1  -2 -16    3.27    0.35
  -1   2  16    3.84    0.32
   0  -2 -16    7.73    0.43
   0  -2 -16    7.82    0.60
   0   2  16    8.70    0.54
  -1  -2 -16    6.56    0.55
  -1  -2 -16    7.98    0.42
   1   2  16    8.17    0.51
  -2  -2 -16    3.61    0.26
   2   2  16    3.62    0.31
  -3  -2 -16    0.64    0.10
  -3  -2 -16    0.75    0.10
   3   2  16    0.76    0.13
   2  -3 -16    1.01    0.14
  -2   3  16    1.06    0.14
   1  -3 -16   13.21    0.80
   1  -3 -16   14.60    0.63
  -1   3  16   13.00    0.72
   0  -3 -16    0.55    0.10
   0  -3 -16    0.77    0.19
   0   3  16    0.80    0.16
  -1  -3 -16    0.10    0.24
  -1  -3 -16    0.08    0.06
   1   3  16    0.08    0.10
  -2  -3 -16    4.22    0.27
   2   3  16    3.88    0.32
  -3  -3 -16   16.74    0.71
   3   3  16   14.71    0.77
   4   3  16    1.51    0.15
   1  -4 -16    5.47    0.38
  -1   4  16    4.35    0.32
   0  -4 -16   21.35    0.90
   0  -4 -16   22.35    1.09
   0   4  16   17.19    0.97
  -1  -4 -16   14.10    0.70
  -1  -4 -16   14.15    0.83
   1   4  16   17.09    0.87
  -2  -4 -16    3.57    0.24
   2   4  16    4.16    0.31
  -3  -4 -16   13.31    0.64
   3   4  16   11.55    0.62
   1  -5 -16    6.06    0.36
   0  -5 -16    8.62    0.57
   0  -5 -16    9.87    0.42
   0   5  16    8.34    0.49
  -1  -5 -16    0.70    0.15
  -1  -5 -16    0.70    0.10
   1   5  16    0.81    0.14
  -2  -5 -16    4.66    0.25
   2   5  16    3.83    0.33
  -3  -5 -16    3.66    0.22
  -1  -6 -16    1.39    0.11
  -2  -6 -16   10.87    0.49
   1   3 -17    0.75    0.14
  -1  -3  17    0.81    0.13
   0   3 -17    6.62    0.35
   0   3 -17    6.88    0.32
   0   3 -17    5.56    0.43
   0  -3  17    6.72    0.35
  -1   3 -17    1.74    0.13
   2   2 -17    0.23    0.14
   1   2 -17   -0.03    0.09
  -1  -2  17   -0.06    0.10
   0   2 -17    0.19    0.07
   0   2 -17    0.22    0.12
   0  -2  17    0.18    0.14
  -1   2 -17    4.70    0.25
  -1   2 -17    3.83    0.28
   1  -2  17    4.65    0.29
  -2   2 -17    0.38    0.09
   2  -2  17    0.24    0.09
   1   1 -17    7.27    0.36
   1   1 -17    7.22    0.49
  -1  -1  17    6.94    0.41
   0   1 -17   16.60    0.76
   0   1 -17   15.65    0.73
   0   1 -17   15.34    0.88
   0  -1  17   16.47    0.77
  -1   1 -17    7.59    0.41
  -1   1 -17    5.99    0.44
  -1   1 -17    6.96    0.36
   1  -1  17    6.65    0.40
  -2   1 -17    1.20    0.18
  -2   1 -17    1.42    0.16
   2  -1  17    1.24    0.17
   2   0 -17   19.99    0.97
   1   0 -17    1.72    0.16
   1   0 -17    1.72    0.23
  -1   0  17    1.71    0.22
   0   0 -17   -0.02    0.06
   0   0 -17    0.11    0.12
   0   0  17    0.18    0.22
   0   0  17    0.06    0.11
  -1   0 -17   11.56    0.59
  -1   0 -17   12.14    0.58
  -1   0 -17   11.64    0.69
   1   0  17   10.21    0.59
   1   0  17   12.56    0.61
  -2   0 -17    0.00    0.17
  -2   0 -17   -0.01    0.05
   2   0  17    0.07    0.13
   2  -1 -17   16.81    0.82
   1  -1 -17    5.23    0.28
   1  -1 -17    5.15    0.41
  -1   1  17    5.38    0.35
   0  -1 -17    4.98    0.44
   0  -1 -17    6.86    0.34
   0   1  17    6.54    0.42
  -1  -1 -17    6.87    0.47
   1   1  17    6.55    0.43
  -2  -1 -17    7.53    0.36
   2   1  17    6.22    0.40
   3   1  17   -0.05    0.07
   2  -2 -17    0.06    0.07
   1  -2 -17    1.29    0.19
  -1   2  17    1.12    0.16
   0  -2 -17   16.50    0.66
   0  -2 -17   12.35    0.78
   0   2  17   13.35    0.73
  -1  -2 -17    2.79    0.29
  -1  -2 -17    3.06    0.21
   1   2  17    3.24    0.28
  -2  -2 -17    3.77    0.24
   2   2  17    3.93    0.29
  -3  -2 -17   -0.02    0.08
   3   2  17    0.00    0.07
  -1   3  17   24.81    1.12
   0  -3 -17    4.90    0.28
   0  -3 -17    5.53    0.40
   0   3  17    5.30    0.36
  -1  -3 -17   10.42    0.49
  -1  -3 -17    8.99    0.57
   1   3  17   10.88    0.57
  -2  -3 -17    3.32    0.20
   2   3  17    2.87    0.26
  -3  -3 -17    0.19    0.08
   3   3  17    0.42    0.09
   1  -4 -17    8.08    0.47
  -1   4  17    9.23    0.43
   0  -4 -17    0.06    0.05
   0  -4 -17   -0.02    0.07
   0   4  17   -0.08    0.07
  -1  -4 -17   14.18    0.64
   2   4  17   -0.13    0.08
   3   4  17    0.23    0.09
  -1  -5 -17   -0.02    0.04
   1   5  17   -0.11    0.07
  -2  -5 -17    1.56    0.15
   1   1 -18    9.28    0.54
   0   1 -18    0.19    0.06
   0   1 -18    0.29    0.13
  -1   1 -18    8.42    0.39
   1   0 -18   15.77    0.78
   0   0 -18    0.16    0.10
   0   0 -18    0.17    0.06
  -1   0 -18    0.07    0.05
  -2   0 -18    0.45    0.09
   1  -1 -18    2.70    0.22
   0  -1 -18    0.52    0.13
   0  -1 -18    0.48    0.07
   1   1  18    0.09    0.08
  -2  -1 -18    3.64    0.19
   2   1  18    3.13    0.22
   1  -2 -18    3.14    0.22
   0  -2 -18    2.31    0.20
   0  -2 -18    2.52    0.16
   0   2  18    2.34    0.20
  -1  -2 -18    0.31    0.06
   1   2  18    0.42    0.09
  -2  -2 -18    0.20    0.06
   2   2  18    0.13    0.07
   0   3  18    1.26    0.14
  -1  -3 -18    1.41    0.11
   1   3  18    1.51    0.15
  -2  -3 -18    8.80    0.41
   2   3  18    6.67    0.39
   0   0   0    0.00    0.00
;
_shelx_hkl_checksum              96582
loop_
_symmetry_equiv_pos_as_xyz
'x, y, z'
'-x, -y, -z'
loop_
_atom_site_label
_atom_site_type_symbol
_atom_site_fract_x
_atom_site_fract_y
_atom_site_fract_z
_atom_site_U_iso_or_equiv
_atom_site_adp_type
_atom_site_occupancy
_atom_site_site_symmetry_order
_atom_site_calc_flag
_atom_site_refinement_flags_posn
_atom_site_refinement_flags_adp
_atom_site_refinement_flags_occupancy
_atom_site_disorder_assembly
_atom_site_disorder_group
S1 S 0.96949(7) 0.58004(5) 0.13885(3) 0.05034(15) Uani 1 1 d . . . . .
N1 N 0.8822(3) 0.42122(17) 0.10854(9) 0.0526(3) Uani 1 1 d . . . . .
N2 N 0.6419(2) 0.49444(14) 0.23917(8) 0.0389(3) Uani 1 1 d . . . . .
N3 N 0.7326(2) 0.71466(15) 0.29640(8) 0.0426(3) Uani 1 1 d . . . . .
H3B H 0.61849 0.710325 0.337443 0.051 Uiso 1 1 calc R U . . .
C1 C 0.7127(3) 0.39550(17) 0.16835(9) 0.0397(3) Uani 1 1 d . . . . .
C2 C 0.7699(2) 0.60396(16) 0.23376(9) 0.0361(3) Uani 1 1 d . . . . .
C3 C 0.5938(3) 0.2603(2) 0.16271(11) 0.0506(4) Uani 1 1 d . . . . .
H3A H 0.420444 0.307337 0.161403 0.061 Uiso 0.55 1 calc R U P A 1
H3C H 0.622743 0.187842 0.217564 0.061 Uiso 0.55 1 calc R U P A 1
H3D H 0.443455 0.282354 0.200414 0.061 Uiso 0.45 1 calc R U P B 2
H3E H 0.698465 0.158317 0.18672 0.061 Uiso 0.45 1 calc R U P B 2
O1 O 0.6187(4) 0.0072(3) 0.09952(15) 0.0591(6) Uani 0.55 1 d . . P C 1
H1 H 0.636623 -0.045817 0.044667 0.071 Uiso 0.55 1 d R U P C 1
C4 C 0.6814(6) 0.1579(4) 0.07898(19) 0.0408(5) Uani 0.55 1 d . . P C 1
H4A H 0.857122 0.137577 0.067814 0.049 Uiso 0.55 1 calc R U P C 1
C5 C 0.5551(8) 0.2520(5) -0.0026(3) 0.0709(10) Uani 0.55 1 d . . P C 1
H5A H 0.600419 0.352709 -0.014792 0.106 Uiso 0.55 1 calc R U P C 1
H5B H 0.383131 0.27505 0.009998 0.106 Uiso 0.55 1 calc R U P C 1
H5C H 0.601491 0.187969 -0.054729 0.106 Uiso 0.55 1 calc R U P C 1
O1B O 0.3455(4) 0.1649(3) 0.06039(18) 0.0527(6) Uani 0.45 1 d . . P C 2
H1B H 0.219952 0.217359 0.071505 0.063 Uiso 0.45 1 d R U P C 2
C4B C 0.5387(8) 0.2407(5) 0.0613(3) 0.0466(8) Uani 0.45 1 d . . P C 2
H4BA H 0.5036 0.346265 0.025676 0.056 Uiso 0.45 1 calc R U P C 2
C5B C 0.7620(8) 0.1248(7) 0.0226(4) 0.0721(13) Uani 0.45 1 d . . P C 2
H5BA H 0.899906 0.165181 0.028902 0.108 Uiso 0.45 1 calc R U P C 2
H5BB H 0.745858 0.115362 -0.040813 0.108 Uiso 0.45 1 calc R U P C 2
H5BC H 0.78349 0.019354 0.054891 0.108 Uiso 0.45 1 calc R U P C 2
C6 C 0.8505(3) 0.83665(16) 0.30555(9) 0.0383(3) Uani 1 1 d . . . . .
C7 C 0.7603(3) 0.9384(2) 0.37633(11) 0.0498(4) Uani 1 1 d . . . . .
H7A H 0.628615 0.92398 0.414067 0.06 Uiso 1 1 calc R U . . .
C8 C 0.8665(4) 1.0609(2) 0.39058(13) 0.0615(5) Uani 1 1 d . . . . .
H8A H 0.805923 1.128494 0.438042 0.074 Uiso 1 1 calc R U . . .
C9 C 1.0621(4) 1.0837(2) 0.33486(13) 0.0607(5) Uani 1 1 d . . . . .
H9A H 1.132985 1.166307 0.344605 0.073 Uiso 1 1 calc R U . . .
C10 C 1.1510(3) 0.9831(2) 0.26481(12) 0.0528(4) Uani 1 1 d . . . . .
H10A H 1.282712 0.998071 0.227243 0.063 Uiso 1 1 calc R U . . .
C11 C 1.0464(3) 0.85974(18) 0.24964(11) 0.0459(3) Uani 1 1 d . . . . .
H11A H 1.107659 0.79259 0.202029 0.055 Uiso 1 1 calc R U . . .
O21 O 0.2894(2) 0.46411(14) 0.36400(7) 0.0527(3) Uani 1 1 d . . . . .
H21 H 0.408547 0.474062 0.322127 0.063 Uiso 1 1 d R U . . .
O22 O 0.3842(2) 0.65809(13) 0.43459(7) 0.0481(3) Uani 1 1 d . . . . .
C21 C 0.2641(3) 0.56164(17) 0.43018(9) 0.0403(3) Uani 1 1 d . . . . .
C22 C 0.0728(3) 0.54666(18) 0.50161(10) 0.0439(3) Uani 1 1 d . . . . .
H22A H 0.054952 0.607769 0.552179 0.053 Uiso 1 1 calc R U . . .
loop_
_atom_site_aniso_label
_atom_site_aniso_U_11
_atom_site_aniso_U_22
_atom_site_aniso_U_33
_atom_site_aniso_U_23
_atom_site_aniso_U_13
_atom_site_aniso_U_12
S1 0.0561(2) 0.0544(2) 0.0502(2) -0.02169(17) 0.01795(17) -0.03185(19)
N1 0.0626(8) 0.0550(8) 0.0500(7) -0.0239(6) 0.0173(6) -0.0321(6)
N2 0.0449(6) 0.0385(6) 0.0379(6) -0.0109(5) 0.0059(5) -0.0188(5)
N3 0.0486(6) 0.0421(6) 0.0439(6) -0.0153(5) 0.0113(5) -0.0241(5)
C1 0.0470(7) 0.0381(7) 0.0382(7) -0.0105(5) 0.0027(6) -0.0175(6)
C2 0.0386(6) 0.0341(6) 0.0378(7) -0.0063(5) 0.0007(5) -0.0133(5)
C3 0.0698(10) 0.0513(8) 0.0419(8) -0.0158(6) 0.0103(7) -0.0354(8)
O1 0.0837(15) 0.0456(11) 0.0590(12) -0.0205(9) 0.0039(11) -0.0329(11)
C4 0.0440(14) 0.0397(14) 0.0432(15) -0.0155(12) 0.0063(13) -0.0173(13)
C5 0.108(3) 0.074(2) 0.0419(19) -0.0030(16) -0.0129(18) -0.041(2)
O1B 0.0491(13) 0.0543(14) 0.0632(15) -0.0265(11) 0.0051(11) -0.0237(11)
C4B 0.058(2) 0.0434(19) 0.048(2) -0.0101(15) -0.0013(16) -0.028(2)
C5B 0.063(2) 0.095(3) 0.073(3) -0.039(3) 0.020(2) -0.041(2)
C6 0.0447(7) 0.0339(7) 0.0401(7) -0.0062(5) -0.0012(5) -0.0160(6)
C7 0.0591(9) 0.0486(8) 0.0485(8) -0.0169(7) 0.0093(7) -0.0252(7)
C8 0.0773(12) 0.0555(10) 0.0622(10) -0.0273(8) 0.0079(9) -0.0321(9)
C9 0.0700(11) 0.0526(9) 0.0724(12) -0.0178(8) 0.0005(9) -0.0355(9)
C10 0.0533(9) 0.0500(9) 0.0625(10) -0.0074(7) 0.0041(7) -0.0273(7)
C11 0.0515(8) 0.0434(8) 0.0481(8) -0.0116(6) 0.0062(6) -0.0219(7)
O21 0.0604(7) 0.0612(7) 0.0476(6) -0.0222(5) 0.0193(5) -0.0361(6)
O22 0.0547(6) 0.0518(6) 0.0462(6) -0.0123(4) 0.0101(5) -0.0296(5)
C21 0.0442(7) 0.0416(7) 0.0382(7) -0.0068(5) 0.0036(6) -0.0175(6)
C22 0.0496(8) 0.0487(8) 0.0385(7) -0.0125(6) 0.0086(6) -0.0218(7)
loop_
_atom_type_symbol
_atom_type_description
_atom_type_scat_dispersion_real
_atom_type_scat_dispersion_imag
_atom_type_scat_source
C C 0.0181 0.0091 'International Tables Vol C Tables 4.2.6.8 and 6.1.1.4'
H H 0 0 'International Tables Vol C Tables 4.2.6.8 and 6.1.1.4'
N N 0.0311 0.018 'International Tables Vol C Tables 4.2.6.8 and 6.1.1.4'
O O 0.0492 0.0322 'International Tables Vol C Tables 4.2.6.8 and 6.1.1.4'
S S 0.3331 0.5567 'International Tables Vol C Tables 4.2.6.8 and 6.1.1.4'
loop_
_geom_angle_atom_site_label_1
_geom_angle_atom_site_label_2
_geom_angle_atom_site_label_3
_geom_angle
_geom_angle_site_symmetry_1
_geom_angle_site_symmetry_3
_geom_angle_publ_flag
N1 S1 C2 92.53(6) . . ?
C1 N1 S1 108.08(10) . . ?
C2 N2 C1 109.88(11) . . ?
C2 N3 C6 130.22(12) . . ?
C2 N3 H3B 114.9 . . ?
C6 N3 H3B 114.9 . . ?
N1 C1 N2 118.92(12) . . ?
N1 C1 C3 122.52(13) . . ?
N2 C1 C3 118.55(12) . . ?
N2 C2 N3 120.70(12) . . ?
N2 C2 S1 110.57(10) . . ?
N3 C2 S1 128.73(11) . . ?
C1 C3 C4 114.68(15) . . ?
C1 C3 C4B 112.36(16) . . ?
C1 C3 H3A 108.6 . . ?
C4 C3 H3A 108.6 . . ?
C1 C3 H3C 108.6 . . ?
C4 C3 H3C 108.6 . . ?
H3A C3 H3C 107.6 . . ?
C1 C3 H3D 109.1 . . ?
C4B C3 H3D 109.1 . . ?
C1 C3 H3E 109.1 . . ?
C4B C3 H3E 109.1 . . ?
H3D C3 H3E 107.9 . . ?
C4 O1 H1 107.9 . . ?
O1 C4 C5 111.2(2) . . ?
O1 C4 C3 107.0(2) . . ?
C5 C4 C3 108.2(3) . . ?
O1 C4 H4A 110.1 . . ?
C5 C4 H4A 110.1 . . ?
C3 C4 H4A 110.1 . . ?
C4 C5 H5A 109.5 . . ?
C4 C5 H5B 109.5 . . ?
H5A C5 H5B 109.5 . . ?
C4 C5 H5C 109.5 . . ?
H5A C5 H5C 109.5 . . ?
H5B C5 H5C 109.5 . . ?
C4B O1B H1B 116.4 . . ?
O1B C4B C5B 106.9(3) . . ?
O1B C4B C3 111.0(3) . . ?
C5B C4B C3 105.4(4) . . ?
O1B C4B H4BA 111.1 . . ?
C5B C4B H4BA 111.1 . . ?
C3 C4B H4BA 111.1 . . ?
C4B C5B H5BA 109.5 . . ?
C4B C5B H5BB 109.5 . . ?
H5BA C5B H5BB 109.5 . . ?
C4B C5B H5BC 109.5 . . ?
H5BA C5B H5BC 109.5 . . ?
H5BB C5B H5BC 109.5 . . ?
C11 C6 C7 119.41(13) . . ?
C11 C6 N3 124.37(13) . . ?
C7 C6 N3 116.22(13) . . ?
C8 C7 C6 120.03(15) . . ?
C8 C7 H7A 120 . . ?
C6 C7 H7A 120 . . ?
C9 C8 C7 120.51(15) . . ?
C9 C8 H8A 119.7 . . ?
C7 C8 H8A 119.7 . . ?
C10 C9 C8 119.44(15) . . ?
C10 C9 H9A 120.3 . . ?
C8 C9 H9A 120.3 . . ?
C9 C10 C11 120.73(15) . . ?
C9 C10 H10A 119.6 . . ?
C11 C10 H10A 119.6 . . ?
C6 C11 C10 119.88(14) . . ?
C6 C11 H11A 120.1 . . ?
C10 C11 H11A 120.1 . . ?
C21 O21 H21 112.7 . . ?
O22 C21 O21 124.40(13) . . ?
O22 C21 C22 121.17(13) . . ?
O21 C21 C22 114.43(12) . . ?
C22 C22 C21 124.39(17) 2_566 . ?
C22 C22 H22A 117.8 2_566 . ?
C21 C22 H22A 117.8 . . ?
loop_
_geom_bond_atom_site_label_1
_geom_bond_atom_site_label_2
_geom_bond_distance
_geom_bond_site_symmetry_2
_geom_bond_publ_flag
S1 N1 1.6713(13) . ?
S1 C2 1.7229(14) . ?
N1 C1 1.3082(19) . ?
N2 C2 1.3287(17) . ?
N2 C1 1.3660(17) . ?
N3 C2 1.3419(17) . ?
N3 C6 1.4064(17) . ?
N3 H3B 0.86 . ?
C1 C3 1.5010(19) . ?
C3 C4 1.545(3) . ?
C3 C4B 1.587(4) . ?
C3 H3A 0.97 . ?
C3 H3C 0.97 . ?
C3 H3D 0.97 . ?
C3 H3E 0.97 . ?
O1 C4 1.425(3) . ?
O1 H1 0.9458 . ?
C4 C5 1.509(5) . ?
C4 H4A 0.98 . ?
C5 H5A 0.96 . ?
C5 H5B 0.96 . ?
C5 H5C 0.96 . ?
O1B C4B 1.429(4) . ?
O1B H1B 0.7527 . ?
C4B C5B 1.498(6) . ?
C4B H4BA 0.98 . ?
C5B H5BA 0.96 . ?
C5B H5BB 0.96 . ?
C5B H5BC 0.96 . ?
C6 C11 1.386(2) . ?
C6 C7 1.391(2) . ?
C7 C8 1.382(2) . ?
C7 H7A 0.93 . ?
C8 C9 1.382(3) . ?
C8 H8A 0.93 . ?
C9 C10 1.376(2) . ?
C9 H9A 0.93 . ?
C10 C11 1.386(2) . ?
C10 H10A 0.93 . ?
C11 H11A 0.93 . ?
O21 C21 1.3112(17) . ?
O21 H21 0.899 . ?
O22 C21 1.2163(17) . ?
C21 C22 1.4803(19) . ?
C22 C22 1.306(3) 2_566 ?
C22 H22A 0.93 . ?
loop_
_geom_hbond_atom_site_label_D
_geom_hbond_atom_site_label_H
_geom_hbond_atom_site_label_A
_geom_hbond_distance_DH
_geom_hbond_distance_HA
_geom_hbond_distance_DA
_geom_hbond_angle_DHA
_geom_hbond_site_symmetry_A
_geom_hbond_publ_flag
N3 H3B O22 0.86 1.99 2.8369(15) 169.8 . yes
O1 H1 O1 0.95 2.63 3.366(4) 134.7 2_655 yes
C5 H5C O1 0.96 2.51 3.149(4) 124.4 2_655 yes
O1B H1B N1 0.75 2.29 3.030(3) 167.1 1_455 yes
C11 H11A S1 0.93 2.45 3.1506(15) 132.6 . yes
O21 H21 N2 0.9 1.77 2.6698(15) 179.6 . yes
loop_
_geom_torsion_atom_site_label_1
_geom_torsion_atom_site_label_2
_geom_torsion_atom_site_label_3
_geom_torsion_atom_site_label_4
_geom_torsion
_geom_torsion_site_symmetry_1
_geom_torsion_site_symmetry_2
_geom_torsion_site_symmetry_3
_geom_torsion_site_symmetry_4
_geom_torsion_publ_flag
C2 S1 N1 C1 0.49(13) . . . . ?
S1 N1 C1 N2 0.05(19) . . . . ?
S1 N1 C1 C3 -179.40(12) . . . . ?
C2 N2 C1 N1 -0.8(2) . . . . ?
C2 N2 C1 C3 178.71(13) . . . . ?
C1 N2 C2 N3 -179.85(13) . . . . ?
C1 N2 C2 S1 1.07(15) . . . . ?
C6 N3 C2 N2 177.76(13) . . . . ?
C6 N3 C2 S1 -3.3(2) . . . . ?
N1 S1 C2 N2 -0.93(11) . . . . ?
N1 S1 C2 N3 -179.92(14) . . . . ?
N1 C1 C3 C4 -2.0(3) . . . . ?
N2 C1 C3 C4 178.55(18) . . . . ?
N1 C1 C3 C4B -41.1(3) . . . . ?
N2 C1 C3 C4B 139.4(2) . . . . ?
C1 C3 C4 O1 160.4(2) . . . . ?
C1 C3 C4 C5 -79.6(3) . . . . ?
C1 C3 C4B O1B -156.0(2) . . . . ?
C1 C3 C4B C5B 88.7(3) . . . . ?
C2 N3 C6 C11 -3.3(3) . . . . ?
C2 N3 C6 C7 176.98(15) . . . . ?
C11 C6 C7 C8 -0.2(2) . . . . ?
N3 C6 C7 C8 179.57(15) . . . . ?
C6 C7 C8 C9 0.1(3) . . . . ?
C7 C8 C9 C10 -0.1(3) . . . . ?
C8 C9 C10 C11 0.1(3) . . . . ?
C7 C6 C11 C10 0.2(2) . . . . ?
N3 C6 C11 C10 -179.54(14) . . . . ?
C9 C10 C11 C6 -0.1(3) . . . . ?
O22 C21 C22 C22 175.54(19) . . . 2_566 ?
O21 C21 C22 C22 -4.3(3) . . . 2_566 ?
