#------------------------------------------------------------------------------
#$Date: 2021-02-05 01:27:14 +0200 (Fri, 05 Feb 2021) $
#$Revision: 261737 $
#$URL: file:///home/coder/svn-repositories/cod/cif/7/06/02/7060278.cif $
#------------------------------------------------------------------------------
#
# This file is available in the Crystallography Open Database (COD),
# http://www.crystallography.net/
#
# All data on this site have been placed in the public domain by the
# contributors.
#
data_7060278
loop_
_publ_author_name
'Gettings, Matthew L.'
'Byrd, Edward F. C.'
'Zeller, Matthias'
'Piercey, Davin'
_publ_section_title
;
 Methyl sydnone imine and its energetic salts
;
_journal_issue                   4
_journal_name_full               'New Journal of Chemistry'
_journal_page_first              2228
_journal_page_last               2236
_journal_paper_doi               10.1039/D0NJ05354F
_journal_volume                  45
_journal_year                    2021
_chemical_formula_moiety         'C3 N7 O4, C3 H6 N3 O'
_chemical_formula_sum            'C6 H6 N10 O5'
_chemical_formula_weight         298.21
_space_group_crystal_system      triclinic
_space_group_IT_number           2
_space_group_name_Hall           '-P 1'
_space_group_name_H-M_alt        'P -1'
_atom_sites_solution_hydrogens   mixed
_atom_sites_solution_primary     direct
_atom_sites_solution_secondary   difmap
_audit_creation_method           SHELXL-2018/3
_audit_update_record
;
2020-08-24 deposited with the CCDC.	2021-01-11 downloaded from the CCDC.
;
_cell_angle_alpha                71.6516(19)
_cell_angle_beta                 85.772(2)
_cell_angle_gamma                71.196(2)
_cell_formula_units_Z            2
_cell_length_a                   7.2060(4)
_cell_length_b                   9.3911(5)
_cell_length_c                   9.4448(5)
_cell_measurement_reflns_used    6327
_cell_measurement_temperature    150(2)
_cell_measurement_theta_max      33.1572
_cell_measurement_theta_min      2.7556
_cell_volume                     574.00(5)
_computing_cell_refinement       'SAINT V8.40A (Bruker, 2019)'
_computing_data_collection       'Apex3 v2019.1-0 (Bruker, 2019)'
_computing_data_reduction        'SAINT V8.40A (Bruker, 2019)'
_computing_structure_refinement
;  
SHELXL-2018/3 (Sheldrick, 2015, 2018), 
SHELXLE Rev1117 (H\"ubschle et al., 2011)
;
_computing_structure_solution    'SHELXS-97 (Sheldrick, 2008)'
_diffrn_ambient_temperature      150(2)
_diffrn_detector_area_resol_mean 7.4074
_diffrn_measured_fraction_theta_full 0.990
_diffrn_measured_fraction_theta_max 0.957
_diffrn_measurement_device_type
;
Bruker AXS D8 Quest diffractometer with PhotonII charge-integrating pixel 
array detector (CPAD)
;
_diffrn_measurement_method       'omega and phi scans'
_diffrn_radiation_monochromator  'Triumph curved graphite crystal'
_diffrn_radiation_type           MoK\a
_diffrn_radiation_wavelength     0.71073
_diffrn_reflns_av_R_equivalents  0.0529
_diffrn_reflns_av_unetI/netI     0.0414
_diffrn_reflns_Laue_measured_fraction_full 0.990
_diffrn_reflns_Laue_measured_fraction_max 0.957
_diffrn_reflns_limit_h_max       11
_diffrn_reflns_limit_h_min       -11
_diffrn_reflns_limit_k_max       13
_diffrn_reflns_limit_k_min       -14
_diffrn_reflns_limit_l_max       14
_diffrn_reflns_limit_l_min       -14
_diffrn_reflns_number            19787
_diffrn_reflns_point_group_measured_fraction_full 0.990
_diffrn_reflns_point_group_measured_fraction_max 0.957
_diffrn_reflns_theta_full        25.242
_diffrn_reflns_theta_max         33.191
_diffrn_reflns_theta_min         2.273
_diffrn_source                   'fine focus sealed tube X-ray source'
_diffrn_source_current           '30 mA'
_diffrn_source_voltage           '50 kV'
_exptl_absorpt_coefficient_mu    0.150
_exptl_absorpt_correction_T_max  0.7465
_exptl_absorpt_correction_T_min  0.6760
_exptl_absorpt_correction_type   multi-scan
_exptl_absorpt_process_details
;
 SADABS 2016/2: Krause, L., Herbst-Irmer, R., Sheldrick G.M. & Stalke D.,
 J. Appl. Cryst. 48 (2015) 3-10
;
_exptl_crystal_colour            colourless
_exptl_crystal_density_diffrn    1.725
_exptl_crystal_description       block
_exptl_crystal_F_000             304
_exptl_crystal_size_max          0.240
_exptl_crystal_size_mid          0.200
_exptl_crystal_size_min          0.130
_refine_diff_density_max         0.409
_refine_diff_density_min         -0.257
_refine_diff_density_rms         0.051
_refine_ls_extinction_coef       0.024(5)
_refine_ls_extinction_expression Fc^*^=kFc[1+0.001xFc^2^\l^3^/sin(2\q)]^-1/4^
_refine_ls_extinction_method     'SHELXL-2018/3 (Sheldrick 2018)'
_refine_ls_goodness_of_fit_ref   1.023
_refine_ls_hydrogen_treatment    mixed
_refine_ls_matrix_type           full
_refine_ls_number_parameters     243
_refine_ls_number_reflns         4208
_refine_ls_number_restraints     37
_refine_ls_restrained_S_all      1.020
_refine_ls_R_factor_all          0.0754
_refine_ls_R_factor_gt           0.0425
_refine_ls_shift/su_max          0.000
_refine_ls_shift/su_mean         0.000
_refine_ls_structure_factor_coef Fsqd
_refine_ls_weighting_details
'w=1/[\s^2^(Fo^2^)+(0.0451P)^2^+0.1194P] where P=(Fo^2^+2Fc^2^)/3'
_refine_ls_weighting_scheme      calc
_refine_ls_wR_factor_gt          0.0921
_refine_ls_wR_factor_ref         0.1065
_reflns_Friedel_coverage         0.000
_reflns_number_gt                2910
_reflns_number_total             4208
_reflns_threshold_expression     'I > 2\s(I)'
_cod_data_source_file            d0nj05354f2.cif
_cod_data_source_block           G117_MSI_DNTT_0m
_cod_depositor_comments
'Adding full bibliography for 7060272--7060278.cif.'
_cod_original_cell_volume        574.01(5)
_cod_database_code               7060278
_shelx_shelxl_version_number     2018/3
_shelx_space_group_comment
;
The symmetry employed for this shelxl refinement is uniquely defined
by the following loop, which should always be used as a source of
symmetry information in preference to the above space-group names.
They are only intended as comments.
;
_shelx_estimated_absorpt_t_min   0.965
_shelx_estimated_absorpt_t_max   0.981
_shelx_res_file
;
TITL G117_MSI_DNTT_0m in P-1
    G117_MSI_DNTT_0m.res
    created by SHELXL-2018/3 at 11:46:46 on 01-Aug-2020
CELL 0.71073   7.2060    9.3911    9.4448   71.6516   85.7719   71.1964
ZERR    2.00   0.0004    0.0005    0.0005    0.0019    0.0020    0.0020
LATT  1
SFAC C H N O
UNIT 12 12 20 10
LIST 6 ! automatically inserted. Change 6 to 4 for CHECKCIF!!
TEMP -123.190
SIZE 0.24 0.20 0.13

L.S. 4
BOND $H
ACTA
CONF
HTAB
EQIV $1 x, y-1, z
HTAB C2 N6_$1
HTAB C2 N7B_$1
HTAB C2 N8B_$1
EQIV $2 -x+1, -y+1, -z+1
HTAB C3 O4_$2
EQIV $3 x+1, y, z
HTAB C3 O2B_$3
HTAB C3 O3B_$3
HTAB C3 N9B_$3
EQIV $4 -x, -y+1, -z+2
HTAB N1 O5_$4
HTAB N1 N8_$4
HTAB N1 O3B_$4
HTAB N1 N6B_$4
HTAB N1 N7_$1
HTAB N1 N7B_$1

FMAP 2
PLAN 20

EADP C4 C4B
EADP C5 C5B
EADP C6 C6B
EADP N4 N4B
EADP N5 N5B
EADP N6 N6B
EADP N7 N7B
EADP N8 N8B
EADP N9 N9B
EADP N10 N10B
EADP O4 O4B
EADP O5 O5B
EADP O2 O2B
EADP O3 O3B

WGHT    0.045100    0.119400
EXTI    0.024051
FVAR       1.19304   0.94674
C1    1    0.397169    0.234907    0.902030    11.00000    0.02917    0.02103 =
         0.02098   -0.00830   -0.00017   -0.00582
C2    1    0.539669    0.209471    0.798381    11.00000    0.02700    0.02457 =
         0.02174   -0.00973    0.00085   -0.00692
AFIX  43
H2    2    0.563608    0.136476    0.743511    11.00000   -1.20000
AFIX   0
C3    1    0.802358    0.333341    0.698253    11.00000    0.03326    0.04142 =
         0.04065   -0.01536    0.01148   -0.01578
AFIX 137
H3A   2    0.754580    0.391215    0.594983    11.00000   -1.50000
H3B   2    0.896565    0.229858    0.702665    11.00000   -1.50000
H3C   2    0.866637    0.393606    0.733924    11.00000   -1.50000
AFIX   0
N1    3    0.258464    0.173165    0.956767    11.00000    0.03722    0.03242 =
         0.03152   -0.01756    0.01132   -0.01462
H1A   2    0.180542    0.202499    1.022177    11.00000    0.04006
H1B   2    0.238976    0.098323    0.925062    11.00000    0.04350
N2    3    0.573930    0.398056    0.880940    11.00000    0.03277    0.02608 =
         0.02750   -0.01010    0.00161   -0.00998
N3    3    0.636402    0.311371    0.792974    11.00000    0.02767    0.02482 =
         0.02302   -0.00803   -0.00062   -0.00608
O1    4    0.419064    0.349121    0.951793    11.00000    0.03343    0.02357 =
         0.02433   -0.01099    0.00277   -0.00889
PART 1 21
C4    1    0.578514    0.810211    0.611332    21.00000    0.02111    0.02074 =
         0.02097   -0.00544   -0.00056   -0.00467
C5    1    0.364787    0.877729    0.753578    21.00000    0.02577    0.02008 =
         0.02062   -0.00753   -0.00131   -0.00598
C6    1    0.169077    0.740953    0.777902    21.00000    0.02157    0.02244 =
         0.02047   -0.00700    0.00084   -0.00662
O2    4    0.788833    0.711311    0.445458    21.00000    0.03111    0.04282 =
         0.04119   -0.02352    0.01150   -0.01209
O3    4    0.848722    0.887170    0.524075    21.00000    0.02607    0.03294 =
         0.03420   -0.00295   -0.00154   -0.01502
O4    4    0.159909    0.548928    0.685225    21.00000    0.03203    0.02819 =
         0.03099   -0.01502    0.00284   -0.00856
O5    4   -0.065864    0.620397    0.839314    21.00000    0.02597    0.03452 =
         0.03326   -0.01116    0.00598   -0.01408
N4    3    0.333546    0.763575    0.707523    21.00000    0.02088    0.01942 =
         0.01988   -0.00745    0.00022   -0.00529
N5    3    0.473524    0.716425    0.611301    21.00000    0.02080    0.02297 =
         0.02165   -0.00904    0.00263   -0.00546
N6    3    0.526337    0.910408    0.692382    21.00000    0.02437    0.02278 =
         0.02353   -0.00789   -0.00044   -0.00790
N7    3    0.225371    0.924635    0.847340    21.00000    0.02981    0.02572 =
         0.02515   -0.01241    0.00280   -0.00789
N8    3    0.103281    0.835871    0.860695    21.00000    0.02684    0.02616 =
         0.02411   -0.01041    0.00288   -0.00737
N9    3    0.751367    0.801845    0.520345    21.00000    0.02126    0.02644 =
         0.02462   -0.00475   -0.00072   -0.00621
N10   3    0.082318    0.629765    0.767136    21.00000    0.02243    0.02359 =
         0.02250   -0.00633   -0.00007   -0.00604
PART 2 -21
SAME C4 > N10
C4B   1    0.164149    0.686990    0.745991   -21.00000    0.02111    0.02074 =
         0.02097   -0.00544   -0.00056   -0.00467
C5B   1    0.276590    0.847926    0.784964   -21.00000    0.02577    0.02008 =
         0.02062   -0.00753   -0.00131   -0.00598
C6B   1    0.539036    0.843775    0.658676   -21.00000    0.02157    0.02244 =
         0.02047   -0.00700    0.00084   -0.00662
O2B   4    0.086764    0.493968    0.678537   -21.00000    0.03111    0.04282 =
         0.04119   -0.02352    0.01150   -0.01209
O3B   4   -0.100618    0.598428    0.829308   -21.00000    0.02607    0.03294 =
         0.03420   -0.00295   -0.00154   -0.01502
O4B   4    0.692469    0.702921    0.504043   -21.00000    0.03203    0.02819 =
         0.03099   -0.01502    0.00284   -0.00856
O5B   4    0.813687    0.871840    0.537249   -21.00000    0.02597    0.03452 =
         0.03326   -0.01116    0.00598   -0.01408
N4B   3    0.392109    0.775013    0.690731   -21.00000    0.02088    0.01942 =
         0.01988   -0.00745    0.00022   -0.00529
N5B   3    0.323718    0.668242    0.659853   -21.00000    0.02080    0.02297 =
         0.02165   -0.00904    0.00263   -0.00546
N6B   3    0.129533    0.787273    0.824964   -21.00000    0.02437    0.02278 =
         0.02353   -0.00789   -0.00044   -0.00790
N7B   3    0.353242    0.950031    0.809832   -21.00000    0.02981    0.02572 =
         0.02515   -0.01241    0.00280   -0.00789
N8B   3    0.517765    0.949410    0.725739   -21.00000    0.02684    0.02616 =
         0.02411   -0.01041    0.00288   -0.00737
N9B   3    0.046435    0.585763    0.752557   -21.00000    0.02126    0.02644 =
         0.02462   -0.00475   -0.00072   -0.00621
N10B  3    0.689783    0.801630    0.565813   -21.00000    0.02243    0.02359 =
         0.02250   -0.00633   -0.00007   -0.00604
PART 0
HKLF 4




REM  G117_MSI_DNTT_0m in P-1
REM wR2 = 0.1065, GooF = S = 1.023, Restrained GooF = 1.020 for all data
REM R1 = 0.0425 for 2910 Fo > 4sig(Fo) and 0.0754 for all 4208 data
REM 243 parameters refined using 37 restraints

END

WGHT      0.0451      0.1194

REM Instructions for potential hydrogen bonds
HTAB C2 N6_$1
HTAB C2 N7B_$1
HTAB C2 N8B_$1
HTAB C3 O4_$2
HTAB C3 O2B_$3
HTAB C3 O3B_$3
HTAB C3 N9B_$3
HTAB N1 O5_$4
HTAB N1 N8_$4
HTAB N1 O3B_$4
HTAB N1 N6B_$4
HTAB N1 N7_$1
HTAB N1 N7B_$1

REM Highest difference peak  0.409,  deepest hole -0.257,  1-sigma level  0.051
Q1    1   0.4663  0.2228  0.8473  11.00000  0.05    0.41
Q2    1   0.3468  0.8177  0.7365  11.00000  0.05    0.34
Q3    1   0.4206  0.2833  0.9249  11.00000  0.05    0.26
Q4    1   0.2430  0.7518  0.7145  11.00000  0.05    0.26
Q5    1   0.5974  0.2417  0.8052  11.00000  0.05    0.24
Q6    1   0.3349  0.2058  0.9454  11.00000  0.05    0.22
Q7    1   0.7884  0.9310  0.5778  11.00000  0.05    0.21
Q8    1   0.5202  0.7785  0.6022  11.00000  0.05    0.21
Q9    1   0.9016  0.9590  0.4202  11.00000  0.05    0.20
Q10   1   0.9686  0.9064  0.4804  11.00000  0.05    0.20
Q11   1   0.4359  0.9226  0.7111  11.00000  0.05    0.20
Q12   1   0.8017  0.2738  0.6358  11.00000  0.05    0.20
Q13   1   0.9716  0.6445  0.4437  11.00000  0.05    0.19
Q14   1   0.5062  0.9215  0.5823  11.00000  0.05    0.18
Q15   1   0.1240  0.6975  0.7790  11.00000  0.05    0.18
Q16   1   0.1585  1.0077  0.8818  11.00000  0.05    0.18
Q17   1   0.7417  0.9399  0.6815  11.00000  0.05    0.17
Q18   1   1.0051  0.8636  0.4130  11.00000  0.05    0.17
Q19   1   0.8605  1.0251  0.5631  11.00000  0.05    0.17
Q20   1   0.6087  0.3397  0.8375  11.00000  0.05    0.17
;
_shelx_res_checksum              12345
_shelx_hkl_file
;
  -1   0   0 1497.67 28.8264   2
  -1   0   0 1533.57 28.6759   3
  -1   0   0 1544.14 36.9669   1
  -1   0   0 1389.57 28.8214   2
   1   0   0 1528.41 28.8580   2
   1   0   0 1606.86 37.1411   1
  -2   0   0 81.0719 4.11560   2
  -2   0   0 88.6426 4.22860   3
  -2   0   0 84.7053 4.14856   2
  -2   0   0 85.3550 8.99203   1
   2   0   0 92.1789 4.28843   2
   2   0   0 92.6387 4.27020   2
   2   0   0 82.9529 4.40820   3
   2   0   0 92.0379 9.24570   1
  -3   0   0 1956.66 60.3403   1
  -3   0   0 1908.34 39.4053   2
  -3   0   0 1919.34 38.7879   3
  -3   0   0 1912.86 39.2358   2
   3   0   0 1911.32 39.2246   2
   3   0   0 1889.08 39.2589   2
   3   0   0 2026.30 60.5541   1
   3   0   0 1897.89 38.8832   3
  -4   0   0 160.830 7.63395   2
  -4   0   0 180.543 7.87524   2
  -4   0   0 176.242 7.49374   3
  -4   0   0 161.416 18.7093   1
   4   0   0 185.740 8.26839   3
   4   0   0 135.785 17.3632   1
   4   0   0 168.938 7.77007   2
   4   0   0 172.557 7.75645   2
  -5   0   0 114.673 8.40642   2
  -5   0   0 116.405 16.1530   1
  -5   0   0 118.268 7.12844   3
  -5   0   0 115.332 7.23035   2
   5   0   0 137.774 17.7956   1
   5   0   0 127.447 8.23260   3
   5   0   0 117.932 7.32064   2
   5   0   0 112.904 7.25027   2
  -6   0   0 69.5255 6.35870   3
  -6   0   0 49.5632 12.7537   1
  -6   0   0 70.9249 6.75776   2
  -6   0   0 75.5793 7.18672   2
   6   0   0 67.4866 6.83186   2
   6   0   0 65.4937 15.4327   1
   6   0   0 73.2523 7.63613   3
   6   0   0 77.8458 7.00464   2
  -7   0   0 38.0153 6.15976   2
  -7   0   0 34.2035 6.18199   2
  -7   0   0 23.5045 11.1722   1
  -7   0   0 33.0239 5.10733   3
   7   0   0 33.2366 5.68236   2
   7   0   0 42.2209 6.51364   2
   7   0   0 12.4620 9.73076   1
   7   0   0 26.1791 6.15610   3
  -8   0   0 5.22771 5.02329   2
  -8   0   0 7.32928 12.9474   1
  -8   0   0 -0.4355 3.69645   2
   8   0   0 2.60124 4.61180   3
   8   0   0 0.12744 3.66777   2
   8   0   0 1.01785 11.9534   1
  -9   0   0 8.29578 5.12172   2
  -9   0   0 -1.2466 3.80625   2
   9   0   0 7.72184 5.14769   3
   9   0   0 -2.3141 4.10677   2
 -10   0   0 10.5100 5.28544   2
  10   0   0 10.3469 5.48668   2
  10   0   0 21.0501 6.66456   3
  10  -1   0 7.85979 5.30703   2
  10  -1   0 0.40003 5.16080   3
 -10   1   0 -6.5228 4.46512   2
   9  -1   0 1.13284 4.44323   3
   9  -1   0 2.80795 5.21317   2
  -9   1   0 -2.7489 4.88858   2
  -9   1   0 3.41696 4.80384   2
   8  -1   0 339.152 15.9711   3
   8  -1   0 365.988 19.5247   2
   8  -1   0 331.153 16.3695   2
   8  -1   0 276.847 36.0850   1
  -8   1   0 326.678 15.9346   2
  -8   1   0 325.998 16.2911   2
  -8   1   0 362.401 39.4435   1
   7  -1   0 62.7121 16.7005   1
   7  -1   0 110.856 8.95355   2
   7  -1   0 101.094 9.20425   2
   7  -1   0 94.9313 8.95295   3
  -7   1   0 110.887 10.9762   2
  -7   1   0 109.684 9.69467   2
  -7   1   0 122.525 8.70872   3
  -7   1   0 71.1513 17.5546   1
   6  -1   0 31.5295 5.69509   2
   6  -1   0 30.9085 5.55949   2
   6  -1   0 37.1234 5.86885   3
   6  -1   0 27.1277 10.1354   1
  -6   1   0 27.6639 11.0682   1
  -6   1   0 40.7456 5.68164   3
  -6   1   0 39.3230 5.87405   2
  -6   1   0 31.0754 5.64553   2
   5  -1   0 181.326 9.34858   3
   5  -1   0 197.034 22.2155   1
   5  -1   0 204.753 9.79169   2
   5  -1   0 211.411 10.0035   2
  -5   1   0 185.331 8.95949   3
  -5   1   0 199.097 9.66943   2
  -5   1   0 214.580 22.6309   1
  -5   1   0 196.981 9.78966   2
   4  -1   0 12.7300 3.29067   2
   4  -1   0 18.1448 7.66386   1
   4  -1   0 12.5885 3.21954   2
  -4   1   0 16.2065 3.47795   2
  -4   1   0 15.0828 3.91684   3
  -4   1   0 16.6693 7.11115   1
  -4   1   0 8.82836 3.04397   2
   3  -1   0 484.542 27.2789   1
   3  -1   0 453.032 13.1120   2
   3  -1   0 464.869 13.1970   2
   3  -1   0 456.485 12.7315   3
  -3   1   0 465.927 13.1945   2
  -3   1   0 465.907 13.2048   2
  -3   1   0 470.054 12.7048   3
  -3   1   0 495.636 27.9883   1
   2  -1   0 308.333 9.02772   2
   2  -1   0 332.831 19.0966   1
   2  -1   0 307.153 8.57116   3
   2  -1   0 321.187 9.18412   2
  -2   1   0 310.367 9.02262   2
  -2   1   0 312.169 9.06328   2
  -2   1   0 314.042 8.70935   3
  -2   1   0 317.356 23.0237   1
   1  -1   0 672.570 13.7614   3
   1  -1   0 623.444 13.8984   2
   1  -1   0 657.896 22.8898   1
   1  -1   0 651.011 14.0093   2
  -1   1   0 622.599 13.9178   2
  -1   1   0 709.329 23.6600   1
  -1   1   0 643.337 13.9607   2
  -1   1   0 661.526 13.7024   3
   0  -1   0 3.66253 1.16698   1
   0  -1   0 2.26112 0.70540   3
   0   1   0 4.80466 1.58833   1
  -1  -1   0 192.460 4.49008   2
   1   1   0 182.230 8.02042   1
   1   1   0 187.559 4.50810   2
  -2  -1   0 317.675 8.26072   2
  -2  -1   0 326.668 8.51834   3
   2   1   0 328.763 8.31312   2
   2   1   0 344.297 16.3861   1
   2   1   0 328.482 8.60705   3
   2   1   0 328.345 8.43523   2
  -3  -1   0 330.260 9.51083   3
  -3  -1   0 325.695 19.7049   1
  -3  -1   0 315.225 9.42724   2
  -3  -1   0 317.065 9.43076   2
   3   1   0 320.505 9.45124   2
   3   1   0 321.866 9.45360   2
   3   1   0 328.798 19.7126   1
   3   1   0 325.825 9.77007   3
  -4  -1   0 611.791 31.9549   1
  -4  -1   0 583.483 15.4273   3
  -4  -1   0 593.686 15.6684   2
  -4  -1   0 563.606 15.5222   2
   4   1   0 582.965 15.6317   2
   4   1   0 577.285 15.5038   2
   4   1   0 588.483 15.9359   3
   4   1   0 583.421 31.2198   1
  -5  -1   0 684.744 19.1474   2
  -5  -1   0 747.401 39.6796   1
  -5  -1   0 685.349 18.5965   3
  -5  -1   0 675.083 20.8653   2
   5   1   0 697.664 26.2790   2
   5   1   0 700.181 19.1001   2
   5   1   0 690.642 43.0971   1
   5   1   0 722.828 19.6257   3
  -6  -1   0 -4.6700 2.38029   3
  -6  -1   0 0.48154 2.88767   2
  -6  -1   0 -1.0444 3.49452   2
  -6  -1   0 5.16365 5.39450   1
   6   1   0 -0.1706 6.39520   1
   6   1   0 -0.5110 3.01613   2
   6   1   0 -2.9864 4.32719   3
   6   1   0 -2.2258 2.84259   2
  -7  -1   0 127.642 8.88440   2
  -7  -1   0 99.6501 19.4415   1
  -7  -1   0 144.323 10.7380   3
  -7  -1   0 147.871 9.62476   2
   7   1   0 139.553 9.71289   2
   7   1   0 137.565 9.35283   2
   7   1   0 108.913 21.4863   1
   7   1   0 125.686 9.87306   3
  -8  -1   0 8.21538 4.65609   2
  -8  -1   0 4.56031 3.96635   2
   8   1   0 6.43483 5.37077   3
   8   1   0 -13.908 9.58506   1
   8   1   0 10.2432 4.43947   2
   8   1   0 2.99414 4.05125   2
  -9  -1   0 26.7061 17.7198   1
  -9  -1   0 34.0412 5.96383   2
  -9  -1   0 16.4674 5.73109   2
   9   1   0 18.4633 22.9289   1
   9   1   0 24.8546 6.73111   3
   9   1   0 23.2801 5.98795   2
 -10  -1   0 12.9925 5.69503   2
  10   1   0 23.9200 6.76880   2
  10   1   0 35.5588 7.93123   3
   9  -2   0 -2.7982 3.78137   2
   9  -2   0 9.40867 5.16818   3
  -9   2   0 -6.0297 5.73418   2
  -9   2   0 1.64117 5.75282   2
   8  -2   0 41.7837 19.6817   1
   8  -2   0 15.6129 5.62323   3
   8  -2   0 4.66853 5.78724   2
  -8   2   0 15.6753 5.28275   2
  -8   2   0 -11.616 17.7292   1
  -8   2   0 9.20644 5.95042   2
   7  -2   0 28.4629 6.04176   2
   7  -2   0 8.02142 13.9645   1
   7  -2   0 20.6400 5.98482   2
   7  -2   0 37.7818 6.47808   3
  -7   2   0 26.6431 15.2876   1
  -7   2   0 30.0268 5.82859   2
  -7   2   0 35.4198 6.46746   2
   6  -2   0 5.57989 4.85425   2
   6  -2   0 23.6199 11.3547   1
   6  -2   0 20.9029 4.99099   3
   6  -2   0 15.2061 4.71025   2
  -6   2   0 19.2265 5.23368   2
  -6   2   0 14.1162 11.9970   1
  -6   2   0 10.5115 4.20245   3
  -6   2   0 15.6285 8.50977   2
   5  -2   0 19.8338 8.56582   1
   5  -2   0 22.2042 4.64341   3
   5  -2   0 39.9686 5.71811   2
   5  -2   0 26.3892 5.03326   2
  -5   2   0 34.3583 5.35133   2
  -5   2   0 25.4680 9.03306   1
  -5   2   0 31.9979 4.89458   3
  -5   2   0 36.4592 5.49121   2
   4  -2   0 199.593 9.03823   2
   4  -2   0 187.114 8.88435   2
   4  -2   0 172.875 9.70132   3
   4  -2   0 172.426 18.9108   1
  -4   2   0 195.395 8.96079   2
  -4   2   0 185.502 8.92801   2
  -4   2   0 183.850 8.61930   3
  -4   2   0 187.090 19.9193   1
   3  -2   0 53.2693 4.76414   2
   3  -2   0 50.2419 4.73120   2
   3  -2   0 49.9851 4.44856   3
   3  -2   0 58.9899 10.3325   1
  -3   2   0 57.0427 4.90776   2
  -3   2   0 52.7622 4.43008   2
  -3   2   0 53.0361 5.30579   3
  -3   2   0 43.2780 9.29196   1
   2  -2   0 184.712 7.07519   2
   2  -2   0 193.168 7.21569   2
   2  -2   0 178.906 6.60351   3
   2  -2   0 195.362 15.8354   1
  -2   2   0 182.473 7.07991   2
  -2   2   0 188.328 6.91991   3
  -2   2   0 201.871 16.1039   1
  -2   2   0 187.506 7.07260   2
   1  -2   0 3571.06 83.3501   1
  -1   2   0 3557.14 67.3098   3
  -1   2   0 3629.64 83.7126   1
   0   2   0 7043.70 146.098   1
  -1  -2   0 58.5316 2.29520   2
  -1  -2   0 59.6863 2.31890   2
  -1  -2   0 64.9792 4.73643   1
   1   2   0 63.6162 4.88188   1
   1   2   0 61.0000 2.34327   2
   1   2   0 58.6395 2.39504   2
   1   2   0 63.9237 3.27122   3
  -2  -2   0 14.4934 1.83093   2
  -2  -2   0 10.0818 3.28835   1
  -2  -2   0 10.8102 1.80020   2
   2   2   0 14.2406 1.86800   2
   2   2   0 13.0356 1.87502   2
   2   2   0 13.5608 3.67392   1
  -3  -2   0 23.3717 2.90062   2
   3   2   0 28.0514 3.36068   2
   3   2   0 28.3549 3.74142   2
   3   2   0 28.4587 6.37594   1
   3   2   0 26.8802 3.50381   3
  -4  -2   0 413.045 12.2091   2
   4   2   0 419.590 12.8545   3
   4   2   0 425.684 12.1780   2
   4   2   0 434.169 25.2216   1
   4   2   0 439.048 12.2841   2
  -5  -2   0 5.15991 5.42460   1
  -5  -2   0 7.96577 2.88057   2
  -5  -2   0 5.08044 3.44561   2
   5   2   0 9.97052 3.94987   3
   5   2   0 4.23955 2.61523   2
   5   2   0 -2.0768 4.02802   1
   5   2   0 4.49225 2.59250   2
  -6  -2   0 192.174 19.6812   1
  -6  -2   0 186.926 9.23854   2
  -6  -2   0 184.958 9.34483   2
   6   2   0 165.832 8.83244   2
   6   2   0 187.873 9.51509   2
   6   2   0 163.805 10.2537   3
   6   2   0 171.688 20.7664   1
  -7  -2   0 -1.1955 3.49229   2
  -7  -2   0 7.47274 6.02770   1
  -7  -2   0 3.26880 3.72019   2
   7   2   0 4.74215 3.76570   2
   7   2   0 -0.8030 5.04019   3
   7   2   0 -1.2326 3.03699   2
  -8  -2   0 19.3291 5.19081   2
  -8  -2   0 29.4464 5.25576   2
  -8  -2   0 39.2103 12.7985   1
   8   2   0 21.1614 5.66979   2
   8   2   0 27.3031 5.56130   2
   8   2   0 3.27619 10.6763   1
   8   2   0 20.7817 6.48240   3
  -9  -2   0 35.8777 6.12930   2
  -9  -2   0 28.2617 9.38076   2
   9   2   0 29.3241 6.34042   2
   9   2   0 14.3270 18.4735   1
   9   2   0 31.0602 7.64288   3
 -10  -2   0 19.3560 5.83683   2
 -10  -2   0 2.90653 4.66156   2
  10   2   0 10.9017 6.38798   3
  10   2   0 0.02773 5.19407   2
   9  -3   0 14.8023 9.28674   2
   9  -3   0 7.86212 5.73515   3
   8  -3   0 55.3783 26.2718   1
   8  -3   0 70.5948 9.00066   3
   8  -3   0 72.9038 9.00444   2
  -8   3   0 52.0401 7.85243   2
  -8   3   0 34.4478 26.8016   1
  -8   3   0 50.4972 8.23795   2
   7  -3   0 28.2859 5.71815   2
   7  -3   0 7.45965 14.5337   1
   7  -3   0 34.7253 6.66482   2
   7  -3   0 33.4655 6.29323   3
  -7   3   0 15.5746 14.8001   1
  -7   3   0 36.9789 7.01132   2
  -7   3   0 25.7260 5.73960   2
   6  -3   0 107.954 21.3584   1
   6  -3   0 83.0109 8.25363   2
   6  -3   0 81.2666 9.45883   2
   6  -3   0 86.4425 7.96545   3
  -6   3   0 80.7024 7.90915   3
  -6   3   0 88.1922 10.1297   2
  -6   3   0 76.0134 18.3175   1
  -6   3   0 88.0755 8.07944   2
   5  -3   0 -0.6180 3.10821   3
   5  -3   0 1.10906 3.51208   2
   5  -3   0 2.98099 3.42572   2
  -5   3   0 6.52616 7.86109   1
  -5   3   0 0.72279 3.52935   2
  -5   3   0 0.52901 3.08574   2
  -5   3   0 -4.9091 3.22018   3
   4  -3   0 31.1544 9.20992   1
   4  -3   0 31.8933 4.83752   2
   4  -3   0 24.1822 4.26133   3
  -4   3   0 29.9711 4.83408   3
  -4   3   0 32.0886 10.5885   1
  -4   3   0 31.8305 4.94226   2
  -4   3   0 29.6647 4.77786   2
   3  -3   0 226.038 9.24906   2
   3  -3   0 222.795 20.1383   1
   3  -3   0 219.490 9.11724   2
  -3   3   0 225.127 10.0461   3
  -3   3   0 209.672 20.4395   1
  -3   3   0 220.241 9.12535   2
  -3   3   0 234.855 9.36253   2
   2  -3   0 215.247 8.09687   2
   2  -3   0 212.414 7.83769   3
   2  -3   0 216.290 17.9872   1
   2  -3   0 200.109 7.91217   2
  -2   3   0 218.866 7.87641   3
  -2   3   0 210.146 7.98365   2
  -2   3   0 210.127 8.08091   2
  -2   3   0 203.202 17.7707   1
   1  -3   0 264.832 8.21384   3
   1  -3   0 269.033 8.13521   2
   1  -3   0 262.610 17.0987   1
  -1   3   0 267.173 8.12184   3
  -1   3   0 266.675 8.11557   2
  -1   3   0 258.958 8.09175   2
  -1   3   0 255.339 16.8517   1
   0  -3   0 16.7245 2.10060   2
   0  -3   0 13.5795 1.95183   2
   0  -3   0 18.2085 2.47139   3
   0   3   0 12.0130 3.35298   1
   0   3   0 16.7927 2.12110   2
   0   3   0 16.2822 2.10444   2
   0   3   0 11.8451 2.15773   3
  -1  -3   0 184.010 9.72365   1
  -1  -3   0 176.438 4.77931   2
  -1  -3   0 173.220 4.77187   2
  -1  -3   0 172.757 6.03690   3
   1   3   0 182.731 4.90993   2
   1   3   0 163.499 4.76810   2
   1   3   0 166.570 9.22087   1
   1   3   0 172.316 6.04490   3
  -2  -3   0 194.919 5.50376   2
  -2  -3   0 190.497 5.48077   2
  -2  -3   0 202.481 11.0042   1
   2   3   0 198.003 5.59171   2
   2   3   0 192.050 6.84676   3
   2   3   0 204.074 5.63763   2
   2   3   0 209.674 11.2996   1
  -3  -3   0 202.115 6.48477   2
  -3  -3   0 207.536 14.1374   1
  -3  -3   0 194.834 6.46800   2
   3   3   0 190.210 6.45876   2
   3   3   0 193.570 6.48444   2
   3   3   0 201.248 13.7360   1
  -4  -3   0 97.0194 5.27323   2
  -4  -3   0 100.786 11.2615   1
  -4  -3   0 101.498 5.30037   2
   4   3   0 94.8140 11.1558   1
   4   3   0 91.4289 6.36067   3
   4   3   0 100.189 5.42945   2
   4   3   0 99.8855 5.41150   2
  -5  -3   0 282.632 10.3235   2
   5   3   0 283.865 11.1639   3
   5   3   0 297.210 10.2988   2
   5   3   0 297.355 22.5563   1
   5   3   0 264.117 13.6118   2
  -6  -3   0 158.169 8.43149   2
   6   3   0 165.880 10.0612   3
   6   3   0 188.397 19.4461   1
   6   3   0 155.143 8.55600   2
   6   3   0 162.048 8.39803   2
  -7  -3   0 719.388 25.3826   2
  -7  -3   0 813.103 23.2069   2
  -7  -3   0 794.919 47.1447   1
   7   3   0 826.000 23.1109   2
   7   3   0 720.566 45.7600   1
   7   3   0 827.111 23.2762   2
   7   3   0 811.650 24.0669   3
  -8  -3   0 37.6042 5.64914   2
  -8  -3   0 25.3728 5.48981   2
  -8  -3   0 19.4521 9.85211   1
   8   3   0 18.8019 10.2420   1
   8   3   0 24.5438 5.14274   2
   8   3   0 24.1434 6.89496   3
  -9  -3   0 41.8569 6.50770   2
  -9  -3   0 55.7389 15.5154   1
  -9  -3   0 42.1110 11.0835   2
   9   3   0 45.2908 8.25300   3
   9   3   0 46.0171 22.2175   1
   9   3   0 36.5936 6.36273   2
 -10  -3   0 96.8308 9.69496   2
 -10  -3   0 107.273 9.05465   2
  10   3   0 88.6629 9.82812   2
  10   3   0 113.090 11.7416   3
  11   3   0 18.8722 8.16739   3
   9  -4   0 -5.0796 5.12979   3
   9  -4   0 5.52276 5.48621   2
  -9   4   0 -5.8900 6.22876   2
   8  -4   0 -5.2735 4.01346   3
   8  -4   0 -3.2313 4.67948   2
  -8   4   0 -2.5149 4.07192   2
   7  -4   0 44.4207 7.16866   2
   7  -4   0 29.8082 19.4167   1
   7  -4   0 40.6637 6.86493   2
  -7   4   0 46.5809 7.83679   2
  -7   4   0 70.3650 22.9796   1
  -7   4   0 37.0798 6.61291   2
   6  -4   0 -10.707 10.9077   1
   6  -4   0 -0.4055 3.83278   3
   6  -4   0 4.02577 4.32678   2
  -6   4   0 9.26003 4.74668   2
  -6   4   0 -11.947 10.9710   1
  -6   4   0 1.11935 3.50092   2
   5  -4   0 3.51579 3.46046   2
   5  -4   0 -5.8822 3.16836   3
   5  -4   0 -5.2239 6.52981   1
   5  -4   0 4.93835 3.99524   2
  -5   4   0 -0.3880 3.21954   2
  -5   4   0 8.66974 9.56560   1
  -5   4   0 3.35237 3.86481   3
  -5   4   0 6.45629 4.02283   2
   4  -4   0 6.74021 3.61641   2
   4  -4   0 2.73609 3.04906   2
   4  -4   0 -1.9689 2.86762   3
   4  -4   0 -3.7627 5.16425   1
  -4   4   0 1.61767 3.51079   3
  -4   4   0 3.53014 3.52311   2
  -4   4   0 0.36133 3.21516   2
  -4   4   0 -3.4709 7.41500   1
   3  -4   0 210.235 9.08559   3
   3  -4   0 214.905 22.1783   1
   3  -4   0 205.623 11.1149   2
   3  -4   0 209.166 9.35999   2
  -3   4   0 226.234 22.5540   1
  -3   4   0 209.574 9.02151   3
  -3   4   0 211.974 9.53565   2
  -3   4   0 209.740 9.37871   2
   2  -4   0 0.62361 2.10858   2
   2  -4   0 4.28289 3.27270   2
   2  -4   0 1.34522 3.07185   1
   2  -4   0 2.09418 2.42989   3
  -2   4   0 3.21647 2.36723   2
  -2   4   0 3.14116 2.26371   3
  -2   4   0 -2.0689 2.03553   2
  -2   4   0 -1.5033 3.78612   1
   1  -4   0 476.643 25.3351   1
   1  -4   0 449.361 12.3273   2
   1  -4   0 443.041 12.5345   3
  -1   4   0 455.008 25.1448   1
  -1   4   0 445.199 12.3138   2
  -1   4   0 476.754 13.0154   2
  -1   4   0 462.717 12.6164   3
   0  -4   0 772.635 17.3014   2
   0  -4   0 749.967 18.1022   3
   0  -4   0 780.023 17.3246   2
   0   4   0 793.994 30.2225   1
   0   4   0 791.370 17.4327   2
   0   4   0 786.257 17.3649   2
   0   4   0 801.317 18.2924   3
   0   4   0 799.370 30.0327   1
  -1  -4   0 13.6596 1.95155   2
  -1  -4   0 18.1918 2.95229   3
  -1  -4   0 20.4077 2.42988   2
   1   4   0 16.8897 2.11471   2
   1   4   0 19.0605 4.11738   1
   1   4   0 15.0668 2.78519   3
  -2  -4   0 1114.48 22.7365   2
  -2  -4   0 1187.76 33.5104   1
  -2  -4   0 1141.11 22.7636   2
   2   4   0 1159.81 43.2977   1
   2   4   0 1115.09 22.8219   2
   2   4   0 1156.86 22.9082   2
   2   4   0 1129.85 24.9727   3
  -3  -4   0 489.308 11.9184   2
  -3  -4   0 501.925 11.9210   2
  -3  -4   0 513.428 22.0991   1
   3   4   0 503.957 13.9259   3
   3   4   0 517.141 12.1666   2
   3   4   0 510.936 12.0658   2
   3   4   0 481.925 25.5722   1
  -4  -4   0 300.019 9.38762   2
  -4  -4   0 331.194 21.9708   1
  -4  -4   0 321.709 9.56644   2
   4   4   0 337.713 20.4476   1
   4   4   0 314.781 9.59653   2
   4   4   0 305.790 9.42611   2
  -5  -4   0 155.345 7.20095   2
  -5  -4   0 148.973 7.00970   2
  -5  -4   0 167.490 16.3422   1
   5   4   0 155.714 7.20048   2
   5   4   0 138.708 6.94886   2
   5   4   0 153.179 8.35784   3
   5   4   0 126.815 14.5269   1
  -6  -4   0 706.026 19.5360   2
  -6  -4   0 728.846 40.0278   1
  -6  -4   0 741.978 19.9337   2
   6   4   0 743.905 21.4484   3
   6   4   0 728.033 40.3948   1
   6   4   0 706.565 19.6543   2
   6   4   0 697.273 19.7457   2
  -7  -4   0 57.6533 6.90223   2
  -7  -4   0 68.3970 5.92415   2
   7   4   0 57.5733 7.96470   3
  -8  -4   0 0.85723 11.7969   1
  -8  -4   0 5.97614 3.98304   2
   8   4   0 -2.2724 4.95436   3
   8   4   0 -0.2545 2.89683   2
  -9  -4   0 0.43698 4.30535   2
   9   4   0 19.1060 6.82548   3
   9   4   0 12.1916 4.48665   2
   9   4   0 -2.7220 11.2797   1
 -10  -4   0 -2.0574 4.48238   2
  10   4   0 5.55206 6.40322   3
  10   4   0 4.66068 4.39882   2
  11   4   0 6.15533 7.69511   3
   8  -5   0 49.9392 8.39458   3
   8  -5   0 33.4039 7.31149   2
  -8   5   0 29.2475 7.38316   2
   7  -5   0 -2.5633 4.46733   2
   7  -5   0 1.83971 4.56884   3
   7  -5   0 13.4959 4.95016   2
  -7   5   0 -3.1043 4.36739   2
   6  -5   0 97.4563 8.93756   3
   6  -5   0 79.8741 22.5309   1
   6  -5   0 103.301 9.70301   2
   6  -5   0 88.6862 8.85460   2
  -6   5   0 111.634 9.18334   2
  -6   5   0 151.851 26.1957   1
  -6   5   0 104.882 12.2759   2
   5  -5   0 7.73133 12.0411   1
   5  -5   0 19.1403 5.00084   2
   5  -5   0 12.8731 4.86517   3
   5  -5   0 17.8989 5.10442   2
  -5   5   0 22.0011 5.23872   3
  -5   5   0 32.6174 11.3650   1
  -5   5   0 10.9241 4.69292   2
  -5   5   0 16.5119 5.36874   2
   4  -5   0 53.0376 6.61214   2
   4  -5   0 51.4362 6.57455   3
   4  -5   0 42.9448 13.1021   1
   4  -5   0 55.3237 6.18026   2
  -4   5   0 48.1332 14.6656   1
  -4   5   0 47.2016 5.93851   2
  -4   5   0 56.7448 7.16182   2
  -4   5   0 61.8602 6.86475   3
   3  -5   0 174.953 9.08462   3
   3  -5   0 178.514 20.4449   1
   3  -5   0 165.461 8.85844   2
   3  -5   0 171.145 9.11701   2
  -3   5   0 165.785 8.98242   2
  -3   5   0 190.289 21.8227   1
  -3   5   0 187.465 9.13034   3
  -3   5   0 176.441 9.48026   2
   2  -5   0 59.8250 5.65945   2
   2  -5   0 69.6737 11.9677   1
   2  -5   0 61.6567 5.56589   3
  -2   5   0 59.0683 5.57575   2
  -2   5   0 63.7279 5.35386   3
  -2   5   0 66.8777 5.64163   2
  -2   5   0 75.8717 13.2388   1
   1  -5   0 94.4998 5.18672   2
   1  -5   0 98.4092 12.0463   1
   1  -5   0 86.9046 7.29387   3
  -1   5   0 92.1400 12.5448   1
  -1   5   0 93.1531 5.63253   2
  -1   5   0 94.1287 5.64451   2
   0  -5   0 1.86114 1.82966   2
   0  -5   0 3.66995 2.40925   3
   0   5   0 2.12985 1.91463   2
   0   5   0 1.96464 2.90819   1
   0   5   0 4.27683 2.00827   2
   0   5   0 4.20583 2.28153   3
   0   5   0 0.30267 2.73502   1
  -1  -5   0 436.462 10.6037   2
  -1  -5   0 417.595 10.5064   2
  -1  -5   0 422.418 12.2500   3
   1   5   0 418.199 10.5659   2
   1   5   0 407.599 20.6091   1
   1   5   0 427.324 10.6272   2
   1   5   0 406.163 19.9956   1
   1   5   0 432.684 12.3145   3
  -2  -5   0 198.245 6.00327   2
  -2  -5   0 206.633 6.05532   2
  -2  -5   0 221.365 12.9746   1
   2   5   0 198.049 8.05052   3
   2   5   0 197.243 6.08253   2
   2   5   0 202.898 6.13702   2
   2   5   0 196.810 12.2482   1
  -3  -5   0 158.777 5.68919   2
  -3  -5   0 164.925 11.8573   1
  -3  -5   0 170.727 5.56718   2
   3   5   0 168.902 5.70906   2
   3   5   0 166.168 12.0325   1
   3   5   0 137.083 8.15495   2
  -4  -5   0 132.010 5.48931   2
  -4  -5   0 135.357 11.9474   1
  -4  -5   0 140.305 5.80864   2
   4   5   0 128.647 5.59339   2
   4   5   0 131.473 5.76083   2
   4   5   0 137.474 12.3379   1
   4   5   0 134.624 7.44284   3
  -5  -5   0 44.6082 4.27595   2
  -5  -5   0 39.2563 4.43650   2
  -5  -5   0 44.9107 9.36433   1
   5   5   0 26.5194 7.70271   1
   5   5   0 43.4544 4.53990   2
   5   5   0 43.4583 5.51685   3
   5   5   0 45.0317 4.24063   2
  -6  -5   0 942.038 22.8680   2
  -6  -5   0 869.374 22.5978   2
  -6  -5   0 927.843 47.8461   1
   6   5   0 922.284 22.9936   2
   6   5   0 879.832 24.8127   3
   6   5   0 883.144 22.9176   2
   6   5   0 896.115 60.5130   1
  -7  -5   0 275.433 11.3027   2
  -7  -5   0 258.799 11.3413   2
   7   5   0 261.008 11.4205   2
   7   5   0 244.250 12.7848   3
   7   5   0 235.820 24.0197   1
   7   5   0 277.383 11.5085   2
  -8  -5   0 11.2106 9.28663   1
  -8  -5   0 2.45050 3.26675   2
  -8  -5   0 6.99567 4.15025   2
   8   5   0 1.22612 2.85893   2
   8   5   0 4.55964 8.39203   1
   8   5   0 0.61409 4.85046   3
  -9  -5   0 9.51626 14.7399   1
  -9  -5   0 19.1327 5.46526   2
  -9  -5   0 18.2007 4.53318   2
   9   5   0 2.82929 5.69113   3
   9   5   0 -2.9382 16.0133   1
   9   5   0 20.4725 5.07224   2
 -10  -5   0 4.75741 4.18467   2
 -10  -5   0 8.68425 3.80287   2
  10   5   0 5.09990 3.93717   2
  10   5   0 -7.2185 5.99677   3
 -11  -5   0 34.4544 9.36316   2
  11   5   0 53.3369 10.3291   3
   7  -6   0 10.5359 7.63858   2
   7  -6   0 11.4896 5.00362   2
   7  -6   0 -7.1276 3.69598   3
  -7   6   0 -2.6222 4.49401   2
   6  -6   0 24.4803 5.33631   2
   6  -6   0 8.01760 5.27107   3
   6  -6   0 14.6185 5.90986   2
   5  -6   0 -9.9247 11.4726   1
   5  -6   0 -0.3923 3.81646   3
   5  -6   0 -0.1345 3.24912   2
   5  -6   0 4.12049 3.97998   2
  -5   6   0 13.3306 11.9828   1
  -5   6   0 3.43932 4.43045   2
   4  -6   0 -0.7029 7.31575   1
   4  -6   0 0.67027 3.16294   2
   4  -6   0 1.01121 3.43850   3
   4  -6   0 5.68910 4.40620   2
  -4   6   0 -6.9485 9.74673   1
  -4   6   0 4.49095 3.83735   2
  -4   6   0 5.37568 4.02073   3
   3  -6   0 97.2884 7.76904   3
   3  -6   0 95.7117 16.9643   1
   3  -6   0 99.7090 7.44624   2
   3  -6   0 99.2676 8.08488   2
  -3   6   0 103.855 7.53693   2
  -3   6   0 109.171 8.15605   2
  -3   6   0 124.579 19.8071   1
  -3   6   0 96.1525 7.34174   3
   2  -6   0 113.785 7.64705   3
   2  -6   0 130.410 16.5818   1
  -2   6   0 118.850 7.27438   3
  -2   6   0 97.3403 16.0402   1
  -2   6   0 116.130 7.14966   2
  -2   6   0 118.672 7.30677   2
   1  -6   0 110.726 6.41549   2
   1  -6   0 109.684 6.43203   2
   1  -6   0 116.891 6.99309   3
  -1   6   0 115.654 6.88106   3
  -1   6   0 105.183 14.2309   1
  -1   6   0 119.564 6.58457   2
  -1   6   0 116.632 6.40466   2
   0  -6   0 34.0690 5.02736   3
   0  -6   0 31.8600 3.58005   2
   0  -6   0 26.5625 3.45719   2
   0   6   0 34.5537 3.78677   2
   0   6   0 29.8107 7.44460   1
   0   6   0 30.0903 3.97780   3
   0   6   0 34.6032 3.70986   2
   0   6   0 23.3180 7.06340   1
  -1  -6   0 9.70841 3.80285   3
  -1  -6   0 6.01347 2.05667   2
  -1  -6   0 8.17866 2.15491   2
   1   6   0 10.9944 4.24035   1
   1   6   0 11.2797 3.06231   3
   1   6   0 4.02548 2.05780   2
   1   6   0 8.62379 2.17846   2
   1   6   0 6.48733 3.37432   1
  -2  -6   0 64.8062 4.49218   2
  -2  -6   0 75.9467 3.89716   2
   2   6   0 68.6503 5.26272   3
   2   6   0 79.5132 4.02604   2
   2   6   0 73.9088 8.44660   1
  -3  -6   0 3.27096 1.65261   2
  -3  -6   0 5.69556 2.43850   1
  -3  -6   0 1.65042 1.59491   2
   3   6   0 2.10065 1.63109   2
   3   6   0 1.77346 2.61163   3
   3   6   0 2.90229 2.79236   1
   3   6   0 0.83471 1.61475   2
  -4  -6   0 9.78299 2.16519   2
  -4  -6   0 6.05401 2.13214   2
  -4  -6   0 -0.4795 3.31462   1
   4   6   0 3.06412 2.94313   3
   4   6   0 6.89541 2.20352   2
   4   6   0 11.4992 2.27642   2
   4   6   0 7.10358 4.07540   1
  -5  -6   0 1.71742 3.91005   1
  -5  -6   0 2.59158 2.17953   2
  -5  -6   0 1.56340 2.30947   2
   5   6   0 0.79227 2.20005   2
   5   6   0 4.85210 2.42036   2
   5   6   0 1.36679 2.96584   3
   5   6   0 -2.3325 3.79500   1
  -6  -6   0 345.188 24.3742   1
  -6  -6   0 288.339 10.8821   2
  -6  -6   0 312.477 10.7961   2
   6   6   0 307.004 11.2125   2
   6   6   0 301.045 12.4122   2
   6   6   0 301.567 23.2275   1
   6   6   0 313.816 13.6661   3
  -7  -6   0 27.0849 8.98667   1
  -7  -6   0 23.6429 4.30819   2
  -7  -6   0 22.6138 4.20730   2
   7   6   0 23.9815 5.85456   3
   7   6   0 24.0158 8.55842   1
   7   6   0 33.3445 4.77024   2
  -8  -6   0 10.5419 9.46312   1
  -8  -6   0 10.4262 3.98465   2
  -8  -6   0 10.8463 3.63526   2
   8   6   0 9.25776 3.68541   2
   8   6   0 -2.3051 9.69914   1
   8   6   0 8.72763 5.62968   3
  -9  -6   0 -1.6862 2.66469   2
  -9  -6   0 -24.445 22.6373   1
  -9  -6   0 0.04847 3.59655   2
   9   6   0 -3.3623 4.76937   3
   9   6   0 7.19178 3.48719   2
 -10  -6   0 40.2091 5.83738   2
 -10  -6   0 41.7462 6.90127   2
  10   6   0 35.0445 6.57087   2
  10   6   0 32.4847 8.77679   3
   7  -7   0 -8.4197 4.22205   3
  -7   7   0 -0.8184 5.55017   2
   6  -7   0 38.3074 6.24692   2
   6  -7   0 38.0218 6.98147   3
  -6   7   0 34.5106 7.62474   2
   5  -7   0 16.5628 4.40560   2
  -5   7   0 12.6246 5.36474   2
   4  -7   0 6.69986 3.61728   2
   4  -7   0 2.56669 3.79071   3
   4  -7   0 -3.4045 11.1633   1
  -4   7   0 8.21144 4.09838   2
   3  -7   0 57.5436 7.14571   3
  -3   7   0 47.1630 6.04801   2
  -3   7   0 46.9580 16.2604   1
  -3   7   0 35.7566 5.67190   2
  -3   7   0 37.1592 5.70989   3
   2  -7   0 238.703 10.4116   2
   2  -7   0 223.665 10.8518   3
  -2   7   0 209.217 23.7371   1
  -2   7   0 216.437 10.2548   2
  -2   7   0 225.667 10.5615   3
  -2   7   0 225.720 15.4323   2
   1  -7   0 70.6269 5.82808   2
   1  -7   0 69.6510 5.77329   2
   1  -7   0 63.5440 6.15220   3
  -1   7   0 71.2409 13.1610   1
  -1   7   0 58.0000 5.65270   2
  -1   7   0 72.4032 6.17291   3
  -1   7   0 64.3677 5.67769   2
  -1   7   0 66.6885 14.0267   1
   0  -7   0 100.757 6.14608   2
   0  -7   0 109.806 7.16848   3
   0  -7   0 107.758 6.00762   2
   0   7   0 99.9010 6.72454   3
   0   7   0 107.776 6.14775   2
   0   7   0 85.4723 13.1349   1
   0   7   0 98.2035 5.87581   2
   0   7   0 99.1098 13.4613   1
  -1  -7   0 17.4100 2.95438   2
  -1  -7   0 17.3805 3.86792   3
  -1  -7   0 16.7550 2.87281   2
   1   7   0 18.3171 3.67618   3
   1   7   0 19.9911 2.99224   2
   1   7   0 15.5881 2.91018   2
   1   7   0 9.24737 4.80791   1
   1   7   0 17.9423 5.85143   1
  -2  -7   0 106.033 4.85995   2
  -2  -7   0 101.868 4.75844   2
  -2  -7   0 102.648 7.01684   3
   2   7   0 93.0602 10.5368   1
   2   7   0 96.9076 10.3737   1
   2   7   0 97.8424 4.83741   2
   2   7   0 99.1689 6.68622   3
   2   7   0 108.155 4.93353   2
  -3  -7   0 11.2151 2.24038   2
  -3  -7   0 19.7584 4.87151   1
  -3  -7   0 9.28033 2.04396   2
   3   7   0 8.42917 4.41931   1
   3   7   0 11.2722 2.26347   2
   3   7   0 12.3368 2.31321   2
   3   7   0 8.56945 3.37596   3
  -4  -7   0 18.6714 2.73270   2
  -4  -7   0 25.6726 5.84268   1
  -4  -7   0 21.8971 2.74031   2
   4   7   0 13.3288 4.70553   1
   4   7   0 20.3745 4.17423   3
   4   7   0 21.1737 2.90788   2
   4   7   0 19.9370 2.75189   2
  -5  -7   0 108.369 5.46484   2
  -5  -7   0 99.5347 5.55456   2
  -5  -7   0 117.539 12.2222   1
   5   7   0 104.172 5.67164   2
   5   7   0 98.5585 12.0008   1
   5   7   0 94.8073 5.55159   2
   5   7   0 103.559 7.71960   3
  -6  -7   0 152.423 7.31120   2
  -6  -7   0 160.850 7.37184   2
  -6  -7   0 136.551 15.2532   1
   6   7   0 144.623 16.0090   1
   6   7   0 157.432 10.3398   3
   6   7   0 153.163 7.57884   2
   6   7   0 142.214 7.26720   2
   6   7   0 163.181 9.65859   3
  -7  -7   0 50.4836 11.2790   1
  -7  -7   0 36.1725 4.69385   2
  -7  -7   0 27.3530 4.36208   2
   7   7   0 35.1475 6.56740   3
   7   7   0 29.0608 10.3428   1
   7   7   0 39.7932 5.10095   2
  -8  -7   0 12.6640 3.49049   2
  -8  -7   0 5.69978 9.73668   1
  -8  -7   0 8.60659 4.12863   2
   8   7   0 15.3911 11.1054   1
   8   7   0 7.31677 6.71228   3
   8   7   0 3.24498 3.45708   2
  -9  -7   0 -1.6283 3.03436   2
   9   7   0 -0.0272 5.47564   3
   9   7   0 -0.1775 3.93627   2
 -10  -7   0 26.3834 5.70201   2
  10   7   0 3.82451 6.96381   3
   6  -8   0 19.6111 5.97426   3
  -6   8   0 27.0236 7.42155   2
   5  -8   0 16.8265 5.65129   3
   5  -8   0 22.6914 5.20759   2
  -5   8   0 18.9169 5.29681   2
   4  -8   0 4.57235 3.30566   2
  -4   8   0 17.0567 5.38863   2
   3  -8   0 39.5794 6.46296   2
   3  -8   0 29.0219 5.67008   3
  -3   8   0 30.0182 5.61676   2
  -3   8   0 9.45115 10.4614   1
   2  -8   0 115.770 8.83604   3
   2  -8   0 115.885 8.07804   2
   2  -8   0 105.245 8.10046   2
  -2   8   0 125.249 8.68475   3
  -2   8   0 128.953 8.28196   2
  -2   8   0 136.491 20.2208   1
   1  -8   0 31.3901 5.16943   3
   1  -8   0 35.9185 4.92010   2
   1  -8   0 31.3137 4.70891   2
  -1   8   0 31.2457 7.31167   3
  -1   8   0 33.0647 4.76449   2
  -1   8   0 30.6207 11.3613   1
  -1   8   0 33.8676 4.93135   2
  -1   8   0 29.8133 10.8066   1
   0  -8   0 0.13213 3.15414   3
   0  -8   0 4.28664 2.72281   2
   0  -8   0 1.60770 2.41210   2
   0   8   0 13.2731 6.21751   1
   0   8   0 0.81922 3.87517   2
   0   8   0 3.39045 2.57670   2
   0   8   0 -3.9270 5.96210   1
   0   8   0 1.08577 2.65071   3
  -1  -8   0 15.2425 4.17847   3
  -1  -8   0 13.5115 2.87299   2
  -1  -8   0 14.1515 3.09918   2
   1   8   0 10.1688 3.59481   3
   1   8   0 19.6233 3.35317   2
   1   8   0 13.3625 2.87388   2
   1   8   0 14.3860 5.81916   1
   1   8   0 15.4356 6.17531   1
  -2  -8   0 4.60363 3.35884   3
  -2  -8   0 4.46264 2.21225   2
  -2  -8   0 4.63259 2.23015   2
   2   8   0 8.16305 2.41230   2
   2   8   0 3.92302 4.64123   1
   2   8   0 2.75359 2.93715   3
   2   8   0 2.25775 3.74144   1
   2   8   0 3.71823 2.30664   2
  -3  -8   0 480.791 12.2682   2
   3   8   0 480.368 24.0270   1
   3   8   0 516.352 24.4761   1
   3   8   0 495.977 16.6266   3
   3   8   0 515.855 12.8809   2
  -4  -8   0 415.808 21.4720   1
  -4  -8   0 395.080 10.7264   2
   4   8   0 432.373 11.4449   2
   4   8   0 398.065 21.4106   1
   4   8   0 433.762 15.7330   3
  -5  -8   0 2.69763 2.06876   2
  -5  -8   0 6.88228 4.79591   1
   5   8   0 -3.4723 4.43395   1
   5   8   0 2.62709 2.00323   2
   5   8   0 5.83439 3.52212   3
  -6  -8   0 21.5776 8.15750   1
  -6  -8   0 31.7092 4.01794   2
   6   8   0 31.5248 9.96663   1
  -7  -8   0 9.98628 3.13734   2
  -7  -8   0 14.1105 8.58179   1
   7   8   0 11.7915 5.81292   2
   7   8   0 20.5238 15.9627   1
   7   8   0 13.7193 5.63704   3
  -8  -8   0 3.94100 3.06894   2
  -8  -8   0 1.01444 2.48582   2
   8   8   0 22.2921 14.8745   1
   8   8   0 1.77076 4.69862   3
   8   8   0 -0.4972 3.25545   2
  -9  -8   0 5.28868 3.76266   2
  -9  -8   0 4.05873 3.05923   2
   9   8   0 10.4549 6.27656   3
   9   8   0 6.38308 4.28611   2
 -10  -8   0 3.32544 3.56331   2
 -10  -8   0 3.41968 3.71576   2
  10   8   0 -5.8433 5.62443   3
   5  -9   0 19.3070 6.15389   2
   5  -9   0 20.1604 5.74150   3
  -5   9   0 37.2449 11.9249   2
   4  -9   0 39.7911 6.54455   3
   4  -9   0 47.5018 7.25633   2
  -4   9   0 43.2293 6.39832   2
   3  -9   0 12.0260 3.90064   2
   3  -9   0 24.1280 8.23812   3
   3  -9   0 17.0866 4.71078   2
  -3   9   0 16.9412 4.41351   2
   2  -9   0 31.7810 5.24734   2
   2  -9   0 46.1634 6.78220   3
   2  -9   0 29.4447 8.61547   2
  -2   9   0 35.3130 5.55105   2
   1  -9   0 102.387 8.47848   3
   1  -9   0 85.7449 7.28611   2
   1  -9   0 97.0889 7.33280   2
  -1   9   0 88.9862 17.4152   1
  -1   9   0 87.1105 7.12218   2
   0  -9   0 1.41989 2.59316   2
   0  -9   0 2.02611 2.76121   2
   0  -9   0 2.39399 3.64446   3
   0   9   0 0.31984 6.67618   1
   0   9   0 0.17283 2.59571   2
   0   9   0 3.30661 2.93188   3
   0   9   0 5.20084 6.63102   1
  -1  -9   0 0.08099 2.40168   2
  -1  -9   0 3.90138 3.50345   3
  -1  -9   0 1.28220 2.36497   2
   1   9   0 3.61141 5.99076   1
   1   9   0 4.12252 3.17909   3
   1   9   0 3.47984 2.60250   2
   1   9   0 1.54234 2.33831   2
   1   9   0 11.5655 7.01546   1
  -2  -9   0 4.83338 2.23621   2
  -2  -9   0 3.15939 3.59085   3
   2   9   0 0.78083 2.92809   3
   2   9   0 8.08014 5.31827   1
   2   9   0 4.48746 2.35995   2
   2   9   0 8.98406 6.16890   1
  -3  -9   0 18.9655 2.85016   2
  -3  -9   0 16.1163 2.64066   2
   3   9   0 23.2861 7.06188   1
   3   9   0 19.6905 2.93785   2
   3   9   0 15.9153 2.82195   2
   3   9   0 19.6326 7.02999   1
   3   9   0 13.4337 4.07064   3
  -4  -9   0 42.5428 3.34842   2
  -4  -9   0 41.6775 3.39251   2
   4   9   0 33.8611 5.88322   3
   4   9   0 52.2880 4.12582   2
   4   9   0 56.4835 8.54628   1
   4   9   0 38.2595 7.65300   1
  -5  -9   0 17.9587 5.80457   1
  -5  -9   0 28.1563 3.21279   2
  -5  -9   0 27.7400 3.12841   2
   5   9   0 12.0150 6.55326   1
   5   9   0 30.9657 3.47860   2
  -6  -9   0 79.9867 4.86247   2
  -6  -9   0 84.9501 4.86778   2
  -6  -9   0 85.6484 12.1292   1
   6   9   0 66.1653 11.5719   1
   6   9   0 89.8866 5.50150   2
  -7  -9   0 20.8255 3.85678   2
  -7  -9   0 22.3675 3.30616   2
   7   9   0 34.0136 6.94891   3
   7   9   0 13.7683 8.98440   1
   7   9   0 28.5321 3.87555   2
  -8  -9   0 3.06203 2.75598   2
  -8  -9   0 0.45195 2.17479   2
  -8  -9   0 -2.5165 10.8228   1
   8   9   0 14.1865 13.3689   1
   8   9   0 -0.6222 4.53568   3
   8   9   0 1.09615 2.92850   2
  -9  -9   0 -2.1446 2.69363   2
  -9  -9   0 -0.2673 2.78623   2
   9   9   0 4.30130 5.46888   2
   9   9   0 1.77967 5.97596   3
 -10  -9   0 13.6394 3.80197   2
  10   9   0 17.9708 7.90985   3
   4 -10   0 8.03812 5.31743   2
   4 -10   0 9.53382 8.64364   2
   4 -10   0 9.31836 5.40352   3
   3 -10   0 0.94748 3.59244   2
   3 -10   0 6.35058 4.12702   3
   3 -10   0 4.68006 4.30703   2
  -3  10   0 -4.5178 4.00869   2
   2 -10   0 105.339 9.65978   3
   2 -10   0 112.900 8.49703   2
   2 -10   0 107.902 8.74335   2
  -2  10   0 91.7147 8.46822   2
   1 -10   0 67.9358 9.55426   3
   1 -10   0 53.2020 6.48565   2
   1 -10   0 61.7160 6.61049   2
  -1  10   0 59.1098 6.59843   2
  -1  10   0 81.2773 17.5913   1
   0 -10   0 7.66167 4.24822   3
   0  10   0 7.31214 3.57721   2
   0  10   0 21.2788 10.4968   1
  -1 -10   0 15.1169 4.63592   3
  -1 -10   0 13.9415 3.34691   2
   1  10   0 15.3363 8.58860   1
  -2 -10   0 18.7895 3.10555   2
  -2 -10   0 17.6593 3.01272   2
   2  10   0 18.9096 3.41615   2
   2  10   0 17.1134 8.36547   1
  -3 -10   0 14.8571 2.49717   2
  -3 -10   0 15.0863 2.49919   2
   3  10   0 18.2606 2.87733   2
   3  10   0 26.4571 7.55896   1
  -4 -10   0 104.405 4.28250   2
  -4 -10   0 100.350 4.16506   2
   4  10   0 89.6706 10.8986   1
   4  10   0 102.881 5.08451   2
  -5 -10   0 0.37958 1.39517   2
  -5 -10   0 0.71458 1.14019   2
   5  10   0 -1.4352 1.65459   2
   5  10   0 -2.5353 5.21054   1
  -6 -10   0 1.05982 1.43566   2
  -6 -10   0 0.80539 1.50786   2
   6  10   0 -6.7813 11.2089   1
  -7 -10   0 -3.7807 11.8442   1
  -7 -10   0 -0.7024 1.73770   2
  -7 -10   0 1.76289 1.72893   2
   7  10   0 -5.0541 9.58782   1
   7  10   0 10.7320 5.73977   3
  -8 -10   0 18.5069 12.0280   1
   8  10   0 7.99771 5.96725   3
   8  10   0 8.83063 16.2621   1
  -9 -10   0 7.49529 3.17802   2
  -9 -10   0 13.5454 3.19448   2
   9  10   0 14.2192 6.57160   3
   3 -11   0 137.261 10.8388   2
   3 -11   0 132.321 10.9032   3
   2 -11   0 79.7276 8.31597   2
   2 -11   0 97.8425 9.94411   3
  -2  11   0 59.1438 11.6390   2
   1 -11   0 47.5603 6.35890   2
   1 -11   0 58.3835 7.86296   3
  -1  11   0 48.7313 9.42229   2
   0 -11   0 30.1362 4.46988   2
   0 -11   0 23.8507 4.65482   2
   0 -11   0 26.2108 5.66572   3
   0  11   0 20.4732 4.56219   2
   0  11   0 20.7468 13.8692   1
  -1 -11   0 3.31887 4.03717   3
  -1 -11   0 0.22977 2.49261   2
  -1 -11   0 3.40655 2.63439   2
   1  11   0 1.94502 9.05079   1
   1  11   0 4.28603 3.17881   2
  -2 -11   0 101.538 5.70109   2
  -2 -11   0 100.557 5.70225   2
   2  11   0 84.9122 16.0924   1
   2  11   0 105.343 6.23003   2
  -3 -11   0 5.31253 2.86685   2
  -3 -11   0 3.47210 1.74023   2
   3  11   0 8.41647 8.65190   1
   4  11   0 14.9191 6.27876   1
   8  11   0 -2.1978 5.12346   3
  -9 -11   0 -0.4014 1.32027   2
   9  11   0 1.51330 5.53832   3
   2 -12   0 23.1904 5.86228   2
   2 -12   0 34.3226 5.85130   2
   2 -12   0 49.7063 9.75965   3
   1 -12   0 10.9641 4.19457   2
   1 -12   0 16.6445 5.54436   3
   1 -12   0 13.0940 4.40785   2
   0 -12   0 1.89280 3.20634   2
   0 -12   0 0.37288 3.05805   2
   0 -12   0 5.94806 4.32375   3
  -1 -12   0 25.9319 3.96633   2
  -1 -12   0 35.9776 4.62217   2
  -1 -12   0 30.7198 6.39728   3
  -2 -12   0 6.12840 2.24377   2
  -2 -12   0 7.46287 2.47200   2
   2  12   0 -7.2766 10.3396   1
   8  12   0 1.00652 5.28402   3
   0 -13   0 1.38740 3.43343   2
   0 -13   0 0.28021 2.94210   2
  -1 -13   0 4.76246 2.86911   2
  -1 -13   0 -0.5558 4.54355   2
  -2 -13   0 2.48496 1.66147   2
  -2 -13   0 2.15357 1.62866   2
   7  12  -1 17.6182 11.4877   3
  -1 -12   1 8.35770 2.20326   2
   0 -12   1 75.3082 8.70864   3
   0 -12   1 74.5808 6.33365   2
   0 -12   1 84.0535 6.30687   2
   1 -12   1 8.11781 4.64128   3
   1 -12   1 6.70760 3.43518   2
   8  11  -1 7.42702 7.24270   3
   7  11  -1 8.38434 6.32984   3
   2  11  -1 76.3281 13.2810   1
  -2 -11   1 90.6663 3.26214   2
   1  11  -1 39.3324 14.9392   1
  -1 -11   1 50.4023 4.33226   2
  -1 -11   1 37.2152 6.24957   3
  -1 -11   1 46.2507 4.34101   2
   0  11  -1 17.9089 4.06786   2
   0  11  -1 18.8896 18.3369   1
   0 -11   1 24.5980 3.88280   2
   0 -11   1 18.7623 3.85457   2
   0 -11   1 22.0495 5.47345   3
  -1  11  -1 6.23443 3.95009   2
   1 -11   1 4.03093 3.86414   3
   1 -11   1 3.32783 3.38782   2
   1 -11   1 3.35318 3.37829   2
   2 -11   1 26.8410 5.24383   2
   2 -11   1 32.2622 5.79990   2
   2 -11   1 51.9889 7.50311   3
   3 -11   1 13.8720 5.38093   3
   3 -11   1 6.33819 4.43539   2
   8  10  -1 7.78543 6.23555   3
   7  10  -1 34.8826 6.77418   3
   2  10  -1 21.1318 2.72792   2
   2  10  -1 13.8650 6.55731   1
  -2 -10   1 17.1768 2.19936   2
  -2 -10   1 18.1726 2.43694   2
   1  10  -1 66.0908 12.1822   1
   1  10  -1 47.3970 4.85676   2
  -1 -10   1 57.7958 4.56834   2
  -1 -10   1 58.0171 6.99656   3
  -1 -10   1 46.8295 4.34044   2
   0  10  -1 261.884 25.1618   1
   0  10  -1 242.061 10.4339   2
   0 -10   1 243.497 9.97012   2
   0 -10   1 228.898 9.88086   2
   0 -10   1 251.292 12.6694   3
  -1  10  -1 14.2448 14.2631   1
   1 -10   1 25.2074 5.44322   2
   1 -10   1 15.5946 4.13273   2
  -2  10  -1 7.53941 4.44109   2
   2 -10   1 5.57739 3.93278   2
   2 -10   1 12.9932 4.71288   3
  -3  10  -1 5.05115 4.97187   2
   3 -10   1 -2.9358 3.60014   2
   3 -10   1 10.9802 4.25585   3
   3 -10   1 1.58008 3.55380   2
   4 -10   1 0.42753 4.22134   3
  10   9  -1 24.7719 8.28741   3
   9   9  -1 10.7627 6.84959   3
  -9  -9   1 3.73105 4.01204   2
  -9  -9   1 2.81803 2.59610   2
   8   9  -1 60.9059 15.8929   1
   8   9  -1 74.3027 9.92310   3
  -8  -9   1 64.5183 4.33898   2
  -8  -9   1 49.7147 12.4068   1
  -8  -9   1 71.8571 4.49131   2
   7   9  -1 -4.5377 8.15093   1
   7   9  -1 -1.9839 4.59890   3
   3   9  -1 3.82026 1.48644   2
   3   9  -1 -1.6059 3.01003   3
   3   9  -1 0.13759 1.26516   2
   2   9  -1 207.458 14.9463   1
   2   9  -1 249.328 7.75155   2
   2   9  -1 230.786 15.5943   1
   2   9  -1 245.947 7.76948   2
   2   9  -1 253.128 11.6438   3
  -2  -9   1 236.754 6.92287   2
  -2  -9   1 236.381 6.98257   2
   1   9  -1 124.042 7.00097   2
   1   9  -1 130.768 8.81740   3
   1   9  -1 119.830 22.0627   1
   1   9  -1 117.614 14.6157   1
  -1  -9   1 134.346 8.79476   3
  -1  -9   1 129.646 6.09456   2
  -1  -9   1 132.469 8.63704   2
   0   9  -1 16.0646 9.31186   1
   0   9  -1 5.59800 3.08724   3
   0   9  -1 1.87485 2.70727   2
   0  -9   1 -1.1861 2.50142   2
   0  -9   1 6.70911 3.67661   3
  -1   9  -1 9.94505 3.68687   2
  -1   9  -1 5.78822 8.29015   1
   1  -9   1 14.5066 4.24548   3
   1  -9   1 10.8352 3.57637   2
   1  -9   1 11.1855 3.55194   2
  -2   9  -1 66.0442 16.1296   1
  -2   9  -1 62.5740 6.60088   2
   2  -9   1 67.5373 6.56429   2
   2  -9   1 57.1117 7.18262   3
   2  -9   1 66.5255 6.72736   2
  -3   9  -1 67.6861 6.96798   2
   3  -9   1 49.2285 6.58398   2
   3  -9   1 44.8579 6.67948   2
   3  -9   1 52.8079 7.85331   3
  -4   9  -1 19.4327 4.55027   2
   4  -9   1 18.0697 5.07660   3
   4  -9   1 32.1317 5.25457   2
   4  -9   1 26.9392 5.96876   2
   5  -9   1 1.77567 4.07342   3
   5  -9   1 -7.0345 4.70788   2
 -10  -8   1 88.6550 7.09791   2
   9   8  -1 75.4364 10.4964   3
   9   8  -1 74.0328 7.35568   2
  -9  -8   1 91.6267 6.68387   2
  -9  -8   1 90.9614 6.72977   2
   8   8  -1 -4.4667 9.47572   1
   8   8  -1 -0.3849 4.37528   3
   8   8  -1 2.06980 2.81854   2
  -8  -8   1 -3.7379 2.11973   2
  -8  -8   1 19.2091 9.71079   1
  -8  -8   1 1.54968 2.35129   2
   7   8  -1 9.19362 7.82480   1
   7   8  -1 11.4827 3.01556   2
   7   8  -1 4.23755 6.50553   3
  -7  -8   1 1.25551 6.65355   1
  -7  -8   1 13.1523 2.65432   2
  -7  -8   1 3.98595 2.25914   2
   6   8  -1 46.0903 3.72664   2
   6   8  -1 33.3755 6.35500   3
   6   8  -1 25.5525 7.12445   1
  -6  -8   1 39.4071 3.11711   2
  -6  -8   1 33.4983 3.05724   2
  -6  -8   1 27.3365 6.09058   1
   5   8  -1 33.1922 6.29287   1
   5   8  -1 45.9832 3.10201   2
   5   8  -1 42.9561 3.07169   2
   5   8  -1 39.4809 5.78763   3
  -5  -8   1 45.0494 2.15891   2
  -5  -8   1 31.9979 5.93974   1
  -5  -8   1 44.7417 2.09922   2
   4   8  -1 22.2101 2.04786   2
   3   8  -1 3.67556 1.35864   2
   3   8  -1 4.73194 1.55983   2
   3   8  -1 2.02348 2.81352   1
   3   8  -1 -1.8267 2.82010   3
   3   8  -1 5.78891 3.05059   1
   2   8  -1 280.280 8.08529   2
   2   8  -1 310.348 12.3134   3
   2   8  -1 271.993 15.8886   1
   2   8  -1 267.041 8.69055   2
  -2  -8   1 263.094 7.41198   2
   1   8  -1 33.7268 7.84610   1
   1   8  -1 39.4350 4.01278   2
   1   8  -1 41.4215 8.36680   1
   1   8  -1 34.7882 4.35316   2
   1   8  -1 36.3058 5.21844   3
  -1  -8   1 37.5192 3.71293   2
  -1  -8   1 41.3736 5.61634   3
   0   8  -1 25.8817 10.2955   1
   0   8  -1 7.25128 3.48115   3
   0   8  -1 6.31865 6.11491   1
   0   8  -1 14.2426 3.17799   2
   0   8  -1 15.9178 3.54553   2
   0  -8   1 14.4214 3.99520   3
   0  -8   1 13.1297 3.14279   2
   0  -8   1 14.2832 3.18928   2
  -1   8  -1 -9.5954 6.46065   1
  -1   8  -1 -8.5757 5.96671   1
  -1   8  -1 4.58952 4.70296   3
  -1   8  -1 4.50183 2.90657   2
   1  -8   1 -1.5383 2.57973   2
   1  -8   1 0.66378 2.62471   2
   1  -8   1 -0.7585 2.99320   3
  -2   8  -1 -8.1797 7.75367   1
  -2   8  -1 -5.4041 2.78024   3
  -2   8  -1 1.94227 2.95844   2
   2  -8   1 0.99905 3.17655   2
   2  -8   1 -0.4751 3.00991   2
   2  -8   1 -0.7042 3.23409   3
  -3   8  -1 3.04444 3.42385   2
   3  -8   1 4.59481 3.30652   2
   3  -8   1 -6.3989 2.70352   3
  -4   8  -1 1.12372 4.17723   2
  -5   8  -1 0.51306 3.39793   2
   5  -8   1 5.02180 3.99008   2
   5  -8   1 -1.4489 3.78128   3
   6  -8   1 20.4794 5.88668   3
  10   7  -1 40.6196 9.46576   3
 -10  -7   1 34.6425 4.94689   2
 -10  -7   1 33.3019 5.67519   2
   9   7  -1 18.8714 4.34033   2
   9   7  -1 14.5549 6.83754   3
  -9  -7   1 16.4354 3.74354   2
  -9  -7   1 7.02748 3.60787   2
   8   7  -1 0.91819 4.59840   3
   8   7  -1 -0.4666 3.18830   2
  -8  -7   1 2.58562 2.72632   2
  -8  -7   1 0.93809 3.48040   2
   7   7  -1 8.99371 11.3287   1
   7   7  -1 6.36232 4.62819   3
  -7  -7   1 -0.3947 2.29956   2
  -7  -7   1 -8.1904 5.64219   1
   6   7  -1 1.43426 2.20936   2
   6   7  -1 -9.9735 7.44243   1
   6   7  -1 7.77811 3.58914   3
   6   7  -1 7.64494 4.42406   3
  -6  -7   1 6.28167 2.34973   2
  -6  -7   1 6.42637 4.71581   1
   5   7  -1 14.6117 3.66256   2
   5   7  -1 12.4733 2.40324   2
   5   7  -1 13.4679 8.17877   1
   5   7  -1 9.26022 4.31038   3
  -5  -7   1 27.3715 5.63483   1
  -5  -7   1 13.9312 2.26107   2
   4   7  -1 249.175 8.31233   2
   4   7  -1 257.149 11.4489   3
   4   7  -1 261.501 6.96673   2
  -4  -7   1 234.844 13.2685   1
  -4  -7   1 245.197 6.10264   2
   3   7  -1 7.60463 1.48675   2
   3   7  -1 9.68079 3.37905   3
   3   7  -1 2.59230 2.67379   1
   3   7  -1 5.77172 2.84461   1
  -3  -7   1 9.64250 1.27255   2
   2   7  -1 113.588 9.35913   1
   2   7  -1 94.8609 4.11084   2
   2   7  -1 84.9428 6.47471   3
   2   7  -1 93.6819 8.57232   1
   2   7  -1 99.8501 4.18079   2
  -2  -7   1 100.495 3.79623   2
   1   7  -1 0.63336 1.72623   2
   1   7  -1 3.43082 2.73702   3
   1   7  -1 -1.6756 3.20940   1
   1   7  -1 0.73706 1.77383   2
   1   7  -1 0.25356 3.71887   1
  -1  -7   1 1.49606 1.79556   2
  -1  -7   1 3.08616 2.91359   3
  -1  -7   1 -0.4960 1.73964   2
   0   7  -1 439.467 12.6905   2
   0   7  -1 430.738 12.6294   2
   0   7  -1 453.705 26.6063   1
   0   7  -1 431.775 14.2753   3
   0   7  -1 412.926 25.5508   1
   0  -7   1 438.389 12.6115   2
   0  -7   1 435.079 12.5782   2
   0  -7   1 440.398 14.5691   3
  -1   7  -1 35.3442 9.15866   1
  -1   7  -1 52.7975 11.2381   1
  -1   7  -1 42.0676 4.83480   2
  -1   7  -1 40.0817 5.14857   3
  -1   7  -1 47.5121 4.97992   2
   1  -7   1 43.6223 4.88576   2
   1  -7   1 43.8751 4.92309   2
   1  -7   1 46.2486 5.73717   3
  -2   7  -1 29.5169 4.69210   2
  -2   7  -1 23.6064 4.43571   3
  -2   7  -1 27.1818 4.58733   2
  -2   7  -1 38.6179 15.1721   1
   2  -7   1 26.7158 4.62911   2
  -3   7  -1 3.36758 9.17219   1
  -3   7  -1 0.13838 3.11659   3
   3  -7   1 0.08210 2.35393   2
   3  -7   1 -5.1308 7.45961   1
   3  -7   1 -1.5385 3.17216   3
  -4   7  -1 78.7250 7.63916   2
   4  -7   1 60.9610 7.51460   3
   4  -7   1 67.5595 6.92878   2
   4  -7   1 65.0468 7.92209   2
  -5   7  -1 0.05570 3.59383   2
   5  -7   1 -0.4937 4.19216   2
   5  -7   1 -6.3149 3.09759   2
  -6   7  -1 75.2933 9.25904   2
   6  -7   1 86.9881 9.53952   2
   6  -7   1 89.8971 9.33478   3
   6  -7   1 95.8734 9.43190   2
   7  -7   1 147.493 11.9914   3
  10   6  -1 -1.5657 6.77048   3
 -10  -6   1 8.72134 4.83956   2
   9   6  -1 12.6754 4.31368   2
   9   6  -1 11.8648 6.52664   3
  -9  -6   1 13.4273 4.20449   2
  -9  -6   1 5.51112 3.94146   2
   8   6  -1 -0.4463 2.87310   2
  -8  -6   1 1.33388 2.62260   2
  -8  -6   1 -4.5569 9.11243   1
   7   6  -1 17.3797 3.79537   2
   7   6  -1 7.39340 4.86950   3
  -7  -6   1 23.2008 8.22669   1
  -7  -6   1 9.54093 3.26896   2
  -7  -6   1 13.7261 3.41074   2
   6   6  -1 8.33526 5.62490   1
   6   6  -1 5.21644 3.01604   2
   6   6  -1 2.04633 4.24041   3
   6   6  -1 5.11281 2.65891   2
  -6  -6   1 11.3036 5.45862   1
  -6  -6   1 0.80476 2.29083   2
  -6  -6   1 5.78890 2.75053   2
   5   6  -1 173.310 6.91808   2
   5   6  -1 195.863 9.91672   3
   5   6  -1 183.975 14.3575   1
   5   6  -1 188.088 6.99686   2
  -5  -6   1 188.953 6.75356   2
  -5  -6   1 179.319 14.3049   1
  -5  -6   1 175.746 6.63744   2
   4   6  -1 73.0226 3.76147   2
   4   6  -1 77.6569 8.05799   1
   4   6  -1 80.5334 6.26228   3
   4   6  -1 71.0644 3.75272   2
  -4  -6   1 67.7442 3.58388   2
  -4  -6   1 72.1437 3.45823   2
  -4  -6   1 75.7725 7.42796   1
   3   6  -1 -0.3552 2.22439   1
   3   6  -1 -0.0869 1.13222   2
   3   6  -1 1.50380 2.64239   3
  -3  -6   1 -0.6722 0.94182   2
  -3  -6   1 0.05963 1.34689   2
   2   6  -1 177.752 8.08903   3
   2   6  -1 163.843 5.04547   2
   2   6  -1 162.764 4.98984   2
   2   6  -1 175.444 10.3542   1
   2   6  -1 180.425 10.1910   1
  -2  -6   1 160.854 4.86032   2
  -2  -6   1 171.447 4.79634   2
   1   6  -1 424.829 20.3188   1
   1   6  -1 396.310 12.7317   3
   1   6  -1 414.141 10.4706   2
   1   6  -1 416.092 10.4876   2
   1   6  -1 415.087 20.1088   1
  -1  -6   1 401.138 10.1900   2
  -1  -6   1 402.782 10.2582   2
   0   6  -1 9.08115 2.41692   2
   0   6  -1 4.58636 2.19164   2
   0   6  -1 15.1011 4.83830   1
   0   6  -1 10.2116 2.86189   3
   0  -6   1 4.34771 3.05486   3
   0  -6   1 5.85088 2.24687   2
   0  -6   1 5.81378 2.15531   2
  -1   6  -1 27.8075 3.98603   3
  -1   6  -1 34.7804 8.66558   1
  -1   6  -1 32.3756 4.11329   2
  -1   6  -1 30.0512 4.01276   2
   1  -6   1 33.7003 4.43963   3
   1  -6   1 30.5636 4.05532   2
  -2   6  -1 36.4231 5.08044   2
  -2   6  -1 30.6039 4.42693   3
  -2   6  -1 28.8935 9.08472   1
  -2   6  -1 44.2948 4.76712   2
   2  -6   1 33.5513 8.50404   1
   2  -6   1 36.7170 5.00803   3
   2  -6   1 37.9678 4.94531   2
   2  -6   1 42.3375 5.00937   2
  -3   6  -1 206.422 10.1033   3
  -3   6  -1 200.638 10.5501   2
  -3   6  -1 185.753 10.4243   2
  -3   6  -1 174.888 23.0917   1
   3  -6   1 199.632 10.1779   3
   3  -6   1 167.737 22.2239   1
   3  -6   1 224.044 10.8680   2
  -4   6  -1 3.57182 3.68159   2
  -4   6  -1 10.2926 9.79812   1
  -4   6  -1 6.62218 4.18920   2
  -4   6  -1 7.43139 4.06405   3
   4  -6   1 6.36051 3.85352   2
   4  -6   1 -2.8314 9.68311   1
   4  -6   1 11.3963 4.23303   3
   4  -6   1 3.50327 3.77708   2
  -5   6  -1 30.7761 5.92059   2
   5  -6   1 18.5990 4.95566   2
   5  -6   1 36.2105 6.15330   3
   5  -6   1 33.8600 6.38624   2
  -6   6  -1 21.2874 6.18179   2
   6  -6   1 18.3530 5.43520   3
   6  -6   1 16.0102 5.09618   2
   6  -6   1 17.5327 6.27647   2
  -7   6  -1 21.9218 7.07256   2
   7  -6   1 14.9341 5.76335   2
   7  -6   1 35.5609 6.85504   3
  10   5  -1 2.13654 4.21575   2
  10   5  -1 12.6541 7.34441   3
 -10  -5   1 -7.9886 3.94997   2
 -10  -5   1 1.91419 3.78923   2
   9   5  -1 10.9893 4.54547   2
   9   5  -1 26.6275 7.54318   3
  -9  -5   1 14.1628 18.2553   1
  -9  -5   1 17.6291 4.19864   2
  -9  -5   1 13.4340 4.58112   2
   8   5  -1 9.82316 5.63652   3
   8   5  -1 -6.7833 9.43426   1
   8   5  -1 7.00020 3.49787   2
  -8  -5   1 7.17310 3.27076   2
  -8  -5   1 8.38782 8.87241   1
  -8  -5   1 13.6102 4.04637   2
   7   5  -1 11.2183 3.73901   2
   7   5  -1 15.1566 5.38097   3
   7   5  -1 9.38977 6.45343   1
   7   5  -1 9.69628 3.41503   2
  -7  -5   1 10.7521 3.43746   2
  -7  -5   1 -3.8390 6.73426   1
  -7  -5   1 12.0551 3.71443   2
   6   5  -1 426.768 13.7688   2
   6   5  -1 464.644 16.5916   3
   6   5  -1 459.454 28.7087   1
   6   5  -1 458.272 13.8770   2
  -6  -5   1 451.883 13.7367   2
  -6  -5   1 452.076 13.7133   2
  -6  -5   1 486.480 28.7084   1
   5   5  -1 847.265 35.5678   1
   5   5  -1 828.792 19.7712   2
   5   5  -1 828.253 22.8258   3
   5   5  -1 841.689 19.6853   2
  -5  -5   1 826.989 19.5065   2
  -5  -5   1 839.985 19.5704   2
  -5  -5   1 892.857 36.1087   1
   4   5  -1 95.2651 6.48921   3
   4   5  -1 85.3869 4.24019   2
   4   5  -1 87.8330 4.29056   2
   4   5  -1 102.866 9.28908   1
  -4  -5   1 88.9929 4.18528   2
  -4  -5   1 85.5188 8.50632   1
  -4  -5   1 91.4549 4.18837   2
   3   5  -1 1104.99 26.4763   3
   3   5  -1 1133.78 22.6250   2
   3   5  -1 1143.68 31.2514   1
   3   5  -1 1175.27 22.9251   2
  -3  -5   1 1140.99 22.3082   2
  -3  -5   1 1128.82 22.4968   2
  -3  -5   1 1177.09 31.5727   1
   2   5  -1 207.986 8.20151   3
   2   5  -1 218.519 9.87336   1
   2   5  -1 211.130 9.88007   1
   2   5  -1 207.342 5.35357   2
  -2  -5   1 210.009 5.10734   2
  -2  -5   1 207.983 5.10246   2
   1   5  -1 3.46667 2.33352   1
   1   5  -1 0.74727 1.33807   2
   1   5  -1 -0.3879 2.03279   1
   1   5  -1 1.95620 1.38547   2
   1   5  -1 1.72358 2.06415   3
  -1  -5   1 2.53366 1.39588   2
  -1  -5   1 -1.7882 1.95472   3
   0   5  -1 970.803 21.2867   2
   0   5  -1 981.494 21.3740   2
   0   5  -1 979.491 35.9858   1
   0   5  -1 984.079 22.7667   3
   0  -5   1 987.505 21.3458   2
   0  -5   1 984.219 22.8361   3
   0  -5   1 970.975 21.3360   2
  -1   5  -1 104.317 5.68369   2
  -1   5  -1 88.9688 6.58801   3
  -1   5  -1 102.364 5.61013   2
  -1   5  -1 105.944 12.9165   1
   1  -5   1 103.771 5.64776   2
   1  -5   1 122.705 13.8183   1
   1  -5   1 94.5066 5.45615   2
  -2   5  -1 -0.1685 2.31115   2
  -2   5  -1 3.93656 2.51023   3
  -2   5  -1 4.83570 4.70935   1
   2  -5   1 3.63157 2.99099   3
   2  -5   1 -0.1782 2.28169   2
   2  -5   1 6.88749 4.86493   1
   2  -5   1 2.76095 1.81079   2
  -3   5  -1 155.425 8.44463   2
  -3   5  -1 146.486 8.39765   2
  -3   5  -1 155.791 19.7088   1
  -3   5  -1 144.913 8.14710   3
   3  -5   1 166.503 8.57982   3
   3  -5   1 157.877 8.59144   2
   3  -5   1 151.795 8.91380   2
   3  -5   1 149.261 19.0636   1
  -4   5  -1 114.045 8.75628   2
  -4   5  -1 96.3156 7.60781   2
  -4   5  -1 123.969 19.5893   1
  -4   5  -1 118.350 8.44963   3
   4  -5   1 109.737 8.40590   2
   4  -5   1 120.500 8.29412   2
   4  -5   1 114.638 8.08919   3
   4  -5   1 106.605 19.4889   1
  -5   5  -1 76.6307 7.96053   3
  -5   5  -1 57.2853 7.09626   2
  -5   5  -1 71.9825 21.6344   1
  -5   5  -1 86.2103 8.06080   2
   5  -5   1 69.6647 8.22111   2
   5  -5   1 74.2656 7.56012   2
   5  -5   1 36.5678 25.2849   1
   5  -5   1 71.4084 7.33734   3
  -6   5  -1 93.1956 10.2122   2
   6  -5   1 91.1000 9.14752   2
   6  -5   1 96.2180 9.35589   2
   6  -5   1 61.3573 29.1191   1
   6  -5   1 114.659 9.37286   3
  -7   5  -1 -1.2882 5.40153   2
   7  -5   1 3.50888 4.14950   3
   7  -5   1 2.49282 4.45967   2
   7  -5   1 2.58781 4.40669   2
  -8   5  -1 3.11985 6.57064   2
   8  -5   1 -0.0597 5.43056   2
   8  -5   1 8.49252 5.34191   3
  10   4  -1 -1.3277 4.70301   2
  10   4  -1 7.03482 6.76024   3
 -10  -4   1 16.9367 5.66501   2
 -10  -4   1 8.69348 3.57777   2
   9   4  -1 0.63209 5.93874   3
   9   4  -1 -0.7048 3.63985   2
  -9  -4   1 -4.4637 3.70699   2
  -9  -4   1 4.42402 3.02659   2
  -9  -4   1 1.49880 15.1455   1
   8   4  -1 -12.811 7.43263   1
   8   4  -1 1.43981 5.24176   3
   8   4  -1 -2.9427 2.82099   2
  -8  -4   1 0.18008 3.54360   2
  -8  -4   1 -0.0299 2.75375   2
  -8  -4   1 -1.6382 7.58202   1
   7   4  -1 13.1327 3.89586   2
   7   4  -1 11.4190 5.54024   3
   7   4  -1 16.9455 3.91571   2
   7   4  -1 28.6175 8.88685   1
  -7  -4   1 16.4528 4.09298   2
  -7  -4   1 19.7098 8.46563   1
  -7  -4   1 18.8283 4.12539   2
   6   4  -1 284.357 10.7866   2
   6   4  -1 268.717 30.5748   1
   6   4  -1 275.327 12.6404   3
   6   4  -1 284.329 10.8946   2
  -6  -4   1 292.152 10.8209   2
  -6  -4   1 283.326 10.7411   2
  -6  -4   1 276.297 23.5724   1
   5   4  -1 149.320 8.50651   3
   5   4  -1 152.337 14.8884   1
   5   4  -1 162.845 7.01380   2
   5   4  -1 152.731 6.79941   2
  -5  -4   1 159.755 6.88350   2
  -5  -4   1 151.633 6.82886   2
  -5  -4   1 168.242 17.3338   1
   4   4  -1 644.974 22.2361   3
   4   4  -1 688.452 15.7580   2
   4   4  -1 694.805 15.7055   2
   4   4  -1 687.792 28.1507   1
  -4  -4   1 555.099 18.7322   2
  -4  -4   1 724.790 28.8006   1
  -4  -4   1 698.353 15.6175   2
   3   4  -1 1219.04 24.4534   2
   3   4  -1 1260.73 24.5043   2
   3   4  -1 1259.29 34.6558   1
  -3  -4   1 1231.02 24.2797   2
  -3  -4   1 1215.44 24.3082   2
  -3  -4   1 1215.96 34.0838   1
   2   4  -1 502.179 10.2409   2
   2   4  -1 499.901 13.3487   3
   2   4  -1 505.378 15.0528   1
   2   4  -1 503.811 10.2416   2
  -2  -4   1 475.701 9.93892   2
  -2  -4   1 506.366 10.0116   2
  -2  -4   1 491.343 14.9761   1
   1   4  -1 212.293 7.49126   3
   1   4  -1 214.141 5.50143   2
   1   4  -1 210.203 5.53172   2
   1   4  -1 213.830 10.3811   1
   1   4  -1 216.845 10.5050   1
  -1  -4   1 218.835 5.45296   2
  -1  -4   1 209.977 7.48167   3
  -1  -4   1 201.617 5.32283   2
   0   4  -1 736.654 17.2937   3
   0   4  -1 776.855 28.1136   1
   0   4  -1 740.461 16.1929   2
   0   4  -1 714.699 16.0809   2
   0  -4   1 729.341 16.0845   2
   0  -4   1 723.938 27.4241   1
   0  -4   1 713.146 17.2292   3
  -1   4  -1 19.9704 3.04430   2
  -1   4  -1 16.5486 5.95397   1
  -1   4  -1 20.7771 3.10063   3
  -1   4  -1 19.5766 3.01423   2
   1  -4   1 17.0708 2.64177   2
   1  -4   1 21.6612 5.68130   1
   1  -4   1 16.5108 2.75393   2
   1  -4   1 18.3176 2.90284   3
  -2   4  -1 3.84415 2.26305   3
  -2   4  -1 5.13419 4.35912   1
  -2   4  -1 4.52880 2.55769   2
  -2   4  -1 2.20273 2.52547   2
   2  -4   1 -0.0923 2.42259   2
   2  -4   1 -1.4350 3.19178   1
   2  -4   1 4.76617 2.53125   3
  -3   4  -1 17.2598 3.66848   2
  -3   4  -1 8.61233 3.28615   2
  -3   4  -1 12.6959 6.63385   1
  -3   4  -1 12.1308 3.33446   3
   3  -4   1 11.0502 5.98246   1
   3  -4   1 12.4681 3.45747   2
   3  -4   1 6.61884 5.24077   3
   3  -4   1 13.6817 3.95495   2
  -4   4  -1 1.04120 2.94511   2
  -4   4  -1 2.33883 3.27991   2
  -4   4  -1 -3.0687 3.01105   3
   4  -4   1 0.36356 2.79660   2
   4  -4   1 -3.5431 5.20029   1
   4  -4   1 3.08284 3.11469   3
   4  -4   1 1.78945 3.69823   2
  -5   4  -1 2.78080 3.81865   3
  -5   4  -1 3.21050 3.49344   2
  -5   4  -1 3.77384 9.79420   1
  -5   4  -1 -3.3244 3.93221   2
   5  -4   1 6.45731 3.72354   3
   5  -4   1 4.68461 3.74666   2
   5  -4   1 -0.4742 3.71783   2
   5  -4   1 2.77995 9.20069   1
  -6   4  -1 1.88631 4.07804   2
  -6   4  -1 4.92337 13.5155   1
   6  -4   1 11.7928 12.1296   1
   6  -4   1 -2.8888 3.27583   3
   6  -4   1 -5.5721 2.91135   2
   6  -4   1 3.23883 4.00615   2
  -7   4  -1 43.8646 7.45921   2
  -7   4  -1 18.5345 31.8873   1
   7  -4   1 43.5440 7.63079   2
   7  -4   1 23.8852 16.7511   1
   7  -4   1 39.1126 8.96352   3
   7  -4   1 30.6923 6.04572   2
  -8   4  -1 8.59890 5.77882   2
   8  -4   1 16.7974 5.88294   2
   8  -4   1 21.9926 5.49622   3
   8  -4   1 27.0263 6.55761   2
  10   3  -1 16.9679 5.43436   2
  10   3  -1 27.9487 8.02309   3
 -10  -3   1 21.9506 6.56421   2
 -10  -3   1 18.7410 5.30033   2
   9   3  -1 1.82734 23.8856   1
   9   3  -1 5.41886 3.96077   2
   9   3  -1 -3.4418 5.21876   3
  -9  -3   1 -4.8294 3.97703   2
  -9  -3   1 2.63180 15.6377   1
   8   3  -1 -2.2485 5.35409   3
   8   3  -1 14.8085 8.71864   1
   8   3  -1 1.28675 3.33531   2
  -8  -3   1 3.83876 3.68183   2
   7   3  -1 10.0290 5.62357   3
   7   3  -1 6.84864 4.08625   2
   7   3  -1 7.37911 8.40373   1
  -7  -3   1 8.45552 2.78546   2
  -7  -3   1 13.0983 4.09550   2
  -7  -3   1 19.4356 8.36973   1
   6   3  -1 35.6083 4.74013   2
   6   3  -1 25.6051 7.57090   1
   6   3  -1 30.2625 5.88264   3
   6   3  -1 30.7325 4.58375   2
  -6  -3   1 31.3588 4.83526   2
  -6  -3   1 36.7120 8.90265   1
  -6  -3   1 31.2920 4.62782   2
   5   3  -1 172.611 7.58875   2
   5   3  -1 171.425 16.7065   1
   5   3  -1 175.820 9.19907   3
   5   3  -1 168.435 7.47102   2
  -5  -3   1 165.491 7.50687   2
  -5  -3   1 175.199 16.4266   1
  -5  -3   1 159.344 7.37024   2
   4   3  -1 82.9150 4.70809   2
   4   3  -1 89.3849 10.0861   1
   4   3  -1 74.2489 6.95425   3
  -4  -3   1 85.5779 4.81472   2
  -4  -3   1 74.5868 9.43576   1
  -4  -3   1 79.3135 4.68624   2
   3   3  -1 55.8313 3.29243   2
   3   3  -1 57.7017 3.34681   2
   3   3  -1 46.7016 9.82956   1
  -3  -3   1 55.8702 3.35120   2
  -3  -3   1 56.7945 6.71615   1
  -3  -3   1 60.6391 3.41142   2
   2   3  -1 266.636 6.13966   2
   2   3  -1 285.358 10.5963   1
   2   3  -1 267.597 6.13162   2
  -2  -3   1 277.974 6.05399   2
  -2  -3   1 266.745 6.03169   2
  -2  -3   1 268.443 10.2454   1
   1   3  -1 571.692 15.1214   1
   1   3  -1 579.781 15.1352   1
   1   3  -1 547.697 13.1715   3
   1   3  -1 566.703 11.0403   2
   1   3  -1 561.049 11.0351   2
  -1  -3   1 554.930 13.2428   3
  -1  -3   1 544.220 10.8739   2
  -1  -3   1 568.818 10.9320   2
   0   3  -1 1719.27 33.3267   2
   0   3  -1 1820.26 44.9080   1
   0   3  -1 1723.58 34.3069   3
   0   3  -1 1721.33 33.2987   2
   0  -3   1 1725.00 33.3133   2
   0  -3   1 1682.89 34.2109   3
   0  -3   1 1757.93 44.5408   1
   0  -3   1 1669.11 33.2243   2
  -1   3  -1 311.346 18.6087   1
  -1   3  -1 286.452 8.64372   2
  -1   3  -1 286.694 8.60450   2
  -1   3  -1 282.957 8.42866   3
   1  -3   1 296.133 18.0456   1
   1  -3   1 271.799 8.47746   2
   1  -3   1 273.052 8.42661   3
   1  -3   1 304.092 8.63568   2
  -2   3  -1 287.854 9.59910   2
  -2   3  -1 295.783 21.5014   1
  -2   3  -1 288.846 9.07687   3
  -2   3  -1 296.798 9.64840   2
   2  -3   1 275.853 9.58448   2
   2  -3   1 296.708 20.8901   1
   2  -3   1 275.358 9.03490   3
  -3   3  -1 102.113 14.1859   1
  -3   3  -1 126.705 6.94198   2
  -3   3  -1 118.267 6.57699   3
  -3   3  -1 129.340 7.01760   2
   3  -3   1 127.877 6.53505   3
   3  -3   1 114.193 6.66468   2
   3  -3   1 130.959 15.6634   1
  -4   3  -1 88.1026 6.74009   2
  -4   3  -1 97.6476 7.03595   2
  -4   3  -1 90.3256 6.57389   3
   4  -3   1 90.7243 6.92370   2
   4  -3   1 82.8216 6.43326   3
   4  -3   1 96.9708 14.8922   1
   4  -3   1 94.6029 8.57338   2
  -5   3  -1 305.840 13.2697   2
  -5   3  -1 306.890 30.0738   1
  -5   3  -1 294.642 12.0762   3
  -5   3  -1 280.829 12.7414   2
   5  -3   1 312.870 13.2686   2
   5  -3   1 278.089 28.3544   1
   5  -3   1 295.402 12.0982   3
   5  -3   1 288.150 12.9626   2
  -6   3  -1 100.256 15.3233   2
  -6   3  -1 74.0014 19.6571   1
  -6   3  -1 96.9929 8.60226   3
  -6   3  -1 87.3511 8.14860   2
   6  -3   1 101.495 8.33046   3
   6  -3   1 106.448 9.04664   2
   6  -3   1 79.0231 8.24138   2
  -7   3  -1 2.24981 4.37261   2
  -7   3  -1 -16.285 14.9681   1
  -7   3  -1 2.41523 4.56544   2
   7  -3   1 8.36686 11.8626   1
   7  -3   1 0.38187 3.72339   2
   7  -3   1 3.71697 4.13548   3
   7  -3   1 0.44390 4.44011   2
  -8   3  -1 -51.295 35.2783   1
  -8   3  -1 2.12703 4.76791   2
   8  -3   1 3.98846 4.52956   3
   8  -3   1 -1.3570 4.52034   2
   8  -3   1 46.1950 23.7186   1
   8  -3   1 -5.5555 4.04946   2
  -9   3  -1 17.4503 6.44814   2
   9  -3   1 31.5047 7.16584   3
   9  -3   1 15.8282 6.17252   2
  10   2  -1 3.45506 6.17682   3
  10   2  -1 -3.9872 4.40523   2
 -10  -2   1 0.56988 4.40416   2
 -10  -2   1 0.19314 3.77295   2
   9   2  -1 81.6591 8.25498   2
   9   2  -1 63.2993 9.20503   3
  -9  -2   1 78.3040 9.38578   2
  -9  -2   1 90.2860 7.80198   2
  -9  -2   1 72.0937 28.0303   1
   8   2  -1 0.04049 5.33021   3
   8   2  -1 7.18372 4.07896   2
   8   2  -1 11.6777 10.4417   1
  -8  -2   1 0.83524 3.76002   2
  -8  -2   1 1.27890 3.61424   2
  -8  -2   1 18.0103 10.5114   1
   7   2  -1 5.08127 3.46807   2
   7   2  -1 7.92067 5.61721   3
   7   2  -1 4.86855 9.00278   1
   7   2  -1 8.66360 3.97844   2
  -7  -2   1 10.0876 8.19914   1
  -7  -2   1 -1.7146 3.17593   2
  -7  -2   1 5.06160 3.76186   2
   6   2  -1 38.0856 6.52890   3
   6   2  -1 45.0767 5.14671   2
   6   2  -1 38.4892 5.26497   2
   6   2  -1 19.3484 8.59957   1
  -6  -2   1 42.0286 5.51628   2
   5   2  -1 257.119 21.1977   1
   5   2  -1 271.784 9.83767   2
   5   2  -1 265.419 10.9285   3
   5   2  -1 246.633 9.49975   2
  -5  -2   1 250.511 9.60850   2
   4   2  -1 78.6355 4.94600   2
   4   2  -1 75.2600 6.34940   3
   4   2  -1 72.5786 4.80276   2
   4   2  -1 79.2447 10.1250   1
  -4  -2   1 76.7533 10.1440   1
  -4  -2   1 78.8312 4.97062   2
  -4  -2   1 77.4306 4.76718   2
   3   2  -1 410.845 10.3889   2
   3   2  -1 402.398 11.6012   3
   3   2  -1 412.389 10.4745   2
   3   2  -1 425.527 20.1512   1
  -3  -2   1 413.389 20.0325   1
  -3  -2   1 404.139 10.3848   2
  -3  -2   1 414.232 10.4548   2
   2   2  -1 159.934 4.48624   2
   2   2  -1 158.306 8.73403   1
   2   2  -1 156.767 4.46698   2
  -2  -2   1 155.722 4.46349   2
  -2  -2   1 176.799 9.14524   1
  -2  -2   1 155.866 4.48188   2
   1   2  -1 360.563 8.84988   3
   0   2  -1 1579.76 30.4445   3
   0   2  -1 1658.81 37.9911   1
   0   2  -1 1601.98 29.8151   2
   0   2  -1 1532.28 29.7507   2
   0  -2   1 1535.09 30.3868   3
   0  -2   1 1675.21 37.8866   1
   0  -2   1 1506.00 29.7015   2
   0  -2   1 1493.25 29.7087   2
  -1   2  -1 4377.77 97.8481   1
   1  -2   1 4305.05 97.1270   1
  -2   2  -1 878.877 19.6049   3
  -2   2  -1 924.690 37.3366   1
  -2   2  -1 896.880 20.4674   2
  -2   2  -1 903.496 20.6228   2
   2  -2   1 918.585 37.0154   1
   2  -2   1 895.920 19.6370   3
   2  -2   1 891.201 20.5024   2
   2  -2   1 850.736 20.3280   2
  -3   2  -1 490.894 13.3109   3
  -3   2  -1 463.185 13.8696   2
  -3   2  -1 483.420 14.0983   2
  -3   2  -1 486.670 29.7509   1
   3  -2   1 479.056 14.0800   2
   3  -2   1 489.046 13.1698   3
   3  -2   1 481.153 14.0687   2
   3  -2   1 503.194 30.0156   1
  -4   2  -1 174.169 8.19108   3
  -4   2  -1 160.383 18.0539   1
  -4   2  -1 180.326 8.84373   2
  -4   2  -1 169.267 8.61269   2
   4  -2   1 176.288 8.71892   2
   4  -2   1 170.833 8.65865   2
   4  -2   1 183.125 19.1412   1
   4  -2   1 168.602 7.96784   3
  -5   2  -1 131.525 8.70656   2
  -5   2  -1 115.451 9.65577   2
  -5   2  -1 104.678 18.8005   1
  -5   2  -1 141.883 8.05375   3
   5  -2   1 117.382 7.68886   3
   5  -2   1 134.835 8.63266   2
   5  -2   1 122.667 18.3955   1
   5  -2   1 121.245 8.36365   2
  -6   2  -1 44.9055 6.60454   2
  -6   2  -1 41.3280 7.73740   2
  -6   2  -1 23.9328 13.4080   1
  -6   2  -1 41.9522 5.97295   3
   6  -2   1 43.4057 6.56676   2
   6  -2   1 37.5696 10.5411   1
   6  -2   1 46.4985 6.27274   3
   6  -2   1 54.7307 6.92215   2
  -7   2  -1 44.5231 6.96997   2
  -7   2  -1 25.6603 14.2934   1
  -7   2  -1 42.5349 7.32653   2
   7  -2   1 61.1891 8.19856   2
   7  -2   1 51.7176 7.40588   2
   7  -2   1 12.4481 12.2719   1
   7  -2   1 38.5985 6.22085   3
  -8   2  -1 11.1068 5.38025   2
  -8   2  -1 6.58379 17.2054   1
  -8   2  -1 5.57198 4.82957   2
   8  -2   1 5.13945 4.75799   2
   8  -2   1 2.59269 4.58434   2
   8  -2   1 27.7866 17.2011   1
  -9   2  -1 30.2906 7.95847   2
   9  -2   1 40.4890 8.31461   2
   9  -2   1 40.6635 7.63055   3
  10   1  -1 -4.8406 5.07381   3
  10   1  -1 10.0361 6.03451   2
 -10  -1   1 -0.5907 4.56266   2
   9   1  -1 8.17706 5.98880   3
   9   1  -1 3.18685 4.24752   2
  -9  -1   1 -1.0496 4.33498   2
   8   1  -1 -14.037 9.77951   1
   8   1  -1 2.48637 5.54103   3
   8   1  -1 0.44925 3.46216   2
  -8  -1   1 4.10696 3.94199   2
  -8  -1   1 9.47668 11.6759   1
  -8  -1   1 -2.9042 2.71389   2
   7   1  -1 9.29278 4.02753   2
   7   1  -1 9.71175 4.45641   2
   7   1  -1 11.8606 9.81460   1
   7   1  -1 10.5993 5.49516   3
  -7  -1   1 15.3327 4.40797   2
  -7  -1   1 -10.731 10.6529   1
  -7  -1   1 22.7581 4.66439   3
  -7  -1   1 14.3618 4.69977   2
   6   1  -1 21.0407 8.28756   1
   6   1  -1 9.75836 3.64441   2
   6   1  -1 7.17076 5.09439   3
   6   1  -1 15.3735 4.01551   2
  -6  -1   1 -2.0845 5.10096   1
  -6  -1   1 12.5299 3.69171   3
  -6  -1   1 7.42809 3.65098   2
  -6  -1   1 16.4164 3.97412   2
   5   1  -1 508.259 16.1471   3
   5   1  -1 508.298 15.2211   2
   5   1  -1 515.470 15.4041   2
   5   1  -1 529.537 32.6733   1
  -5  -1   1 482.615 31.3049   1
  -5  -1   1 521.316 15.4130   3
  -5  -1   1 514.012 15.2888   2
   4   1  -1 204.829 9.05077   3
   4   1  -1 195.328 17.2131   1
   4   1  -1 217.614 8.14744   2
   4   1  -1 217.050 8.15845   2
  -4  -1   1 219.105 8.41018   3
  -4  -1   1 213.988 8.32619   2
  -4  -1   1 192.370 17.3431   1
   3   1  -1 65.5611 4.06829   2
   3   1  -1 72.9109 9.02224   1
   3   1  -1 67.5566 4.10879   2
   3   1  -1 69.9055 5.33198   3
  -3  -1   1 73.3032 4.75201   3
  -3  -1   1 69.4155 4.14515   2
   2   1  -1 307.069 7.79852   2
   2   1  -1 319.970 8.57591   3
   2   1  -1 309.793 7.78228   2
   2   1  -1 318.392 14.8596   1
  -2  -1   1 311.922 8.50400   3
  -2  -1   1 303.249 7.70809   2
  -2  -1   1 310.495 14.7482   1
  -2  -1   1 305.749 7.76844   2
   1   1  -1 1980.48 36.8972   2
   1   1  -1 2032.13 36.9300   2
   1   1  -1 2035.22 41.1831   1
  -1  -1   1 1997.87 41.0654   1
  -1  -1   1 2001.85 36.9085   2
   0   1  -1 499.626 10.2519   3
   0   1  -1 522.471 14.2144   1
   0   1  -1 512.152 10.0902   2
   0   1  -1 503.497 10.0811   2
   0  -1   1 494.071 10.0346   2
   0  -1   1 507.737 10.2766   3
   0  -1   1 531.758 14.4294   1
   0  -1   1 506.358 10.0695   2
  -1   1  -1 1226.62 38.7067   1
  -1   1  -1 1287.92 24.3698   3
  -1   1  -1 1263.43 25.0532   2
  -1   1  -1 1262.39 25.0956   2
   1  -1   1 1298.17 24.4024   3
   1  -1   1 1264.37 25.0844   2
   1  -1   1 1205.09 37.4657   1
  -2   1  -1 2020.71 40.3095   3
  -2   1  -1 2097.29 41.5597   2
  -2   1  -1 2204.84 60.8755   1
  -2   1  -1 2058.70 41.4151   2
   2  -1   1 1993.70 41.3182   2
   2  -1   1 2062.21 40.3936   3
   2  -1   1 2171.24 60.2937   1
   2  -1   1 2106.37 41.5787   2
  -3   1  -1 2.17566 2.47848   2
  -3   1  -1 1.34016 2.46906   2
  -3   1  -1 0.18438 2.55762   3
  -3   1  -1 5.23724 3.35560   1
   3  -1   1 1.95639 2.47831   2
   3  -1   1 0.22086 2.39998   2
   3  -1   1 0.23388 4.00480   1
   3  -1   1 2.76879 2.40980   3
  -4   1  -1 303.421 24.8272   1
  -4   1  -1 306.323 11.1323   2
  -4   1  -1 299.346 10.2427   3
  -4   1  -1 310.870 11.2493   2
   4  -1   1 312.784 10.3919   3
   4  -1   1 288.246 24.3214   1
   4  -1   1 287.571 11.0432   2
   4  -1   1 316.461 11.4218   2
  -5   1  -1 180.217 22.2722   1
  -5   1  -1 193.853 9.04011   3
  -5   1  -1 198.461 9.95788   2
  -5   1  -1 190.569 9.65677   2
   5  -1   1 200.932 9.96365   2
   5  -1   1 198.271 9.30968   3
   5  -1   1 212.791 21.8828   1
   5  -1   1 196.673 9.85703   2
  -6   1  -1 224.930 10.5074   3
  -6   1  -1 206.823 11.7149   2
  -6   1  -1 226.548 12.0452   2
  -6   1  -1 250.457 26.5960   1
   6  -1   1 214.657 24.7895   1
   6  -1   1 237.300 11.1850   3
   6  -1   1 244.658 14.4122   2
   6  -1   1 240.913 14.1353   2
  -7   1  -1 98.6245 7.69465   3
  -7   1  -1 91.6163 20.9223   1
  -7   1  -1 119.102 9.77416   2
  -7   1  -1 106.508 9.21977   2
   7  -1   1 111.048 9.47114   2
   7  -1   1 92.6605 20.5477   1
   7  -1   1 124.406 9.37327   3
   7  -1   1 106.284 8.94695   2
  -8   1  -1 -0.0300 4.58850   2
  -8   1  -1 -2.4236 14.2061   1
  -8   1  -1 4.53798 4.15075   2
   8  -1   1 -2.0206 4.29166   2
   8  -1   1 13.6708 15.7331   1
   8  -1   1 2.39557 4.29403   3
   8  -1   1 7.34452 4.41482   2
  -9   1  -1 -1.0130 4.59364   2
  -9   1  -1 -4.2473 6.05522   2
   9  -1   1 -5.3527 4.15418   2
   9  -1   1 -3.4062 4.04594   3
 -10   1  -1 9.76201 5.47867   2
  10  -1   1 0.21051 5.23727   3
  10  -1   1 -3.4843 4.52746   2
  10   0  -1 10.8794 5.23396   2
  10   0  -1 8.98031 5.90500   3
 -10   0   1 9.88786 5.15843   2
   9   0  -1 3.33877 5.31390   2
   9   0  -1 -4.9048 4.44532   3
  -9   0   1 -0.9952 3.70923   2
   8   0  -1 2.04430 4.44710   2
   8   0  -1 2.20898 11.3142   1
   8   0  -1 3.79765 4.96516   3
   8   0  -1 2.83639 3.98845   2
  -8   0   1 2.66944 4.26251   2
  -8   0   1 -1.5557 3.65028   2
  -8   0   1 -0.4148 11.2156   1
   7   0  -1 33.0897 6.58106   3
   7   0  -1 17.7015 4.90740   2
   7   0  -1 26.5954 5.54266   2
   7   0  -1 20.8677 10.4533   1
  -7   0   1 21.8872 5.82128   2
  -7   0   1 24.0919 9.21826   1
  -7   0   1 21.9886 5.12223   2
  -7   0   1 30.8101 5.18888   3
   6   0  -1 348.533 14.3163   3
   6   0  -1 345.573 13.5696   2
   6   0  -1 322.554 30.3291   1
   6   0  -1 347.300 13.7487   2
  -6   0   1 334.284 12.9779   3
  -6   0   1 373.090 31.0055   1
  -6   0   1 331.527 13.4182   2
  -6   0   1 377.176 14.1095   2
   5   0  -1 320.006 11.7672   2
   5   0  -1 306.317 25.4706   1
   5   0  -1 351.247 14.4553   2
   5   0  -1 299.665 12.0519   3
  -5   0   1 317.570 11.7251   2
  -5   0   1 312.258 11.8848   2
  -5   0   1 311.597 11.5410   3
  -5   0   1 304.323 35.0895   1
   4   0  -1 328.862 23.6987   1
   4   0  -1 343.022 11.3329   2
   4   0  -1 335.540 11.0716   2
  -4   0   1 340.295 11.3361   2
  -4   0   1 326.719 11.0283   2
  -4   0   1 332.716 23.7944   1
  -4   0   1 344.571 11.3381   3
   3   0  -1 1470.51 31.9069   3
   3   0  -1 1506.62 31.7830   2
   3   0  -1 1537.70 31.9263   2
   3   0  -1 1580.25 51.0676   1
  -3   0   1 1480.06 31.7689   2
  -3   0   1 1573.73 31.9807   3
  -3   0   1 1574.45 51.2289   1
  -3   0   1 1478.09 31.7618   2
   2   0  -1 9.37223 2.02055   2
   2   0  -1 6.06114 2.99374   1
   2   0  -1 4.57138 2.31573   3
   2   0  -1 4.29550 1.82744   2
  -2   0   1 8.15485 2.26810   3
  -2   0   1 7.35903 1.95699   2
  -2   0   1 5.28968 2.82864   1
   1   0  -1 2510.02 55.3154   1
   0   0   1 1.88215 0.98262   1
   0   0   1 1.96908 0.60985   2
  -1   0  -1 778.275 15.2795   3
  -1   0  -1 750.371 16.0802   2
  -1   0  -1 773.048 16.1387   2
  -1   0  -1 840.931 25.0533   1
   1   0   1 781.476 16.1657   2
   1   0   1 763.609 16.0977   2
   1   0   1 829.118 24.9675   1
   1   0   1 807.186 15.3217   3
  -2   0  -1 2170.58 41.6416   2
  -2   0  -1 2116.25 57.5124   1
  -2   0  -1 2090.93 41.3758   2
  -2   0  -1 2166.48 40.4671   3
   2   0   1 2040.81 68.4725   1
   2   0   1 2073.00 41.3375   2
   2   0   1 2129.25 41.4115   2
   2   0   1 2079.67 40.3944   3
  -3   0  -1 234.315 8.45468   2
  -3   0  -1 239.881 18.3718   1
  -3   0  -1 232.502 7.76643   3
  -3   0  -1 235.520 8.43184   2
   3   0   1 248.605 8.60454   2
   3   0   1 231.365 8.44477   2
   3   0   1 252.399 8.36046   3
   3   0   1 223.509 20.0559   1
  -4   0  -1 15.7372 6.11590   1
  -4   0  -1 20.3155 3.35320   3
  -4   0  -1 16.5074 3.44820   2
  -4   0  -1 18.8597 3.51754   2
   4   0   1 15.7025 7.22138   1
   4   0   1 17.8708 3.53846   2
   4   0   1 20.3015 3.75641   3
   4   0   1 17.6658 3.55187   2
  -5   0  -1 171.748 9.11218   2
  -5   0  -1 186.750 8.35569   3
  -5   0  -1 191.579 9.32515   2
  -5   0  -1 192.154 20.4718   1
   5   0   1 223.261 22.7872   1
   5   0   1 195.933 11.0747   3
   5   0   1 204.807 9.55768   2
   5   0   1 205.282 9.56802   2
  -6   0  -1 173.900 10.0054   2
  -6   0  -1 180.332 9.10105   3
  -6   0  -1 158.052 22.4163   1
   6   0   1 188.129 10.6839   2
   6   0   1 169.087 9.79889   3
   6   0   1 179.267 9.87365   2
   6   0   1 176.873 22.8318   1
  -7   0  -1 6.82853 4.08682   3
  -7   0  -1 0.48183 9.28653   1
  -7   0  -1 11.1178 4.41511   2
  -7   0  -1 12.3686 4.29600   2
   7   0   1 6.54394 4.13854   2
   7   0   1 7.76657 4.55543   2
   7   0   1 -4.2129 7.12512   1
   7   0   1 8.92618 4.89530   3
  -8   0  -1 -2.8657 4.43050   2
  -8   0  -1 36.6295 16.7815   1
  -8   0  -1 12.2429 4.29129   2
   8   0   1 3.49041 4.37454   2
   8   0   1 10.3779 14.6442   1
   8   0   1 1.11000 4.52509   3
  -9   0  -1 4.34827 5.18270   2
  -9   0  -1 -3.7568 4.28310   2
  -9   0  -1 -34.040 18.2555   1
   9   0   1 -2.2849 3.99182   2
   9   0   1 -5.2007 4.01276   3
 -10   0  -1 17.5127 6.23387   2
  10   0   1 11.9940 5.31190   2
  10   0   1 5.43892 5.60034   3
  10  -1  -1 5.81398 4.84597   2
  10  -1  -1 -8.6328 5.52251   3
 -10   1   1 5.88083 5.18919   2
   9  -1  -1 1.24047 4.75911   3
   9  -1  -1 2.59362 4.31198   2
  -9   1   1 8.36454 4.82658   2
   8  -1  -1 56.7327 7.41377   2
   8  -1  -1 28.4509 16.3042   1
   8  -1  -1 57.1507 9.63397   2
  -8   1   1 45.2106 19.2626   1
  -8   1   1 63.7150 7.98861   2
   7  -1  -1 29.4073 5.80305   2
   7  -1  -1 17.7669 12.9769   1
   7  -1  -1 26.5331 5.57302   2
   7  -1  -1 22.0244 5.66035   3
  -7   1   1 28.1136 5.95409   2
  -7   1   1 33.7894 12.7641   1
  -7   1   1 30.3021 5.49690   2
   6  -1  -1 139.553 20.2171   1
   6  -1  -1 140.296 9.01031   2
   6  -1  -1 125.890 8.77530   2
   6  -1  -1 115.223 9.14997   3
  -6   1   1 125.104 8.92801   2
  -6   1   1 140.286 20.3053   1
  -6   1   1 131.428 8.78204   2
  -6   1   1 133.572 8.50491   3
   5  -1  -1 184.832 21.8878   1
   5  -1  -1 220.469 10.3785   3
   5  -1  -1 198.001 9.63991   2
   5  -1  -1 215.765 10.3437   2
  -5   1   1 210.402 9.59603   3
  -5   1   1 212.540 9.80977   2
  -5   1   1 217.937 22.5890   1
   4  -1  -1 166.767 7.87664   2
   4  -1  -1 163.006 7.89851   2
   4  -1  -1 167.383 17.7046   1
   4  -1  -1 164.033 8.08519   3
  -4   1   1 170.399 8.15158   2
  -4   1   1 180.741 18.4635   1
  -4   1   1 165.163 7.93642   3
  -4   1   1 169.220 8.01287   2
   3  -1  -1 322.406 10.4209   2
   3  -1  -1 338.655 23.2301   1
   3  -1  -1 309.327 10.1394   2
   3  -1  -1 323.144 10.4363   3
  -3   1   1 309.406 22.6450   1
  -3   1   1 300.692 10.1332   2
  -3   1   1 323.281 10.2542   2
  -3   1   1 317.043 10.3272   3
   2  -1  -1 1755.97 35.7376   2
   2  -1  -1 1763.93 35.7774   2
   2  -1  -1 1863.78 53.4203   1
   2  -1  -1 1764.40 35.5953   3
  -2   1   1 1846.69 53.1378   1
  -2   1   1 1771.73 35.8221   2
  -2   1   1 1723.50 35.7608   2
  -2   1   1 1794.86 35.5426   3
   1  -1  -1 1813.78 35.8153   2
   1  -1  -1 1959.47 48.4597   1
   1  -1  -1 1841.77 35.8618   2
   1  -1  -1 1910.16 35.7406   3
  -1   1   1 1806.51 35.8587   2
  -1   1   1 1855.77 35.6564   3
  -1   1   1 1842.65 35.8433   2
  -1  -1  -1 403.521 9.00488   2
  -1  -1  -1 410.822 15.6794   1
  -1  -1  -1 393.349 8.94557   2
   1   1   1 395.286 8.96390   2
   1   1   1 420.105 16.0641   1
   1   1   1 378.103 8.90552   2
  -2  -1  -1 470.294 11.4213   2
  -2  -1  -1 498.776 21.7269   1
  -2  -1  -1 454.576 11.3605   2
   2   1   1 475.613 11.5339   2
   2   1   1 464.367 21.1227   1
   2   1   1 491.755 11.0697   3
   2   1   1 477.676 11.4772   2
  -3  -1  -1 186.135 7.09386   2
  -3  -1  -1 185.145 15.2617   1
  -3  -1  -1 185.027 6.60374   3
  -3  -1  -1 179.361 7.03916   2
   3   1   1 190.350 15.5962   1
   3   1   1 183.162 7.01412   3
   3   1   1 186.041 7.09469   2
   3   1   1 186.262 7.04805   2
  -4  -1  -1 376.524 11.0855   3
  -4  -1  -1 387.753 26.2967   1
  -4  -1  -1 378.543 11.8616   2
  -4  -1  -1 349.746 11.5755   2
   4   1   1 380.163 26.6375   1
   4   1   1 364.452 11.5038   3
   4   1   1 364.067 11.6809   2
   4   1   1 376.218 11.8576   2
  -5  -1  -1 172.043 8.55837   2
  -5  -1  -1 172.475 18.8064   1
  -5  -1  -1 174.227 8.48218   2
  -5  -1  -1 169.377 7.87529   3
   5   1   1 162.017 8.26848   2
   5   1   1 150.292 18.4066   1
   5   1   1 184.298 8.66856   2
   5   1   1 161.432 10.3600   3
  -6  -1  -1 87.6267 7.25179   2
  -6  -1  -1 82.8976 16.5131   1
  -6  -1  -1 73.0552 6.80840   2
  -6  -1  -1 85.6751 6.39868   3
   6   1   1 75.3074 6.74274   2
   6   1   1 74.8524 7.98600   3
   6   1   1 65.2041 14.3517   1
   6   1   1 79.2353 6.91922   2
  -7  -1  -1 57.6668 7.35138   2
  -7  -1  -1 78.2111 7.66453   2
  -7  -1  -1 89.5852 17.3705   1
   7   1   1 76.5146 8.64743   3
   7   1   1 78.8261 7.44855   2
   7   1   1 71.0565 18.2902   1
   7   1   1 79.9445 8.34824   2
  -8  -1  -1 -1.6783 3.40612   2
  -8  -1  -1 10.5040 13.7576   1
  -8  -1  -1 6.26496 4.60575   2
   8   1   1 -8.3979 9.38414   1
   8   1   1 4.96709 4.47662   2
   8   1   1 1.84119 5.07736   3
   8   1   1 2.21976 4.02580   2
  -9  -1  -1 4.31932 4.76483   2
  -9  -1  -1 -2.2337 4.85567   2
  -9  -1  -1 11.2203 17.8861   1
   9   1   1 -6.8463 17.1043   1
   9   1   1 7.81889 5.40512   3
 -10  -1  -1 42.8779 7.69785   2
  10   1   1 44.2489 7.84946   2
  10   1   1 55.7517 8.62838   3
   9  -2  -1 9.03486 5.45935   2
   9  -2  -1 8.02242 5.35734   3
  -9   2   1 11.5398 5.09122   2
  -9   2   1 4.97965 5.44076   2
   8  -2  -1 30.2869 7.08163   3
   8  -2  -1 11.7989 17.4558   1
   8  -2  -1 42.6145 6.66843   2
   8  -2  -1 39.1042 6.94245   2
  -8   2   1 23.6033 18.1393   1
  -8   2   1 44.8510 7.99212   2
  -8   2   1 37.5918 7.16131   2
   7  -2  -1 5.21855 4.00770   2
   7  -2  -1 -8.2232 10.6993   1
   7  -2  -1 3.20179 4.84995   2
   7  -2  -1 -0.9381 4.19634   3
  -7   2   1 14.2461 4.71218   2
  -7   2   1 10.2252 4.78813   2
   6  -2  -1 6.00455 4.04258   2
   6  -2  -1 8.59534 7.65570   1
   6  -2  -1 1.30930 3.90245   3
   6  -2  -1 -1.6078 3.47694   2
  -6   2   1 4.36863 3.70722   2
  -6   2   1 -1.0190 8.11280   1
  -6   2   1 8.43682 4.46193   2
   5  -2  -1 149.851 8.85376   2
   5  -2  -1 139.929 8.58925   2
   5  -2  -1 144.542 8.52394   3
   5  -2  -1 145.880 19.5770   1
  -5   2   1 122.136 10.1001   2
  -5   2   1 132.910 8.09907   3
  -5   2   1 145.503 8.67409   2
  -5   2   1 150.380 20.4332   1
   4  -2  -1 853.102 22.5704   2
   4  -2  -1 862.347 22.5480   3
   4  -2  -1 870.654 45.0226   1
   4  -2  -1 872.068 22.8104   2
  -4   2   1 860.723 22.6022   2
  -4   2   1 933.553 23.3610   2
  -4   2   1 880.364 22.1163   3
  -4   2   1 859.515 44.4227   1
   3  -2  -1 282.755 21.7540   1
   3  -2  -1 274.201 9.69360   3
   3  -2  -1 281.467 9.95850   2
   3  -2  -1 284.436 10.0280   2
  -3   2   1 275.264 9.84902   2
  -3   2   1 289.268 9.90509   3
  -3   2   1 283.308 22.1509   1
  -3   2   1 277.167 10.0376   2
   2  -2  -1 331.133 9.96163   2
   2  -2  -1 317.330 9.55975   3
   2  -2  -1 323.845 9.88426   2
   2  -2  -1 321.910 20.7266   1
  -2   2   1 320.772 9.91950   2
  -2   2   1 336.315 9.83008   3
  -2   2   1 338.572 21.1696   1
  -2   2   1 331.035 9.97240   2
   1  -2  -1 269.336 16.0512   1
   1  -2  -1 259.530 7.63419   2
   1  -2  -1 261.587 7.54968   3
   1  -2  -1 241.829 7.48189   2
  -1   2   1 274.412 7.88897   2
  -1   2   1 261.069 7.64262   2
  -1   2   1 267.548 7.50240   3
   0  -2  -1 716.751 15.1319   2
   0  -2  -1 625.587 25.9286   1
   0  -2  -1 731.845 15.2113   3
   0   2   1 749.798 24.5648   1
   0   2   1 738.163 15.2088   3
   0   2   1 730.303 15.1893   2
   0   2   1 730.345 15.1617   2
   1   2   1 3865.19 82.5734   1
  -2  -2  -1 795.802 17.3641   2
   2   2   1 831.756 28.9123   1
   2   2   1 810.026 17.4440   2
   2   2   1 819.106 17.4721   2
  -3  -2  -1 220.902 7.64260   2
  -3  -2  -1 218.805 7.67721   2
  -3  -2  -1 246.326 16.8571   1
   3   2   1 233.103 7.76481   2
   3   2   1 243.068 16.9629   1
   3   2   1 238.032 7.80476   2
   3   2   1 222.812 7.65287   3
  -4  -2  -1 39.8692 4.25792   2
  -4  -2  -1 44.8853 8.60114   1
  -4  -2  -1 41.1045 4.16383   2
   4   2   1 41.0068 4.88875   3
   4   2   1 34.6942 4.01527   2
   4   2   1 44.0922 9.97132   1
   4   2   1 45.2739 4.35573   2
  -5  -2  -1 110.064 7.00959   2
  -5  -2  -1 107.864 6.52560   2
  -5  -2  -1 98.1229 13.6023   1
   5   2   1 126.956 15.8392   1
   5   2   1 112.109 10.6681   2
   5   2   1 92.9127 8.52829   3
   5   2   1 109.684 6.72640   2
  -6  -2  -1 37.4118 5.44055   2
  -6  -2  -1 39.1046 5.38289   2
  -6  -2  -1 31.7127 10.9802   1
   6   2   1 41.0443 5.48595   2
   6   2   1 45.3646 5.49466   2
   6   2   1 36.6133 6.01144   3
  -7  -2  -1 27.9103 5.59019   2
  -7  -2  -1 26.7663 10.8055   1
  -7  -2  -1 25.8306 4.98352   2
   7   2   1 33.9022 11.7429   1
   7   2   1 21.6561 6.06932   3
   7   2   1 23.4553 5.11414   2
   7   2   1 26.1357 5.21571   2
  -8  -2  -1 32.6495 10.1873   1
  -8  -2  -1 21.0403 5.16864   2
  -8  -2  -1 22.2379 5.88653   2
   8   2   1 23.2219 13.8781   1
   8   2   1 14.8222 4.98957   2
   8   2   1 20.5017 6.37554   3
   8   2   1 18.9314 5.16499   2
  -9  -2  -1 -2.5616 3.29322   2
  -9  -2  -1 1.70292 4.42696   2
  -9  -2  -1 10.9899 15.5833   1
   9   2   1 -15.380 14.3310   1
   9   2   1 0.89085 4.14276   2
   9   2   1 8.22497 5.94305   3
 -10  -2  -1 6.61762 4.83243   2
 -10  -2  -1 6.89368 4.56179   2
  10   2   1 -2.0218 5.33769   3
  10   2   1 2.44074 7.65413   2
   9  -3  -1 -4.4457 4.96929   2
   9  -3  -1 -3.3262 4.77106   3
  -9   3   1 -1.1063 5.05692   2
   8  -3  -1 26.4434 6.21970   2
   8  -3  -1 15.8567 5.11879   2
   8  -3  -1 8.80058 5.48004   3
   8  -3  -1 3.15220 18.2214   1
  -8   3   1 25.1184 5.51546   2
  -8   3   1 -12.727 19.4950   1
  -8   3   1 8.74812 5.26668   2
   7  -3  -1 66.7734 8.28748   2
   7  -3  -1 63.7100 8.14714   3
   7  -3  -1 58.8211 7.39947   2
  -7   3   1 58.8557 18.4684   1
  -7   3   1 53.7394 7.06403   2
  -7   3   1 67.0800 8.53415   2
   6  -3  -1 106.854 8.76074   2
   6  -3  -1 112.615 20.3321   1
   6  -3  -1 109.207 8.74447   3
   6  -3  -1 125.452 9.42626   2
  -6   3   1 115.082 8.98684   3
  -6   3   1 113.071 9.58182   2
  -6   3   1 112.227 20.6176   1
  -6   3   1 112.023 9.22563   2
   5  -3  -1 5.14393 3.75994   3
   5  -3  -1 -0.9344 3.23696   2
   5  -3  -1 4.52561 3.71812   2
   5  -3  -1 -1.1406 6.87610   1
  -5   3   1 8.62273 8.20328   1
  -5   3   1 3.92961 3.75423   3
  -5   3   1 8.16693 4.11989   2
  -5   3   1 4.98533 6.31246   2
   4  -3  -1 3.91450 3.13457   2
   4  -3  -1 9.60358 6.68132   1
   4  -3  -1 11.3039 3.63420   3
   4  -3  -1 4.81228 3.34107   2
  -4   3   1 11.3185 3.67218   2
  -4   3   1 9.36707 3.70744   2
  -4   3   1 7.75910 7.11935   1
  -4   3   1 9.67529 3.84353   3
   3  -3  -1 2.47231 2.69016   2
   3  -3  -1 1.56854 2.47455   3
   3  -3  -1 3.61875 4.21476   1
   3  -3  -1 1.33331 2.48833   2
  -3   3   1 -1.2876 2.46753   2
  -3   3   1 3.06799 2.55618   2
  -3   3   1 3.24791 3.45115   3
  -3   3   1 9.44474 5.83825   1
   2  -3  -1 226.134 8.45990   2
   2  -3  -1 211.520 8.28495   2
   2  -3  -1 224.797 8.29395   3
   2  -3  -1 257.761 19.5512   1
  -2   3   1 221.470 8.14370   3
  -2   3   1 207.706 18.0363   1
  -2   3   1 232.453 8.52559   2
  -2   3   1 228.756 8.61471   2
   1  -3  -1 2.76601 2.58629   1
   1  -3  -1 1.78119 2.03961   2
   1  -3  -1 0.51115 1.98497   3
  -1   3   1 0.37206 1.76572   3
  -1   3   1 -2.3373 1.78487   2
  -1   3   1 0.04121 1.98901   2
  -1   3   1 -0.8757 1.92383   1
   0  -3  -1 574.850 13.5983   3
   0  -3  -1 566.224 13.2363   2
   0   3   1 576.177 13.2892   2
   0   3   1 579.833 24.2230   1
   0   3   1 566.528 23.6379   1
   0   3   1 600.258 13.6644   3
  -1  -3  -1 1889.72 36.2351   3
  -1  -3  -1 1848.09 35.5216   2
   1   3   1 1842.69 35.5010   2
   1   3   1 1935.68 48.3027   1
   1   3   1 1645.33 39.0117   2
   1   3   1 1839.96 36.1041   3
  -2  -3  -1 120.851 4.76091   2
  -2  -3  -1 113.682 4.34780   2
  -2  -3  -1 124.025 9.95279   1
   2   3   1 123.276 5.69698   2
   2   3   1 127.606 10.3133   1
   2   3   1 126.820 4.87596   2
   2   3   1 124.446 5.27741   3
  -3  -3  -1 630.043 15.1003   2
   3   3   1 657.654 28.4851   1
   3   3   1 616.112 15.2823   2
   3   3   1 645.673 15.3276   2
  -4  -3  -1 1151.00 26.1679   2
   4   3   1 1207.81 26.4111   2
   4   3   1 1190.07 45.8645   1
   4   3   1 1176.93 26.5946   3
   4   3   1 1156.43 26.2180   2
  -5  -3  -1 374.911 12.6422   2
  -5  -3  -1 412.779 27.6281   1
   5   3   1 395.731 12.8535   2
   5   3   1 407.904 28.1651   1
   5   3   1 371.560 14.8839   3
   5   3   1 383.407 12.7615   2
  -6  -3  -1 192.703 9.48124   2
  -6  -3  -1 190.072 20.9010   1
  -6  -3  -1 200.360 9.66010   2
   6   3   1 186.689 9.30811   2
   6   3   1 179.984 10.2108   3
   6   3   1 191.462 21.4414   1
   6   3   1 185.878 9.26589   2
  -7  -3  -1 431.273 33.4489   1
  -7  -3  -1 446.026 16.2739   2
  -7  -3  -1 447.260 16.6541   2
   7   3   1 431.028 36.0239   1
   7   3   1 421.370 16.5257   3
   7   3   1 450.141 16.2615   2
   7   3   1 423.138 15.9216   2
  -8  -3  -1 28.2491 5.29127   2
  -8  -3  -1 23.9335 5.58244   2
   8   3   1 30.4354 5.71908   2
   8   3   1 18.1410 5.35328   2
   8   3   1 26.0816 6.93312   3
  -9  -3  -1 -1.0417 14.7025   1
  -9  -3  -1 -2.9652 2.87583   2
  -9  -3  -1 3.26449 5.75986   2
   9   3   1 -5.6636 5.28792   3
   9   3   1 3.83086 3.96450   2
   9   3   1 -7.5072 14.0140   1
 -10  -3  -1 -1.9075 4.16211   2
 -10  -3  -1 -3.3310 4.28513   2
  10   3   1 -9.1705 5.46532   3
  10   3   1 6.68296 5.08464   2
   9  -4  -1 6.63368 5.29054   2
   9  -4  -1 14.8354 8.34441   3
  -9   4   1 11.3353 6.79921   2
   8  -4  -1 -7.4314 4.31095   3
   8  -4  -1 -5.5562 5.52954   2
   8  -4  -1 -0.9521 5.19993   2
   8  -4  -1 21.9537 28.2376   1
  -8   4   1 45.5039 49.3860   1
  -8   4   1 5.10965 5.60704   2
   7  -4  -1 26.8037 6.58944   3
   7  -4  -1 31.7329 6.33239   2
   7  -4  -1 47.1690 19.6154   1
   7  -4  -1 43.6180 7.62720   2
  -7   4   1 35.9537 7.85899   2
  -7   4   1 25.9062 6.65349   2
   6  -4  -1 10.6735 4.79529   3
   6  -4  -1 11.2675 10.9535   1
   6  -4  -1 8.80033 4.75275   2
   6  -4  -1 12.4238 4.63632   2
  -6   4   1 3.91680 3.99955   2
  -6   4   1 7.34008 4.75622   2
  -6   4   1 27.0931 12.5324   1
   5  -4  -1 174.837 24.1797   1
   5  -4  -1 163.988 10.0179   3
   5  -4  -1 172.655 10.2472   2
   5  -4  -1 164.577 10.2635   2
  -5   4   1 168.247 10.5766   2
  -5   4   1 169.679 10.3287   2
  -5   4   1 192.530 25.3831   1
  -5   4   1 161.657 15.1479   3
   4  -4  -1 217.709 10.4189   2
   4  -4  -1 193.783 9.96476   3
   4  -4  -1 190.421 22.2529   1
  -4   4   1 225.426 29.7762   1
  -4   4   1 203.335 10.2787   2
  -4   4   1 199.745 9.94881   3
  -4   4   1 197.920 10.1308   2
   3  -4  -1 273.500 10.4803   3
   3  -4  -1 269.965 23.8790   1
   3  -4  -1 279.432 10.8998   2
  -3   4   1 266.710 10.8536   2
  -3   4   1 275.094 24.8694   1
  -3   4   1 258.262 10.4246   3
  -3   4   1 268.365 10.7191   2
   2  -4  -1 717.745 18.4296   2
   2  -4  -1 723.928 36.6314   1
   2  -4  -1 698.278 18.2536   2
  -2   4   1 684.477 36.4193   1
  -2   4   1 698.589 18.3266   2
  -2   4   1 703.328 19.5654   3
  -2   4   1 702.552 18.4436   2
   1  -4  -1 1.48167 2.23747   3
   1  -4  -1 2.81379 2.22135   2
  -1   4   1 -2.4089 3.42057   1
  -1   4   1 1.06107 2.14876   2
  -1   4   1 1.20523 2.10296   3
  -1   4   1 -2.3791 1.88228   2
   0  -4  -1 209.677 7.04607   2
   0  -4  -1 209.978 7.65195   3
   0   4   1 207.736 7.44914   3
   0   4   1 208.180 7.40246   2
   0   4   1 209.293 7.21171   2
   0   4   1 215.496 15.5616   1
   0   4   1 210.827 15.3925   1
  -1  -4  -1 2779.22 54.9273   2
  -1  -4  -1 2907.89 71.1089   1
  -1  -4  -1 2880.69 56.1870   3
  -1  -4  -1 2841.60 54.9461   2
   1   4   1 2945.09 55.1280   2
   1   4   1 2831.55 54.9898   2
   1   4   1 2949.24 71.5680   1
   1   4   1 2909.24 56.0622   3
  -2  -4  -1 16.7766 2.41666   2
  -2  -4  -1 25.8684 5.90514   1
  -2  -4  -1 22.4439 2.85748   2
   2   4   1 19.4466 2.50985   2
   2   4   1 20.6629 5.19426   1
   2   4   1 25.5442 3.02509   2
   2   4   1 22.2635 3.21772   3
  -3  -4  -1 227.260 15.7018   1
  -3  -4  -1 222.281 7.39144   2
  -3  -4  -1 229.665 7.49528   2
   3   4   1 237.363 8.53168   3
   3   4   1 233.399 7.74177   2
   3   4   1 220.524 15.8653   1
   3   4   1 243.027 7.71599   2
  -4  -4  -1 1553.23 32.9419   2
  -4  -4  -1 1636.54 54.1674   1
  -4  -4  -1 1531.18 38.0735   2
   4   4   1 1511.01 53.0073   1
   4   4   1 1532.98 35.2847   2
   4   4   1 1582.29 33.2315   2
  -5  -4  -1 12.4646 2.59189   2
  -5  -4  -1 14.7508 3.31705   2
  -5  -4  -1 17.6535 6.39023   1
   5   4   1 15.4486 3.25498   2
   5   4   1 14.9636 5.09592   2
   5   4   1 19.0459 4.01999   3
   5   4   1 7.04047 4.40235   1
  -6  -4  -1 492.979 15.5535   2
   6   4   1 462.525 16.0884   3
   6   4   1 489.784 15.5059   2
   6   4   1 493.807 15.6183   2
   6   4   1 468.865 33.2729   1
  -7  -4  -1 262.495 27.1400   1
  -7  -4  -1 271.523 12.1854   2
   7   4   1 269.531 12.4688   2
   7   4   1 298.450 28.1350   1
   7   4   1 266.231 12.2942   2
   7   4   1 279.698 13.6881   3
  -8  -4  -1 17.4689 4.81830   2
  -8  -4  -1 11.8120 9.46331   1
  -8  -4  -1 25.4110 5.07080   2
   8   4   1 19.4124 4.76807   2
   8   4   1 26.7990 12.8926   1
   8   4   1 12.2714 5.95599   3
  -9  -4  -1 -16.241 13.6376   1
  -9  -4  -1 10.7385 3.73809   2
   9   4   1 10.1801 6.37867   3
   9   4   1 7.63094 4.18443   2
   9   4   1 -8.6760 13.8361   1
 -10  -4  -1 4.21865 4.31858   2
 -10  -4  -1 -1.0897 4.00600   2
  10   4   1 0.33421 6.10033   3
  10   4   1 -3.4937 3.95018   2
   8  -5  -1 -8.0713 4.11007   3
   8  -5  -1 3.87154 5.18758   2
  -8   5   1 -0.5260 5.27231   2
   7  -5  -1 -5.2616 3.93461   3
   7  -5  -1 17.0551 21.0555   1
   7  -5  -1 1.80128 4.75503   2
  -7   5   1 -1.7997 4.97294   2
   6  -5  -1 56.1825 18.1097   1
   6  -5  -1 93.6543 9.40021   2
   6  -5  -1 90.3782 8.70006   3
   6  -5  -1 100.835 8.75562   2
  -6   5   1 77.3867 21.2161   1
  -6   5   1 97.1264 10.0193   2
   5  -5  -1 33.2964 6.19546   2
   5  -5  -1 28.8390 12.1663   1
   5  -5  -1 34.2198 5.98047   2
   5  -5  -1 41.3682 6.25222   3
  -5   5   1 26.9395 13.3685   1
  -5   5   1 40.3362 6.42375   2
  -5   5   1 35.2989 6.37955   2
  -5   5   1 35.5170 6.24258   3
   4  -5  -1 100.456 8.13440   2
   4  -5  -1 95.3285 7.72180   3
   4  -5  -1 76.9516 15.8869   1
   4  -5  -1 97.6302 7.70515   2
  -4   5   1 97.2985 8.04716   2
  -4   5   1 96.5710 8.17169   3
  -4   5   1 102.559 7.85334   2
  -4   5   1 80.1722 17.5557   1
   3  -5  -1 25.4530 9.78129   1
   3  -5  -1 30.8889 4.93532   2
   3  -5  -1 29.1034 4.78814   3
   3  -5  -1 36.1710 5.14780   2
  -3   5   1 39.5023 11.2739   1
  -3   5   1 33.2256 5.26242   2
  -3   5   1 24.9269 4.48932   2
  -3   5   1 28.0757 4.57133   3
   2  -5  -1 511.045 15.2672   2
   2  -5  -1 518.809 15.4084   3
   2  -5  -1 523.553 33.1199   1
  -2   5   1 495.185 15.3386   2
  -2   5   1 529.308 33.3136   1
  -2   5   1 506.520 15.1610   3
  -2   5   1 501.536 15.3316   2
   1  -5  -1 96.4018 6.26002   3
  -1   5   1 106.642 13.1612   1
  -1   5   1 111.923 6.13150   2
  -1   5   1 109.238 7.72655   3
  -1   5   1 111.690 13.3458   1
  -1   5   1 98.5836 5.71897   2
   0  -5  -1 114.548 6.18292   3
   0  -5  -1 139.173 5.92081   2
   0  -5  -1 121.726 5.70512   2
   0   5   1 125.807 13.2602   1
   0   5   1 133.042 6.41708   3
   0   5   1 120.492 5.95191   2
   0   5   1 132.773 12.9778   1
   0   5   1 123.494 5.86349   2
  -1  -5  -1 136.744 6.55352   3
  -1  -5  -1 143.898 5.68112   2
  -1  -5  -1 132.610 5.61192   2
   1   5   1 132.979 6.39039   3
   1   5   1 133.409 5.65422   2
   1   5   1 139.991 5.74673   2
   1   5   1 131.223 12.1322   1
  -2  -5  -1 552.016 15.0244   3
  -2  -5  -1 571.503 13.5405   2
  -2  -5  -1 558.421 13.4961   2
  -2  -5  -1 577.328 25.1799   1
   2   5   1 548.798 24.8645   1
   2   5   1 573.628 15.1018   3
   2   5   1 575.624 13.6643   2
   2   5   1 548.271 13.4973   2
  -3  -5  -1 318.075 9.23781   2
  -3  -5  -1 303.893 18.5769   1
   3   5   1 314.556 9.27163   2
   3   5   1 313.638 10.8382   3
   3   5   1 303.129 9.43197   2
   3   5   1 324.777 19.6421   1
  -4  -5  -1 0.75308 2.90080   1
  -4  -5  -1 0.08188 1.84711   2
  -4  -5  -1 0.66478 2.22530   2
   4   5   1 0.39422 2.04336   2
   4   5   1 3.68328 2.70000   3
   4   5   1 4.88781 3.86436   1
   4   5   1 1.45574 2.16013   2
  -5  -5  -1 135.135 6.84687   2
  -5  -5  -1 155.225 16.2789   1
  -5  -5  -1 135.865 7.02078   2
   5   5   1 135.024 7.04558   2
   5   5   1 128.936 6.64321   2
   5   5   1 125.597 7.82705   3
   5   5   1 153.864 15.9486   1
  -6  -5  -1 51.7718 5.83659   2
  -6  -5  -1 40.2828 9.94663   1
  -6  -5  -1 50.8815 5.48394   2
   6   5   1 42.2640 5.43932   2
   6   5   1 54.1053 6.70420   3
   6   5   1 51.0453 5.68084   2
   6   5   1 37.1092 10.6772   1
  -7  -5  -1 27.0430 4.39693   2
  -7  -5  -1 31.4418 5.16724   2
  -7  -5  -1 29.6534 9.72066   1
   7   5   1 46.4003 5.89419   2
   7   5   1 21.5488 9.72029   1
   7   5   1 36.1586 5.46347   2
   7   5   1 53.6966 7.47608   3
  -8  -5  -1 -6.8955 7.63624   1
  -8  -5  -1 15.3373 4.46225   2
  -8  -5  -1 3.99843 2.96870   2
   8   5   1 14.4249 6.04885   3
   8   5   1 13.3936 4.23681   2
   8   5   1 3.92397 8.86961   1
  -9  -5  -1 9.14500 4.90521   2
   9   5   1 8.66278 5.97647   3
   9   5   1 35.5550 16.0633   1
   9   5   1 12.0049 3.95362   2
 -10  -5  -1 -6.1106 4.44346   2
  10   5   1 13.7924 7.06497   3
  10   5   1 5.30460 4.19651   2
  -8   6   1 6.71541 5.72121   2
   7  -6  -1 23.0626 7.02942   2
   7  -6  -1 32.0449 6.59899   3
   7  -6  -1 29.7294 6.83213   2
  -7   6   1 30.5856 7.54772   2
   6  -6  -1 284.117 15.3638   2
   6  -6  -1 298.418 14.9474   3
   6  -6  -1 283.178 14.9578   2
  -6   6   1 285.598 20.1885   2
   5  -6  -1 199.591 12.0341   2
   5  -6  -1 120.909 28.8693   1
   5  -6  -1 203.518 11.9303   3
   5  -6  -1 190.250 11.4963   2
  -5   6   1 169.912 11.7321   2
  -5   6   1 183.846 11.3086   2
  -5   6   1 203.963 30.9425   1
   4  -6  -1 3.45461 3.40998   2
   4  -6  -1 0.46938 3.53679   3
   4  -6  -1 0.20013 3.56584   2
   4  -6  -1 -12.051 6.47004   1
  -4   6   1 4.45339 4.06252   3
  -4   6   1 1.74580 3.68632   2
  -4   6   1 3.31216 3.84635   2
  -4   6   1 10.2818 10.7879   1
   3  -6  -1 259.453 11.5969   2
   3  -6  -1 220.460 24.5045   1
   3  -6  -1 271.784 11.7762   3
  -3   6   1 250.452 11.3874   3
  -3   6   1 274.466 28.0738   1
  -3   6   1 266.015 12.2597   2
  -3   6   1 273.566 11.8852   2
   2  -6  -1 25.2543 4.68549   3
   2  -6  -1 17.8642 3.85056   2
  -2   6   1 14.7614 9.11881   1
  -2   6   1 20.9453 4.41970   2
  -2   6   1 28.7774 4.54550   2
  -2   6   1 20.7936 4.12397   3
   1  -6  -1 33.0415 4.46678   2
   1  -6  -1 26.6192 4.28473   3
  -1   6   1 35.4568 4.65532   3
  -1   6   1 32.2677 4.41822   2
  -1   6   1 28.9205 9.12659   1
  -1   6   1 32.6259 4.22909   2
  -1   6   1 41.3746 9.84143   1
   0  -6  -1 86.9577 7.01126   3
   0  -6  -1 99.9731 5.63988   2
   0  -6  -1 90.4910 5.55387   2
   0   6   1 96.3380 5.69334   2
   0   6   1 101.241 5.56633   2
   0   6   1 96.0687 12.4450   1
   0   6   1 97.3287 13.0031   1
   0   6   1 93.9456 6.02789   3
  -1  -6  -1 1267.44 26.9341   2
  -1  -6  -1 1112.22 32.8185   2
  -1  -6  -1 1206.15 29.3416   3
   1   6   1 1292.35 45.5721   1
   1   6   1 1277.43 27.0407   2
   1   6   1 1224.92 47.6740   1
   1   6   1 1295.84 28.7266   3
   1   6   1 1244.01 26.9306   2
  -2  -6  -1 10.5162 4.28207   1
  -2  -6  -1 9.24160 2.27609   2
  -2  -6  -1 6.48979 4.01129   3
   2   6   1 7.00411 2.11678   2
   2   6   1 7.74193 2.18709   2
   2   6   1 2.53567 4.39682   1
   2   6   1 10.8508 2.82495   3
  -3  -6  -1 150.088 6.02602   2
  -3  -6  -1 143.512 5.94594   2
  -3  -6  -1 134.371 14.2883   1
   3   6   1 144.855 7.54648   3
   3   6   1 145.662 5.95198   2
   3   6   1 141.477 5.90657   2
   3   6   1 128.502 12.4616   1
  -4  -6  -1 13.3840 2.77915   2
  -4  -6  -1 15.9018 6.06889   1
  -4  -6  -1 17.5539 2.98624   2
   4   6   1 14.0865 2.82214   2
   4   6   1 14.7037 3.42687   3
   4   6   1 13.8908 2.82239   2
   4   6   1 12.4713 5.01923   1
  -5  -6  -1 239.352 8.90332   2
  -5  -6  -1 213.074 8.63459   2
   5   6   1 222.594 8.94520   2
   5   6   1 202.387 18.6314   1
   5   6   1 226.510 8.96104   2
   5   6   1 227.506 10.3985   3
  -6  -6  -1 29.3879 4.36427   2
  -6  -6  -1 26.0697 4.22969   2
  -6  -6  -1 29.7406 9.25242   1
   6   6   1 32.1525 5.82735   3
   6   6   1 25.9684 4.05542   2
   6   6   1 36.6491 4.92020   2
  -7  -6  -1 36.7859 5.13664   2
  -7  -6  -1 39.7669 5.20065   2
   7   6   1 35.5565 5.36702   2
   7   6   1 28.9739 11.4155   1
   7   6   1 37.2020 6.48161   3
   7   6   1 29.4589 4.60071   2
  -8  -6  -1 6.55174 3.29205   2
  -8  -6  -1 12.6999 12.4941   1
  -8  -6  -1 3.81067 3.81564   2
   8   6   1 8.48098 3.28030   2
   8   6   1 7.95096 5.36986   3
   8   6   1 4.30427 10.6680   1
  -9  -6  -1 -1.1875 3.69969   2
  -9  -6  -1 5.34943 3.19156   2
  -9  -6  -1 5.64867 16.9430   1
   9   6   1 0.50059 5.29628   3
   9   6   1 2.08959 3.29142   2
 -10  -6  -1 12.7373 5.31203   2
 -10  -6  -1 22.9338 4.71462   2
  10   6   1 21.9844 5.49634   2
  10   6   1 26.6593 7.95406   3
 -11  -6  -1 13.0417 7.31635   2
  11   6   1 26.7189 8.98714   3
   7  -7  -1 32.0036 7.04256   3
  -7   7   1 28.2554 6.99372   2
   6  -7  -1 35.0665 11.0708   2
   6  -7  -1 27.1708 6.41876   3
  -6   7   1 29.0500 12.3353   2
   5  -7  -1 63.0424 7.97947   2
   5  -7  -1 74.5821 12.4025   3
  -5   7   1 54.5362 8.10944   2
   4  -7  -1 1.62485 3.12944   2
   4  -7  -1 3.95001 4.14894   3
  -4   7   1 -1.8783 3.37287   2
  -4   7   1 1.60961 12.2804   1
  -4   7   1 -5.5568 3.36152   2
   3  -7  -1 7.52552 3.87867   2
   3  -7  -1 15.0461 4.44251   3
  -3   7   1 7.02855 3.79563   3
  -3   7   1 14.5356 4.33144   2
  -3   7   1 26.7312 11.2375   1
   2  -7  -1 18.5682 4.54789   2
   2  -7  -1 20.5771 4.78028   3
  -2   7   1 17.0492 4.35653   2
  -2   7   1 22.7979 4.80942   2
  -2   7   1 21.4369 8.94729   1
  -2   7   1 20.0385 4.46306   3
  -2   7   1 19.3121 9.90781   1
   1  -7  -1 16.8167 4.28710   3
   1  -7  -1 19.6023 3.52437   2
   1  -7  -1 9.28250 3.63101   2
  -1   7   1 18.4769 4.84058   2
  -1   7   1 5.31334 7.39812   1
  -1   7   1 16.3520 3.81703   3
  -1   7   1 14.0920 3.56132   2
   0  -7  -1 7.18572 3.33233   3
   0  -7  -1 1.19868 2.33128   2
   0  -7  -1 3.66241 2.81219   2
   0   7   1 8.12658 5.56936   1
   0   7   1 6.37537 5.25417   1
   0   7   1 7.52017 2.89594   2
   0   7   1 3.41709 2.83360   3
   0   7   1 9.83211 2.84503   2
  -1  -7  -1 1.58383 2.21796   2
  -1  -7  -1 5.68415 2.40086   2
  -1  -7  -1 1.63903 2.79876   3
   1   7   1 -0.4010 2.29047   3
   1   7   1 9.58498 4.53228   1
   1   7   1 7.73539 6.79362   1
   1   7   1 1.78610 2.12268   2
   1   7   1 4.19303 2.36264   2
  -2  -7  -1 31.7507 4.48336   3
  -2  -7  -1 30.5342 3.72244   2
  -2  -7  -1 41.5554 3.82245   2
   2   7   1 38.2504 3.98921   2
   2   7   1 39.0791 4.90710   3
   2   7   1 32.5421 7.98187   1
  -3  -7  -1 443.190 11.9055   2
  -3  -7  -1 416.123 11.6738   2
  -3  -7  -1 424.520 23.8300   1
   3   7   1 432.281 12.0041   2
   3   7   1 416.764 24.0528   1
   3   7   1 426.562 12.0163   2
   3   7   1 416.975 14.1202   3
  -4  -7  -1 -0.3440 3.80082   1
  -4  -7  -1 9.10063 2.61195   2
  -4  -7  -1 5.25945 2.49682   2
   4   7   1 9.23880 2.63879   2
   4   7   1 4.24624 2.21413   2
   4   7   1 3.94656 3.12601   3
   4   7   1 4.87292 5.37121   1
  -5  -7  -1 9.80167 5.86727   1
  -5  -7  -1 4.18543 2.70203   2
  -5  -7  -1 8.79403 2.87071   2
   5   7   1 5.93066 4.78044   1
   5   7   1 5.85998 2.64246   2
   5   7   1 10.8446 3.93841   3
   5   7   1 7.98244 2.92426   2
  -6  -7  -1 37.8739 8.89873   1
  -6  -7  -1 32.5188 4.41821   2
  -6  -7  -1 23.7006 4.11163   2
   6   7   1 23.5526 8.85879   1
   6   7   1 31.3769 4.44478   2
   6   7   1 32.8614 4.53080   2
   6   7   1 25.3678 5.08038   3
  -7  -7  -1 40.8630 9.79227   1
  -7  -7  -1 52.4890 5.59762   2
  -7  -7  -1 51.1648 5.77815   2
   7   7   1 50.9752 5.79911   2
   7   7   1 44.9438 12.5496   1
   7   7   1 55.4544 7.57405   3
  -8  -7  -1 -5.1662 9.22464   1
  -8  -7  -1 13.8402 3.58810   2
   8   7   1 10.7374 6.39420   3
   8   7   1 12.7322 4.05177   2
   8   7   1 33.3724 11.8517   1
  -9  -7  -1 5.12031 3.83515   2
  -9  -7  -1 -1.2245 3.07982   2
   9   7   1 -4.2024 3.42765   2
   9   7   1 2.36488 4.82956   3
 -10  -7  -1 67.9668 8.59595   2
 -10  -7  -1 78.5663 7.81836   2
  10   7   1 56.0307 9.45948   2
  10   7   1 48.5029 9.43395   3
   6  -8  -1 39.6660 7.41434   3
   6  -8  -1 31.1907 6.66938   2
   5  -8  -1 75.2318 8.83073   2
   5  -8  -1 80.4872 8.93272   3
   5  -8  -1 88.8915 8.94354   2
  -5   8   1 73.8835 9.54905   2
   4  -8  -1 -2.8701 3.21723   2
   4  -8  -1 5.92428 5.54648   2
  -4   8   1 -2.2159 3.39597   2
   3  -8  -1 83.2899 7.51983   2
   3  -8  -1 83.3167 8.50500   3
   3  -8  -1 88.1436 8.09381   2
  -3   8   1 76.2129 7.35268   2
  -3   8   1 71.2192 17.6305   1
   2  -8  -1 156.690 9.93283   3
   2  -8  -1 133.339 9.06939   2
  -2   8   1 159.358 21.3611   1
  -2   8   1 138.956 9.17418   2
  -2   8   1 143.042 8.96326   2
  -2   8   1 130.663 21.1383   1
  -2   8   1 148.454 9.38624   3
   1  -8  -1 171.180 9.20386   2
   1  -8  -1 168.444 9.79406   3
   1  -8  -1 161.901 8.75538   2
  -1   8   1 153.068 19.1135   1
  -1   8   1 162.513 9.03318   2
  -1   8   1 200.210 21.8769   1
  -1   8   1 171.949 13.5058   3
   0  -8  -1 37.7232 4.93804   2
   0  -8  -1 34.5452 4.64198   2
   0  -8  -1 34.0307 5.45809   3
   0   8   1 37.4721 4.91200   2
   0   8   1 41.6830 12.1572   1
   0   8   1 35.3406 4.72684   2
   0   8   1 33.5296 4.97121   3
   0   8   1 15.4502 8.35437   1
  -1  -8  -1 15.8091 3.34036   2
  -1  -8  -1 19.1911 3.47320   2
  -1  -8  -1 15.3826 4.11319   3
   1   8   1 15.5119 3.33121   2
   1   8   1 7.53608 3.02472   2
   1   8   1 3.70030 6.06887   1
   1   8   1 4.67096 5.17233   1
   1   8   1 9.34287 3.38204   3
  -2  -8  -1 332.256 10.4163   2
  -2  -8  -1 326.496 10.4150   2
  -2  -8  -1 311.645 12.5552   3
   2   8   1 320.872 10.4411   2
   2   8   1 273.727 21.2289   1
   2   8   1 321.613 22.7724   1
   2   8   1 314.906 12.3954   3
   2   8   1 323.993 10.4545   2
  -3  -8  -1 348.651 10.7262   2
  -3  -8  -1 330.540 10.4972   2
  -3  -8  -1 328.775 21.7916   1
   3   8   1 351.291 10.8305   2
   3   8   1 366.818 22.9648   1
   3   8   1 356.359 10.9622   2
   3   8   1 355.085 13.4566   3
  -4  -8  -1 11.3407 2.77981   2
  -4  -8  -1 2.43721 4.60213   1
  -4  -8  -1 7.32700 2.77678   2
   4   8   1 2.51459 5.82340   1
   4   8   1 4.47914 2.70000   2
   4   8   1 10.8921 2.77852   2
   4   8   1 7.74253 3.75229   3
  -5  -8  -1 13.1444 3.11512   2
  -5  -8  -1 1.70497 5.26422   1
  -5  -8  -1 16.7858 3.13323   2
   5   8   1 10.6515 6.05299   1
   5   8   1 15.4405 3.21427   2
   5   8   1 16.9767 3.48271   2
   5   8   1 10.0861 3.85796   3
  -6  -8  -1 12.8700 3.40084   2
  -6  -8  -1 14.9485 8.08836   1
  -6  -8  -1 15.9755 3.44052   2
   6   8   1 6.41617 6.93188   1
   6   8   1 13.9480 3.62894   2
  -7  -8  -1 17.6991 7.29335   1
  -7  -8  -1 0.02292 2.97935   2
  -7  -8  -1 3.46179 2.83907   2
   7   8   1 4.43008 3.25526   2
   7   8   1 1.57979 4.45058   3
   7   8   1 6.66490 8.58387   1
  -8  -8  -1 23.8859 11.5885   1
  -8  -8  -1 17.4022 3.76349   2
  -8  -8  -1 11.7091 3.95136   2
   8   8   1 12.7115 12.3035   1
   8   8   1 3.67995 3.69619   2
   8   8   1 18.0407 5.83268   3
  -9  -8  -1 56.2796 6.99204   2
   9   8   1 38.3233 5.67303   2
 -10  -8  -1 1.92805 4.33295   2
 -10  -8  -1 0.07566 5.09235   2
  10   8   1 3.39573 6.15174   3
   5  -9  -1 87.7058 10.1066   3
   5  -9  -1 88.2580 9.97248   2
  -5   9   1 72.9690 10.1358   2
   4  -9  -1 4.60049 3.93173   2
   4  -9  -1 -2.5167 3.86587   3
   4  -9  -1 -2.3477 3.60374   2
  -4   9   1 14.8946 4.16529   2
   3  -9  -1 1.49186 4.30826   3
   3  -9  -1 2.35073 3.76015   2
  -3   9   1 1.34631 3.68795   2
  -3   9   1 10.2243 14.1803   1
   2  -9  -1 39.0141 6.12442   3
   2  -9  -1 39.7643 5.71601   2
   2  -9  -1 24.0143 5.13224   2
  -2   9   1 23.6826 14.1229   1
  -2   9   1 31.0846 5.79226   2
   1  -9  -1 8.07242 4.33874   3
   1  -9  -1 4.96732 3.78683   2
   1  -9  -1 10.8915 3.96409   2
  -1   9   1 7.37501 3.75359   2
  -1   9   1 -0.9129 7.75677   1
   0  -9  -1 122.186 8.86347   3
   0  -9  -1 123.421 7.83856   2
   0  -9  -1 125.101 7.71643   2
   0   9   1 136.034 8.84584   3
   0   9   1 91.7230 17.8047   1
   0   9   1 124.857 8.57121   2
   0   9   1 115.476 16.6139   1
   0   9   1 121.280 7.76428   2
  -1  -9  -1 487.472 14.9173   2
  -1  -9  -1 498.866 17.4163   3
  -1  -9  -1 487.429 14.8280   2
   1   9   1 457.936 14.8358   2
   1   9   1 489.057 17.1208   3
   1   9   1 501.203 31.4770   1
   1   9   1 477.954 14.8542   2
   1   9   1 454.553 31.2887   1
  -2  -9  -1 65.9103 5.24194   2
  -2  -9  -1 64.0299 7.12794   3
  -2  -9  -1 51.8866 4.93358   2
   2   9   1 57.9456 6.59378   3
   2   9   1 55.6098 5.18481   2
   2   9   1 64.4131 11.7882   1
   2   9   1 63.1859 5.02043   2
  -3  -9  -1 5.41643 2.67586   2
  -3  -9  -1 3.36235 2.42390   2
   3   9   1 19.6379 10.3179   1
   3   9   1 0.85160 2.35587   2
   3   9   1 8.38821 3.50093   3
   3   9   1 4.77582 5.44684   1
  -4  -9  -1 399.521 24.9382   1
  -4  -9  -1 394.244 11.8972   2
   4   9   1 400.053 25.8214   1
   4   9   1 394.244 12.3241   2
   4   9   1 410.547 15.8353   3
   4   9   1 418.952 12.5493   2
  -5  -9  -1 21.3681 3.54597   2
  -5  -9  -1 22.0041 7.77244   1
   5   9   1 27.1578 8.38338   1
   5   9   1 23.8974 5.40493   2
  -6  -9  -1 11.8633 3.28575   2
  -6  -9  -1 19.6519 8.55845   1
   6   9   1 23.2599 9.19017   1
  -7  -9  -1 -7.7149 8.08222   1
  -7  -9  -1 18.6449 6.05448   2
   7   9   1 14.9808 6.15357   2
   7   9   1 8.59009 7.96212   3
   7   9   1 9.46397 13.5971   1
  -8  -9  -1 51.1310 5.43458   2
  -8  -9  -1 28.1000 16.2539   1
  -8  -9  -1 43.8349 5.62937   2
   8   9   1 42.0068 5.73890   2
   8   9   1 50.4890 8.08770   3
   8   9   1 39.6052 16.4761   1
  -9  -9  -1 7.29500 3.86422   2
  -9  -9  -1 -0.8385 3.26321   2
   9   9   1 8.40402 5.74815   3
   9   9   1 8.86684 4.34617   2
 -10  -9  -1 26.8309 4.89654   2
   4 -10  -1 3.59518 4.74635   2
   4 -10  -1 9.96983 4.98934   3
  -4  10   1 8.68808 5.73238   2
   3 -10  -1 3.65635 4.42241   2
   3 -10  -1 10.5545 5.16796   3
   3 -10  -1 9.70131 3.67738   2
   2 -10  -1 5.58946 4.13177   2
   2 -10  -1 -5.5779 3.27616   3
   2 -10  -1 4.22342 3.17983   2
  -2  10   1 0.61068 3.39730   2
   1 -10  -1 158.278 11.0797   3
   1 -10  -1 199.678 14.7943   2
  -1  10   1 159.767 9.71075   2
  -1  10   1 118.594 22.3450   1
   0 -10  -1 3.31974 3.44992   2
   0 -10  -1 14.0308 4.94712   3
   0 -10  -1 8.85627 3.38781   2
   0  10   1 9.58638 3.80481   2
   0  10   1 22.1383 9.75100   1
  -1 -10  -1 44.3767 5.38802   2
  -1 -10  -1 35.1896 4.89348   2
  -1 -10  -1 42.4688 6.61104   3
   1  10   1 39.4624 10.2323   1
   1  10   1 41.2646 5.35670   2
  -2 -10  -1 117.364 9.11479   3
  -2 -10  -1 111.026 6.69489   2
   2  10   1 118.728 7.00427   2
   2  10   1 123.202 16.4878   1
  -3 -10  -1 212.790 8.51169   2
   3  10   1 251.052 24.0529   1
  -4 -10  -1 52.8743 4.73510   2
  -4 -10  -1 61.9259 4.87174   2
   4  10   1 58.9164 5.27627   2
   4  10   1 43.0477 10.3608   1
  -5 -10  -1 3.66702 2.32969   2
  -5 -10  -1 3.67214 2.35512   2
   5  10   1 10.9236 2.86689   2
   5  10   1 1.83664 6.75330   1
  -6 -10  -1 -0.1848 2.15681   2
  -6 -10  -1 -9.2403 5.91510   1
   6  10   1 0.97766 7.67476   1
   6  10   1 1.60800 2.69175   2
  -7 -10  -1 25.9259 10.1618   1
  -7 -10  -1 29.3998 3.90567   2
  -7 -10  -1 22.3967 3.78315   2
   7  10   1 27.0269 3.94448   2
   7  10   1 26.2689 11.9364   1
  -8 -10  -1 14.9147 3.40835   2
  -8 -10  -1 9.72496 3.28454   2
   8  10   1 19.8305 6.85309   3
   8  10   1 7.80777 3.44783   2
  -9 -10  -1 6.13897 3.08851   2
  -9 -10  -1 8.12736 3.72894   2
   9  10   1 -0.8701 5.77283   3
   3 -11  -1 -1.4256 4.20984   2
   3 -11  -1 2.93363 4.62545   3
   3 -11  -1 -4.5208 4.47171   2
   2 -11  -1 13.7456 5.22082   3
   2 -11  -1 32.8211 6.07376   2
   2 -11  -1 11.9731 4.34245   2
  -2  11   1 29.7571 5.41997   2
   1 -11  -1 14.6765 4.05868   2
   1 -11  -1 12.5892 4.99772   3
   1 -11  -1 8.82499 4.01449   2
  -1  11   1 10.8207 4.11395   2
   0 -11  -1 1.08750 3.70381   3
   0 -11  -1 0.31560 3.23069   2
   0  11   1 3.97122 3.86908   2
   0  11   1 -7.6325 11.6917   1
  -1 -11  -1 175.724 11.8343   3
  -1 -11  -1 137.098 8.23849   2
   1  11   1 178.901 22.3435   1
  -2 -11  -1 8.96582 3.69221   2
  -2 -11  -1 10.8220 3.18231   2
  -2 -11  -1 3.65228 7.18981   3
   2  11   1 14.8083 9.22843   1
   2  11   1 12.2503 3.52258   2
  -3 -11  -1 -0.9899 2.15602   2
   3  11   1 -0.5375 2.59466   2
   3  11   1 -6.7528 7.21033   1
  -4 -11  -1 57.8885 4.55582   2
   4  11   1 65.4150 5.34150   2
   4  11   1 60.8343 12.2986   1
  -5 -11  -1 4.02322 2.28279   2
  -5 -11  -1 2.68489 2.05018   2
   5  11   1 6.29794 2.72604   2
   5  11   1 -7.3211 8.66518   1
  -6 -11  -1 7.05795 2.38684   2
  -6 -11  -1 3.54795 2.09110   2
   6  11   1 14.4933 10.8644   1
  -7 -11  -1 0.36478 2.02174   2
  -7 -11  -1 1.97730 2.31159   2
  -7 -11  -1 12.9653 14.5416   1
   7  11   1 -4.4805 12.3682   1
  -8 -11  -1 15.4226 3.18387   2
  -8 -11  -1 14.4205 3.42005   2
   8  11   1 13.4338 6.56920   3
  -9 -11  -1 14.3921 3.72608   2
   9  11   1 7.24369 7.46229   3
   2 -12  -1 18.5431 6.29691   3
   1 -12  -1 -0.7896 3.63297   2
   1 -12  -1 5.61083 6.21577   2
   1 -12  -1 1.00443 4.32313   3
   0 -12  -1 7.18671 3.82386   2
   0 -12  -1 5.91046 4.59184   3
   0 -12  -1 1.89625 2.85421   2
   0  12   1 8.64375 4.28622   2
  -1 -12  -1 12.0815 3.67534   2
  -1 -12  -1 19.7603 4.18506   2
  -1 -12  -1 9.28681 5.00545   3
   1  12   1 19.6362 4.51888   2
  -2 -12  -1 24.0956 3.92037   2
  -2 -12  -1 19.9366 3.69763   2
   2  12   1 17.6120 4.24339   2
   2  12   1 38.0008 13.3231   1
  -3 -12  -1 0.30816 2.30160   2
  -3 -12  -1 5.88174 2.48707   2
   3  12   1 7.63958 3.44870   2
   3  12   1 25.7612 12.0358   1
  -4 -12  -1 43.5140 3.86251   2
  -4 -12  -1 39.5879 3.82115   2
   4  12   1 31.4026 10.6161   1
  -5 -12  -1 2.39213 1.75410   2
  -5 -12  -1 -1.2108 1.60806   2
  -6 -12  -1 5.61147 1.55510   2
  -7 -12  -1 -2.0517 1.77297   2
  -7 -12  -1 -1.3637 1.33916   2
  -8 -12  -1 17.6170 2.33717   2
  -8 -12  -1 21.4102 2.57557   2
   0 -13  -1 28.4999 6.82563   3
   0 -13  -1 17.5511 4.65221   2
  -1 -13  -1 3.23928 2.86720   2
  -1 -13  -1 3.51646 5.03289   3
  -1 -13  -1 5.00067 3.21455   2
  -2 -13  -1 1.83289 2.67332   2
  -2 -13  -1 -0.1059 2.41522   2
  -3 -13  -1 7.95925 2.56635   2
  -4 -13  -1 17.0815 2.26413   2
   0 -12   2 1.24594 2.07515   2
   0 -12   2 2.08792 1.80883   2
   8  11  -2 19.4675 8.25436   3
   7  11  -2 0.44201 5.01651   3
   0 -11   2 0.19993 2.16271   2
   0 -11   2 -1.3464 3.88212   3
   0 -11   2 1.34914 2.44567   2
   1 -11   2 0.63485 2.64507   2
   1 -11   2 3.36150 3.70819   3
   1 -11   2 0.48521 2.93379   2
   2 -11   2 22.7544 4.66551   2
   2 -11   2 23.4000 5.53136   3
   9  10  -2 20.3043 7.85277   3
   8  10  -2 4.26565 5.94685   3
   7  10  -2 10.3508 6.06935   3
   1  10  -2 4.57879 10.3995   1
  -1 -10   2 5.80528 2.06941   2
  -1 -10   2 2.73560 1.59052   2
   0  10  -2 -11.685 8.53824   1
   0  10  -2 1.49261 2.65214   2
   0 -10   2 -1.0926 2.19820   2
   0 -10   2 1.95350 2.46737   2
   0 -10   2 -0.6780 3.37946   3
  -1  10  -2 -1.9101 3.28496   2
  -1  10  -2 7.77092 13.4652   1
   1 -10   2 4.02200 3.01991   2
   1 -10   2 -0.3804 2.68042   2
  -2  10  -2 52.9703 7.39612   2
   2 -10   2 58.3447 7.47871   3
   2 -10   2 45.7564 6.04527   2
   2 -10   2 56.0139 6.77699   2
   3 -10   2 5.43428 5.83885   2
   3 -10   2 11.3250 4.56821   2
   3 -10   2 12.1345 4.66804   3
   9   9  -2 -4.2414 5.69037   3
   8   9  -2 12.5330 6.37027   3
   7   9  -2 4.22634 4.81255   3
   6   9  -2 8.70231 8.99362   3
   3   9  -2 225.904 13.1496   3
   2   9  -2 156.014 9.18363   3
   1   9  -2 5.03480 2.18705   2
   1   9  -2 -0.6097 2.99168   3
   1   9  -2 3.87441 5.02612   1
   1   9  -2 2.36351 7.84515   1
  -1  -9   2 3.00790 1.77864   2
  -1  -9   2 6.32019 1.93848   2
   0   9  -2 6.11038 3.46702   3
   0   9  -2 -7.3682 6.75502   1
   0   9  -2 1.53634 2.29274   2
   0  -9   2 4.95231 2.54732   2
   0  -9   2 -0.3328 2.20628   2
   0  -9   2 -0.3829 3.00200   3
  -1   9  -2 9.70704 8.89026   1
   1  -9   2 1.29287 2.99044   3
   1  -9   2 6.23152 3.46178   2
  -2   9  -2 19.4303 4.52784   2
  -2   9  -2 3.25074 12.2487   1
   2  -9   2 13.8909 4.52367   3
   2  -9   2 12.0197 4.10907   2
   2  -9   2 13.2463 4.79160   2
  -3   9  -2 14.1733 4.59992   2
   3  -9   2 11.6482 4.38271   2
   3  -9   2 18.2894 5.39281   3
   3  -9   2 14.5253 4.60035   2
   4  -9   2 6.12587 4.61009   2
   4  -9   2 7.58070 4.19738   3
   4  -9   2 14.2296 5.02371   2
   5  -9   2 -0.0576 3.75982   3
  10   8  -2 32.5341 8.32271   3
 -10  -8   2 18.4501 6.41310   2
 -10  -8   2 28.8452 6.02629   2
   9   8  -2 14.4341 7.47069   3
  -9  -8   2 14.7613 3.44702   2
  -9  -8   2 12.1188 3.12948   2
   8   8  -2 2.49238 8.96571   1
   8   8  -2 6.91125 5.39595   3
  -8  -8   2 -1.6567 1.86669   2
  -8  -8   2 12.4207 9.60807   1
  -8  -8   2 1.05873 1.79862   2
   7   8  -2 21.4878 6.27647   3
   7   8  -2 14.9727 6.60049   1
  -7  -8   2 17.0656 1.58122   2
   6   8  -2 24.7627 5.93884   3
   4   8  -2 89.7622 7.29419   3
   3   8  -2 4.75439 3.09455   3
   2   8  -2 5.09464 1.06416   2
   2   8  -2 1.53024 2.89086   3
   2   8  -2 3.55781 0.97283   2
   1   8  -2 42.0158 3.59207   2
   1   8  -2 41.3605 7.95358   1
   1   8  -2 30.8569 6.43001   1
   1   8  -2 39.2501 5.42794   3
   1   8  -2 38.4355 3.30020   2
  -1  -8   2 38.2333 3.07049   2
  -1  -8   2 34.3676 5.32244   3
  -1  -8   2 39.5489 3.20114   2
   0   8  -2 -5.4908 2.99690   2
   0   8  -2 0.65157 5.30304   1
   0   8  -2 6.89930 3.02996   3
   0   8  -2 4.21397 2.54336   2
   0   8  -2 5.77051 5.11193   1
   0  -8   2 1.62310 2.23454   2
   0  -8   2 0.33714 2.91419   3
  -1   8  -2 67.3915 5.55232   2
  -1   8  -2 54.4317 12.0494   1
   1  -8   2 55.0276 5.39120   2
   1  -8   2 58.4117 6.66401   3
   1  -8   2 57.2500 5.53586   2
  -2   8  -2 28.1898 4.81541   3
  -2   8  -2 37.0697 5.28276   2
   2  -8   2 30.0637 4.92256   2
   2  -8   2 31.3914 5.04373   2
   2  -8   2 34.9007 5.43577   3
  -3   8  -2 33.9002 5.36812   2
   3  -8   2 27.1043 5.19214   3
   3  -8   2 39.3561 5.81035   2
  -4   8  -2 21.8586 5.34249   2
   4  -8   2 6.58638 4.17282   2
  -5   8  -2 10.2115 4.85329   2
   5  -8   2 4.33806 3.78330   3
   5  -8   2 -7.8184 5.00940   2
  10   7  -2 13.6897 9.07436   3
 -10  -7   2 20.0079 4.11001   2
   9   7  -2 23.3038 4.53081   2
   9   7  -2 30.5641 8.01014   3
  -9  -7   2 20.7424 4.01760   2
  -9  -7   2 20.5218 4.04193   2
   8   7  -2 1.76740 2.90601   2
   8   7  -2 0.64217 8.50531   1
   8   7  -2 2.10159 4.98499   3
  -8  -7   2 -6.4484 8.83285   1
  -8  -7   2 4.21769 2.64513   2
  -8  -7   2 1.88175 2.39170   2
   7   7  -2 4.62452 4.76375   3
   7   7  -2 9.35191 2.64971   2
   7   7  -2 2.28102 6.79426   1
  -7  -7   2 6.04004 2.26994   2
  -7  -7   2 5.86124 2.20607   2
  -7  -7   2 10.2618 6.39165   1
   6   7  -2 30.0835 3.02160   2
   6   7  -2 23.4567 3.18052   2
   6   7  -2 23.7636 6.00222   1
   6   7  -2 22.2917 5.89507   3
  -6  -7   2 28.0812 5.95014   1
  -6  -7   2 24.9448 2.43533   2
  -6  -7   2 26.3754 2.60065   2
   5   7  -2 175.867 10.9580   3
   5   7  -2 170.728 4.40771   2
   4   7  -2 34.2016 5.39564   3
   3   7  -2 13.4139 3.75961   3
   2   7  -2 11.8144 3.47010   3
   1   7  -2 28.7337 5.92325   1
   1   7  -2 31.9810 6.00094   1
   1   7  -2 20.3622 3.95502   3
   1   7  -2 24.1048 2.75398   2
  -1  -7   2 21.0331 2.57626   2
  -1  -7   2 25.3353 4.25462   3
   0   7  -2 3.66896 4.46510   1
   0   7  -2 5.29977 2.38749   2
   0   7  -2 6.62291 2.31739   2
   0   7  -2 9.24630 4.80871   1
   0   7  -2 8.31206 2.90915   3
   0  -7   2 4.56297 2.37579   2
   0  -7   2 5.04324 2.30444   2
   0  -7   2 11.1314 3.47681   3
  -1   7  -2 42.4488 4.91174   2
  -1   7  -2 30.1453 13.1323   1
  -1   7  -2 39.4110 5.03892   3
  -1   7  -2 43.5195 4.58312   2
   1  -7   2 41.2863 4.85903   2
   1  -7   2 42.5935 5.43735   3
  -2   7  -2 44.7159 5.76297   3
  -2   7  -2 44.1749 5.65675   2
  -2   7  -2 38.6667 7.64051   2
  -2   7  -2 21.8895 9.81290   1
   2  -7   2 51.6342 5.69708   2
   2  -7   2 46.3014 5.77425   3
   2  -7   2 27.9848 9.39350   1
  -3   7  -2 54.5182 6.69563   3
  -3   7  -2 44.2335 5.81197   2
   3  -7   2 51.1230 6.36998   3
   3  -7   2 56.9631 6.82903   2
   3  -7   2 57.0434 6.42678   2
  -4   7  -2 58.2069 7.71601   2
   4  -7   2 69.7961 7.44073   3
   4  -7   2 76.3612 12.1694   2
  -5   7  -2 12.3373 4.67265   2
   5  -7   2 7.98823 4.84597   2
   5  -7   2 9.09273 4.12352   2
  -6   7  -2 5.68945 4.77669   2
   6  -7   2 3.47539 4.04032   3
   6  -7   2 -3.6637 4.11855   2
   6  -7   2 -0.8121 5.74092   2
  10   6  -2 77.7602 11.5919   3
 -10  -6   2 86.3921 8.54863   2
 -10  -6   2 101.485 8.08680   2
   9   6  -2 1.44604 5.50184   3
   9   6  -2 4.55664 5.84084   2
  -9  -6   2 2.59827 3.21271   2
  -9  -6   2 -1.4886 3.26456   2
   8   6  -2 15.5795 6.34755   3
   8   6  -2 7.11954 13.6564   1
  -8  -6   2 19.6606 4.07211   2
  -8  -6   2 25.4474 11.3544   1
   7   6  -2 -2.9307 4.32481   3
   7   6  -2 -2.4546 6.86443   1
  -7  -6   2 -6.8616 5.69594   1
  -7  -6   2 -0.9327 2.27208   2
   6   6  -2 242.678 20.0914   1
   6   6  -2 236.480 12.3364   3
   6   6  -2 221.332 8.21296   2
  -6  -6   2 212.177 16.4794   1
  -6  -6   2 244.157 8.06202   2
   5   6  -2 848.974 18.5394   2
   5   6  -2 890.835 24.4227   3
   5   6  -2 785.036 39.9191   1
   5   6  -2 874.680 24.2542   3
   5   6  -2 920.919 18.8339   2
  -5  -6   2 804.781 19.7956   2
  -5  -6   2 850.155 17.8068   2
  -5  -6   2 913.837 33.9217   1
   4   6  -2 4.28809 3.19735   3
   3   6  -2 166.027 8.38426   3
   2   6  -2 72.2280 5.65929   3
   1   6  -2 25.3719 2.50749   2
   1   6  -2 32.1291 5.32622   1
   1   6  -2 29.2822 2.51971   2
   1   6  -2 34.9568 4.27811   3
   1   6  -2 21.5975 4.67962   1
  -1  -6   2 29.8129 2.49044   2
  -1  -6   2 29.6283 2.38096   2
  -1  -6   2 29.9429 4.87621   3
   0   6  -2 116.988 11.9455   1
   0   6  -2 119.573 5.54613   2
   0   6  -2 117.339 6.71964   3
   0   6  -2 123.884 12.0353   1
   0   6  -2 128.084 5.74719   2
   0  -6   2 126.580 7.07720   3
   0  -6   2 125.178 5.56007   2
   0  -6   2 122.326 5.59909   2
  -1   6  -2 22.1126 7.08724   1
  -1   6  -2 26.6057 3.68379   2
  -1   6  -2 22.1869 3.72557   3
  -1   6  -2 26.0295 3.62681   2
   1  -6   2 21.1745 7.08467   1
   1  -6   2 22.8091 3.82123   3
   1  -6   2 24.5087 3.68867   2
  -2   6  -2 18.3356 3.89370   2
  -2   6  -2 25.8548 4.28689   3
  -2   6  -2 21.2503 3.94825   2
  -2   6  -2 22.7244 8.23151   1
   2  -6   2 17.1483 3.83851   3
   2  -6   2 23.8249 4.28822   2
   2  -6   2 27.4982 4.50264   2
   2  -6   2 15.4182 7.18357   1
  -3   6  -2 1.35489 2.95432   3
  -3   6  -2 2.74678 3.30129   2
  -3   6  -2 7.51178 7.11375   1
  -3   6  -2 5.44779 3.69565   2
   3  -6   2 15.0117 10.3383   1
   3  -6   2 5.60297 3.54323   2
   3  -6   2 -2.2967 2.59416   3
   3  -6   2 10.5760 3.66781   2
  -4   6  -2 45.5410 9.49618   3
  -4   6  -2 38.1094 6.09615   2
   4  -6   2 29.2454 5.90975   2
   4  -6   2 8.59976 12.0266   1
   4  -6   2 27.2482 4.93533   3
  -5   6  -2 38.3747 6.57574   2
   5  -6   2 30.6339 5.32018   2
   5  -6   2 39.9309 10.1987   2
   5  -6   2 41.7943 6.52212   3
  -6   6  -2 7.38283 5.65300   2
   6  -6   2 2.28978 4.08802   2
   6  -6   2 3.75892 4.91581   2
   6  -6   2 12.0056 5.59528   3
  -7   6  -2 27.0242 8.32981   2
   7  -6   2 6.90215 4.85385   3
   7  -6   2 17.3328 6.18814   2
  10   5  -2 12.1295 7.71982   3
 -10  -5   2 12.3083 4.97363   2
 -10  -5   2 22.2619 7.54087   2
   9   5  -2 -0.0348 3.59829   2
   9   5  -2 -4.4676 5.44926   3
  -9  -5   2 -0.7665 2.95514   2
  -9  -5   2 3.18787 3.57468   2
   8   5  -2 49.5353 13.8590   3
   8   5  -2 46.0182 6.06756   2
  -8  -5   2 62.2605 13.8026   1
  -8  -5   2 41.8554 5.15325   2
   7   5  -2 3.90614 4.72952   3
   7   5  -2 -5.2424 6.20861   1
   7   5  -2 1.96498 2.52378   2
  -7  -5   2 4.53481 6.63611   1
  -7  -5   2 -1.5938 2.44612   2
  -7  -5   2 0.28347 2.55655   2
   6   5  -2 40.1247 6.40343   3
   6   5  -2 47.4627 4.62737   2
   6   5  -2 32.3661 8.17770   1
  -6  -5   2 41.9871 4.53391   2
  -6  -5   2 34.4054 4.38896   2
  -6  -5   2 59.2241 10.4272   1
   5   5  -2 529.899 24.4916   1
   5   5  -2 507.771 16.8698   3
   5   5  -2 511.969 13.1921   2
   5   5  -2 520.782 13.0661   2
  -5  -5   2 528.046 12.9500   2
  -5  -5   2 541.357 24.7974   1
  -5  -5   2 521.398 12.9059   2
   4   5  -2 113.997 4.16182   2
   4   5  -2 120.056 8.02097   1
   4   5  -2 122.683 4.13042   2
  -4  -5   2 131.178 8.41435   1
  -4  -5   2 114.602 3.75607   2
   3   5  -2 419.118 13.1395   3
   2   5  -2 362.191 11.7979   3
   1   5  -2 323.070 7.75757   2
   1   5  -2 349.061 13.7936   1
   1   5  -2 338.390 7.86637   2
   1   5  -2 337.487 13.5167   1
   1   5  -2 337.346 10.5993   3
  -1  -5   2 324.169 7.46309   2
  -1  -5   2 328.939 10.6060   3
  -1  -5   2 334.001 7.52680   2
   0   5  -2 41.2436 3.97005   3
   0   5  -2 45.9449 3.35726   2
   0   5  -2 36.1592 6.31934   1
   0   5  -2 41.5821 3.24437   2
   0  -5   2 42.3627 4.26630   3
   0  -5   2 41.2818 7.04315   1
   0  -5   2 41.7638 3.42267   2
  -1   5  -2 265.187 9.71963   3
  -1   5  -2 256.008 8.98767   2
  -1   5  -2 270.982 19.8841   1
  -1   5  -2 262.447 9.01450   2
   1  -5   2 261.348 9.14114   2
   1  -5   2 263.848 19.5586   1
   1  -5   2 266.111 9.10761   2
  -2   5  -2 133.154 7.40179   2
  -2   5  -2 155.310 17.4382   1
  -2   5  -2 134.091 6.99550   2
  -2   5  -2 146.632 7.33223   3
   2  -5   2 135.344 7.47128   2
   2  -5   2 153.841 16.6626   1
   2  -5   2 127.403 7.27973   2
  -3   5  -2 0.94780 2.87371   3
  -3   5  -2 -0.3877 2.68336   2
  -3   5  -2 0.99626 2.78796   2
   3  -5   2 -0.4924 5.43403   1
   3  -5   2 1.11141 2.90879   2
   3  -5   2 2.88513 2.89274   3
  -4   5  -2 36.4547 5.41007   3
  -4   5  -2 41.3767 6.12229   2
  -4   5  -2 27.0013 11.1761   1
   4  -5   2 38.8793 5.37724   3
   4  -5   2 48.7227 6.48806   2
   4  -5   2 51.2245 14.9458   1
   4  -5   2 40.6138 6.04299   2
  -5   5  -2 24.4904 13.0396   1
  -5   5  -2 4.81600 4.41534   3
  -5   5  -2 6.67302 4.51155   2
   5  -5   2 12.3600 12.3051   1
   5  -5   2 9.18688 4.52215   2
   5  -5   2 7.68397 3.83755   2
   5  -5   2 2.67352 3.40496   3
  -6   5  -2 9.16881 4.58884   2
   6  -5   2 8.02157 4.55547   3
   6  -5   2 10.9590 4.24039   2
   6  -5   2 8.12315 4.82888   2
   7  -5   2 1.92903 3.94633   3
   7  -5   2 3.04374 4.20092   2
  -8   5  -2 32.3185 8.09771   2
   8  -5   2 20.7321 6.45611   2
   8  -5   2 14.6543 5.60421   3
  10   4  -2 3.30068 4.26175   2
  10   4  -2 -1.7278 6.52562   3
 -10  -4   2 2.53416 4.49285   2
 -10  -4   2 0.42900 3.69712   2
   9   4  -2 129.877 9.44978   2
   9   4  -2 130.144 12.5306   3
  -9  -4   2 115.412 8.47457   2
  -9  -4   2 126.549 9.54377   2
   8   4  -2 56.7155 14.1080   1
   8   4  -2 94.4916 7.36638   2
   8   4  -2 89.6546 10.3963   3
  -8  -4   2 70.6183 15.5342   1
  -8  -4   2 84.6954 7.34746   2
  -8  -4   2 79.2958 6.86557   2
   7   4  -2 47.0821 7.34549   3
   7   4  -2 36.4072 5.62629   2
   7   4  -2 62.4244 13.5945   1
   7   4  -2 41.7548 5.33759   2
  -7  -4   2 33.8501 9.61029   1
  -7  -4   2 48.7353 5.39421   2
  -7  -4   2 33.0434 4.94042   2
   6   4  -2 1003.09 44.5618   1
   6   4  -2 939.151 23.7287   2
   6   4  -2 970.509 26.9791   3
   6   4  -2 992.809 23.8035   2
  -6  -4   2 1017.18 23.9394   2
  -6  -4   2 989.340 43.8485   1
  -6  -4   2 969.903 23.6933   2
   5   4  -2 371.653 22.2662   1
   5   4  -2 356.405 10.8853   2
   5   4  -2 383.337 10.9470   2
   5   4  -2 356.730 13.3338   3
  -5  -4   2 392.146 23.0205   1
  -5  -4   2 373.336 10.8093   2
  -5  -4   2 372.672 10.8832   2
   4   4  -2 74.9533 3.83323   2
   4   4  -2 78.3210 3.81448   2
   4   4  -2 87.4088 6.19883   3
   4   4  -2 70.8563 7.67007   1
  -4  -4   2 58.7752 7.43529   1
  -4  -4   2 72.3740 3.71213   2
  -4  -4   2 80.5478 3.83758   2
   3   4  -2 122.118 6.07501   1
   3   4  -2 118.211 3.38560   2
   3   4  -2 117.813 3.31391   2
  -3  -4   2 115.086 6.06787   1
  -3  -4   2 109.936 2.91200   2
  -3  -4   2 111.846 2.89781   2
   2   4  -2 72.0903 4.63099   3
   1   4  -2 248.314 8.80760   1
   1   4  -2 233.120 5.39731   2
   1   4  -2 236.254 8.79871   1
   1   4  -2 237.372 7.92426   3
   1   4  -2 242.390 5.44970   2
  -1  -4   2 230.707 5.02539   2
  -1  -4   2 237.058 5.00228   2
   0   4  -2 174.040 11.7796   1
   0   4  -2 176.376 5.70073   2
   0   4  -2 177.140 6.55435   3
   0   4  -2 169.300 5.60252   2
   0  -4   2 160.443 5.79034   2
   0  -4   2 175.276 5.64404   2
   0  -4   2 176.641 11.9043   1
   0  -4   2 167.021 6.55679   3
  -1   4  -2 34.8476 3.52308   2
  -1   4  -2 37.6319 8.05013   1
  -1   4  -2 36.9377 3.48973   2
  -1   4  -2 30.0162 3.38061   3
   1  -4   2 30.5565 3.62162   3
   1  -4   2 34.3217 7.58705   1
   1  -4   2 27.6959 3.36621   2
   1  -4   2 28.5154 3.42509   2
  -2   4  -2 126.581 6.80153   2
  -2   4  -2 135.397 6.47719   3
  -2   4  -2 133.580 6.85393   2
  -2   4  -2 133.577 15.1849   1
   2  -4   2 129.351 6.86543   2
   2  -4   2 121.408 14.6318   1
   2  -4   2 144.047 6.72791   3
   2  -4   2 142.186 6.93861   2
  -3   4  -2 101.497 15.0129   1
  -3   4  -2 95.0975 6.81096   2
  -3   4  -2 92.0309 6.43322   3
  -3   4  -2 91.1589 6.85969   2
   3  -4   2 79.5755 13.9239   1
   3  -4   2 86.8055 6.87631   2
   3  -4   2 82.6377 6.17894   3
  -4   4  -2 79.2902 6.93637   2
  -4   4  -2 75.8200 6.75317   2
  -4   4  -2 71.7269 6.82784   3
   4  -4   2 70.1765 6.90175   2
   4  -4   2 85.1186 15.9051   1
   4  -4   2 66.6250 6.07842   3
   4  -4   2 73.0225 7.15418   2
  -5   4  -2 -0.3783 3.30503   3
  -5   4  -2 3.89109 3.87711   2
  -5   4  -2 8.46500 9.88625   1
  -5   4  -2 -0.9409 3.53009   2
   5  -4   2 7.91074 9.39784   1
   5  -4   2 0.85980 3.09556   2
   5  -4   2 5.54823 3.52887   3
   5  -4   2 4.50692 3.99565   2
  -6   4  -2 2.22406 4.46200   2
  -6   4  -2 6.96111 3.74498   3
  -6   4  -2 -1.2869 3.93637   2
  -6   4  -2 -2.6697 15.4867   1
   6  -4   2 -3.4806 3.04868   3
   6  -4   2 -2.7821 11.1342   1
   6  -4   2 0.57014 3.74631   2
   6  -4   2 -4.9028 3.11087   2
  -7   4  -2 51.4561 8.63245   2
   7  -4   2 51.8947 8.76722   2
   7  -4   2 60.7577 7.57286   3
   7  -4   2 48.7553 7.33420   2
  -8   4  -2 16.6162 6.49161   2
   8  -4   2 9.14099 5.21588   2
   8  -4   2 22.6911 5.56951   3
  10   3  -2 1.15718 5.93790   3
 -10  -3   2 8.36102 3.64984   2
 -10  -3   2 -4.9113 4.63553   2
   9   3  -2 25.3077 7.42084   3
   9   3  -2 32.6023 8.31253   2
  -9  -3   2 25.1864 5.78584   2
  -9  -3   2 32.6313 5.02501   2
   8   3  -2 69.7177 9.37052   3
   8   3  -2 60.2353 6.97903   2
   8   3  -2 46.9207 14.4382   1
  -8  -3   2 62.2825 6.38336   2
  -8  -3   2 64.6210 7.45328   2
  -8  -3   2 47.5199 14.5026   1
   7   3  -2 13.4563 9.72260   1
   7   3  -2 42.7060 5.62644   2
   7   3  -2 32.4114 4.82449   2
   7   3  -2 19.0484 6.07078   3
  -7  -3   2 41.8123 5.41005   2
  -7  -3   2 14.7604 9.89663   1
  -7  -3   2 37.0911 5.37865   2
   6   3  -2 14.3580 3.63010   2
   6   3  -2 10.9009 6.10385   1
   6   3  -2 4.29452 4.63055   3
   6   3  -2 10.8609 3.39328   2
  -6  -3   2 11.3307 3.42872   2
  -6  -3   2 26.7460 9.99864   1
  -6  -3   2 8.81988 3.46118   2
   5   3  -2 185.292 18.4161   1
   5   3  -2 192.421 7.76569   2
   5   3  -2 196.773 7.85835   2
   5   3  -2 201.160 10.0375   3
  -5  -3   2 214.893 20.3516   1
  -5  -3   2 204.938 7.98434   2
  -5  -3   2 215.215 8.18909   2
   4   3  -2 21.7273 4.07872   3
   4   3  -2 31.4670 3.13907   2
   4   3  -2 24.1101 5.78078   1
   4   3  -2 33.9628 3.21254   2
  -4  -3   2 22.4511 5.26039   1
  -4  -3   2 28.1241 3.16943   2
   3   3  -2 350.779 15.1658   1
   3   3  -2 364.590 8.51753   2
   3   3  -2 360.747 11.0239   3
   3   3  -2 351.900 8.53378   2
  -3  -3   2 357.349 15.4398   1
  -3  -3   2 353.097 8.42754   2
  -3  -3   2 342.241 8.34922   2
   1   3  -2 5.57443 1.90390   3
   0   3  -2 0.41286 1.39020   2
   0   3  -2 0.19640 1.39116   2
   0   3  -2 0.26640 1.49848   3
   0   3  -2 -0.9826 1.70545   1
   0  -3   2 0.46895 1.43370   2
   0  -3   2 0.74297 1.71540   3
   0  -3   2 0.71854 1.76296   1
   0  -3   2 1.71268 1.44004   2
  -1   3  -2 1669.80 33.3633   3
  -1   3  -2 1626.41 33.5860   2
  -1   3  -2 1663.12 33.6538   2
  -1   3  -2 1647.71 50.6297   1
   1  -3   2 1688.90 33.7118   2
   1  -3   2 1671.08 50.6697   1
   1  -3   2 1647.65 33.2860   3
   1  -3   2 1629.75 33.6001   2
  -2   3  -2 780.468 19.4320   2
  -2   3  -2 813.377 20.0483   2
  -2   3  -2 793.692 18.4955   3
  -2   3  -2 809.767 37.4215   1
   2  -3   2 816.780 37.1389   1
   2  -3   2 813.407 18.5802   3
  -3   3  -2 36.2249 4.52790   2
  -3   3  -2 27.9024 4.04783   2
  -3   3  -2 26.5592 3.82790   3
   3  -3   2 31.4365 3.87386   3
   3  -3   2 41.5518 10.7786   1
   3  -3   2 33.2573 4.45157   2
   3  -3   2 32.2632 5.19676   2
  -4   3  -2 6.11901 3.31715   2
  -4   3  -2 17.6156 7.60046   1
  -4   3  -2 9.02751 3.65907   2
  -4   3  -2 9.77758 3.63804   3
   4  -3   2 8.91320 3.54662   2
   4  -3   2 7.80768 6.00977   1
   4  -3   2 7.73598 4.06773   2
   4  -3   2 2.97256 3.07857   3
  -5   3  -2 75.2192 15.8144   1
  -5   3  -2 70.5821 7.28704   2
  -5   3  -2 79.2081 7.38446   2
  -5   3  -2 86.9206 7.11340   3
   5  -3   2 75.3157 6.81535   3
   5  -3   2 83.1711 8.28625   2
   5  -3   2 57.3748 15.1929   1
   5  -3   2 92.0122 7.67319   2
  -6   3  -2 0.44860 3.73285   2
  -6   3  -2 -4.3411 3.44539   2
  -6   3  -2 9.50298 13.0248   1
   6  -3   2 1.03474 3.95436   2
   6  -3   2 -0.7817 3.43657   3
   6  -3   2 12.4052 11.5888   1
   6  -3   2 -1.4324 3.11651   2
  -7   3  -2 -2.2575 4.00402   2
  -7   3  -2 -0.7697 15.9779   1
  -7   3  -2 10.4067 4.58184   2
   7  -3   2 2.55923 4.41356   2
   7  -3   2 12.9367 4.57783   2
   7  -3   2 12.6531 4.96792   3
  -8   3  -2 4.91148 5.92588   2
   8  -3   2 18.4058 5.64773   2
   8  -3   2 11.6177 4.88916   3
   8  -3   2 5.79907 5.67899   2
  -9   3  -2 -0.5832 5.28932   2
   9  -3   2 1.59534 4.96984   2
   9  -3   2 12.4047 5.31894   3
  10   2  -2 -9.8782 5.36350   3
  10   2  -2 -3.4570 3.47116   2
 -10  -2   2 9.29688 3.92182   2
 -10  -2   2 -0.8703 4.97988   2
   9   2  -2 60.3472 9.14344   3
   9   2  -2 58.1112 7.57534   2
  -9  -2   2 42.9105 6.75947   2
  -9  -2   2 51.6089 6.71483   2
   8   2  -2 49.3479 7.95996   3
   8   2  -2 28.1849 13.4728   1
   8   2  -2 63.6514 6.79892   2
  -8  -2   2 60.5579 6.90031   2
  -8  -2   2 67.2592 16.2185   1
   7   2  -2 2.94763 5.10453   3
   7   2  -2 -9.6253 6.08218   1
   7   2  -2 -3.6459 3.08107   2
   7   2  -2 3.45790 3.23564   2
  -7  -2   2 0.27089 3.53957   2
   6   2  -2 150.245 10.1019   3
   6   2  -2 151.049 18.7111   1
   6   2  -2 153.623 12.1420   2
   6   2  -2 162.437 8.34033   2
  -6  -2   2 148.634 7.75842   2
  -6  -2   2 155.200 17.3692   1
  -6  -2   2 148.654 8.50413   2
   5   2  -2 12.5713 6.97943   1
   5   2  -2 9.40957 2.73884   2
   5   2  -2 13.6615 4.11686   3
   5   2  -2 7.89149 2.83536   2
  -5  -2   2 11.5304 3.15507   2
  -5  -2   2 12.7423 3.13468   2
  -5  -2   2 7.13786 5.23934   1
   4   2  -2 1392.06 32.5701   3
   4   2  -2 1461.95 32.6715   2
   4   2  -2 1435.22 30.2918   2
   4   2  -2 1486.76 49.2361   1
  -4  -2   2 1432.92 30.3760   2
  -4  -2   2 1460.46 49.0504   1
  -4  -2   2 1414.43 30.2820   2
   3   2  -2 1329.34 39.3466   1
   3   2  -2 1321.44 26.2148   2
   3   2  -2 1315.93 26.3004   2
   3   2  -2 1281.80 28.0801   3
  -3  -2   2 1180.50 55.5084   1
  -3  -2   2 1303.21 26.2207   2
  -3  -2   2 1291.36 26.2171   2
   2   2  -2 348.168 7.54183   2
   2   2  -2 329.797 9.34881   3
  -2  -2   2 328.058 7.40221   2
  -2  -2   2 341.523 7.43905   2
  -2  -2   2 323.102 14.4159   1
   1   2  -2 373.607 7.13718   2
   1   2  -2 366.408 7.13685   2
   1   2  -2 388.578 9.35260   3
   0   2  -2 86.1627 3.53410   3
   0   2  -2 96.9150 7.06217   1
   0   2  -2 89.3328 3.31538   2
   0   2  -2 93.4284 3.39498   2
   0  -2   2 97.1316 3.39929   2
   0  -2   2 93.1031 3.65516   3
   0  -2   2 90.1799 3.28712   2
   0  -2   2 94.2849 6.98046   1
  -1   2  -2 101.444 4.67059   2
  -1   2  -2 109.618 10.1547   1
  -1   2  -2 94.1792 4.64243   2
  -1   2  -2 101.920 3.96785   3
   1  -2   2 100.624 9.91349   1
   1  -2   2 93.4473 3.99174   3
   1  -2   2 98.3140 4.43536   2
   1  -2   2 97.6045 4.36445   2
  -2   2  -2 1.63431 2.49883   2
  -2   2  -2 3.60707 2.26995   2
  -2   2  -2 6.85165 3.67381   1
  -2   2  -2 3.46100 2.13932   3
   2  -2   2 4.45995 3.78567   1
   2  -2   2 2.15985 2.24627   2
   2  -2   2 2.91041 1.78678   3
  -3   2  -2 184.343 8.23472   2
  -3   2  -2 186.060 8.12614   2
  -3   2  -2 200.444 19.2004   1
  -3   2  -2 187.401 7.29450   3
   3  -2   2 191.777 7.15864   3
   3  -2   2 182.085 8.22595   2
   3  -2   2 191.312 8.22334   2
   3  -2   2 205.699 18.9726   1
  -4   2  -2 151.417 8.27005   2
  -4   2  -2 177.591 19.7642   1
  -4   2  -2 138.297 8.47369   3
  -4   2  -2 131.017 9.24614   2
   4  -2   2 143.267 8.25404   2
   4  -2   2 147.998 8.04300   2
   4  -2   2 155.547 18.7001   1
  -5   2  -2 4.24509 3.58097   2
  -5   2  -2 -1.8073 3.05218   2
  -5   2  -2 1.18976 2.89717   3
  -5   2  -2 -2.1662 7.56360   1
   5  -2   2 5.55451 6.25408   1
   5  -2   2 1.87930 3.13697   2
   5  -2   2 0.91612 2.76719   3
   5  -2   2 -3.3304 3.05825   2
  -6   2  -2 35.2045 12.0098   1
  -6   2  -2 39.8406 5.45999   3
  -6   2  -2 42.1184 6.77940   2
  -6   2  -2 40.3949 6.53341   2
   6  -2   2 48.3838 6.03893   3
   6  -2   2 49.5850 7.08595   2
   6  -2   2 46.1300 6.50953   2
   6  -2   2 21.5426 10.8134   1
  -7   2  -2 29.5016 17.0818   1
  -7   2  -2 20.4899 5.24051   3
  -7   2  -2 13.2284 4.86246   2
  -7   2  -2 17.5228 5.64403   2
   7  -2   2 23.7689 6.06145   2
   7  -2   2 33.2577 5.64400   3
   7  -2   2 42.1587 16.2034   1
   7  -2   2 19.3137 5.04531   2
  -8   2  -2 48.2830 8.61014   2
  -8   2  -2 31.8347 21.2614   1
  -8   2  -2 37.1676 7.02653   2
   8  -2   2 42.8820 7.79299   2
   8  -2   2 88.2991 25.7164   1
   8  -2   2 62.2513 11.4186   3
   8  -2   2 59.5227 7.50660   2
  -9   2  -2 133.061 12.0670   2
   9  -2   2 139.518 11.1397   3
  10   1  -2 4.26515 4.93992   2
  10   1  -2 0.72305 5.44124   3
 -10  -1   2 9.96964 5.33967   2
   9   1  -2 14.5410 4.90696   2
   9   1  -2 20.2405 6.53338   3
  -9  -1   2 31.7962 5.72956   2
  -9  -1   2 29.3738 6.51006   2
   8   1  -2 1.43499 5.16389   3
   8   1  -2 2.66469 3.51859   2
  -8  -1   2 -0.8691 3.41182   2
  -8  -1   2 0.04301 9.20085   1
  -8  -1   2 3.62265 4.43655   2
   7   1  -2 33.8397 11.6906   1
   7   1  -2 31.5947 6.91097   3
   7   1  -2 35.6540 5.59866   2
  -7  -1   2 48.9922 11.1989   1
  -7  -1   2 44.3472 6.59193   2
  -7  -1   2 41.0170 5.62461   3
  -7  -1   2 38.2343 5.80903   2
   6   1  -2 9.44051 8.38563   1
   6   1  -2 22.4791 5.99966   3
   6   1  -2 24.6579 4.65409   2
   6   1  -2 21.9127 4.28550   2
  -6  -1   2 24.2873 4.53711   3
  -6  -1   2 24.5473 4.31660   2
  -6  -1   2 23.7769 5.00682   2
  -6  -1   2 13.4866 7.27222   1
   5   1  -2 48.4288 11.5427   1
   5   1  -2 59.2411 5.04213   2
   5   1  -2 64.2882 5.23633   2
   5   1  -2 60.4380 7.08170   3
  -5  -1   2 67.0816 5.50559   2
  -5  -1   2 68.3943 5.77263   3
   4   1  -2 200.419 10.7543   3
   4   1  -2 244.178 18.6627   1
   4   1  -2 211.920 8.20902   2
   4   1  -2 205.614 9.50037   2
   3   1  -2 662.197 27.8025   1
   3   1  -2 627.391 14.9182   2
   3   1  -2 634.694 14.9827   2
   3   1  -2 636.554 16.2458   3
  -3  -1   2 653.012 27.7267   1
  -3  -1   2 624.159 15.7269   3
  -3  -1   2 613.708 14.8829   2
  -3  -1   2 628.185 14.9550   2
   2   1  -2 2412.85 47.9381   3
   2   1  -2 2461.49 46.8870   2
   2   1  -2 2499.52 46.9172   2
   2   1  -2 2538.05 58.9125   1
  -2  -1   2 2471.80 46.8903   2
  -2  -1   2 2443.92 58.4695   1
  -2  -1   2 2441.25 46.9037   2
  -2  -1   2 2555.14 48.0487   3
   1   1  -2 124.861 3.50668   2
   1   1  -2 125.301 4.28131   3
   1   1  -2 124.951 3.52734   2
  -1  -1   2 135.173 6.98059   1
  -1  -1   2 127.570 3.53304   2
   0   1  -2 364.687 13.7319   1
   0   1  -2 353.304 8.01049   2
   0   1  -2 350.463 7.61945   3
   0   1  -2 355.357 7.98577   2
   0  -1   2 355.361 7.99906   2
   0  -1   2 353.406 7.93678   2
   0  -1   2 381.879 14.0372   1
  -2   1  -2 895.137 20.3325   2
  -2   1  -2 894.306 18.7588   3
  -2   1  -2 879.622 20.3004   2
  -2   1  -2 937.233 36.5928   1
   2  -1   2 897.999 20.3989   2
   2  -1   2 870.940 20.2356   2
   2  -1   2 882.111 18.7053   3
   2  -1   2 951.906 36.9430   1
  -3   1  -2 -1.1533 2.17979   2
  -3   1  -2 -0.2785 3.63227   1
  -3   1  -2 1.08864 2.45453   2
  -3   1  -2 2.00257 2.23887   3
   3  -1   2 3.50423 1.95237   3
   3  -1   2 11.2137 5.22977   1
   3  -1   2 -0.9612 2.23148   2
   3  -1   2 4.93914 2.76896   2
  -4   1  -2 464.408 14.9019   2
  -4   1  -2 503.049 13.7045   3
  -4   1  -2 510.280 15.5306   2
  -4   1  -2 477.717 32.1790   1
   4  -1   2 503.932 15.3032   2
   4  -1   2 483.022 13.5481   3
   4  -1   2 484.145 32.2545   1
   4  -1   2 486.962 15.1707   2
  -5   1  -2 34.8836 10.0638   1
  -5   1  -2 39.7457 5.69669   2
  -5   1  -2 41.3474 5.86957   2
  -5   1  -2 35.1859 4.56428   3
   5  -1   2 44.0898 5.76915   2
   5  -1   2 31.7751 10.7218   1
   5  -1   2 33.8397 4.69569   3
  -6   1  -2 1.82053 8.34695   1
  -6   1  -2 20.3578 4.95466   2
  -6   1  -2 17.7981 4.09842   3
   6  -1   2 11.7300 4.10504   3
   6  -1   2 10.4291 4.21078   2
   6  -1   2 19.4389 5.20827   2
   6  -1   2 35.5673 18.1234   1
  -7   1  -2 39.7294 6.79356   2
  -7   1  -2 45.6236 14.9241   1
  -7   1  -2 54.9146 6.05104   3
  -7   1  -2 41.2320 6.46134   2
   7  -1   2 37.9342 13.0460   1
   7  -1   2 44.0423 6.97114   2
   7  -1   2 41.8369 7.04242   2
   7  -1   2 38.6476 5.98396   3
  -8   1  -2 18.5727 17.1391   1
  -8   1  -2 12.2623 5.31103   2
  -8   1  -2 20.5381 5.51555   2
   8  -1   2 9.95573 18.2608   1
   8  -1   2 12.5991 5.14097   3
   8  -1   2 18.8053 5.92510   2
   8  -1   2 17.8291 4.90258   2
  -9   1  -2 -5.8846 4.92035   2
   9  -1   2 5.27790 4.62107   3
   9  -1   2 -5.6809 4.80268   2
 -10   1  -2 2.56225 5.83811   2
  10  -1   2 1.55175 4.81957   3
  10  -1   2 0.23371 6.40057   2
  10   0  -2 -5.0826 5.20512   3
  10   0  -2 14.3344 8.16027   2
 -10   0   2 11.7625 5.84926   2
   9   0  -2 1.78402 3.85599   2
   9   0  -2 3.25724 5.28661   3
  -9   0   2 10.8393 4.79061   2
  -9   0   2 7.97168 5.55255   2
   8   0  -2 3.22338 5.62439   3
   8   0  -2 -4.4281 3.13995   2
   8   0  -2 18.2306 11.9068   1
  -8   0   2 -6.5054 3.34142   2
  -8   0   2 -0.1973 3.41300   2
  -8   0   2 -7.1416 12.6893   1
   7   0  -2 584.557 20.1775   3
   7   0  -2 515.449 40.0746   1
   7   0  -2 550.205 19.3560   2
   7   0  -2 556.234 19.1159   2
  -7   0   2 535.304 19.2407   2
  -7   0   2 566.163 19.1531   2
  -7   0   2 510.362 39.7328   1
   6   0  -2 165.583 9.27106   2
   6   0  -2 178.622 25.6609   1
   6   0  -2 156.769 10.6356   3
   6   0  -2 165.463 9.30930   2
  -6   0   2 167.661 9.16537   2
  -6   0   2 172.753 9.96804   2
  -6   0   2 162.318 9.15435   3
  -6   0   2 168.624 22.4079   1
   5   0  -2 32.0937 5.45528   3
   5   0  -2 51.0299 5.58803   2
   5   0  -2 42.0329 4.94078   2
   5   0  -2 39.1568 10.0548   1
  -5   0   2 45.4710 5.36306   3
  -5   0   2 45.4937 11.1182   1
  -5   0   2 49.4937 5.13227   2
  -5   0   2 45.8234 5.34362   2
   4   0  -2 844.681 21.3633   3
   4   0  -2 849.827 20.6900   2
   4   0  -2 844.973 39.5020   1
   4   0  -2 827.824 20.6776   2
  -4   0   2 823.498 20.6407   2
  -4   0   2 842.678 39.4869   1
  -4   0   2 886.163 21.5663   3
  -4   0   2 809.477 20.6703   2
   3   0  -2 23.1550 4.19779   3
   3   0  -2 12.7387 4.30744   1
   3   0  -2 20.9813 3.03605   2
   3   0  -2 18.5137 2.99791   2
  -3   0   2 9.95318 5.27834   1
  -3   0   2 15.6992 3.33783   3
  -3   0   2 18.7920 2.99023   2
   2   0  -2 927.715 19.7338   2
   2   0  -2 918.975 19.7144   2
   2   0  -2 938.409 20.1957   3
   2   0  -2 959.394 32.5232   1
  -2   0   2 929.037 20.0585   3
  -2   0   2 905.104 19.7516   2
   1   0  -2 476.730 10.4707   2
   1   0  -2 460.320 10.5320   3
   1   0  -2 433.796 11.2516   2
  -1   0   2 497.133 10.5555   2
  -1   0   2 468.888 19.7175   1
  -1   0   2 484.928 10.5391   3
   0   0  -2 1622.05 30.2556   2
   0   0  -2 1392.29 32.7248   2
   0   0  -2 1629.92 39.9429   1
   0   0   2 1649.03 39.4471   1
   0   0   2 1621.65 30.2252   2
  -1   0  -2 290.174 7.70777   2
  -1   0  -2 299.017 16.6173   1
  -1   0  -2 283.945 5.97919   3
  -1   0  -2 302.644 7.92027   2
   1   0   2 285.162 5.94367   3
   1   0   2 293.432 7.75709   2
   1   0   2 293.203 16.9409   1
  -2   0  -2 413.121 11.2435   2
  -2   0  -2 439.613 22.7221   1
  -2   0  -2 409.552 9.68013   3
  -2   0  -2 438.552 11.3347   2
   2   0   2 444.380 22.9522   1
   2   0   2 429.924 9.83073   3
   2   0   2 419.361 11.3166   2
   2   0   2 433.235 11.3454   2
  -3   0  -2 171.613 6.25847   3
  -3   0  -2 182.722 16.3354   1
  -3   0  -2 177.190 7.47736   2
  -3   0  -2 168.462 7.34153   2
   3   0   2 172.967 7.42236   2
   3   0   2 160.208 7.12884   2
   3   0   2 176.477 16.7433   1
   3   0   2 171.696 6.69554   3
  -4   0  -2 98.8487 6.28856   2
  -4   0  -2 97.5396 5.45905   3
  -4   0  -2 109.599 13.9722   1
  -4   0  -2 107.776 6.60117   2
   4   0   2 104.244 6.02560   3
   4   0   2 99.4801 6.31603   2
   4   0   2 94.2819 13.9306   1
   4   0   2 101.055 6.50110   2
  -5   0  -2 156.212 8.61741   2
  -5   0  -2 168.312 19.6797   1
  -5   0  -2 157.430 8.86907   2
  -5   0  -2 154.632 7.39932   3
   5   0   2 160.766 19.7765   1
   5   0   2 146.955 8.23204   3
   5   0   2 168.528 8.91960   2
   5   0   2 170.397 9.04595   2
  -6   0  -2 184.321 10.2275   2
  -6   0  -2 160.303 8.43073   3
  -6   0  -2 152.482 9.69403   2
  -6   0  -2 143.547 21.9938   1
   6   0   2 163.052 9.31179   3
   6   0   2 156.738 10.2565   2
   6   0   2 160.147 22.0685   1
  -7   0  -2 -1.6721 3.94166   2
  -7   0  -2 -3.2994 3.90888   2
  -7   0  -2 -3.3166 11.3125   1
  -7   0  -2 2.11829 3.50779   3
   7   0   2 2.68653 4.46582   2
   7   0   2 2.46084 10.6226   1
   7   0   2 7.52162 4.53825   3
   7   0   2 3.77506 3.91255   2
  -8   0  -2 53.7330 7.11610   2
  -8   0  -2 68.4033 8.68963   2
   8   0   2 66.0820 8.28932   2
   8   0   2 58.1060 7.94213   2
   8   0   2 29.2000 16.4839   1
   8   0   2 53.9810 7.20862   3
  -9   0  -2 13.0108 5.59228   2
  -9   0  -2 19.3710 5.31475   2
  -9   0  -2 54.3448 28.0877   1
   9   0   2 10.9735 5.38260   2
   9   0   2 10.8928 4.88146   3
   9   0   2 -6.4567 39.4446   1
 -10   0  -2 8.29223 5.61587   2
  10   0   2 5.61075 5.28813   3
  10   0   2 16.6350 6.37722   2
  10  -1  -2 26.9587 7.46781   2
 -10   1   2 13.9913 6.14348   2
   9  -1  -2 14.5430 5.22536   2
   9  -1  -2 12.0455 5.86451   3
  -9   1   2 12.7125 5.29110   2
  -9   1   2 27.3770 6.62837   2
   8  -1  -2 12.1669 14.6196   1
   8  -1  -2 0.09364 3.88221   2
   8  -1  -2 1.59895 4.43897   3
  -8   1   2 22.8169 17.0767   1
  -8   1   2 -1.7180 3.86883   2
  -8   1   2 4.49783 3.45749   2
   7  -1  -2 68.7689 8.44722   3
   7  -1  -2 72.4918 7.97485   2
   7  -1  -2 66.2032 7.47858   2
   7  -1  -2 47.4823 15.8336   1
  -7   1   2 78.0366 8.33876   2
  -7   1   2 76.2777 7.53647   2
  -7   1   2 56.7495 14.0042   1
   6  -1  -2 42.8085 11.8631   1
   6  -1  -2 50.1947 6.95928   3
   6  -1  -2 44.2159 6.17191   2
   6  -1  -2 60.4266 6.89137   2
  -6   1   2 55.9346 13.9474   1
  -6   1   2 50.1189 6.20180   2
  -6   1   2 53.9290 6.64334   2
  -6   1   2 58.0630 6.43236   3
   5  -1  -2 61.5266 5.91158   2
   5  -1  -2 95.3284 14.4726   1
   5  -1  -2 63.0169 5.97289   2
   5  -1  -2 61.3213 6.80212   3
  -5   1   2 71.5543 6.35207   3
  -5   1   2 64.6692 10.5259   2
  -5   1   2 48.3163 12.4763   1
  -5   1   2 63.0142 5.96782   2
   4  -1  -2 167.129 13.3834   3
   4  -1  -2 207.188 8.78052   2
   4  -1  -2 214.408 21.9067   1
   4  -1  -2 197.820 8.61798   2
  -4   1   2 227.766 20.7070   1
  -4   1   2 201.852 8.66209   3
  -4   1   2 194.133 8.53124   2
  -4   1   2 196.584 8.71729   2
   3  -1  -2 187.219 7.54041   2
   3  -1  -2 178.564 16.3809   1
   3  -1  -2 187.221 8.22621   3
   3  -1  -2 193.872 7.69055   2
  -3   1   2 186.339 7.75448   2
  -3   1   2 189.685 7.98434   3
  -3   1   2 195.030 17.0043   1
  -3   1   2 181.774 7.56925   2
   2  -1  -2 55.3542 4.31055   3
   2  -1  -2 57.2437 3.98654   2
   2  -1  -2 74.2792 8.86281   1
   2  -1  -2 55.7520 3.94727   2
  -2   1   2 61.5028 4.38954   2
  -2   1   2 57.1023 8.48942   1
  -2   1   2 56.5722 4.37718   3
  -2   1   2 54.4873 3.98720   2
   1  -1  -2 413.540 10.3957   2
   1  -1  -2 429.371 10.4351   2
   1  -1  -2 428.343 10.1599   3
  -1   1   2 422.355 10.4086   2
  -1   1   2 433.893 10.5161   2
  -1   1   2 455.010 20.3465   1
  -1   1   2 433.769 10.1730   3
  -1   1   2 441.618 19.6754   1
   0  -1  -2 3659.06 79.0992   1
   0   1   2 3476.32 78.2231   1
  -1  -1  -2 9581.73 188.880   1
   1   1   2 9424.34 188.921   1
  -2  -1  -2 553.303 13.6177   2
  -2  -1  -2 594.129 26.2631   1
  -2  -1  -2 572.190 13.7707   2
   2   1   2 590.910 13.9730   2
   2   1   2 558.676 13.6597   2
   2   1   2 554.593 12.3175   3
  -3  -1  -2 49.9666 4.47202   2
  -3  -1  -2 42.7561 4.20389   2
  -3  -1  -2 45.3880 9.74893   1
   3   1   2 35.3854 12.3389   1
   3   1   2 36.7719 4.17008   2
   3   1   2 43.4666 4.34960   2
   3   1   2 39.1474 4.13399   3
  -4  -1  -2 11.8380 3.25981   2
  -4  -1  -2 9.52969 5.72733   1
  -4  -1  -2 9.31572 2.91900   2
  -4  -1  -2 16.2997 2.90460   3
   4   1   2 14.0507 6.71740   1
   4   1   2 9.44074 3.20430   3
   4   1   2 14.5867 3.37843   2
   4   1   2 10.7822 2.71126   2
  -5  -1  -2 180.628 9.01257   2
  -5  -1  -2 170.011 19.2698   1
  -5  -1  -2 172.164 8.65792   2
  -5  -1  -2 164.059 7.76657   3
   5   1   2 174.145 8.80280   2
   5   1   2 172.974 8.58426   3
   5   1   2 162.667 8.74427   2
   5   1   2 172.402 20.0784   1
  -6  -1  -2 24.6552 8.83490   2
  -6  -1  -2 26.7308 9.53038   1
  -6  -1  -2 36.3368 4.66949   3
  -6  -1  -2 36.9560 5.65306   2
   6   1   2 26.0976 5.06881   2
   6   1   2 34.7763 5.69434   3
   6   1   2 41.0066 11.3558   1
   6   1   2 28.9047 5.14213   2
  -7  -1  -2 171.558 24.5710   1
  -7  -1  -2 138.464 9.77828   2
  -7  -1  -2 139.534 9.52129   2
   7   1   2 132.518 10.0420   3
   7   1   2 130.870 9.41185   2
   7   1   2 137.954 10.4459   2
   7   1   2 89.9362 19.6569   1
  -8  -1  -2 -0.3232 14.1144   1
  -8  -1  -2 2.23620 4.49868   2
   8   1   2 7.61050 8.70681   2
   8   1   2 7.29571 4.97594   3
   8   1   2 -1.9165 4.15729   2
  -9  -1  -2 5.64274 4.54967   2
  -9  -1  -2 26.9494 6.49908   2
  -9  -1  -2 2.60149 20.5587   1
   9   1   2 21.1119 6.19843   3
   9   1   2 18.7353 18.9100   1
   9   1   2 17.9197 5.99030   2
 -10  -1  -2 20.0491 6.80496   2
  10   1   2 20.7089 6.43935   2
  10   1   2 12.7970 5.72287   3
   9  -2  -2 -3.4791 4.88842   2
   9  -2  -2 4.79750 5.48503   3
  -9   2   2 6.69048 5.35625   2
  -9   2   2 9.36923 5.48441   2
   8  -2  -2 30.9376 6.70657   3
   8  -2  -2 33.1486 6.32514   2
   8  -2  -2 35.8521 18.9742   1
  -8   2   2 15.2176 5.39322   2
  -8   2   2 50.2009 20.0265   1
  -8   2   2 21.3593 6.29435   2
   7  -2  -2 193.582 11.5146   2
   7  -2  -2 193.171 12.0133   3
  -7   2   2 199.735 12.0798   2
  -7   2   2 195.527 12.0907   2
  -7   2   2 221.416 27.9436   1
   6  -2  -2 55.1757 6.90970   2
   6  -2  -2 45.9962 12.9330   1
   6  -2  -2 56.3428 6.64057   2
   6  -2  -2 49.5368 6.76784   3
  -6   2   2 57.8598 6.85639   3
  -6   2   2 59.2153 6.96121   2
  -6   2   2 70.0667 18.5617   1
  -6   2   2 58.5428 7.28840   2
   5  -2  -2 99.3572 7.44202   2
   5  -2  -2 103.661 8.02560   3
   5  -2  -2 88.2065 17.0249   1
   5  -2  -2 101.080 7.44445   2
  -5   2   2 92.5962 8.82377   2
  -5   2   2 89.5343 7.25479   3
  -5   2   2 82.2091 14.9993   1
  -5   2   2 97.7628 7.53045   2
   4  -2  -2 -1.1952 2.68701   3
   4  -2  -2 1.50065 2.72612   2
   4  -2  -2 -3.9721 3.28844   1
   4  -2  -2 1.86614 2.59156   2
  -4   2   2 2.35463 4.68579   1
  -4   2   2 -0.9815 2.93486   3
  -4   2   2 -1.5895 2.74855   2
  -4   2   2 0.19503 2.52342   2
   3  -2  -2 101.449 6.07881   2
   3  -2  -2 92.4348 12.4201   1
   3  -2  -2 103.790 6.11368   2
   3  -2  -2 93.9816 6.02526   3
  -3   2   2 91.6853 5.87788   2
  -3   2   2 112.459 13.6728   1
  -3   2   2 101.425 6.44989   3
  -3   2   2 101.611 6.17471   2
   2  -2  -2 283.902 9.20252   2
   2  -2  -2 282.445 9.16268   2
   2  -2  -2 255.441 8.72364   3
   2  -2  -2 283.230 19.8820   1
  -2   2   2 284.143 9.17076   3
  -2   2   2 276.681 9.24628   2
  -2   2   2 284.036 9.20148   2
   1  -2  -2 687.377 16.1341   2
   1  -2  -2 686.264 16.1204   2
   1  -2  -2 692.545 15.7875   3
  -1   2   2 774.380 29.9937   1
  -1   2   2 724.003 15.8645   3
  -1   2   2 710.876 16.2761   2
  -1   2   2 683.716 16.0995   2
   0  -2  -2 39.7981 2.74253   3
   0  -2  -2 41.3849 3.17685   2
   0  -2  -2 43.8119 3.12546   2
   0  -2  -2 47.9747 6.69947   1
   0   2   2 45.2439 6.55235   1
   0   2   2 44.4812 3.25463   2
   0   2   2 44.0856 2.77910   3
   0   2   2 39.6781 3.15799   2
  -1  -2  -2 52.1812 2.94667   3
  -1  -2  -2 56.3350 7.28793   1
  -1  -2  -2 57.7590 3.49665   2
  -1  -2  -2 64.6899 3.58139   2
   1   2   2 59.3599 7.36896   1
   1   2   2 59.7829 2.96026   3
   1   2   2 61.9278 3.31153   2
   1   2   2 57.4750 3.55200   2
  -2  -2  -2 3.12907 2.86438   1
  -2  -2  -2 2.62844 2.01063   2
  -2  -2  -2 4.31213 2.04903   2
   2   2   2 1.39760 2.87002   1
   2   2   2 3.78061 2.12663   2
   2   2   2 1.48235 1.95488   2
  -3  -2  -2 132.768 13.6840   1
  -3  -2  -2 119.052 5.90282   2
  -3  -2  -2 123.201 5.99603   2
   3   2   2 131.719 5.55336   3
   3   2   2 125.872 6.17769   2
   3   2   2 124.102 6.01170   2
   3   2   2 126.913 13.4756   1
  -4  -2  -2 69.3534 5.28356   2
  -4  -2  -2 82.5506 11.1818   1
  -4  -2  -2 71.1617 5.23295   2
   4   2   2 80.4515 5.25791   3
   4   2   2 76.2861 5.47437   2
   4   2   2 69.5865 14.3127   1
   4   2   2 82.6644 5.49455   2
  -5  -2  -2 15.2063 4.37005   2
  -5  -2  -2 17.2370 3.77122   2
  -5  -2  -2 17.2299 7.41142   1
   5   2   2 19.5660 7.14322   1
   5   2   2 14.1521 3.89004   3
   5   2   2 18.3235 3.84435   2
   5   2   2 18.7596 3.90406   2
  -6  -2  -2 220.039 22.8951   1
  -6  -2  -2 199.829 10.3254   2
  -6  -2  -2 197.587 9.91403   2
   6   2   2 207.238 10.3375   2
   6   2   2 196.079 10.5944   3
   6   2   2 189.708 10.0553   2
   6   2   2 201.245 23.6219   1
  -7  -2  -2 31.4074 10.8488   1
  -7  -2  -2 36.2347 6.20373   2
  -7  -2  -2 31.6694 5.73292   2
   7   2   2 34.5556 6.19246   2
   7   2   2 42.0869 7.00789   3
   7   2   2 35.3407 12.8849   1
   7   2   2 38.7012 6.29864   2
  -8  -2  -2 390.682 16.9945   2
  -8  -2  -2 373.211 37.5454   1
  -8  -2  -2 423.846 17.8920   2
   8   2   2 383.389 39.6125   1
   8   2   2 395.398 17.1557   2
   8   2   2 368.046 24.9919   2
   8   2   2 393.173 16.5556   3
  -9  -2  -2 12.0726 5.17212   2
  -9  -2  -2 22.7878 5.85302   2
  -9  -2  -2 15.1242 19.4782   1
   9   2   2 7.46484 5.96803   2
   9   2   2 -3.4705 16.4910   1
 -10  -2  -2 8.65090 5.48803   2
 -10  -2  -2 0.28743 6.90234   2
  10   2   2 11.1830 5.44505   2
  10   2   2 14.3071 6.08967   3
   9  -3  -2 -0.8425 4.13762   2
   9  -3  -2 0.83385 4.70296   3
  -9   3   2 10.3853 5.45128   2
   8  -3  -2 -17.772 16.1436   1
   8  -3  -2 2.87172 4.12576   3
   8  -3  -2 2.68140 4.56911   2
  -8   3   2 -7.2912 4.59279   2
  -8   3   2 4.20466 4.86487   2
  -8   3   2 -6.0729 20.5559   1
   7  -3  -2 -3.3301 3.63387   2
   7  -3  -2 1.82125 3.90148   2
   7  -3  -2 -12.503 10.2977   1
   7  -3  -2 2.82193 4.27146   3
  -7   3   2 -7.0261 3.38843   2
  -7   3   2 0.82032 4.71781   2
  -7   3   2 2.43396 12.6134   1
   6  -3  -2 39.3612 6.37174   2
   6  -3  -2 46.8392 6.73877   3
   6  -3  -2 60.2740 9.32633   2
  -6   3   2 28.9924 14.1470   1
  -6   3   2 45.8990 7.14721   2
  -6   3   2 46.6422 7.31615   3
  -6   3   2 45.1910 8.18642   2
   5  -3  -2 33.6377 5.64609   3
   5  -3  -2 40.2762 5.98315   2
   5  -3  -2 31.5064 10.5356   1
  -5   3   2 39.2765 5.96069   2
  -5   3   2 18.9342 10.6042   1
  -5   3   2 42.4131 6.20912   3
  -5   3   2 32.4500 5.63549   2
   4  -3  -2 1.56011 2.95222   3
   4  -3  -2 1.01288 2.89608   2
   4  -3  -2 -0.7431 2.70385   2
   4  -3  -2 6.68186 5.77897   1
  -4   3   2 4.74893 3.53369   3
  -4   3   2 -3.6133 2.61735   2
  -4   3   2 5.75837 3.42845   2
  -4   3   2 -0.7000 6.03358   1
   3  -3  -2 4.80677 2.79337   2
   3  -3  -2 17.1326 6.19756   1
   3  -3  -2 5.45945 2.88208   3
   3  -3  -2 5.88998 3.02305   2
  -3   3   2 5.21540 5.20354   1
  -3   3   2 9.13908 3.30999   3
  -3   3   2 5.28878 2.93306   2
  -3   3   2 3.35313 2.93547   2
   2  -3  -2 632.250 16.6664   2
   2  -3  -2 637.389 16.4741   3
   2  -3  -2 652.197 33.7255   1
  -2   3   2 670.937 16.5749   3
  -2   3   2 643.148 16.7691   2
  -2   3   2 621.436 32.9020   1
  -2   3   2 661.089 17.0303   2
   1  -3  -2 104.941 5.22540   3
   1  -3  -2 105.373 5.38491   2
   1  -3  -2 106.288 5.40249   2
  -1   3   2 107.876 5.48547   2
  -1   3   2 107.562 5.26880   3
  -1   3   2 101.449 5.34226   2
  -1   3   2 100.200 11.5314   1
  -1   3   2 100.199 11.8265   1
   0  -3  -2 886.215 32.7300   1
   0  -3  -2 838.046 18.8975   2
   0  -3  -2 856.884 18.9214   2
   0  -3  -2 845.065 18.7639   3
   0   3   2 842.907 18.8622   2
   0   3   2 880.518 18.7893   3
   0   3   2 823.625 18.8394   2
   0   3   2 883.175 32.8952   1
  -1  -3  -2 720.456 16.4338   2
  -1  -3  -2 704.487 16.1938   3
  -1  -3  -2 736.650 16.4975   2
  -1  -3  -2 777.442 29.2212   1
   1   3   2 770.794 29.2292   1
   1   3   2 707.584 16.4519   2
   1   3   2 737.784 16.5080   2
   1   3   2 767.127 16.4031   3
  -2  -3  -2 0.70383 1.88673   2
  -2  -3  -2 1.87979 1.90761   2
  -2  -3  -2 0.54510 2.10057   1
   2   3   2 1.48135 1.81296   3
   2   3   2 3.70680 2.06743   2
   2   3   2 -2.9889 2.37951   1
   2   3   2 -2.8982 1.68549   2
  -3  -3  -2 1789.20 37.7727   2
  -3  -3  -2 1886.08 58.3042   1
  -3  -3  -2 1798.64 37.7784   2
   3   3   2 1853.82 38.0048   2
   3   3   2 1893.13 58.7175   1
   3   3   2 1889.31 38.0576   2
  -4  -3  -2 253.414 20.1484   1
  -4  -3  -2 245.382 9.20181   2
  -4  -3  -2 243.359 9.08220   2
   4   3   2 274.481 21.2479   1
   4   3   2 246.009 9.48892   2
   4   3   2 256.772 9.14001   3
   4   3   2 252.741 9.28545   2
  -5  -3  -2 76.7501 13.1839   1
  -5  -3  -2 80.4315 6.23458   2
  -5  -3  -2 92.2375 6.61416   2
   5   3   2 88.9494 14.1319   1
   5   3   2 90.6365 6.41623   2
   5   3   2 100.803 6.54767   2
   5   3   2 96.7379 6.52032   3
  -6  -3  -2 169.406 9.33489   2
  -6  -3  -2 180.531 9.57831   2
   6   3   2 162.817 21.2970   1
   6   3   2 169.060 9.31581   2
   6   3   2 182.546 9.70774   3
   6   3   2 173.799 9.20223   2
  -7  -3  -2 478.169 17.3214   2
  -7  -3  -2 464.539 16.8166   2
  -7  -3  -2 444.587 36.5381   1
   7   3   2 499.622 17.6771   3
   7   3   2 488.663 17.6705   2
   7   3   2 423.679 36.5048   1
   7   3   2 448.749 16.8832   2
  -8  -3  -2 43.9005 7.09588   2
  -8  -3  -2 38.7709 14.0432   1
  -8  -3  -2 51.3670 7.25598   2
   8   3   2 42.8502 7.11060   2
   8   3   2 45.2560 6.77481   2
   8   3   2 44.7649 7.87950   3
   8   3   2 29.8209 15.2299   1
  -9  -3  -2 11.1182 5.42073   2
  -9  -3  -2 5.84584 3.94502   2
  -9  -3  -2 22.5354 19.2512   1
   9   3   2 6.66034 4.45999   2
   9   3   2 -6.0912 14.5573   1
 -10  -3  -2 0.68311 4.40114   2
 -10  -3  -2 8.43902 5.06987   2
  10   3   2 -12.127 5.07805   3
  10   3   2 2.46141 5.40317   2
   9  -4  -2 11.5458 9.36683   3
  -9   4   2 13.6345 6.15725   2
   8  -4  -2 3.38492 4.83459   3
   8  -4  -2 -7.7959 4.29249   2
  -8   4   2 5.58202 5.07930   2
   7  -4  -2 65.0748 8.58479   2
   7  -4  -2 75.3195 7.84785   2
   7  -4  -2 41.9248 19.4876   1
   7  -4  -2 71.1077 8.94643   3
  -7   4   2 82.5237 9.25498   2
  -7   4   2 57.7186 21.9139   1
  -7   4   2 64.0227 7.75663   2
   6  -4  -2 -3.9976 3.36418   2
   6  -4  -2 0.48198 11.2707   1
   6  -4  -2 2.55192 4.18411   2
   6  -4  -2 -1.1433 4.03257   3
  -6   4   2 11.3229 13.2968   1
  -6   4   2 8.88116 4.55126   2
  -6   4   2 -8.5052 3.67065   2
   5  -4  -2 369.903 47.5771   1
   5  -4  -2 433.886 20.0475   2
   5  -4  -2 419.519 16.5146   2
   5  -4  -2 442.147 16.2605   3
  -5   4   2 424.084 17.6585   2
  -5   4   2 448.027 18.6916   3
  -5   4   2 467.596 38.7968   1
  -5   4   2 417.943 16.4561   2
   4  -4  -2 43.0252 5.80606   2
   4  -4  -2 22.1575 8.20125   1
   4  -4  -2 43.5891 6.99105   2
   4  -4  -2 35.0832 5.47915   3
  -4   4   2 36.7785 5.66947   2
  -4   4   2 56.4054 12.7312   1
  -4   4   2 29.6542 5.24381   2
  -4   4   2 40.7251 5.86390   3
   3  -4  -2 54.8979 5.41368   3
   3  -4  -2 58.8699 5.64413   2
   3  -4  -2 55.1625 12.5172   1
   3  -4  -2 53.7343 5.33375   2
  -3   4   2 60.0029 5.69880   3
  -3   4   2 64.4787 5.74221   2
  -3   4   2 55.5770 5.65618   2
  -3   4   2 40.5510 10.5612   1
   2  -4  -2 847.332 21.1454   3
   2  -4  -2 830.622 20.9173   2
  -2   4   2 831.287 23.1699   3
  -2   4   2 859.629 41.7547   1
  -2   4   2 839.283 21.0163   2
  -2   4   2 798.973 20.8957   2
   1  -4  -2 266.062 9.28268   2
   1  -4  -2 280.558 9.44733   2
   1  -4  -2 264.515 9.26584   3
  -1   4   2 276.571 20.9078   1
  -1   4   2 274.928 9.42571   2
  -1   4   2 280.829 20.7061   1
  -1   4   2 294.186 9.47095   3
  -1   4   2 271.495 9.47521   2
   0  -4  -2 456.079 12.2965   2
   0  -4  -2 445.117 12.2135   3
   0  -4  -2 423.972 11.9931   2
   0   4   2 448.480 12.1290   2
   0   4   2 458.086 24.8067   1
   0   4   2 440.929 12.0298   3
  -1  -4  -2 60.8017 4.01292   2
  -1  -4  -2 63.8730 4.37089   3
   1   4   2 60.5873 8.66279   1
   1   4   2 56.0000 4.36438   2
   1   4   2 62.2354 4.28633   3
   1   4   2 58.9983 4.06223   2
  -2  -4  -2 1045.32 23.1015   2
  -2  -4  -2 1015.68 23.2319   3
   2   4   2 1077.23 23.4344   3
   2   4   2 1087.99 23.2665   2
   2   4   2 1111.64 39.5671   1
   2   4   2 1078.35 23.2363   2
  -3  -4  -2 450.151 12.4009   2
   3   4   2 457.336 12.5641   2
   3   4   2 436.956 25.2689   1
   3   4   2 450.213 12.4879   3
   3   4   2 443.969 12.4863   2
  -4  -4  -2 116.779 17.1951   1
   4   4   2 152.121 6.95269   2
   4   4   2 128.178 14.4378   1
   4   4   2 150.834 7.00605   2
  -5  -4  -2 94.2436 6.55381   2
  -5  -4  -2 85.5479 12.9787   1
  -5  -4  -2 81.3870 6.03874   2
   5   4   2 88.4901 6.11423   2
   5   4   2 89.7489 6.53756   3
   5   4   2 85.7318 13.8912   1
   5   4   2 102.225 6.34749   2
  -6  -4  -2 148.808 8.60506   2
  -6  -4  -2 143.514 8.21562   2
  -6  -4  -2 160.646 19.3654   1
   6   4   2 137.661 8.22949   2
   6   4   2 155.598 19.6971   1
   6   4   2 142.848 8.79744   3
   6   4   2 148.378 8.49646   2
  -7  -4  -2 394.788 34.3669   1
  -7  -4  -2 474.202 17.1410   2
  -7  -4  -2 455.087 16.2376   2
   7   4   2 475.082 17.2697   3
   7   4   2 444.384 16.5142   2
   7   4   2 430.445 36.2983   1
   7   4   2 457.907 16.5675   2
  -8  -4  -2 176.136 11.5694   2
  -8  -4  -2 187.320 10.7008   2
   8   4   2 188.618 11.0709   2
   8   4   2 115.531 28.6741   1
   8   4   2 185.640 11.4334   2
   8   4   2 173.130 11.7375   3
  -9  -4  -2 -5.5410 13.7070   1
  -9  -4  -2 3.39627 3.55278   2
   9   4   2 7.42767 4.15797   2
   9   4   2 13.4217 15.5548   1
 -10  -4  -2 8.33929 4.16447   2
 -10  -4  -2 13.3228 5.31916   2
  10   4   2 3.42614 4.68473   2
  10   4   2 1.14319 5.79788   3
 -11  -4  -2 1.01701 5.44131   2
  11   4   2 -6.8982 6.43975   3
   8  -5  -2 25.6867 6.95952   3
  -8   5   2 34.1769 7.96881   2
   7  -5  -2 15.2003 18.3990   1
   7  -5  -2 7.70300 5.05199   3
   7  -5  -2 24.4899 6.14188   2
   7  -5  -2 18.4378 5.00163   2
  -7   5   2 24.4954 6.84795   2
  -7   5   2 57.0415 24.2911   1
  -7   5   2 15.3385 5.52593   2
   6  -5  -2 0.54249 3.85946   3
   6  -5  -2 0.38732 13.1223   1
   6  -5  -2 2.96517 4.07741   2
   6  -5  -2 2.81517 4.07513   2
  -6   5   2 11.2000 14.8763   1
  -6   5   2 -1.5002 3.54666   2
  -6   5   2 2.16642 5.04166   2
   5  -5  -2 31.2257 6.10922   2
   5  -5  -2 34.8963 6.22300   2
   5  -5  -2 35.7079 6.15476   3
   5  -5  -2 25.7943 13.2960   1
  -5   5   2 23.0446 5.36425   2
  -5   5   2 38.7249 14.9465   1
   4  -5  -2 18.0961 4.58918   2
   4  -5  -2 19.2000 4.75509   2
   4  -5  -2 19.7936 4.89217   3
   4  -5  -2 18.8692 8.66003   1
  -4   5   2 15.2413 4.70437   2
  -4   5   2 13.3232 4.59808   3
  -4   5   2 -1.6539 8.97577   1
  -4   5   2 18.8114 4.93346   2
   3  -5  -2 1.53782 4.51331   1
   3  -5  -2 3.07357 3.28538   3
   3  -5  -2 2.39662 2.96953   2
  -3   5   2 -1.2592 2.79707   3
  -3   5   2 1.51380 3.19877   2
  -3   5   2 3.29049 8.26882   1
  -3   5   2 1.56489 3.12615   2
   2  -5  -2 115.958 6.99831   3
   2  -5  -2 116.957 8.46241   2
   2  -5  -2 110.887 6.77349   2
  -2   5   2 96.4211 7.58145   2
  -2   5   2 104.312 6.71220   3
  -2   5   2 117.264 7.19642   2
  -2   5   2 116.107 15.7526   1
   1  -5  -2 163.521 7.45410   2
   1  -5  -2 162.807 7.75358   3
   1  -5  -2 176.009 7.69923   2
  -1   5   2 177.160 17.6583   1
  -1   5   2 162.032 7.47432   3
  -1   5   2 166.042 7.60783   2
  -1   5   2 165.527 7.81928   2
  -1   5   2 162.203 17.1242   1
   0  -5  -2 266.564 9.52451   2
   0  -5  -2 271.651 9.76752   3
   0   5   2 276.249 20.7719   1
   0   5   2 283.502 9.50996   2
   0   5   2 291.804 9.53519   2
   0   5   2 305.892 21.2790   1
   0   5   2 287.290 9.69398   3
  -1  -5  -2 28.3576 3.44309   2
  -1  -5  -2 36.3735 4.23494   3
   1   5   2 33.2227 3.90867   3
   1   5   2 33.1742 3.90973   2
   1   5   2 30.5046 3.56348   2
   1   5   2 25.0229 6.88380   1
  -2  -5  -2 163.746 6.37795   2
  -2  -5  -2 157.903 7.01865   3
  -2  -5  -2 149.461 13.4196   1
  -2  -5  -2 165.085 6.67127   2
   2   5   2 153.554 6.82177   2
   2   5   2 166.939 14.5324   1
   2   5   2 168.020 7.18689   3
   2   5   2 159.005 6.59969   2
  -3  -5  -2 174.230 6.73203   2
  -3  -5  -2 163.499 9.92239   2
  -3  -5  -2 185.660 15.2011   1
   3   5   2 170.552 6.96179   2
   3   5   2 166.946 15.1142   1
   3   5   2 171.261 7.56430   3
   3   5   2 171.568 7.06814   2
  -4  -5  -2 6.58883 2.08087   2
  -4  -5  -2 -2.2185 3.18736   1
   4   5   2 -1.9425 3.54948   1
   4   5   2 0.99715 2.29858   2
   4   5   2 1.77449 2.50057   3
   4   5   2 1.37536 3.49975   2
  -5  -5  -2 -1.1084 3.94355   1
  -5  -5  -2 -0.7287 2.68596   2
   5   5   2 -4.7338 3.55119   1
   5   5   2 -0.7898 2.35015   2
   5   5   2 -1.1730 2.51488   2
  -6  -5  -2 -0.6261 2.89838   2
   6   5   2 -4.7958 5.46127   1
   6   5   2 -2.8811 3.33159   3
   6   5   2 -1.7804 2.67566   2
   6   5   2 -1.7735 2.44428   2
  -7  -5  -2 358.592 14.2830   2
  -7  -5  -2 380.189 31.8011   1
   7   5   2 345.120 15.0637   3
   7   5   2 330.119 30.7831   1
   7   5   2 355.574 14.2184   2
  -8  -5  -2 34.4505 6.33938   2
  -8  -5  -2 24.7602 11.2400   1
  -8  -5  -2 32.3165 5.47158   2
   8   5   2 21.6465 6.19332   3
   8   5   2 27.5367 12.3501   1
   8   5   2 33.4218 6.01304   2
  -9  -5  -2 16.2116 6.33903   2
  -9  -5  -2 12.9094 3.76696   2
  -9  -5  -2 1.52229 15.8283   1
   9   5   2 0.72661 14.0617   1
   9   5   2 14.0947 6.47515   3
   9   5   2 7.66734 4.61550   2
 -10  -5  -2 5.14063 4.64927   2
 -10  -5  -2 1.52305 3.72089   2
  10   5   2 -6.1177 3.96396   2
  10   5   2 -0.9724 6.04699   3
 -11  -5  -2 25.3156 11.8117   2
  11   5   2 26.1390 11.6383   3
   8  -6  -2 1.94840 7.48180   3
  -8   6   2 9.02484 6.12725   2
   7  -6  -2 21.6678 6.23495   3
   7  -6  -2 2.21267 5.87628   2
  -7   6   2 10.6283 5.92888   2
   6  -6  -2 25.2448 5.62138   2
   6  -6  -2 32.2931 17.6319   1
   6  -6  -2 24.0993 6.05458   3
  -6   6   2 13.0896 20.7735   1
  -6   6   2 14.1761 5.92169   2
   5  -6  -2 129.818 25.1954   1
   5  -6  -2 175.304 11.0960   2
   5  -6  -2 178.132 11.5481   3
  -5   6   2 146.596 12.7237   2
  -5   6   2 147.722 28.0191   1
   4  -6  -2 37.4497 6.16288   3
   4  -6  -2 41.8808 6.53861   2
  -4   6   2 37.1516 6.03694   2
  -4   6   2 24.3326 5.30608   2
  -4   6   2 19.4655 13.0122   1
  -4   6   2 25.8484 5.51602   3
   3  -6  -2 8.33762 4.02776   3
   3  -6  -2 1.86514 3.10837   2
  -3   6   2 11.5116 4.15467   3
  -3   6   2 8.52030 3.82494   2
  -3   6   2 14.2180 6.86030   1
  -3   6   2 4.66272 3.57303   2
   2  -6  -2 122.033 8.04909   2
   2  -6  -2 118.648 7.66105   2
   2  -6  -2 121.918 7.88702   3
  -2   6   2 120.384 7.47427   3
  -2   6   2 109.952 7.38131   2
  -2   6   2 112.839 18.0435   1
  -2   6   2 109.921 17.3694   1
  -2   6   2 113.661 7.48418   2
   1  -6  -2 923.318 23.6184   3
   1  -6  -2 912.626 23.1600   2
   1  -6  -2 922.698 23.3643   2
  -1   6   2 940.530 23.4209   2
  -1   6   2 920.083 45.6659   1
  -1   6   2 937.037 23.4915   3
  -1   6   2 911.268 45.7197   1
  -1   6   2 942.385 23.3794   2
   0  -6  -2 200.546 9.98200   2
   0  -6  -2 212.185 9.17221   3
   0   6   2 208.785 8.60530   2
   0   6   2 205.042 8.38591   2
   0   6   2 211.152 8.75762   3
   0   6   2 226.922 19.6500   1
   0   6   2 207.223 19.0810   1
  -1  -6  -2 114.265 6.08503   2
  -1  -6  -2 130.767 5.97143   2
  -1  -6  -2 111.079 6.92170   3
   1   6   2 117.475 6.30658   2
   1   6   2 122.666 6.22756   2
   1   6   2 123.173 13.6500   1
   1   6   2 131.395 6.81883   3
  -2  -6  -2 22.3742 5.31818   1
  -2  -6  -2 10.7189 3.09054   3
  -2  -6  -2 21.2754 3.26347   2
  -2  -6  -2 18.0222 2.97537   2
   2   6   2 19.7239 3.10695   2
   2   6   2 15.0905 3.23846   3
   2   6   2 13.8219 2.71986   2
   2   6   2 19.1395 6.19000   1
  -3  -6  -2 163.642 7.32233   2
  -3  -6  -2 176.346 15.7227   1
  -3  -6  -2 169.660 7.02464   2
   3   6   2 183.174 8.08437   3
   3   6   2 159.278 7.09103   2
   3   6   2 180.960 7.32823   2
   3   6   2 159.532 15.2318   1
  -4  -6  -2 14.4856 3.09017   2
  -4  -6  -2 7.33031 2.77881   2
  -4  -6  -2 16.4552 5.81544   1
   4   6   2 4.61359 2.37528   2
   4   6   2 8.29310 2.94092   2
   4   6   2 11.5684 5.22096   1
   4   6   2 8.57687 3.22674   3
  -5  -6  -2 28.0360 4.37823   2
  -5  -6  -2 29.5900 4.29906   2
  -5  -6  -2 20.3443 6.50399   1
   5   6   2 22.4239 8.37082   1
   5   6   2 28.5060 4.11970   2
   5   6   2 31.3726 4.72085   3
   5   6   2 29.0980 4.30711   2
  -6  -6  -2 45.6998 5.79704   2
  -6  -6  -2 47.4170 5.07351   2
  -6  -6  -2 47.6313 10.8815   1
   6   6   2 49.8145 6.43820   3
   6   6   2 47.3526 5.33286   2
   6   6   2 41.1445 11.1358   1
   6   6   2 44.1484 5.92156   3
   6   6   2 42.3771 5.53163   2
  -7  -6  -2 127.997 7.74109   2
  -7  -6  -2 104.839 17.5503   1
  -7  -6  -2 121.240 8.57589   2
   7   6   2 125.722 7.97275   2
   7   6   2 107.879 12.0277   2
   7   6   2 128.299 9.58108   3
   7   6   2 102.097 17.2161   1
  -8  -6  -2 17.4291 5.05672   2
  -8  -6  -2 11.9678 10.1712   1
  -8  -6  -2 5.31138 2.58599   2
   8   6   2 0.56026 8.17988   1
   8   6   2 6.62691 5.32189   3
   8   6   2 11.4041 4.88810   2
  -9  -6  -2 4.12369 4.39166   2
   9   6   2 8.15462 4.02175   2
   9   6   2 14.6222 6.00628   3
 -10  -6  -2 -5.9668 3.98612   2
  10   6   2 2.64180 6.10853   3
  10   6   2 -1.9828 3.88407   2
 -11  -6  -2 6.68201 9.77420   2
   7  -7  -2 21.9032 6.71773   3
  -7   7   2 26.9149 6.62753   2
   6  -7  -2 2.98763 4.68471   3
   6  -7  -2 0.61192 4.21226   2
  -6   7   2 -2.7500 4.44472   2
   5  -7  -2 43.7644 6.66725   2
   5  -7  -2 50.1392 7.75959   3
  -5   7   2 43.2603 8.53201   2
   4  -7  -2 25.5336 5.69122   3
   4  -7  -2 35.7554 6.18766   2
   4  -7  -2 27.1507 5.55001   2
  -4   7   2 32.6166 13.4826   1
  -4   7   2 49.6089 16.8869   1
  -4   7   2 26.0601 6.32318   2
  -4   7   2 32.6255 5.83571   2
   3  -7  -2 38.2151 6.16362   3
   3  -7  -2 44.6789 5.81713   2
   3  -7  -2 30.9407 5.65495   2
  -3   7   2 32.2969 5.55332   3
  -3   7   2 45.1241 14.3305   1
  -3   7   2 40.7296 13.5189   1
  -3   7   2 32.9123 5.74108   2
  -3   7   2 42.1367 6.49615   2
   2  -7  -2 58.1795 6.07455   2
   2  -7  -2 67.6287 6.20822   2
   2  -7  -2 61.7478 6.75540   3
  -2   7   2 43.4385 13.2855   1
  -2   7   2 65.5492 6.48825   3
  -2   7   2 60.8542 6.82256   2
  -2   7   2 47.9467 5.84888   2
  -2   7   2 61.7444 13.5946   1
   1  -7  -2 454.298 15.3416   3
   1  -7  -2 434.836 14.8136   2
  -1   7   2 456.870 15.0586   3
  -1   7   2 436.875 32.7475   1
  -1   7   2 446.701 14.9736   2
  -1   7   2 435.528 14.6556   2
  -1   7   2 431.542 32.2835   1
   0  -7  -2 33.9015 4.37738   2
   0  -7  -2 39.9472 5.08156   3
   0  -7  -2 27.9377 3.77130   2
   0   7   2 37.0712 4.75160   2
   0   7   2 32.5195 9.65940   1
   0   7   2 32.4649 4.56015   3
   0   7   2 39.5485 9.25758   1
   0   7   2 33.2446 6.84374   2
  -1  -7  -2 24.9206 3.69183   2
  -1  -7  -2 22.3231 3.64810   2
  -1  -7  -2 19.4531 4.05353   3
   1   7   2 20.4076 3.83739   3
   1   7   2 11.9494 5.98971   1
   1   7   2 19.7409 3.49321   2
   1   7   2 16.0198 5.99943   1
  -2  -7  -2 84.7905 6.37775   3
  -2  -7  -2 88.8053 11.5080   1
  -2  -7  -2 81.6728 5.25346   2
  -2  -7  -2 82.0938 5.35124   2
   2   7   2 91.0605 5.52067   2
   2   7   2 85.0976 6.16923   3
   2   7   2 72.1420 5.24909   2
   2   7   2 96.3599 12.6241   1
  -3  -7  -2 6.78891 2.70065   2
  -3  -7  -2 2.57668 2.24544   2
   3   7   2 2.30008 3.78594   1
   3   7   2 5.13557 2.56995   2
   3   7   2 6.59666 2.74760   2
   3   7   2 2.54108 2.68800   3
  -4  -7  -2 953.955 43.0981   1
  -4  -7  -2 948.439 22.3557   2
  -4  -7  -2 896.322 22.1412   2
   4   7   2 892.943 50.5262   1
   4   7   2 925.128 22.5755   2
   4   7   2 919.654 24.3847   3
   4   7   2 914.770 22.4672   2
  -5  -7  -2 692.014 18.0154   2
  -5  -7  -2 643.158 36.2140   1
  -5  -7  -2 638.403 17.7222   2
   5   7   2 556.345 42.7991   1
   5   7   2 644.238 19.5843   3
   5   7   2 650.492 18.0692   2
   5   7   2 642.131 18.0585   2
  -6  -7  -2 14.3812 9.01043   1
  -6  -7  -2 7.49327 3.42619   2
  -6  -7  -2 6.63655 3.19981   2
   6   7   2 3.08037 3.07225   2
   6   7   2 13.3421 6.28179   1
  -7  -7  -2 11.2558 3.64924   2
  -7  -7  -2 15.1519 4.39825   2
   7   7   2 19.2962 4.39470   2
   7   7   2 7.84507 9.29873   1
   7   7   2 12.9902 5.15430   3
  -8  -7  -2 6.67142 3.38398   2
  -8  -7  -2 7.14090 4.75713   2
  -8  -7  -2 4.48105 12.3286   1
   8   7   2 -1.8106 4.48818   3
   8   7   2 9.23494 3.99571   2
   8   7   2 4.46637 12.0517   1
  -9  -7  -2 0.08431 3.79351   2
  -9  -7  -2 2.65207 3.24331   2
   9   7   2 -0.2896 4.94981   3
   9   7   2 0.07010 3.66879   2
 -10  -7  -2 5.70757 4.60454   2
 -10  -7  -2 2.12593 3.87796   2
  10   7   2 -2.0941 5.81758   3
  10   7   2 15.5159 4.57613   2
   6  -8  -2 4.51870 4.47907   2
   6  -8  -2 11.9489 5.53794   3
  -6   8   2 1.44024 4.95653   2
   5  -8  -2 77.4624 8.80985   2
   5  -8  -2 62.0002 7.68719   2
   5  -8  -2 50.5694 8.04822   3
  -5   8   2 58.7809 8.98436   2
   4  -8  -2 47.9615 7.28048   2
   4  -8  -2 49.1596 7.24842   2
   4  -8  -2 39.7430 7.74547   3
  -4   8   2 50.7348 7.50820   2
  -4   8   2 41.5342 18.2944   1
   3  -8  -2 78.5835 8.43221   3
   3  -8  -2 90.2124 8.25005   2
   3  -8  -2 88.7438 8.08699   2
  -3   8   2 83.1462 18.9173   1
  -3   8   2 91.7526 8.65847   2
  -3   8   2 85.0986 19.3372   1
  -3   8   2 87.3515 13.2383   2
   2  -8  -2 27.0730 5.46152   3
   2  -8  -2 20.4826 4.88379   2
   2  -8  -2 34.4951 5.38470   2
  -2   8   2 33.0613 5.29530   3
  -2   8   2 5.16117 8.77708   1
  -2   8   2 20.3245 4.84995   2
  -2   8   2 2.91603 15.2145   1
  -2   8   2 29.9027 5.27332   2
   1  -8  -2 60.7094 6.83505   3
   1  -8  -2 65.3290 6.38418   2
  -1   8   2 53.4388 12.4020   1
  -1   8   2 60.5076 13.2821   1
  -1   8   2 65.1340 6.22381   2
  -1   8   2 71.9492 6.56290   2
   0  -8  -2 196.358 8.96162   2
   0  -8  -2 193.286 10.0642   3
   0  -8  -2 197.502 9.27956   2
   0   8   2 156.098 19.8541   1
   0   8   2 181.286 8.88759   2
   0   8   2 194.862 9.76013   3
   0   8   2 166.105 19.3532   1
   0   8   2 179.829 9.13648   2
  -1  -8  -2 1.84072 2.49794   2
  -1  -8  -2 2.91001 3.47726   3
  -1  -8  -2 3.52367 2.76864   2
   1   8   2 4.64810 2.89359   2
   1   8   2 3.36867 2.85710   2
   1   8   2 -1.3464 6.01336   1
   1   8   2 7.56993 4.51517   1
   1   8   2 4.33959 2.95418   3
  -2  -8  -2 0.93742 2.58021   2
  -2  -8  -2 0.59497 3.14655   3
  -2  -8  -2 2.82753 2.52263   2
   2   8   2 -1.2358 5.24342   1
   2   8   2 -5.9569 2.19860   3
   2   8   2 0.31338 2.53339   2
  -3  -8  -2 0.63954 2.37776   2
  -3  -8  -2 0.57987 4.53489   1
  -3  -8  -2 2.33415 2.62305   2
   3   8   2 2.42525 2.51722   2
   3   8   2 -2.5244 4.39477   1
   3   8   2 -0.7136 2.31453   2
   3   8   2 4.09933 3.12068   3
  -4  -8  -2 18.8506 3.65774   2
  -4  -8  -2 12.9331 5.54675   1
  -4  -8  -2 24.2121 3.71523   2
   4   8   2 6.05292 6.07233   1
   4   8   2 20.9173 4.50899   3
   4   8   2 16.6241 3.59338   2
   4   8   2 23.7715 3.99182   2
  -5  -8  -2 42.8025 4.98688   2
  -5  -8  -2 39.3748 9.66212   1
  -5  -8  -2 42.3391 4.73766   2
   5   8   2 43.6523 5.32595   2
   5   8   2 51.9710 10.5281   1
  -6  -8  -2 22.8518 4.27746   2
  -6  -8  -2 25.3459 4.36853   2
  -6  -8  -2 30.5433 9.23472   1
   6   8   2 23.2203 5.03467   3
   6   8   2 23.8192 4.52626   2
   6   8   2 35.2702 10.1147   1
   6   8   2 34.7259 7.42621   2
  -7  -8  -2 71.9204 6.97421   2
  -7  -8  -2 77.6036 6.65606   2
   7   8   2 71.8216 8.53068   3
   7   8   2 63.2642 6.45087   2
   7   8   2 50.8161 14.6890   1
  -8  -8  -2 24.9739 4.98481   2
  -8  -8  -2 19.2019 13.1765   1
  -8  -8  -2 32.2846 5.12040   2
   8   8   2 19.1647 13.0373   1
   8   8   2 17.9385 5.97677   3
   8   8   2 27.5717 5.02851   2
  -9  -8  -2 -1.7820 3.66338   2
  -9  -8  -2 2.02617 3.10972   2
   9   8   2 4.25335 3.92050   2
   9   8   2 5.14182 5.50867   3
 -10  -8  -2 7.33567 4.47907   2
 -10  -8  -2 3.67901 4.40590   2
  10   8   2 4.95918 6.02644   3
   5  -9  -2 2.55264 5.12628   2
   5  -9  -2 18.0144 6.42501   3
   5  -9  -2 22.3480 6.09111   2
  -5   9   2 11.3862 5.77312   2
   4  -9  -2 -1.0550 4.00193   2
   4  -9  -2 4.86213 4.54621   3
   4  -9  -2 -2.1744 3.77258   2
  -4   9   2 9.21999 4.91377   2
   3  -9  -2 10.0950 5.15039   3
   3  -9  -2 9.71083 3.37851   2
  -3   9   2 7.85192 4.49342   2
  -3   9   2 6.04689 13.6059   1
   2  -9  -2 -4.2926 2.99722   2
   2  -9  -2 2.00699 4.13306   3
  -2   9   2 -12.149 8.37413   1
  -2   9   2 1.15032 3.45990   2
   1  -9  -2 100.282 8.23547   2
   1  -9  -2 117.763 7.61219   2
   1  -9  -2 91.0406 8.16548   3
  -1   9   2 86.0194 18.4013   1
  -1   9   2 75.3722 16.2619   1
  -1   9   2 117.001 12.3760   2
   0  -9  -2 74.9812 6.74736   2
   0  -9  -2 75.6651 6.51610   2
   0  -9  -2 84.9080 7.88743   3
   0   9   2 81.7096 7.18198   2
   0   9   2 77.7337 16.2494   1
   0   9   2 83.4995 7.31234   3
   0   9   2 55.9801 13.2663   1
   0   9   2 82.1804 7.10292   2
  -1  -9  -2 86.1337 6.51564   2
  -1  -9  -2 76.9488 7.64669   3
  -1  -9  -2 72.9659 6.40372   2
   1   9   2 66.7845 14.6533   1
   1   9   2 78.1504 7.24504   3
   1   9   2 91.7815 25.3473   1
   1   9   2 91.8881 6.75662   2
   1   9   2 85.4564 6.64177   2
  -2  -9  -2 58.5965 5.48278   2
  -2  -9  -2 58.7447 5.36215   2
  -2  -9  -2 62.3746 6.86734   3
   2   9   2 42.3108 10.1201   1
   2   9   2 59.4434 7.43145   3
   2   9   2 52.5346 5.56416   2
   2   9   2 39.4930 10.4315   1
   2   9   2 71.6135 8.78754   2
  -3  -9  -2 12.9795 3.32154   2
  -3  -9  -2 20.7334 3.63047   2
   3   9   2 19.0927 4.17998   3
   3   9   2 18.8487 3.61764   2
   3   9   2 22.5687 3.93200   2
   3   9   2 21.0300 7.75811   1
  -4  -9  -2 101.659 6.55027   2
  -4  -9  -2 101.344 6.53628   2
  -4  -9  -2 80.9092 13.3180   1
   4   9   2 97.2506 6.37061   2
   4   9   2 106.451 15.0621   1
   4   9   2 104.522 7.91689   3
   4   9   2 100.682 6.82995   2
  -5  -9  -2 210.460 9.21627   2
  -5  -9  -2 190.850 19.1181   1
  -5  -9  -2 222.016 9.10227   2
   5   9   2 206.778 9.49203   2
   5   9   2 169.947 19.9572   1
  -6  -9  -2 3.10908 7.31021   1
  -6  -9  -2 3.77850 3.04462   2
  -6  -9  -2 -0.8770 2.52099   2
   6   9   2 -0.1712 2.94472   2
   6   9   2 22.7501 9.13078   1
  -7  -9  -2 1.96958 9.19241   1
  -7  -9  -2 3.44738 2.82790   2
   7   9   2 -12.346 9.02196   1
   7   9   2 -2.0593 3.20183   2
  -8  -9  -2 6.39748 11.9413   1
  -8  -9  -2 -0.1574 3.25679   2
  -8  -9  -2 -4.1086 2.92469   2
   8   9   2 -3.1016 3.37472   2
   8   9   2 -0.1544 12.5157   1
   8   9   2 0.59167 4.98285   3
  -9  -9  -2 -0.1606 3.66588   2
   9   9   2 -3.3019 4.92476   3
   9   9   2 -4.7912 4.31940   2
 -10  -9  -2 1.26631 4.63424   2
  10   9   2 7.02514 6.90200   3
   5 -10  -2 -5.2887 5.83586   2
   5 -10  -2 -8.4796 6.09051   3
   4 -10  -2 17.2139 5.35957   2
   4 -10  -2 28.7528 5.42198   2
   4 -10  -2 23.0798 6.18330   3
  -4  10   2 19.5029 5.72152   2
   3 -10  -2 39.1787 6.69727   3
   3 -10  -2 53.7895 10.6938   2
   3 -10  -2 62.9625 8.18893   2
  -3  10   2 45.3859 6.78389   2
   2 -10  -2 338.207 15.9946   3
   2 -10  -2 330.744 14.8597   2
  -2  10   2 319.885 39.4813   1
  -2  10   2 272.954 16.4280   2
   1 -10  -2 232.358 11.5696   2
   1 -10  -2 227.668 13.1897   3
   1 -10  -2 212.076 13.6127   2
  -1  10   2 175.448 26.1154   1
  -1  10   2 235.724 12.0130   2
   0 -10  -2 71.9969 7.05174   2
   0 -10  -2 83.0489 8.43256   3
   0 -10  -2 81.3516 6.84416   2
   0  10   2 61.1501 14.4958   1
   0  10   2 75.3995 7.11123   2
  -1 -10  -2 88.5122 6.98514   2
  -1 -10  -2 96.9988 7.49992   2
  -1 -10  -2 97.5034 8.68123   3
   1  10   2 93.2205 15.8785   1
   1  10   2 85.6745 7.19277   2
  -2 -10  -2 3.44788 3.15641   2
  -2 -10  -2 -0.2081 2.56967   2
  -2 -10  -2 11.6282 4.63841   3
   2  10   2 3.30465 3.17121   2
   2  10   2 -8.0230 7.63815   1
  -3 -10  -2 209.842 9.15894   2
  -3 -10  -2 184.390 8.67021   2
   3  10   2 178.060 8.77931   2
   3  10   2 187.192 21.5625   1
  -4 -10  -2 1.11914 2.94021   2
  -4 -10  -2 2.89363 2.94087   2
   4  10   2 1.41615 2.76567   2
   4  10   2 -7.6568 6.92342   1
  -5 -10  -2 4.28457 7.89520   1
  -5 -10  -2 12.4083 3.30064   2
   5  10   2 1.75868 8.50506   1
   5  10   2 17.9217 3.72451   2
  -6 -10  -2 13.9019 8.87696   1
   6  10   2 -5.7758 8.79815   1
  -7 -10  -2 22.6217 11.3440   1
  -7 -10  -2 30.7014 4.84701   2
  -7 -10  -2 36.5359 7.02263   2
   7  10   2 7.22469 16.4767   1
  -8 -10  -2 6.34933 3.59066   2
  -8 -10  -2 2.75039 2.65750   2
   8  10   2 5.99051 3.93167   2
   8  10   2 -3.2687 4.74989   3
  -9 -10  -2 4.77260 3.34394   2
  -9 -10  -2 -6.4585 3.18392   2
   9  10   2 -2.0669 5.42020   3
 -10 -10  -2 -4.6351 3.58145   2
 -10 -10  -2 -1.4552 4.12256   2
  10  10   2 -5.4028 5.77451   3
   3 -11  -2 -0.7879 4.57355   2
   3 -11  -2 -3.9932 3.76005   2
   3 -11  -2 3.79071 5.09368   3
  -3  11   2 2.66554 5.70483   2
   2 -11  -2 4.31551 2.89494   2
   2 -11  -2 0.60748 3.56177   2
   2 -11  -2 -1.2914 4.05378   3
  -2  11   2 -2.5436 3.50889   2
   1 -11  -2 85.8189 7.69616   2
   1 -11  -2 86.0078 9.22678   3
   1 -11  -2 67.8977 7.72436   2
  -1  11   2 82.9442 8.15499   2
   0 -11  -2 34.0057 5.61877   2
   0 -11  -2 40.2892 6.72509   3
   0 -11  -2 29.5466 5.15768   2
   0  11   2 38.6822 5.84305   2
   0  11   2 21.6344 12.9940   1
  -1 -11  -2 18.9978 4.26735   2
  -1 -11  -2 17.1876 4.45082   2
  -1 -11  -2 21.0607 6.74540   3
   1  11   2 11.3962 10.8952   1
   1  11   2 26.1894 4.91210   2
  -2 -11  -2 62.3784 9.16955   2
  -2 -11  -2 75.1993 13.2266   3
   2  11   2 44.3204 12.5158   1
   2  11   2 61.7346 6.26964   2
   3  11   2 3.48730 10.2660   1
   4  11   2 6.68790 3.26853   2
   4  11   2 -0.7552 13.4480   1
  -5 -11  -2 33.7797 4.41752   2
  -5 -11  -2 36.0466 4.63779   2
   5  11   2 43.4787 5.63823   2
   5  11   2 22.2935 10.7998   1
  -6 -11  -2 -0.2273 2.52759   2
  -6 -11  -2 5.02042 2.82707   2
  -6 -11  -2 4.74207 9.48729   1
   6  11   2 5.54084 10.3895   1
   6  11   2 4.16703 3.28640   2
  -7 -11  -2 0.06426 2.42671   2
  -7 -11  -2 -12.067 12.7068   1
  -7 -11  -2 0.66872 2.77783   2
   7  11   2 2.98298 3.28134   2
  -8 -11  -2 12.8527 3.65900   2
  -8 -11  -2 18.2966 3.55744   2
   8  11   2 7.87206 5.69051   3
  -9 -11  -2 -1.4034 2.89247   2
   9  11   2 -7.6973 7.08069   3
   2 -12  -2 9.75250 5.13194   2
   2 -12  -2 27.5549 6.74550   3
   2 -12  -2 20.3591 7.44784   2
   1 -12  -2 2.43518 3.62476   2
   1 -12  -2 -0.2960 3.87944   2
   1 -12  -2 5.17488 4.87579   3
  -1  12   2 0.57279 5.18896   2
   0 -12  -2 -3.5915 3.46771   2
   0 -12  -2 1.15068 4.14229   3
  -1 -12  -2 12.6456 4.08548   2
  -1 -12  -2 10.0866 4.55374   2
  -1 -12  -2 13.8773 5.09447   3
   1  12   2 0.46550 6.91452   2
  -2 -12  -2 18.4610 5.50797   3
  -2 -12  -2 3.98104 3.10421   2
  -2 -12  -2 6.48407 3.33198   2
   2  12   2 10.8411 14.0792   1
   2  12   2 0.41924 4.16029   2
  -3 -12  -2 0.86755 2.68659   2
  -3 -12  -2 2.10086 2.69794   2
   3  12   2 3.98313 3.24341   2
   3  12   2 12.3056 11.9124   1
  -4 -12  -2 2.81871 2.34896   2
  -4 -12  -2 -1.6594 2.35734   2
   4  12   2 -15.721 11.0253   1
   4  12   2 -4.7546 2.93968   2
  -5 -12  -2 -0.3683 2.45564   2
  -5 -12  -2 1.48012 2.44311   2
   5  12   2 -17.327 11.0429   1
  -6 -12  -2 22.4712 3.63074   2
  -6 -12  -2 14.8188 3.40229   2
   6  12   2 19.8532 6.11949   2
  -7 -12  -2 4.37756 2.83292   2
  -7 -12  -2 7.84905 2.89837   2
  -8 -12  -2 42.0829 5.09111   2
  -8 -12  -2 31.1215 5.90678   2
   8  12   2 50.8009 10.9652   3
   1 -13  -2 3.22618 4.25711   2
   1 -13  -2 8.60615 5.05562   3
   0 -13  -2 13.0179 4.34850   2
   0 -13  -2 21.3637 5.89686   3
   0 -13  -2 34.7488 9.14861   2
  -1 -13  -2 4.45617 3.40410   2
  -1 -13  -2 6.81450 3.87562   2
  -1 -13  -2 11.6285 5.47584   3
  -2 -13  -2 -0.7695 2.81382   2
  -2 -13  -2 0.93214 3.19906   2
  -3 -13  -2 17.4435 3.86153   2
  -3 -13  -2 16.7305 3.47756   2
  -4 -13  -2 0.15139 2.56599   2
  -4 -13  -2 0.96450 2.41247   2
  -5 -13  -2 30.0174 5.40935   2
  -5 -13  -2 42.2255 4.64302   2
  -6 -13  -2 10.8056 2.82775   2
  -7 -13  -2 1.53323 1.99731   2
  -7 -13  -2 5.99013 2.36977   2
  -2 -14  -2 10.7913 3.85804   2
  -2 -14  -2 10.5019 5.41829   2
  -3 -14  -2 0.12306 4.65583   2
  -4 -14  -2 20.4433 3.12170   2
  -4 -14  -2 21.4941 4.97878   2
  -5 -14  -2 12.7255 2.04169   2
  -5 -14  -2 12.9090 2.65168   2
   7  11  -3 6.57274 6.34877   3
   6  11  -3 15.4271 5.93763   3
   0 -11   3 32.7064 2.19121   2
   1 -11   3 96.0992 8.91719   3
   1 -11   3 99.9714 6.25052   2
   1 -11   3 75.3762 7.19725   2
   8  10  -3 15.6924 7.69038   3
   7  10  -3 58.3039 8.87868   3
   6  10  -3 2.86956 4.71283   3
   0  10  -3 39.7380 10.9075   1
   0 -10   3 38.2843 3.50144   2
   0 -10   3 41.9243 3.62186   2
   1 -10   3 -0.0791 2.42868   2
   1 -10   3 -1.1537 2.25779   2
   1 -10   3 -4.3097 2.88367   3
   2 -10   3 -1.3552 3.11841   3
   2 -10   3 3.62716 3.47197   2
   2 -10   3 11.6230 3.58507   2
   3 -10   3 2.94956 4.35811   2
   3 -10   3 13.0756 4.07942   3
   3 -10   3 6.04718 6.09185   2
   9   9  -3 66.5429 15.7894   3
   8   9  -3 93.4350 11.5879   3
   7   9  -3 0.96080 4.56693   3
   6   9  -3 0.83456 4.40369   3
   2   9  -3 -1.1730 2.89556   3
   1   9  -3 134.229 9.41622   3
   0   9  -3 30.3908 3.86943   2
   0   9  -3 28.8027 9.01244   1
   0  -9   3 29.8964 3.58218   2
   0  -9   3 25.2595 3.52827   2
   0  -9   3 31.1790 5.35118   3
  -1   9  -3 6.04291 9.08264   1
  -1   9  -3 11.2146 3.46855   2
   1  -9   3 7.41543 3.56689   3
   1  -9   3 5.57759 2.89228   2
   1  -9   3 7.82873 3.03675   2
  -2   9  -3 0.14174 3.02455   2
   2  -9   3 0.91694 2.97114   2
   2  -9   3 2.06816 3.05074   3
   2  -9   3 -2.5719 2.77483   2
  -3   9  -3 3.11103 5.35492   2
   3  -9   3 0.00940 3.60602   2
   3  -9   3 0.32169 3.24097   3
   4  -9   3 -2.0948 3.33208   3
   9   8  -3 75.2170 10.7525   3
   8   8  -3 5.73223 5.79504   3
   7   8  -3 5.61646 4.94488   3
   6   8  -3 -6.5241 3.87161   3
   4   8  -3 1.74187 3.48848   3
   2   8  -3 8.03345 3.01595   3
   1   8  -3 40.9569 2.76550   2
   1   8  -3 44.0911 5.31652   3
   1   8  -3 39.2790 5.35436   1
   1   8  -3 46.5325 2.83007   2
   0   8  -3 -2.6746 2.36942   3
   0   8  -3 0.65774 5.44207   1
   0   8  -3 1.52340 2.17187   2
   0  -8   3 -1.6632 1.84611   2
   0  -8   3 1.86661 2.93903   3
   0  -8   3 3.78902 2.05605   2
  -1   8  -3 87.9471 16.3144   1
   1  -8   3 94.6353 6.34110   2
   1  -8   3 94.9280 7.09742   3
  -2   8  -3 7.05110 3.49950   2
  -2   8  -3 11.5649 3.67446   3
   2  -8   3 7.15812 3.59359   3
   2  -8   3 8.83671 3.94890   2
  -3   8  -3 19.9993 4.64535   2
   3  -8   3 10.1418 3.52765   3
   3  -8   3 6.15919 3.55777   2
  -4   8  -3 -0.0368 4.04671   2
   4  -8   3 -3.0186 3.27248   2
   5  -8   3 4.97219 3.78725   3
   5  -8   3 13.8909 5.70054   2
  10   7  -3 15.4363 8.16749   3
 -10  -7   3 5.49897 4.38119   2
   9   7  -3 -0.0337 6.22267   3
  -9  -7   3 2.31924 2.34274   2
  -9  -7   3 -0.2463 2.50143   2
   8   7  -3 14.9649 6.25437   3
  -8  -7   3 18.8923 2.85334   2
  -8  -7   3 18.5189 2.71086   2
  -7  -7   3 0.72417 7.27198   1
  -7  -7   3 0.20722 1.00238   2
   6   7  -3 11.1321 4.99809   3
   5   7  -3 -1.0309 3.20571   3
   5   7  -3 0.62488 3.96866   3
   4   7  -3 247.780 11.4231   3
   3   7  -3 5.88486 3.27448   3
   2   7  -3 -2.1057 2.25991   3
   1   7  -3 48.2082 5.62623   1
   1   7  -3 59.4549 5.45387   3
   1   7  -3 51.2006 5.77796   1
   1   7  -3 56.0505 2.88299   2
   1   7  -3 56.7062 2.91120   2
   0   7  -3 202.969 7.86198   2
   0   7  -3 203.785 16.9259   1
   0   7  -3 204.367 15.7996   1
   0   7  -3 199.757 9.27528   3
   0  -7   3 207.043 9.62227   3
   0  -7   3 208.335 7.26990   2
  -1   7  -3 -1.3753 2.26923   3
  -1   7  -3 2.73066 2.55914   2
  -1   7  -3 5.96436 3.78465   2
  -1   7  -3 -3.6601 4.99473   1
   1  -7   3 1.81968 2.72125   3
   1  -7   3 -0.6681 2.49069   2
  -2   7  -3 3.02947 3.10776   3
  -2   7  -3 10.5493 3.47556   2
   2  -7   3 9.02889 3.42444   3
   2  -7   3 6.80806 3.11862   2
  -3   7  -3 16.5011 4.16114   2
  -3   7  -3 23.1930 5.24766   3
   3  -7   3 26.9498 8.60603   2
   3  -7   3 22.4800 4.57504   3
   3  -7   3 10.0709 3.81358   2
  -4   7  -3 60.2235 7.65053   2
   4  -7   3 62.0077 6.18116   2
   4  -7   3 77.2233 8.03896   2
   4  -7   3 73.6220 7.09532   3
  -5   7  -3 10.4751 4.33974   2
   5  -7   3 5.56465 4.08646   3
   5  -7   3 -2.1373 3.61323   2
   6  -7   3 5.84153 5.18016   2
   6  -7   3 6.52940 4.09582   3
  10   6  -3 5.11535 8.76325   3
 -10  -6   3 3.82417 3.38083   2
   9   6  -3 -4.6196 3.18392   2
   9   6  -3 1.19681 5.97083   3
  -9  -6   3 1.25092 2.91100   2
  -9  -6   3 3.77647 2.92961   2
   8   6  -3 23.1602 11.2283   1
   8   6  -3 49.9636 8.12223   3
   8   6  -3 52.2131 5.15531   2
  -8  -6   3 46.2954 5.07421   2
  -8  -6   3 55.5379 5.06311   2
   7   6  -3 -5.5378 4.51193   1
   7   6  -3 7.85655 2.54122   2
   7   6  -3 7.61772 4.96205   3
  -7  -6   3 3.53898 6.65269   1
  -7  -6   3 2.24093 2.08007   2
  -7  -6   3 4.74147 2.09999   2
   6   6  -3 5.60034 1.92131   2
   6   6  -3 7.99782 4.62336   3
  -6  -6   3 6.27817 1.76660   2
  -6  -6   3 6.29287 3.86987   1
  -6  -6   3 5.67206 1.61623   2
   5   6  -3 558.651 18.4930   3
   5   6  -3 547.514 18.5546   3
   4   6  -3 494.168 16.2696   3
   3   6  -3 100.966 6.93253   3
   2   6  -3 345.195 11.8827   3
   1   6  -3 91.8125 3.37373   2
   1   6  -3 100.131 6.14138   3
   1   6  -3 89.2990 4.18770   2
   1   6  -3 93.4183 6.18063   1
   0   6  -3 -1.8407 3.38756   1
   0   6  -3 0.29034 1.82152   2
   0   6  -3 1.01230 1.79896   2
   0   6  -3 2.15519 2.19178   3
   0  -6   3 -0.9427 1.76422   2
   0  -6   3 -0.5722 2.31456   3
  -1   6  -3 177.916 8.28981   3
  -1   6  -3 157.725 16.4716   1
  -1   6  -3 171.700 7.60130   2
  -1   6  -3 178.863 7.73696   2
   1  -6   3 177.224 7.71768   2
   1  -6   3 181.627 17.1337   1
   1  -6   3 173.655 7.73228   2
   1  -6   3 182.357 8.46608   3
  -2   6  -3 30.4608 4.45085   3
  -2   6  -3 39.4198 5.12708   2
  -2   6  -3 23.5340 9.77743   1
  -2   6  -3 27.8965 4.36844   2
   2  -6   3 26.7716 4.39347   2
   2  -6   3 41.0240 5.16512   2
   2  -6   3 31.1539 4.44251   3
  -3   6  -3 -5.2396 8.19109   1
  -3   6  -3 -2.4482 2.62079   3
  -3   6  -3 1.42624 3.20437   2
   3  -6   3 -0.2430 3.07696   2
   3  -6   3 13.3177 8.18738   1
   3  -6   3 -2.7264 2.82291   2
   3  -6   3 0.00624 2.56318   3
  -4   6  -3 25.5009 8.88291   2
   4  -6   3 18.7087 5.21429   2
   4  -6   3 28.0739 5.08960   3
   4  -6   3 22.8455 4.09717   2
  -5   6  -3 30.6925 5.99207   2
   5  -6   3 40.0485 6.58411   2
   5  -6   3 28.5696 4.97282   2
   5  -6   3 32.8291 5.21806   3
  -6   6  -3 20.6023 5.85928   2
   6  -6   3 23.9296 5.71175   2
   6  -6   3 26.0469 6.59553   2
   7  -6   3 32.5875 5.51332   3
   7  -6   3 33.3613 7.60631   2
  10   5  -3 -1.3203 6.55634   3
 -10  -5   3 7.43990 4.37779   2
 -10  -5   3 -1.3406 3.38017   2
   9   5  -3 1.01631 4.75915   2
   9   5  -3 4.63962 6.10128   3
  -9  -5   3 3.12239 3.56773   2
  -9  -5   3 9.84604 5.75859   2
   8   5  -3 2.89146 5.28543   3
   8   5  -3 4.64603 8.83141   1
  -8  -5   3 3.15672 3.02285   2
  -8  -5   3 2.09681 9.45542   1
   7   5  -3 8.92543 5.27672   3
   7   5  -3 -1.3017 7.26611   1
  -7  -5   3 5.16198 7.14592   1
  -7  -5   3 3.18653 2.61154   2
   6   5  -3 7.48605 4.60553   1
   6   5  -3 6.27740 4.75484   3
   6   5  -3 14.3726 2.88551   2
  -6  -5   3 14.8479 2.80055   2
  -6  -5   3 7.87603 5.23799   1
   5   5  -3 99.8968 4.64099   2
   5   5  -3 106.672 8.49103   3
  -5  -5   3 100.709 9.15210   1
  -5  -5   3 100.450 4.25187   2
   4   5  -3 23.2815 4.20047   3
   4   5  -3 19.2322 4.33928   3
   3   5  -3 381.011 12.5564   3
   2   5  -3 547.225 18.0759   3
   1   5  -3 172.009 4.33688   2
   1   5  -3 169.715 4.37437   2
   1   5  -3 170.352 7.22882   3
   0   5  -3 97.1126 5.41568   3
   0   5  -3 99.6190 4.61037   2
   0   5  -3 110.182 10.4084   1
   0   5  -3 96.2627 4.57947   2
   0  -5   3 99.9337 9.78093   1
   0  -5   3 103.885 5.78739   3
   0  -5   3 92.5513 4.43992   2
  -1   5  -3 122.185 13.7979   1
  -1   5  -3 119.283 6.07583   2
  -1   5  -3 122.535 6.32579   3
  -1   5  -3 118.233 6.14070   2
   1  -5   3 132.148 6.35086   2
   1  -5   3 123.604 6.24640   2
   1  -5   3 121.024 13.3702   1
  -2   5  -3 16.5914 6.57925   1
  -2   5  -3 2.15008 2.40094   3
  -2   5  -3 3.21331 2.87765   2
  -2   5  -3 5.57347 2.92313   2
   2  -5   3 7.43900 3.10887   2
   2  -5   3 6.62336 5.90240   1
   2  -5   3 7.53742 3.14783   2
   2  -5   3 2.28816 2.39499   3
  -3   5  -3 6.92433 3.45420   2
  -3   5  -3 9.66640 3.44760   3
  -3   5  -3 10.0909 8.78197   1
   3  -5   3 14.1123 3.91535   2
   3  -5   3 3.30644 3.48359   2
   3  -5   3 6.17675 2.84043   3
   3  -5   3 -5.4833 6.31479   1
  -4   5  -3 -8.0832 8.77500   1
  -4   5  -3 -4.2618 3.35522   2
  -4   5  -3 -2.2982 3.36388   3
  -4   5  -3 0.45949 3.33296   2
   4  -5   3 -9.0394 8.13592   1
   4  -5   3 -0.1215 2.74385   3
   4  -5   3 -2.0802 3.49684   2
  -5   5  -3 3.06861 3.79465   2
  -5   5  -3 9.12086 4.65438   3
   5  -5   3 3.84709 2.93212   2
   5  -5   3 -1.2415 3.07951   3
   5  -5   3 -2.8184 3.26929   2
  -6   5  -3 5.50314 4.66529   2
   6  -5   3 4.71852 3.71321   3
   6  -5   3 0.21852 4.30176   2
   7  -5   3 -3.7777 4.17039   2
   7  -5   3 4.20826 3.73291   3
   7  -5   3 6.33226 5.10795   2
  10   4  -3 -5.6057 6.39427   3
 -10  -4   3 2.00425 4.15736   2
 -10  -4   3 6.52482 5.32429   2
   9   4  -3 66.5315 9.78184   3
   9   4  -3 50.4877 6.63610   2
  -9  -4   3 52.6586 6.80214   2
  -9  -4   3 51.1423 6.24592   2
   8   4  -3 13.6200 3.87010   2
   8   4  -3 -4.0338 9.78909   1
  -8  -4   3 8.41008 3.62381   2
  -8  -4   3 13.9859 10.5697   1
   7   4  -3 -8.7054 3.93865   3
   7   4  -3 1.26256 7.26286   1
   7   4  -3 0.36376 2.42183   2
  -7  -4   3 -2.1441 2.70969   2
  -7  -4   3 3.42759 2.94250   2
   6   4  -3 5.38261 4.79143   3
   6   4  -3 8.80696 2.83242   2
   6   4  -3 14.3001 6.65036   1
  -6  -4   3 3.78452 2.63225   2
  -6  -4   3 -2.4769 5.06996   1
  -6  -4   3 5.36542 2.66325   2
   5   4  -3 59.0246 4.20882   2
   5   4  -3 59.9630 7.20567   3
   5   4  -3 63.8550 4.21888   2
   5   4  -3 81.7204 9.70322   1
  -5  -4   3 62.5116 4.32545   2
  -5  -4   3 66.3381 9.23300   1
  -5  -4   3 67.8087 4.38053   2
   4   4  -3 202.443 6.13586   2
   4   4  -3 218.026 9.58606   3
  -4  -4   3 222.077 12.2097   1
  -4  -4   3 209.019 5.88644   2
  -4  -4   3 220.383 5.91431   2
   2   4  -3 8.47541 2.35236   3
   1   4  -3 47.3240 1.72455   2
   1   4  -3 54.4463 1.80520   2
   1   4  -3 43.7165 3.67704   3
   0   4  -3 127.634 5.57545   3
   0   4  -3 131.830 10.9942   1
   0   4  -3 134.671 4.92640   2
   0   4  -3 126.393 4.84967   2
   0  -4   3 116.208 9.96236   1
   0  -4   3 136.095 4.89419   2
   0  -4   3 128.450 5.31657   2
   0  -4   3 131.698 5.73873   3
  -1   4  -3 416.933 23.9284   1
  -1   4  -3 454.504 11.9730   3
  -1   4  -3 426.670 11.9830   2
  -1   4  -3 428.911 11.9403   2
   1  -4   3 429.306 24.0910   1
   1  -4   3 423.129 11.8803   2
   1  -4   3 430.640 11.8833   2
   1  -4   3 426.695 11.7817   3
  -2   4  -3 59.9277 5.12644   2
  -2   4  -3 57.2543 4.70852   2
  -2   4  -3 49.4940 4.37391   3
  -2   4  -3 35.7839 8.44711   1
   2  -4   3 45.1376 4.79934   2
   2  -4   3 53.8677 4.44221   3
   2  -4   3 52.1696 5.00570   2
   2  -4   3 43.5127 10.0706   1
  -3   4  -3 117.261 6.94154   3
  -3   4  -3 106.518 7.42012   2
  -3   4  -3 107.993 17.2544   1
  -3   4  -3 120.419 7.66897   2
   3  -4   3 117.784 16.4888   1
   3  -4   3 116.622 7.64420   2
   3  -4   3 112.825 6.47853   3
  -4   4  -3 43.6461 5.33526   3
  -4   4  -3 42.6257 14.1042   1
  -4   4  -3 38.3385 5.62969   2
  -4   4  -3 37.4112 5.48251   2
   4  -4   3 43.6861 5.80704   2
   4  -4   3 32.5508 13.3791   1
   4  -4   3 38.9680 5.80500   2
   4  -4   3 51.0313 5.37228   3
  -5   4  -3 15.8367 4.82248   2
  -5   4  -3 19.4238 4.77841   2
  -5   4  -3 16.8059 4.03561   3
   5  -4   3 16.1584 4.03139   3
   5  -4   3 17.4022 4.56998   2
   5  -4   3 23.2843 5.26595   2
   5  -4   3 6.23488 10.3259   1
  -6   4  -3 68.6488 7.45432   3
  -6   4  -3 85.0004 9.48929   2
   6  -4   3 88.4009 8.95082   2
   6  -4   3 94.4395 8.23858   2
   6  -4   3 80.3104 7.57218   3
  -7   4  -3 46.6693 8.24316   2
   7  -4   3 30.9179 5.55997   3
   7  -4   3 43.0870 7.93312   2
   7  -4   3 39.1391 6.32171   2
  -8   4  -3 -8.2512 5.22168   2
   8  -4   3 -4.7517 4.31657   2
   8  -4   3 4.01758 4.07727   3
  10   3  -3 13.4251 7.49990   3
 -10  -3   3 15.3375 4.70707   2
 -10  -3   3 0.55616 4.45553   2
   9   3  -3 1.93216 3.23427   2
   9   3  -3 2.15473 5.91067   3
  -9  -3   3 -4.1201 2.81062   2
  -9  -3   3 0.70418 3.72510   2
   8   3  -3 76.1799 14.4186   3
   8   3  -3 67.7368 15.4706   1
   8   3  -3 67.3153 6.36838   2
  -8  -3   3 91.8478 10.9143   2
  -8  -3   3 69.9151 6.59251   2
   7   3  -3 6.09493 5.39660   3
   7   3  -3 14.7190 8.59853   1
   7   3  -3 19.8593 4.01207   2
  -7  -3   3 10.3572 8.67605   1
  -7  -3   3 16.7224 4.08420   2
  -7  -3   3 8.36189 3.57489   2
   6   3  -3 -5.3544 5.69641   1
   6   3  -3 5.15159 2.93511   2
   6   3  -3 5.73218 2.89322   2
   6   3  -3 5.44086 4.86598   3
  -6  -3   3 4.60000 3.01647   2
  -6  -3   3 -2.3493 4.90563   1
  -6  -3   3 5.28955 2.86241   2
   5   3  -3 -2.1548 3.64709   3
   5   3  -3 1.05419 2.01227   2
   5   3  -3 -2.7540 1.89976   2
  -5  -3   3 7.43510 4.74587   1
  -5  -3   3 2.09158 2.12653   2
  -5  -3   3 0.65723 2.26723   2
   4   3  -3 217.362 6.92059   2
   4   3  -3 214.219 14.5694   1
   4   3  -3 212.121 6.93819   2
   4   3  -3 190.649 10.1283   3
  -4  -3   3 209.015 14.2657   1
  -4  -3   3 210.685 6.86544   2
  -4  -3   3 203.467 6.79474   2
   3   3  -3 6.19994 2.66381   3
   3   3  -3 6.59963 1.63073   2
  -3  -3   3 7.66347 2.25167   1
  -3  -3   3 9.42841 2.44462   1
  -3  -3   3 5.88923 1.32210   2
   1   3  -3 13.1630 1.18235   2
   1   3  -3 13.8426 1.17796   2
   1   3  -3 11.9797 2.20691   3
   0   3  -3 115.140 9.22826   1
   0   3  -3 109.930 4.31050   2
   0   3  -3 104.097 4.15739   2
   0   3  -3 112.740 4.62764   3
   0  -3   3 114.813 9.11597   1
   0  -3   3 110.046 4.66864   3
   0  -3   3 108.331 4.19719   2
   0  -3   3 112.087 4.20269   2
  -1   3  -3 735.472 17.3738   2
  -1   3  -3 759.368 16.7257   3
  -1   3  -3 748.060 31.6779   1
   1  -3   3 742.181 16.6478   3
   1  -3   3 747.386 17.3217   2
   1  -3   3 741.875 31.4157   1
   1  -3   3 737.346 18.5900   2
  -2   3  -3 2080.85 42.9563   2
  -2   3  -3 2069.31 41.0795   3
  -2   3  -3 1977.93 73.0127   1
  -2   3  -3 2123.96 42.9605   2
   2  -3   3 2072.11 42.7523   2
   2  -3   3 2074.13 43.7606   2
   2  -3   3 2164.66 41.2940   3
   2  -3   3 1847.86 79.0355   1
  -3   3  -3 112.897 15.4319   1
  -3   3  -3 125.704 7.55636   2
  -3   3  -3 123.650 6.46460   3
  -3   3  -3 129.706 7.69639   2
   3  -3   3 154.494 8.36087   2
   3  -3   3 143.873 6.44489   3
   3  -3   3 127.969 16.4808   1
  -4   3  -3 105.635 7.57651   2
  -4   3  -3 113.880 17.9982   1
  -4   3  -3 97.1050 7.23225   2
  -4   3  -3 97.6700 6.71543   3
   4  -3   3 87.3064 6.39800   3
   4  -3   3 101.533 7.81204   2
   4  -3   3 107.767 16.9520   1
   4  -3   3 112.968 7.97258   2
  -5   3  -3 76.2062 8.05229   2
  -5   3  -3 68.7945 7.58673   2
  -5   3  -3 55.2946 15.9368   1
  -5   3  -3 58.2105 6.10643   3
   5  -3   3 60.6081 6.68018   2
   5  -3   3 71.6785 6.25419   3
   5  -3   3 58.2500 7.16196   2
   5  -3   3 52.6777 16.1320   1
  -6   3  -3 49.2528 6.05715   3
  -6   3  -3 55.0039 7.71232   2
  -6   3  -3 55.9125 19.2452   1
  -6   3  -3 61.7621 7.64237   2
   6  -3   3 57.1075 6.97095   2
   6  -3   3 35.7650 20.0153   1
   6  -3   3 54.4130 6.27847   3
   6  -3   3 59.2599 8.10951   2
   7  -3   3 -1.3871 3.99456   2
   7  -3   3 -0.2917 6.62676   2
   7  -3   3 -2.5904 3.36400   3
  -8   3  -3 3.99461 5.03226   2
   8  -3   3 14.1572 5.54474   2
   8  -3   3 10.3610 4.18308   3
   8  -3   3 23.1381 6.18124   2
  10   2  -3 5.36050 6.61683   3
 -10  -2   3 2.80217 5.40612   2
 -10  -2   3 -5.9914 3.28366   2
   9   2  -3 0.23268 3.82002   2
   9   2  -3 16.5013 6.85419   3
  -9  -2   3 -1.5743 4.12759   2
  -9  -2   3 -1.1990 2.90635   2
   8   2  -3 8.22930 8.66716   3
   8   2  -3 3.09052 4.25372   2
   8   2  -3 -9.4996 10.0713   1
  -8  -2   3 2.09640 3.81104   2
  -8  -2   3 7.41934 10.8344   1
  -8  -2   3 5.68787 3.27769   2
   7   2  -3 1.89930 3.09349   2
   7   2  -3 1.37864 2.82353   2
   7   2  -3 -2.6425 4.84902   3
   7   2  -3 4.38805 7.67520   1
  -7  -2   3 11.3388 3.72613   2
  -7  -2   3 8.71126 8.60870   1
  -7  -2   3 2.38839 3.48943   2
   6   2  -3 65.1817 5.56377   2
   6   2  -3 68.5449 8.16838   3
   6   2  -3 52.3890 11.9652   1
   6   2  -3 70.4765 6.03971   2
  -6  -2   3 59.4914 6.04455   2
  -6  -2   3 73.1808 6.08057   2
  -6  -2   3 78.9176 13.1189   1
   5   2  -3 4.31621 2.61999   2
   5   2  -3 2.72583 2.43997   2
   5   2  -3 1.42494 4.13434   1
   5   2  -3 4.14023 4.28565   3
  -5  -2   3 -0.9230 5.17810   1
  -5  -2   3 0.98880 2.48555   2
  -5  -2   3 3.90179 2.55561   2
   4   2  -3 515.871 13.2596   2
   4   2  -3 524.360 27.8853   1
   4   2  -3 473.897 16.5995   3
   4   2  -3 521.178 13.4054   2
  -4  -2   3 516.004 13.4917   2
  -4  -2   3 525.280 30.0556   1
  -4  -2   3 503.390 13.2288   2
   3   2  -3 172.253 7.46086   3
   3   2  -3 167.650 5.66833   2
  -3  -2   3 159.529 5.74939   2
  -3  -2   3 168.478 5.65180   2
  -3  -2   3 180.178 12.0090   1
   2   2  -3 285.468 6.73112   2
   2   2  -3 272.459 8.54356   3
   2   2  -3 282.044 6.73879   2
  -2  -2   3 287.093 12.0496   1
  -2  -2   3 279.591 6.59933   2
  -2  -2   3 269.890 6.55591   2
  -2  -2   3 281.126 12.0640   1
   1   2  -3 231.991 5.55339   2
   1   2  -3 240.142 5.61486   2
   1   2  -3 232.995 6.88759   3
   1   2  -3 233.405 9.65981   1
  -1  -2   3 236.561 5.45226   2
  -1  -2   3 251.496 10.0732   1
  -1  -2   3 233.285 5.45287   2
   0   2  -3 812.549 17.0305   2
   0   2  -3 833.072 16.9241   3
   0   2  -3 778.879 16.8710   2
   0   2  -3 820.869 26.4911   1
   0  -2   3 829.849 16.9300   2
   0  -2   3 841.320 26.8543   1
   0  -2   3 800.400 16.9446   2
  -1   2  -3 249.318 7.87658   2
  -1   2  -3 267.072 17.0971   1
  -1   2  -3 259.339 6.82597   3
  -1   2  -3 262.019 8.00298   2
   1  -2   3 270.685 17.0694   1
   1  -2   3 252.530 6.81225   3
   1  -2   3 264.034 8.02875   2
   1  -2   3 258.602 8.09159   2
  -2   2  -3 633.619 16.5065   2
  -2   2  -3 661.575 32.3377   1
  -2   2  -3 649.159 16.5076   2
  -2   2  -3 652.729 14.7705   3
   2  -2   3 636.526 14.6092   3
   2  -2   3 659.650 16.7356   2
   2  -2   3 676.723 32.9482   1
  -3   2  -3 826.338 40.9796   1
  -3   2  -3 811.996 18.6901   3
  -3   2  -3 829.890 21.1342   2
  -3   2  -3 784.392 20.6974   2
   3  -2   3 817.314 41.4530   1
   3  -2   3 810.034 18.5969   3
   3  -2   3 811.926 20.9383   2
   3  -2   3 806.356 20.9844   2
  -4   2  -3 4.58959 3.12772   2
  -4   2  -3 2.18494 3.05352   2
  -4   2  -3 -5.3209 5.05601   1
  -4   2  -3 5.42618 2.55925   3
   4  -2   3 4.20216 3.40569   2
   4  -2   3 7.05679 3.30382   2
   4  -2   3 1.35710 2.23926   3
   4  -2   3 9.50204 6.15264   1
  -5   2  -3 30.0103 5.44573   2
  -5   2  -3 31.7642 5.24808   2
  -5   2  -3 36.8811 4.86390   3
   5  -2   3 30.2101 5.55665   2
   5  -2   3 37.4117 4.88639   3
   5  -2   3 19.7794 10.8186   1
   5  -2   3 33.5909 5.54900   2
  -6   2  -3 71.2536 17.8824   1
  -6   2  -3 71.5242 8.62677   2
  -6   2  -3 80.2589 8.13668   2
  -6   2  -3 87.7167 7.06784   3
   6  -2   3 92.6310 8.71411   2
   6  -2   3 79.7350 7.83351   2
   6  -2   3 79.5110 20.2554   1
   6  -2   3 86.2065 7.06788   3
  -7   2  -3 115.813 10.1361   2
  -7   2  -3 118.008 8.09252   3
  -7   2  -3 109.760 10.3973   2
  -7   2  -3 57.8913 24.8715   1
   7  -2   3 135.431 37.3629   1
   7  -2   3 106.718 9.76524   2
   7  -2   3 120.967 8.97414   3
   7  -2   3 115.857 9.55354   2
  -8   2  -3 28.8221 7.07419   2
   8  -2   3 42.4311 6.67793   3
   8  -2   3 44.6832 8.42675   2
  -9   2  -3 8.81915 5.04284   2
   9  -2   3 0.94656 5.05850   2
   9  -2   3 6.65216 4.92535   3
  10   1  -3 -4.3990 4.22886   2
  10   1  -3 4.75869 6.11835   3
 -10  -1   3 2.39348 5.51769   2
   9   1  -3 -4.3999 5.46279   3
   9   1  -3 6.92910 3.61952   2
  -9  -1   3 1.85329 4.73207   2
  -9  -1   3 9.18693 3.87443   2
   8   1  -3 5.59171 12.3135   1
   8   1  -3 5.23643 3.32141   2
  -8  -1   3 0.47870 4.13586   2
  -8  -1   3 11.9118 11.1486   1
   7   1  -3 4.90659 3.31527   2
   7   1  -3 -3.4294 8.54403   1
   7   1  -3 -1.8384 2.89061   2
   7   1  -3 12.1766 5.90043   3
  -7  -1   3 5.03561 3.70957   2
  -7  -1   3 -0.0555 7.32861   1
   6   1  -3 72.4110 6.70112   2
   6   1  -3 71.8212 8.62582   3
   6   1  -3 79.4584 6.74353   2
   6   1  -3 74.1644 14.7797   1
  -6  -1   3 77.1223 7.17577   2
  -6  -1   3 78.4693 6.66872   3
   5   1  -3 794.638 20.4334   2
   5   1  -3 820.700 22.0265   3
   5   1  -3 772.429 20.8192   2
   5   1  -3 783.508 40.3572   1
  -5  -1   3 770.408 39.7830   1
  -5  -1   3 750.069 20.0036   2
  -5  -1   3 762.808 20.8332   3
  -5  -1   3 742.675 20.0786   2
   4   1  -3 234.165 9.80690   3
   4   1  -3 225.133 8.24000   2
   4   1  -3 229.190 8.38872   2
   4   1  -3 224.380 18.0724   1
  -4  -1   3 219.725 8.86243   3
  -4  -1   3 232.360 8.43975   2
  -4  -1   3 219.609 17.8964   1
   3   1  -3 90.9633 10.1648   1
   3   1  -3 102.494 4.88389   2
   3   1  -3 95.3290 6.29226   3
   3   1  -3 97.9976 4.77619   2
  -3  -1   3 95.4638 4.87020   2
  -3  -1   3 108.639 4.96298   2
  -3  -1   3 118.136 10.9606   1
  -3  -1   3 100.996 5.67238   3
   2   1  -3 2163.77 41.3978   2
   2   1  -3 2096.53 42.4099   3
   2   1  -3 2161.15 41.3795   2
  -2  -1   3 2148.16 41.3076   2
  -2  -1   3 2085.68 41.3174   2
  -2  -1   3 2180.80 54.5773   1
  -2  -1   3 2233.39 54.9914   1
   1   1  -3 61.2474 2.88637   2
   1   1  -3 60.7618 3.25011   3
   1   1  -3 61.8337 2.95626   2
   1   1  -3 62.0025 5.89198   1
  -1  -1   3 60.7966 2.91619   2
  -1  -1   3 57.5016 2.85953   2
  -1  -1   3 59.6152 5.93546   1
   0   1  -3 1207.42 24.2361   2
   0   1  -3 1191.82 23.1807   3
   0   1  -3 1268.48 34.9093   1
   0   1  -3 1215.04 24.1468   2
   0  -1   3 1200.83 24.2494   2
   0  -1   3 1221.02 24.1839   2
   0  -1   3 1224.03 35.1849   1
  -1   1  -3 405.393 10.5279   2
  -1   1  -3 402.418 8.44763   3
  -1   1  -3 410.714 20.8992   1
  -1   1  -3 406.800 10.5318   2
   1  -1   3 396.301 10.5623   2
   1  -1   3 414.822 20.9145   1
   1  -1   3 394.041 8.44130   3
   1  -1   3 393.326 10.2680   2
  -2   1  -3 857.932 20.0895   2
  -2   1  -3 905.832 37.3848   1
  -2   1  -3 851.702 17.6170   3
  -2   1  -3 828.048 19.7494   2
   2  -1   3 832.045 17.4623   3
   2  -1   3 868.424 36.7595   1
   2  -1   3 827.363 19.8379   2
  -3   1  -3 594.186 33.2974   1
  -3   1  -3 582.243 16.0620   2
  -3   1  -3 578.913 13.8937   3
  -3   1  -3 588.412 16.2185   2
   3  -1   3 590.373 16.1256   2
   3  -1   3 596.562 16.3677   2
   3  -1   3 563.716 13.7843   3
   3  -1   3 595.719 33.4995   1
  -4   1  -3 58.4700 4.57067   3
  -4   1  -3 66.1335 6.98168   2
  -4   1  -3 51.7870 12.0070   1
  -4   1  -3 66.7335 5.91849   2
   4  -1   3 59.5060 4.60687   3
   4  -1   3 66.0569 5.65857   2
   4  -1   3 53.1504 12.1016   1
   4  -1   3 64.6655 6.12523   2
  -5   1  -3 2.20429 2.52778   3
  -5   1  -3 -3.4972 2.87066   2
  -5   1  -3 2.68256 6.22665   1
  -5   1  -3 -0.3609 3.32186   2
   5  -1   3 -0.6373 3.16727   3
   5  -1   3 -0.2888 3.25996   2
   5  -1   3 3.87356 3.37280   2
   5  -1   3 7.17610 7.63446   1
  -6   1  -3 103.989 8.40934   2
  -6   1  -3 99.8222 8.70875   2
  -6   1  -3 65.0108 15.7303   1
  -6   1  -3 98.9730 6.84748   3
   6  -1   3 94.6471 8.52854   2
   6  -1   3 70.1354 16.7318   1
   6  -1   3 111.096 8.50346   2
   6  -1   3 111.967 7.61357   3
  -7   1  -3 33.7284 6.20088   2
  -7   1  -3 15.9129 14.3208   1
  -7   1  -3 32.5408 6.77735   2
   7  -1   3 38.0628 6.45436   2
   7  -1   3 23.4531 5.83336   2
   7  -1   3 27.0106 5.34772   3
   7  -1   3 7.82469 15.4656   1
  -8   1  -3 11.4344 4.40034   2
  -8   1  -3 -1.3563 4.79767   2
   8  -1   3 -3.5385 3.87915   2
   8  -1   3 3.21821 4.62748   2
   8  -1   3 0.11909 3.64102   3
   8  -1   3 9.14552 32.3047   1
  -9   1  -3 1.83640 5.09969   2
   9  -1   3 2.89457 4.16481   3
   9  -1   3 -5.6701 4.30376   2
  10   0  -3 3.45121 7.19709   3
  10   0  -3 4.75010 6.82476   2
 -10   0   3 1.89151 5.16355   2
   9   0  -3 9.71160 6.39521   3
   9   0  -3 5.33381 5.06301   2
  -9   0   3 2.39326 4.40062   2
  -9   0   3 6.16852 4.82588   2
   8   0  -3 14.0228 6.02959   3
   8   0  -3 11.0134 5.07510   2
   8   0  -3 16.6174 13.1985   1
  -8   0   3 13.2407 4.09824   2
  -8   0   3 4.39987 4.50094   2
  -8   0   3 -17.334 10.3763   1
   7   0  -3 53.6215 7.07783   2
   7   0  -3 72.1444 8.89210   3
   7   0  -3 59.3074 6.68172   2
  -7   0   3 61.0300 13.7950   1
  -7   0   3 63.5122 7.93472   2
  -7   0   3 64.6817 6.68251   2
   6   0  -3 109.185 7.95529   2
   6   0  -3 99.7853 9.03656   3
   6   0  -3 103.027 7.92611   2
   6   0  -3 92.2404 16.4220   1
  -6   0   3 100.992 7.80402   2
  -6   0   3 86.9501 15.5513   1
  -6   0   3 88.5669 7.51607   3
  -6   0   3 96.5220 7.72826   2
   5   0  -3 226.391 21.9290   1
   5   0  -3 204.891 10.5751   3
   5   0  -3 188.300 9.23007   2
   5   0  -3 214.084 9.65162   2
  -5   0   3 207.120 9.54693   3
  -5   0   3 200.421 9.46650   2
  -5   0   3 214.615 9.36323   2
  -5   0   3 209.377 20.5467   1
   4   0  -3 388.443 12.1169   2
   4   0  -3 397.279 26.2988   1
   4   0  -3 399.980 12.3407   2
  -4   0   3 387.136 12.4927   2
  -4   0   3 393.936 12.5739   3
   3   0  -3 27.6002 3.44735   2
   3   0  -3 20.8143 6.14487   1
   3   0  -3 29.4289 3.59964   2
   3   0  -3 33.3283 4.48960   3
  -3   0   3 29.9324 3.67617   2
  -3   0   3 28.1992 3.84541   3
   2   0  -3 413.064 11.0611   3
   2   0  -3 406.067 10.4337   2
   2   0  -3 398.096 10.4391   2
  -2   0   3 371.126 19.7448   1
  -2   0   3 405.067 10.8300   3
  -2   0   3 410.797 20.7615   1
  -2   0   3 401.448 10.5588   2
  -2   0   3 389.928 10.2579   2
   1   0  -3 1428.31 40.2402   1
   1   0  -3 1420.68 27.9527   2
   1   0  -3 1394.28 27.6201   3
   1   0  -3 1402.51 27.9122   2
  -1   0   3 1444.31 40.5785   1
  -1   0   3 1383.14 27.8784   2
  -1   0   3 1369.38 27.8746   2
  -1   0   3 1400.60 27.6152   3
   0   0  -3 824.208 15.5973   3
   0   0  -3 826.203 17.5842   2
   0   0  -3 823.797 17.1933   2
   0   0  -3 829.701 27.5966   1
   0   0   3 851.926 27.9774   1
   0   0   3 794.491 17.1490   2
   0   0   3 765.859 17.0201   2
  -1   0  -3 958.109 33.5768   1
  -1   0  -3 925.371 20.0353   2
  -1   0  -3 937.867 20.0318   2
   1   0   3 909.664 20.0459   2
   1   0   3 917.029 33.1660   1
  -2   0  -3 41.4636 8.45539   1
  -2   0  -3 44.7341 4.04684   2
  -2   0  -3 40.8141 3.95983   2
  -2   0  -3 42.2219 2.42080   3
   2   0   3 39.0778 4.01204   2
   2   0   3 48.1362 8.66990   1
   2   0   3 35.5696 3.83256   2
   2   0   3 37.6878 2.47085   3
  -3   0  -3 49.2777 4.46618   2
  -3   0  -3 40.1944 4.49444   2
  -3   0  -3 46.7604 3.28263   3
  -3   0  -3 50.0889 10.8508   1
   3   0   3 42.0549 3.57744   3
   3   0   3 50.4235 4.72115   2
   3   0   3 64.2544 10.8653   1
   3   0   3 48.3884 4.55156   2
  -4   0  -3 60.7605 11.6784   1
  -4   0  -3 56.1811 5.47172   2
  -4   0  -3 52.9178 4.02785   3
  -4   0  -3 48.9368 5.05374   2
   4   0   3 57.0689 5.42593   2
   4   0   3 41.7126 11.0078   1
   4   0   3 55.3596 4.54500   3
   4   0   3 72.7020 5.98453   2
  -5   0  -3 152.047 8.60537   3
  -5   0  -3 139.512 18.6356   1
  -5   0  -3 154.075 8.80186   2
  -5   0  -3 136.505 8.61758   2
   5   0   3 157.486 19.9010   1
   5   0   3 152.924 8.86654   2
   5   0   3 159.946 9.36436   3
  -6   0  -3 93.9503 7.93590   2
  -6   0  -3 92.4346 25.7431   1
  -6   0  -3 82.5793 6.17692   3
   6   0   3 89.4495 9.69978   2
   6   0   3 95.0292 8.04833   2
   6   0   3 67.9124 15.9473   1
   6   0   3 86.2772 7.05100   3
  -7   0  -3 9.24286 4.18538   2
  -7   0  -3 4.87487 4.71001   2
  -7   0  -3 13.5859 3.82335   3
  -7   0  -3 9.33521 13.5413   1
   7   0   3 4.44559 4.47976   2
   7   0   3 10.3729 4.21997   3
   7   0   3 8.89412 10.2481   1
   7   0   3 13.5048 4.55969   2
  -8   0  -3 49.2048 20.3067   1
  -8   0  -3 63.4211 8.49973   2
  -8   0  -3 61.1534 7.59782   2
   8   0   3 31.2992 19.1805   1
   8   0   3 58.6037 7.32512   2
   8   0   3 52.0976 7.94771   2
   8   0   3 47.0872 6.83921   3
  -9   0  -3 3.17749 5.66224   2
  -9   0  -3 16.7059 29.5879   1
  -9   0  -3 -0.9911 5.61191   2
   9   0   3 -2.7685 4.13508   3
   9   0   3 9.96735 5.89357   2
 -10   0  -3 5.78696 5.18511   2
  10   0   3 -2.4561 4.58137   3
  10  -1  -3 5.04083 5.94981   3
 -10   1   3 2.08786 5.39337   2
   9  -1  -3 8.09050 5.77819   3
  -9   1   3 -2.8865 3.96953   2
  -9   1   3 -7.6502 4.15747   2
   8  -1  -3 9.89718 5.36583   3
   8  -1  -3 10.6084 4.93726   2
   8  -1  -3 4.27246 15.3805   1
  -8   1   3 -0.7154 4.15547   2
  -8   1   3 4.08689 3.92747   2
  -8   1   3 1.64375 14.3445   1
   7  -1  -3 65.3579 7.37109   2
   7  -1  -3 44.0334 15.2928   1
   7  -1  -3 65.4944 8.30633   3
   7  -1  -3 50.7581 7.11600   2
  -7   1   3 66.6499 7.62993   2
  -7   1   3 42.3516 14.2707   1
  -7   1   3 53.0486 7.05331   2
   6  -1  -3 71.3283 7.43382   2
   6  -1  -3 94.6820 8.78736   3
   6  -1  -3 76.0962 7.36321   2
   6  -1  -3 82.1870 17.2703   1
  -6   1   3 61.6495 9.53710   3
  -6   1   3 74.3981 7.02882   2
  -6   1   3 70.6087 15.0736   1
  -6   1   3 75.3011 7.65539   2
   5  -1  -3 4.00703 3.04534   2
   5  -1  -3 21.6407 9.84006   1
   5  -1  -3 10.5062 4.51084   3
   5  -1  -3 5.14974 3.18911   2
  -5   1   3 -0.8062 3.21801   2
  -5   1   3 1.91210 2.95046   2
  -5   1   3 3.80822 3.46382   3
  -5   1   3 -2.6382 5.17856   1
   4  -1  -3 131.542 7.70607   3
   4  -1  -3 118.107 6.94788   2
   4  -1  -3 106.928 14.0711   1
  -4   1   3 111.606 14.6842   1
  -4   1   3 107.947 6.50559   2
  -4   1   3 107.981 6.85340   3
  -4   1   3 99.4661 6.82937   2
   3  -1  -3 1560.62 34.0297   3
   3  -1  -3 1572.20 33.8476   2
   3  -1  -3 1531.17 33.7949   2
   3  -1  -3 1646.30 56.9943   1
  -3   1   3 1597.58 33.8927   3
  -3   1   3 1608.18 56.5100   1
  -3   1   3 1591.60 34.1425   2
  -3   1   3 1581.37 33.9272   2
   2  -1  -3 544.585 13.7301   2
   2  -1  -3 536.551 13.5568   2
   2  -1  -3 523.276 13.5561   3
  -2   1   3 537.841 26.6585   1
  -2   1   3 523.969 26.4844   1
  -2   1   3 495.460 13.4908   2
  -2   1   3 533.263 13.6485   2
  -2   1   3 540.546 13.6029   3
   1  -1  -3 559.261 24.5257   1
   1  -1  -3 552.073 13.0358   2
   1  -1  -3 525.405 12.3414   3
   1  -1  -3 547.083 13.1159   2
  -1   1   3 515.036 12.8903   2
  -1   1   3 547.660 12.4848   3
  -1   1   3 559.301 24.5518   1
   0  -1  -3 124.936 4.83205   2
   0  -1  -3 117.644 3.64080   3
   0  -1  -3 123.666 4.99586   2
   0  -1  -3 126.162 10.4879   1
   0   1   3 126.390 4.85675   2
   0   1   3 116.112 10.1469   1
   0   1   3 117.034 3.67013   3
  -1  -1  -3 101.913 4.61047   2
  -1  -1  -3 109.695 10.2105   1
  -1  -1  -3 102.812 4.69090   2
   1   1   3 100.075 4.66973   2
   1   1   3 107.062 4.71908   2
   1   1   3 101.194 10.1779   1
   1   1   3 100.399 2.76582   3
  -2  -1  -3 1927.82 39.3085   2
  -2  -1  -3 2034.02 59.6991   1
  -2  -1  -3 1918.74 39.1872   2
   2   1   3 1882.62 39.2772   2
   2   1   3 1967.42 36.7889   3
   2   1   3 1966.28 59.1743   1
   2   1   3 1910.10 39.2295   2
  -3  -1  -3 149.477 6.94695   2
  -3  -1  -3 124.927 14.6421   1
  -3  -1  -3 148.837 7.01788   2
   3   1   3 151.128 6.99668   2
   3   1   3 157.447 5.81012   3
   3   1   3 148.071 7.09895   2
   3   1   3 137.132 14.8901   1
  -4  -1  -3 84.6852 6.00442   2
  -4  -1  -3 93.1378 13.2243   1
  -4  -1  -3 89.3007 6.23908   2
   4   1   3 92.6027 5.54160   3
   4   1   3 81.5199 13.3498   1
   4   1   3 92.3493 6.19319   2
   4   1   3 92.0285 6.28970   2
  -5  -1  -3 21.6832 4.58503   2
  -5  -1  -3 16.2636 4.12755   2
  -5  -1  -3 22.8738 9.14501   1
   5   1   3 10.4397 7.40489   1
   5   1   3 24.1512 4.78372   2
   5   1   3 24.0685 4.50183   2
  -6  -1  -3 48.8648 6.49344   2
  -6  -1  -3 45.4517 6.45279   2
  -6  -1  -3 35.2190 14.7667   1
   6   1   3 42.1480 5.77819   3
   6   1   3 39.0052 6.17743   2
   6   1   3 42.1903 11.9274   1
   6   1   3 39.7758 7.27112   2
  -7  -1  -3 2.93577 4.18319   2
  -7  -1  -3 -12.229 9.38605   1
  -7  -1  -3 6.56114 4.75194   2
   7   1   3 17.0027 4.93100   2
   7   1   3 13.7749 10.4024   1
   7   1   3 0.27632 4.11441   3
   7   1   3 -0.2381 7.15623   2
  -8  -1  -3 30.7524 6.86042   2
  -8  -1  -3 22.6244 17.3871   1
  -8  -1  -3 19.5743 5.10413   2
   8   1   3 20.7953 6.05926   2
   8   1   3 24.0155 5.44425   2
   8   1   3 21.6599 5.57898   3
   8   1   3 -1.3317 13.4910   1
  -9  -1  -3 9.51881 4.76904   2
  -9  -1  -3 4.46433 4.85134   2
  -9  -1  -3 -35.354 20.6537   1
   9   1   3 9.50300 5.26463   2
   9   1   3 13.1365 21.9035   1
 -10  -1  -3 0.84996 4.96284   2
  10   1   3 2.44619 5.02021   2
  10   1   3 -7.9584 4.24976   3
   9  -2  -3 4.30453 5.02174   2
   9  -2  -3 10.7448 5.82436   3
  -9   2   3 15.4586 5.86750   2
  -9   2   3 -9.0545 5.89034   2
   8  -2  -3 18.0440 17.2289   1
   8  -2  -3 1.48771 5.31306   2
   8  -2  -3 2.34199 4.53737   3
  -8   2   3 42.5923 20.9992   1
   7  -2  -3 20.7432 5.86474   3
   7  -2  -3 26.3098 12.3710   1
   7  -2  -3 28.2759 5.86247   2
   7  -2  -3 22.4674 6.12548   2
  -7   2   3 23.8072 6.02278   2
  -7   2   3 16.8880 4.94420   2
  -7   2   3 33.0693 15.1684   1
   6  -2  -3 167.704 24.0589   1
   6  -2  -3 154.171 9.72367   2
   6  -2  -3 142.026 9.98597   3
   6  -2  -3 167.039 10.6075   2
  -6   2   3 160.414 10.3429   2
  -6   2   3 154.227 9.67958   3
  -6   2   3 149.825 9.84960   2
  -6   2   3 167.032 22.4681   1
   5  -2  -3 158.041 9.33058   3
   5  -2  -3 156.977 19.9615   1
   5  -2  -3 141.493 9.04506   2
   5  -2  -3 137.784 8.53225   2
  -5   2   3 141.407 8.63312   2
  -5   2   3 151.516 9.03241   3
  -5   2   3 125.975 8.74308   2
  -5   2   3 116.596 18.1628   1
   4  -2  -3 17.6980 4.01124   3
   4  -2  -3 25.4081 4.29119   2
   4  -2  -3 24.0102 4.16259   2
   4  -2  -3 27.4172 8.78036   1
  -4   2   3 15.5903 7.32769   1
  -4   2   3 29.5474 4.58210   3
  -4   2   3 21.8663 4.21715   2
   3  -2  -3 47.8131 11.3403   1
   3  -2  -3 38.7501 4.36994   2
  -3   2   3 41.5694 4.70388   2
  -3   2   3 42.2615 8.21458   3
  -3   2   3 38.0697 4.38664   2
   2  -2  -3 33.7828 4.15455   3
   2  -2  -3 39.4233 4.19757   2
   2  -2  -3 32.7000 4.07196   2
  -2   2   3 33.6312 4.22581   3
  -2   2   3 46.5807 8.60757   1
  -2   2   3 29.8126 3.98433   2
  -2   2   3 29.1254 8.17135   1
  -2   2   3 31.7609 4.07023   2
   1  -2  -3 717.742 16.7755   2
   1  -2  -3 667.232 15.9058   3
   1  -2  -3 757.628 17.0632   2
  -1   2   3 693.598 30.8561   1
  -1   2   3 698.865 16.7646   2
  -1   2   3 711.286 16.0725   3
   0  -2  -3 94.9901 10.3010   1
   0  -2  -3 87.5865 3.81802   3
   0  -2  -3 95.6228 4.60866   2
   0  -2  -3 92.6502 4.64452   2
   0   2   3 91.0915 3.76739   3
   0   2   3 94.4124 4.46228   2
   0   2   3 85.5258 4.54529   2
   0   2   3 88.3911 12.2382   1
  -1  -2  -3 1116.50 42.1385   1
  -1  -2  -3 1162.70 22.7230   3
  -1  -2  -3 1154.92 24.3271   2
  -1  -2  -3 1179.93 24.4662   2
   1   2   3 1138.96 24.3207   2
   1   2   3 1136.65 24.3011   2
   1   2   3 1192.06 40.0202   1
   1   2   3 1125.32 22.6440   3
  -2  -2  -3 866.958 19.7049   2
  -2  -2  -3 854.509 19.7575   2
  -2  -2  -3 843.400 43.3940   1
   2   2   3 895.713 37.2554   1
   2   2   3 858.175 17.8721   3
   2   2   3 865.883 19.7651   2
   2   2   3 870.654 19.8883   2
  -3  -2  -3 9.83035 3.04324   2
  -3  -2  -3 7.55049 2.66632   2
  -3  -2  -3 11.0081 5.52763   1
   3   2   3 4.71276 3.95197   1
   3   2   3 8.86837 2.26939   3
   3   2   3 8.15298 2.92800   2
   3   2   3 6.64453 2.97827   2
  -4  -2  -3 150.631 16.5739   1
  -4  -2  -3 146.124 7.41024   2
  -4  -2  -3 152.864 7.64547   2
   4   2   3 155.984 7.63923   2
   4   2   3 146.050 6.68526   3
   4   2   3 157.039 7.77968   2
   4   2   3 194.845 18.9193   1
  -5  -2  -3 517.713 16.0785   2
  -5  -2  -3 514.549 34.7773   1
  -5  -2  -3 505.484 16.1994   2
   5   2   3 494.145 16.1456   2
   5   2   3 507.358 16.1035   2
   5   2   3 533.870 35.3730   1
  -6  -2  -3 123.134 8.34267   2
  -6  -2  -3 143.422 9.51653   2
  -6  -2  -3 132.937 19.5971   1
   6   2   3 135.951 8.99004   2
   6   2   3 130.455 8.85436   3
   6   2   3 131.130 8.55626   2
   6   2   3 135.523 20.8127   1
  -7  -2  -3 80.6764 8.05843   2
  -7  -2  -3 81.2865 7.76654   2
  -7  -2  -3 63.0791 17.1490   1
   7   2   3 87.4700 19.3524   1
   7   2   3 85.0198 8.64416   3
   7   2   3 72.4092 7.81544   2
   7   2   3 82.2178 7.88363   2
  -8  -2  -3 375.310 16.7340   2
  -8  -2  -3 321.263 35.2799   1
   8   2   3 377.872 18.9959   2
   8   2   3 335.021 19.0103   2
   8   2   3 359.519 15.3154   3
   8   2   3 287.692 37.5091   1
  -9  -2  -3 27.1543 6.57166   2
  -9  -2  -3 31.7349 6.12134   2
  -9  -2  -3 23.9346 20.9269   1
   9   2   3 21.1566 6.64711   2
   9   2   3 79.0110 22.1515   1
   9   2   3 32.5537 10.4184   3
 -10  -2  -3 3.07275 4.97985   2
  10   2   3 2.06546 4.90626   3
  10   2   3 -0.7269 5.12650   2
   9  -3  -3 2.99399 4.98132   3
  -9   3   3 11.1932 5.85084   2
   8  -3  -3 28.7464 6.48333   2
   8  -3  -3 28.8378 6.65338   3
  -8   3   3 -10.894 25.4386   1
  -8   3   3 24.6199 6.65538   2
  -8   3   3 26.8342 5.68440   2
   7  -3  -3 11.5309 5.14463   2
   7  -3  -3 2.14070 15.6967   1
   7  -3  -3 -0.6124 6.26058   2
  -7   3   3 19.2525 5.12327   2
  -7   3   3 5.90976 27.4181   1
  -7   3   3 1.02078 4.22869   2
   6  -3  -3 75.8807 17.5598   1
   6  -3  -3 73.7375 8.06950   3
   6  -3  -3 82.1214 7.79538   2
  -6   3   3 83.2265 7.96918   2
  -6   3   3 68.3952 17.3390   1
  -6   3   3 85.2947 8.65052   2
   5  -3  -3 56.3201 6.26955   2
   5  -3  -3 41.0538 13.3320   1
   5  -3  -3 41.3014 6.01592   3
   5  -3  -3 41.4387 6.29449   2
  -5   3   3 48.1280 6.40351   2
  -5   3   3 43.8462 6.37711   2
  -5   3   3 49.5356 6.38085   3
  -5   3   3 60.4141 15.0322   1
   4  -3  -3 199.417 22.6787   1
   4  -3  -3 217.100 10.0782   3
   4  -3  -3 212.599 10.0340   2
   4  -3  -3 209.098 9.86575   2
  -4   3   3 205.141 9.86291   2
  -4   3   3 197.902 9.87947   3
  -4   3   3 190.021 10.3520   2
  -4   3   3 238.643 23.7796   1
   3  -3  -3 419.349 13.6253   2
   3  -3  -3 402.929 15.2175   3
  -3   3   3 457.036 14.3691   2
  -3   3   3 443.524 13.6946   3
  -3   3   3 406.948 29.2327   1
  -3   3   3 438.759 13.8112   2
   2  -3  -3 405.437 12.1632   3
   2  -3  -3 403.056 12.4596   2
   2  -3  -3 415.867 12.5910   2
  -2   3   3 403.012 26.6113   1
  -2   3   3 421.697 12.2927   3
  -2   3   3 401.461 12.5572   2
  -2   3   3 389.032 26.3637   1
  -2   3   3 414.410 12.5731   2
   1  -3  -3 1233.50 27.2851   3
   1  -3  -3 1272.39 28.0578   2
   1  -3  -3 1271.34 28.0351   2
  -1   3   3 1328.10 48.6424   1
  -1   3   3 1374.96 48.9167   1
  -1   3   3 1278.61 28.1280   2
  -1   3   3 1277.22 28.0447   2
  -1   3   3 1293.08 27.4086   3
   0  -3  -3 71.8715 4.59838   2
   0  -3  -3 72.8038 4.27220   3
   0  -3  -3 79.7887 10.3535   1
   0  -3  -3 88.1303 4.65313   2
   0   3   3 79.8880 4.81406   2
   0   3   3 78.1821 4.20778   3
   0   3   3 86.4150 13.9862   1
   0   3   3 85.4295 4.85808   2
  -1  -3  -3 287.277 8.18611   3
  -1  -3  -3 288.622 8.93223   2
  -1  -3  -3 296.896 9.00140   2
  -1  -3  -3 305.914 19.2204   1
   1   3   3 295.747 8.20277   3
   1   3   3 301.382 9.08165   2
   1   3   3 316.010 19.8864   1
   1   3   3 297.678 9.10282   2
  -2  -3  -3 2126.42 43.6242   2
  -2  -3  -3 2221.51 64.5766   1
  -2  -3  -3 2174.91 43.6593   2
   2   3   3 2194.81 43.8644   2
   2   3   3 2173.67 43.8011   2
   2   3   3 2139.00 42.3258   3
   2   3   3 2205.22 64.9068   1
  -3  -3  -3 6.38528 2.68851   2
  -3  -3  -3 17.2354 5.70489   1
  -3  -3  -3 5.33884 2.76745   2
   3   3   3 8.79136 2.30521   3
   3   3   3 1.81945 4.19965   1
   3   3   3 6.64992 2.79834   2
   3   3   3 9.93469 3.09161   2
  -4  -3  -3 44.5632 4.84975   2
  -4  -3  -3 57.5170 4.90616   2
   4   3   3 48.6322 4.31459   3
   4   3   3 57.1564 4.93332   2
   4   3   3 38.5525 9.39037   1
   4   3   3 43.8744 4.91227   2
  -5  -3  -3 938.089 24.0711   2
  -5  -3  -3 933.681 28.0209   2
  -5  -3  -3 922.927 47.3065   1
   5   3   3 931.622 23.4579   3
   5   3   3 935.564 24.4203   2
   5   3   3 997.804 27.5974   2
   5   3   3 935.352 48.4766   1
  -6  -3  -3 -1.2098 5.59913   1
  -6  -3  -3 6.39808 3.71815   2
  -6  -3  -3 3.86552 3.50174   2
   6   3   3 1.70362 6.05934   1
   6   3   3 -0.0157 3.28689   2
   6   3   3 0.32598 3.20026   2
   6   3   3 5.82485 4.03038   3
  -7  -3  -3 96.4190 8.21463   2
  -7  -3  -3 103.093 8.65116   2
  -7  -3  -3 85.9734 18.4571   1
   7   3   3 94.6476 8.36211   2
   7   3   3 111.890 9.12549   3
   7   3   3 68.2273 17.5049   1
   7   3   3 91.3482 8.05911   2
  -8  -3  -3 148.005 10.5438   2
  -8  -3  -3 149.693 24.6044   1
  -8  -3  -3 162.237 11.1405   2
   8   3   3 154.117 10.9417   2
   8   3   3 151.122 11.0273   2
   8   3   3 152.993 11.2658   3
  -9  -3  -3 22.4435 5.25356   2
  -9  -3  -3 28.7513 6.54635   2
  -9  -3  -3 68.5662 20.7339   1
   9   3   3 -17.295 16.8172   1
   9   3   3 23.5728 6.53815   3
   9   3   3 26.7730 7.03974   2
 -10  -3  -3 6.32276 5.36797   2
 -10  -3  -3 -11.498 4.47021   2
  10   3   3 2.20312 4.15052   2
  10   3   3 -0.3710 5.17496   3
   9  -4  -3 14.2214 6.40747   3
  -9   4   3 26.2132 7.02982   2
   8  -4  -3 2.30366 4.75873   3
  -8   4   3 -1.2104 5.05474   2
  -8   4   3 11.1230 6.22195   2
   7  -4  -3 11.9543 6.68755   2
   7  -4  -3 -5.1470 3.75908   3
   7  -4  -3 9.46751 5.01673   2
   7  -4  -3 -12.144 13.1103   1
  -7   4   3 26.7910 19.7529   1
  -7   4   3 6.38576 4.02186   2
  -7   4   3 -2.6837 4.13589   2
   6  -4  -3 25.6769 11.3409   1
   6  -4  -3 9.06428 4.89206   2
   6  -4  -3 2.76075 3.58606   2
   6  -4  -3 14.5675 4.90764   3
  -6   4   3 5.23120 4.93241   2
  -6   4   3 6.72807 11.0766   1
  -6   4   3 15.2833 4.74521   2
   5  -4  -3 166.784 23.0739   1
   5  -4  -3 159.095 10.1233   3
   5  -4  -3 140.680 9.56628   2
   5  -4  -3 143.113 9.78953   2
  -5   4   3 133.250 9.92242   2
  -5   4   3 106.116 20.9283   1
  -5   4   3 123.538 15.1436   2
  -5   4   3 157.399 10.0219   3
   4  -4  -3 19.9308 9.33348   1
   4  -4  -3 30.7732 5.16532   3
   4  -4  -3 40.5732 5.76118   2
  -4   4   3 46.2248 13.5657   1
  -4   4   3 44.1450 5.89899   3
  -4   4   3 36.5818 5.68275   2
  -4   4   3 51.3120 6.60616   2
   3  -4  -3 277.661 10.9455   3
   3  -4  -3 265.940 10.9078   2
  -3   4   3 251.841 10.8837   2
  -3   4   3 267.992 10.9700   2
  -3   4   3 263.058 10.7311   3
  -3   4   3 280.375 25.9450   1
   2  -4  -3 63.6494 5.35757   2
   2  -4  -3 56.8973 5.11763   3
   2  -4  -3 73.3572 5.59676   2
  -2   4   3 66.6621 11.4572   1
  -2   4   3 58.8323 5.47147   2
  -2   4   3 53.7107 5.10916   2
  -2   4   3 84.8230 13.1097   1
  -2   4   3 61.5294 5.21428   3
   1  -4  -3 673.443 17.4276   2
   1  -4  -3 637.962 17.2477   2
   1  -4  -3 690.348 17.1618   3
  -1   4   3 682.999 17.0533   3
  -1   4   3 599.896 45.8125   1
  -1   4   3 666.041 17.3918   2
  -1   4   3 687.711 17.6245   2
  -1   4   3 698.426 35.2325   1
   0  -4  -3 264.219 8.84020   3
   0  -4  -3 257.940 9.05885   2
   0  -4  -3 283.278 20.0126   1
   0  -4  -3 269.700 9.13976   2
   0   4   3 266.851 9.19934   2
   0   4   3 288.437 20.8716   1
   0   4   3 279.349 9.39209   2
   0   4   3 277.452 8.88804   3
  -1  -4  -3 364.568 10.5153   3
  -1  -4  -3 379.655 10.9699   2
  -1  -4  -3 373.579 22.4970   1
  -1  -4  -3 370.647 10.9851   2
   1   4   3 390.508 23.2084   1
   1   4   3 381.303 11.1484   2
   1   4   3 383.498 10.6390   3
   1   4   3 357.497 10.8536   2
  -2  -4  -3 298.670 9.05451   3
  -2  -4  -3 291.019 9.48318   2
  -2  -4  -3 276.615 9.49930   2
  -2  -4  -3 297.179 20.2621   1
   2   4   3 300.539 20.7519   1
   2   4   3 292.355 9.49072   2
   2   4   3 296.553 8.96153   3
   2   4   3 294.208 9.53913   2
  -3  -4  -3 261.096 19.9389   1
  -3  -4  -3 220.922 8.42170   2
  -3  -4  -3 211.047 8.37076   2
   3   4   3 227.461 8.69744   2
   3   4   3 228.119 8.02828   3
   3   4   3 230.765 19.4541   1
   3   4   3 222.627 8.55342   2
  -4  -4  -3 202.415 8.64098   2
  -4  -4  -3 204.872 8.83666   2
  -4  -4  -3 198.911 18.7987   1
   4   4   3 201.496 19.0096   1
   4   4   3 207.850 8.73697   2
   4   4   3 204.650 7.95938   3
   4   4   3 194.930 8.45999   2
  -5  -4  -3 1.53368 2.51217   2
  -5  -4  -3 2.77863 5.30419   2
  -5  -4  -3 1.42700 5.43904   1
   5   4   3 0.00184 2.49118   2
   5   4   3 -7.0045 4.85351   1
   5   4   3 3.88998 3.35025   2
  -6  -4  -3 38.1675 14.3848   1
  -6  -4  -3 67.6613 6.67073   2
  -6  -4  -3 78.1358 7.41492   2
   6   4   3 76.0002 18.2243   1
   6   4   3 72.4168 6.64312   2
   6   4   3 71.6094 7.13392   3
   6   4   3 77.2520 6.79908   2
  -7  -4  -3 3.59052 3.74701   2
  -7  -4  -3 1.87640 4.03500   2
  -7  -4  -3 16.2653 9.54408   1
   7   4   3 1.94150 3.77440   2
   7   4   3 0.31340 4.33134   3
   7   4   3 -8.6345 8.92491   1
   7   4   3 5.03429 4.02754   2
  -8  -4  -3 71.1282 8.85362   2
  -8  -4  -3 57.3152 6.90916   2
   8   4   3 31.3701 14.0258   1
   8   4   3 54.6428 8.00139   3
   8   4   3 75.8713 8.49058   2
   8   4   3 69.5538 7.95988   2
  -9  -4  -3 6.55299 3.74754   2
  -9  -4  -3 13.7264 16.2378   1
  -9  -4  -3 5.00573 4.88925   2
   9   4   3 5.90327 4.69386   2
   9   4   3 10.7300 21.2582   1
   9   4   3 7.89355 6.52144   3
 -10  -4  -3 14.0702 4.79386   2
  10   4   3 13.3223 6.29232   3
   8  -5  -3 12.5212 6.13672   3
   7  -5  -3 29.0618 6.49058   3
   7  -5  -3 23.5470 6.57321   2
  -7   5   3 23.3973 6.03088   2
  -7   5   3 37.7626 33.8642   1
   6  -5  -3 161.896 10.9055   2
  -6   5   3 169.153 12.4950   2
  -6   5   3 167.160 28.5809   1
  -6   5   3 174.684 11.7168   2
   5  -5  -3 402.063 16.3835   2
   5  -5  -3 397.793 16.3596   3
  -5   5   3 387.152 16.6404   2
  -5   5   3 405.689 16.9806   2
  -5   5   3 350.291 35.5720   1
   4  -5  -3 279.798 12.6964   3
   4  -5  -3 301.076 13.0893   2
  -4   5   3 284.442 13.0028   2
  -4   5   3 272.306 14.9268   3
  -4   5   3 278.160 30.4511   1
  -4   5   3 289.792 13.2209   2
   3  -5  -3 7.87758 3.55285   3
   3  -5  -3 11.4708 3.86990   2
   3  -5  -3 10.4171 3.92502   2
  -3   5   3 9.70648 6.47345   2
  -3   5   3 6.69132 6.63934   1
  -3   5   3 7.76918 3.76623   3
  -3   5   3 7.29511 7.71069   1
  -3   5   3 7.78565 3.67746   2
   2  -5  -3 612.171 17.6863   3
   2  -5  -3 613.952 17.8903   2
   2  -5  -3 630.897 18.3477   2
  -2   5   3 625.594 37.8427   1
  -2   5   3 628.849 18.2547   2
  -2   5   3 626.656 38.3914   1
  -2   5   3 602.749 17.3477   3
  -2   5   3 618.332 17.9684   2
   1  -5  -3 136.278 7.23347   2
   1  -5  -3 132.434 7.10690   3
   1  -5  -3 135.631 7.11412   2
  -1   5   3 130.481 6.91662   3
  -1   5   3 145.040 16.5868   1
  -1   5   3 139.784 7.18867   2
  -1   5   3 129.429 7.13494   2
  -1   5   3 138.202 16.7134   1
   0  -5  -3 3.39138 2.42421   2
   0  -5  -3 3.97983 2.60748   3
   0  -5  -3 2.05906 2.46861   2
   0   5   3 3.68950 2.82410   2
   0   5   3 6.51203 2.55284   3
   0   5   3 0.20298 3.20631   1
  -1  -5  -3 122.703 13.2708   1
  -1  -5  -3 110.192 5.88254   2
  -1  -5  -3 121.948 6.13558   2
  -1  -5  -3 113.458 6.03079   3
   1   5   3 121.016 6.11703   2
   1   5   3 119.202 6.20228   2
   1   5   3 123.769 6.06842   3
   1   5   3 119.718 13.6376   1
  -2  -5  -3 1613.88 33.9576   2
  -2  -5  -3 1659.40 56.0063   1
  -2  -5  -3 1535.93 33.5889   3
  -2  -5  -3 1595.11 34.3925   2
   2   5   3 1562.59 55.0590   1
   2   5   3 1560.62 33.8516   2
   2   5   3 1594.95 33.8566   2
   2   5   3 1586.23 33.6945   3
  -3  -5  -3 60.3014 5.57900   2
  -3  -5  -3 47.5483 4.40611   2
  -3  -5  -3 46.5693 9.03751   1
   3   5   3 51.5432 4.52983   2
   3   5   3 42.6413 4.23478   2
   3   5   3 49.0925 4.56734   3
   3   5   3 37.8952 9.75408   1
  -4  -5  -3 111.005 14.0439   1
  -4  -5  -3 115.516 6.51166   2
  -4  -5  -3 127.906 7.05844   2
   4   5   3 125.223 6.63751   3
   4   5   3 111.982 15.0716   1
   4   5   3 122.960 7.02351   2
   4   5   3 116.848 6.72020   2
  -5  -5  -3 1.03368 2.77414   2
  -5  -5  -3 -6.8860 3.87846   1
  -5  -5  -3 -0.6907 2.61873   2
   5   5   3 2.69270 2.73374   3
   5   5   3 1.53751 2.60532   2
   5   5   3 2.44253 2.88684   2
   5   5   3 -0.1446 5.06936   1
  -6  -5  -3 89.0314 15.2158   1
  -6  -5  -3 113.427 8.21399   2
  -6  -5  -3 94.3500 7.06987   2
   6   5   3 108.825 7.69716   2
   6   5   3 110.454 8.17860   3
   6   5   3 138.387 18.7391   1
   6   5   3 104.678 7.47825   2
  -7  -5  -3 6.06962 9.12428   1
  -7  -5  -3 16.0138 4.37182   2
  -7  -5  -3 16.7905 5.23454   2
   7   5   3 6.86401 4.62874   3
   7   5   3 10.3022 3.89882   2
   7   5   3 -5.9873 7.24212   1
   7   5   3 8.97161 4.15323   2
  -8  -5  -3 47.0760 6.90606   2
  -8  -5  -3 61.9866 6.36084   2
   8   5   3 47.1853 7.13916   3
   8   5   3 50.6001 7.35646   2
  -9  -5  -3 8.15784 16.7225   1
  -9  -5  -3 4.82317 3.42946   2
   9   5   3 2.49481 3.93891   2
   9   5   3 -29.679 16.4384   1
   9   5   3 4.77319 9.60507   3
 -10  -5  -3 -3.7724 3.81075   2
 -10  -5  -3 -7.7530 3.99565   2
  10   5   3 -8.4144 4.51848   2
  10   5   3 1.00618 5.68550   3
   8  -6  -3 2.91709 4.91767   2
   8  -6  -3 13.8887 5.89651   3
  -8   6   3 0.97242 5.80796   2
   7  -6  -3 14.3899 6.06647   3
  -7   6   3 12.5796 5.84983   2
   6  -6  -3 97.3162 8.73133   2
   6  -6  -3 96.1701 10.0889   3
  -6   6   3 112.111 10.3168   2
  -6   6   3 96.4269 8.98951   2
  -6   6   3 103.037 24.8175   1
   5  -6  -3 72.9930 8.72887   3
   5  -6  -3 55.6143 7.16935   2
  -5   6   3 69.3557 8.87307   2
  -5   6   3 72.2448 7.70292   2
  -5   6   3 77.0321 19.9211   1
   4  -6  -3 166.522 10.4364   2
   4  -6  -3 175.845 10.9397   3
   4  -6  -3 174.700 10.8006   2
  -4   6   3 179.061 10.7142   2
  -4   6   3 140.443 22.9164   1
  -4   6   3 201.166 27.9308   1
  -4   6   3 174.669 10.6448   3
  -4   6   3 175.347 11.0319   2
   3  -6  -3 5.91574 3.58052   2
   3  -6  -3 1.84820 3.44880   3
   3  -6  -3 -2.4157 3.41825   2
  -3   6   3 -1.9543 3.20721   2
  -3   6   3 8.87285 7.97982   1
  -3   6   3 1.48263 3.78406   2
  -3   6   3 -10.016 6.11554   1
  -3   6   3 1.85862 3.42855   3
   2  -6  -3 53.6016 5.84048   2
   2  -6  -3 42.3017 5.66104   2
   2  -6  -3 39.6459 5.37422   3
  -2   6   3 38.8312 5.50241   2
  -2   6   3 45.6753 5.53166   2
  -2   6   3 37.1897 5.16932   3
  -2   6   3 26.4611 10.6393   1
  -2   6   3 63.4228 15.0583   1
   1  -6  -3 66.8286 6.10259   3
   1  -6  -3 55.6129 5.34057   2
  -1   6   3 67.5461 5.82774   2
  -1   6   3 54.4096 12.8821   1
  -1   6   3 73.8017 13.3501   1
  -1   6   3 66.4997 5.58655   3
  -1   6   3 62.1610 5.59216   2
   0  -6  -3 106.313 6.60542   3
   0  -6  -3 117.215 6.57226   2
   0  -6  -3 112.350 6.58841   2
   0   6   3 120.859 15.0248   1
   0   6   3 113.469 6.53044   3
   0   6   3 103.507 14.6341   1
   0   6   3 111.021 6.90856   2
  -1  -6  -3 3.88495 2.56186   2
  -1  -6  -3 5.40797 3.01078   3
  -1  -6  -3 8.18065 4.94846   1
   1   6   3 3.04932 2.48197   2
   1   6   3 1.91197 2.23723   3
   1   6   3 12.9244 5.49911   1
  -2  -6  -3 8.13933 2.84555   3
  -2  -6  -3 8.29342 2.92357   2
   2   6   3 9.71498 2.82358   2
   2   6   3 4.99310 4.24234   1
   2   6   3 7.04664 2.89524   2
   2   6   3 8.53187 2.76229   3
   3   6   3 15.3781 3.43667   2
   3   6   3 17.6247 3.52133   3
   3   6   3 19.6293 3.38324   2
   3   6   3 7.47295 4.62048   1
  -4  -6  -3 397.283 12.8895   2
   4   6   3 409.001 13.2493   3
   4   6   3 400.042 28.2959   1
   4   6   3 403.364 12.9074   2
   4   6   3 377.163 12.8856   2
  -5  -6  -3 34.7953 4.71624   2
   5   6   3 26.3333 4.39264   3
   5   6   3 40.4164 11.1422   1
   5   6   3 33.5358 4.81927   2
   5   6   3 30.2259 4.58660   2
  -6  -6  -3 4.04123 3.33811   2
  -6  -6  -3 -5.7132 7.19667   1
   6   6   3 3.81538 3.31245   2
   6   6   3 -4.6763 2.69231   3
   6   6   3 6.78761 3.49770   2
   6   6   3 1.76595 6.41631   1
   6   6   3 3.31009 3.91191   3
  -7  -6  -3 5.87181 7.18100   1
  -7  -6  -3 4.56093 3.66978   2
   7   6   3 14.6127 9.43613   1
   7   6   3 16.8530 4.11702   2
   7   6   3 17.4559 4.96792   3
   7   6   3 6.79301 4.09639   2
  -8  -6  -3 20.5847 14.6150   1
  -8  -6  -3 36.0053 5.35492   2
  -8  -6  -3 38.0892 6.21540   2
   8   6   3 41.5499 7.15152   3
   8   6   3 21.8129 12.1350   1
   8   6   3 26.4728 5.34401   2
  -9  -6  -3 3.76756 4.45124   2
  -9  -6  -3 7.20371 3.40211   2
   9   6   3 7.41486 5.54927   3
   9   6   3 2.25862 4.38453   2
 -10  -6  -3 -4.6667 3.73437   2
 -10  -6  -3 0.75704 4.90125   2
  10   6   3 -11.229 4.98287   3
  10   6   3 -5.8032 4.34655   2
   7  -7  -3 6.34453 4.98423   3
   7  -7  -3 5.88825 5.11601   2
  -7   7   3 -1.5739 5.64841   2
   6  -7  -3 -4.4441 4.01875   3
   6  -7  -3 9.90706 4.65305   2
   6  -7  -3 1.29102 5.12095   2
  -6   7   3 -0.5776 5.25691   2
   5  -7  -3 53.4081 7.11098   2
   5  -7  -3 40.1376 6.98207   2
   5  -7  -3 50.7494 7.88327   3
  -5   7   3 58.3085 10.2680   2
  -5   7   3 17.8527 17.1201   1
  -5   7   3 32.9420 19.1312   1
   4  -7  -3 212.601 11.9799   2
   4  -7  -3 204.578 12.1219   2
   4  -7  -3 202.197 12.0217   3
  -4   7   3 237.286 31.2797   1
  -4   7   3 168.443 27.5933   1
  -4   7   3 197.276 12.3847   2
   3  -7  -3 10.7836 4.56997   3
   3  -7  -3 15.5218 4.77932   2
   3  -7  -3 19.9131 4.58780   2
  -3   7   3 13.4668 4.28301   3
  -3   7   3 14.7976 4.57614   2
  -3   7   3 2.76395 10.0642   1
  -3   7   3 17.7022 5.32339   2
   2  -7  -3 179.638 9.90056   2
   2  -7  -3 163.991 9.67238   3
   2  -7  -3 183.432 9.49889   2
  -2   7   3 167.222 10.0764   2
  -2   7   3 131.026 28.2781   1
  -2   7   3 174.740 9.96215   2
  -2   7   3 162.982 9.35040   3
  -2   7   3 151.866 22.3406   1
   1  -7  -3 194.212 9.94956   3
   1  -7  -3 193.531 9.43204   2
   1  -7  -3 205.103 9.76809   2
  -1   7   3 212.146 23.0627   1
  -1   7   3 187.406 9.36105   3
  -1   7   3 194.621 22.6788   1
  -1   7   3 189.913 9.95772   2
  -1   7   3 199.624 9.77957   2
   0  -7  -3 324.593 11.7154   2
   0  -7  -3 306.622 12.0535   3
   0  -7  -3 309.582 11.5630   2
   0   7   3 315.199 11.6886   2
   0   7   3 298.415 11.6108   3
   0   7   3 319.993 26.7223   1
   0   7   3 308.638 25.8607   1
   0   7   3 312.518 11.7071   2
  -1  -7  -3 170.446 8.32433   2
  -1  -7  -3 164.722 8.48860   3
   1   7   3 155.286 8.19638   3
   1   7   3 194.098 19.0318   1
   1   7   3 161.163 8.08506   2
  -2  -7  -3 18.1804 3.74671   3
  -2  -7  -3 19.8817 3.11592   2
  -2  -7  -3 12.5256 3.30150   2
  -2  -7  -3 7.97036 5.16545   1
   2   7   3 9.30262 3.19138   3
   2   7   3 9.15625 2.85571   2
   2   7   3 16.6286 5.94322   1
  -3  -7  -3 561.691 15.6512   2
  -3  -7  -3 579.273 33.1811   1
  -3  -7  -3 541.587 15.5740   2
   3   7   3 519.518 15.6528   2
   3   7   3 549.324 16.4708   3
   3   7   3 570.692 16.0033   2
   3   7   3 543.631 32.9284   1
  -4  -7  -3 279.908 22.7680   1
  -4  -7  -3 273.945 10.3887   2
  -4  -7  -3 269.154 10.3102   2
   4   7   3 252.699 10.4168   2
   4   7   3 262.213 10.9340   3
   4   7   3 279.321 10.5906   2
   4   7   3 250.892 23.1396   1
  -5  -7  -3 4.65784 3.15001   2
  -5  -7  -3 4.68913 5.05051   1
  -5  -7  -3 8.07096 3.61767   2
   5   7   3 6.39962 3.15910   2
   5   7   3 11.6371 3.81451   3
   5   7   3 13.9290 7.57963   1
   5   7   3 2.49938 3.35092   2
  -6  -7  -3 -3.9316 6.33066   1
  -6  -7  -3 6.45875 3.75666   2
  -6  -7  -3 8.75717 3.14890   2
   6   7   3 8.23193 4.03533   2
   6   7   3 8.72735 4.17015   3
   6   7   3 -2.4965 6.94531   1
  -7  -7  -3 16.6950 9.02155   1
  -7  -7  -3 21.0712 4.80100   2
  -7  -7  -3 31.6382 4.72091   2
   7   7   3 25.3428 7.97564   2
   7   7   3 24.3863 5.25817   3
   7   7   3 23.9437 5.51415   3
   7   7   3 26.0480 10.5354   1
  -8  -7  -3 -5.1146 10.2557   1
  -8  -7  -3 -0.1081 3.42687   2
   8   7   3 -2.7420 2.89814   2
   8   7   3 8.20874 11.3111   1
   8   7   3 1.10482 4.55495   3
  -9  -7  -3 8.97859 4.96338   2
   9   7   3 25.6055 6.74898   3
   9   7   3 21.1335 5.29783   2
 -10  -7  -3 23.2565 6.43354   2
 -10  -7  -3 9.23194 6.40663   2
  10   7   3 22.3748 5.92427   2
  10   7   3 30.3078 7.56178   3
   6  -8  -3 3.74516 5.22652   3
   6  -8  -3 -2.5117 4.91817   2
  -6   8   3 4.52764 5.40983   2
   5  -8  -3 30.1658 6.49972   2
   5  -8  -3 44.9335 7.51984   3
  -5   8   3 19.5073 10.0427   2
   4  -8  -3 142.598 10.9768   3
   4  -8  -3 155.878 10.3886   2
   4  -8  -3 156.890 11.6198   2
  -4   8   3 160.996 11.4017   2
  -4   8   3 93.6900 23.5346   1
   3  -8  -3 7.32339 3.34456   2
   3  -8  -3 -0.3551 3.37634   2
   3  -8  -3 3.28179 4.19781   3
  -3   8   3 6.74621 4.27668   2
  -3   8   3 6.97049 12.1664   1
  -3   8   3 5.89781 4.43121   2
  -3   8   3 19.6772 13.4087   1
   2  -8  -3 19.5008 4.91788   2
   2  -8  -3 23.0501 4.61468   2
   2  -8  -3 25.9738 5.48453   3
  -2   8   3 22.1794 5.91935   2
  -2   8   3 29.4874 5.43402   3
  -2   8   3 13.9960 11.9563   1
  -2   8   3 21.3814 5.06586   2
  -2   8   3 30.7202 13.3310   1
   1  -8  -3 180.057 10.2579   3
   1  -8  -3 181.574 9.55896   2
   1  -8  -3 165.289 10.0246   2
  -1   8   3 187.482 23.1558   1
  -1   8   3 172.607 22.1623   1
  -1   8   3 198.233 10.2093   2
  -1   8   3 173.615 9.72499   2
  -1   8   3 191.135 15.1410   3
   0  -8  -3 32.6110 5.33133   3
   0  -8  -3 45.5126 5.86868   2
   0   8   3 45.3818 12.4199   1
   0   8   3 47.7231 5.68450   3
   0   8   3 47.1796 5.96889   2
   0   8   3 50.5852 12.1942   1
   0   8   3 43.1918 5.79623   2
  -1  -8  -3 352.934 13.5801   3
  -1  -8  -3 343.161 12.2730   2
  -1  -8  -3 357.609 12.8388   2
   1   8   3 318.595 27.5348   1
   1   8   3 352.769 13.2532   3
   1   8   3 367.197 28.3119   1
  -2  -8  -3 669.178 37.4212   1
  -2  -8  -3 619.465 17.8827   2
  -2  -8  -3 653.691 18.1748   2
  -2  -8  -3 654.150 19.4507   3
   2   8   3 640.910 18.1750   2
   2   8   3 639.162 37.6765   1
   2   8   3 646.302 18.3408   2
   2   8   3 651.881 19.3562   3
  -3  -8  -3 50.5489 5.41037   2
  -3  -8  -3 35.9340 8.91147   1
  -3  -8  -3 47.9393 5.11131   2
   3   8   3 56.1099 5.94062   3
   3   8   3 46.9999 10.5531   1
   3   8   3 52.5729 5.35145   2
   3   8   3 55.0353 5.45709   2
  -4  -8  -3 7.25665 3.20397   2
  -4  -8  -3 -0.0381 2.80213   2
  -4  -8  -3 -5.9388 5.35847   1
   4   8   3 4.79032 3.26112   2
   4   8   3 6.59685 3.33974   3
   4   8   3 1.95078 5.79657   1
   4   8   3 5.71195 3.12019   2
  -5  -8  -3 371.714 29.1446   1
  -5  -8  -3 350.680 12.6097   2
  -5  -8  -3 334.476 12.3764   2
   5   8   3 325.608 27.3710   1
   5   8   3 298.806 15.3236   3
   5   8   3 348.529 12.9512   2
  -6  -8  -3 32.3810 5.31755   2
  -6  -8  -3 17.2330 9.27714   1
  -6  -8  -3 31.6826 5.14241   2
   6   8   3 25.9067 9.76384   1
   6   8   3 24.9626 4.85743   2
   6   8   3 27.3818 4.90961   2
   6   8   3 26.1169 5.13948   3
  -7  -8  -3 12.2164 3.71531   2
  -7  -8  -3 14.1076 4.35166   2
  -7  -8  -3 18.9702 10.6133   1
   7   8   3 2.25956 3.15098   2
   7   8   3 7.03303 4.70656   3
   7   8   3 19.2116 10.8099   1
  -8  -8  -3 21.7204 5.14848   2
  -8  -8  -3 18.4593 12.6193   1
  -8  -8  -3 24.6498 4.91820   2
   8   8   3 18.5686 4.58651   2
   8   8   3 38.5130 14.5681   1
   8   8   3 20.9631 9.78913   3
  -9  -8  -3 22.6567 5.56126   2
  -9  -8  -3 28.7204 5.23399   2
   9   8   3 40.8076 7.80910   3
   9   8   3 28.9238 5.52685   2
 -10  -8  -3 -9.1728 4.30646   2
  10   8   3 5.68969 6.32542   3
   6  -9  -3 -7.4765 4.75610   3
   5  -9  -3 -0.9120 4.66613   3
   5  -9  -3 -1.5696 4.07357   2
  -5   9   3 5.15068 8.65889   2
   4  -9  -3 11.0567 4.81852   2
   4  -9  -3 17.5592 6.02077   3
   4  -9  -3 19.8077 5.29047   2
  -4   9   3 13.4679 6.05438   2
   3  -9  -3 44.6222 7.35051   2
   3  -9  -3 42.4726 7.15195   3
   3  -9  -3 46.5392 6.88946   2
  -3   9   3 28.8241 16.3413   1
  -3   9   3 39.7052 6.72532   2
   2  -9  -3 41.6035 6.25221   2
   2  -9  -3 43.0979 6.97245   3
   2  -9  -3 49.4492 6.62197   2
  -2   9   3 38.3827 6.65025   2
  -2   9   3 40.3863 14.8106   1
   1  -9  -3 2.95859 4.05498   3
   1  -9  -3 -2.1097 3.00061   2
  -1   9   3 8.88715 8.89772   1
  -1   9   3 2.02743 3.65478   2
  -1   9   3 0.38290 3.38482   2
  -1   9   3 5.48085 9.20390   1
   0  -9  -3 495.946 17.6415   3
   0  -9  -3 506.983 16.9231   2
   0   9   3 463.167 19.2831   2
   0   9   3 440.984 34.1277   1
   0   9   3 401.263 52.2167   1
   0   9   3 488.792 17.2118   3
   0   9   3 477.974 16.6154   2
  -1  -9  -3 -5.5773 3.13673   3
  -1  -9  -3 0.86109 3.25288   2
  -1  -9  -3 4.54389 3.03103   2
   1   9   3 14.2602 8.71672   1
   1   9   3 -2.5153 2.63806   3
   1   9   3 -0.2561 2.82647   2
  -2  -9  -3 65.7679 5.93667   2
  -2  -9  -3 55.8384 6.64857   3
  -2  -9  -3 71.6097 6.30437   2
   2   9   3 49.9828 6.00434   2
   2   9   3 50.8177 11.6261   1
  -3  -9  -3 208.603 9.37250   2
  -3  -9  -3 219.084 9.70600   2
  -3  -9  -3 211.260 21.1388   1
   3   9   3 175.211 29.1295   1
   3   9   3 211.051 9.38968   2
   3   9   3 196.357 12.3802   3
  -4  -9  -3 289.136 26.5233   1
  -4  -9  -3 331.335 11.9875   2
  -4  -9  -3 315.414 12.0675   2
   4   9   3 299.034 13.1170   3
   4   9   3 318.961 12.1364   2
   4   9   3 317.063 12.1883   2
   4   9   3 326.354 26.2593   1
  -5  -9  -3 97.6218 6.94931   2
  -5  -9  -3 90.1614 6.94302   2
  -5  -9  -3 125.058 16.7095   1
   5   9   3 84.9325 7.12026   2
   5   9   3 88.5156 11.1065   2
   5   9   3 78.6533 14.6716   1
   5   9   3 79.2892 7.80419   3
  -6  -9  -3 8.91436 3.36877   2
  -6  -9  -3 6.34609 3.51873   2
  -6  -9  -3 -1.6438 7.48020   1
   6   9   3 2.27246 3.33830   2
   6   9   3 -4.4849 8.26935   1
  -7  -9  -3 4.71485 3.04463   2
  -7  -9  -3 -1.5587 8.86886   1
   7   9   3 1.06778 3.17182   2
   7   9   3 7.21048 9.84168   1
  -8  -9  -3 27.5761 4.90393   2
  -8  -9  -3 35.6819 5.72285   2
  -8  -9  -3 12.4475 16.6821   1
   8   9   3 28.2854 5.52410   2
   8   9   3 31.1497 6.82521   3
  -9  -9  -3 2.39305 3.35098   2
  -9  -9  -3 8.28106 4.55927   2
   9   9   3 10.1168 4.80688   2
   9   9   3 9.80533 5.72890   3
 -10  -9  -3 16.3350 4.98512   2
  10   9   3 3.37448 6.28975   3
   5 -10  -3 -1.0948 4.90003   3
   5 -10  -3 4.06201 4.87801   2
   4 -10  -3 1.16886 4.45822   3
   4 -10  -3 8.40019 4.81975   2
   4 -10  -3 14.6358 4.96076   2
  -4  10   3 14.9502 5.22392   2
   3 -10  -3 50.1776 7.45912   3
   3 -10  -3 59.5943 7.78148   2
   3 -10  -3 56.6039 6.83872   2
  -3  10   3 53.7854 8.21060   2
   2 -10  -3 -6.3079 3.00415   2
   2 -10  -3 5.94270 4.25598   3
   2 -10  -3 -5.9447 2.99833   2
  -2  10   3 16.4240 13.9572   1
  -2  10   3 0.71414 3.42972   2
   1 -10  -3 107.701 9.13859   2
   1 -10  -3 121.101 11.4780   3
  -1  10   3 85.0639 18.5509   1
  -1  10   3 112.170 9.12728   2
   0 -10  -3 86.1075 7.51049   2
   0 -10  -3 64.2196 6.72244   2
   0 -10  -3 84.3369 8.60868   3
   0  10   3 76.6729 7.58508   2
  -1 -10  -3 6.94306 3.80319   2
  -1 -10  -3 0.70935 2.86558   2
  -1 -10  -3 0.77255 3.66248   3
   1  10   3 -6.6840 6.27699   1
   1  10   3 3.76294 3.48425   2
  -2 -10  -3 242.738 12.4434   3
  -2 -10  -3 244.454 10.9300   2
  -2 -10  -3 239.889 10.9193   2
   2  10   3 226.773 24.2926   1
   2  10   3 225.259 25.0953   1
   2  10   3 245.714 11.1160   2
  -3 -10  -3 13.0885 3.66203   2
  -3 -10  -3 3.77269 3.29677   2
   3  10   3 6.53196 3.40418   2
   3  10   3 -8.7802 7.99948   1
  -4 -10  -3 8.07136 3.47918   2
  -4 -10  -3 11.1188 7.37035   1
  -4 -10  -3 8.67086 3.33748   2
   4  10   3 6.96534 3.56916   2
   4  10   3 5.50241 7.39878   1
  -5 -10  -3 78.4003 14.8125   1
  -5 -10  -3 74.4582 6.18079   2
  -5 -10  -3 77.4703 6.69725   2
   5  10   3 58.9212 14.0555   1
   5  10   3 71.2446 6.91248   2
  -6 -10  -3 15.9207 9.54171   1
   6  10   3 19.7394 10.4617   1
  -7 -10  -3 -7.5920 10.9118   1
  -7 -10  -3 3.20047 3.25596   2
  -7 -10  -3 4.29540 3.47000   2
   7  10   3 12.6730 11.8758   1
   7  10   3 5.47408 3.99220   2
  -8 -10  -3 9.96851 4.01097   2
  -8 -10  -3 12.7998 5.05381   2
   8  10   3 5.75530 4.26434   2
   8  10   3 12.4081 6.11474   3
  -9 -10  -3 14.1650 4.83019   2
   9  10   3 21.4935 6.81045   3
 -10 -10  -3 5.70967 4.39886   2
  10  10   3 18.9566 7.89727   3
   4 -11  -3 6.79768 5.39518   3
   4 -11  -3 -10.950 6.00084   2
   3 -11  -3 0.10342 4.92667   3
   3 -11  -3 0.36000 4.17336   2
   3 -11  -3 8.33427 5.33573   2
  -3  11   3 13.7659 4.75227   2
   2 -11  -3 0.79542 3.52005   2
   2 -11  -3 0.95994 4.14678   3
  -2  11   3 -7.2259 3.31407   2
   1 -11  -3 31.0647 6.59631   3
   1 -11  -3 23.3386 4.84000   2
   1 -11  -3 28.9364 6.11128   2
  -1  11   3 28.0239 5.25225   2
   0 -11  -3 -1.3725 3.60746   2
   0 -11  -3 -1.5218 3.95443   3
   0  11   3 6.58560 3.50831   2
   0  11   3 21.2090 14.8311   1
  -1 -11  -3 4.19842 6.04181   3
  -1 -11  -3 6.49891 3.51107   2
   1  11   3 9.35746 3.85360   2
  -2 -11  -3 52.2283 10.0942   2
  -2 -11  -3 44.2063 5.42825   2
  -2 -11  -3 39.0068 9.01076   3
   2  11   3 38.9704 5.62673   2
   2  11   3 24.4649 11.7066   1
  -3 -11  -3 28.8092 6.55563   2
  -3 -11  -3 39.6018 5.34048   2
   3  11   3 28.6622 12.1171   1
   3  11   3 49.7546 5.74134   2
  -4 -11  -3 0.39217 2.55502   2
   4  11   3 3.76043 3.37942   2
   4  11   3 4.17807 10.1403   1
  -5 -11  -3 51.5268 12.5108   1
  -5 -11  -3 65.1564 6.35960   2
   5  11   3 27.3775 14.7666   1
   5  11   3 55.8472 6.64985   2
  -6 -11  -3 10.0600 3.71073   2
  -6 -11  -3 21.2370 10.8343   1
   6  11   3 25.1358 11.8789   1
   6  11   3 8.62278 5.79925   2
  -7 -11  -3 -3.6443 4.09638   2
  -7 -11  -3 6.77215 3.54146   2
   7  11   3 6.48477 6.77409   2
  -8 -11  -3 -1.5153 3.55471   2
  -8 -11  -3 6.04168 3.47402   2
   8  11   3 1.98952 4.40061   2
   8  11   3 2.50502 5.36425   3
  -9 -11  -3 30.2740 4.94949   2
   9  11   3 14.8419 7.43449   3
   2 -12  -3 14.0897 5.24719   2
   2 -12  -3 14.7798 6.04263   3
   2 -12  -3 3.32547 4.40922   2
   1 -12  -3 10.4020 4.64732   2
   1 -12  -3 5.99385 3.85633   2
   1 -12  -3 6.66360 5.11269   3
  -1  12   3 7.18373 4.65527   2
   0 -12  -3 4.53614 4.03264   2
   0 -12  -3 13.3792 5.29435   3
   0 -12  -3 10.3498 3.79222   2
   0  12   3 4.62631 3.97582   2
  -1 -12  -3 25.7756 4.53259   2
  -1 -12  -3 32.2178 6.58916   3
  -1 -12  -3 26.3560 4.97130   2
   1  12   3 30.0965 5.99017   2
  -2 -12  -3 2.19300 3.27040   2
  -2 -12  -3 6.38894 4.66814   3
  -2 -12  -3 3.49811 4.60697   2
   2  12   3 -7.8420 16.2066   1
   2  12   3 1.78035 3.83288   2
  -3 -12  -3 2.78948 3.23217   2
   3  12   3 0.31448 3.92986   2
   3  12   3 18.5374 15.6002   1
  -4 -12  -3 14.0298 3.92708   2
  -4 -12  -3 24.1827 6.44866   2
   4  12   3 27.0408 7.42607   2
   4  12   3 -2.0328 22.9191   1
  -5 -12  -3 15.9289 3.67241   2
  -5 -12  -3 14.9626 4.00567   2
   5  12   3 -2.3996 25.3177   1
   5  12   3 3.14180 4.10030   2
  -6 -12  -3 -1.3980 2.95353   2
  -6 -12  -3 6.49486 3.17971   2
   6  12   3 -0.5188 3.67485   2
  -7 -12  -3 112.630 7.68575   2
  -7 -12  -3 109.323 8.17654   2
   7  12   3 135.582 12.8968   2
  -8 -12  -3 -3.5007 3.05313   2
  -8 -12  -3 2.24168 3.34063   2
   8  12   3 0.40003 5.47517   3
   1 -13  -3 4.73887 5.03753   3
   1 -13  -3 3.97161 4.43325   2
   0 -13  -3 -2.4133 3.78312   2
   0 -13  -3 -0.3176 4.50718   3
  -1 -13  -3 8.37339 4.26406   2
  -1 -13  -3 -2.3242 4.17197   2
  -1 -13  -3 3.96361 5.05471   3
  -2 -13  -3 8.01066 4.13828   2
  -2 -13  -3 19.7603 6.35936   3
  -2 -13  -3 16.2572 4.06837   2
   2  13   3 18.7303 5.81649   2
  -3 -13  -3 8.65432 3.83234   2
  -3 -13  -3 6.80249 3.61186   2
   3  13   3 17.6167 4.78562   2
  -4 -13  -3 21.5713 4.45969   2
  -4 -13  -3 28.9858 4.47587   2
   4  13   3 23.1735 5.00164   2
  -5 -13  -3 70.6581 6.12239   2
  -5 -13  -3 55.4649 6.15923   2
  -6 -13  -3 141.638 8.45924   2
  -6 -13  -3 132.799 8.26940   2
  -7 -13  -3 12.8036 3.79310   2
  -2 -14  -3 7.73121 3.66011   2
  -2 -14  -3 -1.1708 3.72015   2
  -3 -14  -3 21.9183 4.07651   2
  -5 -14  -3 4.59893 3.55574   2
   6  11  -4 2.92106 5.09709   3
   7  10  -4 16.1795 6.56221   3
   6  10  -4 -6.8930 4.35667   3
   1 -10   4 -1.6039 2.09220   2
   2 -10   4 9.06252 3.55570   3
   2 -10   4 4.78431 3.39585   2
   8   9  -4 5.51544 6.08639   3
   7   9  -4 -1.9106 4.72831   3
   6   9  -4 11.7271 5.41310   3
   5   9  -4 9.07059 7.56332   3
   0   9  -4 15.3268 7.17706   1
   0  -9   4 9.55078 1.49876   2
  -1   9  -4 -5.7319 10.0230   1
  -1   9  -4 -0.9014 3.10795   2
   1  -9   4 -2.5565 2.09755   2
   1  -9   4 -1.6309 2.09001   2
   1  -9   4 0.32045 2.70176   3
  -2   9  -4 22.2120 4.69131   2
   2  -9   4 16.9556 3.70806   2
   2  -9   4 24.2598 4.40190   2
   2  -9   4 20.0832 4.38889   3
   3  -9   4 8.93968 3.60318   3
   3  -9   4 13.0383 4.33704   2
   3  -9   4 12.9086 3.98577   2
   8   8  -4 4.33677 6.00693   3
   7   8  -4 5.67803 5.14102   3
   5   8  -4 17.4779 5.20357   3
   3   8  -4 62.9437 6.23727   3
   2   8  -4 1.23046 3.08967   3
   1   8  -4 13.2161 3.39893   3
   0   8  -4 5.89584 3.15919   3
   0   8  -4 4.52721 2.21340   2
   0   8  -4 3.74140 5.13873   1
   0  -8   4 5.50734 1.81973   2
   0  -8   4 7.22082 1.90402   2
  -1   8  -4 14.3677 5.96900   3
  -1   8  -4 17.4175 10.1894   1
  -1   8  -4 12.0850 3.13901   2
   1  -8   4 10.1949 2.94333   2
   1  -8   4 10.5533 4.23130   2
   1  -8   4 10.7943 3.71200   3
  -2   8  -4 31.8993 4.62053   3
  -2   8  -4 28.7767 6.69635   2
   2  -8   4 20.5608 5.71324   2
   2  -8   4 37.6063 5.22018   3
  -3   8  -4 23.2063 5.73474   2
   3  -8   4 15.9077 3.78602   3
   4  -8   4 11.3310 5.48375   3
   4  -8   4 13.9295 4.78571   2
   5  -8   4 17.9995 4.35139   3
   9   7  -4 59.7447 9.89039   3
  -9  -7   4 69.8497 3.94225   2
  -9  -7   4 71.1773 4.17657   2
   8   7  -4 4.13428 5.71579   3
   7   7  -4 12.1388 5.61071   3
   6   7  -4 -0.9559 3.84301   3
   5   7  -4 176.658 11.0458   3
   5   7  -4 178.502 12.2866   3
   3   7  -4 34.0636 4.90277   3
   2   7  -4 155.916 8.41535   3
   1   7  -4 22.8962 3.93906   3
   0   7  -4 -1.5596 4.46469   1
   0   7  -4 -1.5573 2.22848   3
   0   7  -4 2.64506 1.94878   2
   0   7  -4 4.27420 4.45246   1
   0   7  -4 0.69049 1.71814   2
   0  -7   4 -0.0808 1.58606   2
   0  -7   4 -1.0022 1.49522   2
  -1   7  -4 38.3304 4.90298   3
   1  -7   4 38.1891 4.76461   3
  -2   7  -4 21.1101 4.07424   3
  -2   7  -4 15.8109 4.07713   2
   2  -7   4 18.5690 3.97019   3
   2  -7   4 19.9360 4.04710   2
   2  -7   4 14.3050 3.91041   2
  -3   7  -4 6.19211 6.36426   3
  -3   7  -4 3.08740 3.64417   2
   3  -7   4 4.28387 3.67431   2
   3  -7   4 15.8135 4.05823   2
   3  -7   4 7.87271 3.12667   3
  -4   7  -4 1.28134 4.08152   2
   4  -7   4 2.47485 3.81638   2
   4  -7   4 5.98413 3.45977   2
   4  -7   4 6.83229 2.97617   3
  -5   7  -4 17.2158 5.67082   2
   5  -7   4 11.4485 3.73385   3
   5  -7   4 8.32084 5.40331   2
   5  -7   4 5.64751 4.47132   2
   6  -7   4 9.02112 3.86710   3
  10   6  -4 -3.8897 6.98911   3
 -10  -6   4 -2.4028 4.39037   2
 -10  -6   4 3.49267 3.47259   2
   9   6  -4 17.7292 7.58575   3
  -9  -6   4 26.9633 3.91373   2
  -9  -6   4 24.0647 4.18701   2
   8   6  -4 -2.0685 5.13203   3
  -8  -6   4 6.62581 2.30597   2
  -8  -6   4 -3.7750 10.2981   1
  -8  -6   4 -0.8348 2.22885   2
   7   6  -4 63.1556 9.82603   3
  -7  -6   4 43.0416 8.21240   1
  -7  -6   4 62.9234 3.56520   2
  -7  -6   4 61.9231 3.38789   2
   6   6  -4 2.80745 4.56317   3
   5   6  -4 28.6245 5.94068   3
   5   6  -4 27.2504 5.60517   3
   4   6  -4 204.769 9.98332   3
   4   6  -4 210.091 10.4467   3
   3   6  -4 115.595 7.19964   3
   2   6  -4 191.292 8.78845   3
   1   6  -4 163.825 7.86706   3
   0   6  -4 54.6204 3.96293   2
   0   6  -4 48.4702 4.76597   3
   0   6  -4 60.5226 8.83582   1
  -1   6  -4 28.8259 3.86705   2
  -1   6  -4 33.2577 4.12980   2
  -1   6  -4 26.3296 7.99504   1
  -1   6  -4 25.6918 3.78560   3
   1  -6   4 28.6147 3.80800   2
   1  -6   4 6.21010 10.1948   1
   1  -6   4 22.5166 3.64081   3
   1  -6   4 33.2715 4.19693   2
  -2   6  -4 64.7069 5.62656   3
  -2   6  -4 61.3782 6.06841   2
  -2   6  -4 51.6091 10.7066   1
   2  -6   4 53.6640 5.83589   2
   2  -6   4 54.5212 5.21387   3
   2  -6   4 51.8458 5.76047   2
   2  -6   4 52.9899 12.4082   1
  -3   6  -4 38.6822 4.90080   3
  -3   6  -4 48.8693 6.07965   2
   3  -6   4 27.1316 4.81132   2
   3  -6   4 39.2368 4.96913   3
   3  -6   4 28.0259 4.77046   2
  -4   6  -4 4.06734 3.60099   2
  -4   6  -4 -3.7035 3.04554   3
   4  -6   4 6.08714 2.99256   3
   4  -6   4 2.51389 3.32791   2
   4  -6   4 -1.4678 3.43606   2
  -5   6  -4 6.28991 4.51674   2
   5  -6   4 4.97187 4.55044   2
   5  -6   4 3.57596 2.98106   3
  -6   6  -4 9.82571 4.78521   2
   6  -6   4 11.8223 5.36843   2
   6  -6   4 5.85713 4.61700   2
  10   5  -4 13.6045 13.3270   3
 -10  -5   4 7.27249 3.67914   2
   9   5  -4 1.66977 6.43491   3
  -9  -5   4 6.67679 3.74960   2
  -9  -5   4 6.43988 2.98832   2
   8   5  -4 85.4467 10.4967   3
  -8  -5   4 98.9227 6.37969   2
  -8  -5   4 90.4929 6.60592   2
  -8  -5   4 80.5157 15.9995   1
   7   5  -4 66.9930 8.87215   3
  -7  -5   4 76.8373 5.44454   2
  -7  -5   4 78.1555 13.3721   1
  -7  -5   4 72.0251 5.10781   2
   6   5  -4 35.7010 6.37500   3
   6   5  -4 27.0073 5.06903   2
  -6  -5   4 18.7825 6.37979   1
  -6  -5   4 25.8112 6.75507   1
  -6  -5   4 37.3132 3.20434   2
  -6  -5   4 31.6137 3.01758   2
   5   5  -4 645.775 14.4948   2
   5   5  -4 728.835 14.7677   2
   5   5  -4 739.251 21.6747   3
   4   5  -4 297.297 11.8611   3
   4   5  -4 309.637 12.0059   3
   3   5  -4 1.39690 2.41392   3
   2   5  -4 15.4266 3.37331   3
   1   5  -4 9.40162 2.56500   3
   1   5  -4 11.0247 1.05188   2
   0   5  -4 86.5530 5.19981   3
   0   5  -4 95.1992 9.86359   1
   0   5  -4 83.2632 4.33875   2
   0   5  -4 94.1036 4.53094   2
   0  -5   4 83.7793 9.13776   1
   0  -5   4 98.9548 4.48853   2
   0  -5   4 89.7825 4.38069   2
  -1   5  -4 81.5005 5.20721   2
  -1   5  -4 77.5996 5.13630   2
  -1   5  -4 79.9074 11.8737   1
  -1   5  -4 73.6552 5.10101   3
   1  -5   4 76.1892 11.6999   1
   1  -5   4 64.8825 6.36966   3
   1  -5   4 87.0110 5.33878   2
   1  -5   4 80.2835 5.27803   2
  -2   5  -4 38.5222 9.80334   1
  -2   5  -4 36.9946 4.33287   3
  -2   5  -4 34.7678 4.61377   2
   2  -5   4 34.8325 4.64923   2
   2  -5   4 37.3774 9.71727   1
   2  -5   4 36.4536 4.62320   2
   2  -5   4 33.7695 4.25716   3
  -3   5  -4 36.8863 5.82472   2
  -3   5  -4 37.6095 5.48337   2
  -3   5  -4 43.6632 5.48111   3
  -3   5  -4 29.6579 11.4012   1
   3  -5   4 40.6121 11.2050   1
   3  -5   4 34.0259 5.11035   2
   3  -5   4 41.1223 5.41661   2
   3  -5   4 39.4275 4.67919   3
  -4   5  -4 56.9314 6.29662   3
   4  -5   4 62.5301 6.03154   2
   4  -5   4 45.7043 6.66426   2
   4  -5   4 50.2434 5.29391   3
  -5   5  -4 21.1266 4.98072   2
  -5   5  -4 20.6280 5.27753   3
   5  -5   4 20.0974 6.33749   2
   5  -5   4 8.90565 4.35970   2
   5  -5   4 15.1065 3.67512   3
  -6   5  -4 -1.3458 4.50245   2
   6  -5   4 -4.4814 3.39397   2
   6  -5   4 1.80953 4.35356   2
   6  -5   4 3.89822 3.43331   3
  -7   5  -4 2.29976 5.92355   2
   7  -5   4 -0.4053 4.94323   2
   7  -5   4 -0.9045 3.37292   3
  10   4  -4 2.68319 9.63926   3
 -10  -4   4 -1.9912 3.89482   2
   9   4  -4 0.11682 6.01968   3
  -9  -4   4 3.33242 3.67876   2
  -9  -4   4 7.86084 5.18656   2
   8   4  -4 40.2450 7.96546   3
   8   4  -4 12.8579 11.4041   1
  -8  -4   4 26.3440 12.2631   1
  -8  -4   4 43.7958 5.60670   2
   7   4  -4 76.2958 9.58213   3
  -7  -4   4 79.0559 14.8656   1
  -7  -4   4 84.1900 6.28436   2
   6   4  -4 25.6590 5.67786   3
   6   4  -4 31.9236 3.93094   2
  -6  -4   4 50.4128 9.61002   1
  -6  -4   4 25.1998 3.53046   2
   5   4  -4 21.3046 5.21108   3
   5   4  -4 18.0405 2.66760   2
  -5  -4   4 16.3437 2.54698   2
  -5  -4   4 20.7640 5.18698   1
  -5  -4   4 16.0219 5.51172   1
   4   4  -4 175.290 5.15915   2
   4   4  -4 190.286 9.19468   3
  -4  -4   4 188.671 4.34429   2
  -4  -4   4 174.997 9.16909   1
  -4  -4   4 198.228 9.66713   1
   3   4  -4 31.3002 4.25427   3
   3   4  -4 33.1567 4.02122   3
   2   4  -4 76.0359 4.98608   3
   1   4  -4 26.8690 1.57746   2
   1   4  -4 26.5896 3.28495   3
   1   4  -4 24.6948 1.58302   2
   0   4  -4 10.7743 2.15884   3
   0   4  -4 11.7120 2.10075   2
   0   4  -4 11.3346 4.03162   1
   0   4  -4 11.4046 2.09120   2
   0  -4   4 3.63017 3.07519   1
   0  -4   4 11.4981 2.01702   2
   0  -4   4 8.33282 1.91394   2
  -1   4  -4 1.46951 1.69186   3
  -1   4  -4 1.06544 2.04683   2
  -1   4  -4 5.05972 2.24331   2
  -1   4  -4 7.16734 4.48775   1
   1  -4   4 -1.3177 1.96662   2
   1  -4   4 1.26861 1.79111   3
   1  -4   4 1.96722 2.18181   2
  -2   4  -4 252.501 9.72551   2
  -2   4  -4 243.503 21.8708   1
  -2   4  -4 252.708 8.63824   3
  -2   4  -4 265.008 9.98850   2
   2  -4   4 248.698 21.5264   1
   2  -4   4 260.905 10.0988   2
   2  -4   4 247.942 9.80850   2
   2  -4   4 259.319 8.70617   3
  -3   4  -4 126.589 7.67238   2
  -3   4  -4 105.953 7.22643   2
  -3   4  -4 135.684 18.7767   1
  -3   4  -4 98.4580 9.45862   3
   3  -4   4 107.569 16.1597   1
   3  -4   4 126.682 7.48743   2
   3  -4   4 107.548 7.46704   2
  -4   4  -4 4.80650 3.24765   3
  -4   4  -4 3.01681 8.35321   1
  -4   4  -4 10.6997 4.00712   2
  -4   4  -4 7.35379 3.61122   2
   4  -4   4 5.94318 2.84485   3
   4  -4   4 2.97612 3.56358   2
   4  -4   4 0.65389 7.56845   1
  -5   4  -4 -1.2079 2.70870   3
  -5   4  -4 5.61801 3.75294   2
   5  -4   4 0.60027 3.09747   2
   5  -4   4 4.40445 13.1162   1
   5  -4   4 3.49141 4.06717   2
   5  -4   4 -1.0074 2.76103   3
  -6   4  -4 25.5459 4.96806   3
  -6   4  -4 28.3352 6.53017   2
   6  -4   4 39.1981 6.19546   2
   6  -4   4 17.4269 4.03148   3
  -7   4  -4 11.1648 5.25324   2
   7  -4   4 0.78268 5.29611   2
   7  -4   4 10.2146 5.51722   2
   7  -4   4 7.66506 3.72345   3
  -8   4  -4 1.00570 6.77079   2
   8  -4   4 -1.9705 4.85191   2
   8  -4   4 2.15390 3.36135   3
  10   3  -4 1.45418 6.89360   3
 -10  -3   4 14.2098 4.90025   2
 -10  -3   4 -3.6800 4.93043   2
   9   3  -4 -9.5002 5.10994   3
   9   3  -4 -6.9473 3.32822   2
  -9  -3   4 -2.9610 2.99149   2
  -9  -3   4 -1.8764 3.34515   2
   8   3  -4 39.5569 5.67019   2
   8   3  -4 44.9721 14.4378   1
   8   3  -4 45.1204 8.45303   3
  -8  -3   4 35.8543 5.88060   2
  -8  -3   4 48.2378 5.92369   2
  -8  -3   4 17.5075 11.1278   1
   7   3  -4 79.1208 14.8070   1
   7   3  -4 88.5004 9.58954   3
   7   3  -4 88.2019 6.93570   2
  -7  -3   4 87.4224 6.66785   2
  -7  -3   4 84.7142 6.82214   2
  -7  -3   4 87.9454 16.2945   1
   6   3  -4 -4.2342 5.01454   1
   6   3  -4 1.18720 4.53803   3
   6   3  -4 0.46659 2.19538   2
  -6  -3   4 -2.6326 2.42077   2
  -6  -3   4 -8.4851 5.43699   1
  -6  -3   4 -2.6995 2.32521   2
   5   3  -4 65.7704 7.13322   3
   5   3  -4 74.5052 4.88336   2
  -5  -3   4 69.3891 5.04054   2
  -5  -3   4 77.6284 5.07254   2
  -5  -3   4 83.5307 10.2386   1
   4   3  -4 24.5376 4.47311   3
   4   3  -4 17.8695 2.52442   2
   4   3  -4 18.1615 2.49084   2
  -4  -3   4 15.8729 2.35992   2
  -4  -3   4 12.8797 4.16071   1
  -4  -3   4 18.1711 2.49242   2
  -4  -3   4 10.3259 4.35472   1
   3   3  -4 906.093 17.8952   2
   3   3  -4 874.750 17.8103   2
  -3  -3   4 857.793 26.2096   1
  -3  -3   4 882.896 25.5826   1
  -3  -3   4 876.457 17.4148   2
   2   3  -4 937.867 17.7185   2
   2   3  -4 906.157 17.4615   2
   2   3  -4 929.328 21.1350   3
   1   3  -4 29.8756 2.22228   2
   1   3  -4 31.8855 3.13390   3
   1   3  -4 28.0989 3.85275   1
   1   3  -4 28.6991 1.99024   2
  -1  -3   4 27.5555 3.61277   1
  -1  -3   4 29.1691 1.73987   2
   0   3  -4 116.413 10.1945   1
   0   3  -4 120.912 4.70420   2
   0   3  -4 118.195 4.66545   2
   0   3  -4 121.076 4.77292   3
   0  -3   4 119.822 4.58354   2
   0  -3   4 119.008 10.0772   1
   0  -3   4 109.102 4.56953   2
  -1   3  -4 13.3633 4.98226   1
  -1   3  -4 11.0191 2.69063   2
  -1   3  -4 13.6699 2.67060   2
  -1   3  -4 11.8478 1.89273   3
   1  -3   4 13.1485 4.75689   1
   1  -3   4 9.08321 2.64935   2
   1  -3   4 12.6091 2.62890   2
   1  -3   4 11.9055 2.01842   3
  -2   3  -4 18.1878 7.34684   1
  -2   3  -4 20.5003 2.81749   3
  -2   3  -4 24.5067 3.65791   2
  -2   3  -4 21.0036 3.67926   2
   2  -3   4 24.9539 8.18350   1
   2  -3   4 20.3522 3.72566   2
   2  -3   4 17.7685 2.46837   3
   2  -3   4 19.1803 3.65198   2
  -3   3  -4 34.4656 4.33478   3
  -3   3  -4 29.8625 4.63810   2
  -3   3  -4 31.5660 4.60247   2
  -3   3  -4 34.4800 9.57922   1
   3  -3   4 34.8885 4.91825   2
   3  -3   4 27.6841 10.3131   1
   3  -3   4 28.2921 3.62172   3
  -4   3  -4 111.724 19.1638   1
  -4   3  -4 120.755 8.67198   2
  -4   3  -4 106.792 8.15078   2
  -4   3  -4 107.769 8.93546   3
   4  -3   4 114.254 6.47926   3
   4  -3   4 101.534 8.51318   2
   4  -3   4 100.441 17.9368   1
   4  -3   4 108.230 7.69882   2
  -5   3  -4 33.2058 4.60552   3
  -5   3  -4 37.9849 6.34704   2
  -5   3  -4 32.7479 5.92437   2
   5  -3   4 24.0024 5.60516   2
   5  -3   4 35.8672 5.73462   2
   5  -3   4 15.1503 12.3640   1
   5  -3   4 31.3675 4.51392   3
  -6   3  -4 -4.7892 3.87755   2
  -6   3  -4 1.09989 2.98656   3
   6  -3   4 3.13753 4.70756   2
   6  -3   4 0.45134 2.90447   3
   6  -3   4 1.77308 14.5386   1
   6  -3   4 0.56609 3.21821   2
   7  -3   4 11.9601 4.81576   2
   7  -3   4 11.7495 4.06480   3
  -8   3  -4 10.4257 6.12591   2
   8  -3   4 5.35002 5.17113   2
   8  -3   4 6.83058 4.02315   3
  10   2  -4 68.0679 16.7957   3
 -10  -2   4 105.795 11.4228   2
 -10  -2   4 78.4463 15.3026   2
   9   2  -4 -0.9091 6.21285   3
   9   2  -4 9.70827 4.12118   2
  -9  -2   4 1.67764 4.26166   2
  -9  -2   4 -2.2382 2.95891   2
   8   2  -4 30.8264 5.45640   2
   8   2  -4 26.8176 7.16790   3
   8   2  -4 25.9136 11.8358   1
  -8  -2   4 48.4606 6.13952   2
  -8  -2   4 39.5385 6.82697   2
   7   2  -4 -7.3005 4.41334   3
   7   2  -4 -1.5272 2.89020   2
   7   2  -4 -5.1228 11.2372   1
  -7  -2   4 -1.3639 3.10461   2
  -7  -2   4 3.94335 2.96777   2
  -7  -2   4 7.04262 8.59571   1
   6   2  -4 40.2006 7.14264   3
   6   2  -4 46.5980 5.12431   2
   6   2  -4 46.1322 5.89202   2
  -6  -2   4 38.5504 12.0742   1
  -6  -2   4 49.7353 5.50883   2
  -6  -2   4 41.1882 5.06125   2
   5   2  -4 2.55310 2.35277   2
   5   2  -4 -5.4006 4.02876   3
  -5  -2   4 -1.5189 2.32654   2
  -5  -2   4 4.59461 4.76047   1
  -5  -2   4 2.13023 2.50260   2
   4   2  -4 56.4580 5.86020   3
   4   2  -4 56.4434 4.13322   2
  -4  -2   4 46.9312 8.56093   1
  -4  -2   4 56.0132 4.29357   2
  -4  -2   4 49.6390 8.18915   1
  -4  -2   4 56.6481 4.25658   2
   3   2  -4 93.1227 4.26568   2
   3   2  -4 91.5872 6.02158   3
   3   2  -4 89.2682 4.10602   2
  -3  -2   4 99.8468 6.15420   2
  -3  -2   4 95.7298 4.27335   2
  -3  -2   4 87.1380 8.82277   1
  -3  -2   4 88.1279 8.78067   1
   2   2  -4 387.652 9.11031   2
   2   2  -4 392.851 9.16333   2
   2   2  -4 383.987 10.7638   3
  -2  -2   4 393.898 9.03920   2
  -2  -2   4 390.196 16.1814   1
  -2  -2   4 385.913 16.2615   1
  -2  -2   4 371.512 8.88154   2
   1   2  -4 807.695 16.4831   2
   1   2  -4 781.732 17.2018   3
   1   2  -4 780.505 17.2133   3
   1   2  -4 815.152 25.3936   1
   1   2  -4 790.190 16.3747   2
  -1  -2   4 792.315 16.3145   2
  -1  -2   4 787.710 16.2386   2
  -1  -2   4 790.275 25.2510   1
   0   2  -4 87.6612 4.10059   2
   0   2  -4 88.6942 4.00144   2
   0   2  -4 85.1593 3.48767   3
   0   2  -4 89.8931 8.80018   1
   0  -2   4 84.5932 8.72144   1
   0  -2   4 83.2150 4.04375   2
   0  -2   4 91.5496 4.06776   2
  -1   2  -4 56.8046 8.76849   1
  -1   2  -4 46.5390 2.48158   3
  -1   2  -4 44.0768 6.37570   2
  -1   2  -4 40.7946 3.92027   2
   1  -2   4 48.5909 3.86106   2
   1  -2   4 39.9370 4.45441   2
   1  -2   4 42.5838 2.50860   3
   1  -2   4 48.8501 7.83385   1
  -2   2  -4 9999.99 185.784   2
   2  -2   4 9986.05 219.826   1
  -3   2  -4 184.597 6.85303   3
  -3   2  -4 184.721 20.3466   1
  -3   2  -4 192.022 9.10449   2
  -3   2  -4 177.302 8.48442   2
   3  -2   4 197.330 9.41761   2
   3  -2   4 198.450 20.0118   1
   3  -2   4 193.284 6.66424   3
  -4   2  -4 26.0685 4.76026   2
  -4   2  -4 16.2653 4.10741   2
  -4   2  -4 7.80390 8.21821   1
  -4   2  -4 18.2633 3.20208   3
   4  -2   4 14.7249 3.90488   2
   4  -2   4 17.7985 2.91269   3
   4  -2   4 18.1482 4.39995   2
   4  -2   4 4.79043 6.43598   1
  -5   2  -4 108.353 6.57735   3
  -5   2  -4 77.8189 18.0073   1
  -5   2  -4 111.124 8.36249   2
  -5   2  -4 105.725 8.06597   2
   5  -2   4 97.5437 7.88329   2
   5  -2   4 106.201 19.8963   1
   5  -2   4 120.763 7.86019   3
   5  -2   4 106.898 8.64105   2
  -6   2  -4 9.37741 12.0962   1
  -6   2  -4 4.54917 4.38124   2
  -6   2  -4 7.32735 3.09917   3
   6  -2   4 6.08457 3.84982   2
   6  -2   4 2.91004 4.35864   2
   6  -2   4 1.11287 2.73508   3
  -7   2  -4 0.28103 2.89276   3
  -7   2  -4 -5.0180 4.78981   2
   7  -2   4 -4.1254 5.82874   2
   7  -2   4 5.75229 4.44486   2
   7  -2   4 -0.5304 3.03992   3
  -8   2  -4 13.2632 5.74930   2
   8  -2   4 8.01744 5.77095   2
   8  -2   4 11.5165 4.79614   3
   8  -2   4 13.6469 8.60958   2
  -9   2  -4 5.86070 5.17853   2
   9  -2   4 -2.2986 5.78980   2
   9  -2   4 -1.9227 4.09402   3
 -10  -1   4 59.0497 9.50095   2
   9   1  -4 -2.5700 5.07407   3
   9   1  -4 -5.7663 3.78783   2
  -9  -1   4 -1.7339 4.35308   2
   8   1  -4 -2.0538 5.03258   3
   8   1  -4 4.43360 3.40132   2
   8   1  -4 -5.1871 10.8382   1
  -8  -1   4 -15.260 13.8067   1
  -8  -1   4 0.82505 6.38030   2
  -8  -1   4 -1.9555 1.76473   2
   7   1  -4 9.20029 8.39841   1
   7   1  -4 -5.3442 4.58137   3
  -7  -1   4 6.51138 2.94836   2
  -7  -1   4 28.0107 9.41801   1
   6   1  -4 536.103 36.2662   1
   6   1  -4 565.990 19.8642   2
   6   1  -4 553.919 19.1397   3
   6   1  -4 564.181 17.3815   2
  -6  -1   4 573.220 37.2647   1
  -6  -1   4 560.020 17.5824   2
  -6  -1   4 588.778 17.7632   2
   5   1  -4 116.191 15.4519   1
   5   1  -4 112.648 6.58390   2
   5   1  -4 121.065 7.03381   2
   5   1  -4 126.051 9.01867   3
  -5  -1   4 131.040 7.20676   2
  -5  -1   4 161.177 17.0484   1
  -5  -1   4 114.775 7.43873   3
  -5  -1   4 126.102 7.30291   2
   4   1  -4 54.3551 6.44995   3
   4   1  -4 49.0173 4.29537   2
  -4  -1   4 46.9221 4.77775   3
  -4  -1   4 50.3273 4.51710   2
  -4  -1   4 51.9166 4.39425   2
  -4  -1   4 48.9161 9.23697   1
   3   1  -4 1251.64 27.6443   3
   3   1  -4 1246.48 26.2545   2
   3   1  -4 1224.70 26.1842   2
  -3  -1   4 1254.06 27.3764   3
  -3  -1   4 1199.69 42.4920   1
  -3  -1   4 1187.70 26.0522   2
  -3  -1   4 1230.75 26.2882   2
  -3  -1   4 1240.57 50.2614   1
   2   1  -4 52.4818 3.41990   2
   2   1  -4 49.6261 4.40894   3
   2   1  -4 48.0861 3.36480   2
  -2  -1   4 49.8952 3.42543   2
  -2  -1   4 52.5554 3.44089   2
  -2  -1   4 45.7257 6.66115   1
  -2  -1   4 55.9094 7.22835   1
   1   1  -4 420.416 18.7553   1
   1   1  -4 393.416 9.71431   2
   1   1  -4 392.589 9.72100   2
   1   1  -4 393.044 9.75404   3
  -1  -1   4 378.201 9.59130   2
  -1  -1   4 399.912 18.1708   1
  -1  -1   4 378.850 9.56090   2
   0   1  -4 100.057 4.48793   2
   0   1  -4 95.4698 3.10931   3
   0   1  -4 100.854 3.24973   3
   0   1  -4 98.3576 4.31220   2
   0   1  -4 93.7552 9.31830   1
   0  -1   4 100.015 4.34050   2
   0  -1   4 94.2256 9.61425   1
   0  -1   4 99.8834 4.47616   2
  -1   1  -4 620.723 15.2812   2
  -1   1  -4 620.136 12.1517   3
  -1   1  -4 626.857 28.5936   1
  -1   1  -4 621.121 15.1868   2
   1  -1   4 640.676 28.8453   1
   1  -1   4 650.574 15.4320   2
   1  -1   4 629.718 15.1810   2
  -2   1  -4 195.066 7.77304   2
  -2   1  -4 205.310 5.40354   3
  -2   1  -4 197.848 17.5391   1
  -2   1  -4 202.072 7.92939   2
   2  -1   4 200.337 18.2176   1
   2  -1   4 187.754 8.24510   2
   2  -1   4 194.436 5.22692   3
  -3   1  -4 294.967 11.3683   2
  -3   1  -4 342.212 25.5427   1
  -3   1  -4 302.177 11.1369   2
  -3   1  -4 311.361 8.48471   3
   3  -1   4 314.161 11.1514   2
   3  -1   4 311.638 8.40917   3
   3  -1   4 303.747 24.5969   1
   3  -1   4 310.902 11.3701   2
  -4   1  -4 14.7349 2.66997   3
  -4   1  -4 9.95127 7.49054   1
  -4   1  -4 15.3219 3.75634   2
  -4   1  -4 17.7644 4.46467   2
   4  -1   4 23.1750 4.37397   2
   4  -1   4 15.5490 2.59615   3
   4  -1   4 11.1044 3.97265   2
   4  -1   4 4.88293 6.74074   1
  -5   1  -4 16.4882 4.62638   2
  -5   1  -4 3.11339 7.69630   1
  -5   1  -4 16.2264 3.64320   3
  -5   1  -4 15.8834 4.40661   2
   5  -1   4 19.6449 4.84563   2
   5  -1   4 19.2956 4.60700   2
   5  -1   4 4.20119 7.21313   1
   5  -1   4 20.0622 3.70280   3
  -6   1  -4 40.8443 5.00462   3
  -6   1  -4 38.2030 6.40599   2
  -6   1  -4 29.4511 5.94870   2
  -6   1  -4 32.4411 14.5458   1
   6  -1   4 38.7231 6.15402   2
   6  -1   4 48.9444 15.7589   1
   6  -1   4 41.0660 5.08476   3
   6  -1   4 36.0698 6.39745   2
  -7   1  -4 31.5062 6.91580   2
  -7   1  -4 24.2238 4.18759   3
  -7   1  -4 31.8042 17.5685   1
   7  -1   4 24.1002 5.68111   2
   7  -1   4 23.2417 4.65771   3
   7  -1   4 3.08340 12.9537   1
   7  -1   4 28.2069 6.34379   2
  -8   1  -4 4.86494 4.94498   2
  -8   1  -4 8.90172 32.4308   1
   8  -1   4 51.4609 24.6949   1
   8  -1   4 2.57340 5.08389   2
   8  -1   4 -2.0886 3.48656   3
  -9   1  -4 12.4739 6.24992   2
   9  -1   4 16.3170 4.80261   3
   9  -1   4 18.8791 6.45981   2
  10   0  -4 33.2394 8.93308   3
 -10   0   4 34.2382 9.18234   2
   9   0  -4 16.8812 5.05537   2
   9   0  -4 29.6433 7.15774   3
  -9   0   4 29.1296 6.58323   2
  -9   0   4 19.3215 4.44755   2
   8   0  -4 28.5343 5.87522   2
   8   0  -4 21.1921 6.47490   3
   8   0  -4 22.6265 15.9409   1
  -8   0   4 31.3781 15.1429   1
  -8   0   4 28.3170 4.97727   2
   7   0  -4 -1.4492 9.24682   1
   7   0  -4 -1.9345 4.49339   3
   7   0  -4 3.37753 3.32919   2
  -7   0   4 3.50218 3.96909   2
  -7   0   4 12.1531 8.34618   1
  -7   0   4 2.77853 3.28989   2
   6   0  -4 170.566 10.9940   3
   6   0  -4 139.750 8.59895   2
   6   0  -4 152.197 8.83731   2
   6   0  -4 155.507 21.9772   1
  -6   0   4 158.170 10.3092   3
  -6   0   4 117.932 18.3861   1
  -6   0   4 158.281 9.38946   2
   5   0  -4 14.9156 6.67348   1
   5   0  -4 15.8832 3.93677   2
   5   0  -4 13.2671 4.89811   3
   5   0  -4 16.5971 3.72151   2
  -5   0   4 11.3703 3.77210   3
  -5   0   4 12.4978 3.62264   2
   4   0  -4 159.430 7.25858   2
   4   0  -4 158.345 8.61408   3
  -4   0   4 159.865 7.63655   2
  -4   0   4 123.808 6.38576   2
  -4   0   4 149.353 7.59533   3
   3   0  -4 194.407 7.62080   2
   3   0  -4 216.908 8.69679   3
  -3   0   4 197.898 16.6694   1
  -3   0   4 200.920 7.99563   3
  -3   0   4 224.890 17.3859   1
  -3   0   4 197.568 9.03801   2
  -3   0   4 189.114 7.48308   2
   2   0  -4 17.2396 2.58604   2
   2   0  -4 17.7710 3.42042   3
   2   0  -4 17.4766 2.63788   2
  -2   0   4 24.1835 3.11420   3
  -2   0   4 13.0298 4.53707   1
  -2   0   4 13.8559 4.83414   1
  -2   0   4 20.4650 2.87098   2
  -2   0   4 16.6829 2.76945   2
   1   0  -4 110.820 10.4669   1
   1   0  -4 106.532 4.66807   3
   1   0  -4 103.872 4.75256   2
   1   0  -4 111.658 4.91741   2
  -1   0   4 105.327 9.97771   1
  -1   0   4 98.3603 4.72744   2
  -1   0   4 105.975 4.77512   2
  -1   0   4 102.736 4.25270   3
   0   0  -4 139.696 5.50393   2
   0   0  -4 137.511 3.67797   3
   0   0  -4 133.170 5.31546   2
   0   0  -4 149.581 12.1704   1
   0   0   4 136.860 5.48505   2
   0   0   4 157.564 12.4675   1
   0   0   4 137.606 5.24627   2
  -1   0  -4 997.410 22.1129   2
  -1   0  -4 1036.58 37.8805   1
  -1   0  -4 1006.95 22.3392   2
   1   0   4 1002.45 22.4393   2
   1   0   4 1048.33 38.8560   1
  -2   0  -4 2304.25 69.6986   1
  -2   0  -4 2287.90 46.3404   2
  -2   0  -4 2220.50 46.0564   2
   2   0   4 2319.95 46.5697   2
   2   0   4 2311.48 69.7685   1
   2   0   4 2274.60 46.2414   2
   2   0   4 2266.61 42.1797   3
  -3   0  -4 447.950 28.7336   1
  -3   0  -4 414.306 12.9451   2
  -3   0  -4 405.286 12.9089   2
   3   0   4 371.270 26.8559   1
   3   0   4 392.873 9.73176   3
   3   0   4 406.214 12.7935   2
   3   0   4 404.720 12.9849   2
  -4   0  -4 0.19003 3.15315   2
  -4   0  -4 2.30101 1.74762   3
  -4   0  -4 1.47887 2.97743   2
  -4   0  -4 8.72143 5.86606   1
   4   0   4 2.13321 4.63486   1
   4   0   4 2.10426 3.58284   2
   4   0   4 5.90379 3.13137   2
   4   0   4 1.18550 1.98712   3
  -5   0  -4 21.8892 10.3795   1
  -5   0  -4 19.3729 4.61077   2
  -5   0  -4 27.3216 3.48632   3
  -5   0  -4 28.1581 5.21595   2
   5   0   4 23.0153 5.42930   2
   5   0   4 33.4311 4.22958   3
   5   0   4 28.7452 5.19226   2
  -6   0  -4 75.7236 18.8719   1
  -6   0  -4 62.3508 7.58200   2
  -6   0  -4 60.0731 6.98857   2
   6   0   4 55.5884 5.87049   3
   6   0   4 59.1439 6.95038   2
   6   0   4 63.6337 7.56944   2
   6   0   4 59.5405 16.8627   1
  -7   0  -4 32.6756 6.43158   2
  -7   0  -4 29.6817 5.95479   2
  -7   0  -4 26.3582 14.7854   1
   7   0   4 29.5143 5.11810   3
   7   0   4 -2.3903 15.0753   1
   7   0   4 27.4867 6.35652   2
   7   0   4 32.3114 6.03650   2
  -8   0  -4 87.8403 24.0151   1
  -8   0  -4 93.6160 9.84699   2
   8   0   4 45.6143 22.9687   1
   8   0   4 86.2916 9.64214   2
   8   0   4 87.8476 8.16969   3
   8   0   4 83.2364 8.96843   2
  -9   0  -4 4.07104 5.44646   2
   9   0   4 2.58924 5.89158   2
   9   0   4 -4.2702 3.92013   3
   9  -1  -4 3.68856 5.99141   3
  -9   1   4 -8.1308 3.96598   2
  -9   1   4 9.35927 4.58629   2
   8  -1  -4 8.37523 15.9409   1
   8  -1  -4 2.56562 3.84175   2
   8  -1  -4 0.00423 4.60947   3
  -8   1   4 10.6907 3.61022   2
  -8   1   4 10.4877 17.0339   1
   7  -1  -4 52.0965 7.78914   3
   7  -1  -4 52.6596 7.30923   2
   7  -1  -4 21.7909 12.5197   1
  -7   1   4 35.7322 5.87128   2
  -7   1   4 27.1144 11.4874   1
  -7   1   4 43.0932 6.69607   2
   6  -1  -4 309.682 43.9949   1
   6  -1  -4 265.452 12.1966   2
   6  -1  -4 276.013 13.5424   3
   6  -1  -4 272.602 12.3964   2
  -6   1   4 262.781 12.4243   3
  -6   1   4 282.052 12.8713   2
  -6   1   4 282.361 12.5984   2
  -6   1   4 300.311 28.4254   1
   5  -1  -4 136.145 19.1112   1
   5  -1  -4 122.036 9.00560   3
   5  -1  -4 135.610 8.07919   2
   5  -1  -4 125.979 7.79614   2
  -5   1   4 105.222 15.9411   1
  -5   1   4 121.901 8.13020   2
  -5   1   4 120.215 7.76021   2
  -5   1   4 130.815 8.41747   3
   4  -1  -4 96.5444 6.31787   2
   4  -1  -4 99.1907 7.18565   3
  -4   1   4 106.807 6.99647   3
  -4   1   4 96.9730 6.86897   2
  -4   1   4 100.929 6.83494   2
  -4   1   4 101.128 13.8256   1
   3  -1  -4 84.9825 7.20276   3
   3  -1  -4 85.1442 5.63869   2
   3  -1  -4 89.3314 5.41203   2
  -3   1   4 85.7706 12.2741   1
  -3   1   4 84.0014 12.1935   1
  -3   1   4 87.0048 5.74274   3
   2  -1  -4 181.699 7.18447   3
   2  -1  -4 186.732 7.25054   2
   2  -1  -4 188.546 7.28299   2
  -2   1   4 189.127 16.1242   1
  -2   1   4 186.539 7.21539   3
  -2   1   4 195.177 7.63172   2
   1  -1  -4 213.714 15.9030   1
   1  -1  -4 218.964 6.72750   3
   1  -1  -4 220.252 7.40221   2
   1  -1  -4 218.007 7.56866   2
  -1   1   4 224.180 7.06359   3
  -1   1   4 195.374 15.4785   1
  -1   1   4 216.744 7.44373   2
   0  -1  -4 880.093 19.6355   2
   0  -1  -4 905.457 34.2403   1
   0  -1  -4 865.191 19.5536   2
   0  -1  -4 879.915 17.6121   3
   0   1   4 856.016 19.5978   2
   0   1   4 880.172 17.6629   3
   0   1   4 932.878 34.8436   1
  -1  -1  -4 8.75774 2.61207   2
  -1  -1  -4 12.5001 4.95035   1
  -1  -1  -4 10.8716 2.75507   2
   1   1   4 5.26708 2.34299   2
   1   1   4 4.88607 3.61076   1
   1   1   4 7.91758 2.76557   2
   1   1   4 8.01538 1.00802   3
  -2  -1  -4 99.3164 5.72049   2
  -2  -1  -4 136.497 14.0056   1
  -2  -1  -4 106.112 5.73522   2
   2   1   4 113.436 3.49752   3
   2   1   4 110.451 3.26689   3
   2   1   4 105.432 5.95563   2
   2   1   4 104.475 5.81054   2
   2   1   4 108.860 12.9821   1
  -3  -1  -4 10.8148 3.02647   2
  -3  -1  -4 11.4805 5.70938   1
  -3  -1  -4 12.2814 3.08355   2
   3   1   4 11.1511 2.09665   3
   3   1   4 7.79147 2.93315   2
   3   1   4 10.3287 3.20399   2
   3   1   4 17.4543 6.58053   1
  -4  -1  -4 76.2118 12.5883   1
  -4  -1  -4 50.4745 5.33123   2
  -4  -1  -4 63.0455 5.75280   2
   4   1   4 67.6983 6.03006   2
   4   1   4 65.3633 4.66988   3
   4   1   4 57.1122 5.47224   2
  -5  -1  -4 28.2096 5.00512   2
  -5  -1  -4 27.8275 11.0638   1
  -5  -1  -4 30.5758 4.97077   2
   5   1   4 26.9731 4.19676   3
   5   1   4 27.5920 4.86911   2
   5   1   4 17.0474 7.57491   1
  -6  -1  -4 -10.023 9.83394   1
  -6  -1  -4 -1.9228 4.04500   2
  -6  -1  -4 -2.7891 3.30405   2
   6   1   4 -6.3101 5.64204   2
   6   1   4 2.38585 3.46078   2
   6   1   4 5.32044 6.58989   1
   6   1   4 2.78032 3.49899   3
  -7  -1  -4 99.5196 22.4461   1
  -7  -1  -4 75.2913 7.64086   2
  -7  -1  -4 68.6758 8.20905   2
   7   1   4 59.3226 17.0858   1
   7   1   4 70.8418 7.52329   2
   7   1   4 80.8841 9.28428   2
   7   1   4 83.6916 7.62433   3
  -8  -1  -4 7.33079 5.02682   2
  -8  -1  -4 13.4939 4.68923   2
  -8  -1  -4 1.23177 17.4649   1
   8   1   4 12.1921 4.84458   3
   8   1   4 7.73725 4.51593   2
   8   1   4 3.46356 5.15604   2
   8   1   4 5.60706 15.5005   1
  -9  -1  -4 107.862 43.0750   1
  -9  -1  -4 152.309 12.2377   2
   9   1   4 72.7355 40.1948   1
   9   1   4 122.147 15.9916   3
   9   1   4 137.212 11.6696   2
 -10  -1  -4 -5.7582 5.38002   2
  10   1   4 -1.0604 4.46935   3
  10   1   4 3.07282 6.07546   2
   9  -2  -4 5.99567 6.03346   3
  -9   2   4 -10.557 4.09121   2
   8  -2  -4 4.03447 5.35082   3
  -8   2   4 2.34893 3.61196   2
   7  -2  -4 -4.0691 11.2120   1
   7  -2  -4 11.5968 5.42364   3
   7  -2  -4 5.71265 4.43139   2
  -7   2   4 6.99125 4.44685   2
  -7   2   4 8.78012 4.60196   2
  -7   2   4 17.3589 12.7334   1
   6  -2  -4 1.13330 3.48396   2
   6  -2  -4 4.04242 3.85706   2
   6  -2  -4 0.90978 4.06313   3
   6  -2  -4 8.88277 8.34037   1
  -6   2   4 -0.7476 3.78351   2
  -6   2   4 1.76322 7.37991   1
  -6   2   4 3.70401 3.40796   2
  -6   2   4 4.89640 5.67290   3
   5  -2  -4 45.4551 12.6050   1
   5  -2  -4 49.4342 6.44063   2
   5  -2  -4 56.0050 6.92448   3
  -5   2   4 48.6585 5.91915   2
  -5   2   4 60.0984 13.1139   1
  -5   2   4 58.1316 6.63804   3
  -5   2   4 45.8529 6.19755   2
   4  -2  -4 194.133 9.26979   2
   4  -2  -4 185.560 9.39825   3
  -4   2   4 191.086 9.95664   2
  -4   2   4 195.446 29.7261   1
  -4   2   4 199.632 9.39880   2
  -4   2   4 206.069 9.50976   3
   3  -2  -4 1.03045 2.30758   2
   3  -2  -4 1.16535 2.52899   3
   3  -2  -4 -0.9616 2.16640   2
  -3   2   4 0.78801 2.80686   3
  -3   2   4 -1.0461 2.48115   2
  -3   2   4 1.35747 2.43980   2
  -3   2   4 0.76272 3.86662   1
   2  -2  -4 77.7667 5.10192   3
   2  -2  -4 70.6841 5.01912   2
   2  -2  -4 70.1898 5.05397   2
  -2   2   4 74.3609 5.21199   2
  -2   2   4 70.9804 11.3560   1
  -2   2   4 80.8018 11.6843   1
  -2   2   4 79.6960 5.46625   3
  -2   2   4 76.8659 5.22361   2
   1  -2  -4 627.137 15.7914   2
   1  -2  -4 653.464 31.1277   1
   1  -2  -4 620.414 14.7468   3
   1  -2  -4 627.888 15.7673   2
  -1   2   4 589.654 15.5636   2
  -1   2   4 650.262 31.2758   1
  -1   2   4 634.354 14.9155   3
  -1   2   4 598.591 15.6946   2
   0  -2  -4 154.449 6.44544   2
   0  -2  -4 180.667 14.9268   1
   0  -2  -4 152.473 5.21578   3
   0  -2  -4 148.469 6.42316   2
   0   2   4 149.293 6.42884   2
   0   2   4 159.803 14.2127   1
   0   2   4 158.198 5.19170   3
   0   2   4 163.425 6.61075   2
  -1  -2  -4 275.029 6.79849   3
  -1  -2  -4 265.578 8.75922   2
  -1  -2  -4 285.771 19.0411   1
  -1  -2  -4 272.853 8.85910   2
   1   2   4 266.460 8.82954   2
   1   2   4 262.000 8.72833   2
   1   2   4 266.568 6.69875   3
   1   2   4 273.402 19.0820   1
  -2  -2  -4 305.506 10.1079   2
  -2  -2  -4 321.706 21.7464   1
  -2  -2  -4 295.540 9.85086   2
   2   2   4 310.196 21.8414   1
   2   2   4 293.626 9.90431   2
   2   2   4 296.844 9.85077   2
   2   2   4 297.359 7.43176   3
  -3  -2  -4 5.79559 2.71912   2
  -3  -2  -4 9.27800 2.58362   2
  -3  -2  -4 6.45973 4.51902   1
   3   2   4 6.06556 1.86330   3
   3   2   4 0.51042 3.65663   1
   3   2   4 3.93411 2.66615   2
   3   2   4 7.08596 2.98073   2
  -4  -2  -4 963.267 24.4634   2
  -4  -2  -4 988.524 24.7888   2
  -4  -2  -4 1055.43 48.8865   1
   4   2   4 1019.51 22.1878   3
   4   2   4 945.806 47.4539   1
   4   2   4 965.331 24.6371   2
   4   2   4 1006.82 25.1216   2
  -5  -2  -4 34.6814 5.00405   2
  -5  -2  -4 34.3348 5.25812   2
  -5  -2  -4 14.3893 8.14404   1
   5   2   4 33.1836 9.86006   1
   5   2   4 24.2146 4.16591   3
   5   2   4 30.8705 5.06161   2
   5   2   4 32.1477 5.24065   2
  -6  -2  -4 3.62910 3.84065   2
  -6  -2  -4 14.5323 8.90429   1
   6   2   4 6.14978 4.07873   2
   6   2   4 9.08384 4.00695   2
   6   2   4 -0.5297 6.89950   1
   6   2   4 7.29485 4.12957   3
  -7  -2  -4 120.225 9.78351   2
  -7  -2  -4 107.492 22.5271   1
  -7  -2  -4 123.900 9.86788   2
   7   2   4 126.527 9.40974   2
   7   2   4 129.632 8.99393   3
   7   2   4 81.0776 21.8144   1
  -8  -2  -4 144.480 28.1654   1
  -8  -2  -4 177.933 11.6052   2
  -8  -2  -4 183.379 12.6297   2
   8   2   4 191.150 12.6524   2
   8   2   4 174.100 11.3723   3
   8   2   4 188.506 11.7616   2
  -9  -2  -4 17.9410 22.3527   1
  -9  -2  -4 7.59244 4.97338   2
  -9  -2  -4 22.5880 6.68845   2
   9   2   4 5.03982 5.65314   2
   9   2   4 16.2529 5.72420   3
   9   2   4 42.9267 24.7735   1
 -10  -2  -4 -0.0431 5.49914   2
  10   2   4 5.96775 4.53326   3
  10   2   4 -0.2668 4.66566   2
   9  -3  -4 17.7796 9.77388   3
  -9   3   4 17.4878 6.37000   2
   8  -3  -4 8.28292 5.12747   3
  -8   3   4 4.76872 5.31471   2
  -8   3   4 8.85717 5.13204   2
   7  -3  -4 15.9762 7.32277   2
   7  -3  -4 4.63291 4.35241   3
  -7   3   4 2.79596 4.10567   2
  -7   3   4 -5.2750 4.08718   2
  -7   3   4 -1.2595 16.8916   1
   6  -3  -4 62.3195 7.28761   2
   6  -3  -4 69.3241 8.28973   3
  -6   3   4 69.7764 8.64311   2
  -6   3   4 67.6665 18.4045   1
  -6   3   4 64.4466 7.35525   2
   5  -3  -4 4.19408 3.50289   2
   5  -3  -4 -0.8495 3.75387   3
  -5   3   4 -0.5294 6.52134   1
  -5   3   4 -3.0101 3.51234   2
  -5   3   4 -2.1726 3.44896   2
   4  -3  -4 1162.14 29.4893   3
   4  -3  -4 1210.48 30.0816   2
  -4   3   4 1197.11 30.0424   2
  -4   3   4 1199.16 29.5450   3
  -4   3   4 1209.20 58.7251   1
   3  -3  -4 23.7311 3.97477   2
   3  -3  -4 23.4754 4.14893   2
   3  -3  -4 19.2839 3.85823   3
  -3   3   4 29.5051 4.45656   2
  -3   3   4 18.7489 7.78370   1
  -3   3   4 22.2551 4.23008   2
  -3   3   4 27.0578 9.64874   1
  -3   3   4 30.8086 4.69953   3
   2  -3  -4 56.8318 4.88680   2
   2  -3  -4 49.7689 4.88590   2
   2  -3  -4 50.0177 4.83212   3
  -2   3   4 59.9821 10.6952   1
  -2   3   4 53.9802 5.01296   3
  -2   3   4 52.6711 4.90603   2
  -2   3   4 52.9195 5.03683   2
  -2   3   4 58.4607 10.7045   1
   1  -3  -4 2198.73 44.4217   2
   1  -3  -4 2097.34 43.0849   3
   1  -3  -4 2087.55 44.0557   2
  -1   3   4 2120.95 44.2570   2
  -1   3   4 2147.61 43.0467   3
  -1   3   4 2230.83 69.7195   1
   0  -3  -4 187.760 7.64826   2
   0  -3  -4 179.888 6.48270   3
   0  -3  -4 189.872 16.7123   1
   0  -3  -4 182.902 7.46236   2
   0   3   4 188.744 7.62496   2
   0   3   4 197.629 17.0275   1
   0   3   4 193.145 7.61642   2
   0   3   4 183.478 6.46070   3
  -1  -3  -4 588.058 13.6659   3
  -1  -3  -4 597.155 15.3989   2
  -1  -3  -4 607.952 30.3724   1
  -1  -3  -4 589.357 15.2621   2
   1   3   4 586.934 15.4361   2
   1   3   4 599.560 13.6427   3
   1   3   4 595.985 15.3867   2
   1   3   4 596.852 30.2691   1
  -2  -3  -4 59.1330 4.89192   2
  -2  -3  -4 62.4797 10.5212   1
  -2  -3  -4 67.6005 5.01341   2
   2   3   4 67.0215 5.00461   2
   2   3   4 67.2391 10.9585   1
   2   3   4 65.1118 3.69471   3
   2   3   4 62.1224 5.06857   2
  -3  -3  -4 974.252 23.5892   2
  -3  -3  -4 957.776 23.6653   2
  -3  -3  -4 1011.22 44.1853   1
   3   3   4 1096.89 46.9222   1
   3   3   4 988.795 21.5281   3
   3   3   4 1008.75 23.9540   2
   3   3   4 998.368 24.0475   2
  -4  -3  -4 177.578 8.36171   2
  -4  -3  -4 173.152 8.48311   2
  -4  -3  -4 182.708 18.8201   1
   4   3   4 185.911 8.85151   2
   4   3   4 208.847 20.5229   1
   4   3   4 163.101 8.29208   2
   4   3   4 183.904 7.22589   3
  -5  -3  -4 45.4570 11.7209   1
  -5  -3  -4 45.5943 5.57319   2
   5   3   4 59.3145 5.93696   2
   5   3   4 33.8073 10.9402   1
   5   3   4 52.7329 6.00624   2
  -6  -3  -4 47.1217 6.47581   2
  -6  -3  -4 31.9493 10.7201   1
  -6  -3  -4 38.5795 6.02030   2
   6   3   4 35.8219 12.8541   1
   6   3   4 40.4462 6.10634   2
   6   3   4 29.0990 4.96108   3
   6   3   4 40.9729 5.92178   2
  -7  -3  -4 118.623 21.9560   1
  -7  -3  -4 124.681 9.08820   2
  -7  -3  -4 134.376 9.76938   2
   7   3   4 115.204 9.23460   2
   7   3   4 120.382 9.41365   3
   7   3   4 112.701 9.33073   2
   7   3   4 120.387 22.1870   1
  -8  -3  -4 134.984 25.6163   1
  -8  -3  -4 155.840 11.7474   2
   8   3   4 155.852 10.8127   3
   8   3   4 144.457 11.6556   2
   8   3   4 93.2523 22.7343   1
  -9  -3  -4 64.0250 7.99786   2
  -9  -3  -4 70.4819 9.37270   2
  -9  -3  -4 54.3642 25.0801   1
   9   3   4 24.4223 24.7813   1
   9   3   4 48.3413 8.10593   2
   9   3   4 58.3095 8.23404   3
 -10  -3  -4 -3.0232 4.47698   2
  10   3   4 3.74636 5.02726   2
  10   3   4 -3.9031 4.48531   3
   8  -4  -4 9.02374 5.39964   3
  -8   4   4 18.4101 6.15055   2
  -8   4   4 3.54458 5.07686   2
   7  -4  -4 45.5770 8.02347   3
  -7   4   4 56.2925 8.67650   2
  -7   4   4 34.9021 21.8240   1
  -7   4   4 58.5581 7.80008   2
   6  -4  -4 34.0351 6.07141   2
   6  -4  -4 33.5411 6.63397   3
  -6   4   4 31.3810 6.30093   2
  -6   4   4 8.57649 18.4590   1
  -6   4   4 27.1630 6.68798   2
   5  -4  -4 48.0123 6.74581   2
   5  -4  -4 38.8645 6.21843   3
  -5   4   4 49.0897 7.04658   2
  -5   4   4 59.4002 14.5024   1
  -5   4   4 45.1691 6.84037   2
  -5   4   4 46.8304 6.46671   3
   4  -4  -4 79.1958 7.53425   3
   4  -4  -4 83.0014 7.42296   2
   4  -4  -4 91.6973 7.73973   2
  -4   4   4 102.650 8.02671   2
  -4   4   4 71.8544 7.52762   3
  -4   4   4 93.0613 9.31506   2
  -4   4   4 88.7560 17.0182   1
   3  -4  -4 38.2564 5.35091   2
   3  -4  -4 40.8986 5.37598   2
   3  -4  -4 28.3776 4.67021   3
  -3   4   4 38.5290 10.7622   1
  -3   4   4 36.2701 5.37821   3
  -3   4   4 51.5562 12.3240   1
  -3   4   4 36.5603 5.15840   2
  -3   4   4 37.7054 5.45425   2
   2  -4  -4 7.78080 3.00845   2
   2  -4  -4 4.48423 2.79114   2
  -2   4   4 1.24712 4.06340   1
  -2   4   4 1.54934 4.70478   1
  -2   4   4 2.09680 2.88015   2
  -2   4   4 3.20319 2.78978   3
  -2   4   4 8.15971 3.07260   2
   1  -4  -4 64.3242 5.08516   3
   1  -4  -4 77.3414 5.48691   2
   1  -4  -4 77.3303 5.65284   2
  -1   4   4 64.1889 11.1896   1
  -1   4   4 71.6595 4.96570   3
  -1   4   4 72.9027 5.64327   2
  -1   4   4 69.0378 11.1034   1
   0  -4  -4 49.6664 4.43689   3
   0  -4  -4 49.9423 4.67627   2
   0  -4  -4 46.6633 4.47040   2
   0  -4  -4 49.8965 10.9750   1
   0   4   4 52.9317 9.99502   1
   0   4   4 49.5477 4.63289   2
   0   4   4 42.9466 3.98155   3
   0   4   4 55.7809 4.91011   2
  -1  -4  -4 220.358 8.54568   2
  -1  -4  -4 234.120 19.2746   1
  -1  -4  -4 229.304 7.72980   3
  -1  -4  -4 228.552 8.66871   2
   1   4   4 232.138 7.73575   3
   1   4   4 237.328 8.92563   2
   1   4   4 232.820 8.67978   2
   1   4   4 202.874 25.4699   1
  -2  -4  -4 51.2106 4.55639   2
  -2  -4  -4 41.5919 4.46537   2
  -2  -4  -4 36.9923 3.60453   3
   2   4   4 48.4327 4.66144   2
   2   4   4 48.9558 4.64513   2
   2   4   4 48.3032 3.86050   3
   2   4   4 51.4101 9.87439   1
  -3  -4  -4 286.817 25.1217   1
  -3  -4  -4 281.997 10.2161   2
  -3  -4  -4 282.964 10.2121   2
   3   4   4 280.096 10.2682   2
   3   4   4 261.879 9.95388   2
   3   4   4 278.981 8.88122   3
   3   4   4 286.634 25.1505   1
  -4  -4  -4 244.381 22.1707   1
  -4  -4  -4 231.856 9.62946   2
  -4  -4  -4 243.135 10.0336   2
   4   4   4 247.818 10.1441   2
   4   4   4 236.710 8.55132   3
   4   4   4 244.741 9.90318   2
   4   4   4 255.556 22.8847   1
  -5  -4  -4 4.50014 6.40337   1
  -5  -4  -4 3.91225 3.09069   2
  -5  -4  -4 3.55823 3.93114   2
   5   4   4 7.34338 3.65214   2
   5   4   4 5.57138 6.90816   1
   5   4   4 1.48355 2.64583   3
   5   4   4 3.76701 3.12048   2
  -6  -4  -4 16.3499 7.94543   1
  -6  -4  -4 17.3623 4.32097   2
  -6  -4  -4 11.3543 4.43449   2
   6   4   4 14.2901 4.45231   2
   6   4   4 11.7178 4.17516   3
   6   4   4 5.69682 7.88387   1
   6   4   4 16.1252 4.35502   2
  -7  -4  -4 -0.8304 3.36878   2
  -7  -4  -4 16.4749 9.53415   1
  -7  -4  -4 -5.9899 4.12942   2
   7   4   4 6.60444 4.32267   2
   7   4   4 -9.3139 8.49053   1
   7   4   4 5.42739 3.93005   2
   7   4   4 0.27131 4.03767   3
  -8  -4  -4 216.298 30.5630   1
  -8  -4  -4 249.597 13.0056   2
  -8  -4  -4 245.570 13.8283   2
   8   4   4 238.254 13.2729   3
   8   4   4 248.824 13.5425   2
   8   4   4 222.977 31.7860   1
   8   4   4 248.864 14.3048   2
  -9  -4  -4 30.9797 5.66961   2
  -9  -4  -4 17.8215 19.2896   1
  -9  -4  -4 22.9520 6.40254   2
   9   4   4 31.7051 31.7880   1
   9   4   4 31.6021 7.35756   2
   9   4   4 20.4847 6.58165   3
 -10  -4  -4 6.36559 5.04445   2
  10   4   4 6.72390 5.61714   3
  10   4   4 -4.0008 5.53117   2
   8  -5  -4 17.3216 5.80962   2
   8  -5  -4 21.4490 6.31778   3
  -8   5   4 19.3311 6.33668   2
   7  -5  -4 25.1661 6.54864   2
   7  -5  -4 26.3347 6.58982   3
  -7   5   4 9.05001 20.0016   1
  -7   5   4 24.1689 25.8073   1
  -7   5   4 21.2304 5.58101   2
  -7   5   4 33.6444 7.43974   2
   6  -5  -4 12.2688 5.14460   3
   6  -5  -4 10.3090 4.52316   2
   6  -5  -4 27.4713 6.02907   2
  -6   5   4 17.1404 17.3160   1
  -6   5   4 13.4651 5.43672   2
  -6   5   4 15.7456 4.96209   2
   5  -5  -4 142.605 10.2298   2
   5  -5  -4 134.963 9.87976   3
   5  -5  -4 139.100 9.83033   2
  -5   5   4 126.514 10.2398   2
  -5   5   4 126.133 23.2766   1
  -5   5   4 102.768 22.5069   1
  -5   5   4 156.429 10.3164   2
   4  -5  -4 568.758 18.9957   3
   4  -5  -4 537.635 21.9854   2
   4  -5  -4 505.660 28.2175   2
  -4   5   4 576.967 20.8103   3
  -4   5   4 580.546 42.8035   1
  -4   5   4 575.593 20.0320   2
  -4   5   4 589.881 44.1514   1
  -4   5   4 586.732 19.8140   2
   3  -5  -4 50.6559 5.99028   2
   3  -5  -4 55.7951 6.23344   3
  -3   5   4 43.5307 5.99998   2
  -3   5   4 46.6572 6.32998   2
  -3   5   4 55.4334 13.8787   1
  -3   5   4 77.9782 14.0428   1
  -3   5   4 55.0808 6.57712   3
   2  -5  -4 10.9048 3.45266   2
   2  -5  -4 16.7227 3.98850   2
   2  -5  -4 5.84638 3.39210   3
  -2   5   4 10.0880 3.71834   2
  -2   5   4 15.0787 3.69320   3
  -2   5   4 11.3072 6.74641   1
  -2   5   4 10.7374 3.56274   2
  -2   5   4 14.3467 7.77458   1
   1  -5  -4 262.565 10.5117   2
   1  -5  -4 268.627 10.4844   2
  -1   5   4 290.842 10.9428   2
  -1   5   4 267.574 23.4978   1
  -1   5   4 271.265 10.1031   3
  -1   5   4 276.430 24.1454   1
  -1   5   4 264.144 10.4354   2
   0  -5  -4 2002.36 68.3647   1
   0  -5  -4 2012.07 41.5575   2
   0  -5  -4 1920.01 41.0234   2
   0   5   4 1894.90 41.1264   2
   0   5   4 1962.98 40.3978   3
   0   5   4 1795.20 80.1822   1
   0   5   4 1854.01 40.9155   2
  -1  -5  -4 580.886 32.4088   1
  -1  -5  -4 564.195 15.0318   3
  -1  -5  -4 573.177 15.8331   2
  -1  -5  -4 560.961 15.5996   2
   1   5   4 561.591 14.9225   3
   1   5   4 558.499 15.6692   2
   1   5   4 561.579 15.8087   2
  -2  -5  -4 85.5971 5.08183   3
  -2  -5  -4 78.3192 5.39216   2
  -2  -5  -4 84.1016 11.9065   1
  -2  -5  -4 73.6441 5.33697   2
   2   5   4 78.1023 5.54028   2
   2   5   4 80.6787 5.51291   2
   2   5   4 83.7547 12.3775   1
   2   5   4 76.5066 5.00662   3
  -3  -5  -4 2.05802 2.36840   2
  -3  -5  -4 1.23338 2.52221   2
  -3  -5  -4 -5.0137 2.93123   1
   3   5   4 3.95782 2.22924   3
   3   5   4 -4.1981 3.36086   1
   3   5   4 2.43008 2.50011   2
   3   5   4 2.16190 2.60245   2
  -4  -5  -4 150.318 17.5649   1
  -4  -5  -4 146.934 7.64667   2
  -4  -5  -4 137.777 7.66635   2
   4   5   4 139.497 7.82389   2
   4   5   4 141.792 7.94340   2
   4   5   4 136.443 19.1130   1
  -5  -5  -4 0.51934 5.10775   1
  -5  -5  -4 11.3655 3.42341   2
  -5  -5  -4 9.36096 3.75526   2
   5   5   4 7.48289 3.56309   2
   5   5   4 9.87236 3.17885   3
   5   5   4 14.3047 4.36999   2
   5   5   4 9.14411 7.02822   1
  -6  -5  -4 8.95914 3.48899   2
  -6  -5  -4 23.8324 8.63138   1
  -6  -5  -4 15.3097 4.39440   2
   6   5   4 9.68005 3.78370   2
   6   5   4 14.0371 4.33043   2
   6   5   4 15.9837 4.24770   3
   6   5   4 4.06410 7.99908   1
   6   5   4 9.36264 3.36160   3
  -7  -5  -4 10.9223 10.2686   1
  -7  -5  -4 14.5126 4.22910   2
  -7  -5  -4 13.6016 4.82367   2
   7   5   4 15.9128 4.46156   2
   7   5   4 14.8750 4.95321   3
   7   5   4 12.9227 4.73770   2
  -8  -5  -4 51.0837 6.43924   2
  -8  -5  -4 52.2683 14.6542   1
  -8  -5  -4 45.0320 7.50584   2
   8   5   4 38.3927 6.62751   2
   8   5   4 36.4983 6.56311   3
   8   5   4 24.8375 15.8871   1
  -9  -5  -4 4.27918 21.1791   1
  -9  -5  -4 5.27499 3.76470   2
   9   5   4 10.8300 6.41052   3
   9   5   4 3.57063 4.37762   2
 -10  -5  -4 -10.340 4.43336   2
 -10  -5  -4 12.3260 5.11862   2
  10   5   4 0.86620 5.57826   2
  10   5   4 -5.6036 5.20578   3
   7  -6  -4 22.8470 6.44062   2
   7  -6  -4 16.9990 6.01346   3
  -7   6   4 33.9882 7.40935   2
   6  -6  -4 19.3340 5.87913   2
   6  -6  -4 21.9857 6.14095   3
   6  -6  -4 19.7166 5.14114   2
  -6   6   4 24.2968 6.53047   2
  -6   6   4 19.5889 18.8404   1
  -6   6   4 26.6179 21.5396   1
   5  -6  -4 -4.0208 3.50505   2
   5  -6  -4 1.63647 4.52342   3
   5  -6  -4 -2.0162 3.32331   2
  -5   6   4 3.78249 14.0906   1
  -5   6   4 -16.261 12.1652   1
  -5   6   4 -3.7324 3.84591   2
  -5   6   4 2.26713 4.63034   2
   4  -6  -4 65.5879 7.74622   3
   4  -6  -4 65.3257 7.68395   2
   4  -6  -4 65.5017 12.3116   2
  -4   6   4 51.6138 15.5852   1
  -4   6   4 59.6623 7.62952   2
  -4   6   4 62.4079 8.12303   2
  -4   6   4 45.3029 17.2767   1
   3  -6  -4 46.1533 6.38672   2
   3  -6  -4 46.6612 6.25516   3
   3  -6  -4 42.7299 6.07590   2
  -3   6   4 48.9706 7.18691   3
  -3   6   4 40.9447 14.1715   1
  -3   6   4 33.2300 5.67610   2
  -3   6   4 33.0942 11.7649   1
  -3   6   4 44.1019 6.46916   2
   2  -6  -4 65.2746 10.9753   2
   2  -6  -4 78.3449 7.00000   3
   2  -6  -4 88.4981 6.97840   2
  -2   6   4 73.0002 6.88408   2
  -2   6   4 113.451 17.3906   1
  -2   6   4 89.8671 7.35042   2
  -2   6   4 74.0339 21.4574   1
  -2   6   4 80.3355 6.49992   3
   1  -6  -4 62.3425 5.77174   2
   1  -6  -4 63.4436 6.12226   3
   1  -6  -4 60.9419 5.93997   2
  -1   6   4 63.8445 7.12278   2
  -1   6   4 63.8242 12.4086   1
  -1   6   4 54.0238 5.46044   3
  -1   6   4 65.0486 6.01461   2
  -1   6   4 42.3791 10.4639   1
   0  -6  -4 727.547 19.6989   3
   0  -6  -4 750.646 19.9261   2
   0   6   4 762.724 20.3161   2
   0   6   4 748.430 19.6108   3
   0   6   4 720.387 41.0690   1
  -1  -6  -4 3.76414 4.59361   1
  -1  -6  -4 1.53670 4.08045   3
  -1  -6  -4 3.30470 2.54033   2
   1   6   4 4.06029 2.46167   3
   1   6   4 9.75437 5.88396   1
   1   6   4 -0.5075 2.73014   2
   1   6   4 5.53964 2.75079   2
  -2  -6  -4 28.4335 7.35312   1
  -2  -6  -4 21.6885 3.68473   3
  -2  -6  -4 27.1641 3.96494   2
  -2  -6  -4 24.2004 4.06582   2
   2   6   4 24.3404 3.67045   3
   2   6   4 11.9750 5.50411   1
   2   6   4 24.4341 4.00966   2
  -3  -6  -4 199.556 13.4343   2
  -3  -6  -4 188.764 18.9554   1
  -3  -6  -4 209.224 8.88463   2
   3   6   4 220.817 20.8034   1
   3   6   4 213.945 8.86015   3
   3   6   4 227.164 9.38584   2
   3   6   4 212.053 9.14717   2
  -4  -6  -4 0.68629 2.76347   2
  -4  -6  -4 -1.9137 2.52646   2
  -4  -6  -4 -6.2574 3.75250   1
   4   6   4 -2.1784 2.47778   2
   4   6   4 6.86723 3.03554   2
   4   6   4 2.49400 4.54259   1
   4   6   4 -1.9761 2.26071   3
  -5  -6  -4 827.498 45.2705   1
  -5  -6  -4 826.708 22.4090   2
  -5  -6  -4 792.907 22.0943   2
   5   6   4 801.857 21.5111   3
   5   6   4 761.711 44.6764   1
   5   6   4 791.283 22.2438   2
   5   6   4 804.043 22.3825   2
  -6  -6  -4 613.721 19.1316   2
  -6  -6  -4 584.726 39.4850   1
  -6  -6  -4 608.023 19.2871   2
   6   6   4 647.710 19.3194   3
   6   6   4 621.651 18.7898   3
   6   6   4 624.391 19.7389   2
   6   6   4 590.270 19.4855   2
   6   6   4 583.753 41.5342   1
  -7  -6  -4 5.23661 3.36502   2
  -7  -6  -4 -4.6173 8.49882   1
  -7  -6  -4 9.93162 4.49054   2
   7   6   4 9.95028 4.72130   3
   7   6   4 -2.2369 13.3553   1
   7   6   4 4.60817 4.09120   3
   7   6   4 -0.3843 3.28518   2
   7   6   4 8.85918 3.96192   2
  -8  -6  -4 2.51034 3.97343   2
  -8  -6  -4 -0.5788 11.7342   1
  -8  -6  -4 -4.5477 2.74230   2
   8   6   4 6.94256 4.66907   3
   8   6   4 3.36891 4.51403   2
   8   6   4 26.1505 17.1119   1
  -9  -6  -4 -3.0872 2.79274   2
  -9  -6  -4 8.74531 5.41128   2
   9   6   4 0.02916 3.76441   2
   9   6   4 4.31961 5.37312   3
 -10  -6  -4 7.22113 4.70985   2
 -10  -6  -4 -0.4340 5.10348   2
  10   6   4 8.52229 5.76781   3
  10   6   4 9.09735 4.74698   2
   7  -7  -4 -6.0159 7.28831   3
   7  -7  -4 -3.3219 4.74639   2
  -7   7   4 -6.8744 5.51398   2
   6  -7  -4 -1.1564 4.44224   3
   6  -7  -4 1.64034 4.14224   2
   6  -7  -4 -4.3070 5.01861   2
  -6   7   4 0.72919 4.68948   2
   5  -7  -4 30.8517 6.47758   2
   5  -7  -4 42.0112 6.37161   2
   5  -7  -4 33.9826 6.85754   3
  -5   7   4 41.3408 6.85399   2
  -5   7   4 43.5422 18.7658   1
  -5   7   4 40.6780 7.40690   2
   4  -7  -4 72.8354 8.50757   3
   4  -7  -4 78.3190 9.15746   2
   4  -7  -4 97.1391 9.58185   2
  -4   7   4 72.1508 17.8769   1
  -4   7   4 78.8157 9.06453   2
  -4   7   4 63.9161 7.76801   2
  -4   7   4 60.9798 20.0202   1
   3  -7  -4 107.874 8.97883   2
   3  -7  -4 110.254 8.84658   3
   3  -7  -4 101.792 8.65102   2
  -3   7   4 120.223 9.10389   2
  -3   7   4 102.774 21.0137   1
  -3   7   4 111.430 9.05681   2
  -3   7   4 132.788 11.6143   3
  -3   7   4 88.7534 19.8385   1
   2  -7  -4 141.532 9.17777   2
   2  -7  -4 119.941 8.70689   3
   2  -7  -4 141.240 8.84391   2
  -2   7   4 132.614 8.92465   2
  -2   7   4 136.856 11.1009   3
  -2   7   4 125.896 8.87897   2
  -2   7   4 112.401 20.1252   1
  -2   7   4 127.304 21.0061   1
   1  -7  -4 17.4721 4.40692   3
   1  -7  -4 14.2728 4.17288   2
   1  -7  -4 23.9621 4.51234   2
  -1   7   4 19.5044 4.09885   3
  -1   7   4 17.1553 7.49988   1
  -1   7   4 19.7193 4.44704   2
  -1   7   4 14.3337 4.06509   2
  -1   7   4 2.91170 7.08853   1
   0  -7  -4 33.3815 5.06675   3
   0  -7  -4 37.3914 4.85515   2
   0  -7  -4 46.4747 5.96647   2
   0   7   4 30.4212 8.34921   1
   0   7   4 45.7607 5.52196   2
   0   7   4 36.0118 4.99445   2
   0   7   4 30.6313 10.0399   1
   0   7   4 43.1165 5.09856   3
  -1  -7  -4 383.116 13.4428   3
  -1  -7  -4 408.750 29.4283   1
  -1  -7  -4 385.096 13.0737   2
  -1  -7  -4 395.701 13.4234   2
   1   7   4 408.029 13.5630   2
   1   7   4 383.634 13.3513   2
   1   7   4 357.883 28.6207   1
   1   7   4 383.058 13.1491   3
  -2  -7  -4 47.5923 11.5903   1
  -2  -7  -4 61.3958 5.23713   2
  -2  -7  -4 55.8452 5.42144   2
  -2  -7  -4 57.4413 5.67482   3
   2   7   4 56.3728 5.33646   3
   2   7   4 52.5147 5.66381   2
   2   7   4 44.7329 5.16857   2
   2   7   4 65.8479 12.5770   1
  -3  -7  -4 7.31309 5.27243   1
  -3  -7  -4 11.6849 3.76062   2
   3   7   4 12.0262 5.69882   1
   3   7   4 8.89007 3.11212   3
   3   7   4 5.05734 3.37819   2
   3   7   4 2.68347 2.84446   2
  -4  -7  -4 -0.9994 3.14752   2
  -4  -7  -4 -2.6721 5.13953   1
   4   7   4 9.98539 3.52827   2
   4   7   4 6.16260 3.15325   3
   4   7   4 3.39280 7.02470   1
   4   7   4 2.43026 2.89304   2
  -5  -7  -4 7.44015 4.05069   2
  -5  -7  -4 4.51349 5.71563   1
   5   7   4 4.29040 3.54255   2
   5   7   4 -0.8919 3.23930   2
   5   7   4 -1.3490 2.82047   3
   5   7   4 -6.3135 6.53970   1
  -6  -7  -4 41.7917 9.71880   2
  -6  -7  -4 45.3072 6.46125   2
   6   7   4 43.8484 10.1224   2
   6   7   4 40.4401 12.7939   1
   6   7   4 35.5084 5.73476   2
   6   7   4 40.2509 5.54017   3
  -7  -7  -4 8.74373 4.19127   2
  -7  -7  -4 25.5112 10.7417   1
  -7  -7  -4 6.68301 3.49405   2
   7   7   4 3.35172 4.19102   3
   7   7   4 14.1325 11.3243   1
   7   7   4 8.48174 3.88055   3
   7   7   4 8.49373 4.14346   2
  -8  -7  -4 29.5083 4.72241   2
  -8  -7  -4 34.3320 5.95883   2
   8   7   4 21.8834 5.12530   2
   8   7   4 29.8395 6.36855   3
   8   7   4 20.8067 14.5829   1
  -9  -7  -4 24.0269 4.44395   2
  -9  -7  -4 21.0687 6.05408   2
   9   7   4 27.4291 6.66346   3
   9   7   4 19.6519 5.27227   2
 -10  -7  -4 15.0331 5.82749   2
 -10  -7  -4 8.26144 4.69811   2
  10   7   4 -0.2015 5.71141   3
  10   7   4 4.64454 4.73470   2
   6  -8  -4 6.80661 5.27904   3
   6  -8  -4 7.29362 5.11478   2
  -6   8   4 -5.0404 5.07750   2
   5  -8  -4 32.3734 6.00903   2
   5  -8  -4 52.1783 8.02617   3
   5  -8  -4 34.4794 6.86605   2
  -5   8   4 39.2415 7.42300   2
   4  -8  -4 37.4991 6.93862   3
   4  -8  -4 25.7527 5.99988   2
   4  -8  -4 28.6494 5.40876   2
  -4   8   4 34.6623 8.69544   2
  -4   8   4 29.4660 17.1144   1
  -4   8   4 25.2215 16.7355   1
   3  -8  -4 9.52267 4.05601   2
   3  -8  -4 2.05375 4.32463   3
   3  -8  -4 -1.4182 3.47131   2
  -3   8   4 2.57615 4.04856   2
  -3   8   4 3.28110 4.30028   2
  -3   8   4 26.5351 12.3099   1
   2  -8  -4 2.88037 3.06913   2
   2  -8  -4 5.78282 4.04654   2
   2  -8  -4 2.65119 3.94744   3
  -2   8   4 2.73184 3.82089   2
  -2   8   4 -11.661 7.92706   1
  -2   8   4 14.9593 9.63842   1
  -2   8   4 -1.0766 3.58444   2
   1  -8  -4 4.71986 3.77660   2
   1  -8  -4 11.7124 3.83334   2
   1  -8  -4 7.39480 4.05013   3
  -1   8   4 8.10201 3.70157   2
  -1   8   4 9.71658 8.65539   1
  -1   8   4 12.1287 3.83311   3
  -1   8   4 2.03299 8.22330   1
  -1   8   4 14.5352 4.66489   2
   0  -8  -4 80.1855 6.89548   2
   0  -8  -4 70.4511 6.36130   2
   0  -8  -4 69.7232 7.02527   3
   0   8   4 65.9566 6.40524   3
   0   8   4 65.5906 6.53614   2
   0   8   4 48.9721 12.2459   1
   0   8   4 66.3922 6.26116   2
   0   8   4 51.6147 13.3669   1
  -1  -8  -4 15.9319 3.92463   2
  -1  -8  -4 21.5389 4.62834   3
  -1  -8  -4 22.0318 4.53484   2
   1   8   4 19.6999 9.35733   1
   1   8   4 19.3936 4.08376   3
   1   8   4 19.6402 4.38418   2
  -2  -8  -4 205.168 9.92563   2
  -2  -8  -4 205.772 10.0641   3
   2   8   4 179.532 9.25812   2
   2   8   4 193.043 9.87626   2
   2   8   4 186.879 20.9479   1
   2   8   4 184.215 9.56495   3
  -3  -8  -4 156.005 9.00775   3
  -3  -8  -4 152.026 8.62557   2
   3   8   4 144.371 18.7851   1
   3   8   4 152.819 8.65560   3
   3   8   4 143.674 8.52449   2
   3   8   4 158.926 8.58111   2
  -4  -8  -4 -1.2670 4.12324   1
  -4  -8  -4 5.62485 2.30880   2
  -4  -8  -4 10.2100 3.96109   2
   4   8   4 14.2966 4.91060   2
   4   8   4 2.85476 6.00563   1
   4   8   4 12.4930 3.74109   2
   4   8   4 4.87205 3.23347   3
  -5  -8  -4 199.874 10.0975   2
  -5  -8  -4 153.997 8.39814   2
   5   8   4 192.804 15.1466   2
   5   8   4 178.351 11.7900   2
   5   8   4 190.180 22.3964   1
   5   8   4 178.549 10.1357   3
  -6  -8  -4 305.744 12.9363   2
   6   8   4 296.147 13.1637   2
   6   8   4 255.341 14.4496   2
   6   8   4 305.767 13.0922   3
   6   8   4 256.080 27.1940   1
  -7  -8  -4 -0.5359 8.75645   1
  -7  -8  -4 3.86469 3.52576   2
  -7  -8  -4 -2.3252 1.74201   2
   7   8   4 4.08380 3.71275   2
   7   8   4 5.61985 4.43050   3
  -8  -8  -4 -2.7005 3.32155   2
   8   8   4 -10.691 13.8115   1
   8   8   4 2.99212 3.68548   2
   8   8   4 4.12330 4.97853   3
  -9  -8  -4 6.25909 4.56573   2
  -9  -8  -4 -1.9080 2.63990   2
   9   8   4 -8.4321 3.35629   2
   9   8   4 0.88982 4.63050   3
 -10  -8  -4 -3.7896 4.73754   2
  10   8   4 -6.5160 5.38087   3
   5  -9  -4 3.22280 5.13219   3
   5  -9  -4 -7.6284 3.41594   2
  -5   9   4 -6.8343 4.49047   2
   4  -9  -4 4.72781 3.78561   2
   4  -9  -4 0.47778 5.70297   2
   4  -9  -4 5.15146 4.91619   3
  -4   9   4 8.94470 8.02043   2
   3  -9  -4 44.3843 6.50770   2
   3  -9  -4 36.2730 6.67494   2
   3  -9  -4 34.9997 6.54024   3
  -3   9   4 34.6719 6.78980   2
  -3   9   4 40.9471 19.4129   1
   2  -9  -4 93.4724 8.49564   2
   2  -9  -4 111.641 9.48993   3
   2  -9  -4 103.738 7.93660   2
  -2   9   4 96.7929 8.81143   2
  -2   9   4 90.8386 21.0934   1
  -2   9   4 85.3178 22.0069   1
   1  -9  -4 519.743 18.4028   2
   1  -9  -4 536.964 19.1469   3
   1  -9  -4 524.795 18.3974   2
  -1   9   4 513.196 18.5289   2
  -1   9   4 481.412 41.5791   1
  -1   9   4 522.405 18.9354   2
  -1   9   4 491.557 45.0132   1
   0  -9  -4 399.701 15.2336   2
   0  -9  -4 391.836 15.0461   2
   0  -9  -4 381.383 15.4772   3
   0   9   4 353.124 33.5062   1
   0   9   4 411.869 36.3877   1
   0   9   4 379.577 15.1165   2
   0   9   4 392.603 15.2981   3
  -1  -9  -4 62.5563 7.22071   3
  -1  -9  -4 69.0033 6.70544   2
   1   9   4 51.1416 14.9234   1
   1   9   4 63.5747 6.35146   3
   1   9   4 52.5657 11.9982   1
   1   9   4 73.6398 6.71592   2
   1   9   4 71.8334 6.89375   2
  -2  -9  -4 200.184 9.77211   2
  -2  -9  -4 248.474 11.8653   3
  -2  -9  -4 239.540 11.1050   2
   2   9   4 218.991 12.8903   2
   2   9   4 240.439 11.5363   2
   2   9   4 256.708 25.5697   1
  -3  -9  -4 7.97164 4.15440   3
  -3  -9  -4 16.2295 3.76544   2
  -3  -9  -4 16.2497 3.90421   2
  -3  -9  -4 10.5513 7.29573   1
   3   9   4 5.09759 8.61512   1
   3   9   4 10.4671 3.97169   2
  -4  -9  -4 197.104 9.95738   2
  -4  -9  -4 199.652 9.75189   2
  -4  -9  -4 152.597 19.6293   1
   4   9   4 203.847 10.5977   3
   4   9   4 179.618 9.77772   2
   4   9   4 197.707 22.9703   1
   4   9   4 177.979 9.53421   2
  -5  -9  -4 1.80727 3.60444   2
  -5  -9  -4 -5.8082 6.82833   1
  -5  -9  -4 3.83158 2.96581   2
   5   9   4 6.45757 3.86954   2
   5   9   4 3.18865 4.21498   2
   5   9   4 -5.6452 8.90200   1
   5   9   4 4.67475 3.44662   3
  -6  -9  -4 5.50702 3.06444   2
  -6  -9  -4 0.59228 3.62266   2
  -6  -9  -4 18.4059 9.11888   1
   6   9   4 -8.8127 8.91696   1
   6   9   4 3.52775 3.37322   2
  -7  -9  -4 0.44919 2.86596   2
  -7  -9  -4 -13.196 10.8504   1
   7   9   4 -17.028 10.0981   1
   7   9   4 4.11777 3.65815   2
  -8  -9  -4 17.5514 4.47407   2
  -8  -9  -4 26.3562 5.73350   2
   8   9   4 19.7940 5.81835   3
   8   9   4 15.3138 4.75571   2
  -9  -9  -4 -1.6178 3.59433   2
  -9  -9  -4 -3.6971 3.95991   2
   9   9   4 4.31828 5.15677   3
   9   9   4 -0.0913 4.02926   2
 -10  -9  -4 11.0358 7.67362   2
  10   9   4 8.25546 6.90270   3
   5 -10  -4 -0.6966 4.89280   3
   5 -10  -4 -2.4303 4.81075   2
  -5  10   4 6.45564 5.97247   2
   4 -10  -4 5.19443 4.62550   2
   4 -10  -4 -4.7065 3.70556   2
   4 -10  -4 3.55167 4.92639   3
   3 -10  -4 6.07273 3.73475   2
   3 -10  -4 7.47798 4.99453   2
   3 -10  -4 4.22042 4.49955   3
  -3  10   4 -2.7429 3.89393   2
   2 -10  -4 -1.4453 3.83101   3
   2 -10  -4 -0.8217 2.86474   2
  -2  10   4 3.21947 4.45957   2
  -2  10   4 25.1905 22.4141   1
   1 -10  -4 1.69432 3.21957   2
   1 -10  -4 -2.3403 3.70535   2
   1 -10  -4 -1.3522 5.92292   3
  -1  10   4 0.23980 3.33166   2
   0 -10  -4 74.6319 8.45147   3
   0 -10  -4 68.7169 7.29204   2
   0  10   4 66.8193 17.5896   1
   0  10   4 67.6601 6.85581   2
  -1 -10  -4 56.8801 6.47136   2
  -1 -10  -4 62.7456 5.60099   2
  -1 -10  -4 60.7175 7.67963   3
   1  10   4 40.5753 14.1964   1
   1  10   4 56.9975 10.9957   2
  -2 -10  -4 73.6208 6.43376   2
  -2 -10  -4 84.4551 7.51128   2
  -2 -10  -4 73.9744 7.67456   3
   2  10   4 65.7162 16.3194   1
   2  10   4 100.344 8.12927   2
  -3 -10  -4 54.1615 5.88469   2
  -3 -10  -4 62.4002 6.57652   2
  -3 -10  -4 55.6210 7.13445   3
   3  10   4 69.7091 6.76233   2
   3  10   4 37.7337 11.7534   1
  -4 -10  -4 1.79381 2.96662   2
  -4 -10  -4 0.20667 3.20959   2
  -4 -10  -4 22.8903 12.2590   1
   4  10   4 20.6998 11.5292   1
   4  10   4 -1.4636 2.86957   2
  -5 -10  -4 18.9963 12.7961   1
  -5 -10  -4 5.99722 3.60219   2
  -5 -10  -4 8.04309 3.32086   2
   5  10   4 6.93479 3.80306   2
   5  10   4 -2.8988 9.86957   1
  -6 -10  -4 45.6635 14.7423   1
  -6 -10  -4 39.0483 5.57133   2
   6  10   4 41.9406 13.9811   1
   6  10   4 55.4652 6.43861   2
  -7 -10  -4 10.9476 4.25735   2
  -7 -10  -4 12.5461 3.62625   2
  -7 -10  -4 37.2770 14.8237   1
   7  10   4 6.61724 4.28245   2
   7  10   4 38.6044 15.0683   1
  -8 -10  -4 2.23448 3.11590   2
  -8 -10  -4 -3.1045 3.46352   2
   8  10   4 1.86150 5.15700   3
   8  10   4 -4.2072 3.27764   2
  -9 -10  -4 10.0456 4.59105   2
  -9 -10  -4 18.6627 4.57755   2
   9  10   4 25.0374 7.12064   3
 -10 -10  -4 5.44638 4.76417   2
  10  10   4 5.46031 10.9277   3
   4 -11  -4 4.54122 4.66367   2
   4 -11  -4 6.03880 5.58561   3
   3 -11  -4 -0.0606 5.69807   2
   3 -11  -4 -5.7515 4.18909   3
   3 -11  -4 2.72064 4.06949   2
  -3  11   4 5.05720 4.88844   2
   2 -11  -4 2.98014 3.87414   2
   2 -11  -4 -0.7895 3.62083   2
   2 -11  -4 5.24395 4.86746   3
  -2  11   4 14.7274 5.06490   2
   1 -11  -4 25.1677 6.12230   3
   1 -11  -4 30.1107 5.91258   2
  -1  11   4 24.6802 5.60218   2
   0 -11  -4 29.0261 5.71467   2
   0 -11  -4 23.7220 5.84693   3
   0 -11  -4 27.6724 4.52884   2
   0  11   4 37.8742 14.2587   1
   0  11   4 17.8620 5.80807   2
  -1 -11  -4 23.4778 6.97165   3
  -1 -11  -4 24.0023 4.38285   2
   1  11   4 23.9910 13.1781   1
   1  11   4 24.4452 5.13793   2
  -2 -11  -4 33.6878 6.22304   2
  -2 -11  -4 33.6716 9.03191   3
  -2 -11  -4 31.6410 5.19911   2
   2  11   4 24.8349 5.22454   2
   2  11   4 22.8343 14.6618   1
  -3 -11  -4 14.4788 4.97790   3
  -3 -11  -4 7.84740 3.51755   2
  -3 -11  -4 6.80127 4.13609   2
   3  11   4 16.8654 4.54449   2
   3  11   4 10.4815 10.5581   1
  -4 -11  -4 2.19714 2.98174   2
  -4 -11  -4 9.12182 9.00638   1
   4  11   4 14.5033 9.28627   1
   4  11   4 1.83994 3.47808   2
  -5 -11  -4 3.74346 3.55844   2
  -5 -11  -4 -4.7588 9.06800   1
  -5 -11  -4 4.77430 3.26137   2
   5  11   4 22.3074 12.6489   1
   5  11   4 3.82231 3.85762   2
  -6 -11  -4 -0.8478 3.19886   2
  -6 -11  -4 -2.0520 10.7388   1
  -6 -11  -4 -1.2054 2.84384   2
   6  11   4 1.06521 3.62567   2
   6  11   4 10.7826 13.5334   1
  -7 -11  -4 6.16524 3.90699   2
  -7 -11  -4 6.09661 3.27558   2
   7  11   4 -1.4229 3.75118   2
  -8 -11  -4 6.82263 4.54014   2
   8  11   4 9.14381 5.82273   3
   8  11   4 2.11605 4.64338   2
  -9 -11  -4 38.5077 8.29101   2
   9  11   4 37.8363 8.63886   3
   2 -12  -4 5.22771 4.86010   3
   2 -12  -4 10.6257 5.19383   2
   1 -12  -4 4.98371 4.43420   2
   1 -12  -4 5.32185 3.23014   2
   1 -12  -4 5.08634 4.79643   3
  -1  12   4 -3.0184 4.39831   2
   0 -12  -4 3.08856 4.29248   2
   0 -12  -4 2.39683 4.72118   3
   0 -12  -4 -5.2455 2.91621   2
   0  12   4 10.4310 4.35676   2
  -1 -12  -4 47.0707 6.68867   2
  -1 -12  -4 43.5043 5.47963   2
  -1 -12  -4 38.4824 6.87480   3
   1  12   4 65.5946 7.33191   2
  -2 -12  -4 9.84511 3.49627   2
  -2 -12  -4 5.93463 3.79416   2
  -2 -12  -4 7.06820 4.56877   3
   2  12   4 13.9437 4.77973   2
  -3 -12  -4 3.97471 3.24769   2
  -3 -12  -4 0.49222 3.23835   2
   3  12   4 4.30157 13.9585   1
   3  12   4 2.22703 3.68089   2
  -4 -12  -4 10.5072 4.20940   2
  -4 -12  -4 15.8059 4.20594   2
   4  12   4 19.6700 4.64860   2
  -5 -12  -4 2.55508 3.47177   2
   5  12   4 2.24523 4.39065   2
  -6 -12  -4 27.6471 6.75745   2
  -6 -12  -4 21.6593 4.96209   2
   6  12   4 22.9686 8.44892   2
  -7 -12  -4 2.49865 4.10776   2
  -7 -12  -4 2.01858 3.20315   2
   7  12   4 12.2904 8.22132   2
  -8 -12  -4 7.77389 5.33125   2
  -8 -12  -4 7.04026 3.84202   2
   1 -13  -4 1.60583 5.13825   3
   1 -13  -4 0.72157 6.00383   2
   0 -13  -4 7.21415 4.65625   2
   0 -13  -4 1.12374 4.30655   2
   0 -13  -4 4.49784 5.24139   3
  -1 -13  -4 -1.2273 3.86383   2
  -1 -13  -4 2.31340 3.61685   2
  -1 -13  -4 4.62181 4.75202   3
   1  13   4 15.9343 7.11531   2
  -2 -13  -4 3.45338 3.90398   2
  -2 -13  -4 2.20358 4.79372   3
   2  13   4 4.05786 4.61783   2
  -3 -13  -4 18.1710 4.66966   2
   3  13   4 21.9388 5.89956   2
  -4 -13  -4 8.68939 4.71546   2
  -4 -13  -4 2.41612 3.86155   2
  -5 -13  -4 25.9365 5.34523   2
   5  13   4 29.0570 8.26885   2
  -6 -13  -4 29.5282 4.88159   2
  -6 -13  -4 26.6885 5.23197   2
  -7 -13  -4 54.2329 6.70383   2
  -1 -14  -4 0.39019 3.74434   2
  -1 -14  -4 -1.7716 4.55278   3
  -2 -14  -4 0.93250 5.99228   3
  -2 -14  -4 -0.5775 3.83059   2
  -3 -14  -4 40.4611 5.59573   2
  -4 -14  -4 3.42338 3.30931   2
  -5 -14  -4 0.24391 3.24541   2
  -6 -14  -4 110.365 8.34239   2
   5  11  -5 1.34383 4.16295   3
   7  10  -5 36.2215 8.69466   3
   6  10  -5 7.83751 5.65703   3
   5  10  -5 3.20691 3.93204   3
   7   9  -5 7.47554 5.69933   3
   6   9  -5 6.16566 4.55431   3
   5   9  -5 4.27383 3.97978   3
   1  -9   5 -1.7860 1.70574   2
   2  -9   5 19.8140 3.56234   2
   2  -9   5 15.7800 3.80668   2
   3  -9   5 0.78632 3.40474   2
   3  -9   5 -3.5650 3.17249   2
   3  -9   5 -3.8413 2.93921   3
   8   8  -5 -3.1022 5.55145   3
   7   8  -5 17.7807 6.16671   3
   6   8  -5 3.23678 4.15605   3
   5   8  -5 7.86023 4.53678   3
   4   8  -5 7.37791 4.03074   3
   3   8  -5 159.953 9.26428   3
   2   8  -5 4.10777 3.04512   3
   1   8  -5 -1.1353 2.90207   3
   0   8  -5 12.7429 3.43044   3
  -1   8  -5 85.2451 5.60014   2
  -1   8  -5 64.0177 12.6651   1
  -1   8  -5 97.1269 11.2868   3
   1  -8   5 73.6933 5.00741   2
   1  -8   5 75.5865 5.01245   2
  -2   8  -5 3.81613 3.18686   2
  -2   8  -5 -1.2836 2.96441   3
   2  -8   5 3.33875 2.69430   3
   2  -8   5 2.47204 2.74580   2
   3  -8   5 0.60617 2.58303   3
   3  -8   5 4.41364 3.38419   2
   4  -8   5 11.5777 3.50043   3
   4  -8   5 -1.3754 4.03059   2
   9   7  -5 -0.0191 9.11018   3
   8   7  -5 2.46147 5.83990   3
   7   7  -5 63.5623 8.94494   3
   6   7  -5 -2.5709 4.30578   3
   5   7  -5 3.91860 3.84336   3
   4   7  -5 406.526 15.5218   3
   4   7  -5 433.813 15.9537   3
   3   7  -5 147.570 8.61682   3
   2   7  -5 53.4427 5.44652   3
   1   7  -5 73.1385 5.79968   3
   0   7  -5 37.9039 6.90556   1
   0   7  -5 29.6210 4.07378   3
   0   7  -5 40.3127 3.35586   2
   0  -7   5 34.5679 2.48592   2
   0  -7   5 40.9694 2.54785   2
  -1   7  -5 0.44795 2.28874   3
  -1   7  -5 -1.3556 2.26302   2
   1  -7   5 1.85281 2.16047   2
  -2   7  -5 6.87712 5.54469   2
  -2   7  -5 20.7987 3.91721   3
   2  -7   5 13.1583 3.47558   3
   2  -7   5 22.9362 6.41970   2
   2  -7   5 12.5087 3.50145   2
  -3   7  -5 9.12335 4.27718   2
  -3   7  -5 11.5684 3.69389   3
   3  -7   5 5.53292 3.66477   2
   3  -7   5 6.46207 2.93928   3
  -4   7  -5 5.04707 4.52961   3
  -4   7  -5 2.30139 4.72002   2
   4  -7   5 1.69989 2.74127   3
   4  -7   5 -3.0072 3.27606   2
   4  -7   5 3.76996 4.05411   2
   5  -7   5 -5.8810 4.62216   2
   5  -7   5 4.31406 2.92954   3
   9   6  -5 10.5331 7.33349   3
  -9  -6   5 2.71748 3.32970   2
  -9  -6   5 2.28944 2.16732   2
   8   6  -5 -2.1378 5.63705   3
  -8  -6   5 -0.4705 1.08221   2
   7   6  -5 -7.2587 4.40319   3
   6   6  -5 0.68786 4.41456   3
   5   6  -5 7.95423 4.40014   3
   5   6  -5 11.2566 3.99999   3
   4   6  -5 17.0927 4.15412   3
   4   6  -5 21.4491 4.82560   3
   3   6  -5 0.24637 2.54513   3
   2   6  -5 124.396 7.37990   3
   1   6  -5 171.580 8.08258   3
   0   6  -5 47.1359 3.70091   2
   0   6  -5 50.1821 3.71940   2
   0   6  -5 41.8335 4.40130   3
   0   6  -5 56.0857 9.06002   1
   0  -6   5 45.0298 3.15292   2
  -1   6  -5 35.4636 4.27018   3
  -1   6  -5 29.3043 9.58257   1
   1  -6   5 28.6460 7.62857   1
   1  -6   5 33.9383 4.24362   2
  -2   6  -5 16.0718 3.46712   3
  -2   6  -5 16.9418 3.97726   2
   2  -6   5 17.0450 3.25939   3
   2  -6   5 5.30686 3.26607   2
   2  -6   5 10.3295 3.27636   2
  -3   6  -5 10.4797 3.34057   3
  -3   6  -5 11.7596 3.87406   2
   3  -6   5 7.29298 3.53374   2
   3  -6   5 7.79240 3.80034   2
   3  -6   5 9.28058 3.15510   3
  -4   6  -5 6.79281 3.86756   2
  -4   6  -5 10.6623 4.02378   3
   4  -6   5 10.3045 3.88616   2
   4  -6   5 6.09139 2.80963   3
   4  -6   5 9.47359 4.27338   2
  -5   6  -5 -1.6443 3.32351   3
  -5   6  -5 5.46905 4.87659   2
   5  -6   5 -3.7566 4.15570   2
   5  -6   5 2.01168 3.71447   2
   5  -6   5 1.80986 2.65200   3
   6  -6   5 9.98438 8.97826   2
   9   5  -5 4.26566 6.38425   3
  -9  -5   5 9.13035 3.25426   2
  -9  -5   5 3.44915 2.80738   2
   8   5  -5 58.2206 7.43064   2
   8   5  -5 45.8886 8.39107   3
  -8  -5   5 51.9454 14.3826   1
  -8  -5   5 46.8604 4.62053   2
  -8  -5   5 48.7243 4.86668   2
   7   5  -5 37.0981 4.05594   2
   7   5  -5 38.1857 8.28743   3
  -7  -5   5 32.4640 5.21019   2
  -7  -5   5 41.6062 3.79308   2
  -7  -5   5 32.5759 9.34218   1
   6   5  -5 6.84644 5.07202   3
   6   5  -5 5.32557 1.82842   2
  -6  -5   5 4.42380 4.24342   1
  -6  -5   5 4.33495 4.29171   1
   5   5  -5 1.25636 4.13182   3
   4   5  -5 67.8721 6.80070   3
   4   5  -5 68.6682 6.25161   3
   3   5  -5 87.8701 6.28226   3
   3   5  -5 83.5137 6.41141   3
   2   5  -5 28.6240 4.00091   3
   1   5  -5 2.08271 2.31736   3
   0   5  -5 6.24641 4.19477   1
   0   5  -5 11.0064 2.52590   3
   0   5  -5 6.17752 2.02385   2
   0  -5   5 1.35979 1.72031   2
  -1   5  -5 19.3035 2.93959   3
  -1   5  -5 17.9296 3.74603   2
  -1   5  -5 14.4734 3.05836   2
  -1   5  -5 11.7356 7.42399   1
   1  -5   5 16.0133 3.17184   2
   1  -5   5 14.0461 6.60523   1
   1  -5   5 19.4840 3.28594   2
  -2   5  -5 112.337 9.94808   2
  -2   5  -5 85.3993 15.9016   1
  -2   5  -5 112.442 7.10499   2
   2  -5   5 111.917 9.01583   3
   2  -5   5 81.9035 14.2712   1
   2  -5   5 103.987 6.91773   2
   2  -5   5 100.980 6.75142   2
  -3   5  -5 12.5864 3.20456   3
  -3   5  -5 9.19972 3.72155   2
   3  -5   5 11.7333 3.28570   3
   3  -5   5 8.53585 3.97253   2
   3  -5   5 10.5046 3.68583   2
  -4   5  -5 36.9566 5.73290   2
  -4   5  -5 42.5898 5.12289   3
   4  -5   5 46.7806 6.22950   2
   4  -5   5 29.7330 4.03592   3
  -5   5  -5 5.55459 4.34703   2
  -5   5  -5 13.8504 3.96012   3
   5  -5   5 12.3229 3.25571   3
   5  -5   5 14.6838 5.56403   2
  -6   5  -5 -0.4484 4.44594   2
   6  -5   5 4.02002 5.02250   2
   6  -5   5 5.24883 3.61102   2
   6  -5   5 5.10754 3.11743   3
   7  -5   5 24.6017 10.5884   2
   7  -5   5 16.0607 4.82876   3
  10   4  -5 36.1292 8.59146   3
 -10  -4   5 18.0080 4.86631   2
 -10  -4   5 10.6047 4.59198   2
   9   4  -5 -0.8700 5.88988   3
  -9  -4   5 6.54962 3.24214   2
  -9  -4   5 5.68907 3.77546   2
   8   4  -5 0.15182 5.76548   3
   8   4  -5 2.55425 3.00302   2
  -8  -4   5 1.17879 2.82937   2
  -8  -4   5 1.24230 2.53250   2
  -8  -4   5 -0.7623 10.2903   1
   7   4  -5 70.1754 5.63778   2
   7   4  -5 56.7781 8.27258   3
  -7  -4   5 58.2512 5.26741   2
  -7  -4   5 45.2391 11.5043   1
  -7  -4   5 61.3558 7.85327   2
   6   4  -5 22.9633 5.98957   3
   6   4  -5 19.2298 3.21618   2
  -6  -4   5 20.1635 3.07205   2
  -6  -4   5 12.1422 5.85876   1
  -6  -4   5 22.1163 3.15482   2
  -6  -4   5 6.15887 6.06236   1
   5   4  -5 2.58708 4.17385   3
   5   4  -5 2.51751 1.86110   2
   5   4  -5 1.67368 2.05711   2
  -5  -4   5 1.12463 3.59780   1
  -5  -4   5 1.55608 1.50408   2
  -5  -4   5 4.79228 3.76264   1
  -5  -4   5 1.44545 1.58177   2
   4   4  -5 4.24273 1.12485   2
   4   4  -5 1.75613 3.30569   3
   4   4  -5 3.40907 0.96337   2
   3   4  -5 54.5285 5.18776   3
   3   4  -5 52.1463 5.38945   3
   2   4  -5 23.9855 3.44663   3
   2   4  -5 28.7366 3.75457   3
   1   4  -5 183.323 8.35500   1
   1   4  -5 179.608 7.04974   3
   1   4  -5 172.611 4.83010   2
  -1  -4   5 188.797 8.49241   1
   0   4  -5 0.43009 1.56576   2
   0   4  -5 0.43189 1.69988   2
   0   4  -5 -2.6384 3.12617   1
   0   4  -5 0.16918 1.59209   3
   0  -4   5 0.50407 1.61398   2
   0  -4   5 -0.9920 1.66154   2
   0  -4   5 2.51902 2.59928   1
  -1   4  -5 14.7849 2.39150   3
  -1   4  -5 9.35114 5.45443   1
  -1   4  -5 21.1606 3.37469   2
  -1   4  -5 22.1908 3.30339   2
   1  -4   5 23.6373 3.39747   2
   1  -4   5 19.0255 3.31431   2
   1  -4   5 7.84583 5.52109   1
  -2   4  -5 291.237 24.4275   1
  -2   4  -5 267.649 10.6396   2
  -2   4  -5 280.454 11.8221   2
  -2   4  -5 279.257 8.99121   3
   2  -4   5 277.490 10.6294   2
   2  -4   5 270.551 10.6731   2
   2  -4   5 285.672 8.92825   3
   2  -4   5 260.438 23.0441   1
  -3   4  -5 920.886 24.7988   2
  -3   4  -5 813.143 48.4998   1
  -3   4  -5 909.119 21.3989   3
  -3   4  -5 930.818 24.7790   2
   3  -4   5 881.412 24.3157   2
   3  -4   5 911.885 49.9003   1
   3  -4   5 952.981 24.6747   2
   3  -4   5 895.632 21.2237   3
  -4   4  -5 8.49108 6.56034   2
  -4   4  -5 6.64732 2.91553   3
   4  -4   5 8.33390 9.11473   1
   4  -4   5 6.55437 3.93919   2
   4  -4   5 12.7700 3.27872   2
   4  -4   5 7.85886 4.04048   3
  -5   4  -5 31.3231 4.42727   3
  -5   4  -5 18.8142 5.46580   2
   5  -4   5 30.1867 4.22843   3
   5  -4   5 28.2626 8.88808   2
   5  -4   5 24.9297 5.44086   2
  -6   4  -5 33.3792 8.08739   3
  -6   4  -5 19.5078 5.27562   2
   6  -4   5 30.7287 6.84776   2
   6  -4   5 14.4902 3.49113   3
   6  -4   5 18.2561 4.73747   2
  -7   4  -5 11.5059 5.82033   2
   7  -4   5 20.9565 5.95699   2
   7  -4   5 16.2110 3.71994   3
  10   3  -5 8.79103 6.49356   3
 -10  -3   5 7.52615 4.49367   2
 -10  -3   5 -1.1251 5.23076   2
   9   3  -5 3.93219 6.43174   3
  -9  -3   5 14.9525 4.83971   2
   8   3  -5 15.4903 6.56927   3
  -8  -3   5 7.28234 3.85615   2
  -8  -3   5 27.8827 13.9650   1
   7   3  -5 5.21550 5.55535   3
  -7  -3   5 1.86327 2.96372   2
  -7  -3   5 -8.3985 6.55003   1
  -7  -3   5 -0.6035 2.86823   2
   6   3  -5 5.67083 4.93408   3
   6   3  -5 3.09100 2.68928   2
  -6  -3   5 1.09907 2.46278   2
  -6  -3   5 12.7868 7.06352   1
  -6  -3   5 6.03279 6.24629   1
  -6  -3   5 3.40988 2.57008   2
   5   3  -5 102.738 5.68300   2
   5   3  -5 106.038 8.51230   3
   5   3  -5 88.2092 8.22139   2
  -5  -3   5 96.9791 5.49744   2
  -5  -3   5 111.850 12.1418   1
  -5  -3   5 100.376 11.9659   1
  -5  -3   5 96.7753 7.06817   2
   4   3  -5 4.39642 1.90557   2
   4   3  -5 0.97090 3.55974   3
   4   3  -5 2.62912 1.71324   2
  -4  -3   5 2.69437 3.68630   1
  -4  -3   5 2.26746 1.78736   2
  -4  -3   5 2.08083 3.51329   1
   3   3  -5 258.769 6.86076   2
   3   3  -5 245.657 6.71311   2
   3   3  -5 270.216 10.0270   3
  -3  -3   5 255.387 12.1279   1
  -3  -3   5 271.362 12.4895   1
  -3  -3   5 269.231 6.34588   2
   2   3  -5 131.153 6.17493   3
   2   3  -5 128.455 3.87681   2
   2   3  -5 124.508 3.87536   2
   2   3  -5 120.303 5.93948   3
  -2  -3   5 124.355 7.52615   1
  -2  -3   5 129.583 7.06654   1
  -2  -3   5 123.593 4.25764   2
   1   3  -5 160.980 10.1942   1
   1   3  -5 172.099 6.28851   3
   1   3  -5 164.981 5.15182   2
   1   3  -5 165.510 5.23141   2
  -1  -3   5 178.481 10.7689   1
  -1  -3   5 166.883 4.95554   2
  -1  -3   5 169.372 4.90649   2
   0   3  -5 126.808 5.24566   2
   0   3  -5 113.128 4.95701   2
   0   3  -5 104.775 10.3947   1
   0   3  -5 117.139 4.67812   3
   0  -3   5 119.519 4.90938   2
   0  -3   5 117.348 5.08636   2
   0  -3   5 101.227 10.2819   1
  -1   3  -5 151.037 6.60876   2
  -1   3  -5 158.757 7.01793   2
  -1   3  -5 171.025 15.6822   1
  -1   3  -5 159.866 5.32473   3
   1  -3   5 156.503 6.99729   2
   1  -3   5 157.043 6.66768   2
   1  -3   5 147.861 14.7844   1
  -2   3  -5 135.144 7.29160   2
  -2   3  -5 129.295 7.10484   2
  -2   3  -5 114.269 16.0476   1
  -2   3  -5 133.457 5.39370   3
   2  -3   5 133.686 16.6639   1
   2  -3   5 131.095 7.25332   2
   2  -3   5 137.837 5.26008   3
   2  -3   5 130.187 7.26419   2
  -3   3  -5 199.502 22.4824   1
  -3   3  -5 200.934 9.53526   2
  -3   3  -5 198.101 7.49984   3
  -3   3  -5 193.410 9.88926   2
   3  -3   5 210.948 9.67312   2
   3  -3   5 194.228 21.6433   1
   3  -3   5 204.506 10.1941   2
   3  -3   5 207.824 7.22245   3
  -4   3  -5 248.139 11.7470   2
  -4   3  -5 194.343 36.6044   1
  -4   3  -5 266.050 12.3936   2
  -4   3  -5 251.161 9.18128   3
   4  -3   5 273.826 12.6173   2
   4  -3   5 197.672 33.7464   1
   4  -3   5 246.886 9.15656   3
  -5   3  -5 7.72076 4.12251   2
  -5   3  -5 -3.5461 12.7369   1
  -5   3  -5 1.85394 2.47432   3
   5  -3   5 -8.7513 8.27138   1
   5  -3   5 5.71271 4.13399   2
   5  -3   5 -0.0729 3.51193   2
   5  -3   5 4.91895 2.53822   3
  -6   3  -5 1.09272 2.62485   3
  -6   3  -5 7.20492 4.37399   2
   6  -3   5 -2.1084 3.37954   2
   6  -3   5 3.09120 5.13598   2
   6  -3   5 2.16217 2.54540   3
  -7   3  -5 32.8169 7.05746   2
  -7   3  -5 26.2491 4.51416   3
   7  -3   5 38.0135 6.95772   2
   7  -3   5 24.3356 4.61906   3
   7  -3   5 31.0351 6.04876   2
  -8   3  -5 35.0514 7.42939   2
   8  -3   5 30.0998 6.96511   2
   8  -3   5 20.3297 8.46865   3
  10   2  -5 8.32966 6.75016   3
 -10  -2   5 2.11994 5.40033   2
   9   2  -5 4.59108 6.10764   3
  -9  -2   5 -2.2639 3.80007   2
   8   2  -5 12.6642 6.28175   3
  -8  -2   5 12.8095 4.04325   2
  -8  -2   5 4.09199 3.68491   2
  -8  -2   5 18.4441 14.4701   1
   7   2  -5 -1.5358 5.04701   3
  -7  -2   5 2.86095 3.47799   2
  -7  -2   5 17.5836 9.14815   1
  -7  -2   5 2.48540 2.91873   2
   6   2  -5 19.0798 3.61457   2
   6   2  -5 12.7678 5.55605   3
  -6  -2   5 11.1512 6.98608   1
  -6  -2   5 18.5034 3.98772   2
  -6  -2   5 16.5752 3.53935   2
  -6  -2   5 4.72817 7.11587   1
   5   2  -5 64.5056 5.07643   2
   5   2  -5 59.6831 7.57458   3
   5   2  -5 58.6889 4.74183   2
  -5  -2   5 66.3988 5.14260   2
  -5  -2   5 61.8625 11.1195   1
  -5  -2   5 67.1877 5.29470   2
  -5  -2   5 52.1568 11.6147   1
   4   2  -5 814.529 19.2813   2
   4   2  -5 807.096 21.6810   3
   4   2  -5 835.154 19.4523   2
  -4  -2   5 851.639 35.5625   1
  -4  -2   5 836.952 19.3981   2
  -4  -2   5 828.528 19.2211   2
  -4  -2   5 771.837 34.3729   1
   3   2  -5 142.316 5.50351   2
   3   2  -5 143.131 5.56651   2
  -3  -2   5 144.395 5.50213   2
  -3  -2   5 149.765 5.57170   2
  -3  -2   5 147.728 11.7686   1
  -3  -2   5 132.472 11.2237   1
   2   2  -5 2.55804 1.43612   2
   2   2  -5 1.80349 2.06333   3
   2   2  -5 0.70663 1.46194   2
  -2  -2   5 1.56738 1.49819   2
  -2  -2   5 8.68108 3.55447   1
  -2  -2   5 4.43671 2.50164   1
  -2  -2   5 0.54369 1.40214   2
   1   2  -5 640.177 14.6198   3
   1   2  -5 648.977 14.3934   2
   1   2  -5 653.998 14.6957   3
   1   2  -5 653.583 14.5268   2
   1   2  -5 655.573 27.4534   1
  -1  -2   5 587.058 16.3629   2
  -1  -2   5 636.950 24.9872   1
  -1  -2   5 649.669 14.2870   2
   0   2  -5 41.9151 3.18866   2
   0   2  -5 39.2204 3.40111   2
   0   2  -5 41.1036 2.48864   3
   0   2  -5 28.6319 8.12690   1
   0  -2   5 41.3847 4.17638   2
   0  -2   5 40.2701 7.68223   1
   0  -2   5 43.4566 3.35073   2
  -1   2  -5 260.539 8.92640   2
  -1   2  -5 264.691 6.32104   3
  -1   2  -5 261.373 19.4020   1
  -1   2  -5 270.256 8.88687   2
   1  -2   5 254.950 8.66475   2
   1  -2   5 234.557 18.3708   1
   1  -2   5 271.194 9.12422   2
  -2   2  -5 365.047 11.7850   2
  -2   2  -5 361.189 25.7977   1
  -2   2  -5 328.942 11.4457   2
  -2   2  -5 334.343 8.45398   3
   2  -2   5 360.895 11.6471   2
   2  -2   5 369.961 12.1459   2
   2  -2   5 360.689 8.51259   3
   2  -2   5 356.748 25.4751   1
  -3   2  -5 496.153 33.8248   1
  -3   2  -5 485.810 11.9061   3
  -3   2  -5 479.750 15.3503   2
  -3   2  -5 498.750 15.7559   2
   3  -2   5 492.925 15.7462   2
   3  -2   5 476.115 11.7471   3
   3  -2   5 498.436 34.1508   1
  -4   2  -5 80.8652 4.98002   3
  -4   2  -5 83.8717 7.11544   2
  -4   2  -5 83.5914 17.8721   1
  -4   2  -5 77.9510 6.85254   2
   4  -2   5 84.1704 16.3822   1
   4  -2   5 75.6049 4.64503   3
   4  -2   5 74.4996 7.72865   2
   4  -2   5 83.2327 7.32134   2
  -5   2  -5 15.6911 11.1840   1
  -5   2  -5 21.4079 3.38472   3
  -5   2  -5 22.6164 5.24970   2
   5  -2   5 17.0164 3.23222   3
   5  -2   5 9.45246 9.94937   1
   5  -2   5 15.8650 4.32541   2
   5  -2   5 16.9579 5.07972   2
  -6   2  -5 4.57463 12.9623   1
  -6   2  -5 -0.2089 3.88232   2
  -6   2  -5 -2.0148 2.16582   3
   6  -2   5 -5.0093 2.88041   2
   6  -2   5 7.17178 13.0045   1
   6  -2   5 2.09168 3.77918   2
   6  -2   5 3.31743 2.59337   3
  -7   2  -5 30.0220 7.16522   3
   7  -2   5 46.8804 6.48411   2
   7  -2   5 36.1447 5.05446   3
   7  -2   5 33.0248 8.29473   2
  -8   2  -5 -0.4052 5.25493   2
   8  -2   5 4.16757 3.50094   3
   8  -2   5 6.99828 5.00536   2
  10   1  -5 29.3380 8.56868   3
 -10  -1   5 12.9627 6.75955   2
   9   1  -5 6.39504 6.03795   3
  -9  -1   5 0.78465 4.72668   2
  -9  -1   5 7.93707 4.01160   2
   8   1  -5 32.9217 7.27539   3
  -8  -1   5 4.70259 14.9044   1
  -8  -1   5 26.4512 4.86164   2
  -8  -1   5 34.0671 6.20894   2
   7   1  -5 11.5911 6.16680   3
  -7  -1   5 17.1132 4.26815   2
  -7  -1   5 17.9627 4.80400   2
  -7  -1   5 38.6639 12.6714   1
   6   1  -5 47.1393 5.03841   2
   6   1  -5 56.8501 7.47603   3
  -6  -1   5 41.8857 20.7867   1
  -6  -1   5 52.7235 6.17901   2
  -6  -1   5 48.4926 5.73991   2
   5   1  -5 258.003 10.2052   2
   5   1  -5 237.170 11.9265   3
   5   1  -5 260.432 10.1640   2
  -5  -1   5 248.352 10.1935   2
  -5  -1   5 219.376 21.6640   1
  -5  -1   5 248.274 9.98178   2
  -5  -1   5 234.607 21.7737   1
  -5  -1   5 233.672 10.5482   3
   4   1  -5 250.434 10.8930   3
   4   1  -5 242.582 9.05266   2
   4   1  -5 242.779 8.99372   2
  -4  -1   5 254.064 9.18643   2
  -4  -1   5 241.508 19.4193   1
  -4  -1   5 250.829 9.28171   2
   3   1  -5 251.689 8.45489   2
   3   1  -5 252.667 8.36008   2
   3   1  -5 261.515 10.1587   3
  -3  -1   5 241.246 17.5550   1
  -3  -1   5 242.342 17.8233   1
  -3  -1   5 253.083 8.37984   2
  -3  -1   5 267.762 8.70627   2
   2   1  -5 -0.0100 1.62432   2
   2   1  -5 0.28271 1.52212   2
   2   1  -5 -1.6838 2.07342   3
  -2  -1   5 -1.2811 1.96174   2
  -2  -1   5 0.35068 2.33204   1
  -2  -1   5 1.18413 1.72411   2
  -2  -1   5 2.24870 2.73437   1
   1   1  -5 367.171 19.6672   1
   1   1  -5 375.564 9.94474   2
   1   1  -5 353.801 9.29928   3
  -1  -1   5 373.786 9.80893   2
  -1  -1   5 352.792 10.1061   2
  -1  -1   5 362.476 19.5562   1
   0   1  -5 408.955 15.3039   2
   0   1  -5 456.095 9.41835   3
   0   1  -5 442.794 9.29638   3
   0   1  -5 451.687 11.7399   2
   0   1  -5 441.720 22.6842   1
   0  -1   5 441.798 11.4479   2
   0  -1   5 452.101 23.4338   1
   0  -1   5 420.219 12.9169   2
  -1   1  -5 171.394 15.0420   1
  -1   1  -5 175.254 6.92619   2
  -1   1  -5 170.732 7.00926   2
   1  -1   5 166.142 15.3961   1
   1  -1   5 167.537 6.81060   2
   1  -1   5 165.012 7.04361   2
  -2   1  -5 257.498 22.2334   1
  -2   1  -5 222.414 10.5759   2
  -2   1  -5 245.368 9.08754   2
   2  -1   5 227.684 5.11766   3
   2  -1   5 241.979 9.43219   2
   2  -1   5 214.380 26.6211   1
  -3   1  -5 75.2222 6.02481   2
  -3   1  -5 71.0243 5.85433   2
  -3   1  -5 75.0010 3.40539   3
  -3   1  -5 86.1702 14.0797   1
   3  -1   5 75.0658 5.98825   2
   3  -1   5 80.6758 13.5939   1
   3  -1   5 75.8869 3.39844   3
   3  -1   5 82.7401 6.39981   2
  -4   1  -5 -3.3750 2.67857   2
  -4   1  -5 1.25324 6.18634   1
  -4   1  -5 1.87879 1.68674   3
  -4   1  -5 -2.1864 2.87852   2
   4  -1   5 2.97747 1.74268   3
   4  -1   5 -0.6690 3.20392   2
   4  -1   5 3.25037 3.12806   2
   4  -1   5 0.62636 5.46526   1
  -5   1  -5 3.59732 8.08697   1
  -5   1  -5 12.4573 2.73136   3
  -5   1  -5 11.1590 4.45460   2
  -5   1  -5 11.3157 4.16628   2
   5  -1   5 10.8195 2.80114   3
   5  -1   5 11.0564 5.21532   2
   5  -1   5 11.0559 10.1505   1
   5  -1   5 11.3263 4.06431   2
  -6   1  -5 61.0148 11.5920   2
  -6   1  -5 30.0363 15.9398   1
  -6   1  -5 50.1822 7.60608   2
   6  -1   5 51.5889 7.10845   2
   6  -1   5 42.7254 5.10503   3
   6  -1   5 39.6647 6.84919   2
   6  -1   5 53.4399 17.0713   1
  -7   1  -5 31.7301 7.99421   2
  -7   1  -5 12.8549 15.2294   1
   7  -1   5 -11.826 14.6519   1
   7  -1   5 29.9303 6.25843   2
  -8   1  -5 -5.1967 4.31354   2
   8  -1   5 5.10322 5.16621   2
   8  -1   5 4.48670 3.57955   3
  -9   1  -5 19.9150 7.61211   2
   9  -1   5 27.2565 5.02326   3
   9  -1   5 17.4592 6.76789   2
   9   0  -5 13.2791 6.51463   3
  -9   0   5 16.6631 6.25634   2
   8   0  -5 2.91090 4.81611   3
  -8   0   5 3.84737 4.25408   2
   7   0  -5 16.8554 6.02443   3
  -7   0   5 4.79857 4.23064   2
  -7   0   5 0.28488 3.11106   2
   6   0  -5 104.214 9.33255   3
   6   0  -5 106.637 7.84336   2
  -6   0   5 99.0686 7.71421   3
  -6   0   5 111.133 7.99776   2
   5   0  -5 184.731 10.4148   3
   5   0  -5 174.737 9.01531   2
   5   0  -5 159.692 8.44647   2
  -5   0   5 178.939 20.1676   1
  -5   0   5 189.421 9.09341   2
  -5   0   5 193.480 9.66290   2
  -5   0   5 171.912 9.24365   3
  -5   0   5 179.191 19.4934   1
   4   0  -5 10.3768 3.09926   2
   4   0  -5 18.1970 4.51437   3
   4   0  -5 10.6844 3.11364   2
  -4   0   5 6.36439 5.82578   1
  -4   0   5 14.2140 3.22206   2
  -4   0   5 2.20411 5.57075   1
  -4   0   5 8.11023 3.10297   2
  -4   0   5 19.0470 3.82723   3
   3   0  -5 53.1922 4.20917   2
   3   0  -5 61.2339 4.71023   2
  -3   0   5 52.3424 8.97825   1
  -3   0   5 60.6451 9.62446   1
  -3   0   5 51.4883 4.65012   2
  -3   0   5 54.7870 4.25818   2
  -3   0   5 58.9598 4.80177   3
   2   0  -5 854.219 19.7351   3
   2   0  -5 878.839 19.9306   2
   2   0  -5 852.364 21.8972   2
  -2   0   5 835.313 19.4873   3
  -2   0   5 890.228 36.5462   1
  -2   0   5 862.612 19.8304   2
  -2   0   5 837.398 35.6838   1
  -2   0   5 855.202 19.9274   2
   1   0  -5 251.267 8.15334   2
   1   0  -5 262.946 8.27243   2
   1   0  -5 259.308 17.8639   1
   1   0  -5 246.152 7.29535   3
  -1   0   5 247.396 7.15545   3
  -1   0   5 258.295 17.6466   1
  -1   0   5 246.271 8.37338   2
  -1   0   5 252.640 8.15316   2
   0   0  -5 160.282 4.11952   3
   0   0  -5 160.572 13.7144   1
   0   0  -5 158.891 6.32470   2
   0   0  -5 166.281 6.54142   2
   0   0   5 170.050 6.45033   2
   0   0   5 140.723 13.3617   1
   0   0   5 152.367 6.24878   2
  -1   0  -5 35.5880 8.19443   1
  -1   0  -5 31.1886 3.49782   2
  -1   0  -5 28.2460 5.61038   2
   1   0   5 32.3017 3.76304   2
   1   0   5 43.2760 8.08494   1
  -2   0  -5 4.93512 2.61709   2
  -2   0  -5 -1.1216 3.98005   1
  -2   0  -5 1.19635 2.21848   2
   2   0   5 1.84528 3.12313   1
  -3   0  -5 354.673 12.2694   2
  -3   0  -5 403.516 28.1255   1
  -3   0  -5 377.552 12.6846   2
   3   0   5 351.847 26.7423   1
   3   0   5 348.586 12.2471   2
   3   0   5 367.954 15.3054   2
   3   0   5 350.640 8.30630   3
  -4   0  -5 20.6453 4.45749   2
  -4   0  -5 17.7081 4.04777   2
  -4   0  -5 18.3434 8.51772   1
   4   0   5 15.1252 3.88384   2
   4   0   5 15.4265 2.38868   3
   4   0   5 3.86310 7.15872   1
   4   0   5 18.7720 4.36524   2
  -5   0  -5 11.7253 9.32408   1
  -5   0  -5 17.8672 4.64031   2
  -5   0  -5 34.1036 5.61534   2
   5   0   5 39.5934 13.9225   1
   5   0   5 27.5161 5.48524   2
   5   0   5 27.0893 3.51898   3
   5   0   5 25.6387 5.05751   2
  -6   0  -5 11.2625 4.77205   2
  -6   0  -5 1.69519 9.69525   1
  -6   0  -5 6.01218 4.23118   2
   6   0   5 8.58477 4.30725   2
   6   0   5 9.54130 4.76508   2
   6   0   5 9.53651 3.11488   3
   6   0   5 9.70381 11.1946   1
  -7   0  -5 11.5577 8.14931   2
  -7   0  -5 -4.4189 11.9180   1
  -7   0  -5 8.13623 4.99039   2
   7   0   5 12.5521 4.79978   2
   7   0   5 5.56394 4.73844   2
   7   0   5 7.59827 3.26828   3
   7   0   5 -4.9139 13.6164   1
  -8   0  -5 10.5101 5.48520   2
   8   0   5 -6.5600 3.55811   2
   8   0   5 -9.4219 4.24596   2
   8   0   5 -1.3044 3.15410   3
   8   0   5 -18.152 19.1447   1
  -9   0  -5 16.6545 7.26990   2
   9   0   5 27.0700 7.07907   2
   9  -1  -5 63.5872 10.1789   3
  -9   1   5 79.4876 9.76112   2
   8  -1  -5 20.8916 6.29835   3
  -8   1   5 10.2424 5.12347   2
  -8   1   5 4.04573 3.59460   2
   7  -1  -5 -2.9567 4.15376   3
  -7   1   5 23.2078 12.9074   1
  -7   1   5 5.71495 3.35528   2
  -7   1   5 -1.0172 3.77465   2
   6  -1  -5 16.9488 4.47450   2
   6  -1  -5 4.77132 4.58880   3
  -6   1   5 8.96615 8.97811   1
  -6   1   5 6.46100 3.50223   2
  -6   1   5 9.07749 4.44812   3
  -6   1   5 8.32976 4.83623   2
   5  -1  -5 169.367 9.39777   2
   5  -1  -5 168.018 10.2735   3
   5  -1  -5 175.728 9.27515   2
  -5   1   5 190.848 21.9944   1
  -5   1   5 173.629 9.30778   2
  -5   1   5 187.067 9.95299   3
  -5   1   5 192.185 9.86377   2
  -5   1   5 171.726 20.9031   1
   4  -1  -5 69.6757 5.72937   2
   4  -1  -5 76.8488 6.84165   3
   4  -1  -5 81.0896 5.96660   2
  -4   1   5 61.9028 13.3335   1
  -4   1   5 87.8410 6.47864   2
  -4   1   5 71.4560 6.20181   3
  -4   1   5 57.6018 14.9754   1
   3  -1  -5 4.59232 2.94135   3
   3  -1  -5 4.01251 2.46861   2
   3  -1  -5 2.31922 2.56068   2
  -3   1   5 3.10352 2.68527   3
  -3   1   5 5.49142 3.07737   2
  -3   1   5 1.64698 5.49371   1
   2  -1  -5 137.909 6.65600   2
   2  -1  -5 127.482 6.12198   3
   2  -1  -5 123.234 6.35403   2
  -2   1   5 129.761 6.23095   3
  -2   1   5 139.522 14.3517   1
   1  -1  -5 26.4258 7.14105   1
   1  -1  -5 24.1692 2.93642   3
   1  -1  -5 21.2834 3.07287   2
   1  -1  -5 22.7088 3.23558   2
  -1   1   5 22.1736 3.20723   2
  -1   1   5 23.1519 6.25079   1
  -1   1   5 28.0066 3.00810   3
   0  -1  -5 308.502 9.63018   2
   0  -1  -5 302.397 7.30478   3
   0  -1  -5 323.963 20.9075   1
   0  -1  -5 292.172 9.55890   2
   0   1   5 302.845 7.42642   3
   0   1   5 313.452 20.6915   1
   0   1   5 308.615 9.58426   2
  -1  -1  -5 150.358 14.5978   1
  -1  -1  -5 128.242 6.09349   2
  -1  -1  -5 130.361 6.48819   2
   1   1   5 154.388 15.0179   1
   1   1   5 128.848 6.28910   2
  -2  -1  -5 398.120 25.7977   1
  -2  -1  -5 362.621 11.5071   2
  -2  -1  -5 362.800 11.6983   2
   2   1   5 357.821 24.9871   1
   2   1   5 400.557 12.2292   2
   2   1   5 368.879 11.6726   2
  -3  -1  -5 115.205 7.18623   2
  -3  -1  -5 115.404 6.75405   2
  -3  -1  -5 129.746 15.9470   1
   3   1   5 118.311 4.05549   3
   3   1   5 120.768 15.3259   1
   3   1   5 116.700 6.76461   2
   3   1   5 120.610 7.24701   2
  -4  -1  -5 6.02617 6.71637   1
  -4  -1  -5 4.66224 5.37637   2
  -4  -1  -5 3.18365 3.20227   2
   4   1   5 1.71662 1.93264   3
   4   1   5 2.55285 2.83063   2
   4   1   5 1.24452 4.20550   1
   4   1   5 0.88252 3.45832   2
  -5  -1  -5 17.4524 4.74338   2
  -5  -1  -5 16.3663 4.23961   2
   5   1   5 21.8415 11.4933   1
   5   1   5 11.2179 2.98820   3
   5   1   5 16.4822 4.68842   2
   5   1   5 10.5265 4.07280   2
  -6  -1  -5 149.554 12.2417   2
  -6  -1  -5 135.165 23.1856   1
  -6  -1  -5 136.464 9.50458   2
   6   1   5 141.609 12.3135   3
   6   1   5 158.857 10.1056   2
   6   1   5 151.454 10.2962   2
   6   1   5 144.622 22.9507   1
  -7  -1  -5 38.8612 6.61410   2
  -7  -1  -5 25.6721 15.0692   1
  -7  -1  -5 37.5704 6.95637   2
   7   1   5 31.5182 4.65716   3
   7   1   5 30.2123 16.7770   1
   7   1   5 35.8205 6.16210   2
   7   1   5 43.2964 7.34503   2
  -8  -1  -5 18.7580 19.9416   1
  -8  -1  -5 19.1867 6.19829   2
   8   1   5 -15.746 17.3995   1
   8   1   5 17.5837 4.51279   3
   8   1   5 20.7955 5.47630   2
   8   1   5 7.93966 5.14434   2
  -9  -1  -5 183.493 13.7067   2
   9   1   5 168.587 13.1149   2
   9   1   5 182.958 11.4533   3
   9  -2  -5 1.89974 5.36313   3
  -9   2   5 -2.4417 5.22932   2
   8  -2  -5 3.42750 5.26104   3
  -8   2   5 7.65421 5.13791   2
  -8   2   5 -0.8817 3.67599   2
   7  -2  -5 14.2987 6.33587   3
  -7   2   5 12.3733 12.7301   1
  -7   2   5 31.2344 6.79375   2
  -7   2   5 23.2345 5.31275   2
   6  -2  -5 15.3103 6.05807   2
   6  -2  -5 14.1178 5.21188   3
  -6   2   5 18.7315 5.23087   2
  -6   2   5 10.7877 9.56792   1
  -6   2   5 15.2996 4.39550   2
   5  -2  -5 72.7483 7.65558   3
   5  -2  -5 68.6093 6.82756   2
   5  -2  -5 75.2288 6.78798   2
  -5   2   5 82.5120 7.04559   2
  -5   2   5 83.3064 7.82389   3
  -5   2   5 62.3112 16.5468   1
  -5   2   5 84.0521 7.62577   2
  -5   2   5 75.5723 15.9917   1
   4  -2  -5 79.5886 6.90024   2
   4  -2  -5 94.4695 7.49587   3
   4  -2  -5 83.3492 6.56283   2
  -4   2   5 79.9196 7.12719   3
  -4   2   5 87.2962 7.46405   2
  -4   2   5 105.507 16.0113   1
  -4   2   5 84.1214 6.59388   2
   3  -2  -5 88.0385 6.10324   2
   3  -2  -5 88.9952 6.05133   2
   3  -2  -5 84.6758 9.39783   3
  -3   2   5 96.4583 13.4077   1
  -3   2   5 96.0046 6.29035   2
  -3   2   5 86.9868 6.21328   3
  -3   2   5 61.1592 11.9656   1
   2  -2  -5 416.242 12.6892   2
   2  -2  -5 399.319 11.9132   3
   2  -2  -5 408.670 12.5845   2
  -2   2   5 392.923 12.5504   2
  -2   2   5 389.231 12.9680   2
  -2   2   5 413.105 12.1465   3
  -2   2   5 404.011 27.6401   1
  -2   2   5 389.969 26.4424   1
   1  -2  -5 333.492 9.63834   3
   1  -2  -5 341.062 10.8320   2
   1  -2  -5 329.667 10.7006   2
   1  -2  -5 365.936 23.9251   1
  -1   2   5 338.030 10.8937   2
  -1   2   5 332.305 9.72432   3
  -1   2   5 347.995 23.6626   1
  -1   2   5 333.426 10.7212   2
   0  -2  -5 675.130 32.8927   1
   0  -2  -5 649.006 16.6450   2
   0  -2  -5 679.063 16.8386   2
   0  -2  -5 661.018 14.5808   3
   0   2   5 652.378 14.5589   3
   0   2   5 663.495 33.1540   1
   0   2   5 640.323 16.6979   2
   0   2   5 647.914 16.6520   2
  -1  -2  -5 72.3732 5.03254   2
  -1  -2  -5 69.5793 10.6771   1
  -1  -2  -5 70.8992 2.99935   3
  -1  -2  -5 73.3794 4.95887   2
   1   2   5 80.1327 11.1381   1
   1   2   5 70.5240 5.06712   2
   1   2   5 64.2721 4.87902   2
   1   2   5 70.7252 2.94125   3
  -2  -2  -5 179.580 17.4046   1
  -2  -2  -5 182.605 7.96956   2
  -2  -2  -5 180.054 7.70698   2
   2   2   5 181.498 4.90962   3
   2   2   5 173.617 7.88117   2
   2   2   5 173.876 7.70123   2
   2   2   5 195.626 18.4061   1
  -3  -2  -5 590.165 17.2154   2
  -3  -2  -5 650.368 17.8884   2
  -3  -2  -5 686.042 37.2550   1
   3   2   5 647.500 14.1354   3
   3   2   5 641.914 17.7168   2
   3   2   5 648.720 37.0717   1
   3   2   5 639.143 17.9869   2
   3   2   5 644.554 14.0248   3
  -4  -2  -5 5.26101 3.44660   2
  -4  -2  -5 3.30471 6.08796   1
  -4  -2  -5 11.5347 3.48513   2
   4   2   5 1.08913 4.80074   1
   4   2   5 8.27843 3.33694   2
   4   2   5 8.03903 3.68629   2
   4   2   5 8.07342 2.47452   3
  -5  -2  -5 1.69941 7.52213   1
  -5  -2  -5 2.24321 3.09609   2
  -5  -2  -5 -0.0231 3.49815   2
   5   2   5 -6.4724 6.00733   1
   5   2   5 0.36238 3.20361   2
   5   2   5 2.25735 2.94823   3
  -6  -2  -5 371.058 15.0131   2
  -6  -2  -5 347.690 47.1334   1
  -6  -2  -5 373.818 15.5918   2
   6   2   5 367.846 22.3202   2
   6   2   5 380.798 16.4307   2
   6   2   5 370.309 39.2514   1
  -7  -2  -5 2.45684 4.50292   2
  -7  -2  -5 0.93093 3.66773   2
  -7  -2  -5 -5.3321 10.0002   1
   7   2   5 -12.283 11.6127   1
   7   2   5 4.20557 4.06428   2
   7   2   5 3.08567 4.60096   2
   7   2   5 -0.5978 3.41238   3
  -8  -2  -5 -3.6928 16.3858   1
  -8  -2  -5 -0.6518 3.79104   2
  -8  -2  -5 1.42943 4.53187   2
   8   2   5 2.44447 4.49373   2
   8   2   5 -4.0402 4.47467   2
   8   2   5 -21.956 14.1757   1
   8   2   5 2.64442 4.29282   3
  -9  -2  -5 107.501 11.0820   2
  -9  -2  -5 35.4705 49.9769   1
   9   2   5 92.2725 8.88741   3
   9   2   5 87.4081 10.2049   2
 -10  -2  -5 3.79974 6.16394   2
  10   2   5 -6.0295 5.59533   2
  10   2   5 5.40592 4.45875   3
   9  -3  -5 7.74002 5.86443   3
   9  -3  -5 0.09043 5.07738   2
  -9   3   5 5.06141 5.80559   2
   8  -3  -5 44.0013 8.67591   2
   8  -3  -5 47.7855 8.49623   3
  -8   3   5 33.5141 7.02327   2
  -8   3   5 29.4949 10.4637   2
   7  -3  -5 10.1149 4.54745   2
   7  -3  -5 18.8643 5.70193   3
  -7   3   5 -1.3038 4.48785   2
  -7   3   5 -16.523 15.1471   1
  -7   3   5 10.8083 4.49704   2
   6  -3  -5 9.72498 4.50396   2
   6  -3  -5 12.0941 5.01709   3
   6  -3  -5 6.12231 4.69882   2
  -6   3   5 -14.947 9.34631   1
  -6   3   5 10.8621 11.6496   1
  -6   3   5 7.22007 4.45817   2
  -6   3   5 1.82744 4.36870   2
   5  -3  -5 30.5797 5.41093   2
   5  -3  -5 24.5931 5.50502   3
   5  -3  -5 29.2748 5.61462   2
  -5   3   5 36.7163 12.3005   1
  -5   3   5 29.4395 5.88907   2
  -5   3   5 27.5433 5.41729   3
  -5   3   5 10.6922 9.39599   1
  -5   3   5 35.4048 5.61567   2
   4  -3  -5 70.9511 6.63743   2
   4  -3  -5 62.9915 6.55024   2
   4  -3  -5 67.2983 7.15893   3
  -4   3   5 64.8238 7.36106   3
  -4   3   5 64.7061 6.51986   2
  -4   3   5 67.9376 16.5520   1
  -4   3   5 72.8951 7.83338   2
  -4   3   5 92.4321 15.4591   1
   3  -3  -5 43.5709 5.86128   2
   3  -3  -5 42.5836 5.43190   3
   3  -3  -5 45.1599 5.20517   2
  -3   3   5 38.6969 5.18991   2
  -3   3   5 56.0699 6.26455   3
  -3   3   5 38.4238 10.4259   1
  -3   3   5 46.0465 5.77509   2
  -3   3   5 30.2840 11.0120   1
   2  -3  -5 559.202 16.1901   2
   2  -3  -5 560.931 17.4002   3
   2  -3  -5 569.890 16.3140   2
  -2   3   5 568.240 16.6259   2
  -2   3   5 573.607 16.2677   2
  -2   3   5 522.423 33.5477   1
  -2   3   5 495.018 40.1977   1
   1  -3  -5 46.7265 4.62982   2
   1  -3  -5 54.6931 10.2972   1
   1  -3  -5 44.8657 4.57389   2
   1  -3  -5 51.5312 4.25919   3
  -1   3   5 52.1074 4.39849   3
  -1   3   5 42.7534 10.3717   1
  -1   3   5 50.6900 4.69763   2
  -1   3   5 56.3083 5.00038   2
   0  -3  -5 380.808 11.9657   2
   0  -3  -5 379.362 10.3544   3
   0  -3  -5 398.558 25.9539   1
   0  -3  -5 361.137 11.6902   2
   0   3   5 389.043 25.9879   1
   0   3   5 392.599 11.9702   2
   0   3   5 367.743 10.1281   3
   0   3   5 377.233 12.0349   2
  -1  -3  -5 551.177 30.5646   1
  -1  -3  -5 492.943 14.1456   2
  -1  -3  -5 500.198 14.3835   2
  -1  -3  -5 505.263 12.0574   3
   1   3   5 486.446 14.1837   2
   1   3   5 506.289 11.9631   3
   1   3   5 528.982 30.2220   1
   1   3   5 499.353 14.5041   2
  -2  -3  -5 229.709 19.8388   1
  -2  -3  -5 212.471 8.79095   2
  -2  -3  -5 211.203 8.64261   2
   2   3   5 241.180 9.04346   2
   2   3   5 215.448 8.92302   2
   2   3   5 224.262 6.57991   3
   2   3   5 211.534 19.6917   1
  -3  -3  -5 100.615 6.48156   2
  -3  -3  -5 103.889 6.39500   2
  -3  -3  -5 91.3293 13.5993   1
   3   3   5 98.6214 4.42237   3
   3   3   5 90.7168 13.8529   1
   3   3   5 106.673 6.81233   2
   3   3   5 97.7743 6.36841   2
  -4  -3  -5 36.3605 9.53668   1
  -4  -3  -5 42.4965 5.40268   2
  -4  -3  -5 44.1759 5.34877   2
   4   3   5 44.7147 3.97200   3
   4   3   5 38.4905 11.8699   1
   4   3   5 38.8374 5.35159   2
   4   3   5 40.5055 5.20420   2
   4   3   5 37.1927 3.57134   3
  -5  -3  -5 30.7104 5.13818   2
  -5  -3  -5 33.8224 5.54709   2
  -5  -3  -5 32.1051 11.0449   1
   5   3   5 35.0020 10.6637   1
   5   3   5 40.6869 6.00556   2
   5   3   5 32.0292 5.27085   2
   5   3   5 35.2697 4.49722   3
  -6  -3  -5 -3.5398 3.08137   2
  -6  -3  -5 1.58117 3.09945   2
  -6  -3  -5 -3.4794 7.19349   1
   6   3   5 3.73779 8.09964   1
   6   3   5 1.27600 3.60611   3
   6   3   5 0.05727 4.50584   2
   6   3   5 5.60579 3.67496   2
  -7  -3  -5 11.5944 12.6114   1
  -7  -3  -5 24.0663 5.84324   2
  -7  -3  -5 25.8359 5.55271   2
   7   3   5 16.4456 4.82735   2
   7   3   5 27.1938 9.80057   2
   7   3   5 19.7449 12.7420   1
   7   3   5 19.7275 4.96129   3
  -8  -3  -5 4.25724 16.2049   1
  -8  -3  -5 -0.4041 4.28329   2
  -8  -3  -5 2.93465 3.96920   2
   8   3   5 0.09883 4.77207   2
   8   3   5 -2.9064 3.99986   3
   8   3   5 5.14542 4.91064   2
   8   3   5 10.6647 14.2264   1
  -9  -3  -5 34.9067 6.31388   2
  -9  -3  -5 33.2642 35.5678   1
  -9  -3  -5 51.7118 8.56735   2
   9   3   5 69.9331 8.63280   3
   9   3   5 47.0379 8.14348   2
 -10  -3  -5 -0.1708 5.02813   2
  10   3   5 3.74142 4.79233   3
  10   3   5 -5.7150 4.45617   2
   8  -4  -5 2.42106 5.54597   3
   8  -4  -5 1.35380 4.51848   2
  -8   4   5 -4.1589 5.07016   2
   7  -4  -5 22.6898 6.26712   3
   7  -4  -5 25.9215 6.22665   2
  -7   4   5 27.1560 6.14216   2
  -7   4   5 29.2762 6.61559   2
  -7   4   5 29.3104 23.0905   1
   6  -4  -5 42.4558 7.08296   2
   6  -4  -5 45.2168 7.12306   3
   6  -4  -5 32.1233 7.01967   2
  -6   4   5 33.2680 16.2619   1
  -6   4   5 45.1549 7.03313   2
  -6   4   5 36.7728 17.7008   1
  -6   4   5 49.2473 7.65476   2
   5  -4  -5 391.686 15.9843   3
   5  -4  -5 392.791 16.2103   2
   5  -4  -5 415.612 16.2292   2
  -5   4   5 391.229 16.5105   2
  -5   4   5 337.091 34.2775   1
  -5   4   5 413.911 37.4607   1
  -5   4   5 404.045 16.3889   2
   4  -4  -5 354.822 14.3187   2
   4  -4  -5 357.729 14.2614   3
   4  -4  -5 341.593 14.1621   2
  -4   4   5 367.852 32.5951   1
  -4   4   5 350.743 14.8003   2
  -4   4   5 363.126 14.2990   3
  -4   4   5 350.284 14.3870   2
  -4   4   5 336.910 31.6732   1
   3  -4  -5 236.905 17.1280   2
   3  -4  -5 247.228 11.1927   2
   3  -4  -5 237.624 10.7092   3
  -3   4   5 246.885 11.5164   2
  -3   4   5 286.506 26.6444   1
  -3   4   5 263.386 11.8145   2
  -3   4   5 261.192 25.3963   1
  -3   4   5 246.104 10.9279   3
   2  -4  -5 16.6809 3.85439   2
   2  -4  -5 5.43769 2.87644   3
   2  -4  -5 1.43233 2.79919   2
  -2   4   5 7.68338 5.29699   1
  -2   4   5 13.4692 7.14789   1
  -2   4   5 10.8769 3.57143   2
  -2   4   5 6.15822 3.22747   3
  -2   4   5 7.85485 3.41969   2
   1  -4  -5 712.155 19.1810   2
   1  -4  -5 726.182 19.3153   2
   1  -4  -5 685.978 20.6118   3
  -1   4   5 708.211 18.0150   3
  -1   4   5 726.343 39.7392   1
  -1   4   5 734.354 19.5789   2
   0  -4  -5 167.015 6.92854   3
   0  -4  -5 163.535 7.65030   2
   0  -4  -5 159.971 17.0308   1
   0  -4  -5 166.853 7.92703   2
   0   4   5 169.173 8.00348   2
   0   4   5 160.246 7.71356   2
   0   4   5 174.834 17.6215   1
   0   4   5 163.070 6.64941   3
  -1  -4  -5 127.036 14.9546   1
  -1  -4  -5 121.729 6.67842   2
  -1  -4  -5 129.477 6.86383   2
  -1  -4  -5 125.710 5.64585   3
   1   4   5 120.083 5.37194   3
   1   4   5 118.843 6.79290   2
   1   4   5 124.833 6.66636   2
   1   4   5 110.830 14.3206   1
  -2  -4  -5 128.871 5.49361   3
  -2  -4  -5 128.436 6.82413   2
  -2  -4  -5 130.438 7.02148   2
  -2  -4  -5 123.599 15.0081   1
   2   4   5 124.110 15.1933   1
   2   4   5 128.042 6.84854   2
   2   4   5 125.090 6.86637   2
   2   4   5 125.913 5.43499   3
  -3  -4  -5 705.065 19.2429   2
  -3  -4  -5 705.055 38.8975   1
  -3  -4  -5 703.437 18.9945   2
   3   4   5 715.212 19.4300   2
   3   4   5 692.145 19.0332   2
   3   4   5 689.250 16.6307   3
   3   4   5 717.826 39.9665   1
  -4  -4  -5 28.8925 4.79169   2
  -4  -4  -5 32.2915 8.98378   1
  -4  -4  -5 27.3958 4.51063   2
   4   4   5 29.4615 4.88398   2
   4   4   5 19.1217 9.02323   1
   4   4   5 33.6173 4.77511   2
   4   4   5 29.6307 3.65508   3
  -5  -4  -5 73.7120 6.65467   2
  -5  -4  -5 69.2961 7.16618   2
  -5  -4  -5 85.3671 14.4115   1
   5   4   5 80.9431 15.8011   1
   5   4   5 63.7348 6.82880   2
   5   4   5 65.1213 6.67616   3
   5   4   5 65.5938 8.95889   3
   5   4   5 73.9651 6.57859   2
  -6  -4  -5 1.30209 3.64810   2
  -6  -4  -5 2.02856 3.60236   2
   6   4   5 3.46589 3.61175   3
   6   4   5 -8.0266 6.95736   1
   6   4   5 2.36467 3.58549   2
   6   4   5 -1.9466 3.55330   2
  -7  -4  -5 30.6605 14.5567   1
  -7  -4  -5 48.3758 7.10043   2
  -7  -4  -5 48.1512 6.79003   2
   7   4   5 41.6253 14.7895   1
   7   4   5 38.0924 6.65550   2
   7   4   5 48.7689 6.81247   2
   7   4   5 42.2029 6.04262   3
  -8  -4  -5 4.69585 7.14710   2
  -8  -4  -5 -3.2125 3.80279   2
  -8  -4  -5 3.22619 13.8248   1
   8   4   5 5.68256 3.93614   2
   8   4   5 5.94666 4.82376   3
   8   4   5 3.84648 15.3022   1
  -9  -4  -5 14.9229 5.15194   2
  -9  -4  -5 27.3271 6.57901   2
   9   4   5 11.0446 5.66785   3
   9   4   5 35.8606 7.61911   2
 -10  -4  -5 -8.2387 4.82283   2
  10   4   5 0.35936 4.88827   2
  10   4   5 -2.1163 4.42879   3
   8  -5  -5 8.69630 5.18847   2
  -8   5   5 6.97936 5.86605   2
   7  -5  -5 0.26276 4.76751   3
   7  -5  -5 -4.8517 4.08097   2
  -7   5   5 -0.9208 4.64514   2
  -7   5   5 8.97681 4.75819   2
   6  -5  -5 21.9600 6.21757   3
   6  -5  -5 22.2733 6.56512   2
   6  -5  -5 26.0239 5.97693   2
  -6   5   5 27.3003 6.15535   2
  -6   5   5 23.6143 6.26185   2
  -6   5   5 38.1711 24.2660   1
   5  -5  -5 126.334 9.34614   2
   5  -5  -5 143.062 10.2041   3
   5  -5  -5 124.031 9.82020   2
  -5   5   5 179.865 26.6673   1
  -5   5   5 139.272 10.0836   2
  -5   5   5 136.106 25.4781   1
  -5   5   5 129.794 10.4706   2
   4  -5  -5 72.2537 7.60490   3
   4  -5  -5 81.3247 7.70533   2
   4  -5  -5 86.8745 8.22206   2
  -4   5   5 73.6494 7.93767   3
  -4   5   5 77.5790 8.33639   2
  -4   5   5 105.108 18.4927   1
  -4   5   5 77.2629 8.01035   2
  -4   5   5 83.8967 19.4387   1
   3  -5  -5 406.914 17.9759   2
   3  -5  -5 394.728 15.1996   2
   3  -5  -5 419.565 14.8917   3
  -3   5   5 404.957 34.7746   1
  -3   5   5 392.403 33.7166   1
  -3   5   5 388.432 14.4868   3
  -3   5   5 391.322 15.2015   2
  -3   5   5 403.474 16.2979   2
   2  -5  -5 -0.2192 2.92567   3
   2  -5  -5 6.51706 3.60018   2
   2  -5  -5 7.18633 3.42003   2
  -2   5   5 8.85963 5.37835   1
  -2   5   5 12.5676 6.31185   1
  -2   5   5 6.87000 3.36299   2
  -2   5   5 5.84166 3.70113   2
  -2   5   5 6.00028 3.22210   3
   1  -5  -5 77.9609 5.77159   3
   1  -5  -5 69.7211 5.91751   2
   1  -5  -5 63.9044 5.87728   2
  -1   5   5 80.6167 14.3473   1
  -1   5   5 85.4133 14.3083   1
  -1   5   5 76.1428 5.61265   3
  -1   5   5 80.4326 6.41737   2
   0  -5  -5 59.5454 13.0772   1
   0  -5  -5 44.4635 4.88983   2
   0  -5  -5 45.4561 5.08973   2
   0  -5  -5 48.0233 7.42489   3
   0   5   5 58.9250 13.4201   1
   0   5   5 47.6899 7.17140   3
   0   5   5 48.2786 4.95722   2
   0   5   5 49.5731 5.25719   2
  -1  -5  -5 197.176 8.65166   2
  -1  -5  -5 201.251 19.2846   1
  -1  -5  -5 196.404 7.88411   3
  -1  -5  -5 182.775 8.55395   2
   1   5   5 206.044 19.8732   1
   1   5   5 180.115 8.48447   2
   1   5   5 199.200 7.66518   3
   1   5   5 189.071 8.75664   2
  -2  -5  -5 1.82392 4.21692   1
  -2  -5  -5 -0.5395 2.34198   2
  -2  -5  -5 0.06287 1.93175   3
  -2  -5  -5 2.21803 2.68812   2
   2   5   5 1.42602 2.50673   2
   2   5   5 0.01325 4.53863   1
   2   5   5 3.16181 2.01239   3
   2   5   5 -0.2344 2.56889   2
  -3  -5  -5 24.6253 4.06325   2
  -3  -5  -5 17.8765 3.93766   2
  -3  -5  -5 16.3537 6.55728   1
   3   5   5 22.4611 3.14046   3
   3   5   5 17.9914 7.59161   1
   3   5   5 16.4122 3.56402   2
   3   5   5 19.5043 4.05444   2
  -4  -5  -5 -0.9543 5.45209   1
  -4  -5  -5 -0.1680 2.87248   2
  -4  -5  -5 4.45532 3.00644   2
   4   5   5 3.33382 3.24140   2
   4   5   5 2.41514 2.51586   3
   4   5   5 1.51744 5.59184   1
  -5  -5  -5 189.575 10.0180   2
  -5  -5  -5 204.240 9.93802   2
  -5  -5  -5 184.660 20.9989   1
   5   5   5 193.711 8.51440   3
   5   5   5 195.408 10.6210   2
   5   5   5 188.498 22.5616   1
   5   5   5 188.148 9.19551   3
   5   5   5 185.999 9.93453   2
  -6  -5  -5 16.5864 4.47541   2
  -6  -5  -5 22.1164 5.21071   2
  -6  -5  -5 14.4353 9.76383   1
   6   5   5 25.3852 5.31890   2
   6   5   5 22.4098 4.06670   3
   6   5   5 20.9850 4.53114   3
   6   5   5 15.8633 10.1151   1
   6   5   5 29.9634 5.58614   2
  -7  -5  -5 10.5673 4.19636   2
  -7  -5  -5 1.46223 9.05418   1
  -7  -5  -5 7.13532 4.92974   2
   7   5   5 2.47246 3.15461   3
   7   5   5 3.35601 3.80382   2
   7   5   5 1.53130 4.10933   2
   7   5   5 -13.641 10.3257   1
   7   5   5 3.26258 4.16737   3
  -8  -5  -5 20.2855 17.7147   1
  -8  -5  -5 1.03428 4.17018   2
  -8  -5  -5 -1.9977 3.96192   2
   8   5   5 -6.7019 13.7079   1
   8   5   5 -5.2145 3.76592   2
   8   5   5 0.25965 4.19744   3
   8   5   5 1.21850 6.01048   2
  -9  -5  -5 3.02567 5.33061   2
   9   5   5 6.91494 8.86732   2
   9   5   5 17.6114 6.11368   3
 -10  -5  -5 5.67003 5.64834   2
  10   5   5 -5.9728 4.84845   3
  10   5   5 -0.6694 5.06905   2
   7  -6  -5 37.3925 7.56255   2
   7  -6  -5 31.7663 7.38863   3
  -7   6   5 19.6602 9.61650   2
   6  -6  -5 5.72163 4.41242   2
   6  -6  -5 7.94746 4.79588   2
   6  -6  -5 -2.1503 4.31598   3
  -6   6   5 -31.333 20.0765   1
  -6   6   5 -1.3148 34.3296   1
  -6   6   5 2.55323 4.32765   2
  -6   6   5 3.21541 4.56249   2
   5  -6  -5 14.1206 4.73710   2
   5  -6  -5 10.0980 4.76710   2
  -5   6   5 19.6741 15.6662   1
  -5   6   5 11.1619 13.8073   1
  -5   6   5 19.6349 5.95120   2
  -5   6   5 19.7149 5.14224   2
   4  -6  -5 9.53486 4.82319   3
   4  -6  -5 25.1445 5.42093   2
   4  -6  -5 18.4370 5.27566   2
  -4   6   5 23.0286 5.90854   2
  -4   6   5 -1.0004 10.2725   1
  -4   6   5 21.0179 12.5035   1
  -4   6   5 19.9833 5.27757   2
   3  -6  -5 390.485 15.8547   2
   3  -6  -5 417.646 15.7646   3
   3  -6  -5 415.685 16.0552   2
  -3   6   5 406.547 35.9296   1
  -3   6   5 426.262 16.3660   2
  -3   6   5 382.643 16.8048   3
  -3   6   5 439.869 38.1624   1
   2  -6  -5 30.5926 5.24429   2
   2  -6  -5 33.5853 5.68052   2
   2  -6  -5 25.3946 4.77219   3
  -2   6   5 31.1446 5.58901   2
  -2   6   5 35.3410 12.6449   1
  -2   6   5 27.3542 5.24640   2
  -2   6   5 29.7845 5.04951   3
  -2   6   5 15.2565 9.19615   1
   1  -6  -5 323.617 12.6372   2
   1  -6  -5 331.357 12.5205   3
   1  -6  -5 340.889 15.3562   2
  -1   6   5 327.783 12.0501   3
  -1   6   5 316.973 13.3004   2
  -1   6   5 329.816 13.0636   2
  -1   6   5 349.474 30.1336   1
  -1   6   5 343.371 29.6488   1
   0  -6  -5 164.210 8.43684   2
   0  -6  -5 165.932 19.0401   1
   0  -6  -5 168.128 8.36019   3
   0   6   5 165.600 8.01215   3
   0   6   5 152.847 19.2935   1
   0   6   5 169.759 8.87946   2
   0   6   5 182.303 8.90731   2
  -1  -6  -5 223.995 9.71186   2
  -1  -6  -5 224.788 21.6919   1
   1   6   5 216.574 21.9398   1
   1   6   5 240.023 10.1163   2
   1   6   5 247.047 10.3707   2
   1   6   5 237.831 9.22989   3
  -2  -6  -5 285.306 10.6309   3
  -2  -6  -5 289.966 24.3273   1
  -2  -6  -5 292.601 11.1125   2
  -2  -6  -5 329.817 14.1847   2
   2   6   5 259.782 32.8312   1
   2   6   5 289.134 10.2444   3
   2   6   5 279.232 12.8497   2
   2   6   5 283.220 11.2605   2
  -3  -6  -5 2.57524 3.57783   2
  -3  -6  -5 3.92616 2.86109   2
  -3  -6  -5 -2.4748 4.19799   1
   3   6   5 2.23962 2.33201   3
   3   6   5 3.88709 5.86692   1
   3   6   5 0.40281 2.90451   2
   3   6   5 2.59528 2.92556   2
  -4  -6  -5 491.695 15.9961   2
  -4  -6  -5 493.508 34.6577   1
  -4  -6  -5 492.124 15.8043   2
   4   6   5 484.276 15.9946   2
   4   6   5 445.154 48.1837   1
   4   6   5 481.946 16.1021   2
   4   6   5 479.889 14.6065   3
  -5  -6  -5 137.007 8.59547   2
  -5  -6  -5 156.473 9.28683   2
  -5  -6  -5 128.974 18.0885   1
   5   6   5 149.572 9.62743   2
   5   6   5 156.606 21.0786   1
   5   6   5 152.749 9.14694   2
   5   6   5 154.956 8.23050   3
  -6  -6  -5 7.52758 4.33200   2
  -6  -6  -5 11.8567 8.84913   1
  -6  -6  -5 7.29459 3.83113   2
   6   6   5 4.72490 3.86875   2
   6   6   5 12.0439 10.4659   1
   6   6   5 3.67540 3.67206   3
   6   6   5 8.63079 3.45379   3
   6   6   5 5.34859 4.21800   2
  -7  -6  -5 -0.4193 3.98918   2
  -7  -6  -5 -3.8453 2.73216   2
  -7  -6  -5 17.2819 11.1762   1
   7   6   5 -0.8769 3.97133   3
   7   6   5 6.20681 5.00895   3
   7   6   5 1.99278 9.06671   1
   7   6   5 -1.7253 5.01969   2
   7   6   5 2.43202 4.16082   2
  -8  -6  -5 7.12713 4.39522   2
  -8  -6  -5 16.9568 14.3275   1
  -8  -6  -5 13.4076 4.07087   2
   8   6   5 3.44680 4.49918   2
   8   6   5 5.01671 4.68769   3
   8   6   5 -14.743 13.6997   1
  -9  -6  -5 -8.0208 3.82331   2
  -9  -6  -5 -0.3317 4.26744   2
   9   6   5 0.64541 4.72864   2
 -10  -6  -5 -1.7459 4.21884   2
  10   6   5 9.90892 6.71043   2
  10   6   5 4.77287 6.03645   3
   7  -7  -5 6.21303 5.11044   2
  -7   7   5 -4.7586 5.29665   2
   6  -7  -5 -0.9949 5.87851   2
   6  -7  -5 2.62094 4.37830   2
   6  -7  -5 12.4540 5.46037   3
  -6   7   5 4.49673 4.99019   2
   5  -7  -5 -3.0362 4.16666   2
   5  -7  -5 4.04817 4.39783   3
  -5   7   5 29.8642 15.9868   1
  -5   7   5 4.06460 5.02424   2
  -5   7   5 27.4903 27.4302   1
  -5   7   5 8.64162 7.08348   2
   4  -7  -5 65.8141 8.17810   3
   4  -7  -5 74.7146 8.28883   2
   4  -7  -5 78.7114 7.94202   2
  -4   7   5 38.3706 19.1074   1
  -4   7   5 65.1837 7.62978   2
  -4   7   5 63.2752 8.34142   2
  -4   7   5 66.8416 20.3162   1
   3  -7  -5 220.803 11.8690   2
   3  -7  -5 233.532 12.4615   2
   3  -7  -5 228.168 12.0729   3
  -3   7   5 220.111 12.1283   2
  -3   7   5 264.510 31.1679   1
  -3   7   5 201.724 27.3342   1
   2  -7  -5 19.9615 4.73413   2
   2  -7  -5 14.5970 4.69543   2
   2  -7  -5 16.3153 4.65147   3
  -2   7   5 19.9663 5.39417   3
  -2   7   5 16.8050 10.2058   1
  -2   7   5 13.4446 10.1893   1
  -2   7   5 17.4271 4.95979   2
  -2   7   5 22.8159 5.15599   2
   1  -7  -5 76.8037 7.11790   2
   1  -7  -5 81.5953 7.35385   3
   1  -7  -5 76.1003 6.94399   2
  -1   7   5 78.3189 7.21563   2
  -1   7   5 75.7568 6.98387   2
  -1   7   5 70.6573 14.8991   1
  -1   7   5 77.1316 15.8211   1
  -1   7   5 77.3061 6.75647   3
   0  -7  -5 504.018 16.1199   3
   0  -7  -5 502.352 16.1647   2
   0  -7  -5 477.717 16.2757   2
   0   7   5 489.397 15.6359   3
   0   7   5 462.426 16.1443   2
   0   7   5 475.323 36.1146   1
  -1  -7  -5 147.757 8.25451   3
  -1  -7  -5 165.188 8.92725   2
  -1  -7  -5 165.308 19.5752   1
  -1  -7  -5 141.427 8.09173   2
   1   7   5 138.225 31.6362   1
   1   7   5 158.866 8.72308   2
   1   7   5 162.200 9.28455   2
   1   7   5 156.976 8.03152   3
  -2  -7  -5 430.138 15.0295   2
  -2  -7  -5 435.309 14.6213   2
  -2  -7  -5 462.517 14.6622   3
  -2  -7  -5 452.515 31.8525   1
   2   7   5 425.281 13.9572   3
   2   7   5 445.844 15.1822   2
   2   7   5 425.731 14.8619   2
  -3  -7  -5 539.527 16.8189   2
  -3  -7  -5 523.570 16.4840   2
  -3  -7  -5 533.238 35.4590   1
   3   7   5 527.891 16.0243   3
   3   7   5 521.316 16.7345   2
   3   7   5 541.018 17.0426   2
   3   7   5 480.661 35.3124   1
  -4  -7  -5 16.5774 4.43741   2
  -4  -7  -5 26.6359 8.63983   1
  -4  -7  -5 19.4264 4.45244   2
   4   7   5 12.0755 4.01728   2
   4   7   5 18.7815 3.90384   3
   4   7   5 24.4992 11.1756   1
   4   7   5 17.2609 4.50457   2
  -5  -7  -5 27.0178 4.79473   2
  -5  -7  -5 10.1376 7.62595   1
  -5  -7  -5 32.0748 5.27756   2
   5   7   5 27.9406 5.13188   2
   5   7   5 23.7657 4.80128   2
   5   7   5 17.5183 3.90471   3
   5   7   5 16.4106 8.76092   1
  -6  -7  -5 186.434 10.4373   2
  -6  -7  -5 155.717 22.8589   1
  -6  -7  -5 165.789 9.60538   2
   6   7   5 130.408 33.1790   1
   6   7   5 167.669 11.6171   2
   6   7   5 167.078 10.9162   2
   6   7   5 151.743 8.99022   3
  -7  -7  -5 -9.3562 13.2885   1
  -7  -7  -5 19.4568 5.35293   2
  -7  -7  -5 7.36471 3.54804   2
   7   7   5 11.3468 4.67444   2
   7   7   5 14.2254 3.99619   3
   7   7   5 7.57703 4.84822   2
   7   7   5 -3.8781 18.0297   1
   7   7   5 11.9851 4.84433   3
  -8  -7  -5 1.80181 3.47332   2
  -8  -7  -5 10.3641 5.42836   2
   8   7   5 5.13361 4.19332   2
   8   7   5 5.32535 14.7009   1
   8   7   5 8.54867 4.94122   3
  -9  -7  -5 12.6924 4.34599   2
  -9  -7  -5 4.46395 4.81212   2
   9   7   5 16.4667 6.30911   3
   9   7   5 28.7733 6.61259   2
 -10  -7  -5 8.52995 5.87763   2
  10   7   5 -6.6098 5.39910   2
  10   7   5 11.5092 6.21521   3
   6  -8  -5 6.78857 4.83100   2
   6  -8  -5 13.1485 6.01397   3
  -6   8   5 12.5207 5.98554   2
   5  -8  -5 -5.7659 4.33273   3
   5  -8  -5 8.78043 4.78333   2
   5  -8  -5 0.88605 4.16775   2
  -5   8   5 -6.5113 4.97867   2
   4  -8  -5 5.19586 4.68306   3
   4  -8  -5 1.33823 3.07658   2
  -4   8   5 -3.1022 13.6069   1
  -4   8   5 4.32674 15.9991   1
  -4   8   5 -1.4004 4.29491   2
  -4   8   5 -4.4642 3.73748   2
   3  -8  -5 51.8725 6.56782   2
   3  -8  -5 46.3888 7.19963   2
   3  -8  -5 47.4364 7.17755   3
  -3   8   5 33.3161 16.4247   1
  -3   8   5 30.2133 15.1665   1
   2  -8  -5 107.901 8.49016   2
   2  -8  -5 108.189 9.02993   2
   2  -8  -5 118.865 9.20049   3
  -2   8   5 113.315 9.07155   2
  -2   8   5 88.1574 18.6454   1
  -2   8   5 116.989 9.17235   2
  -2   8   5 83.7550 20.1871   1
   1  -8  -5 104.750 8.34954   2
   1  -8  -5 114.951 8.30665   2
   1  -8  -5 110.072 8.75027   3
  -1   8   5 116.634 8.88888   2
  -1   8   5 108.094 20.5365   1
  -1   8   5 127.149 21.7123   1
  -1   8   5 109.604 8.40240   2
  -1   8   5 113.979 8.27540   3
   0  -8  -5 4.59941 3.35412   2
   0  -8  -5 1.93081 4.09203   2
   0  -8  -5 6.74607 3.84592   3
   0   8   5 3.18347 3.58693   2
   0   8   5 12.6721 8.99022   1
   0   8   5 14.9173 9.11904   1
   0   8   5 1.12815 2.92491   3
   0   8   5 3.45112 3.53398   2
  -1  -8  -5 894.588 24.5376   3
  -1  -8  -5 897.169 49.4162   1
  -1  -8  -5 872.841 24.2941   2
  -1  -8  -5 924.510 24.9873   2
   1   8   5 903.609 24.8658   2
   1   8   5 898.464 24.9334   2
   1   8   5 916.211 24.4533   3
  -2  -8  -5 17.1621 4.50337   2
  -2  -8  -5 16.8408 4.29705   3
  -2  -8  -5 15.5498 8.97168   1
  -2  -8  -5 8.71907 4.00215   2
   2   8   5 6.51937 7.40342   1
   2   8   5 17.2002 4.49649   2
   2   8   5 16.5902 4.00171   3
   2   8   5 9.57840 3.97439   2
  -3  -8  -5 39.7836 5.44700   2
  -3  -8  -5 35.3263 5.74430   2
  -3  -8  -5 52.1125 6.19691   3
   3   8   5 42.8437 6.07680   2
   3   8   5 41.3345 11.6640   1
   3   8   5 36.8363 5.57509   2
   3   8   5 39.9049 5.32098   3
  -4  -8  -5 232.826 23.3199   1
  -4  -8  -5 227.850 10.8228   2
  -4  -8  -5 242.748 11.1869   2
   4   8   5 249.511 11.5150   2
   4   8   5 224.573 10.5592   3
   4   8   5 205.890 24.9736   1
   4   8   5 209.194 10.7046   2
  -5  -8  -5 285.341 12.4707   2
  -5  -8  -5 265.501 25.5497   1
  -5  -8  -5 277.110 12.3571   2
   5   8   5 268.338 29.3640   1
   5   8   5 285.809 12.9780   2
   5   8   5 266.403 14.0750   2
   5   8   5 286.074 12.3044   3
  -6  -8  -5 85.9103 16.0294   1
  -6  -8  -5 81.5897 7.72235   2
  -6  -8  -5 80.7012 7.68570   2
   6   8   5 84.8241 7.68619   3
   6   8   5 83.7197 7.78826   2
   6   8   5 78.9261 7.76368   2
  -7  -8  -5 1.01988 3.22545   2
  -7  -8  -5 11.4539 4.78516   2
  -7  -8  -5 6.84831 11.5521   1
   7   8   5 6.30291 11.5868   1
   7   8   5 6.56511 4.30315   3
   7   8   5 14.7927 5.13087   2
  -8  -8  -5 7.21694 3.70591   2
  -8  -8  -5 -2.0768 14.6866   1
  -8  -8  -5 7.37193 5.08266   2
   8   8   5 9.70252 4.69528   3
   8   8   5 -9.8721 13.7126   1
   8   8   5 4.59988 4.28767   2
  -9  -8  -5 18.9957 5.68062   2
  -9  -8  -5 27.5188 5.93332   2
   9   8   5 11.6429 5.63475   3
   9   8   5 5.62311 4.77833   2
 -10  -8  -5 -4.3995 4.89927   2
  10   8   5 1.79624 5.41139   3
   5  -9  -5 -0.9738 3.85375   2
   5  -9  -5 4.41483 5.25118   3
  -5   9   5 3.83079 4.80819   2
   4  -9  -5 10.6232 4.58378   2
   4  -9  -5 -3.7519 3.97304   3
  -4   9   5 -1.8000 4.65442   2
   3  -9  -5 -0.1019 4.01154   3
   3  -9  -5 0.14798 4.09755   2
   3  -9  -5 -1.1344 3.79585   2
  -3   9   5 4.12085 5.34476   2
  -3   9   5 12.1992 14.4770   1
   2  -9  -5 86.6005 7.92872   2
   2  -9  -5 105.675 9.17889   2
   2  -9  -5 104.602 9.37158   3
  -2   9   5 99.3994 9.12163   2
  -2   9   5 119.927 24.3253   1
  -2   9   5 112.521 10.1133   2
   1  -9  -5 5.61347 4.13679   2
   1  -9  -5 6.64274 3.62006   2
   1  -9  -5 8.25415 4.41796   3
  -1   9   5 16.5353 5.00918   2
  -1   9   5 11.2255 20.2159   1
  -1   9   5 7.92497 10.5803   1
  -1   9   5 8.60390 4.41817   2
   0  -9  -5 269.789 12.9916   3
   0  -9  -5 275.811 12.7741   2
   0  -9  -5 282.591 13.1107   2
   0   9   5 287.832 13.1075   2
   0   9   5 258.780 30.2147   1
   0   9   5 240.187 18.2350   2
   0   9   5 216.172 27.7454   1
   0   9   5 250.692 13.4495   3
  -1  -9  -5 121.840 8.88492   3
  -1  -9  -5 119.118 8.23609   2
  -1  -9  -5 130.393 8.83580   2
   1   9   5 123.168 19.8679   1
   1   9   5 118.338 8.65226   2
   1   9   5 125.270 20.7770   1
   1   9   5 138.210 8.82044   3
  -2  -9  -5 36.9858 5.36535   2
  -2  -9  -5 40.9653 5.83449   2
  -2  -9  -5 25.1466 5.16816   3
  -2  -9  -5 40.8187 12.0081   1
   2   9   5 46.9223 16.1006   1
   2   9   5 35.4036 6.65077   3
   2   9   5 28.7761 5.43651   2
   2   9   5 33.6967 5.26298   2
  -3  -9  -5 200.437 10.3880   2
  -3  -9  -5 226.616 11.2468   3
  -3  -9  -5 186.327 21.8531   1
   3   9   5 206.762 23.8344   1
   3   9   5 209.185 14.5165   3
   3   9   5 212.389 15.4044   2
   3   9   5 209.617 10.6130   2
  -4  -9  -5 5.60771 3.59936   2
   4   9   5 7.66402 3.82628   2
   4   9   5 3.79013 3.49695   2
   4   9   5 0.21006 2.97488   3
  -5  -9  -5 21.0884 5.12994   2
   5   9   5 19.1550 4.39880   3
   5   9   5 27.8707 5.47015   2
   5   9   5 23.3022 10.7414   1
   5   9   5 36.9948 6.41713   2
  -6  -9  -5 28.7724 5.41816   2
   6   9   5 23.6946 11.8558   1
   6   9   5 33.1026 5.45097   2
   7   9   5 -4.1495 11.8110   1
   7   9   5 -3.8264 3.56700   2
  -8  -9  -5 2.08479 4.33250   2
   8   9   5 1.81684 4.56150   3
   8   9   5 1.51891 3.66229   2
  -9  -9  -5 13.1667 5.59404   2
   9   9   5 6.50578 4.63065   2
   9   9   5 11.6996 5.51212   3
 -10  -9  -5 -0.1693 8.08354   2
  10   9   5 9.51315 6.37781   3
   5 -10  -5 0.76512 5.02680   3
   5 -10  -5 3.53702 4.81541   2
  -5  10   5 -0.5723 5.35297   2
   4 -10  -5 14.9802 6.17723   3
   4 -10  -5 15.1224 6.00536   2
  -4  10   5 5.55783 5.21118   2
   3 -10  -5 4.58994 3.67036   2
   3 -10  -5 2.14426 3.95103   2
   3 -10  -5 -4.9348 3.86845   3
  -3  10   5 -3.9742 4.06648   2
   2 -10  -5 16.2316 4.34711   2
   2 -10  -5 19.6430 7.82284   2
   2 -10  -5 21.5106 5.63265   3
  -2  10   5 9.22992 16.1954   1
  -2  10   5 16.0676 5.35455   2
   1 -10  -5 4.04967 3.86016   2
   1 -10  -5 9.86126 4.12711   2
  -1  10   5 -4.1527 11.2667   1
  -1  10   5 13.5912 4.64537   2
   0 -10  -5 27.1041 5.09473   2
   0 -10  -5 28.8203 5.78088   2
   0 -10  -5 26.1525 6.06158   3
   0  10   5 26.1903 13.6079   1
   0  10   5 28.0543 5.65419   2
   0  10   5 39.2764 19.4298   1
  -1 -10  -5 13.9908 4.14096   2
  -1 -10  -5 13.9673 4.98641   3
  -1 -10  -5 10.9036 4.71662   2
   1  10   5 10.8987 4.56661   2
   1  10   5 13.2563 9.20756   1
   1  10   5 1.47331 10.2140   1
  -2 -10  -5 26.5765 5.19476   2
  -2 -10  -5 32.3813 5.86808   3
   2  10   5 11.6675 11.3800   1
   2  10   5 33.5629 5.45999   2
  -3 -10  -5 59.0731 7.10211   2
  -3 -10  -5 59.9133 7.53348   3
   3  10   5 44.2670 13.3538   1
   3  10   5 68.3901 7.29892   2
  -4 -10  -5 66.6177 5.69985   2
  -4 -10  -5 62.6371 7.13209   2
   4  10   5 41.2508 14.4613   1
  -5 -10  -5 1.40895 2.66667   2
  -5 -10  -5 21.5158 10.1380   1
  -5 -10  -5 5.28163 4.04659   2
   5  10   5 2.97520 3.96617   2
   5  10   5 -1.8497 9.26751   1
  -6 -10  -5 55.0537 16.3977   1
  -6 -10  -5 55.7130 6.00607   2
   6  10   5 59.4229 6.97202   2
   6  10   5 29.7213 12.7860   1
  -7 -10  -5 14.1836 4.59662   2
  -7 -10  -5 30.4762 21.4778   1
  -7 -10  -5 17.8863 4.32276   2
   7  10   5 7.24636 4.50933   2
  -8 -10  -5 1.51228 3.12885   2
  -8 -10  -5 4.26611 4.37001   2
   8  10   5 1.59986 4.91286   3
   8  10   5 -1.3205 3.81758   2
  -9 -10  -5 -9.9611 3.98153   2
  -9 -10  -5 1.32753 4.11929   2
   9  10   5 -5.0863 5.16678   3
   4 -11  -5 1.58239 4.39589   2
   4 -11  -5 -1.7622 4.84014   3
   3 -11  -5 9.09569 4.50738   2
   3 -11  -5 1.31597 5.00007   3
  -3  11   5 10.1857 6.03932   2
   2 -11  -5 -6.6131 3.61957   2
   2 -11  -5 7.16372 4.87780   3
   2 -11  -5 0.93644 3.58629   2
  -2  11   5 8.42651 5.11369   2
   1 -11  -5 11.1758 5.30065   3
   1 -11  -5 14.8088 5.16081   2
   1 -11  -5 12.7552 4.34917   2
  -1  11   5 20.4655 5.19608   2
   0 -11  -5 11.5110 5.00703   3
   0 -11  -5 5.57551 3.80147   2
   0 -11  -5 14.0858 5.80435   2
   0  11   5 8.07948 4.44771   2
   0  11   5 1.59867 14.4232   1
  -1 -11  -5 28.5460 8.20691   2
  -1 -11  -5 15.6430 5.29800   3
   1  11   5 19.8093 13.8181   1
   1  11   5 22.1713 5.25170   2
  -2 -11  -5 21.2444 5.46878   2
  -2 -11  -5 23.2746 4.11799   2
   2  11   5 18.4210 11.6665   1
  -3 -11  -5 3.32608 3.90889   2
  -3 -11  -5 12.5243 3.82173   2
  -3 -11  -5 5.83616 4.71955   3
   3  11   5 11.1335 11.4978   1
   3  11   5 7.53601 4.01681   2
  -4 -11  -5 8.99458 3.56706   2
  -4 -11  -5 3.85344 9.98108   1
   4  11   5 5.05699 4.05194   2
   4  11   5 10.6252 11.0414   1
  -5 -11  -5 17.4813 4.17108   2
  -5 -11  -5 29.2401 5.54530   2
  -5 -11  -5 12.6020 15.4186   1
   5  11   5 30.5735 5.53252   2
   5  11   5 31.1864 14.9355   1
  -6 -11  -5 4.90083 3.90253   2
  -6 -11  -5 0.31924 2.86269   2
   6  11   5 -1.0171 3.02765   2
  -7 -11  -5 -1.6537 2.82481   2
  -7 -11  -5 2.66457 3.89609   2
   7  11   5 -0.5867 4.62004   2
  -8 -11  -5 118.808 10.2084   2
  -8 -11  -5 118.784 9.32594   2
   8  11   5 178.918 13.4106   3
   8  11   5 141.587 10.8507   2
  -9 -11  -5 1.05207 5.90018   2
   9  11   5 10.2600 6.45490   3
   2 -12  -5 15.9324 6.36126   2
   2 -12  -5 6.27473 5.16677   3
  -2  12   5 15.2447 6.89069   2
   1 -12  -5 3.42154 4.63696   2
   1 -12  -5 -4.3010 3.11111   2
   1 -12  -5 1.11823 4.77596   3
  -1  12   5 -0.1904 4.14091   2
   0 -12  -5 22.4274 5.45039   2
   0 -12  -5 16.1112 5.54474   3
   0  12   5 10.0629 4.82130   2
  -1 -12  -5 1.66689 3.84272   2
  -1 -12  -5 0.81343 2.89573   2
  -1 -12  -5 9.64511 4.72193   3
  -2 -12  -5 10.5645 3.68477   2
  -2 -12  -5 14.4729 4.97686   3
  -2 -12  -5 14.5142 4.61796   2
   2  12   5 15.2577 4.76486   2
  -3 -12  -5 15.5132 4.61983   2
  -3 -12  -5 5.40315 3.69252   2
  -3 -12  -5 20.5512 5.55241   3
   3  12   5 21.6573 4.80461   2
  -4 -12  -5 21.8383 5.11245   2
  -4 -12  -5 25.2582 4.53810   2
   4  12   5 25.8920 5.23360   2
  -5 -12  -5 37.3820 6.00657   2
  -5 -12  -5 25.9507 4.76218   2
   5  12   5 33.9041 6.21580   2
  -6 -12  -5 104.843 8.96436   2
   6  12   5 103.656 9.69189   2
  -7 -12  -5 244.320 13.2100   2
   7  12   5 233.941 14.7058   2
  -8 -12  -5 12.0650 6.86060   2
   1 -13  -5 91.7443 11.8417   3
   0 -13  -5 22.0840 6.05210   2
   0 -13  -5 30.1233 5.07109   2
   0 -13  -5 19.9106 6.31652   3
  -1 -13  -5 -1.7030 3.97349   3
  -1 -13  -5 0.64010 3.97910   2
  -1 -13  -5 -0.8059 4.17279   2
   1  13   5 3.07865 4.93830   2
  -2 -13  -5 2.99800 3.36683   2
  -2 -13  -5 -5.8746 3.33182   3
  -2 -13  -5 3.81161 3.82692   2
   2  13   5 -0.2452 4.21691   2
  -3 -13  -5 9.39465 4.18729   2
   3  13   5 6.61996 4.36360   2
  -4 -13  -5 35.6111 6.08899   2
   4  13   5 32.7562 5.71874   2
  -5 -13  -5 62.5556 7.58045   2
   5  13   5 61.4457 8.70597   2
  -6 -13  -5 8.49562 4.56367   2
  -6 -13  -5 15.1003 4.73604   2
  -7 -13  -5 -4.4054 3.65172   2
  -1 -14  -5 8.42311 4.80700   2
  -1 -14  -5 0.48498 5.06874   3
  -2 -14  -5 6.64826 6.54604   3
  -4 -14  -5 -3.8535 3.75819   2
  -5 -14  -5 -2.6046 3.91342   2
  -6 -14  -5 9.22797 4.86686   2
  -6 -14  -5 3.77460 4.32041   2
   5  10  -6 18.1164 5.44523   3
   4  10  -6 9.67101 4.39986   3
   7   9  -6 6.26889 5.44187   3
   6   9  -6 0.22202 4.61343   3
   5   9  -6 4.40129 3.62341   3
   4   9  -6 15.7039 5.22834   3
   2  -9   6 3.26908 2.73497   2
   8   8  -6 29.1467 8.02541   3
   7   8  -6 2.11864 4.93564   3
   6   8  -6 6.41038 4.70837   3
   4   8  -6 95.6994 8.48790   3
   3   8  -6 175.127 10.4172   3
   2   8  -6 27.9136 4.60825   3
   1   8  -6 106.496 11.2155   3
   0   8  -6 10.3941 2.85301   3
  -1   8  -6 6.72457 4.63748   3
   1  -8   6 2.17535 1.73687   2
   1  -8   6 1.41195 2.05200   2
   2  -8   6 18.2285 3.36013   2
   3  -8   6 -4.2832 2.72382   2
   8   7  -6 27.4992 7.93458   3
   7   7  -6 7.55232 5.49181   3
   6   7  -6 41.6060 7.20359   3
   5   7  -6 11.5214 4.23193   3
   4   7  -6 7.14652 3.23063   3
   4   7  -6 9.12560 4.11128   3
   3   7  -6 57.0218 6.52085   3
   3   7  -6 68.2932 7.61459   3
   2   7  -6 99.3652 7.04218   3
   1   7  -6 66.2976 5.54475   3
   0   7  -6 69.7389 5.62145   3
  -1   7  -6 10.7054 2.93019   3
  -1   7  -6 2.40808 2.50930   2
   1  -7   6 8.92450 2.45256   2
  -2   7  -6 2.90951 2.67683   3
  -2   7  -6 9.23466 3.46835   2
   2  -7   6 11.6859 3.14451   2
   2  -7   6 6.32941 3.06516   2
  -3   7  -6 9.01191 4.36402   2
  -3   7  -6 4.73699 3.45883   3
   3  -7   6 12.7685 4.18943   2
   3  -7   6 7.97384 3.70478   2
   4  -7   6 7.20188 2.53280   3
   4  -7   6 11.2195 6.75301   2
   4  -7   6 2.53754 4.00936   2
   8   6  -6 0.69750 5.90712   3
   7   6  -6 31.2161 7.03040   3
   6   6  -6 29.1017 6.39002   3
   5   6  -6 21.4104 4.95340   3
   4   6  -6 331.096 17.4550   3
   4   6  -6 381.728 14.4096   3
   3   6  -6 148.866 8.60178   3
   3   6  -6 145.300 8.37070   3
   2   6  -6 19.3348 3.65019   3
   1   6  -6 -1.5230 1.94287   3
   0   6  -6 1.24507 1.60545   2
   0   6  -6 5.46444 4.05111   1
   0   6  -6 0.65613 1.95069   3
   0  -6   6 1.43848 1.21670   2
   0  -6   6 9.83341 4.14765   1
  -1   6  -6 22.9687 3.33335   3
  -1   6  -6 40.1127 4.50665   2
   1  -6   6 33.5155 4.15158   2
   1  -6   6 33.4118 3.89595   2
  -2   6  -6 17.1065 3.10467   3
   2  -6   6 23.6669 4.18474   2
  -3   6  -6 25.5205 4.01589   3
  -3   6  -6 19.9104 4.72750   2
   3  -6   6 18.2933 4.43594   2
   3  -6   6 32.2698 4.02595   3
  -4   6  -6 8.54334 4.71171   2
  -4   6  -6 -0.0234 2.70799   3
   4  -6   6 1.06635 3.14950   2
   4  -6   6 4.22426 2.34832   3
   4  -6   6 2.84337 4.06773   2
   5  -6   6 19.2324 3.45764   3
   5  -6   6 13.5913 5.09526   2
   5  -6   6 18.9643 5.72389   2
   9   5  -6 4.01819 6.52498   3
  -9  -5   6 -0.6448 2.35136   2
   8   5  -6 6.85054 6.53123   3
  -8  -5   6 3.56373 2.12518   2
   7   5  -6 36.2051 7.47831   3
  -7  -5   6 17.5254 8.93737   1
   6   5  -6 69.6123 8.28070   3
   5   5  -6 6.39545 4.40057   3
   4   5  -6 19.3254 4.32011   3
   4   5  -6 14.9143 3.70819   3
   3   5  -6 122.561 7.45174   3
   3   5  -6 115.980 7.47999   3
   2   5  -6 6.72502 2.64642   3
   2   5  -6 3.10399 2.65725   3
   1   5  -6 12.1166 4.30061   3
   0   5  -6 13.6131 2.43952   2
   0   5  -6 16.6112 2.69755   2
   0   5  -6 14.0231 6.65891   1
   0   5  -6 14.8344 2.72021   3
   0  -5   6 16.3506 2.26497   2
   0  -5   6 22.7997 7.70367   1
   0  -5   6 15.1284 2.29251   2
  -1   5  -6 3.78464 6.07385   1
  -1   5  -6 7.24523 2.25426   3
   1  -5   6 11.0348 2.88842   2
   1  -5   6 10.6953 6.23971   1
  -2   5  -6 0.27085 2.68522   2
  -2   5  -6 -2.8383 1.90424   3
   2  -5   6 -1.2048 2.59029   2
   2  -5   6 -0.4762 2.68601   2
  -3   5  -6 64.5857 6.90815   2
   3  -5   6 61.3611 6.21069   2
   3  -5   6 53.0065 4.80747   3
  -4   5  -6 2.10442 3.67790   2
  -4   5  -6 6.55815 2.76890   3
   4  -5   6 8.00029 2.43924   3
   4  -5   6 8.41770 4.49064   2
   4  -5   6 7.05083 3.63302   2
  -5   5  -6 -0.1348 3.67931   2
  -5   5  -6 6.20584 3.06694   3
   5  -5   6 4.70073 2.25194   3
   5  -5   6 5.95975 4.81755   2
   5  -5   6 8.48732 3.66600   2
   6  -5   6 2.16036 2.38239   3
   6  -5   6 -2.0534 4.41966   2
   9   4  -6 -2.3478 6.46936   3
  -9  -4   6 3.47960 3.41869   2
  -9  -4   6 4.28291 2.94928   2
   8   4  -6 -5.1768 5.04641   3
   8   4  -6 -4.3905 2.78982   2
  -8  -4   6 2.63103 2.60176   2
  -8  -4   6 -2.4248 2.47974   2
   7   4  -6 17.1837 3.44061   2
  -7  -4   6 16.7394 9.85485   1
  -7  -4   6 18.8511 3.47480   2
  -7  -4   6 24.3334 3.48373   2
   6   4  -6 51.9832 4.40146   2
   6   4  -6 69.1017 8.54542   3
  -6  -4   6 50.6405 9.01154   1
  -6  -4   6 59.8806 4.07718   2
  -6  -4   6 63.3020 4.11642   2
   5   4  -6 4.65666 4.21734   3
   5   4  -6 1.44424 1.62351   2
   5   4  -6 0.13790 1.42055   2
  -5  -4   6 0.90797 1.04048   2
  -5  -4   6 -2.5896 3.47388   1
  -5  -4   6 0.24783 0.91440   2
  -5  -4   6 3.73766 3.71551   1
   4   4  -6 15.3519 4.26032   3
   3   4  -6 5.67913 3.08872   3
   3   4  -6 2.44295 2.57380   3
   2   4  -6 264.160 11.0529   3
   1   4  -6 349.144 8.37541   2
   1   4  -6 343.416 8.31963   2
   1   4  -6 334.662 10.2076   3
   1   4  -6 340.535 13.8478   1
   1   4  -6 342.516 10.2902   3
  -1  -4   6 331.305 7.20623   2
  -1  -4   6 324.909 13.8190   1
   0   4  -6 0.28417 1.68343   2
   0   4  -6 -0.0116 1.85405   2
   0   4  -6 5.34246 3.97352   1
   0   4  -6 1.13012 1.53915   3
   0  -4   6 0.11873 1.86795   2
   0  -4   6 2.90183 4.27309   1
  -1   4  -6 19.6743 7.55435   1
  -1   4  -6 20.7760 3.95482   2
  -1   4  -6 20.3283 2.43234   3
  -1   4  -6 21.1465 3.56163   2
   1  -4   6 17.7459 3.37024   2
   1  -4   6 20.6594 3.48961   2
   1  -4   6 16.2135 6.34396   1
  -2   4  -6 -0.8840 1.81471   3
  -2   4  -6 -5.3048 5.23754   1
  -2   4  -6 0.22196 2.47532   2
  -2   4  -6 0.98091 2.90411   2
   2  -4   6 1.83738 2.91552   2
   2  -4   6 -2.8140 2.45223   2
   2  -4   6 -1.6464 5.40400   1
  -3   4  -6 2.80038 3.39201   2
  -3   4  -6 -0.1299 2.10618   3
   3  -4   6 -1.6708 3.12341   2
   3  -4   6 -1.1080 1.55538   3
   3  -4   6 3.96576 3.73757   2
  -4   4  -6 22.7550 4.94313   2
   4  -4   6 19.2430 4.78445   2
   4  -4   6 19.6956 6.17451   2
  -5   4  -6 68.0957 8.17681   2
  -5   4  -6 71.4434 5.40763   3
   5  -4   6 66.0238 4.96879   3
   5  -4   6 66.0072 8.51353   2
  -6   4  -6 0.85610 2.72559   3
  -6   4  -6 2.65055 4.25587   2
   6  -4   6 7.44715 4.39132   2
   6  -4   6 10.3916 2.64363   3
   6  -4   6 4.18172 4.89451   2
   7  -4   6 -4.2482 2.38702   3
   7  -4   6 4.92636 4.92932   2
   9   3  -6 129.325 13.3184   3
  -9  -3   6 122.787 9.03717   2
  -9  -3   6 103.805 8.12406   2
   8   3  -6 -4.4945 4.96565   3
   8   3  -6 0.48582 3.22399   2
  -8  -3   6 2.26194 2.88270   2
  -8  -3   6 1.32368 3.38439   2
   7   3  -6 34.6429 6.16654   2
   7   3  -6 39.8474 8.14298   3
  -7  -3   6 33.0144 4.86131   2
  -7  -3   6 6.50762 13.3706   1
   6   3  -6 2.64117 3.98337   2
   6   3  -6 3.48362 4.84351   3
  -6  -3   6 1.91982 6.87121   1
  -6  -3   6 1.43445 2.45454   2
   5   3  -6 20.6498 2.98555   2
   5   3  -6 22.0353 4.53647   2
   5   3  -6 23.6114 5.64063   3
  -5  -3   6 14.6186 6.93252   1
  -5  -3   6 22.3726 6.62364   1
  -5  -3   6 24.3404 3.21151   2
   4   3  -6 0.12394 1.52344   2
   4   3  -6 1.99161 3.59605   3
   4   3  -6 -0.1503 2.52370   2
  -4  -3   6 2.39763 3.54850   1
  -4  -3   6 -0.7672 1.57744   2
  -4  -3   6 1.93163 3.45993   1
   3   3  -6 45.8640 2.91663   2
   3   3  -6 33.5134 8.13550   3
   3   3  -6 45.7925 4.04682   2
  -3  -3   6 40.3260 2.54844   2
  -3  -3   6 39.4854 5.62722   1
  -3  -3   6 37.7851 6.10184   1
   2   3  -6 27.4371 3.37299   3
   2   3  -6 24.2563 2.39683   2
   2   3  -6 25.8754 3.55177   3
  -2  -3   6 32.4012 4.75592   1
  -2  -3   6 29.8913 5.00851   1
  -2  -3   6 28.2738 2.19388   2
   1   3  -6 95.4813 8.80370   1
   1   3  -6 91.9869 4.29857   2
   1   3  -6 94.6933 4.70009   3
   1   3  -6 92.2474 4.22986   2
   1   3  -6 99.0227 4.94325   3
  -1  -3   6 81.1388 8.58331   1
  -1  -3   6 100.994 4.21510   2
   0   3  -6 176.203 5.73281   3
   0   3  -6 178.536 6.76408   2
   0   3  -6 183.560 7.03671   2
   0   3  -6 181.428 14.4143   1
   0  -3   6 173.236 14.3601   1
   0  -3   6 182.111 6.66236   2
   0  -3   6 183.466 6.87663   2
  -1   3  -6 19.0388 3.41640   2
  -1   3  -6 24.9907 3.44554   2
  -1   3  -6 26.1951 2.31042   3
  -1   3  -6 13.9123 5.98872   1
   1  -3   6 30.4869 3.76559   2
   1  -3   6 20.7947 3.55753   2
   1  -3   6 15.6634 6.28373   1
  -2   3  -6 13.9111 2.10804   3
  -2   3  -6 12.0223 7.07083   1
  -2   3  -6 16.0295 3.70186   2
  -2   3  -6 14.9652 3.66640   2
   2  -3   6 16.3498 7.53331   1
   2  -3   6 16.6186 3.71335   2
   2  -3   6 12.8343 3.83773   2
  -3   3  -6 1933.80 43.6863   2
  -3   3  -6 1949.99 38.2059   3
  -3   3  -6 1892.80 76.6414   1
  -3   3  -6 1980.43 44.2813   2
   3  -3   6 1951.77 43.9551   2
   3  -3   6 1949.03 38.2651   3
   3  -3   6 2058.70 44.1394   2
   3  -3   6 1762.76 79.0772   1
  -4   3  -6 35.0229 7.30486   2
  -4   3  -6 32.3490 19.3776   1
  -4   3  -6 20.3544 2.84967   3
   4  -3   6 23.2042 2.83241   3
   4  -3   6 29.4965 4.98326   2
   4  -3   6 26.6315 5.80040   2
  -5   3  -6 5.39920 4.70001   2
  -5   3  -6 8.32924 3.76584   3
   5  -3   6 11.7466 2.87017   3
   5  -3   6 14.8819 4.48296   2
   5  -3   6 14.1884 5.21074   2
  -6   3  -6 17.3335 3.12404   3
  -6   3  -6 15.3199 5.49409   2
   6  -3   6 16.6190 5.33307   2
   6  -3   6 18.5744 5.17057   2
   6  -3   6 19.7880 3.24500   3
  -7   3  -6 1.97352 5.40874   2
   7  -3   6 -0.6985 2.44720   3
   7  -3   6 9.76166 5.09548   2
   7  -3   6 12.2227 5.73815   2
   9   2  -6 51.1588 9.79751   3
  -9  -2   6 65.6361 8.14577   2
   8   2  -6 -1.0552 3.24443   2
   8   2  -6 -6.6686 4.86697   3
  -8  -2   6 5.42643 3.81366   2
  -8  -2   6 2.09357 3.50547   2
   7   2  -6 7.24464 5.30846   3
   7   2  -6 0.11868 2.81483   2
  -7  -2   6 0.78517 2.72980   2
  -7  -2   6 0.84988 3.59965   2
  -7  -2   6 -0.3280 10.1369   1
   6   2  -6 -3.0981 2.38833   2
   6   2  -6 3.14352 4.88147   3
  -6  -2   6 0.73854 3.01602   2
  -6  -2   6 -2.4004 2.29231   2
  -6  -2   6 7.45073 7.48765   1
   5   2  -6 453.525 16.5215   3
   5   2  -6 436.825 13.4712   2
   5   2  -6 459.092 13.8090   2
  -5  -2   6 456.916 13.5710   2
  -5  -2   6 442.281 27.8768   1
  -5  -2   6 467.334 13.7622   2
  -5  -2   6 403.251 32.6303   1
   4   2  -6 28.2427 3.71064   2
   4   2  -6 26.5031 3.30706   2
   4   2  -6 26.8341 5.11123   3
  -4  -2   6 24.1209 3.40269   2
  -4  -2   6 22.3869 6.88007   1
  -4  -2   6 29.9919 3.67454   2
  -4  -2   6 26.2421 7.06644   1
   3   2  -6 14.8529 2.58893   2
   3   2  -6 14.2938 3.76870   3
   3   2  -6 16.0544 2.50539   2
  -3  -2   6 10.2371 4.39555   1
  -3  -2   6 15.8743 5.25239   1
  -3  -2   6 15.0090 2.64831   2
  -3  -2   6 12.7235 2.45095   2
   2   2  -6 660.197 15.6194   2
   2   2  -6 667.825 16.6407   3
   2   2  -6 666.142 15.5757   2
  -2  -2   6 692.516 15.5357   2
  -2  -2   6 667.641 27.6888   1
  -2  -2   6 704.440 27.8061   1
  -2  -2   6 669.870 15.3556   2
   1   2  -6 119.666 11.2293   1
   1   2  -6 109.009 4.91777   2
   1   2  -6 108.913 4.68259   3
   1   2  -6 111.073 4.88986   3
   1   2  -6 117.014 5.15545   2
  -1  -2   6 123.674 11.3210   1
  -1  -2   6 111.044 4.93810   2
  -1  -2   6 115.014 5.11843   2
   0   2  -6 44.6226 2.47092   3
   0   2  -6 45.2001 2.67034   3
   0   2  -6 49.1379 8.15204   1
   0   2  -6 51.0530 4.01559   2
   0   2  -6 46.2791 4.03383   2
   0  -2   6 44.2987 4.03755   2
   0  -2   6 47.4039 3.89312   2
   0  -2   6 49.9227 8.53342   1
  -1   2  -6 29.7660 3.77753   2
  -1   2  -6 14.6101 5.78867   1
  -1   2  -6 32.0045 3.99007   2
   1  -2   6 26.2829 3.74713   2
   1  -2   6 25.8298 8.00395   1
   1  -2   6 27.5779 3.89685   2
  -2   2  -6 169.070 18.9283   1
  -2   2  -6 193.439 8.54127   2
  -2   2  -6 186.901 8.83067   2
   2  -2   6 193.188 8.73101   2
   2  -2   6 205.496 9.23402   2
  -3   2  -6 89.5598 3.55608   3
  -3   2  -6 92.8511 6.77070   2
  -3   2  -6 92.0348 8.57639   2
  -3   2  -6 77.2888 15.2025   1
   3  -2   6 97.8984 6.66621   2
   3  -2   6 97.3305 7.81894   2
   3  -2   6 87.8192 16.2143   1
   3  -2   6 92.8413 3.61592   3
  -4   2  -6 132.943 8.70067   2
  -4   2  -6 145.460 38.0418   1
  -4   2  -6 139.237 9.16288   2
  -4   2  -6 143.429 5.49833   3
   4  -2   6 146.336 5.54493   3
   4  -2   6 152.754 9.66376   2
   4  -2   6 128.266 25.5247   1
  -5   2  -6 1.20816 1.81149   3
  -5   2  -6 -0.8609 3.47361   2
  -5   2  -6 0.29812 11.6308   1
   5  -2   6 -1.0308 3.08868   2
   5  -2   6 -1.5989 11.9087   1
   5  -2   6 -5.1087 3.21870   2
   5  -2   6 0.70914 1.78256   3
  -6   2  -6 1.93889 4.52347   2
   6  -2   6 4.56833 2.24875   3
   6  -2   6 9.61527 4.91265   2
   6  -2   6 -3.1196 2.97964   2
  -7   2  -6 5.52431 4.82715   2
   7  -2   6 5.51215 4.58011   2
   7  -2   6 8.83301 3.08331   3
   7  -2   6 16.4126 4.99697   2
  -8   2  -6 3.26871 5.18685   2
   8  -2   6 9.80490 5.87550   2
   8  -2   6 5.36909 3.01319   3
   9   1  -6 83.9839 11.1227   3
  -9  -1   6 58.7382 7.32938   2
  -9  -1   6 85.1192 9.06118   2
   8   1  -6 19.7898 4.40415   2
   8   1  -6 17.2191 6.60749   3
  -8  -1   6 27.9261 4.96253   2
  -8  -1   6 17.4797 4.98519   2
   7   1  -6 23.6919 4.75380   2
   7   1  -6 22.9358 6.55294   3
  -7  -1   6 16.6967 7.37557   2
  -7  -1   6 6.38968 12.5629   1
  -7  -1   6 23.9403 4.80029   2
   6   1  -6 -0.1239 4.73866   3
   6   1  -6 2.31271 2.82241   2
  -6  -1   6 0.16399 3.11950   2
  -6  -1   6 2.88187 7.31221   1
  -6  -1   6 -12.360 7.45585   1
  -6  -1   6 3.07233 3.27036   2
   5   1  -6 146.245 7.86388   2
   5   1  -6 150.143 9.93920   3
   5   1  -6 135.240 7.46159   2
  -5  -1   6 132.916 7.57948   2
  -5  -1   6 107.356 17.3838   1
  -5  -1   6 122.698 15.8488   1
  -5  -1   6 143.993 7.97418   2
   4   1  -6 3.66810 2.56645   2
   4   1  -6 2.45648 2.38288   2
   4   1  -6 0.64367 3.98074   3
  -4  -1   6 1.72773 2.55588   2
  -4  -1   6 -1.2862 4.47163   1
  -4  -1   6 1.88829 4.49443   1
  -4  -1   6 5.81648 2.67319   2
   3   1  -6 74.6943 4.78166   2
   3   1  -6 85.2752 5.13506   2
   3   1  -6 75.6286 6.54109   3
  -3  -1   6 78.4419 10.7576   1
  -3  -1   6 83.0493 5.12201   2
  -3  -1   6 83.5470 10.9715   1
  -3  -1   6 83.2618 5.15135   2
   2   1  -6 47.7026 4.57608   3
   2   1  -6 51.7774 3.86285   2
   2   1  -6 55.8603 4.01276   2
  -2  -1   6 48.6408 3.95116   2
  -2  -1   6 63.9999 8.72695   1
  -2  -1   6 52.8590 4.11844   2
  -2  -1   6 60.0922 8.69134   1
   1   1  -6 2.20754 1.80686   3
   1   1  -6 2.59560 1.99653   2
   1   1  -6 2.01214 3.47796   1
   1   1  -6 2.52021 1.93281   2
  -1  -1   6 2.36279 2.96755   1
  -1  -1   6 2.52141 2.05921   2
  -1  -1   6 2.73523 2.02719   2
   0   1  -6 72.5055 9.87651   1
   0   1  -6 62.1550 4.27458   2
   0   1  -6 60.9568 2.24083   3
   0   1  -6 57.6055 4.40502   2
   0   1  -6 62.1307 2.35597   3
   0  -1   6 72.5192 4.72267   2
   0  -1   6 63.4344 9.53396   1
   0  -1   6 60.3485 4.25305   2
  -1   1  -6 27.6541 3.77683   2
  -1   1  -6 29.5863 3.88264   2
  -1   1  -6 29.6122 7.66564   1
   1  -1   6 32.1834 4.25185   2
   1  -1   6 31.5002 3.90196   2
   1  -1   6 36.6465 9.04604   1
  -2   1  -6 189.440 8.31536   2
  -2   1  -6 178.864 18.8729   1
  -2   1  -6 185.043 8.44906   2
   2  -1   6 187.009 19.6209   1
   2  -1   6 194.169 8.33584   2
   2  -1   6 209.340 9.18231   2
  -3   1  -6 416.496 31.3137   1
  -3   1  -6 410.957 14.1759   2
  -3   1  -6 404.175 14.1938   2
   3  -1   6 420.835 14.4321   2
   3  -1   6 385.518 8.15384   3
   3  -1   6 370.902 30.1187   1
  -4   1  -6 109.660 19.5720   1
  -4   1  -6 141.688 8.94331   2
  -4   1  -6 144.767 9.19470   2
   4  -1   6 146.040 9.31041   2
   4  -1   6 142.491 5.04359   3
   4  -1   6 156.584 21.6971   1
   4  -1   6 139.343 8.69781   2
  -5   1  -6 8.83438 10.0980   1
  -5   1  -6 0.53444 3.58980   2
   5  -1   6 -0.0166 9.97555   1
   5  -1   6 0.72278 1.71546   3
   5  -1   6 0.85147 3.67033   2
   5  -1   6 1.99134 3.15931   2
  -6   1  -6 18.6795 5.64534   2
  -6   1  -6 5.26928 13.2989   1
   6  -1   6 19.4665 13.7156   1
   6  -1   6 26.1060 5.19016   2
   6  -1   6 26.0824 5.98566   2
  -7   1  -6 32.7027 8.21588   2
   7  -1   6 24.3984 3.97649   3
   7  -1   6 33.7171 6.30942   2
   7  -1   6 19.4921 6.97291   2
  -8   1  -6 21.0715 6.78175   2
   8  -1   6 14.9496 9.96820   2
   8  -1   6 13.5783 3.77987   3
   8  -1   6 26.1267 6.12510   2
   9   0  -6 4.69910 5.99701   3
  -9   0   6 2.13565 4.06285   2
  -9   0   6 3.30259 5.51855   2
   8   0  -6 18.9314 6.47895   3
  -8   0   6 23.2124 4.63925   2
  -8   0   6 19.8595 5.75586   2
   7   0  -6 4.71544 8.78345   3
   7   0  -6 3.22273 3.28332   2
  -7   0   6 0.23580 12.2484   1
  -7   0   6 2.27372 3.19270   2
   6   0  -6 54.5720 6.32106   2
   6   0  -6 38.8305 6.88808   3
  -6   0   6 48.6000 6.42292   2
  -6   0   6 20.5616 9.76897   1
  -6   0   6 43.1131 5.76602   2
  -6   0   6 46.5503 13.4097   1
   5   0  -6 243.361 10.7647   2
   5   0  -6 249.716 15.6370   2
   5   0  -6 245.772 11.9785   3
  -5   0   6 269.579 23.9941   1
  -5   0   6 215.632 23.6280   1
  -5   0   6 245.381 10.7494   2
  -5   0   6 245.956 10.9883   2
  -5   0   6 237.569 11.1087   3
   4   0  -6 171.126 9.41622   3
   4   0  -6 167.996 8.26528   2
   4   0  -6 165.603 8.11122   2
  -4   0   6 157.472 8.28208   2
  -4   0   6 158.405 17.9317   1
  -4   0   6 171.446 17.7750   1
  -4   0   6 163.117 8.17498   2
  -4   0   6 167.913 8.39410   3
   3   0  -6 83.5025 5.63497   2
   3   0  -6 87.1210 5.66900   2
   3   0  -6 96.7984 6.60453   3
  -3   0   6 90.4912 5.83889   2
  -3   0   6 96.2236 13.3024   1
  -3   0   6 89.4127 5.77275   3
  -3   0   6 91.7601 5.92379   2
  -3   0   6 87.4984 12.4880   1
   2   0  -6 161.076 6.89282   2
   2   0  -6 161.546 6.99357   2
   2   0  -6 164.766 6.88918   3
  -2   0   6 155.667 6.48189   3
  -2   0   6 147.612 15.0667   1
  -2   0   6 155.880 7.02968   2
  -2   0   6 145.561 16.2313   1
   1   0  -6 188.267 7.46722   2
   1   0  -6 188.165 16.5920   1
   1   0  -6 205.603 6.37909   3
   1   0  -6 196.894 7.52400   2
  -1   0   6 158.989 21.4114   1
  -1   0   6 202.351 7.70643   2
  -1   0   6 186.059 7.37271   2
   0   0  -6 37.3859 3.82456   2
   0   0  -6 34.3733 1.73954   3
   0   0  -6 39.1113 12.3016   1
   0   0  -6 38.4274 3.95412   2
   0   0   6 36.0162 4.82701   2
   0   0   6 32.9028 8.22577   1
   0   0   6 34.9182 3.80522   2
  -1   0  -6 344.608 25.4264   1
  -1   0  -6 351.794 10.9922   2
  -1   0  -6 355.190 11.2945   2
   1   0   6 338.036 11.7367   2
   1   0   6 264.880 32.7123   1
   1   0   6 351.560 10.8626   2
  -2   0  -6 3.01415 2.40914   2
  -2   0  -6 -0.4599 5.33408   1
  -2   0  -6 -1.8751 2.14659   2
   2   0   6 -3.1658 2.31987   2
   2   0   6 -3.0078 4.29343   1
  -3   0  -6 71.2645 14.8167   1
  -3   0  -6 71.5046 5.98344   2
  -3   0  -6 84.7710 6.47807   2
   3   0   6 83.1981 7.15829   2
   3   0   6 76.9817 6.15440   2
   3   0   6 70.4496 13.4115   1
  -4   0  -6 1.90936 3.32797   2
  -4   0  -6 -0.9355 2.79945   2
  -4   0  -6 0.05983 7.82587   1
   4   0   6 8.08867 6.43051   1
   4   0   6 -1.8650 3.19466   2
   4   0   6 4.15098 3.35447   2
   4   0   6 1.39740 1.20474   3
  -5   0  -6 24.8635 5.10367   2
  -5   0  -6 21.1105 11.7594   1
  -5   0  -6 23.3776 5.36679   2
   5   0   6 29.4038 5.71891   2
   5   0   6 19.7349 2.74290   3
   5   0   6 15.7561 4.53680   2
   5   0   6 6.53187 9.53917   1
  -6   0  -6 -8.5272 11.3278   1
  -6   0  -6 9.93434 5.07698   2
   6   0   6 8.60321 11.2306   1
   6   0   6 19.8649 5.74603   2
   6   0   6 15.0462 3.66928   3
   6   0   6 13.3641 4.98293   2
  -7   0  -6 23.4520 15.9934   1
   7   0   6 15.1330 15.6634   1
   7   0   6 5.28319 2.84968   3
   7   0   6 1.30422 4.56307   2
   7   0   6 -9.8226 4.20512   2
  -8   0  -6 14.6725 5.91896   2
   8   0   6 23.7144 4.55255   3
   8   0   6 27.4648 6.81017   2
  -9   0  -6 0.79067 5.17128   2
   9   0   6 2.30522 3.46873   3
   9   0   6 -5.1481 4.43970   2
   9  -1  -6 19.1178 7.08079   3
  -9   1   6 13.2720 6.44446   2
   8  -1  -6 11.6251 5.85493   3
   8  -1  -6 11.5383 4.69277   2
  -8   1   6 17.5256 5.93363   2
  -8   1   6 18.2261 4.65754   2
   7  -1  -6 -2.1939 3.40937   2
   7  -1  -6 7.12056 4.75009   3
  -7   1   6 11.2059 12.3616   1
  -7   1   6 4.64085 3.59912   2
   6  -1  -6 29.1895 5.35351   2
   6  -1  -6 14.3532 5.13355   3
  -6   1   6 34.5221 12.1522   1
  -6   1   6 17.1599 4.85522   2
  -6   1   6 8.35714 10.8098   1
   5  -1  -6 16.2854 6.20650   2
   5  -1  -6 3.16179 2.95689   2
   5  -1  -6 3.26158 4.01355   3
  -5   1   6 12.8062 7.96795   1
  -5   1   6 -2.8295 2.96716   3
  -5   1   6 1.77312 3.74347   2
   4  -1  -6 81.0717 6.81927   3
   4  -1  -6 81.9074 6.25103   2
   4  -1  -6 80.1254 6.09774   2
  -4   1   6 77.1063 6.61974   3
  -4   1   6 81.3591 14.2669   1
  -4   1   6 82.8001 6.61745   2
   3  -1  -6 348.280 11.8687   2
  -3   1   6 331.033 11.6589   2
  -3   1   6 363.976 11.7416   3
  -3   1   6 260.449 22.7484   1
  -3   1   6 310.864 11.2004   2
  -3   1   6 341.825 25.7904   1
   2  -1  -6 24.4873 4.17865   2
   2  -1  -6 25.2193 3.72061   2
   2  -1  -6 19.9419 3.11186   3
  -2   1   6 13.9167 5.66114   1
  -2   1   6 20.2736 6.47347   1
  -2   1   6 15.6204 3.24188   2
  -2   1   6 20.8858 3.14150   3
   1  -1  -6 82.6775 11.4791   1
   1  -1  -6 78.8509 4.98137   2
   1  -1  -6 80.5612 4.19376   3
  -1   1   6 71.2659 4.57010   2
  -1   1   6 79.1406 11.6131   1
  -1   1   6 81.4380 4.23653   3
  -1   1   6 65.6763 6.27443   2
   0  -1  -6 320.803 23.0040   1
   0  -1  -6 374.028 13.3965   2
   0  -1  -6 321.239 11.0706   2
   0  -1  -6 333.424 8.35833   3
   0   1   6 431.470 11.9657   2
   0   1   6 377.621 8.53906   3
   0   1   6 414.668 25.7927   1
  -1  -1  -6 42.6886 9.55744   1
  -1  -1  -6 39.0392 4.17498   2
   1   1   6 37.4199 9.18782   1
   1   1   6 35.7559 4.23414   2
  -2  -1  -6 53.6686 4.88887   2
  -2  -1  -6 51.3840 10.9574   1
  -2  -1  -6 42.3203 4.53659   2
   2   1   6 49.7652 5.30202   2
   2   1   6 48.9039 5.12083   2
   2   1   6 36.0938 8.77135   1
  -3  -1  -6 82.8039 6.09296   2
  -3  -1  -6 71.6774 15.0109   1
  -3  -1  -6 82.9093 6.33719   2
   3   1   6 115.396 28.3719   1
   3   1   6 87.4574 6.25724   2
   3   1   6 86.5770 7.34691   2
  -4  -1  -6 -0.1261 7.22075   1
  -4  -1  -6 0.93495 2.93464   2
  -4  -1  -6 -1.1887 2.94219   2
   4   1   6 4.19171 1.48784   3
   4   1   6 4.65729 5.38352   1
   4   1   6 5.06974 3.28335   2
   4   1   6 3.08411 3.76089   2
  -5  -1  -6 343.919 32.8311   1
  -5  -1  -6 344.166 14.0483   2
  -5  -1  -6 344.378 14.4541   2
   5   1   6 341.308 14.2511   2
   5   1   6 335.831 9.88359   3
   5   1   6 348.153 14.9929   2
   5   1   6 297.039 30.3103   1
  -6  -1  -6 0.82781 4.61172   2
  -6  -1  -6 12.3510 11.6722   1
  -6  -1  -6 -0.8112 3.39758   2
   6   1   6 -12.268 9.18120   1
   6   1   6 1.97722 4.14935   3
   6   1   6 -1.2841 3.19891   2
   6   1   6 5.56615 4.15988   2
  -7  -1  -6 14.6976 14.5865   1
  -7  -1  -6 -5.5579 4.65862   2
   7   1   6 -6.6719 14.2796   1
   7   1   6 0.36644 2.82475   3
   7   1   6 -3.0724 4.18295   2
   7   1   6 2.03383 3.83052   2
  -8  -1  -6 54.2980 8.68668   2
  -8  -1  -6 -1.3118 27.5686   1
   8   1   6 58.8605 9.11036   2
   8   1   6 49.8490 7.44849   2
   8   1   6 63.7933 6.41097   3
   8   1   6 11.2860 22.0489   1
  -9  -1  -6 32.9664 7.82513   2
   9   1   6 47.2683 6.10246   3
   9   1   6 37.3365 7.81619   2
   9  -2  -6 27.3159 9.26943   3
  -9   2   6 40.7543 8.16824   2
   8  -2  -6 28.2174 6.07048   2
   8  -2  -6 32.6380 7.33944   3
  -8   2   6 36.3175 7.27879   2
  -8   2   6 28.3271 5.88385   2
   7  -2  -6 3.66836 4.87889   3
   7  -2  -6 -5.4238 3.02693   2
  -7   2   6 -4.0593 13.2435   1
  -7   2   6 -4.2009 2.78484   2
   6  -2  -6 -1.6761 3.21902   2
   6  -2  -6 5.89110 4.48271   3
  -6   2   6 -7.5038 9.21804   1
  -6   2   6 1.02414 3.04761   2
  -6   2   6 0.88990 3.54944   2
  -6   2   6 16.7635 12.0903   1
   5  -2  -6 53.4537 6.06933   2
   5  -2  -6 56.5675 7.13568   3
   5  -2  -6 65.4036 7.01445   2
  -5   2   6 50.6060 6.14036   2
  -5   2   6 52.5057 6.70210   2
  -5   2   6 48.0411 6.45909   3
  -5   2   6 63.0674 14.2427   1
  -5   2   6 47.9809 15.9602   1
   4  -2  -6 17.3312 4.05756   2
   4  -2  -6 26.0042 4.93435   2
   4  -2  -6 16.1477 4.51720   3
  -4   2   6 18.0141 6.89763   1
  -4   2   6 14.2344 4.26060   2
  -4   2   6 22.8355 4.68476   2
  -4   2   6 9.51555 6.92513   1
  -4   2   6 13.9619 4.09379   3
   3  -2  -6 1538.42 35.3598   2
   3  -2  -6 1517.72 34.6315   3
   3  -2  -6 1517.31 35.1772   2
  -3   2   6 1659.04 65.6520   1
  -3   2   6 1507.51 35.2477   2
  -3   2   6 1584.47 35.6827   2
  -3   2   6 1468.22 62.8388   1
  -3   2   6 1534.60 34.4717   3
   2  -2  -6 3.92628 2.46392   3
   2  -2  -6 1.14072 2.43269   2
   2  -2  -6 -1.9983 2.36844   2
  -2   2   6 2.34988 2.47226   3
  -2   2   6 1.50065 2.99048   2
  -2   2   6 -3.1467 6.14302   1
  -2   2   6 -1.4475 4.47777   1
  -2   2   6 2.49295 2.52724   2
   1  -2  -6 15.1647 6.38466   1
   1  -2  -6 13.4064 3.31276   2
   1  -2  -6 16.6366 2.62089   3
  -1   2   6 5.14367 5.56424   1
  -1   2   6 6.30807 2.68641   2
  -1   2   6 8.28005 2.96153   2
  -1   2   6 12.6545 2.57445   3
   0  -2  -6 1629.22 35.0428   2
   0  -2  -6 1618.40 34.9212   2
   0  -2  -6 1666.51 59.6086   1
   0  -2  -6 1644.45 31.8750   3
   0   2   6 1400.53 37.5522   2
   0   2   6 1581.31 34.8178   2
   0   2   6 1628.74 31.8479   3
   0   2   6 1691.77 60.4850   1
  -1  -2  -6 22.7492 3.57137   2
  -1  -2  -6 22.1395 1.86514   3
  -1  -2  -6 33.3736 4.13324   2
  -1  -2  -6 25.5639 7.95526   1
   1   2   6 22.2830 7.41754   1
   1   2   6 15.7122 3.44390   2
   1   2   6 21.7275 3.50909   2
   1   2   6 24.1027 2.09491   3
  -2  -2  -6 169.863 8.10679   2
  -2  -2  -6 165.483 7.89746   2
  -2  -2  -6 185.959 18.5013   1
   2   2   6 177.416 10.2564   2
   2   2   6 163.625 18.0048   1
   2   2   6 171.928 4.20677   3
   2   2   6 172.078 7.99494   2
  -3  -2  -6 21.0265 4.18750   2
  -3  -2  -6 18.8505 8.31390   1
  -3  -2  -6 13.0269 4.17053   2
   3   2   6 15.6278 1.78818   3
   3   2   6 17.3196 1.78612   3
   3   2   6 19.6929 4.40938   2
   3   2   6 17.8703 3.87406   2
   3   2   6 15.6743 6.21843   1
  -4  -2  -6 414.202 34.0041   1
  -4  -2  -6 406.203 14.7379   2
  -4  -2  -6 418.928 14.6120   2
   4   2   6 411.370 23.6298   2
   4   2   6 421.926 14.8240   2
   4   2   6 407.325 32.7472   1
   4   2   6 396.474 10.4267   3
   4   2   6 403.891 10.2347   3
  -5  -2  -6 41.0775 13.2801   1
  -5  -2  -6 33.7456 5.50083   2
  -5  -2  -6 35.4621 6.05959   2
   5   2   6 26.7923 5.34034   2
   5   2   6 31.5400 3.80932   3
   5   2   6 31.0139 5.76964   2
  -6  -2  -6 18.7084 5.53453   2
  -6  -2  -6 15.8097 4.58712   2
  -6  -2  -6 13.4026 11.2040   1
   6   2   6 14.0348 4.21415   3
   6   2   6 10.8486 5.02651   2
   6   2   6 17.2036 5.67471   2
   6   2   6 17.1614 11.5678   1
  -7  -2  -6 11.5140 14.0992   1
  -7  -2  -6 7.65422 5.18365   2
  -7  -2  -6 16.4946 5.00824   2
   7   2   6 13.8310 3.75014   3
   7   2   6 14.5506 4.77591   2
   7   2   6 6.23259 12.3324   1
   7   2   6 12.1286 5.45615   2
  -8  -2  -6 49.0644 8.41441   2
  -8  -2  -6 20.1574 22.1841   1
   8   2   6 45.4672 7.80726   2
   8   2   6 52.0043 6.18365   3
   8   2   6 17.7756 21.0037   1
   8   2   6 56.8116 7.39184   2
  -9  -2  -6 48.4619 8.69424   2
   9   2   6 38.0717 7.93149   2
   9   2   6 34.0394 5.61208   3
   8  -3  -6 0.39490 5.00413   3
  -8   3   6 8.11046 5.03835   2
   7  -3  -6 26.4545 5.89470   2
   7  -3  -6 24.7160 6.21855   3
  -7   3   6 44.6005 22.7492   1
  -7   3   6 22.3046 5.69459   2
   6  -3  -6 101.511 9.67920   3
   6  -3  -6 113.194 9.05101   2
  -6   3   6 100.602 8.44757   2
  -6   3   6 107.992 9.35291   2
   5  -3  -6 42.3129 6.73426   3
   5  -3  -6 42.8942 6.44827   2
   5  -3  -6 41.2158 6.16751   2
  -5   3   6 35.8097 12.6561   1
  -5   3   6 29.1090 5.86646   2
  -5   3   6 50.2555 6.70265   2
  -5   3   6 36.3495 13.9051   1
  -5   3   6 39.7601 6.13652   3
   4  -3  -6 177.454 9.94678   2
   4  -3  -6 167.589 9.53177   2
   4  -3  -6 186.735 9.93832   3
  -4   3   6 144.054 20.6938   1
  -4   3   6 178.909 10.1658   2
  -4   3   6 179.979 9.74530   3
  -4   3   6 186.785 10.3608   2
  -4   3   6 155.969 20.6488   1
   3  -3  -6 242.994 10.9142   2
   3  -3  -6 240.817 10.3388   3
   3  -3  -6 231.340 10.7010   2
  -3   3   6 278.083 35.7399   1
  -3   3   6 239.038 11.0869   2
  -3   3   6 240.705 10.8250   3
  -3   3   6 232.575 10.7773   2
  -3   3   6 232.657 23.9410   1
   2  -3  -6 27.4093 4.56199   2
   2  -3  -6 18.5981 3.61674   3
   2  -3  -6 21.3236 4.03039   2
  -2   3   6 24.1584 7.12028   2
  -2   3   6 20.4966 4.00586   2
  -2   3   6 25.7152 9.58905   1
  -2   3   6 14.8458 7.30706   1
  -2   3   6 30.8938 4.47196   3
   1  -3  -6 6.06671 2.45853   3
   1  -3  -6 7.81926 5.36077   1
   1  -3  -6 8.47883 2.98955   2
   1  -3  -6 7.52615 2.87838   2
  -1   3   6 8.16044 2.63671   3
  -1   3   6 -0.8140 4.47668   1
  -1   3   6 7.38978 2.95214   2
   0  -3  -6 11.0222 2.35821   3
   0  -3  -6 15.0417 3.49802   2
   0  -3  -6 20.6378 3.68551   2
   0  -3  -6 23.2095 8.31902   1
   0   3   6 16.0346 3.47504   2
   0   3   6 7.02777 5.24317   1
   0   3   6 19.2946 2.74636   3
   0   3   6 12.9112 3.46930   2
  -1  -3  -6 4.75019 2.82333   2
  -1  -3  -6 3.92004 1.58674   3
  -1  -3  -6 1.51704 2.43621   2
   1   3   6 3.68580 1.40687   3
   1   3   6 0.32903 2.71375   2
   1   3   6 -0.3409 3.87114   1
   1   3   6 3.93675 2.75100   2
  -2  -3  -6 47.4257 5.08602   2
  -2  -3  -6 41.8253 4.76202   2
   2   3   6 44.1299 5.23364   2
   2   3   6 45.7089 2.78804   3
   2   3   6 45.8535 4.92776   2
   2   3   6 57.1579 12.0588   1
  -3  -3  -6 24.2127 4.48309   2
  -3  -3  -6 21.7263 3.93288   2
  -3  -3  -6 17.3779 7.86384   1
   3   3   6 18.2424 3.96731   2
   3   3   6 19.2769 4.19314   2
   3   3   6 21.5876 8.02350   1
   3   3   6 18.3520 2.16319   3
  -4  -3  -6 162.398 9.12715   2
  -4  -3  -6 167.257 8.88429   2
  -4  -3  -6 153.268 20.2780   1
   4   3   6 161.069 11.5353   2
   4   3   6 163.702 6.39469   3
   4   3   6 170.967 9.17965   2
   4   3   6 141.239 19.5895   1
   4   3   6 171.439 6.19540   3
  -5  -3  -6 158.655 9.84340   2
  -5  -3  -6 164.810 22.8101   1
  -5  -3  -6 151.939 11.5741   2
   5   3   6 166.326 9.80153   2
   5   3   6 166.744 23.1850   1
   5   3   6 162.170 6.80843   3
   5   3   6 159.169 10.2559   2
   5   3   6 159.926 7.36752   3
  -6  -3  -6 3.35560 3.95556   2
  -6  -3  -6 13.0397 10.4072   1
  -6  -3  -6 10.8614 4.77172   2
   6   3   6 28.5508 12.2217   1
   6   3   6 9.85532 4.31494   2
   6   3   6 6.60355 4.39347   2
   6   3   6 1.99640 3.80960   3
  -7  -3  -6 29.3469 5.82667   2
  -7  -3  -6 30.8141 6.38251   2
  -7  -3  -6 23.2425 15.2536   1
   7   3   6 20.9964 4.66928   3
   7   3   6 22.2548 6.03151   2
   7   3   6 16.0161 14.4487   1
   7   3   6 19.9667 5.30438   2
  -8  -3  -6 2.82387 4.86582   2
  -8  -3  -6 -3.7192 4.16705   2
   8   3   6 -3.6197 16.3497   1
   8   3   6 -0.9114 4.37096   2
   8   3   6 -5.3292 3.29770   3
   8   3   6 6.00467 5.05712   2
  -9  -3  -6 127.013 11.4025   2
  -9  -3  -6 103.611 17.4306   2
   9   3   6 104.270 9.44749   3
   9   3   6 114.466 11.3218   2
 -10  -3  -6 6.83020 6.20831   2
  10   3   6 11.6321 7.03879   2
  10   3   6 13.0247 5.04372   3
   8  -4  -6 15.8704 5.13595   2
   8  -4  -6 26.2628 7.22635   3
  -8   4   6 4.11590 4.97720   2
   7  -4  -6 23.1950 6.35359   3
   7  -4  -6 27.3696 6.88192   2
  -7   4   6 13.9265 8.11231   2
  -7   4   6 36.8868 8.10497   2
   6  -4  -6 52.5886 8.38455   3
   6  -4  -6 51.6699 9.08765   2
  -6   4   6 27.4308 17.7694   1
  -6   4   6 54.0636 8.47795   2
  -6   4   6 43.7811 17.8524   1
  -6   4   6 55.4415 7.33650   2
   5  -4  -6 6.10215 3.94758   2
   5  -4  -6 3.10599 4.16142   3
   5  -4  -6 0.86240 3.77330   2
  -5   4   6 13.7483 4.64058   2
  -5   4   6 15.1625 5.05595   2
  -5   4   6 -1.8976 10.7889   1
  -5   4   6 5.03757 10.8847   1
   4  -4  -6 256.787 12.0834   2
   4  -4  -6 253.515 12.6528   2
   4  -4  -6 240.333 11.7699   3
  -4   4   6 239.089 12.4262   2
  -4   4   6 210.503 25.4555   1
  -4   4   6 245.202 12.0168   2
   3  -4  -6 1124.86 28.2973   3
   3  -4  -6 1111.99 29.0242   2
   3  -4  -6 1109.21 28.9976   2
  -3   4   6 1097.51 28.9905   2
  -3   4   6 1090.09 57.5220   1
  -3   4   6 1121.30 57.3539   1
  -3   4   6 1095.63 28.0448   3
  -3   4   6 1146.03 29.5856   2
   2  -4  -6 6.74108 3.13509   3
   2  -4  -6 11.8251 3.80513   2
   2  -4  -6 8.19517 3.64651   2
  -2   4   6 11.4586 3.94225   2
  -2   4   6 9.94779 4.03641   2
  -2   4   6 4.34889 5.84623   1
  -2   4   6 12.5723 6.07790   1
  -2   4   6 12.6632 3.71973   3
   1  -4  -6 15.9515 3.81866   2
   1  -4  -6 7.04348 6.37714   1
   1  -4  -6 10.5496 3.53782   3
   1  -4  -6 10.6605 3.37293   2
  -1   4   6 8.62947 3.41979   2
  -1   4   6 19.1963 7.58221   1
  -1   4   6 8.16461 3.26156   2
   0  -4  -6 287.800 9.48169   3
   0  -4  -6 273.038 10.8111   2
   0  -4  -6 264.156 10.5708   2
   0  -4  -6 299.871 24.6733   1
   0   4   6 278.912 23.8987   1
   0   4   6 309.241 11.4117   2
   0   4   6 286.274 9.21158   3
   0   4   6 275.896 10.8414   2
  -1  -4  -6 1405.64 28.8780   3
  -1  -4  -6 1351.88 56.9924   1
  -1  -4  -6 1391.87 31.7878   2
  -1  -4  -6 1309.22 31.2245   2
   1   4   6 1351.84 57.3970   1
   1   4   6 1309.12 28.4636   3
   1   4   6 1412.86 31.9555   2
   1   4   6 1371.49 31.5223   2
  -2  -4  -6 513.879 15.7838   2
  -2  -4  -6 508.653 33.2117   1
  -2  -4  -6 528.256 13.1430   3
  -2  -4  -6 532.851 16.0872   2
   2   4   6 518.045 13.0409   3
   2   4   6 521.409 15.9862   2
   2   4   6 554.638 16.5717   2
   2   4   6 545.101 35.0848   1
  -3  -4  -6 56.4075 13.1973   1
  -3  -4  -6 66.0988 6.13119   2
  -3  -4  -6 63.8607 5.88149   2
   3   4   6 58.5607 14.4982   1
   3   4   6 67.4747 5.96454   2
   3   4   6 64.7996 6.23712   2
   3   4   6 64.8145 4.05798   3
  -4  -4  -6 32.0383 10.6828   1
  -4  -4  -6 30.5726 5.16865   2
  -4  -4  -6 28.8891 4.86370   2
   4   4   6 12.4400 7.89173   1
   4   4   6 29.7951 5.33486   2
   4   4   6 22.1273 4.70005   2
   4   4   6 28.8448 3.51547   3
  -5  -4  -6 81.3235 18.0591   1
  -5  -4  -6 114.619 8.48629   2
  -5  -4  -6 110.029 8.04817   2
   5   4   6 91.7935 17.9609   1
   5   4   6 109.538 6.00705   3
   5   4   6 104.462 6.54787   3
   5   4   6 114.322 8.72141   2
   5   4   6 106.158 10.0312   2
  -6  -4  -6 8.73703 4.54874   2
  -6  -4  -6 9.37410 4.97744   2
  -6  -4  -6 10.1238 10.3030   1
   6   4   6 5.06648 4.45258   2
   6   4   6 7.22419 4.13839   2
   6   4   6 5.63228 2.90043   3
   6   4   6 6.50551 3.53398   3
   6   4   6 -1.2977 7.74377   1
  -7  -4  -6 5.76380 3.75902   2
  -7  -4  -6 4.66867 4.73254   2
  -7  -4  -6 0.22048 12.5654   1
   7   4   6 4.89753 4.18648   3
   7   4   6 7.62076 4.57501   2
   7   4   6 -4.9789 16.5658   1
   7   4   6 6.68107 4.00880   2
  -8  -4  -6 7.45947 4.55878   2
  -8  -4  -6 2.11542 4.24935   2
  -8  -4  -6 -0.1742 16.7848   1
   8   4   6 14.0621 15.0270   1
   8   4   6 4.14758 5.23192   2
   8   4   6 5.07128 4.43981   3
   8   4   6 -4.5828 4.19850   2
  -9  -4  -6 12.1625 5.58806   2
  -9  -4  -6 0.28718 4.79679   2
   9   4   6 11.8600 4.99557   3
   9   4   6 0.34229 5.47231   2
 -10  -4  -6 2.13957 5.52630   2
  10   4   6 -1.4198 5.69149   2
  10   4   6 -0.8920 3.98682   3
   8  -5  -6 2.66204 4.83097   2
   8  -5  -6 -5.4777 4.89803   3
  -8   5   6 6.45203 5.09341   2
   7  -5  -6 1.22592 4.01879   2
   7  -5  -6 6.47067 5.29793   3
  -7   5   6 1.89050 4.82257   2
  -7   5   6 7.33602 6.13866   2
   6  -5  -6 41.2886 7.06937   2
   6  -5  -6 34.2391 6.84612   3
  -6   5   6 47.1426 20.5652   1
  -6   5   6 43.3682 6.82638   2
  -6   5   6 31.8610 6.67791   2
   5  -5  -6 15.9670 8.44210   2
   5  -5  -6 21.3791 4.98562   2
   5  -5  -6 9.72539 4.76440   3
  -5   5   6 13.2767 14.1430   1
  -5   5   6 10.7057 5.70404   2
  -5   5   6 8.86439 5.05178   2
  -5   5   6 5.52543 12.0555   1
   4  -5  -6 4.21764 4.75960   2
   4  -5  -6 10.3421 4.18162   2
   4  -5  -6 5.81002 4.11412   3
  -4   5   6 18.2369 9.43313   1
  -4   5   6 7.85283 10.4139   1
  -4   5   6 7.37784 4.12081   2
  -4   5   6 2.67752 4.05150   3
  -4   5   6 5.64200 4.40250   2
   3  -5  -6 104.277 8.18333   3
   3  -5  -6 108.505 8.43178   2
   3  -5  -6 93.2432 8.13407   2
  -3   5   6 107.925 8.45486   2
  -3   5   6 94.7797 8.26042   3
  -3   5   6 99.4352 8.62418   2
  -3   5   6 86.4310 15.4609   1
  -3   5   6 94.8780 19.9345   1
   2  -5  -6 30.2540 4.96330   3
   2  -5  -6 33.4358 5.43140   2
  -2   5   6 33.0684 5.55804   2
  -2   5   6 26.7464 10.0905   1
  -2   5   6 43.0382 11.5303   1
  -2   5   6 34.1988 5.08313   3
  -2   5   6 39.9505 5.63696   2
   1  -5  -6 105.134 7.23674   2
   1  -5  -6 100.319 7.25978   2
   1  -5  -6 106.910 6.74023   3
  -1   5   6 113.479 6.74994   3
  -1   5   6 118.979 7.92340   2
  -1   5   6 107.119 16.0488   1
   0  -5  -6 38.3548 5.19784   2
   0  -5  -6 36.5533 4.86271   2
   0  -5  -6 35.8584 10.5360   1
   0  -5  -6 25.2757 3.86680   3
   0   5   6 34.6863 5.17991   2
   0   5   6 33.9391 4.08192   3
   0   5   6 37.8233 5.17094   2
   0   5   6 29.6406 9.21271   1
  -1  -5  -6 511.310 33.6648   1
  -1  -5  -6 492.207 13.7290   3
  -1  -5  -6 482.961 15.2683   2
  -1  -5  -6 483.232 15.4282   2
   1   5   6 489.632 15.5374   2
   1   5   6 449.817 32.6600   1
   1   5   6 487.384 15.6059   2
   1   5   6 495.320 13.5503   3
  -2  -5  -6 -0.1885 2.90363   2
  -2  -5  -6 -0.7008 1.83423   3
  -2  -5  -6 3.48625 2.93126   2
  -2  -5  -6 1.62726 4.52164   1
   2   5   6 -0.3136 1.72656   3
   2   5   6 0.36547 3.02851   2
   2   5   6 4.64329 6.04605   1
   2   5   6 0.82393 2.88779   2
  -3  -5  -6 2.37572 3.20997   2
  -3  -5  -6 1.55640 2.90911   2
   3   5   6 1.73309 3.34379   2
   3   5   6 5.73150 6.43905   1
   3   5   6 2.22490 2.04460   3
   3   5   6 0.38544 2.92447   2
  -4  -5  -6 200.119 9.97654   2
  -4  -5  -6 183.391 22.0142   1
  -4  -5  -6 196.848 10.2241   2
   4   5   6 198.619 23.8546   1
   4   5   6 194.574 10.2859   2
   4   5   6 199.331 7.96134   3
  -5  -5  -6 21.0612 11.6300   1
  -5  -5  -6 5.54979 4.07893   2
  -5  -5  -6 6.08035 3.89407   2
   5   5   6 5.19312 2.83392   3
   5   5   6 8.45772 4.28379   2
   5   5   6 -1.2741 6.77706   1
   5   5   6 14.8128 4.11180   3
   5   5   6 5.56776 3.80952   2
  -6  -5  -6 441.992 16.7428   2
  -6  -5  -6 394.663 36.6302   1
  -6  -5  -6 462.457 17.6409   2
   6   5   6 456.549 17.6594   2
   6   5   6 393.903 37.4439   1
   6   5   6 417.806 16.7765   2
   6   5   6 446.418 14.2203   3
   6   5   6 433.205 14.4119   3
  -7  -5  -6 423.637 36.0489   1
  -7  -5  -6 359.032 15.6836   2
  -7  -5  -6 386.610 16.8176   2
   7   5   6 419.572 26.8865   2
   7   5   6 386.000 13.8377   3
   7   5   6 314.962 36.4034   1
   7   5   6 388.769 16.9950   2
   7   5   6 410.404 14.9763   3
  -8  -5  -6 10.4193 28.0582   1
  -8  -5  -6 -4.6649 3.23966   2
  -8  -5  -6 -1.7008 4.07070   2
   8   5   6 -21.211 20.0408   1
   8   5   6 3.33735 4.28780   3
   8   5   6 6.70560 6.49046   2
   8   5   6 -0.8912 4.59831   2
   8   5   6 8.75124 3.19452   3
  -9  -5  -6 4.80012 5.06391   2
   9   5   6 -9.3178 4.13549   3
   9   5   6 5.08873 4.85992   2
 -10  -5  -6 -5.2803 5.25343   2
  10   5   6 -0.4202 5.00163   3
  10   5   6 7.26677 5.63165   2
   7  -6  -6 1.88352 4.69451   2
   7  -6  -6 5.34714 5.33166   3
  -7   6   6 4.29457 5.12787   2
   6  -6  -6 9.79065 5.03658   3
   6  -6  -6 6.09727 4.49502   2
  -6   6   6 7.42630 4.39882   2
  -6   6   6 7.32254 5.04895   2
  -6   6   6 -8.9401 24.3267   1
  -6   6   6 -17.236 21.3318   1
   5  -6  -6 -3.5743 2.99874   2
   5  -6  -6 -1.4133 3.68783   2
   5  -6  -6 4.54927 4.37933   3
  -5   6   6 0.25661 3.63948   2
  -5   6   6 -12.988 13.9615   1
  -5   6   6 -2.0950 4.87787   2
  -5   6   6 -7.7080 15.3184   1
   4  -6  -6 108.489 9.20764   2
   4  -6  -6 91.4104 8.26797   2
   4  -6  -6 111.212 9.27743   3
  -4   6   6 76.4629 18.3787   1
  -4   6   6 94.2463 8.48348   2
  -4   6   6 98.9030 9.48894   2
   3  -6  -6 41.6016 6.36133   3
   3  -6  -6 44.0689 11.6297   2
   3  -6  -6 50.2716 6.96943   2
  -3   6   6 49.7304 18.5647   1
  -3   6   6 52.9690 7.20305   2
  -3   6   6 29.2918 13.8987   1
  -3   6   6 53.1817 7.43179   2
  -3   6   6 47.7470 6.36557   3
   2  -6  -6 193.014 10.6524   2
   2  -6  -6 185.423 10.9244   2
   2  -6  -6 177.323 9.67916   3
  -2   6   6 190.382 13.1454   2
  -2   6   6 173.015 9.63625   3
  -2   6   6 210.221 24.3746   1
  -2   6   6 180.050 24.1028   1
  -2   6   6 187.467 12.7549   2
   1  -6  -6 90.9935 7.17849   3
   1  -6  -6 88.6959 7.26029   2
  -1   6   6 76.5193 16.9105   1
  -1   6   6 108.931 16.6048   1
  -1   6   6 102.311 7.94506   2
  -1   6   6 101.939 6.91328   3
  -1   6   6 90.6046 7.37586   2
   0  -6  -6 14.7740 3.55953   3
   0  -6  -6 18.3074 4.21849   2
   0  -6  -6 8.44030 3.75851   2
   0  -6  -6 13.0537 7.40657   1
   0   6   6 12.5529 3.96068   2
   0   6   6 11.9982 8.37733   1
   0   6   6 11.9357 3.77570   2
   0   6   6 16.2094 3.45703   3
  -1  -6  -6 4.91313 3.30377   2
  -1  -6  -6 3.90042 4.00137   2
  -1  -6  -6 16.7500 6.53774   1
  -1  -6  -6 7.70727 3.33214   3
   1   6   6 -1.7498 2.82803   2
   1   6   6 2.29439 3.51746   2
   1   6   6 4.87978 2.59136   3
   1   6   6 9.94665 5.59853   1
  -2  -6  -6 589.503 16.8779   3
  -2  -6  -6 611.805 38.4330   1
  -2  -6  -6 596.869 18.0054   2
  -2  -6  -6 588.152 21.3499   2
   2   6   6 610.360 39.3251   1
   2   6   6 583.128 18.1562   2
   2   6   6 598.923 16.2715   3
   2   6   6 567.450 18.4213   2
  -3  -6  -6 79.8897 6.61996   2
  -3  -6  -6 64.1742 13.7697   1
  -3  -6  -6 87.4560 8.30053   2
   3   6   6 53.9009 13.0896   1
   3   6   6 84.2549 6.95827   2
   3   6   6 73.3605 6.96012   2
   3   6   6 81.6295 5.71254   3
  -4  -6  -6 49.4038 5.88512   2
  -4  -6  -6 52.4311 6.67606   2
   4   6   6 56.9065 6.71159   2
   4   6   6 49.2677 4.99297   3
   4   6   6 53.1813 13.7557   1
   4   6   6 48.4208 6.11647   2
  -5  -6  -6 11.4777 4.24142   2
  -5  -6  -6 22.5460 5.10497   2
  -5  -6  -6 21.9094 11.6934   1
   5   6   6 16.0848 3.42967   3
   5   6   6 20.8570 4.91507   2
   5   6   6 5.88958 8.30599   1
   5   6   6 12.3799 4.32057   2
  -6  -6  -6 8.93519 8.95196   1
  -6  -6  -6 4.38728 4.19106   2
  -6  -6  -6 6.68552 3.92071   2
   6   6   6 -2.3089 9.38273   1
   6   6   6 4.67105 3.56962   3
   6   6   6 3.21566 4.52270   2
   6   6   6 6.92144 4.55644   2
   6   6   6 5.81662 3.03417   3
  -7  -6  -6 30.3731 14.3935   1
  -7  -6  -6 31.9180 6.60965   2
  -7  -6  -6 27.8293 5.73225   2
   7   6   6 22.3923 6.35453   2
   7   6   6 29.8544 5.40030   3
   7   6   6 31.6541 6.48582   2
   7   6   6 33.9276 5.28080   3
   7   6   6 5.29005 12.0687   1
  -8  -6  -6 -1.3502 15.6933   1
  -8  -6  -6 0.56517 3.95955   2
  -8  -6  -6 -3.0691 4.65901   2
   8   6   6 3.02555 16.2198   1
   8   6   6 1.68534 4.18046   3
  -9  -6  -6 15.5237 5.57958   2
  -9  -6  -6 19.3217 6.32079   2
   9   6   6 16.2811 6.88780   3
   9   6   6 0.68073 5.67819   2
 -10  -6  -6 9.92934 5.94372   2
  10   6   6 13.5133 6.06898   3
  10   6   6 18.0026 6.60096   2
   7  -7  -6 -6.0280 4.23152   2
   7  -7  -6 5.04084 5.78863   3
  -7   7   6 3.82143 5.95122   2
   6  -7  -6 2.86065 4.57934   2
   6  -7  -6 5.38871 5.14317   3
  -6   7   6 -0.2621 4.89086   2
   5  -7  -6 -2.3808 4.14609   3
   5  -7  -6 -4.7819 3.80178   2
   5  -7  -6 -5.2228 3.30998   2
  -5   7   6 -9.9074 17.1412   1
  -5   7   6 -16.204 16.8311   1
  -5   7   6 3.32615 5.27691   2
  -5   7   6 2.55309 4.57932   2
   4  -7  -6 53.4789 7.86336   2
   4  -7  -6 64.8023 7.28698   2
  -4   7   6 44.1375 19.0451   1
  -4   7   6 59.9479 8.49529   2
  -4   7   6 51.1554 16.9557   1
  -4   7   6 58.9669 7.42376   2
   3  -7  -6 22.2857 5.54211   2
   3  -7  -6 22.3533 5.26044   2
   3  -7  -6 28.6317 6.03629   3
  -3   7   6 -4.3250 13.4742   1
  -3   7   6 30.6659 13.4092   1
  -3   7   6 19.3313 5.17626   2
  -3   7   6 22.6170 5.78225   2
   2  -7  -6 3.12503 3.98009   3
   2  -7  -6 0.75892 3.55824   2
   2  -7  -6 3.57458 3.81360   2
  -2   7   6 -1.1683 8.13857   1
  -2   7   6 8.82871 4.27185   2
  -2   7   6 0.49111 3.24240   3
  -2   7   6 12.9006 9.63003   1
   1  -7  -6 9.51586 3.91598   3
   1  -7  -6 8.10338 3.84679   2
   1  -7  -6 0.41601 3.36917   2
  -1   7   6 5.57277 3.38073   3
  -1   7   6 2.98381 7.88403   1
  -1   7   6 8.62238 8.98778   1
  -1   7   6 6.13871 4.10156   2
  -1   7   6 2.60778 4.08805   2
   0  -7  -6 15.5576 3.96077   3
   0  -7  -6 15.3974 4.30871   2
   0  -7  -6 15.9170 4.54976   2
   0   7   6 12.4905 3.59317   3
   0   7   6 11.6686 4.27128   2
   0   7   6 17.0743 9.51737   1
  -1  -7  -6 58.8071 5.96145   3
  -1  -7  -6 73.3920 13.6909   1
  -1  -7  -6 61.5417 6.45831   2
  -1  -7  -6 54.6110 6.05313   2
   1   7   6 44.4508 5.25119   3
   1   7   6 52.8398 6.21209   2
   1   7   6 39.6735 13.1797   1
   1   7   6 54.1723 6.61760   2
  -2  -7  -6 20.1771 8.71271   1
  -2  -7  -6 25.0057 4.77163   2
  -2  -7  -6 23.7149 4.87541   2
  -2  -7  -6 17.6505 4.05573   3
   2   7   6 21.4193 4.01917   3
   2   7   6 17.3915 4.59669   2
   2   7   6 4.63504 7.45106   1
   2   7   6 9.05252 4.09773   2
  -3  -7  -6 171.159 20.8277   1
  -3  -7  -6 167.948 9.26195   2
  -3  -7  -6 165.328 9.45942   2
   3   7   6 160.311 21.4866   1
   3   7   6 169.364 9.56052   2
   3   7   6 151.676 8.25883   3
   3   7   6 151.023 9.39349   2
  -4  -7  -6 220.111 10.8339   2
  -4  -7  -6 237.771 24.2379   1
  -4  -7  -6 234.422 11.4804   2
   4   7   6 224.682 11.3653   2
   4   7   6 235.978 26.8302   1
   4   7   6 231.225 10.0185   3
   4   7   6 228.183 11.3784   2
  -5  -7  -6 20.2163 10.5281   1
  -5  -7  -6 -2.8295 3.35701   2
  -5  -7  -6 11.7553 4.48825   2
   5   7   6 5.47180 2.98244   3
   5   7   6 -1.1108 3.59451   2
   5   7   6 4.49994 4.16834   2
   5   7   6 3.05478 9.72915   1
  -6  -7  -6 181.397 10.9670   2
  -6  -7  -6 165.105 10.1897   2
  -6  -7  -6 140.643 22.4670   1
   6   7   6 180.860 11.2784   2
   6   7   6 184.387 11.3216   2
   6   7   6 137.434 22.7529   1
   6   7   6 173.111 9.34441   3
  -7  -7  -6 262.792 13.0055   2
  -7  -7  -6 232.108 29.8905   1
  -7  -7  -6 289.420 14.5695   2
   7   7   6 272.488 12.7852   3
   7   7   6 205.264 31.6993   1
   7   7   6 273.715 16.6690   2
   7   7   6 263.539 14.1970   2
   7   7   6 269.593 11.9877   3
  -8  -7  -6 4.48898 4.33172   2
  -8  -7  -6 26.5552 16.2342   1
  -8  -7  -6 7.35123 3.69735   2
   8   7   6 -1.8150 4.08809   3
   8   7   6 -17.178 16.1993   1
   8   7   6 7.92611 4.71997   2
  -9  -7  -6 0.37541 4.27229   2
  -9  -7  -6 -1.5361 4.06348   2
   9   7   6 -2.2714 5.09500   2
   9   7   6 -11.505 4.22374   3
 -10  -7  -6 4.42290 5.10230   2
  10   7   6 -11.120 4.77828   3
  10   7   6 -7.4971 6.31605   2
   6  -8  -6 -1.5657 4.28952   2
  -6   8   6 0.88071 5.45599   2
   5  -8  -6 8.45302 5.29425   2
   5  -8  -6 -3.4084 4.52592   3
  -5   8   6 0.58065 4.56080   2
   4  -8  -6 -5.8752 3.56292   2
   4  -8  -6 4.25380 4.11387   2
   4  -8  -6 -1.0208 4.11427   3
  -4   8   6 3.03846 16.3453   1
  -4   8   6 -5.9835 16.1421   1
  -4   8   6 4.33243 4.76375   2
  -4   8   6 0.18055 3.89560   2
   3  -8  -6 -1.5441 3.44119   2
   3  -8  -6 -3.7844 3.90056   3
   3  -8  -6 1.66035 3.15011   2
  -3   8   6 17.4629 17.5877   1
  -3   8   6 3.02956 4.28224   2
  -3   8   6 -3.4124 15.6852   1
  -3   8   6 -1.9899 3.82555   2
   2  -8  -6 51.9788 7.06073   2
   2  -8  -6 38.8093 6.58223   2
   2  -8  -6 45.8864 6.55580   3
  -2   8   6 30.3757 13.8172   1
  -2   8   6 42.0827 16.5227   1
  -2   8   6 45.1025 6.83866   2
   1  -8  -6 122.930 8.98116   2
   1  -8  -6 130.769 9.29393   2
   1  -8  -6 139.221 9.60188   3
  -1   8   6 133.570 9.77178   2
  -1   8   6 115.478 22.6007   1
  -1   8   6 136.987 9.46946   2
  -1   8   6 141.219 8.82967   3
  -1   8   6 115.413 22.2472   1
   0  -8  -6 654.199 20.2287   3
   0  -8  -6 654.981 20.8337   2
   0  -8  -6 625.328 20.2676   2
   0   8   6 631.581 46.0838   1
   0   8   6 584.584 43.8646   1
   0   8   6 634.506 20.9987   3
   0   8   6 634.195 20.9852   2
  -1  -8  -6 350.067 14.0363   2
  -1  -8  -6 356.176 31.2796   1
  -1  -8  -6 374.624 14.2213   3
  -1  -8  -6 339.500 14.2910   2
   1   8   6 354.888 13.6002   3
   1   8   6 363.586 33.2973   1
   1   8   6 363.435 14.8218   2
   1   8   6 368.597 15.1607   2
  -2  -8  -6 82.1701 17.2234   1
  -2  -8  -6 61.7085 6.79309   2
  -2  -8  -6 57.1674 6.33259   3
  -2  -8  -6 59.6117 6.61076   2
   2   8   6 59.6869 6.85600   2
   2   8   6 58.7976 6.00386   3
   2   8   6 42.9708 6.20410   2
   2   8   6 61.0522 16.1783   1
  -3  -8  -6 410.383 15.0716   2
  -3  -8  -6 413.963 15.4759   2
  -3  -8  -6 403.069 32.2835   1
  -3  -8  -6 400.316 14.6299   3
   3   8   6 399.863 14.1964   3
   3   8   6 375.933 38.7158   1
   3   8   6 428.734 15.8095   2
   3   8   6 416.042 15.8671   2
  -4  -8  -6 21.3806 4.79655   2
  -4  -8  -6 5.36581 8.94353   1
  -4  -8  -6 34.2605 5.93536   2
   4   8   6 13.7268 12.5248   1
   4   8   6 22.6696 4.20417   3
   4   8   6 10.6136 4.49228   2
   4   8   6 33.2261 5.83304   2
  -5  -8  -6 130.154 9.63128   2
  -5  -8  -6 109.733 8.19208   2
  -5  -8  -6 113.659 17.5148   1
   5   8   6 115.982 9.07715   2
   5   8   6 120.217 10.4157   2
   5   8   6 108.598 7.95885   3
  -6  -8  -6 21.0823 5.21516   2
  -6  -8  -6 6.87013 12.4611   1
  -6  -8  -6 16.5034 4.42781   2
   6   8   6 10.0837 4.13759   3
   6   8   6 13.3509 11.4489   1
   6   8   6 16.1401 4.98993   2
   6   8   6 9.05582 4.84742   2
  -7  -8  -6 5.31702 4.74266   2
  -7  -8  -6 -4.6695 2.83159   2
  -7  -8  -6 22.1718 11.5039   1
   7   8   6 -1.3358 3.81819   3
   7   8   6 -5.1201 13.0639   1
   7   8   6 -0.7161 3.44918   2
  -8  -8  -6 9.84505 4.64359   2
   8   8   6 4.39808 4.83921   2
   8   8   6 7.83828 4.63984   3
  -9  -8  -6 0.47098 4.08851   2
  -9  -8  -6 0.57287 4.26729   2
   9   8   6 4.38631 4.85688   3
   9   8   6 -1.4781 4.61859   2
 -10  -8  -6 -1.1082 4.81044   2
  10   8   6 12.8070 6.24092   3
   5  -9  -6 9.98706 5.98675   3
   5  -9  -6 6.14859 4.99382   2
  -5   9   6 -0.9700 5.05866   2
   4  -9  -6 10.4615 7.56808   2
   4  -9  -6 -1.7999 4.57977   3
   4  -9  -6 15.3363 4.90804   2
  -4   9   6 -2.3202 4.40148   2
   3  -9  -6 -0.3249 4.25889   3
   3  -9  -6 7.75576 4.04569   2
   3  -9  -6 0.44241 3.46580   2
  -3   9   6 43.2743 24.8199   1
  -3   9   6 8.67633 5.48262   2
   2  -9  -6 -0.2605 3.49747   2
   2  -9  -6 -0.4653 6.74988   3
   2  -9  -6 11.3524 3.95994   2
  -2   9   6 6.59109 6.30977   2
  -2   9   6 15.9753 14.6136   1
  -2   9   6 -1.1825 4.09690   2
  -2   9   6 13.4912 12.7480   1
   1  -9  -6 10.4926 4.61569   3
   1  -9  -6 11.7394 4.35706   2
   1  -9  -6 11.1016 4.82056   2
  -1   9   6 13.0120 7.64281   2
  -1   9   6 7.33076 4.43662   2
  -1   9   6 -7.2749 11.2693   1
  -1   9   6 18.7977 13.3582   1
   0  -9  -6 2.22695 3.85536   3
   0  -9  -6 0.46441 3.02403   2
   0  -9  -6 1.03496 3.74312   2
   0   9   6 -15.966 8.67655   1
   0   9   6 4.34336 3.88321   2
   0   9   6 1.17838 3.52531   2
   0   9   6 -3.1976 8.19203   1
  -1  -9  -6 41.9757 6.23936   2
  -1  -9  -6 44.7252 6.24823   3
  -1  -9  -6 42.1170 5.98794   2
   1   9   6 22.6326 14.7768   1
   1   9   6 30.8737 5.01334   3
   1   9   6 38.1950 6.41739   2
  -2  -9  -6 26.5765 5.29200   3
  -2  -9  -6 0.69024 12.2815   1
  -2  -9  -6 20.7819 4.89617   2
  -2  -9  -6 24.9682 5.13993   2
   2   9   6 18.6341 4.86461   2
   2   9   6 10.1670 10.5961   1
   2   9   6 26.9188 5.42382   2
   2   9   6 14.1199 3.95975   3
  -3  -9  -6 130.442 8.79366   2
  -3  -9  -6 145.479 9.01301   3
  -3  -9  -6 90.4012 17.6447   1
  -3  -9  -6 127.052 8.98642   2
   3   9   6 125.429 8.99342   2
   3   9   6 95.0725 30.9650   1
   3   9   6 117.753 12.6962   2
   3   9   6 117.872 9.30629   3
  -4  -9  -6 31.4673 5.54350   2
  -4  -9  -6 0.65404 7.53901   1
  -4  -9  -6 31.7200 5.62066   2
   4   9   6 19.2175 4.83859   2
   4   9   6 18.8394 4.57960   3
   4   9   6 13.2293 9.88380   1
   4   9   6 25.8938 5.39189   2
  -5  -9  -6 -0.1953 2.91504   2
  -5  -9  -6 2.68474 3.96791   2
   5   9   6 19.2907 12.4556   1
   5   9   6 2.43126 3.01608   3
   5   9   6 3.12273 3.50719   2
   5   9   6 -6.5190 4.83167   2
  -6  -9  -6 -4.9220 10.4924   1
  -6  -9  -6 7.93641 3.28939   2
  -6  -9  -6 1.66806 3.91459   2
   6   9   6 17.0087 13.3789   1
   6   9   6 15.9991 4.97979   2
  -7  -9  -6 34.1584 5.11853   2
  -7  -9  -6 27.3483 14.0807   1
   7   9   6 19.5024 6.00963   2
   7   9   6 0.37026 13.4692   1
  -8  -9  -6 8.70700 3.98870   2
  -8  -9  -6 18.0041 6.04306   2
   8   9   6 11.3579 4.84427   3
   8   9   6 16.6737 5.56396   2
  -9  -9  -6 12.2969 4.59775   2
  -9  -9  -6 5.95365 4.62485   2
   9   9   6 2.96545 4.72781   3
   9   9   6 -1.0263 4.64670   2
  10   9   6 13.8998 6.83439   3
   4 -10  -6 23.1203 6.23951   3
   4 -10  -6 14.2166 5.38335   2
  -4  10   6 33.3916 7.62602   2
   3 -10  -6 2.91336 4.94147   3
   3 -10  -6 9.49129 5.38277   2
   3 -10  -6 5.36972 4.25811   2
  -3  10   6 9.36405 5.73892   2
   2 -10  -6 0.89732 4.00441   2
   2 -10  -6 7.40578 3.76267   2
   2 -10  -6 2.60259 4.11874   3
  -2  10   6 2.23575 4.57251   2
  -2  10   6 -21.076 16.1376   1
   1 -10  -6 7.88623 4.10354   3
   1 -10  -6 9.76208 3.78093   2
   1 -10  -6 -0.3340 3.84907   2
  -1  10   6 1.73393 14.6392   1
  -1  10   6 -3.2595 4.48391   2
   0 -10  -6 14.3216 4.19530   2
   0 -10  -6 15.2749 5.19364   3
   0 -10  -6 13.2180 4.90073   2
   0  10   6 11.8071 11.8799   1
   0  10   6 -8.3236 14.9365   1
   0  10   6 15.3454 4.78531   2
  -1 -10  -6 41.3590 6.57783   2
  -1 -10  -6 32.7583 6.14467   3
  -1 -10  -6 34.7187 5.41641   2
   1  10   6 9.38875 10.9556   1
   1  10   6 -0.5348 17.0034   1
   1  10   6 31.9290 6.06760   2
  -2 -10  -6 75.0978 15.0393   1
  -2 -10  -6 76.1727 7.38197   2
  -2 -10  -6 80.5875 8.19772   2
  -2 -10  -6 68.0202 7.42828   3
   2  10   6 75.5756 8.41773   2
   2  10   6 60.7085 12.2165   2
  -3 -10  -6 25.1239 5.39434   3
  -3 -10  -6 33.7161 5.83363   2
  -3 -10  -6 35.9790 5.58323   2
  -3 -10  -6 30.9741 11.0425   1
   3  10   6 39.4741 14.1806   1
   3  10   6 32.6879 5.88836   2
  -4 -10  -6 10.8263 3.51503   2
  -4 -10  -6 14.0869 4.89907   2
  -4 -10  -6 18.8933 9.79546   1
   4  10   6 10.2128 4.49356   2
   4  10   6 0.90772 10.3811   1
  -5 -10  -6 0.24499 3.66396   2
  -5 -10  -6 26.0883 9.90470   1
   5  10   6 1.56554 3.74042   2
   5  10   6 6.71473 10.8280   1
  -6 -10  -6 -9.6528 12.2098   1
   6  10   6 11.3434 5.06316   2
   6  10   6 -14.445 12.4969   1
  -7 -10  -6 0.23317 3.66490   2
   7  10   6 0.51012 4.11789   2
  -8 -10  -6 8.76885 4.71532   2
   8  10   6 15.0813 4.72387   2
   8  10   6 9.58145 5.25581   3
  -9 -10  -6 1.70005 5.10438   2
   9  10   6 6.20332 5.39297   3
   3 -11  -6 4.00705 4.80952   3
   3 -11  -6 -2.1033 4.62749   2
  -3  11   6 2.49009 5.31838   2
   2 -11  -6 4.36556 4.14318   2
   2 -11  -6 -0.0536 4.53328   3
   2 -11  -6 7.71843 4.64390   2
  -2  11   6 5.36815 4.77887   2
   1 -11  -6 12.2041 4.99890   2
   1 -11  -6 15.4788 4.12298   2
   1 -11  -6 20.2967 5.63243   3
  -1  11   6 24.4696 6.23992   2
   0 -11  -6 0.61642 4.71571   2
   0 -11  -6 -2.5408 3.68322   3
   0 -11  -6 2.44325 3.52424   2
   0  11   6 -16.018 17.8265   1
   0  11   6 -0.7126 3.94525   2
  -1 -11  -6 2.65378 4.01730   3
  -1 -11  -6 3.70717 4.43622   2
  -1 -11  -6 3.52076 2.76443   2
   1  11   6 3.80267 3.90810   2
   1  11   6 -8.4273 12.0343   1
  -2 -11  -6 83.0710 8.31052   2
  -2 -11  -6 72.0247 7.07333   2
   2  11   6 61.2893 7.36183   2
   2  11   6 59.4640 18.8511   1
  -3 -11  -6 5.61620 6.22443   3
  -3 -11  -6 6.66787 4.09120   2
  -3 -11  -6 19.9096 11.5458   1
   3  11   6 -1.0467 11.2345   1
   3  11   6 6.46123 4.04431   2
   4  11   6 20.2588 15.4405   1
   4  11   6 10.9752 4.37082   2
  -5 -11  -6 9.81282 2.68720   2
  -5 -11  -6 -21.427 11.7977   1
  -5 -11  -6 7.04779 4.42171   2
   5  11   6 -2.2793 4.19659   2
   5  11   6 -15.954 14.2752   1
  -6 -11  -6 11.3935 4.87484   2
  -6 -11  -6 13.8710 3.45742   2
  -7 -11  -6 7.18389 5.26191   2
  -7 -11  -6 8.06850 3.91254   2
   7  11   6 13.8033 10.5314   2
  -8 -11  -6 -7.4511 4.07187   2
  -8 -11  -6 7.01583 5.49921   2
   8  11   6 -0.3480 6.11356   2
   8  11   6 9.74619 5.66729   3
  -9 -11  -6 10.4924 9.79225   2
   9  11   6 11.6357 6.64664   3
   2 -12  -6 6.65082 5.01043   2
  -2  12   6 -3.2123 5.84663   2
   1 -12  -6 7.51017 5.33592   3
   1 -12  -6 0.86914 3.60697   2
   1 -12  -6 -1.4920 4.08515   2
  -1  12   6 1.65179 4.53106   2
   0 -12  -6 -1.7008 3.38621   2
   0 -12  -6 2.33921 4.03453   2
   0 -12  -6 9.27672 5.28090   3
   0  12   6 -2.9661 3.92390   2
  -1 -12  -6 13.2387 4.89475   2
  -1 -12  -6 12.6535 4.98877   3
  -1 -12  -6 12.5126 4.98739   2
   1  12   6 17.5126 5.07819   2
  -2 -12  -6 6.20148 4.40534   3
  -2 -12  -6 -0.5560 3.95199   2
   2  12   6 -0.1055 4.03386   2
  -3 -12  -6 7.49472 4.50418   3
  -3 -12  -6 13.7151 4.99994   2
  -3 -12  -6 13.9639 3.21096   2
  -4 -12  -6 29.1665 6.15559   2
  -4 -12  -6 19.9912 4.20707   2
   4  12   6 18.6732 5.29443   2
  -5 -12  -6 13.6291 4.97923   2
  -5 -12  -6 7.41349 3.78091   2
   5  12   6 16.0589 5.59138   2
  -6 -12  -6 33.2756 5.21162   2
  -6 -12  -6 34.3267 6.25953   2
   6  12   6 24.5839 5.39509   2
  -7 -12  -6 37.8171 7.01827   2
  -7 -12  -6 19.8661 4.79520   2
   7  12   6 21.6890 8.35597   2
  -8 -12  -6 8.43910 8.71393   2
   1 -13  -6 23.4208 7.06676   3
   0 -13  -6 23.8637 6.84475   3
   0 -13  -6 20.3816 6.16751   2
  -1 -13  -6 26.1269 6.37813   2
  -1 -13  -6 32.5686 6.78442   3
   1  13   6 43.2620 6.67116   2
  -2 -13  -6 8.73277 3.72978   2
  -2 -13  -6 4.62864 4.57308   2
  -2 -13  -6 6.27155 5.14671   3
   2  13   6 5.18180 4.53010   2
  -3 -13  -6 1.70324 3.66069   2
  -3 -13  -6 3.54317 3.79044   2
   3  13   6 -1.1643 4.73855   2
  -4 -13  -6 29.8325 6.17802   2
  -4 -13  -6 26.6189 4.78875   2
   4  13   6 41.1818 6.59373   2
  -5 -13  -6 1.86391 3.22693   2
  -5 -13  -6 6.97777 4.74654   2
   5  13   6 -0.2106 5.29557   2
  -6 -13  -6 3.76231 4.28194   2
  -6 -13  -6 2.10605 4.14665   2
  -2 -14  -6 40.9398 7.65728   3
  -2 -14  -6 25.3976 10.8660   2
  -3 -14  -6 7.92693 5.65799   2
  -4 -14  -6 13.2044 6.97486   2
  -5 -14  -6 18.6459 7.93509   2
   5   9  -7 -1.2306 3.97729   3
   4   9  -7 7.56519 4.10512   3
   2   9  -7 72.2192 7.16791   3
   7   8  -7 7.34717 5.30579   3
   6   8  -7 22.9156 5.90478   3
   5   8  -7 -3.5735 3.81309   3
   4   8  -7 4.28162 3.60404   3
   3   8  -7 248.726 11.9046   3
   2   8  -7 27.4573 4.63140   3
   2   8  -7 23.0195 4.64685   3
   0   8  -7 9.95787 3.25802   3
   2  -8   7 4.24100 2.37067   2
   7   7  -7 5.66958 5.20693   3
   6   7  -7 1.67162 4.37610   3
   5   7  -7 -1.1425 3.32423   3
   4   7  -7 5.68233 3.89307   3
   3   7  -7 -4.2881 2.84898   3
   3   7  -7 -1.0936 3.58136   3
   2   7  -7 2.98135 2.94909   3
   2   7  -7 8.09108 3.42817   3
   1   7  -7 17.7873 3.27946   3
   0   7  -7 38.8098 4.35590   3
  -1   7  -7 13.3675 2.97420   3
   1  -7   7 14.4934 2.68480   2
  -2   7  -7 7.90463 3.00995   3
   2  -7   7 6.72757 2.77947   2
   3  -7   7 -1.1786 3.18654   2
   3  -7   7 -0.4355 3.12701   2
   8   6  -7 1.81812 5.77940   3
   7   6  -7 11.5895 5.84701   3
   6   6  -7 47.8300 8.29693   3
   5   6  -7 4.72112 4.12188   3
   4   6  -7 2.07729 3.17533   3
   4   6  -7 -1.9262 3.06869   3
   3   6  -7 62.8879 6.12786   3
   3   6  -7 53.7670 6.37077   3
   2   6  -7 23.9479 4.06555   3
   2   6  -7 12.8915 3.36527   3
   1   6  -7 28.1720 3.64013   3
   1   6  -7 20.5623 3.52121   3
   0   6  -7 3.98735 2.44702   3
  -1   6  -7 -2.3734 2.28974   2
   1  -6   7 -1.0314 2.02319   2
   1  -6   7 -0.2579 2.02043   2
  -2   6  -7 2.61238 3.01647   2
   2  -6   7 2.03937 2.63992   2
   2  -6   7 0.25772 2.60240   2
  -3   6  -7 21.8865 5.23728   2
   3  -6   7 30.5253 4.76611   2
   3  -6   7 25.5466 5.06293   2
   4  -6   7 0.11079 4.17524   2
   5  -6   7 12.7826 5.32986   2
   8   5  -7 -1.2303 5.56322   3
   7   5  -7 1.81426 4.76268   3
   6   5  -7 37.1896 6.62054   3
   5   5  -7 20.5331 5.11290   3
   5   5  -7 14.9923 4.64650   3
   4   5  -7 -1.3280 3.23816   3
   4   5  -7 8.85931 3.53521   3
   3   5  -7 4.57561 3.23945   3
   3   5  -7 6.64884 2.95502   3
   2   5  -7 5.03266 2.88586   3
   2   5  -7 6.22204 2.66809   3
   1   5  -7 19.4538 3.50577   3
   0   5  -7 75.4575 4.54497   3
   0   5  -7 81.2051 4.61704   2
   0  -5   7 79.0782 10.2306   1
   0  -5   7 80.5877 3.88600   2
   0  -5   7 78.2124 3.99278   2
  -1   5  -7 -1.8015 1.46417   3
  -1   5  -7 2.91387 2.38308   2
   1  -5   7 0.60467 2.21696   2
   1  -5   7 0.47741 2.32114   2
  -2   5  -7 4.26529 2.03728   3
   2  -5   7 4.15059 3.43717   2
  -3   5  -7 87.8530 8.06565   2
  -3   5  -7 101.742 5.07685   3
   3  -5   7 109.058 8.07486   2
   3  -5   7 124.498 10.8848   2
  -4   5  -7 351.789 15.9080   2
  -4   5  -7 350.104 12.4382   3
   4  -5   7 377.398 15.4935   2
   5  -5   7 -0.0056 4.08718   2
   5  -5   7 -3.2878 3.80048   2
   5  -5   7 -1.1720 2.65468   3
  -9  -4   7 1.26777 3.26891   2
  -9  -4   7 -4.9484 4.15179   2
   8   4  -7 22.5210 7.25304   3
  -8  -4   7 22.4313 3.77655   2
  -8  -4   7 25.9125 3.87580   2
   7   4  -7 9.04251 5.24287   3
  -7  -4   7 3.54980 2.20392   2
  -7  -4   7 11.6857 12.1647   1
  -7  -4   7 3.00164 1.94351   2
   6   4  -7 8.32076 5.09036   3
  -6  -4   7 8.33210 1.80960   2
  -6  -4   7 7.72881 1.48420   2
   5   4  -7 16.0862 4.74655   3
   4   4  -7 83.9564 7.21059   3
   3   4  -7 15.7743 3.42392   3
   3   4  -7 18.6587 3.84956   3
   2   4  -7 87.8861 6.92365   3
   1   4  -7 79.5636 3.85752   2
   1   4  -7 78.6648 7.59795   1
   1   4  -7 69.9684 4.66112   3
   1   4  -7 81.4153 4.95439   3
   1   4  -7 69.9507 4.21953   2
  -1  -4   7 74.3785 7.67092   1
  -1  -4   7 80.4045 2.88178   2
   0   4  -7 60.7464 9.94948   1
   0   4  -7 67.4832 4.39948   2
   0   4  -7 57.4561 3.75230   3
   0   4  -7 63.6246 4.56225   2
   0   4  -7 58.1016 3.57267   3
   0  -4   7 54.2115 9.81438   1
   0  -4   7 59.1261 3.97480   2
   0  -4   7 62.5631 4.34244   2
  -1   4  -7 51.2471 4.90219   2
  -1   4  -7 37.5486 9.71106   1
  -1   4  -7 45.3141 2.98654   3
   1  -4   7 31.5309 9.40451   1
   1  -4   7 39.2675 4.64877   2
  -2   4  -7 22.6058 2.57559   3
  -2   4  -7 25.7141 4.42163   2
   2  -4   7 30.3587 4.71238   2
   2  -4   7 28.8642 4.36742   2
  -3   4  -7 71.6080 6.97918   2
  -3   4  -7 74.8734 3.60681   3
   3  -4   7 72.3139 6.52058   2
  -4   4  -7 43.9079 3.33546   3
  -4   4  -7 25.1803 5.36404   2
   4  -4   7 35.5161 6.07702   2
   4  -4   7 34.2475 5.47223   2
  -5   4  -7 57.4706 7.80560   2
   5  -4   7 55.1911 5.23731   3
   5  -4   7 77.4804 7.43531   2
   5  -4   7 75.4632 9.10699   2
  -6   4  -7 -8.5794 7.42889   2
   6  -4   7 2.02753 2.50959   3
   6  -4   7 4.32728 4.85271   2
   9   3  -7 24.3474 11.0095   3
  -9  -3   7 3.54795 3.82427   2
  -9  -3   7 1.38550 5.95368   2
   8   3  -7 11.0785 6.10828   3
   8   3  -7 2.21885 3.71797   2
  -8  -3   7 5.73276 3.07529   2
  -8  -3   7 9.73223 3.77807   2
   7   3  -7 23.0196 4.11276   2
   7   3  -7 19.3708 6.21265   3
  -7  -3   7 20.4014 3.83704   2
  -7  -3   7 25.5976 12.2220   1
  -7  -3   7 22.6258 4.09384   2
   6   3  -7 5.55725 2.70147   2
   6   3  -7 3.18315 4.88761   3
  -6  -3   7 5.37638 2.48578   2
  -6  -3   7 5.44636 7.31596   1
   5   3  -7 17.5121 5.28465   3
   5   3  -7 16.1216 2.95319   2
  -5  -3   7 11.1547 6.58355   1
  -5  -3   7 11.8407 2.57870   2
  -5  -3   7 5.71552 6.63311   1
  -5  -3   7 13.4907 2.59421   2
   4   3  -7 28.2727 3.16269   2
   4   3  -7 29.1965 5.12013   3
   4   3  -7 28.5544 3.28764   2
  -4  -3   7 29.1999 6.10549   1
  -4  -3   7 28.0832 2.92637   2
  -4  -3   7 24.7428 5.66354   1
  -4  -3   7 27.6824 2.85650   2
   3   3  -7 409.668 11.6649   2
   3   3  -7 432.769 10.8846   2
   3   3  -7 450.961 13.9957   3
  -3  -3   7 453.778 10.0908   2
  -3  -3   7 408.270 18.7429   1
  -3  -3   7 450.242 18.7428   1
  -3  -3   7 447.598 9.96189   2
   2   3  -7 77.9450 5.44589   3
   2   3  -7 72.9682 3.79171   2
   2   3  -7 70.1903 3.93286   2
   2   3  -7 74.7708 5.03517   3
  -2  -3   7 76.7721 3.59716   2
  -2  -3   7 88.2984 9.78431   1
  -2  -3   7 79.5837 3.48610   2
  -2  -3   7 79.2381 8.22939   1
   1   3  -7 11.9823 2.26031   3
   1   3  -7 15.7972 2.64037   3
   1   3  -7 12.7707 2.33892   2
   1   3  -7 9.62700 4.96428   1
  -1  -3   7 11.2989 2.31252   2
  -1  -3   7 15.4247 4.87934   1
   0   3  -7 97.1355 4.02990   3
   0   3  -7 113.806 8.68725   2
   0   3  -7 102.920 12.0357   1
   0   3  -7 99.2587 3.81473   3
   0   3  -7 108.708 5.87688   2
   0  -3   7 109.728 12.7436   1
   0  -3   7 98.9897 5.54336   2
   0  -3   7 96.3844 7.02616   2
  -1   3  -7 26.3058 4.06350   2
  -1   3  -7 22.7422 3.54958   2
  -1   3  -7 23.1914 10.2303   1
   1  -3   7 11.1095 11.1958   1
   1  -3   7 26.9418 3.85178   2
   1  -3   7 22.4122 3.71220   2
  -2   3  -7 56.3437 12.4875   1
  -2   3  -7 63.7840 6.52930   2
  -2   3  -7 48.6173 5.73215   2
   2  -3   7 61.6276 6.13505   2
   2  -3   7 65.2698 5.77157   2
   2  -3   7 41.9201 12.0718   1
  -3   3  -7 176.434 9.68156   2
   3  -3   7 180.240 10.2239   2
   3  -3   7 183.838 9.77611   2
  -4   3  -7 272.214 13.1379   2
   4  -3   7 286.738 15.5637   2
   4  -3   7 286.714 12.8517   2
  -5   3  -7 -0.2531 3.54088   2
   5  -3   7 1.70441 3.83067   2
   5  -3   7 3.19870 1.60867   3
  -6   3  -7 12.0961 4.57513   2
   6  -3   7 4.28827 4.61638   2
   6  -3   7 11.1185 4.33261   2
   7  -3   7 5.11177 5.32869   2
   7  -3   7 -0.8025 2.26163   3
   9   2  -7 6.83876 8.00277   3
  -9  -2   7 15.8231 4.67318   2
   8   2  -7 -2.5974 4.91166   3
  -8  -2   7 0.99304 3.89660   2
  -8  -2   7 0.51375 3.53540   2
   7   2  -7 34.7980 7.87972   2
   7   2  -7 35.1602 7.50344   3
  -7  -2   7 22.8598 4.34980   2
  -7  -2   7 22.7761 13.0697   1
  -7  -2   7 36.1660 6.61706   2
   6   2  -7 20.0144 5.77465   3
   6   2  -7 23.2623 5.05728   2
  -6  -2   7 21.7791 6.09237   2
  -6  -2   7 10.8010 9.07524   1
   5   2  -7 22.5753 3.80864   2
   5   2  -7 30.3069 5.84766   3
  -5  -2   7 26.2160 3.96502   2
  -5  -2   7 16.1568 7.76146   1
  -5  -2   7 5.09578 7.87000   1
   4   2  -7 285.719 12.0066   3
   4   2  -7 283.249 9.57612   2
   4   2  -7 304.488 10.1065   2
  -4  -2   7 288.020 20.4322   1
  -4  -2   7 276.670 9.50501   2
  -4  -2   7 209.044 24.9376   1
   3   2  -7 217.925 7.74874   2
   3   2  -7 216.629 7.93990   2
  -3  -2   7 205.946 16.3803   1
  -3  -2   7 210.799 7.55663   2
  -3  -2   7 207.237 15.9177   1
   2   2  -7 95.2960 5.81847   3
   2   2  -7 100.494 5.26717   2
   2   2  -7 96.5281 4.97764   2
  -2  -2   7 95.8234 5.07597   2
  -2  -2   7 111.007 11.1449   1
  -2  -2   7 86.7475 10.6398   1
  -2  -2   7 94.1469 4.99259   2
   1   2  -7 -0.2681 1.39600   3
   1   2  -7 0.63274 1.85458   3
   1   2  -7 3.23428 1.97726   2
   1   2  -7 -0.3327 2.05486   2
   1   2  -7 4.39967 4.35359   1
  -1  -2   7 1.81246 1.89429   2
  -1  -2   7 2.52583 4.28274   1
  -1  -2   7 1.90869 2.18668   2
   0   2  -7 170.870 7.34025   2
   0   2  -7 174.358 7.24400   2
   0   2  -7 171.503 4.44482   3
   0   2  -7 182.398 16.0383   1
   0   2  -7 169.446 4.33197   3
   0  -2   7 174.036 7.53388   2
   0  -2   7 183.724 7.29809   2
   0  -2   7 173.475 16.4221   1
  -1   2  -7 92.3641 6.04638   2
  -1   2  -7 73.3286 11.9309   1
  -1   2  -7 82.4386 6.15150   2
   1  -2   7 85.9231 5.84297   2
   1  -2   7 85.9437 13.5824   1
   1  -2   7 91.3086 6.39237   2
  -2   2  -7 26.7143 4.57367   2
  -2   2  -7 10.7631 7.75352   1
   2  -2   7 31.9764 4.49997   2
   2  -2   7 30.3578 4.66380   2
   2  -2   7 27.4981 9.20841   1
  -3   2  -7 108.474 8.11620   2
  -3   2  -7 96.2097 18.5544   1
  -3   2  -7 102.373 7.91963   2
   3  -2   7 120.411 8.21480   2
   3  -2   7 97.5459 18.0536   1
   3  -2   7 118.759 8.09190   2
  -4   2  -7 31.0163 5.78182   2
   4  -2   7 31.7834 13.0107   1
   4  -2   7 30.5010 6.13555   2
  -5   2  -7 -2.1414 3.25456   2
   5  -2   7 8.23484 3.37906   2
   5  -2   7 6.95162 1.59029   3
   5  -2   7 2.85865 4.62399   2
  -6   2  -7 7.62733 4.58170   2
   6  -2   7 6.37427 4.49561   2
   6  -2   7 11.0001 4.34279   2
  -7   2  -7 3.33871 5.68120   2
   7  -2   7 8.02500 2.25955   3
   7  -2   7 11.7749 5.86724   2
   7  -2   7 16.3315 5.87274   2
   9   1  -7 5.40652 9.67199   3
   8   1  -7 60.5150 7.15877   2
   8   1  -7 46.2725 8.14416   3
  -8  -1   7 57.7543 6.69251   2
  -8  -1   7 38.6446 6.42859   2
   7   1  -7 11.8319 3.83201   2
   7   1  -7 15.4092 5.58979   3
  -7  -1   7 17.0874 4.69282   2
  -7  -1   7 20.8081 12.5361   1
  -7  -1   7 15.1274 4.20781   2
   6   1  -7 16.8928 4.04291   2
   6   1  -7 17.9906 5.72651   3
  -6  -1   7 7.76811 9.73118   1
  -6  -1   7 18.5503 4.02467   2
  -6  -1   7 15.0254 4.18857   2
   5   1  -7 98.6952 8.75657   3
   5   1  -7 79.5860 6.27980   2
  -5  -1   7 90.6831 6.52493   2
  -5  -1   7 89.0024 6.72068   2
  -5  -1   7 86.5105 14.1601   1
  -5  -1   7 83.8791 14.4942   1
   4   1  -7 132.451 6.85120   2
   4   1  -7 133.598 8.73444   3
   4   1  -7 134.590 7.28873   2
  -4  -1   7 140.070 7.11848   2
  -4  -1   7 116.424 16.1937   1
  -4  -1   7 138.677 15.5579   1
  -4  -1   7 139.999 7.33653   2
   3   1  -7 23.1222 3.48366   2
   3   1  -7 27.0877 3.86841   2
   3   1  -7 29.1441 5.31028   3
  -3  -1   7 47.2219 8.80962   1
  -3  -1   7 19.9019 6.25277   1
  -3  -1   7 32.4274 4.18509   2
  -3  -1   7 33.9439 4.35627   2
   2   1  -7 46.1936 4.51205   3
   2   1  -7 41.2857 3.97051   2
   2   1  -7 47.0636 4.22492   2
  -2  -1   7 40.7097 8.30379   1
  -2  -1   7 41.6073 4.26686   2
   1   1  -7 217.558 6.71851   3
   1   1  -7 214.198 8.12591   2
   1   1  -7 231.824 18.3555   1
   1   1  -7 226.397 8.41118   2
  -1  -1   7 212.228 8.15341   2
  -1  -1   7 205.993 7.98711   2
  -1  -1   7 177.950 16.5575   1
   0   1  -7 34.1382 4.14721   2
   0   1  -7 32.4844 8.27734   1
   0   1  -7 33.0941 4.05637   2
   0  -1   7 30.2405 8.14950   1
   0  -1   7 35.6272 4.34377   2
   0  -1   7 35.5661 3.99916   2
  -1   1  -7 30.0399 8.00690   1
  -1   1  -7 31.7987 4.26298   2
  -1   1  -7 33.0893 4.38401   2
   1  -1   7 28.3423 4.30752   2
   1  -1   7 38.4939 9.09483   1
   1  -1   7 30.5550 4.13885   2
  -2   1  -7 11.7957 3.58583   2
  -2   1  -7 7.17820 6.37702   1
  -2   1  -7 11.0111 3.38491   2
   2  -1   7 8.44069 3.41197   2
   2  -1   7 5.39451 3.20862   2
   2  -1   7 7.34073 6.39662   1
  -3   1  -7 7.14521 3.41439   2
  -3   1  -7 0.57596 6.12479   1
  -3   1  -7 7.67060 3.83540   2
   3  -1   7 8.00509 8.11070   1
   3  -1   7 5.12782 4.02147   2
  -4   1  -7 41.8113 6.05896   2
  -4   1  -7 35.6548 6.04424   2
  -4   1  -7 15.4109 10.6640   1
   4  -1   7 29.7016 20.6287   1
   4  -1   7 47.2766 6.25831   2
   4  -1   7 33.7295 6.17890   2
  -5   1  -7 5.66379 12.0247   1
  -5   1  -7 0.41231 3.89310   2
   5  -1   7 2.33103 3.23515   2
   5  -1   7 4.18263 10.4911   1
   5  -1   7 -0.4822 1.05759   3
   5  -1   7 -4.5335 3.87931   2
  -6   1  -7 6.84148 4.76558   2
   6  -1   7 12.2258 5.27055   2
   6  -1   7 7.20202 4.14660   2
   6  -1   7 12.1809 2.24824   3
  -7   1  -7 11.8155 8.30938   2
   7  -1   7 1.93792 2.14825   3
   7  -1   7 3.82012 4.18432   2
   7  -1   7 8.18494 5.03472   2
  -8   1  -7 -3.7483 5.04021   2
   8  -1   7 1.74190 2.57269   3
   8  -1   7 -2.3299 5.06460   2
   8   0  -7 70.7383 7.88107   2
   8   0  -7 71.5746 9.49671   3
  -8   0   7 74.8996 7.53359   2
  -8   0   7 81.2070 8.16487   2
   7   0  -7 2.91305 3.37970   2
   7   0  -7 2.33660 4.66465   3
  -7   0   7 -0.0101 3.19686   2
  -7   0   7 5.32298 4.00330   2
  -7   0   7 38.0659 18.6191   1
   6   0  -7 -2.2036 3.98031   3
   6   0  -7 -4.1964 2.52642   2
  -6   0   7 3.77027 3.19366   2
  -6   0   7 0.42813 3.48437   2
  -6   0   7 -14.854 9.48172   1
   5   0  -7 14.1416 5.04649   3
   5   0  -7 19.6788 4.25250   2
  -5   0   7 2.52664 8.15934   1
  -5   0   7 17.5735 9.06907   1
  -5   0   7 11.5430 3.82087   2
  -5   0   7 15.0081 3.98472   2
   4   0  -7 99.1809 7.64615   3
   4   0  -7 103.600 6.84695   2
  -4   0   7 102.739 7.03236   2
  -4   0   7 95.7153 6.65388   2
  -4   0   7 104.848 6.95393   3
  -4   0   7 99.7102 14.8362   1
   3   0  -7 36.2819 4.76957   2
   3   0  -7 36.3127 4.79144   2
   3   0  -7 20.8898 7.18540   3
  -3   0   7 27.1123 4.06629   2
  -3   0   7 36.1070 4.63498   2
  -3   0   7 28.3943 7.58432   1
  -3   0   7 37.8094 4.53970   3
   2   0  -7 12.0513 2.95839   2
   2   0  -7 10.5921 2.93444   2
   2   0  -7 5.05968 2.65098   3
  -2   0   7 7.65156 3.02571   2
  -2   0   7 -2.6655 4.40958   1
   1   0  -7 92.5686 5.70986   2
   1   0  -7 89.3166 4.27499   3
   1   0  -7 112.235 13.6912   1
   1   0  -7 92.6194 5.74791   2
  -1   0   7 94.7572 5.85628   2
  -1   0   7 92.8407 5.69541   2
  -1   0   7 93.0742 11.9383   1
   0   0  -7 2.91858 2.40921   2
   0   0  -7 1.99169 2.39963   2
   0   0  -7 1.06820 0.57352   3
   0   0   7 -3.1016 3.39218   1
   0   0   7 3.73918 2.13846   2
   0   0   7 -1.0601 2.35542   2
  -1   0  -7 43.2857 10.5363   1
  -1   0  -7 48.1690 4.70496   2
  -1   0  -7 47.5189 4.90375   2
   1   0   7 42.8716 5.18180   2
   1   0   7 40.7195 10.0126   1
   1   0   7 46.6707 4.80259   2
  -2   0  -7 70.8923 5.71455   2
  -2   0  -7 70.6723 5.78999   2
  -2   0  -7 77.1716 13.6794   1
   2   0   7 80.4248 13.3130   1
   2   0   7 66.4124 6.03970   2
  -3   0  -7 63.7088 6.35705   2
  -3   0  -7 69.0064 6.90055   2
  -3   0  -7 63.5703 14.7038   1
   3   0   7 49.2332 11.2033   1
   3   0   7 74.8226 7.27442   2
   3   0   7 46.7173 5.74596   2
  -4   0  -7 5.02675 3.50720   2
  -4   0  -7 3.81731 3.58939   2
  -4   0  -7 -3.7275 8.30816   1
   4   0   7 0.42924 3.58639   2
   4   0   7 9.65603 7.05613   1
   4   0   7 4.46140 3.68181   2
  -5   0  -7 -1.1493 3.63204   2
  -5   0  -7 22.9609 15.8630   1
  -5   0  -7 3.44654 4.33020   2
   5   0   7 5.17003 1.38793   3
   5   0   7 17.6151 11.7285   1
   5   0   7 -1.6561 3.87351   2
   5   0   7 0.82033 3.33975   2
  -6   0  -7 -3.6835 4.49635   2
  -6   0  -7 8.94644 12.6676   1
   6   0   7 0.69223 1.57159   3
   6   0   7 3.38576 4.41386   2
   6   0   7 3.63625 3.68782   2
   6   0   7 11.1415 14.0469   1
  -7   0  -7 45.4001 9.07939   2
   7   0   7 14.3793 8.52332   2
   7   0   7 21.2015 6.96390   2
   7   0   7 25.3024 4.76268   3
  -8   0  -7 2.41300 5.00116   2
   8   0   7 6.03811 2.73676   3
   8   0   7 8.12790 5.59810   2
   9  -1  -7 46.2198 8.85306   3
  -9   1   7 57.2093 12.0915   2
   8  -1  -7 -3.1432 3.74088   2
   8  -1  -7 9.41905 5.85286   3
  -8   1   7 4.73295 5.02850   2
  -8   1   7 -0.0070 3.67503   2
   7  -1  -7 9.36991 5.07864   3
   7  -1  -7 1.14661 3.15292   2
  -7   1   7 8.04090 4.51989   2
   6  -1  -7 6.99233 5.55051   2
   6  -1  -7 18.3405 5.37484   3
  -6   1   7 18.8801 12.0605   1
  -6   1   7 13.3157 3.52642   2
  -6   1   7 6.32487 3.90690   2
   5  -1  -7 30.0204 5.27094   2
   5  -1  -7 27.6551 5.55792   3
   5  -1  -7 34.9025 6.30492   2
  -5   1   7 13.0892 8.84608   1
  -5   1   7 32.4772 5.48653   2
  -5   1   7 36.0547 5.47453   3
  -5   1   7 21.5061 4.11420   2
  -5   1   7 28.5469 10.3919   1
   4  -1  -7 52.3460 5.64396   2
   4  -1  -7 52.2365 6.30980   3
   4  -1  -7 59.6275 5.73861   2
  -4   1   7 54.3501 5.93750   2
  -4   1   7 33.2999 9.31990   1
  -4   1   7 53.3768 5.93659   3
  -4   1   7 59.3777 6.53584   2
  -4   1   7 37.0774 10.0736   1
   3  -1  -7 34.0545 4.49573   2
   3  -1  -7 33.4004 4.55435   3
   3  -1  -7 34.3441 4.89353   2
  -3   1   7 31.5081 4.63018   2
  -3   1   7 26.7410 4.08363   3
  -3   1   7 19.5937 8.44357   1
  -3   1   7 23.1036 8.72788   1
  -3   1   7 27.9414 4.41510   2
   2  -1  -7 16.0450 3.28473   2
   2  -1  -7 15.2135 3.02059   3
   2  -1  -7 13.8134 3.39568   2
  -2   1   7 14.7920 2.92134   3
  -2   1   7 12.2547 6.87401   1
  -2   1   7 18.6872 3.59815   2
   1  -1  -7 99.2527 5.86148   2
   1  -1  -7 97.1212 6.20141   2
   1  -1  -7 96.7955 4.66047   3
   1  -1  -7 83.8898 12.9788   1
  -1   1   7 95.4193 4.69634   3
  -1   1   7 99.6097 5.87519   2
  -1   1   7 97.0661 13.4453   1
  -1   1   7 95.1550 6.03704   2
   0  -1  -7 89.5818 6.03921   2
   0  -1  -7 87.5182 9.38290   2
   0  -1  -7 99.2832 13.6344   1
   0  -1  -7 103.072 3.53810   3
   0   1   7 113.067 6.09691   2
   0   1   7 100.822 6.46032   2
   0   1   7 99.5060 14.0399   1
  -1  -1  -7 134.055 7.04981   2
  -1  -1  -7 149.041 16.6759   1
  -1  -1  -7 139.539 7.59455   2
   1   1   7 130.885 16.1216   1
   1   1   7 140.939 7.78459   2
  -2  -1  -7 41.3576 10.2135   1
  -2  -1  -7 27.7670 4.53199   2
  -2  -1  -7 37.5470 4.62065   2
   2   1   7 32.1238 4.53918   2
   2   1   7 29.1870 8.26114   1
   2   1   7 31.0887 4.83454   2
  -3  -1  -7 85.6113 17.7999   1
  -3  -1  -7 86.5930 6.82307   2
  -3  -1  -7 77.7791 6.39485   2
   3   1   7 94.0477 15.6880   1
   3   1   7 82.4335 6.63847   2
   3   1   7 83.4307 7.66279   2
  -4  -1  -7 138.453 9.19830   2
  -4  -1  -7 141.435 9.18471   2
  -4  -1  -7 155.909 21.5077   1
   4   1   7 148.875 8.96168   2
   4   1   7 147.539 10.0689   2
   4   1   7 114.836 19.1657   1
  -5  -1  -7 10.1982 3.91604   2
  -5  -1  -7 17.0596 5.02633   2
  -5  -1  -7 16.5998 10.6718   1
   5   1   7 -2.5131 9.74077   1
   5   1   7 13.9329 4.65891   2
   5   1   7 16.3934 2.09453   3
   5   1   7 11.7710 5.06895   2
  -6  -1  -7 3.92892 4.18123   2
  -6  -1  -7 6.60655 5.11751   2
   6   1   7 5.23310 1.93097   3
   6   1   7 -16.894 10.6735   1
   6   1   7 1.47290 4.13199   2
   6   1   7 4.44628 3.90776   2
  -7  -1  -7 153.235 11.6889   2
   7   1   7 106.112 10.3845   2
   7   1   7 139.294 9.27714   3
   7   1   7 108.789 9.60119   2
  -8  -1  -7 5.15447 4.94983   2
   8   1   7 -6.2766 4.86659   2
   8   1   7 3.96394 2.79547   3
   8   1   7 1.67812 9.14420   2
  -9  -1  -7 -6.8599 4.72731   2
   9   1   7 4.35262 5.63313   2
   9   1   7 -4.2658 2.83304   3
   8  -2  -7 15.6367 5.49596   2
   8  -2  -7 13.0551 5.95368   3
  -8   2   7 18.5754 5.41981   2
  -8   2   7 12.4511 5.73646   2
   7  -2  -7 81.2465 8.96017   3
   7  -2  -7 61.1422 7.10848   2
  -7   2   7 72.6852 9.02593   2
  -7   2   7 63.3167 7.44981   2
   6  -2  -7 53.5545 7.42088   2
   6  -2  -7 44.6160 7.27232   3
  -6   2   7 46.4356 5.85289   2
  -6   2   7 33.9301 13.2140   1
  -6   2   7 35.9763 6.56897   2
   5  -2  -7 12.2896 4.14351   2
   5  -2  -7 20.1001 4.29417   2
   5  -2  -7 18.1137 5.07884   3
  -5   2   7 22.9329 10.9702   1
  -5   2   7 13.1762 8.77876   1
  -5   2   7 12.9507 4.85244   2
  -5   2   7 12.6803 4.10184   2
  -5   2   7 13.7206 4.28813   3
   4  -2  -7 27.6934 4.86460   2
   4  -2  -7 33.4596 5.33964   2
   4  -2  -7 40.0215 5.85003   3
  -4   2   7 42.7356 5.73599   3
  -4   2   7 32.7663 5.45326   2
  -4   2   7 24.6765 10.6826   1
  -4   2   7 12.7998 8.14353   1
   3  -2  -7 -3.1835 2.37830   2
   3  -2  -7 0.22704 3.00797   2
   3  -2  -7 1.85988 3.13835   3
  -3   2   7 1.28205 3.25369   2
  -3   2   7 5.07678 3.32911   3
  -3   2   7 -3.9848 4.80571   1
  -3   2   7 7.58629 5.93720   1
   2  -2  -7 87.2676 6.26008   2
   2  -2  -7 92.9003 6.85300   2
  -2   2   7 91.7040 6.59655   2
  -2   2   7 85.9864 10.0286   3
  -2   2   7 88.1527 16.0908   1
  -2   2   7 87.4304 13.9841   1
   1  -2  -7 559.266 16.3495   2
   1  -2  -7 541.911 33.9578   1
   1  -2  -7 580.205 16.7384   2
   1  -2  -7 565.610 14.3049   3
  -1   2   7 562.436 14.3745   3
  -1   2   7 594.085 35.3634   1
  -1   2   7 569.074 16.8770   2
   0  -2  -7 29.9703 8.90975   1
   0  -2  -7 36.2065 4.83604   2
   0  -2  -7 34.3588 2.87436   3
   0  -2  -7 38.3043 4.77521   2
   0   2   7 31.1711 3.05403   3
   0   2   7 29.3173 4.26749   2
   0   2   7 28.9494 4.24764   2
   0   2   7 35.9713 10.6350   1
  -1  -2  -7 95.2612 6.28427   2
  -1  -2  -7 80.2906 13.1420   1
  -1  -2  -7 95.5823 6.77836   2
   1   2   7 100.904 3.25095   3
   1   2   7 103.187 6.56022   2
   1   2   7 87.2490 21.0939   1
   1   2   7 94.9834 6.63730   2
  -2  -2  -7 363.929 28.1445   1
  -2  -2  -7 330.618 12.1629   2
  -2  -2  -7 341.543 12.4926   2
   2   2   7 340.900 12.6988   2
   2   2   7 325.853 28.2675   1
   2   2   7 318.085 12.0152   2
  -3  -2  -7 21.8748 10.4748   1
  -3  -2  -7 45.9526 6.00446   2
  -3  -2  -7 47.1896 5.89787   2
   3   2   7 44.1499 5.99971   2
   3   2   7 35.1897 10.4425   1
   3   2   7 35.9448 5.15275   2
  -4  -2  -7 8.57991 4.13334   2
  -4  -2  -7 16.4138 4.10291   2
  -4  -2  -7 16.2250 9.29772   1
   4   2   7 11.6133 3.94520   2
   4   2   7 11.1403 1.54258   3
   4   2   7 13.8718 1.54685   3
   4   2   7 14.7826 4.60225   2
   4   2   7 14.6815 8.46849   1
  -5  -2  -7 12.0820 4.89878   2
  -5  -2  -7 20.6182 4.68502   2
  -5  -2  -7 12.4910 9.97670   1
   5   2   7 8.98932 4.14502   2
   5   2   7 7.75042 2.06851   3
   5   2   7 12.3580 2.08475   3
   5   2   7 4.07673 4.43657   2
   5   2   7 22.9588 9.32363   1
  -6  -2  -7 17.9872 13.5530   1
  -6  -2  -7 0.41794 3.69923   2
   6   2   7 7.19408 13.2832   1
   6   2   7 -3.4051 3.62873   2
   6   2   7 9.89053 4.83768   2
  -7  -2  -7 2.03891 4.55411   2
  -7  -2  -7 7.66298 5.53243   2
   7   2   7 3.13742 4.56895   2
   7   2   7 -3.9692 2.04082   3
   7   2   7 -1.6722 3.94552   2
  -8  -2  -7 9.19857 5.24227   2
   8   2   7 12.6275 5.38053   2
   8   2   7 -37.218 33.6813   1
   8   2   7 2.90386 2.98104   3
   8   2   7 6.26675 5.16802   2
  -9  -2  -7 -6.2587 5.88734   2
   9   2   7 5.89955 3.39496   3
   9   2   7 0.88663 5.92829   2
   8  -3  -7 1.50246 4.28245   2
   8  -3  -7 -1.1084 4.83588   3
  -8   3   7 -1.0365 4.60217   2
   7  -3  -7 -4.3318 3.82293   2
   7  -3  -7 2.25697 4.56122   3
  -7   3   7 6.05949 5.28195   2
  -7   3   7 -0.4487 3.76559   2
   6  -3  -7 51.8573 7.70732   2
  -6   3   7 52.6462 7.67414   2
  -6   3   7 38.3378 6.07941   2
   5  -3  -7 60.2488 6.86058   2
   5  -3  -7 40.6496 6.53876   3
   5  -3  -7 60.0715 6.88572   2
  -5   3   7 27.3086 13.3669   1
  -5   3   7 44.7151 6.55574   2
  -5   3   7 45.7272 6.84658   2
  -5   3   7 30.8278 14.1001   1
   4  -3  -7 466.707 16.7988   2
   4  -3  -7 505.555 16.9825   3
   4  -3  -7 484.589 17.3820   2
  -4   3   7 467.845 17.2263   2
  -4   3   7 493.133 17.4631   2
  -4   3   7 419.797 37.4063   1
  -4   3   7 472.642 38.6696   1
  -4   3   7 478.652 16.6465   3
   3  -3  -7 220.271 10.6324   2
   3  -3  -7 220.590 10.7338   2
   3  -3  -7 232.826 10.3074   3
  -3   3   7 225.713 11.2417   2
  -3   3   7 229.548 11.1706   2
  -3   3   7 275.621 26.2666   1
  -3   3   7 194.136 22.6422   1
  -3   3   7 207.495 10.3157   3
   2  -3  -7 60.2793 5.96227   2
   2  -3  -7 60.7368 6.60072   3
   2  -3  -7 64.8569 6.15798   2
  -2   3   7 64.6277 6.44091   2
  -2   3   7 64.8042 6.10222   2
  -2   3   7 66.4244 14.5943   1
  -2   3   7 60.3829 6.05042   3
  -2   3   7 83.7687 14.6842   1
   1  -3  -7 15.0181 7.64669   1
   1  -3  -7 19.1531 4.05654   2
   1  -3  -7 19.2969 3.12967   3
   1  -3  -7 17.3385 3.78169   2
  -1   3   7 19.7782 3.60319   3
  -1   3   7 11.7588 6.54257   1
  -1   3   7 19.3655 4.21595   2
  -1   3   7 14.8945 3.63240   2
   0  -3  -7 392.503 13.2996   2
   0  -3  -7 455.056 40.4202   1
   0  -3  -7 389.085 13.1693   2
   0  -3  -7 385.026 10.6749   3
   0   3   7 387.784 17.9068   2
   0   3   7 382.180 28.9680   1
   0   3   7 353.324 12.8388   2
   0   3   7 392.869 10.7311   3
  -1  -3  -7 59.0254 3.37122   3
  -1  -3  -7 58.1965 12.4476   1
  -1  -3  -7 50.2554 5.31904   2
  -1  -3  -7 52.5704 5.21256   2
   1   3   7 55.9547 3.38123   3
   1   3   7 44.8053 5.08323   2
   1   3   7 67.0875 11.6715   1
   1   3   7 44.4994 5.64216   2
  -2  -3  -7 160.235 8.57402   2
  -2  -3  -7 176.124 8.67081   2
  -2  -3  -7 155.980 18.6868   1
   2   3   7 149.566 18.6179   1
   2   3   7 155.762 9.17228   2
   2   3   7 154.669 4.86126   3
   2   3   7 154.124 8.34315   2
  -3  -3  -7 93.5009 6.92630   2
  -3  -3  -7 85.4316 23.1728   1
  -3  -3  -7 96.3027 7.18303   2
   3   3   7 77.2554 6.60986   2
   3   3   7 79.0492 15.2889   1
   3   3   7 93.0675 3.82994   3
   3   3   7 91.2921 3.56708   3
   3   3   7 85.6417 9.00953   2
  -4  -3  -7 157.238 20.3820   1
  -4  -3  -7 191.507 10.3104   2
  -4  -3  -7 173.235 9.70867   2
   4   3   7 182.782 5.89359   3
   4   3   7 165.319 21.9500   1
   4   3   7 181.763 10.3410   2
   4   3   7 178.115 6.20385   3
   4   3   7 164.798 9.72105   2
  -5  -3  -7 -4.9125 9.18138   1
  -5  -3  -7 8.29714 4.38034   2
   5   3   7 4.34838 10.7582   1
   5   3   7 6.74747 2.69316   3
   5   3   7 -0.4931 3.48051   2
   5   3   7 8.30796 2.11555   3
   5   3   7 9.89483 5.29447   2
  -6  -3  -7 31.9293 7.66440   2
  -6  -3  -7 35.4262 5.98316   2
  -6  -3  -7 11.4455 11.3866   1
   6   3   7 27.2662 5.56471   2
   6   3   7 31.7218 6.53498   2
   6   3   7 21.1300 3.53789   3
   6   3   7 19.5140 5.45605   3
  -7  -3  -7 7.91797 5.58030   2
  -7  -3  -7 11.7673 15.2197   1
  -7  -3  -7 5.24507 4.11749   2
   7   3   7 7.13837 2.66118   3
   7   3   7 5.30786 3.31121   3
   7   3   7 1.22438 4.58603   2
   7   3   7 10.3662 4.73433   2
   7   3   7 32.1705 16.2404   1
  -8  -3  -7 -15.328 21.6322   1
  -8  -3  -7 24.1822 6.60640   2
  -8  -3  -7 9.42173 5.26966   2
   8   3   7 14.8440 5.72671   2
   8   3   7 -43.014 24.4980   1
   8   3   7 26.4774 6.44187   2
   8   3   7 24.2466 4.33250   3
  -9  -3  -7 -0.9284 5.38781   2
   9   3   7 5.34914 3.68277   3
   9   3   7 -5.1322 5.22345   2
   8  -4  -7 0.83243 4.86321   2
  -8   4   7 6.13069 5.93010   2
   7  -4  -7 40.3212 7.44588   3
   7  -4  -7 32.6473 7.01311   2
  -7   4   7 36.9598 7.03537   2
  -7   4   7 53.1861 8.33575   2
   6  -4  -7 2.01210 4.06747   2
  -6   4   7 6.41665 15.0311   1
  -6   4   7 -0.5986 4.59868   2
  -6   4   7 -5.3858 3.63853   2
   5  -4  -7 26.3125 5.65178   2
   5  -4  -7 29.1493 5.80246   3
   5  -4  -7 37.1029 6.17744   2
  -5   4   7 18.6489 13.1725   1
  -5   4   7 26.7789 6.12578   2
  -5   4   7 22.3912 14.2894   1
  -5   4   7 39.3563 6.44836   2
   4  -4  -7 97.0833 8.35185   2
   4  -4  -7 95.9044 7.88081   2
   4  -4  -7 97.5627 8.45739   3
  -4   4   7 81.5069 17.2376   1
  -4   4   7 96.2370 8.61648   2
  -4   4   7 108.530 8.93588   2
  -4   4   7 60.8306 16.2374   1
  -4   4   7 86.5539 7.86579   3
   3  -4  -7 25.3424 5.08852   2
   3  -4  -7 37.6363 5.81379   2
   3  -4  -7 23.0391 4.72467   3
  -3   4   7 4.38049 7.59324   1
  -3   4   7 20.0878 5.16237   2
  -3   4   7 24.5097 9.29643   1
  -3   4   7 33.3592 5.74481   3
  -3   4   7 19.8172 5.00332   2
   2  -4  -7 458.149 16.0470   2
   2  -4  -7 489.473 15.2180   3
   2  -4  -7 481.751 16.3991   2
  -2   4   7 478.154 16.6198   2
  -2   4   7 466.740 35.2068   1
  -2   4   7 484.986 15.2789   3
  -2   4   7 443.388 34.5929   1
  -2   4   7 499.352 16.5831   2
   1  -4  -7 25.4572 4.61173   2
   1  -4  -7 18.4427 4.25284   2
   1  -4  -7 17.1030 8.75658   1
   1  -4  -7 18.6444 3.52905   3
  -1   4   7 18.2488 4.61013   2
  -1   4   7 25.8641 13.2856   1
  -1   4   7 21.2915 3.89198   3
  -1   4   7 21.5569 4.29646   2
   0  -4  -7 51.8995 5.57423   2
   0  -4  -7 45.7210 5.34854   2
   0  -4  -7 57.6024 4.59268   3
   0  -4  -7 71.8948 13.2327   1
   0   4   7 34.3896 11.6944   1
   0   4   7 45.4828 5.37174   2
   0   4   7 53.4800 4.41023   3
   0   4   7 45.2778 5.90625   2
  -1  -4  -7 6.56131 7.98442   1
  -1  -4  -7 15.5367 2.55707   3
  -1  -4  -7 20.7939 4.33703   2
  -1  -4  -7 20.8710 4.22841   2
   1   4   7 14.6192 6.59685   2
   1   4   7 12.3335 6.96572   1
   1   4   7 12.7878 3.60937   2
   1   4   7 15.5861 2.48274   3
  -2  -4  -7 84.7180 6.55619   2
  -2  -4  -7 73.4782 6.51027   2
  -2  -4  -7 66.3616 14.2371   1
   2   4   7 81.3442 4.22484   3
   2   4   7 64.7831 14.4365   1
   2   4   7 76.2221 6.46203   2
  -3  -4  -7 1.16819 3.26975   2
  -3  -4  -7 1.06350 5.47211   1
  -3  -4  -7 -4.2817 2.78716   2
   3   4   7 4.42642 4.43297   2
   3   4   7 -0.1827 3.06920   2
   3   4   7 0.35281 1.45743   3
   3   4   7 4.76106 6.37667   1
  -4  -4  -7 6.52873 4.28314   2
  -4  -4  -7 -1.2975 3.30828   2
  -4  -4  -7 7.84948 7.22557   1
   4   4   7 -0.5694 5.96053   1
   4   4   7 -0.2494 1.86998   3
   4   4   7 0.31055 1.62905   3
   4   4   7 2.65045 3.96613   2
   4   4   7 6.18173 3.81704   2
  -5  -4  -7 3.19154 3.85673   2
  -5  -4  -7 -11.302 7.83183   1
  -5  -4  -7 -0.0384 3.39474   2
   5   4   7 -0.0323 1.85693   3
   5   4   7 1.34038 2.48842   3
   5   4   7 -15.466 13.6976   1
   5   4   7 0.15306 4.07724   2
  -6  -4  -7 48.3542 7.36251   2
  -6  -4  -7 46.8471 16.8075   1
  -6  -4  -7 59.7759 6.97599   2
   6   4   7 45.3234 7.17796   2
   6   4   7 51.4823 4.63763   3
   6   4   7 31.9287 14.1373   1
   6   4   7 60.2013 7.70726   2
   6   4   7 55.3959 6.86625   3
  -7  -4  -7 25.1626 13.5165   1
  -7  -4  -7 15.4480 4.73788   2
  -7  -4  -7 11.4625 5.36383   2
   7   4   7 -13.675 13.7578   1
   7   4   7 7.00441 2.64065   3
   7   4   7 5.96391 3.78664   3
   7   4   7 18.5681 4.95762   2
   7   4   7 16.5716 5.56858   2
  -8  -4  -7 8.80504 5.44904   2
  -8  -4  -7 9.94346 4.39730   2
  -8  -4  -7 5.77799 17.3019   1
   8   4   7 -2.0996 2.67987   3
   8   4   7 1.02219 3.91849   3
   8   4   7 -1.6387 4.12326   2
   8   4   7 8.69519 21.3002   1
   8   4   7 -1.9679 4.22969   2
   9   4   7 3.02541 4.81065   2
   9   4   7 -1.4780 3.80450   3
   7  -5  -7 4.86884 4.21953   2
   7  -5  -7 -0.5413 5.02308   3
  -7   5   7 12.0325 5.69120   2
   6  -5  -7 63.5339 8.28256   2
   6  -5  -7 53.0993 8.00441   3
  -6   5   7 62.9520 9.43418   2
  -6   5   7 36.2040 7.31251   2
   5  -5  -7 11.7658 4.88916   2
   5  -5  -7 15.4681 4.62519   2
   5  -5  -7 7.29771 7.57869   3
  -5   5   7 6.16352 14.2423   1
  -5   5   7 8.72944 4.63452   2
  -5   5   7 -1.9349 13.5584   1
  -5   5   7 10.3339 5.01624   2
   4  -5  -7 65.9075 7.61989   3
   4  -5  -7 56.7140 7.85439   2
   4  -5  -7 50.8750 7.08068   2
  -4   5   7 42.3957 6.27573   2
  -4   5   7 46.0195 7.15962   2
  -4   5   7 35.6098 13.2820   1
  -4   5   7 50.0984 16.2220   1
   3  -5  -7 0.36696 3.45001   3
   3  -5  -7 7.38694 3.93508   2
   3  -5  -7 -0.9183 3.61927   2
  -3   5   7 -1.3677 3.60505   2
  -3   5   7 -0.3013 8.86489   1
  -3   5   7 -0.5952 3.47379   2
  -3   5   7 1.87004 4.60270   3
  -3   5   7 7.17482 9.75432   1
   2  -5  -7 428.694 16.0032   2
   2  -5  -7 453.142 15.2063   3
   2  -5  -7 450.916 16.2242   2
  -2   5   7 452.502 16.7857   2
  -2   5   7 455.559 16.4568   2
  -2   5   7 407.518 34.5037   1
  -2   5   7 436.643 36.5226   1
  -2   5   7 435.312 14.8486   3
   1  -5  -7 23.4171 4.75002   2
   1  -5  -7 17.7198 3.86739   3
   1  -5  -7 20.9063 4.69285   2
  -1   5   7 24.8201 4.18455   3
   0  -5  -7 351.981 13.4383   2
   0  -5  -7 340.438 11.6237   3
   0  -5  -7 341.032 13.7116   2
   0  -5  -7 328.522 29.0038   1
   0   5   7 352.715 11.4078   3
   0   5   7 348.396 13.3305   2
   0   5   7 337.145 29.9372   1
   0   5   7 369.284 21.2008   2
  -1  -5  -7 116.041 17.8050   1
  -1  -5  -7 113.402 6.07450   3
  -1  -5  -7 117.008 7.50669   2
  -1  -5  -7 104.247 7.54083   2
   1   5   7 75.8878 15.2968   1
   1   5   7 108.622 5.73147   3
   1   5   7 99.1990 7.37473   2
   1   5   7 106.642 7.86300   2
  -2  -5  -7 83.5949 6.97899   2
  -2  -5  -7 82.2044 17.8895   1
  -2  -5  -7 80.4680 5.04522   3
  -2  -5  -7 68.8713 6.54166   2
   2   5   7 78.9027 4.90545   3
   2   5   7 79.4833 16.1114   1
   2   5   7 84.8948 7.25510   2
   2   5   7 77.7971 6.74539   2
  -3  -5  -7 178.628 9.48216   2
  -3  -5  -7 166.020 9.64588   2
  -3  -5  -7 170.943 22.2537   1
   3   5   7 173.588 9.63322   2
   3   5   7 195.682 22.5182   1
   3   5   7 176.953 10.0658   2
   3   5   7 185.287 7.20770   3
  -4  -5  -7 17.7394 10.2118   1
  -4  -5  -7 31.2786 5.71574   2
  -4  -5  -7 30.4395 5.34245   2
   4   5   7 19.4934 10.6570   1
   4   5   7 21.5706 6.41813   2
   4   5   7 25.4428 3.38379   3
   4   5   7 31.9456 8.81977   2
  -5  -5  -7 196.432 11.4714   2
  -5  -5  -7 184.182 11.0743   2
  -5  -5  -7 208.798 25.8786   1
   5   5   7 208.703 11.3887   2
   5   5   7 190.350 25.5231   1
   5   5   7 203.648 8.79969   3
   5   5   7 199.211 12.3375   2
   5   5   7 211.663 8.91256   3
  -6  -5  -7 91.0822 23.2145   1
  -6  -5  -7 73.3262 7.55175   2
  -6  -5  -7 72.2730 8.33476   2
   6   5   7 60.4873 7.42973   2
   6   5   7 57.3093 5.39709   3
   6   5   7 44.3199 8.78192   2
   6   5   7 57.6101 17.6309   1
   6   5   7 65.9595 6.29723   3
  -7  -5  -7 11.6768 5.03284   2
  -7  -5  -7 -2.2928 15.9420   1
  -7  -5  -7 21.4458 6.26419   2
   7   5   7 24.6687 3.71921   3
   7   5   7 22.9764 6.42729   2
   7   5   7 -8.0557 13.5710   1
   7   5   7 12.5940 5.45912   2
   7   5   7 22.3695 5.02343   3
  -8  -5  -7 11.9903 4.64852   2
  -8  -5  -7 -0.8288 4.71901   2
   8   5   7 -0.2990 4.65734   2
   8   5   7 6.07928 3.30018   3
   8   5   7 5.04253 4.36784   3
   8   5   7 -2.0417 20.1157   1
  -9  -5  -7 10.2037 8.22950   2
  -9  -5  -7 3.64057 5.17127   2
   9   5   7 6.40877 4.59365   3
   9   5   7 -0.1934 4.51525   2
 -10  -5  -7 -0.5835 6.17657   2
  10   5   7 2.03397 5.75904   2
  10   5   7 1.88427 4.50637   3
   7  -6  -7 85.8953 10.2794   2
  -7   6   7 78.7087 10.4495   2
   6  -6  -7 -4.1631 3.62973   2
   6  -6  -7 -0.1913 4.29020   3
  -6   6   7 4.06116 8.24385   2
   5  -6  -7 15.4087 5.37816   2
   5  -6  -7 4.58731 4.90134   3
   5  -6  -7 9.45903 4.49032   2
  -5   6   7 20.5371 15.6139   1
  -5   6   7 -6.6895 16.9758   1
  -5   6   7 11.1433 5.51437   2
  -5   6   7 6.70904 4.76204   2
   4  -6  -7 -0.1798 3.88579   3
   4  -6  -7 3.90528 3.47522   2
   4  -6  -7 -2.8103 3.48648   2
  -4   6   7 3.90709 13.5845   1
  -4   6   7 7.43983 3.91605   2
  -4   6   7 -22.671 12.1991   1
  -4   6   7 -5.1292 3.86806   2
   3  -6  -7 109.347 8.82517   3
   3  -6  -7 99.1868 8.37836   2
   3  -6  -7 89.6209 9.89274   2
  -3   6   7 112.968 9.36024   2
  -3   6   7 105.461 10.9557   2
  -3   6   7 116.410 22.4216   1
  -3   6   7 99.2313 8.53971   3
  -3   6   7 77.5511 17.4375   1
   2  -6  -7 291.891 12.5970   3
   2  -6  -7 279.718 13.0147   2
  -2   6   7 280.736 29.8911   1
  -2   6   7 276.286 13.3835   2
  -2   6   7 270.233 11.9341   3
  -2   6   7 284.153 29.2877   1
  -2   6   7 268.717 12.9210   2
   1  -6  -7 41.7223 6.16867   2
   1  -6  -7 34.0074 5.89894   2
   1  -6  -7 32.8874 5.14869   3
  -1   6   7 34.0400 10.9540   1
  -1   6   7 46.5141 5.68672   3
  -1   6   7 36.6126 6.32173   2
  -1   6   7 62.2089 16.0302   1
   0  -6  -7 133.541 7.70392   3
   0  -6  -7 103.064 18.7708   1
   0  -6  -7 126.446 8.52409   2
   0  -6  -7 134.918 8.85326   2
   0   6   7 137.017 7.51138   3
   0   6   7 132.805 11.2282   2
   0   6   7 132.640 8.78317   2
   0   6   7 138.521 19.8056   1
  -1  -6  -7 616.471 20.1351   2
  -1  -6  -7 695.524 44.0458   1
  -1  -6  -7 614.867 19.3718   2
  -1  -6  -7 666.893 17.8746   3
   1   6   7 623.598 17.2519   3
   1   6   7 618.684 42.1158   1
   1   6   7 635.456 19.9076   2
   1   6   7 613.563 19.4601   2
  -2  -6  -7 204.800 10.2823   2
  -2  -6  -7 192.698 10.1564   3
  -2  -6  -7 185.210 22.3025   1
   2   6   7 187.253 23.0937   1
   2   6   7 207.162 8.51217   3
   2   6   7 202.027 10.5948   2
   2   6   7 201.491 10.3960   2
  -3  -6  -7 212.134 10.6946   2
  -3  -6  -7 179.828 22.4488   1
  -3  -6  -7 240.275 13.2087   2
   3   6   7 172.968 23.6792   1
   3   6   7 223.579 11.2228   2
   3   6   7 225.752 8.84760   3
   3   6   7 230.462 11.5142   2
  -4  -6  -7 306.347 13.3928   2
  -4  -6  -7 324.534 13.8544   2
  -4  -6  -7 343.331 30.9633   1
   4   6   7 311.152 13.8886   2
   4   6   7 322.532 13.8452   2
   4   6   7 270.241 29.9311   1
   4   6   7 312.082 10.9502   3
  -5  -6  -7 1.85115 9.48802   1
  -5  -6  -7 4.29861 4.30124   2
  -5  -6  -7 3.75462 3.61285   2
   5   6   7 3.24947 3.68975   2
   5   6   7 -3.4452 3.82889   2
   5   6   7 3.34175 2.58887   3
   5   6   7 1.72382 8.82896   1
  -6  -6  -7 22.6328 5.17972   2
  -6  -6  -7 32.1860 12.7706   1
  -6  -6  -7 28.9114 6.06023   2
   6   6   7 24.5841 5.38454   2
   6   6   7 27.2494 4.01071   3
   6   6   7 18.0826 11.7526   1
   6   6   7 31.7813 4.93433   3
  -7  -6  -7 77.9834 13.2765   2
  -7  -6  -7 69.2817 8.45309   2
   7   6   7 40.2737 16.7920   1
   7   6   7 67.9996 6.03634   3
   7   6   7 71.1027 7.26426   3
   7   6   7 56.2522 9.56074   2
  -8  -6  -7 5.05184 16.5650   1
  -8  -6  -7 5.12427 4.67028   2
  -8  -6  -7 6.54141 5.21790   2
   8   6   7 14.7247 6.25447   2
   8   6   7 -2.7819 3.98560   3
   8   6   7 3.79454 3.12991   3
   8   6   7 -13.192 19.2842   1
  -9  -6  -7 11.1995 5.19829   2
  -9  -6  -7 -0.1990 4.68146   2
   9   6   7 2.73630 4.86312   3
   9   6   7 -11.486 4.31046   2
 -10  -6  -7 2.06510 5.89565   2
  10   6   7 -5.4582 5.25896   2
  10   6   7 16.2726 5.15965   3
   6  -7  -7 74.6790 9.65771   3
   6  -7  -7 51.2429 8.25513   2
  -6   7   7 49.0181 8.99591   2
   5  -7  -7 5.80844 4.93943   2
   5  -7  -7 8.01945 5.37053   3
   5  -7  -7 -3.7158 7.04111   2
  -5   7   7 14.4120 5.39254   2
  -5   7   7 24.8524 22.4192   1
  -5   7   7 11.0118 21.4702   1
   4  -7  -7 -3.4490 4.36462   2
   4  -7  -7 1.50613 4.10683   3
   4  -7  -7 -0.4744 3.89515   2
  -4   7   7 -1.0485 4.13542   2
  -4   7   7 3.25629 13.8116   1
  -4   7   7 23.6489 17.4297   1
  -4   7   7 -3.7226 4.64026   2
   3  -7  -7 8.54432 4.48733   2
   3  -7  -7 5.51582 3.72319   2
   3  -7  -7 9.00823 4.03650   3
  -3   7   7 -7.9156 13.2251   1
  -3   7   7 20.5056 12.7817   1
  -3   7   7 -2.4410 3.61545   2
  -3   7   7 0.94600 4.17137   2
   2  -7  -7 105.631 8.63169   3
   2  -7  -7 91.9088 8.38969   2
   2  -7  -7 99.9816 8.44029   2
  -2   7   7 81.9763 7.35676   3
  -2   7   7 86.1672 8.02922   2
  -2   7   7 97.5960 9.07184   2
  -2   7   7 91.2740 20.4274   1
  -2   7   7 50.3293 17.1023   1
   1  -7  -7 133.773 8.94907   3
   1  -7  -7 119.165 9.10723   2
  -1   7   7 120.745 9.55798   2
  -1   7   7 105.770 19.6975   1
  -1   7   7 120.383 8.03097   3
  -1   7   7 127.853 9.63338   2
  -1   7   7 105.348 20.2862   1
   0  -7  -7 181.897 23.9611   1
   0  -7  -7 189.801 10.4247   2
   0  -7  -7 199.574 10.7611   2
   0  -7  -7 196.431 9.93650   3
   0   7   7 183.290 24.0112   1
   0   7   7 197.092 11.1507   2
   0   7   7 195.970 10.7182   2
   0   7   7 185.538 9.36697   3
  -1  -7  -7 7.49256 4.16840   2
  -1  -7  -7 8.95848 3.67798   3
  -1  -7  -7 11.0504 4.04025   2
  -1  -7  -7 11.6622 8.64459   1
   1   7   7 2.58023 8.57558   1
   1   7   7 10.4791 3.28510   3
   1   7   7 9.51487 4.50515   2
   1   7   7 10.6564 4.21150   2
  -2  -7  -7 866.573 24.7136   2
  -2  -7  -7 887.772 22.9480   3
  -2  -7  -7 835.335 50.4389   1
  -2  -7  -7 892.824 25.2265   2
   2   7   7 888.771 25.1874   2
   2   7   7 913.166 25.5193   2
   2   7   7 870.281 22.6761   3
   2   7   7 839.224 51.5366   1
  -3  -7  -7 56.0648 6.91445   2
  -3  -7  -7 59.3544 6.68302   2
  -3  -7  -7 46.7619 13.6507   1
   3   7   7 58.5009 7.12489   2
   3   7   7 62.2286 6.74901   2
   3   7   7 41.8829 12.6694   1
   3   7   7 61.4640 5.54215   3
  -4  -7  -7 21.6408 10.5795   1
  -4  -7  -7 8.25215 4.08840   2
  -4  -7  -7 4.60073 4.26717   2
   4   7   7 3.36460 4.23317   2
   4   7   7 0.11922 2.52618   3
   4   7   7 5.08267 10.8988   1
   4   7   7 2.52843 4.05205   2
  -5  -7  -7 141.480 9.67776   2
  -5  -7  -7 164.198 10.8760   2
   5   7   7 132.289 9.86918   2
   5   7   7 155.415 10.6545   2
   5   7   7 113.878 24.9295   1
   5   7   7 158.207 8.29991   3
  -6  -7  -7 163.826 10.7499   2
  -6  -7  -7 182.256 11.4503   2
   6   7   7 185.236 9.35692   3
   6   7   7 172.647 11.5421   2
   6   7   7 189.727 9.98161   3
   6   7   7 193.149 13.5356   2
  -7  -7  -7 35.7528 6.11943   2
  -7  -7  -7 34.2844 18.6637   1
  -7  -7  -7 32.4602 6.60032   2
   7   7   7 23.9064 4.42476   3
   7   7   7 30.6084 7.52010   2
   7   7   7 35.9411 5.96682   3
   7   7   7 43.8694 17.0735   1
  -8  -7  -7 13.0187 27.7491   1
  -8  -7  -7 8.88154 4.65073   2
  -8  -7  -7 4.80506 6.91618   2
   8   7   7 4.54884 6.23632   2
   8   7   7 12.3535 4.48461   3
  -9  -7  -7 1.61600 4.55657   2
  -9  -7  -7 -4.6993 4.03753   2
   9   7   7 -3.0831 4.98134   2
   9   7   7 0.12549 4.47118   3
 -10  -7  -7 1.30497 4.85159   2
  10   7   7 8.46249 5.65137   2
  10   7   7 5.61677 5.70669   3
   6  -8  -7 72.9790 11.7237   3
   6  -8  -7 79.1568 10.0689   2
  -6   8   7 103.692 10.9999   2
   5  -8  -7 52.6425 8.30685   2
   5  -8  -7 26.2800 7.15819   3
  -5   8   7 46.9706 7.72066   2
   4  -8  -7 -4.9012 3.49979   2
   4  -8  -7 -6.6309 3.47978   2
   4  -8  -7 -2.5214 4.28719   3
  -4   8   7 6.69615 5.28912   2
  -4   8   7 5.53762 4.81777   2
  -4   8   7 -11.357 23.0338   1
  -4   8   7 -23.792 18.7566   1
   3  -8  -7 5.43594 3.56773   2
   3  -8  -7 1.38054 4.03613   2
   3  -8  -7 1.34086 4.65099   3
  -3   8   7 19.9363 13.6656   1
  -3   8   7 9.21152 13.6094   1
  -3   8   7 6.58852 4.88151   2
  -3   8   7 6.01594 4.46349   2
   2  -8  -7 -4.7522 3.21135   2
   2  -8  -7 5.51718 3.66860   2
   2  -8  -7 3.05262 3.95952   3
  -2   8   7 33.1332 13.2877   1
  -2   8   7 13.2288 10.6674   1
  -2   8   7 -2.2336 4.45362   2
  -2   8   7 -2.7355 3.32023   2
   1  -8  -7 90.6845 8.99115   2
   1  -8  -7 106.092 8.70238   3
   1  -8  -7 95.8033 8.74414   2
  -1   8   7 82.7794 19.9466   1
  -1   8   7 107.047 8.31039   3
  -1   8   7 81.8039 9.12608   2
  -1   8   7 92.1525 8.38673   2
  -1   8   7 115.866 21.6333   1
   0  -8  -7 46.9575 6.34228   3
   0  -8  -7 43.3157 6.52397   2
   0  -8  -7 43.2814 6.19624   2
   0   8   7 32.1805 13.7682   1
   0   8   7 32.1492 6.31442   2
  -1  -8  -7 479.792 38.4136   1
  -1  -8  -7 449.286 16.8262   2
  -1  -8  -7 460.288 16.0871   3
  -1  -8  -7 470.281 17.2342   2
   1   8   7 439.524 15.5003   3
   1   8   7 402.273 36.9639   1
   1   8   7 456.230 17.3909   2
   1   8   7 458.900 17.1697   2
  -2  -8  -7 79.7132 7.76408   2
  -2  -8  -7 73.8216 7.42765   2
  -2  -8  -7 66.5386 6.83940   3
  -2  -8  -7 64.5376 16.8438   1
   2   8   7 76.6967 6.47291   3
   2   8   7 74.4611 7.74633   2
   2   8   7 61.6865 16.7639   1
   2   8   7 81.2713 7.60644   2
  -3  -8  -7 40.4301 6.22872   2
  -3  -8  -7 39.8475 5.85419   2
  -3  -8  -7 38.1952 5.28469   3
  -3  -8  -7 40.4904 10.8991   1
   3   8   7 41.6243 5.32760   3
   3   8   7 26.6032 5.66595   2
   3   8   7 16.4036 10.9355   1
   3   8   7 27.3146 5.72337   2
  -4  -8  -7 103.309 18.5461   1
  -4  -8  -7 90.5756 7.79231   2
  -4  -8  -7 103.104 8.67318   2
   4   8   7 104.154 8.40707   2
   4   8   7 112.124 7.52861   3
   4   8   7 105.403 8.90525   2
  -5  -8  -7 5.03375 3.76273   2
  -5  -8  -7 1.65311 3.98053   2
   5   8   7 0.50554 2.79596   3
   5   8   7 -2.0676 3.83702   2
   5   8   7 4.52218 5.99604   2
  -6  -8  -7 24.6653 6.19092   2
  -6  -8  -7 25.5235 5.67811   2
  -6  -8  -7 3.54347 13.0533   1
   6   8   7 42.4489 15.2776   1
   6   8   7 35.2340 6.39150   2
   6   8   7 20.2050 4.18891   3
   6   8   7 21.7644 5.90459   2
  -7  -8  -7 -19.797 14.7864   1
  -7  -8  -7 14.8416 5.54497   2
  -7  -8  -7 3.46286 4.16147   2
   7   8   7 4.69641 4.42883   2
   7   8   7 6.26755 14.7833   1
   7   8   7 8.05583 4.40376   3
  -8  -8  -7 -6.6001 3.39894   2
  -8  -8  -7 2.36395 4.85404   2
   8   8   7 -4.5238 4.23928   2
   8   8   7 -3.5094 3.88863   3
  -9  -8  -7 -5.8945 4.30336   2
   9   8   7 5.89506 4.98005   3
   9   8   7 -2.3956 5.52463   2
   5  -9  -7 -5.6874 10.0263   3
   5  -9  -7 -7.4748 3.96471   2
  -5   9   7 -8.6412 4.89360   2
   4  -9  -7 0.35552 4.31099   2
   4  -9  -7 3.81933 4.90738   3
   4  -9  -7 -9.1047 4.24617   2
  -4   9   7 1.25801 4.75572   2
   3  -9  -7 36.6263 7.39098   2
   3  -9  -7 38.1772 6.77086   3
   3  -9  -7 37.5931 6.44580   2
  -3   9   7 16.5458 25.6894   1
  -3   9   7 41.5670 7.68787   2
  -3   9   7 42.2503 23.0063   1
   2  -9  -7 4.84806 4.18499   3
   2  -9  -7 8.54323 3.95511   2
   2  -9  -7 -0.9300 3.49213   2
  -2   9   7 -4.0362 3.83263   2
  -2   9   7 22.5872 14.8843   1
  -2   9   7 -3.6060 16.6130   1
  -2   9   7 1.32120 3.91198   2
   1  -9  -7 29.2194 6.33067   2
   1  -9  -7 27.6886 5.80618   3
   1  -9  -7 34.9073 5.97305   2
  -1   9   7 21.2022 14.2246   1
  -1   9   7 23.3365 9.56962   2
  -1   9   7 1.42235 11.9196   1
   0  -9  -7 18.5497 5.23788   2
   0  -9  -7 26.4835 5.82432   2
   0  -9  -7 16.2861 4.82141   3
   0   9   7 -1.0498 9.36349   1
   0   9   7 5.34755 12.1601   1
   0   9   7 14.8850 5.11977   2
   0   9   7 10.1770 4.61269   2
  -1  -9  -7 23.5353 5.30807   3
  -1  -9  -7 26.1777 11.1276   1
  -1  -9  -7 29.7276 5.69317   2
  -1  -9  -7 28.7350 5.73936   2
   1   9   7 4.69352 9.72698   1
   1   9   7 19.4993 5.25667   2
   1   9   7 21.0092 4.49441   3
   1   9   7 23.8042 5.67863   2
  -2  -9  -7 45.5651 5.94626   2
  -2  -9  -7 36.8828 6.21034   2
  -2  -9  -7 36.3538 12.0701   1
  -2  -9  -7 37.9404 5.74304   3
   2   9   7 33.0763 5.22998   3
   2   9   7 44.1467 6.91717   2
   2   9   7 39.2091 6.39739   2
   2   9   7 24.7029 14.8586   1
  -3  -9  -7 78.6771 7.46832   3
  -3  -9  -7 68.8227 8.22273   2
  -3  -9  -7 73.7366 16.3658   1
  -3  -9  -7 62.4244 6.81378   2
   3   9   7 81.5895 7.22135   3
   3   9   7 67.9753 17.6897   1
   3   9   7 74.6749 8.99270   2
   3   9   7 92.0948 8.42838   2
  -4  -9  -7 59.9610 6.51171   2
  -4  -9  -7 66.1351 7.54737   2
   4   9   7 60.5150 6.20063   3
   4   9   7 60.9113 7.22748   2
   4   9   7 30.7220 15.2004   1
   4   9   7 63.4311 7.69162   2
  -5  -9  -7 41.6092 6.10400   2
  -5  -9  -7 46.8161 16.1369   1
  -5  -9  -7 42.6256 6.70833   2
   5   9   7 54.3834 11.5988   2
   5   9   7 47.8517 7.22645   2
   5   9   7 49.9703 6.28424   3
   5   9   7 36.5994 15.5936   1
  -6  -9  -7 5.26481 4.90891   2
  -6  -9  -7 -10.935 13.6598   1
  -6  -9  -7 8.58908 3.74512   2
   6   9   7 15.3581 16.0239   1
   6   9   7 3.15177 4.06602   2
  -7  -9  -7 29.9159 19.0010   1
  -7  -9  -7 30.2404 5.20885   2
   7   9   7 25.7934 5.84556   3
   7   9   7 29.0800 6.47992   2
  -8  -9  -7 14.4665 5.51895   2
  -8  -9  -7 22.4360 5.53183   2
   8   9   7 13.4062 5.11256   3
   8   9   7 7.13545 4.91617   2
  -9  -9  -7 2.94077 5.16298   2
   9   9   7 -5.5981 5.36282   2
   9   9   7 -0.5201 4.67256   3
   4 -10  -7 -8.8751 4.33852   3
   4 -10  -7 5.18309 4.55949   2
  -4  10   7 9.05060 5.59118   2
   3 -10  -7 9.08918 4.88544   2
   3 -10  -7 7.85710 5.26481   3
   3 -10  -7 5.12778 4.52813   2
  -3  10   7 3.54145 5.09911   2
   2 -10  -7 -3.2769 3.38568   2
   2 -10  -7 3.64908 4.43494   2
   2 -10  -7 2.77540 4.22689   3
  -2  10   7 -0.5962 4.28250   2
   1 -10  -7 -2.0949 4.34716   2
   1 -10  -7 1.65610 3.89443   2
   1 -10  -7 9.80898 4.52352   3
  -1  10   7 -8.5267 15.4247   1
   0 -10  -7 29.0552 6.40692   3
   0 -10  -7 12.9868 5.05990   2
   0 -10  -7 25.2159 5.17371   2
   0  10   7 23.6048 16.2955   1
   0  10   7 50.9567 17.1919   1
   0  10   7 25.1587 5.95644   2
  -1 -10  -7 10.6023 4.70763   2
  -1 -10  -7 4.85374 3.38248   2
  -1 -10  -7 3.28303 3.84233   3
   1  10   7 -12.561 10.0386   1
   1  10   7 6.57627 13.2921   1
   1  10   7 7.02274 4.67049   2
  -2 -10  -7 9.48468 4.24012   3
  -2 -10  -7 2.43807 11.0640   1
  -2 -10  -7 24.9541 5.60709   2
  -2 -10  -7 4.67013 3.96838   2
   2  10   7 24.1626 5.95397   2
   2  10   7 18.5560 15.3925   1
   2  10   7 23.0502 8.22784   2
  -3 -10  -7 -3.5173 10.9465   1
  -3 -10  -7 3.36548 3.89869   2
  -3 -10  -7 5.51406 3.15300   2
  -3 -10  -7 2.62737 3.40339   3
   3  10   7 -2.8428 4.29975   2
   3  10   7 -6.7727 10.6256   1
  -4 -10  -7 9.43728 4.76470   2
  -4 -10  -7 3.50514 3.24253   2
  -4 -10  -7 4.41683 12.1044   1
   4  10   7 4.79020 14.7991   1
   4  10   7 5.15418 4.34184   2
  -5 -10  -7 20.4875 16.5636   1
  -5 -10  -7 21.9250 5.88607   2
  -5 -10  -7 12.4707 3.92226   2
   5  10   7 14.2202 5.28834   2
   5  10   7 27.7446 20.9156   1
  -6 -10  -7 28.6266 7.34002   2
  -6 -10  -7 32.3303 19.7477   1
  -6 -10  -7 27.8717 5.25098   2
   6  10   7 11.8673 5.01836   2
   6  10   7 32.2358 21.5739   1
  -7 -10  -7 -2.1969 3.45467   2
  -7 -10  -7 6.91696 4.48447   2
   7  10   7 3.69062 4.52556   2
  -8 -10  -7 -6.5572 4.01252   2
  -8 -10  -7 10.1389 4.68617   2
   8  10   7 7.89767 4.68512   2
   8  10   7 -2.5399 4.59939   3
  -9 -10  -7 93.7807 10.9394   2
   9  10   7 109.558 11.1807   3
   3 -11  -7 8.33839 5.57725   2
   3 -11  -7 1.16859 5.78637   3
  -3  11   7 13.4401 5.89666   2
   2 -11  -7 15.5349 5.45552   2
   2 -11  -7 16.3874 5.53698   2
   2 -11  -7 7.52340 5.30781   3
  -2  11   7 11.9148 5.44760   2
   1 -11  -7 10.6363 4.85300   2
   1 -11  -7 10.9972 5.21509   3
   1 -11  -7 9.05671 4.59651   2
  -1  11   7 4.27691 5.70494   2
   0 -11  -7 -1.3223 3.53770   2
   0 -11  -7 3.96062 5.18992   2
   0 -11  -7 0.83877 3.77293   3
   0  11   7 -4.7652 4.19947   2
  -1 -11  -7 27.5639 6.05025   3
  -1 -11  -7 34.8113 9.40142   2
  -1 -11  -7 40.3973 6.12576   2
   1  11   7 10.5894 14.0422   1
   1  11   7 32.1751 6.49391   2
  -2 -11  -7 2.10006 3.12864   2
  -2 -11  -7 7.32834 5.05429   2
  -2 -11  -7 2.19381 3.71423   3
   2  11   7 3.16995 15.3818   1
   2  11   7 7.00103 4.96724   2
  -3 -11  -7 46.4404 17.2148   1
  -3 -11  -7 9.09181 3.87752   2
  -3 -11  -7 12.3735 5.58809   2
   3  11   7 -8.2755 17.3886   1
   3  11   7 12.2719 5.33187   2
  -4 -11  -7 35.0681 5.99304   2
  -4 -11  -7 25.5774 8.94874   2
  -4 -11  -7 17.7366 14.6326   1
   4  11   7 55.4453 20.9355   1
   4  11   7 20.0399 5.70477   2
  -5 -11  -7 41.6259 6.98871   2
  -5 -11  -7 31.6801 5.34305   2
   5  11   7 20.7103 6.28734   2
  -6 -11  -7 34.4531 6.96738   2
  -6 -11  -7 29.3592 5.52362   2
   6  11   7 39.3048 6.84084   2
  -7 -11  -7 98.9710 9.72622   2
  -7 -11  -7 88.2148 10.0856   2
   7  11   7 88.5362 9.66815   2
  -8 -11  -7 271.051 15.8456   2
   8  11   7 210.441 21.7907   2
   8  11   7 270.311 15.3643   3
   2 -12  -7 36.7203 7.55900   2
   2 -12  -7 39.5490 11.5335   3
  -2  12   7 37.8817 7.23345   2
   1 -12  -7 49.6831 7.89000   3
   1 -12  -7 52.6774 8.24760   2
  -1  12   7 56.5154 8.74938   2
   0 -12  -7 129.631 11.4362   3
   0 -12  -7 103.945 9.77453   2
   0 -12  -7 134.665 10.9225   2
   0  12   7 101.666 10.5912   2
  -1 -12  -7 37.7221 7.42634   2
  -1 -12  -7 40.6749 7.07633   3
  -1 -12  -7 33.2996 5.30425   2
   1  12   7 47.5992 7.23176   2
  -2 -12  -7 -0.2755 3.27923   2
  -2 -12  -7 -0.9770 3.66469   3
  -2 -12  -7 5.06389 4.38999   2
   2  12   7 2.73136 4.29960   2
  -3 -12  -7 10.1469 4.28923   3
  -3 -12  -7 8.97647 3.79649   2
  -3 -12  -7 13.2347 5.21817   2
   3  12   7 5.78029 4.94691   2
  -4 -12  -7 13.7080 5.22747   2
   4  12   7 16.3486 5.27644   2
  -5 -12  -7 19.0834 5.74117   2
   5  12   7 13.6203 6.04962   2
  -6 -12  -7 52.0607 8.08548   2
   6  12   7 50.1602 7.72394   2
  -7 -12  -7 28.4904 6.97291   2
  -7 -12  -7 27.3953 5.04309   2
  -8 -12  -7 -17.379 8.54097   2
   8  12   7 -0.4377 5.49093   3
   0 -13  -7 19.5426 6.02700   2
  -1 -13  -7 98.3520 10.7596   2
  -1 -13  -7 95.9901 10.2557   3
   1  13   7 104.752 11.1745   2
  -2 -13  -7 9.95174 5.24686   3
  -2 -13  -7 14.6762 5.88008   2
   2  13   7 14.4813 5.31713   2
  -3 -13  -7 -5.0642 5.30388   2
  -3 -13  -7 15.1601 5.13353   2
   3  13   7 10.1632 5.10632   2
  -4 -13  -7 7.57378 3.72163   2
  -4 -13  -7 -2.5434 4.36923   2
   4  13   7 3.71550 8.42142   2
  -5 -13  -7 -4.8372 3.78529   2
  -5 -13  -7 6.60911 5.00461   2
  -6 -13  -7 4.16330 5.03222   2
  -7 -13  -7 19.2117 6.98123   2
  -2 -14  -7 14.6556 7.86803   2
  -2 -14  -7 27.6838 7.30636   3
  -4 -14  -7 20.0537 9.92071   2
  -5 -14  -7 27.5636 6.60587   2
   5   8  -8 10.5941 4.97111   3
   4   8  -8 2.46455 6.59178   3
   3   8  -8 -6.3465 3.02774   3
   2   8  -8 5.41565 3.11189   3
   1   8  -8 54.5768 5.60021   3
   0   8  -8 9.11374 2.72327   3
   6   7  -8 24.6764 5.70830   3
   5   7  -8 9.24339 5.24929   3
   4   7  -8 10.3262 4.12612   3
   3   7  -8 151.757 9.10385   3
   3   7  -8 146.253 8.83582   3
   2   7  -8 21.2868 3.64609   3
   2   7  -8 31.6770 4.61986   3
   1   7  -8 8.51624 2.69499   3
   1   7  -8 10.7574 3.18682   3
   0   7  -8 14.8512 2.90320   3
   2  -7   8 11.7152 4.42759   2
   7   6  -8 6.02939 5.61234   3
   6   6  -8 6.19046 4.92312   3
   5   6  -8 26.9471 5.40497   3
   4   6  -8 1.19699 3.28051   3
   4   6  -8 6.22409 3.44176   3
   3   6  -8 9.45094 3.30638   3
   3   6  -8 4.94531 3.60490   3
   2   6  -8 50.0902 5.32633   3
   2   6  -8 52.2956 5.64260   3
   1   6  -8 3.09595 2.14736   3
   0   6  -8 2.71836 2.38843   3
   0   6  -8 2.67112 1.97619   3
  -1   6  -8 10.0951 2.10579   3
  -1   6  -8 9.45320 1.83053   3
   1  -6   8 7.31983 2.29015   2
   1  -6   8 11.1073 2.54217   2
  -2   6  -8 1.20305 1.68188   3
   2  -6   8 2.29369 2.80259   2
   2  -6   8 0.82055 2.48232   2
   3  -6   8 5.98324 3.08154   2
   3  -6   8 -4.0654 3.23793   2
   4  -6   8 11.6350 4.71166   2
   4  -6   8 9.73681 4.49632   2
   8   5  -8 0.97550 5.26393   3
   7   5  -8 4.96635 4.88638   3
   6   5  -8 8.09031 6.26151   3
   5   5  -8 23.1869 5.35532   3
   4   5  -8 6.47718 5.85100   3
   4   5  -8 -4.0951 2.81908   3
   3   5  -8 4.42253 3.16884   3
   3   5  -8 3.73212 2.87236   3
   2   5  -8 3.22483 2.28458   3
   2   5  -8 3.50249 2.76457   3
   1   5  -8 86.9614 4.94064   3
   1   5  -8 90.0277 5.63896   3
   0   5  -8 95.2344 4.54971   3
   0   5  -8 97.9073 4.36861   3
   0  -5   8 96.8048 3.93021   2
   0  -5   8 94.2540 4.02374   2
  -1   5  -8 0.70381 2.69153   2
  -1   5  -8 5.95932 1.34491   3
  -1   5  -8 5.23195 1.08139   3
   1  -5   8 2.44735 2.39932   2
   1  -5   8 3.50370 2.30870   2
  -2   5  -8 -0.1969 3.02528   2
   2  -5   8 4.32035 2.63410   2
   2  -5   8 3.92698 3.25506   2
  -3   5  -8 -8.1236 5.73093   2
   3  -5   8 -0.4393 3.33095   2
   3  -5   8 -1.9213 3.16236   2
   4  -5   8 4.11935 4.38315   2
   5  -5   8 5.04563 4.67905   2
   8   4  -8 111.785 11.6780   3
  -8  -4   8 91.3774 4.84021   2
   7   4  -8 4.67010 4.74796   3
   6   4  -8 5.29574 4.75428   3
   5   4  -8 -1.1682 3.73791   3
   4   4  -8 6.86858 3.19819   3
   4   4  -8 7.55537 4.07586   3
   3   4  -8 1.01744 2.66014   3
   3   4  -8 0.52195 2.89204   3
   2   4  -8 35.1473 5.32706   3
   1   4  -8 3.61958 1.85319   2
   1   4  -8 6.87909 1.94098   3
   1   4  -8 10.6039 2.46573   3
  -1  -4   8 8.89970 1.30874   2
  -1  -4   8 10.3049 4.70651   1
   0   4  -8 11.2080 1.75668   3
   0   4  -8 11.4077 2.69993   2
   0   4  -8 13.2831 1.65336   3
   0  -4   8 15.1061 2.56760   2
   0  -4   8 10.4730 2.56578   2
  -1   4  -8 40.1279 4.92648   2
   1  -4   8 49.0869 4.65991   2
   1  -4   8 43.4074 4.81838   2
  -2   4  -8 9.09622 4.10113   2
   2  -4   8 6.40521 3.32241   2
  -3   4  -8 -2.7064 3.21598   2
   3  -4   8 6.74393 3.61795   2
   3  -4   8 6.07123 3.85931   2
  -4   4  -8 420.395 17.4345   2
   4  -4   8 465.274 17.4336   2
   5  -4   8 -2.3525 4.20087   2
   5  -4   8 0.85742 4.45114   2
   6  -4   8 -5.6226 4.49627   2
   8   3  -8 20.9350 6.96109   3
  -8  -3   8 28.5563 4.42424   2
  -8  -3   8 24.9099 4.40550   2
   7   3  -8 4.76892 5.18630   2
   7   3  -8 0.88486 4.61383   3
  -7  -3   8 5.17463 2.85760   2
  -7  -3   8 -1.7885 2.42326   2
   6   3  -8 1.29664 4.61074   3
   6   3  -8 6.05647 3.23510   2
  -6  -3   8 5.31390 2.33341   2
  -6  -3   8 1.58696 2.05720   2
  -6  -3   8 0.86662 9.09032   1
   5   3  -8 1.18784 3.67825   3
   5   3  -8 3.04780 2.33025   2
  -5  -3   8 3.17625 1.91879   2
  -5  -3   8 0.26253 6.18392   1
  -5  -3   8 2.14444 1.91455   2
   4   3  -8 269.699 11.6743   3
   4   3  -8 266.984 8.33567   2
  -4  -3   8 259.673 7.13980   2
  -4  -3   8 255.856 7.15669   2
  -4  -3   8 222.159 19.7267   1
  -4  -3   8 249.262 15.3900   1
   3   3  -8 -0.1493 1.76589   2
   3   3  -8 0.64063 2.52824   3
   3   3  -8 1.57122 2.94599   3
  -3  -3   8 -0.4379 4.03084   1
  -3  -3   8 1.85065 1.49839   2
  -3  -3   8 1.09154 1.30648   2
  -3  -3   8 0.94628 4.26160   1
   2   3  -8 -0.5249 1.73901   2
   2   3  -8 -2.1724 1.50479   2
   2   3  -8 -0.8665 1.94074   3
   2   3  -8 1.40250 2.53460   3
  -2  -3   8 7.76377 4.16026   1
  -2  -3   8 6.90834 3.93597   1
  -2  -3   8 -0.0676 1.46953   2
  -2  -3   8 -0.1588 1.58360   2
   1   3  -8 256.165 17.7621   1
   1   3  -8 274.408 7.87804   3
   1   3  -8 271.987 8.93584   2
   1   3  -8 264.474 8.00735   3
   1   3  -8 261.483 8.88019   2
  -1  -3   8 273.368 8.39775   2
  -1  -3   8 265.017 18.2320   1
   0   3  -8 96.4805 13.1289   1
   0  -3   8 74.4072 12.4009   1
   0  -3   8 87.1755 5.54844   2
  -1   3  -8 5.42979 2.92267   2
   1  -3   8 -1.7076 5.64573   1
   1  -3   8 -1.7289 3.24513   2
   1  -3   8 -0.9548 2.66106   2
  -2   3  -8 7.84453 3.50108   2
   2  -3   8 8.97461 3.84335   2
   2  -3   8 13.0073 3.60234   2
  -3   3  -8 66.6137 6.93061   2
   3  -3   8 66.3165 6.45669   2
  -4   3  -8 26.2917 5.03281   2
   4  -3   8 18.7996 4.93365   2
   4  -3   8 17.6264 5.20871   2
  -5   3  -8 38.7893 7.44420   2
   5  -3   8 56.9109 6.85304   2
   5  -3   8 37.3783 7.02794   2
  -6   3  -8 9.28527 7.96309   2
   6  -3   8 8.50771 5.45533   2
   8   2  -8 126.354 11.9986   3
  -8  -2   8 117.917 8.85411   2
  -8  -2   8 116.014 8.25519   2
   7   2  -8 3.16472 3.34276   2
   7   2  -8 -4.7667 4.38409   3
  -7  -2   8 -1.7705 3.01486   2
  -7  -2   8 8.92629 3.10591   2
   6   2  -8 21.6143 4.31490   2
   6   2  -8 16.7789 5.57954   3
  -6  -2   8 21.1734 10.3191   1
  -6  -2   8 14.9012 3.53639   2
  -6  -2   8 22.4191 3.57850   2
   5   2  -8 0.15479 2.49602   2
   5   2  -8 0.77948 3.97568   3
  -5  -2   8 2.54505 2.41374   2
  -5  -2   8 -0.6396 2.37574   2
  -5  -2   8 12.6862 8.05528   1
   4   2  -8 68.5633 5.33908   2
   4   2  -8 61.4827 6.82053   3
  -4  -2   8 66.2342 5.09935   2
  -4  -2   8 82.1781 5.97204   2
  -4  -2   8 57.1898 11.9012   1
   3   2  -8 13.0663 2.96001   2
   3   2  -8 13.8764 3.75366   3
   3   2  -8 14.3287 4.70270   2
  -3  -2   8 8.05580 6.28348   1
  -3  -2   8 11.1802 6.24301   1
  -3  -2   8 14.1055 2.86791   2
   2   2  -8 20.0858 3.13330   3
   2   2  -8 15.6568 3.11155   3
   2   2  -8 16.4324 2.79605   2
  -2  -2   8 10.5775 2.64208   2
  -2  -2   8 18.7072 4.57723   2
   1   2  -8 3.23921 2.16498   2
   1   2  -8 3.42473 2.50362   2
   1   2  -8 4.47294 1.76791   3
   1   2  -8 4.24616 1.52600   3
  -1  -2   8 3.77619 4.60897   1
  -1  -2   8 4.77638 2.47374   2
   0   2  -8 -3.8026 2.23025   2
   0   2  -8 2.66072 2.35356   2
   0   2  -8 -2.1036 4.74072   1
   0  -2   8 1.04615 2.18919   2
   0  -2   8 1.40018 2.51846   2
  -1   2  -8 20.6013 7.27999   1
  -1   2  -8 21.6577 4.00220   2
  -1   2  -8 27.1828 3.93919   2
   1  -2   8 21.7597 7.86819   1
   1  -2   8 20.5481 4.10426   2
   1  -2   8 26.8719 4.08057   2
  -2   2  -8 6.04034 8.08974   1
  -2   2  -8 7.06689 3.49766   2
   2  -2   8 7.52677 3.52315   2
   2  -2   8 9.72761 3.55818   2
   2  -2   8 2.20572 7.38108   1
  -3   2  -8 50.7520 6.36819   2
   3  -2   8 51.8379 6.29390   2
   3  -2   8 54.9588 6.41420   2
  -4   2  -8 71.4590 7.89790   2
   4  -2   8 66.9212 6.42696   2
  -5   2  -8 30.3955 6.44090   2
   5  -2   8 28.8874 6.67426   2
  -6   2  -8 -3.5462 3.93275   2
   6  -2   8 -4.0988 4.46221   2
   6  -2   8 -2.9196 4.01439   2
   7  -2   8 2.48010 5.04884   2
   8   1  -8 -2.7232 4.95932   3
  -8  -1   8 -0.4140 5.85896   2
  -8  -1   8 -0.0759 4.20381   2
   7   1  -8 41.1126 5.93392   2
   7   1  -8 37.7809 6.72477   3
  -7  -1   8 25.0349 5.14640   2
   6   1  -8 -2.6508 2.61227   2
   6   1  -8 -0.8283 4.29551   3
  -6  -1   8 -4.4624 2.52002   2
   5   1  -8 44.0126 6.23682   3
   5   1  -8 51.7700 5.51404   2
  -5  -1   8 44.9367 5.27196   2
  -5  -1   8 40.5846 5.26548   2
   4   1  -8 148.475 7.90521   2
   4   1  -8 150.901 8.96991   3
  -4  -1   8 137.037 17.5244   1
  -4  -1   8 178.792 18.2348   1
  -4  -1   8 149.161 7.74721   2
  -4  -1   8 161.941 8.23806   2
   3   1  -8 114.865 6.74339   2
   3   1  -8 119.120 6.43027   2
   3   1  -8 116.038 7.18968   3
  -3  -1   8 103.412 15.1067   1
  -3  -1   8 125.305 14.7884   1
  -3  -1   8 122.018 6.62392   2
  -3  -1   8 111.827 6.67423   2
   2   1  -8 41.2849 4.74834   2
   2   1  -8 45.1274 4.46668   3
  -2  -1   8 41.0931 4.59774   2
  -2  -1   8 29.9668 8.76973   1
   1   1  -8 117.023 6.70500   2
   1   1  -8 119.599 4.64569   3
   1   1  -8 129.226 7.28589   2
   1   1  -8 118.227 4.55055   3
   1   1  -8 135.892 14.2870   1
  -1  -1   8 108.017 6.43648   2
  -1  -1   8 96.5723 14.0879   1
  -1  -1   8 114.511 6.40370   2
   0   1  -8 115.565 6.93659   2
   0   1  -8 122.899 6.96954   2
   0   1  -8 85.5141 13.8430   1
   0  -1   8 114.046 6.58834   2
   0  -1   8 121.969 7.11108   2
   0  -1   8 80.7663 14.6837   1
  -1   1  -8 0.54802 2.62281   2
  -1   1  -8 2.78023 6.03320   1
   1  -1   8 -2.3849 2.32250   2
   1  -1   8 1.47246 2.88839   2
   1  -1   8 3.16568 6.37266   1
  -2   1  -8 118.547 7.61628   2
  -2   1  -8 126.805 20.6765   1
  -2   1  -8 111.904 7.57599   2
   2  -1   8 120.701 7.52384   2
   2  -1   8 111.764 7.87473   2
  -3   1  -8 4.09498 3.69976   2
  -3   1  -8 -2.7411 2.91776   2
  -3   1  -8 1.41775 8.75202   1
   3  -1   8 2.10247 2.82475   2
   3  -1   8 1.40572 8.52347   1
   3  -1   8 6.10335 3.97151   2
  -4   1  -8 32.2134 5.98158   2
   4  -1   8 35.6580 6.52062   2
  -5   1  -8 3.81630 4.18620   2
   5  -1   8 0.36427 3.11895   2
  -6   1  -8 7.99259 4.50877   2
   6  -1   8 -1.1354 3.94828   2
   6  -1   8 3.24541 4.60505   2
  -7   1  -8 11.4846 6.07661   2
   7  -1   8 6.99704 4.91092   2
   7  -1   8 4.95288 1.28935   3
   8   0  -8 48.3608 8.33149   3
  -8   0   8 41.8501 7.08464   2
  -8   0   8 38.9107 6.28616   2
   7   0  -8 13.3883 5.50319   3
   7   0  -8 6.79587 4.08800   2
  -7   0   8 6.14954 4.22619   2
  -7   0   8 16.9041 4.41579   2
   6   0  -8 1.40500 4.27823   3
   6   0  -8 0.53015 2.96417   2
  -6   0   8 1.37885 3.39444   2
  -6   0   8 18.5151 11.7715   1
  -6   0   8 6.99691 3.56161   2
   5   0  -8 16.7140 4.11781   2
   5   0  -8 24.6087 5.17179   3
  -5   0   8 20.1281 4.19581   2
  -5   0   8 29.1133 5.11054   2
  -5   0   8 27.0918 10.1088   1
   4   0  -8 4.87901 3.23760   2
   4   0  -8 8.10202 3.77174   3
  -4   0   8 4.26636 3.25388   2
  -4   0   8 0.21874 6.99721   1
  -4   0   8 1.35473 7.52558   1
  -4   0   8 5.87423 3.41519   2
   3   0  -8 91.5507 6.63213   2
   3   0  -8 95.9949 6.70586   3
   3   0  -8 93.4127 6.39075   2
  -3   0   8 87.3078 13.6025   1
  -3   0   8 92.9140 6.65468   2
  -3   0   8 79.4998 17.8030   1
  -3   0   8 92.8707 6.69438   2
   2   0  -8 199.542 9.14848   2
   2   0  -8 197.122 7.77543   3
   2   0  -8 203.619 8.77832   2
  -2   0   8 210.878 19.9688   1
  -2   0   8 208.409 9.04132   2
   1   0  -8 43.7954 3.16339   3
   1   0  -8 49.3380 4.88106   2
   1   0  -8 46.3064 4.93276   2
   1   0  -8 33.6200 8.91740   1
  -1   0   8 41.3750 4.93394   2
  -1   0   8 32.4013 8.47123   1
  -1   0   8 44.0409 5.02847   2
   0   0  -8 16.8185 3.53766   2
   0   0  -8 15.7613 3.67721   2
   0   0  -8 21.5367 7.00010   1
   0   0   8 13.8463 3.27384   2
   0   0   8 13.3870 7.64554   1
   0   0   8 14.4065 3.56675   2
  -1   0  -8 95.9419 6.32393   2
  -1   0  -8 96.4837 6.47559   2
  -1   0  -8 99.8685 15.4780   1
   1   0   8 111.992 16.0571   1
   1   0   8 97.5916 7.10511   2
   1   0   8 96.1045 6.76219   2
  -2   0  -8 8.92627 6.36008   1
  -2   0  -8 6.44378 3.76165   2
  -2   0  -8 3.43040 2.78369   2
   2   0   8 -1.7916 5.91535   1
   2   0   8 3.81154 3.78100   2
   2   0   8 6.73520 2.71443   2
  -3   0  -8 0.56857 3.58610   2
  -3   0  -8 15.5510 8.96469   1
   3   0   8 -4.4529 6.74512   1
   3   0   8 5.75821 4.20300   2
  -4   0  -8 17.8875 12.7010   1
  -4   0  -8 29.8434 5.60498   2
  -4   0  -8 32.0549 5.36649   2
   4   0   8 29.6165 5.74317   2
   4   0   8 24.0463 10.5158   1
   4   0   8 37.7323 6.01456   2
  -5   0  -8 -3.6713 3.93335   2
   5   0   8 1.85762 3.46067   2
   5   0   8 1.93367 4.03090   2
   5   0   8 16.6623 18.7345   1
  -6   0  -8 96.4002 9.58313   2
   6   0   8 64.6695 13.5058   2
   6   0   8 99.0642 9.30380   2
  -7   0  -8 -2.6423 5.39088   2
   7   0   8 -1.5829 4.91122   2
   7   0   8 -0.8797 1.22993   3
   7   0   8 -9.5650 4.47462   2
  -8   0  -8 10.1006 6.30277   2
   8   0   8 4.82953 5.29174   2
   8  -1  -8 42.9875 8.36192   3
  -8   1   8 27.8972 5.73481   2
  -8   1   8 39.5363 7.67604   2
   7  -1  -8 56.7497 8.18572   3
   7  -1  -8 37.3359 5.94537   2
  -7   1   8 44.9903 6.87095   2
  -7   1   8 27.3908 5.04180   2
   6  -1  -8 0.81587 3.49623   2
   6  -1  -8 3.95544 4.22927   3
  -6   1   8 1.18707 3.09995   2
  -6   1   8 28.2255 16.1229   1
  -6   1   8 3.92090 4.16589   2
   5  -1  -8 1.21767 3.72219   3
   5  -1  -8 0.84947 3.05977   2
  -5   1   8 1.07739 3.07785   2
  -5   1   8 5.23211 8.95274   1
  -5   1   8 -1.2034 3.39847   2
  -5   1   8 4.38759 3.07709   3
   4  -1  -8 27.8110 4.64422   2
   4  -1  -8 23.7875 6.14477   2
   4  -1  -8 31.8108 5.05580   3
  -4   1   8 31.4406 4.99403   2
  -4   1   8 27.8583 4.57677   3
  -4   1   8 40.8680 11.0865   1
  -4   1   8 22.5869 4.79339   2
  -4   1   8 17.7295 10.3255   1
   3  -1  -8 49.4894 5.52981   3
   3  -1  -8 52.5114 5.95134   2
  -3   1   8 53.1304 5.85590   2
  -3   1   8 45.9140 5.17892   3
  -3   1   8 41.6574 11.5975   1
  -3   1   8 45.3535 11.4875   1
  -3   1   8 58.1690 5.80886   2
   2  -1  -8 987.587 25.2220   2
   2  -1  -8 990.927 23.9642   3
   2  -1  -8 986.783 24.9267   2
  -2   1   8 940.084 48.1552   1
  -2   1   8 1052.63 25.7171   2
  -2   1   8 997.991 23.2550   3
   1  -1  -8 15.9201 3.61438   2
   1  -1  -8 20.1562 4.09024   2
   1  -1  -8 18.1905 7.07169   1
   1  -1  -8 17.3951 2.52332   3
  -1   1   8 12.8909 3.66333   2
  -1   1   8 18.7168 7.16635   1
  -1   1   8 10.3569 3.44048   2
   0  -1  -8 -2.4786 5.90533   1
   0  -1  -8 2.07668 0.97691   3
   0  -1  -8 1.65913 2.54256   2
   0  -1  -8 5.09519 2.95683   2
   0   1   8 8.43811 6.72324   1
   0   1   8 -1.1305 2.97300   2
   0   1   8 1.95709 2.55755   2
  -1  -1  -8 685.352 20.7275   2
  -1  -1  -8 738.828 41.3391   1
  -1  -1  -8 718.830 19.8227   2
   1   1   8 753.406 20.5380   2
   1   1   8 612.771 39.3605   1
  -2  -1  -8 -4.7026 2.75782   2
  -2  -1  -8 -2.0069 2.42859   2
  -2  -1  -8 -4.0521 5.51714   1
   2   1   8 1.36157 3.81234   2
   2   1   8 5.76387 6.70736   1
  -3  -1  -8 14.8244 4.29063   2
  -3  -1  -8 22.7280 4.56256   2
  -3  -1  -8 29.0941 10.6798   1
   3   1   8 25.4512 5.01559   2
   3   1   8 16.8476 9.02143   1
   3   1   8 20.2547 4.91371   2
  -4  -1  -8 -0.0321 3.41205   2
  -4  -1  -8 4.08800 7.78689   1
  -4  -1  -8 2.25940 3.86089   2
   4   1   8 -1.8452 2.95266   2
   4   1   8 6.27914 4.72542   2
  -5  -1  -8 114.094 22.0848   1
  -5  -1  -8 131.961 10.5107   2
  -5  -1  -8 136.374 9.60450   2
   5   1   8 136.587 10.1540   2
   5   1   8 130.353 9.11425   2
   5   1   8 108.338 22.7044   1
  -6  -1  -8 -4.6995 4.10349   2
   6   1   8 2.70435 1.05853   3
   6   1   8 0.97182 0.94724   3
   6   1   8 43.3352 23.3961   1
   6   1   8 2.99135 4.64686   2
   6   1   8 0.83458 3.48838   2
  -7  -1  -8 8.93231 6.15390   2
   7   1   8 4.12658 1.72492   3
   7   1   8 15.8827 5.45118   2
   7   1   8 2.16931 1.63521   3
  -8  -1  -8 8.47327 5.47211   2
   8   1   8 8.49254 5.19563   2
   8  -2  -8 -4.5416 5.11984   3
  -8   2   8 5.51566 5.07000   2
   7  -2  -8 4.12920 3.88417   2
   7  -2  -8 5.78340 4.86146   3
  -7   2   8 9.24691 5.14931   2
   6  -2  -8 26.2505 5.90601   2
  -6   2   8 19.9232 19.0867   1
  -6   2   8 20.9750 5.61110   2
   5  -2  -8 120.918 8.79676   2
   5  -2  -8 142.628 9.84926   3
  -5   2   8 125.080 9.32328   2
   4  -2  -8 27.6984 4.87890   2
   4  -2  -8 34.4781 5.43168   3
   4  -2  -8 37.1174 5.65050   2
  -4   2   8 39.6757 6.28138   2
  -4   2   8 26.2541 4.74380   3
  -4   2   8 16.4737 9.65079   1
   3  -2  -8 226.170 9.93932   3
   3  -2  -8 246.649 12.5525   2
   3  -2  -8 228.225 10.9246   2
  -3   2   8 163.917 22.0826   1
  -3   2   8 234.883 11.3864   2
  -3   2   8 217.181 9.81591   3
   2  -2  -8 306.206 12.4132   2
   2  -2  -8 302.741 10.6188   3
   2  -2  -8 301.187 12.1305   2
  -2   2   8 300.935 12.6722   2
  -2   2   8 278.675 26.8119   1
  -2   2   8 292.655 10.6103   3
   1  -2  -8 0.34278 2.88310   2
   1  -2  -8 -0.6087 1.84493   3
   1  -2  -8 6.32620 3.13562   2
   1  -2  -8 -2.4506 5.86118   1
  -1   2   8 -0.3923 1.92329   3
  -1   2   8 -0.0485 3.22590   2
  -1   2   8 1.47728 6.66326   1
   0  -2  -8 -0.2323 2.89415   2
   0  -2  -8 -2.7641 2.58509   2
   0  -2  -8 -0.1405 1.29026   3
   0  -2  -8 -2.8742 4.75640   1
   0   2   8 -2.3213 3.79640   1
   0   2   8 0.41870 1.44150   3
   0   2   8 -2.5147 3.06223   2
  -1  -2  -8 -4.4453 2.54189   2
  -1  -2  -8 3.10794 3.26259   2
  -1  -2  -8 4.95033 6.14880   1
   1   2   8 -0.1304 2.87611   2
   1   2   8 0.98245 5.69598   1
   1   2   8 4.19016 3.24357   2
  -2  -2  -8 0.82679 5.40143   1
  -2  -2  -8 -1.9156 2.85575   2
  -2  -2  -8 -0.7475 2.70783   2
   2   2   8 -1.1807 2.61879   2
   2   2   8 -0.9010 3.21335   2
  -3  -2  -8 9.51733 7.04305   1
  -3  -2  -8 2.95076 3.33269   2
  -3  -2  -8 2.35033 3.29086   2
   3   2   8 2.65947 6.66255   1
   3   2   8 2.98692 3.24679   2
   3   2   8 5.31543 4.04039   2
  -4  -2  -8 2.41900 9.33940   1
  -4  -2  -8 2.01034 3.78047   2
  -4  -2  -8 10.1774 3.73009   2
   4   2   8 -8.2087 7.92252   1
   4   2   8 3.23509 3.47994   2
   4   2   8 14.2584 5.37258   2
  -5  -2  -8 62.1668 8.02765   2
  -5  -2  -8 62.6852 7.75748   2
  -5  -2  -8 54.8084 16.8311   1
   5   2   8 72.8625 8.33692   2
   5   2   8 79.6668 7.65936   2
  -6  -2  -8 81.1793 8.21624   2
  -6  -2  -8 135.392 24.0194   1
   6   2   8 83.6611 8.84580   2
   6   2   8 81.3035 9.72841   2
   6   2   8 89.6266 4.05075   3
   6   2   8 71.0941 21.8396   1
   6   2   8 91.9340 4.07472   3
  -7  -2  -8 4.29015 5.51627   2
   7   2   8 4.56017 4.69442   2
   7   2   8 2.02694 2.35496   3
   7   2   8 10.1320 2.54266   3
   7   2   8 10.5693 5.03370   2
  -8  -2  -8 -0.8165 4.98551   2
   8   2   8 15.1091 5.83155   2
   8   2   8 13.6449 2.89574   3
   8   2   8 11.1498 6.13597   2
  -9  -2  -8 -1.1826 5.47355   2
   9   2   8 -0.9706 2.71841   3
   9   2   8 11.2106 6.10008   2
  -8   3   8 -2.4763 4.69390   2
   7  -3  -8 15.1017 5.88902   3
   7  -3  -8 12.8534 5.00944   2
  -7   3   8 18.1486 5.18367   2
  -7   3   8 6.41661 5.17695   2
   6  -3  -8 20.7249 5.21471   2
   6  -3  -8 13.9045 5.14587   3
  -6   3   8 17.0839 4.57255   2
  -6   3   8 16.6682 5.23759   2
   5  -3  -8 67.7072 7.94358   2
   5  -3  -8 63.1070 7.72904   3
  -5   3   8 75.2671 7.07097   2
  -5   3   8 65.5059 8.44738   2
  -5   3   8 39.3393 14.5835   1
   4  -3  -8 -1.5861 3.25133   2
   4  -3  -8 -3.0855 3.16506   2
   4  -3  -8 0.02880 3.33570   3
  -4   3   8 4.86674 3.52396   2
  -4   3   8 2.32416 3.64324   3
  -4   3   8 12.2319 10.6754   1
  -4   3   8 -0.5392 3.96263   2
   3  -3  -8 176.725 9.84905   2
   3  -3  -8 173.227 10.2015   2
   3  -3  -8 194.319 9.62300   3
  -3   3   8 174.439 21.7718   1
  -3   3   8 178.986 9.43821   3
  -3   3   8 177.942 9.99888   2
  -3   3   8 160.445 22.2001   1
  -3   3   8 182.504 10.4029   2
   2  -3  -8 1161.87 28.8677   2
   2  -3  -8 1078.54 28.4827   2
   2  -3  -8 1101.37 26.4414   3
  -2   3   8 1104.37 28.5046   2
  -2   3   8 1005.47 55.1691   1
  -2   3   8 1119.15 26.4717   3
  -2   3   8 1062.62 55.7407   1
  -2   3   8 1139.89 29.2224   2
   1  -3  -8 13.2100 3.84370   2
   1  -3  -8 10.5742 2.84217   3
   1  -3  -8 12.4685 7.96411   1
   1  -3  -8 13.9258 3.96124   2
  -1   3   8 12.8402 3.37351   3
  -1   3   8 8.20218 3.68312   2
  -1   3   8 19.0669 4.36982   2
  -1   3   8 20.4934 9.85449   1
   0  -3  -8 2.06529 1.78853   3
   0  -3  -8 -1.1712 2.78289   2
   0  -3  -8 -4.6972 5.63369   1
   0  -3  -8 -0.3550 2.86220   2
   0   3   8 3.73552 5.51737   1
   0   3   8 2.31293 2.29743   3
   0   3   8 2.29963 2.93045   2
   0   3   8 0.20961 3.42657   2
  -1  -3  -8 128.063 4.69147   3
  -1  -3  -8 131.267 8.13271   2
  -1  -3  -8 163.663 19.0616   1
  -1  -3  -8 134.458 8.03051   2
   1   3   8 128.435 5.00345   3
   1   3   8 142.368 8.91123   2
   1   3   8 127.579 19.0937   1
   1   3   8 134.598 7.94122   2
  -2  -3  -8 493.549 35.8238   1
  -2  -3  -8 450.665 15.5226   2
  -2  -3  -8 464.977 15.9128   2
   2   3   8 463.275 16.3549   2
   2   3   8 395.249 33.4575   1
   2   3   8 437.685 15.4859   2
   2   3   8 457.492 9.66680   3
  -3  -3  -8 241.963 26.3492   1
  -3  -3  -8 238.283 11.3485   2
  -3  -3  -8 247.497 11.5443   2
   3   3   8 239.269 26.3986   1
   3   3   8 264.675 12.3606   2
   3   3   8 253.031 11.6075   2
  -4  -3  -8 48.0784 6.84302   2
  -4  -3  -8 63.1704 15.6481   1
  -4  -3  -8 46.9008 6.22649   2
   4   3   8 44.0459 7.00268   2
   4   3   8 28.9576 12.1094   1
   4   3   8 42.0027 6.25173   2
   4   3   8 42.6672 2.37628   3
   4   3   8 43.3196 2.10590   3
  -5  -3  -8 27.9829 6.30263   2
  -5  -3  -8 29.3451 5.54210   2
  -5  -3  -8 15.8526 11.2633   1
   5   3   8 28.9239 2.98500   3
   5   3   8 33.0680 6.79524   2
   5   3   8 27.6458 2.46118   3
   5   3   8 37.3094 6.33145   2
   5   3   8 18.5895 13.1076   1
  -6  -3  -8 65.0526 7.23133   2
  -6  -3  -8 71.1878 19.8508   1
   6   3   8 36.1098 16.9951   1
   6   3   8 72.6881 4.58484   3
   6   3   8 64.2952 7.55019   2
   6   3   8 76.3089 9.00438   2
   6   3   8 73.6520 4.22177   3
  -7  -3  -8 23.2771 17.4690   1
  -7  -3  -8 4.60193 3.87106   2
  -7  -3  -8 7.32599 5.57037   2
   7   3   8 -1.7445 18.1911   1
   7   3   8 -0.3037 3.06552   3
   7   3   8 -0.6459 3.06430   3
   7   3   8 1.54008 4.71132   2
   7   3   8 -4.6535 3.56712   2
  -8  -3  -8 2.11534 5.21855   2
   8   3   8 10.0119 5.85462   2
   8   3   8 -4.0333 6.11244   2
   8   3   8 7.51976 2.72776   3
  -9  -3  -8 13.5446 6.18857   2
   9   3   8 -1.3678 5.26196   2
   9   3   8 2.18489 2.94524   3
   7  -4  -8 1.20811 5.34127   3
   7  -4  -8 3.60370 4.40864   2
  -7   4   8 6.74525 7.00899   2
  -7   4   8 -1.3031 5.15513   2
   6  -4  -8 8.96318 4.92063   3
   6  -4  -8 14.6245 5.23087   2
  -6   4   8 4.15816 4.63995   2
  -6   4   8 7.93852 4.51141   2
   5  -4  -8 51.8104 7.37072   3
   5  -4  -8 67.4849 8.66656   2
  -5   4   8 52.1797 7.06968   2
  -5   4   8 47.0680 7.32879   2
  -5   4   8 41.6723 17.0227   1
   4  -4  -8 11.6948 4.56513   3
   4  -4  -8 22.3328 4.75078   2
   4  -4  -8 11.2538 4.38536   2
  -4   4   8 2.87894 9.93373   1
  -4   4   8 8.88017 4.71601   2
  -4   4   8 15.7958 4.84116   3
  -4   4   8 15.8015 12.2208   1
  -4   4   8 13.9439 4.46539   2
   3  -4  -8 45.0829 5.86943   3
   3  -4  -8 51.9062 6.92211   2
   3  -4  -8 39.7393 6.05491   2
  -3   4   8 35.3043 6.08398   2
  -3   4   8 39.8449 6.21872   2
  -3   4   8 54.7497 6.64898   3
  -3   4   8 18.9820 13.7914   1
  -3   4   8 29.8817 10.4492   1
   2  -4  -8 203.252 9.65249   3
   2  -4  -8 207.482 11.2980   2
   2  -4  -8 182.276 10.2274   2
  -2   4   8 221.199 24.8936   1
  -2   4   8 209.617 24.1499   1
  -2   4   8 193.738 10.8634   2
  -2   4   8 185.416 9.47382   3
  -2   4   8 185.188 10.3060   2
   1  -4  -8 19.5563 9.52228   1
   1  -4  -8 21.8835 4.58878   2
   1  -4  -8 29.5424 5.20169   2
  -1   4   8 11.2851 6.40592   1
  -1   4   8 20.3424 4.83625   2
  -1   4   8 20.1097 4.89227   2
  -1   4   8 26.1909 4.23845   3
   0  -4  -8 84.9004 7.03907   2
   0  -4  -8 105.883 16.8778   1
   0  -4  -8 86.8074 5.39560   3
   0  -4  -8 85.2497 6.98347   2
   0   4   8 82.7145 6.85157   2
   0   4   8 78.9642 5.45355   3
   0   4   8 92.5081 7.53692   2
   0   4   8 93.3169 15.8038   1
  -1  -4  -8 4.80857 6.90188   1
  -1  -4  -8 7.34650 4.01977   2
  -1  -4  -8 12.4747 3.90691   2
  -1  -4  -8 10.4938 2.35170   3
   1   4   8 9.14243 3.97678   2
   1   4   8 10.5262 3.65802   2
   1   4   8 10.9270 2.38534   3
   1   4   8 2.29940 7.26405   1
  -2  -4  -8 153.622 8.75894   2
  -2  -4  -8 132.906 8.65244   2
  -2  -4  -8 114.145 17.8786   1
   2   4   8 136.464 5.23886   3
   2   4   8 138.545 9.02414   2
   2   4   8 126.217 18.4661   1
   2   4   8 132.143 8.44577   2
  -3  -4  -8 -1.2349 3.12536   2
  -3  -4  -8 2.38229 7.73616   1
  -3  -4  -8 3.70542 3.77552   2
   3   4   8 0.57548 1.32742   3
   3   4   8 1.50720 3.39581   2
   3   4   8 1.21138 4.25837   2
   3   4   8 11.5330 7.33111   1
  -4  -4  -8 4.35297 3.59422   2
  -4  -4  -8 1.48034 3.69240   2
  -4  -4  -8 -11.272 7.03813   1
   4   4   8 0.21839 1.31496   3
   4   4   8 8.82399 8.40856   1
   4   4   8 0.53786 1.82540   3
   4   4   8 -4.5685 3.08084   2
   4   4   8 0.65109 3.96412   2
  -5  -4  -8 129.564 21.5030   1
  -5  -4  -8 98.0318 8.38412   2
  -5  -4  -8 99.4155 9.11142   2
   5   4   8 112.926 14.0323   2
   5   4   8 126.894 21.1809   1
   5   4   8 108.405 9.39330   2
   5   4   8 95.0350 4.84948   3
   5   4   8 105.710 5.66790   3
  -6  -4  -8 7.06437 11.3433   1
  -6  -4  -8 9.87299 4.12263   2
  -6  -4  -8 18.6598 5.72728   2
   6   4   8 11.2269 3.61646   3
   6   4   8 14.9728 5.40465   2
   6   4   8 37.5713 15.7365   1
   6   4   8 3.50568 4.11320   2
   6   4   8 11.4950 2.41217   3
  -7  -4  -8 212.977 13.4761   2
  -7  -4  -8 179.829 11.2594   2
  -7  -4  -8 219.176 33.1597   1
   7   4   8 189.848 8.81140   3
   7   4   8 211.432 35.8833   1
   7   4   8 195.978 8.31386   3
   7   4   8 193.332 12.3185   2
   7   4   8 200.101 13.4754   2
  -8  -4  -8 118.039 30.1906   1
  -8  -4  -8 177.295 11.4658   2
  -8  -4  -8 221.133 14.8779   2
   8   4   8 181.273 9.29430   3
   8   4   8 167.729 8.08190   3
   8   4   8 173.926 12.3082   2
   8   4   8 174.018 13.8038   2
   9   4   8 -1.1985 3.13535   3
   7  -5  -8 2.06796 5.26784   3
   7  -5  -8 -3.9936 4.74224   2
  -7   5   8 15.4770 6.30131   2
  -6   5   8 1.78842 4.53121   2
   5  -5  -8 3.93254 7.24073   2
   5  -5  -8 -0.5586 3.90730   3
  -5   5   8 -2.9492 15.6667   1
  -5   5   8 -1.5297 3.95979   2
  -5   5   8 -1.1845 4.44175   2
   4  -5  -8 0.22245 3.32879   2
   4  -5  -8 -1.0962 3.24031   3
   4  -5  -8 -1.8546 3.59258   2
  -4   5   8 -2.4910 3.47957   2
  -4   5   8 -2.5024 9.62320   1
  -4   5   8 -0.4404 3.90629   2
  -4   5   8 16.7722 11.2922   1
   3  -5  -8 119.568 8.78852   3
   3  -5  -8 101.949 8.45999   2
   3  -5  -8 99.8660 8.50384   2
  -3   5   8 95.7223 8.92096   2
  -3   5   8 100.167 8.17944   3
  -3   5   8 84.3166 21.1740   1
  -3   5   8 118.370 8.81102   2
  -3   5   8 96.8688 19.6897   1
   2  -5  -8 8.55707 4.17957   2
   2  -5  -8 9.86442 3.76029   3
   2  -5  -8 7.06732 3.71241   2
  -2   5   8 7.39262 4.43928   2
  -2   5   8 3.87961 8.40126   1
  -2   5   8 14.4394 4.22317   3
  -2   5   8 10.2672 8.78974   1
  -2   5   8 4.12516 4.04853   2
   1  -5  -8 260.850 10.6725   3
   1  -5  -8 261.920 12.1939   2
   1  -5  -8 252.298 11.8748   2
  -1   5   8 249.834 10.4743   3
  -1   5   8 241.792 12.6860   2
  -1   5   8 239.595 26.8429   1
   0  -5  -8 33.1086 11.0363   1
   0  -5  -8 26.4796 5.16506   2
   0  -5  -8 31.0584 5.34250   2
   0   5   8 27.8011 5.23629   2
   0   5   8 32.8584 5.66398   2
   0   5   8 33.2106 4.27831   3
   0   5   8 28.7537 10.1834   1
  -1  -5  -8 -1.1355 3.10802   2
  -1  -5  -8 2.28845 2.22529   3
  -1  -5  -8 -5.3793 2.57197   2
   1   5   8 0.19312 1.92674   3
   1   5   8 -8.9051 7.17099   1
   1   5   8 5.18090 3.76760   2
   1   5   8 0.51729 3.43022   2
  -2  -5  -8 7.30513 3.65973   2
  -2  -5  -8 3.21027 2.11843   3
  -2  -5  -8 1.54048 3.42180   2
  -2  -5  -8 -10.248 7.73771   1
   2   5   8 0.96629 4.32573   2
   2   5   8 6.51812 2.21339   3
   2   5   8 7.87073 10.5615   1
   2   5   8 10.2645 4.02972   2
  -3  -5  -8 511.949 17.7712   2
  -3  -5  -8 526.168 42.9581   1
  -3  -5  -8 544.651 18.4744   2
   3   5   8 498.765 18.4639   2
   3   5   8 534.286 13.6981   3
   3   5   8 538.186 18.5439   2
  -4  -5  -8 32.4547 5.88228   2
  -4  -5  -8 47.4509 6.87575   2
  -4  -5  -8 30.0487 12.1470   1
   4   5   8 52.7038 15.1153   1
   4   5   8 43.3147 3.92005   3
   4   5   8 49.2847 7.80492   2
   4   5   8 47.8835 6.95252   2
  -5  -5  -8 76.0692 18.3095   1
  -5  -5  -8 51.0824 6.94937   2
  -5  -5  -8 58.5124 7.88136   2
   5   5   8 77.4294 7.75825   2
   5   5   8 80.5591 17.9243   1
   5   5   8 58.5916 5.29296   3
   5   5   8 60.7768 4.54752   3
   5   5   8 59.0146 7.98276   2
  -6  -5  -8 35.2516 6.80414   2
  -6  -5  -8 50.3683 6.47927   2
  -6  -5  -8 21.0864 16.0265   1
   6   5   8 15.2585 15.6743   1
   6   5   8 25.4737 5.56734   2
   6   5   8 36.3808 6.84362   2
   6   5   8 33.1708 4.03484   3
  -7  -5  -8 -4.8411 15.1321   1
  -7  -5  -8 12.4539 4.95749   2
  -7  -5  -8 25.5899 6.65358   2
   7   5   8 24.4062 5.80006   2
   7   5   8 21.5430 3.66269   3
   7   5   8 17.2653 6.48064   2
   7   5   8 23.2379 4.64885   3
   7   5   8 22.2896 17.6667   1
  -8  -5  -8 8.86497 5.55799   2
  -8  -5  -8 11.6699 22.7297   1
  -8  -5  -8 18.0395 5.57284   2
   8   5   8 14.2482 6.74474   2
   8   5   8 26.1581 5.01603   3
   8   5   8 14.8986 28.6537   1
   8   5   8 12.6213 3.52802   3
  -9  -5  -8 -10.461 4.93727   2
   9   5   8 2.80113 4.08556   3
   9   5   8 2.18529 5.25780   2
   7  -6  -8 -1.3780 5.38663   3
   6  -6  -8 2.14614 5.29786   3
   6  -6  -8 -3.2254 4.75220   2
  -6   6   8 -3.9822 4.49926   2
  -6   6   8 -6.6223 8.64253   2
   5  -6  -8 10.7530 5.48335   2
   5  -6  -8 8.56447 5.08561   3
  -5   6   8 10.2116 5.43686   2
  -5   6   8 19.9227 5.98663   2
  -5   6   8 32.1460 23.5242   1
   4  -6  -8 -0.7499 3.90239   2
   4  -6  -8 0.18111 3.27776   2
   4  -6  -8 0.03367 3.92268   3
  -4   6   8 -1.8999 3.92061   2
  -4   6   8 -0.1144 3.55429   2
  -4   6   8 3.15024 12.3384   1
  -4   6   8 -20.807 22.7431   1
   3  -6  -8 36.6686 6.12444   2
   3  -6  -8 40.4363 6.11581   3
   3  -6  -8 34.4696 6.09243   2
  -3   6   8 34.2929 6.66389   2
  -3   6   8 21.2595 16.2688   1
  -3   6   8 21.4204 13.4236   1
  -3   6   8 27.3862 6.29461   2
   2  -6  -8 24.9409 4.94640   3
   2  -6  -8 25.9746 5.50294   2
   2  -6  -8 23.5506 6.43798   2
  -2   6   8 22.7530 5.64364   2
  -2   6   8 7.63291 10.4909   1
  -2   6   8 20.4404 5.06070   2
  -2   6   8 12.1364 11.0888   1
   1  -6  -8 0.51709 3.92580   2
   1  -6  -8 4.22433 3.42832   3
   1  -6  -8 1.67136 3.52287   2
  -1   6   8 3.63943 3.00962   3
  -1   6   8 0.57672 3.79514   2
  -1   6   8 -2.7395 8.02359   1
   0  -6  -8 38.7736 12.8865   1
   0  -6  -8 32.3075 5.64417   2
   0  -6  -8 24.5424 5.29933   2
   0  -6  -8 27.8548 4.61955   3
   0   6   8 28.2471 5.42366   2
   0   6   8 28.3022 4.29274   3
   0   6   8 22.3927 5.27010   2
   0   6   8 14.0859 8.44438   1
  -1  -6  -8 10.1876 4.06196   2
  -1  -6  -8 11.1323 12.7848   1
  -1  -6  -8 11.2277 3.33712   3
  -1  -6  -8 21.0220 5.14664   2
   1   6   8 16.5621 3.23275   3
   1   6   8 10.6028 7.21712   2
   1   6   8 -3.4055 7.94504   1
   1   6   8 14.4086 4.41876   2
  -2  -6  -8 48.1728 5.93450   3
  -2  -6  -8 49.5054 6.42335   2
  -2  -6  -8 51.5343 14.9549   1
   2   6   8 44.1511 7.45289   2
   2   6   8 50.1832 4.62064   3
   2   6   8 45.9186 6.45277   2
   2   6   8 59.4412 14.8746   1
  -3  -6  -8 67.3991 8.93742   2
  -3  -6  -8 78.5159 16.5874   1
  -3  -6  -8 73.0519 9.52347   2
   3   6   8 60.0158 7.56907   2
   3   6   8 79.0857 8.43087   2
   3   6   8 69.9274 5.17096   3
   3   6   8 79.1255 17.2883   1
  -4  -6  -8 40.4586 12.1939   1
  -4  -6  -8 51.2290 6.80097   2
  -4  -6  -8 54.6938 7.23235   2
   4   6   8 37.2749 14.8203   1
   4   6   8 52.3573 7.28395   2
   4   6   8 42.6185 10.6715   2
   4   6   8 50.7884 4.83485   3
  -5  -6  -8 172.588 11.1509   2
  -5  -6  -8 148.982 10.2705   2
  -5  -6  -8 187.862 32.7685   1
   5   6   8 152.046 7.88966   3
   5   6   8 166.716 11.5082   2
   5   6   8 148.009 33.8612   1
   5   6   8 159.925 11.0953   2
   5   6   8 164.420 7.78012   3
  -6  -6  -8 -15.598 12.1150   1
  -6  -6  -8 -2.9990 4.01477   2
  -6  -6  -8 5.61642 4.34218   2
   6   6   8 9.00736 13.4028   1
   6   6   8 0.45169 2.18102   3
   6   6   8 2.20953 2.97488   3
   6   6   8 -3.7929 3.65553   2
   6   6   8 0.92990 4.71912   2
  -7  -6  -8 103.198 25.3757   1
  -7  -6  -8 103.525 8.80701   2
  -7  -6  -8 103.549 10.0917   2
   7   6   8 110.113 10.6557   2
   7   6   8 49.8178 23.3467   1
   7   6   8 104.848 7.88341   3
   7   6   8 101.017 9.30891   2
   7   6   8 104.513 6.81975   3
  -8  -6  -8 167.243 12.7907   2
  -8  -6  -8 147.842 10.5753   2
   8   6   8 134.065 11.9918   2
   8   6   8 182.419 10.2678   3
   8   6   8 153.498 8.40109   3
  -9  -6  -8 -2.0564 5.51390   2
   9   6   8 -11.521 4.84355   2
   9   6   8 -3.0702 4.08151   3
   6  -7  -8 17.2025 6.13012   3
   6  -7  -8 0.19176 4.65963   2
  -6   7   8 3.72327 5.14860   2
   5  -7  -8 9.61019 5.32851   2
   5  -7  -8 -2.6156 4.67359   3
  -5   7   8 -12.634 4.84979   2
  -5   7   8 0.62103 6.42163   2
   4  -7  -8 12.7352 5.74985   2
   4  -7  -8 12.7917 5.20689   3
   4  -7  -8 19.9835 5.04349   2
  -4   7   8 3.54870 17.8668   1
  -4   7   8 27.7756 17.8793   1
  -4   7   8 8.18954 4.96723   2
  -4   7   8 13.9757 5.93454   2
   3  -7  -8 3.68019 3.63054   2
   3  -7  -8 0.46835 3.75968   3
   3  -7  -8 3.60291 3.96757   2
  -3   7   8 -3.1983 13.2034   1
  -3   7   8 -1.7143 4.14768   2
  -3   7   8 7.42679 4.27181   2
  -3   7   8 -17.504 14.6707   1
   2  -7  -8 3.24556 3.65124   2
   2  -7  -8 5.38586 4.37747   2
   2  -7  -8 9.65947 4.25639   3
  -2   7   8 1.29512 12.6157   1
  -2   7   8 8.99783 4.11277   2
  -2   7   8 15.8022 12.8108   1
  -2   7   8 12.7718 5.09206   2
   1  -7  -8 25.6380 5.72134   2
   1  -7  -8 23.2631 4.87644   3
   1  -7  -8 23.0920 5.17806   2
  -1   7   8 15.8554 11.7433   1
  -1   7   8 26.3383 5.29251   2
  -1   7   8 30.9385 11.7981   1
  -1   7   8 22.0132 5.59548   2
   0  -7  -8 90.4422 20.2832   1
   0  -7  -8 90.1910 7.15044   3
   0  -7  -8 97.4462 8.23839   2
   0  -7  -8 80.8784 8.47438   2
   0   7   8 72.8026 8.21246   2
   0   7   8 88.3785 8.06608   2
   0   7   8 88.0768 6.72001   3
  -1  -7  -8 531.165 16.4561   3
  -1  -7  -8 505.940 40.4845   1
  -1  -7  -8 476.323 25.7495   2
  -1  -7  -8 530.697 18.6697   2
   1   7   8 495.153 15.7893   3
   1   7   8 492.736 18.8001   2
   1   7   8 535.465 18.7227   2
   1   7   8 517.494 41.3741   1
  -2  -7  -8 179.365 10.9857   2
  -2  -7  -8 196.966 9.25918   3
  -2  -7  -8 189.337 10.7390   2
  -2  -7  -8 174.034 24.2154   1
   2   7   8 159.585 24.0365   1
   2   7   8 187.167 8.78351   3
   2   7   8 202.922 11.3733   2
   2   7   8 202.916 14.0998   2
  -3  -7  -8 51.3109 6.69628   2
  -3  -7  -8 57.5890 7.52013   2
  -3  -7  -8 50.5392 14.3194   1
   3   7   8 50.2836 5.12437   3
   3   7   8 53.0482 7.14262   2
   3   7   8 36.1108 14.8070   1
  -4  -7  -8 401.768 35.4997   1
  -4  -7  -8 368.637 15.5465   2
  -4  -7  -8 372.480 16.0589   2
   4   7   8 374.573 15.9627   2
   4   7   8 378.028 36.2917   1
   4   7   8 362.666 12.7139   3
  -5  -7  -8 22.4500 11.8438   1
  -5  -7  -8 27.0435 7.11553   2
  -5  -7  -8 31.0036 6.74566   2
   5   7   8 39.8661 7.20456   2
   5   7   8 44.0045 4.94354   3
   5   7   8 38.0298 6.50348   2
   5   7   8 23.9945 12.6229   1
  -6  -7  -8 35.2700 7.27688   2
  -6  -7  -8 29.1832 5.95660   2
  -6  -7  -8 10.8847 14.6853   1
   6   7   8 24.4019 4.52854   3
   6   7   8 36.6617 11.1201   2
   6   7   8 29.5137 14.4520   1
   6   7   8 27.3879 4.04428   3
  -7  -7  -8 7.00787 14.4964   1
  -7  -7  -8 18.8614 5.86494   2
  -7  -7  -8 14.4007 4.82608   2
   7   7   8 10.9293 19.2600   1
   7   7   8 13.1964 4.43071   3
   7   7   8 22.7499 6.50170   2
  -8  -7  -8 1.39894 4.24729   2
   8   7   8 4.18824 5.07862   2
   8   7   8 3.28520 3.96855   3
  -9  -7  -8 3.21194 5.59044   2
   9   7   8 8.95150 8.44545   3
   9   7   8 -0.8111 5.07124   2
   5  -8  -8 12.4567 5.97496   3
   5  -8  -8 10.8469 5.26224   2
   4  -8  -8 7.15146 4.29867   2
   4  -8  -8 9.57413 5.15299   3
   4  -8  -8 32.3774 9.51253   2
  -4   8   8 20.4811 6.76335   2
  -4   8   8 3.45452 19.7800   1
  -4   8   8 52.3104 36.4182   1
  -4   8   8 9.12532 5.72956   2
   3  -8  -8 8.22663 3.90638   2
   3  -8  -8 -0.3753 4.03630   3
   3  -8  -8 6.36488 4.26881   2
  -3   8   8 7.31433 4.52657   2
  -3   8   8 31.6075 18.7648   1
  -3   8   8 -3.1481 4.67295   2
  -3   8   8 28.2161 18.0534   1
   2  -8  -8 30.7221 6.25197   2
   2  -8  -8 15.5366 5.16405   3
   2  -8  -8 29.6753 6.25697   2
  -2   8   8 34.9175 7.34030   2
  -2   8   8 21.3122 14.0696   1
  -2   8   8 36.3955 6.07808   2
  -2   8   8 49.9455 14.8192   1
   1  -8  -8 24.7317 5.33438   2
   1  -8  -8 5.40244 4.31948   2
   1  -8  -8 10.8351 4.54486   3
  -1   8   8 8.30621 5.04724   2
  -1   8   8 1.71584 4.30121   2
  -1   8   8 12.2403 12.5383   1
   0  -8  -8 43.5052 6.48065   2
   0  -8  -8 39.1600 5.82304   3
   0  -8  -8 45.3212 6.98362   2
   0   8   8 14.0941 11.7084   1
   0   8   8 33.6670 5.12742   3
   0   8   8 42.2242 10.8731   2
  -1  -8  -8 2.66656 3.59169   2
  -1  -8  -8 5.16284 3.43491   3
  -1  -8  -8 18.0298 9.31651   1
  -1  -8  -8 4.67080 4.21057   2
   1   8   8 -4.8994 3.40853   2
   1   8   8 -5.6436 8.33232   1
   1   8   8 2.70688 2.80571   3
   1   8   8 9.19661 5.90960   2
  -2  -8  -8 9.79800 10.2127   1
  -2  -8  -8 16.3970 4.76969   2
  -2  -8  -8 15.6821 4.95412   2
  -2  -8  -8 12.1931 3.79711   3
   2   8   8 17.3781 5.70369   2
   2   8   8 26.8437 11.5565   1
   2   8   8 14.7405 5.10476   2
   2   8   8 17.7456 3.86953   3
  -3  -8  -8 -2.1234 2.95840   2
  -3  -8  -8 -0.9196 3.50472   2
  -3  -8  -8 4.55012 10.1752   1
   3   8   8 -0.4316 3.67376   2
   3   8   8 5.06051 10.9346   1
   3   8   8 4.04311 2.68352   3
   3   8   8 -0.8499 4.38490   2
  -4  -8  -8 76.9192 17.3449   1
  -4  -8  -8 84.1332 7.84134   2
  -4  -8  -8 77.3515 8.22819   2
   4   8   8 84.2095 8.77297   2
   4   8   8 39.0848 15.9377   1
   4   8   8 81.0810 8.04237   2
   4   8   8 77.9603 6.34395   3
  -5  -8  -8 -0.2228 4.00063   2
  -5  -8  -8 10.8559 12.3454   1
  -5  -8  -8 3.95093 3.80232   2
   5   8   8 -4.1308 4.22784   2
   5   8   8 -11.817 9.80675   1
   5   8   8 2.82200 2.84969   3
  -6  -8  -8 3.77254 4.48433   2
  -6  -8  -8 -0.1187 3.52618   2
   6   8   8 -2.2271 2.55162   3
   6   8   8 -17.193 13.2358   1
   6   8   8 6.97150 5.42698   2
  -7  -8  -8 7.22544 6.97362   2
  -7  -8  -8 0.80843 4.00307   2
  -7  -8  -8 16.0679 20.2260   1
   7   8   8 5.11936 3.97238   3
   7   8   8 2.99323 8.12421   2
   7   8   8 37.3969 19.7816   1
  -8  -8  -8 14.8029 5.63121   2
  -8  -8  -8 1.94551 4.57008   2
   8   8   8 7.40713 4.80490   3
   8   8   8 11.7389 6.24597   2
  -9  -8  -8 4.77822 5.43177   2
   9   8   8 15.0456 5.36751   3
   9   8   8 6.44409 5.51672   2
   5  -9  -8 18.6211 6.05131   2
   5  -9  -8 30.6973 7.48004   3
  -5   9   8 14.7796 6.73876   2
   4  -9  -8 3.38902 4.98785   3
   4  -9  -8 0.56544 4.58587   2
  -4   9   8 1.25051 5.28329   2
   3  -9  -8 22.5038 6.31995   2
   3  -9  -8 40.1058 7.21306   3
   3  -9  -8 35.3795 6.32879   2
  -3   9   8 13.7301 24.2070   1
  -3   9   8 16.0337 6.01424   2
  -3   9   8 53.6904 25.9539   1
   2  -9  -8 0.73409 4.16298   3
   2  -9  -8 10.2431 5.02732   2
   2  -9  -8 6.10323 4.22029   2
  -2   9   8 -11.734 16.2211   1
  -2   9   8 11.8155 18.3655   1
  -2   9   8 12.8007 5.63694   2
  -2   9   8 3.57103 4.52571   2
   1  -9  -8 -5.9594 3.71598   2
   1  -9  -8 -5.9250 3.15558   3
   1  -9  -8 -0.1643 3.85000   2
  -1   9   8 -8.7543 14.1702   1
  -1   9   8 2.78417 4.46128   2
  -1   9   8 14.8169 17.4981   1
   0  -9  -8 3.08649 3.97331   2
   0  -9  -8 -4.5856 3.34726   3
   0  -9  -8 0.96430 3.99682   2
   0   9   8 -0.7981 8.05090   2
   0   9   8 -13.672 11.0915   1
   0   9   8 13.9361 11.3400   1
  -1  -9  -8 9.79728 4.03473   2
  -1  -9  -8 -3.7062 11.1985   1
  -1  -9  -8 -3.0850 3.14592   3
  -1  -9  -8 4.02956 4.52471   2
   1   9   8 5.10233 3.75557   3
   1   9   8 -17.260 9.45928   1
   1   9   8 2.50421 3.94535   2
  -2  -9  -8 20.8375 4.49421   3
  -2  -9  -8 34.0646 11.9736   1
  -2  -9  -8 20.0586 5.34874   2
  -2  -9  -8 27.2520 5.49427   2
   2   9   8 25.1757 5.66183   2
   2   9   8 22.5538 14.2847   1
   2   9   8 24.9973 5.93942   2
   2   9   8 31.5057 5.12217   3
  -3  -9  -8 73.7859 7.21481   3
  -3  -9  -8 81.2338 7.95479   2
  -3  -9  -8 94.9182 8.57674   2
   3   9   8 87.4066 6.95924   3
   3   9   8 74.4091 8.58460   2
   3   9   8 54.0617 17.0674   1
  -4  -9  -8 9.77224 3.91611   2
  -4  -9  -8 14.6531 13.0588   1
  -4  -9  -8 14.7224 5.28038   2
   4   9   8 7.18230 4.35053   2
   4   9   8 11.2049 3.51765   3
   4   9   8 8.87239 11.2121   1
   4   9   8 2.59510 4.56305   2
  -5  -9  -8 14.3376 14.9334   1
  -5  -9  -8 6.43465 4.77605   2
  -5  -9  -8 7.38024 4.20635   2
   5   9   8 9.03201 3.19068   3
   5   9   8 3.20261 4.73403   2
   5   9   8 15.4507 12.4490   1
  -6  -9  -8 0.67452 17.2232   1
  -6  -9  -8 2.04588 4.54339   2
  -6  -9  -8 -5.6995 3.37327   2
   6   9   8 3.67125 4.53222   2
   6   9   8 27.3025 17.9517   1
  -7  -9  -8 6.13171 4.37797   2
  -7  -9  -8 5.69800 4.20434   2
   7   9   8 9.03598 4.73673   3
   7   9   8 9.23506 5.98488   2
  -8  -9  -8 6.93272 5.21593   2
  -8  -9  -8 23.1372 5.66409   2
   8   9   8 9.65634 4.98002   3
   8   9   8 5.70103 6.38690   2
  -9  -9  -8 17.6358 7.15017   2
   9   9   8 10.3491 6.11061   2
   9   9   8 6.10049 4.64843   3
   4 -10  -8 4.62887 4.86766   2
   4 -10  -8 -4.5396 6.35219   3
  -4  10   8 11.9198 6.77812   2
   3 -10  -8 7.89263 5.34758   3
   3 -10  -8 6.18477 4.75108   2
  -3  10   8 0.18627 4.80200   2
   2 -10  -8 8.78535 4.92998   2
   2 -10  -8 7.69581 4.66543   3
   2 -10  -8 19.4774 5.06294   2
  -2  10   8 6.09217 5.32230   2
   1 -10  -8 7.62581 4.46349   3
   1 -10  -8 7.82725 4.17747   2
   1 -10  -8 6.17808 4.69773   2
  -1  10   8 17.9399 6.46380   2
  -1  10   8 2.75985 18.9861   1
   0 -10  -8 23.5926 6.07983   2
   0  10   8 35.5648 18.9708   1
   0  10   8 33.9038 18.3502   1
   0  10   8 16.9302 7.31379   2
  -1 -10  -8 10.7882 4.70953   3
  -1 -10  -8 12.0848 4.89486   2
  -1 -10  -8 14.9952 4.58156   2
   1  10   8 6.33374 13.8220   1
   1  10   8 5.76717 4.90176   2
  -2 -10  -8 1.75486 3.47717   3
  -2 -10  -8 2.19883 13.2050   1
  -2 -10  -8 7.70803 4.25777   2
  -2 -10  -8 -2.3976 3.12986   2
   2  10   8 6.18940 5.40409   2
   2  10   8 0.82906 14.0062   1
  -3 -10  -8 59.9320 7.39443   3
  -3 -10  -8 27.9505 15.5955   1
  -3 -10  -8 62.1290 6.81186   2
  -3 -10  -8 52.3132 7.68611   2
   3  10   8 21.4336 16.4763   1
   3  10   8 74.9387 8.53848   2
  -4 -10  -8 8.76308 5.01286   2
  -4 -10  -8 8.46100 3.97926   2
  -4 -10  -8 3.31516 14.4675   1
   4  10   8 7.85306 14.0678   1
   4  10   8 3.92960 4.66207   2
  -5 -10  -8 -3.3645 2.92957   2
  -5 -10  -8 -3.6988 11.3162   1
  -5 -10  -8 -4.1140 4.27109   2
   5  10   8 3.43170 4.68122   2
   5  10   8 1.89272 15.8820   1
  -6 -10  -8 0.50699 4.88905   2
  -6 -10  -8 4.35935 3.56924   2
   6  10   8 0.38788 4.73549   2
  -7 -10  -8 9.62263 5.11859   2
  -7 -10  -8 12.1519 5.14065   2
   7  10   8 15.7967 5.85785   2
  -8 -10  -8 20.1875 6.19452   2
   8  10   8 7.29493 6.05949   2
   8  10   8 12.0766 5.36425   3
   3 -11  -8 42.5236 10.9015   3
   3 -11  -8 45.6797 7.91601   2
  -3  11   8 42.4055 8.26732   2
   2 -11  -8 4.79448 4.98161   3
   2 -11  -8 -1.9752 5.19617   2
  -2  11   8 -0.4098 4.32743   2
   1 -11  -8 6.25877 5.10471   2
   1 -11  -8 17.7036 5.63237   3
  -1  11   8 8.19711 5.27843   2
   0 -11  -8 15.2450 5.22318   3
   0 -11  -8 5.70518 4.14747   2
   0 -11  -8 10.9232 5.89931   2
   0  11   8 10.8633 6.10550   2
  -1 -11  -8 30.9548 6.38732   3
  -1 -11  -8 26.7275 5.97779   2
   1  11   8 11.8673 5.75027   2
  -2 -11  -8 37.0213 10.3009   2
  -2 -11  -8 32.1158 5.83252   3
  -2 -11  -8 24.1062 5.07801   2
   2  11   8 27.5327 7.05226   2
   2  11   8 18.9168 21.7095   1
  -3 -11  -8 -3.2039 2.83714   2
  -3 -11  -8 2.94544 4.00171   3
  -3 -11  -8 2.00510 14.6555   1
   3  11   8 -2.2376 4.05368   2
   3  11   8 39.2373 26.4049   1
  -4 -11  -8 10.3362 4.22041   2
  -4 -11  -8 13.2526 5.88345   2
   4  11   8 11.2230 5.53228   2
  -5 -11  -8 -7.0082 3.03400   2
  -5 -11  -8 -1.0271 4.11454   2
   5  11   8 15.3555 6.11189   2
  -6 -11  -8 11.2108 5.02129   2
  -6 -11  -8 6.54820 3.93260   2
   6  11   8 -1.9715 5.07781   2
  -7 -11  -8 30.0193 6.60722   2
  -7 -11  -8 30.5374 6.19585   2
   7  11   8 24.6138 6.93662   2
  -8 -11  -8 10.6264 5.76113   2
   8  11   8 4.06040 5.48233   3
   2 -12  -8 -9.7601 4.62269   3
   2 -12  -8 9.80385 5.64470   2
  -2  12   8 11.1116 6.01959   2
   1 -12  -8 -3.3995 4.47897   2
   1 -12  -8 -4.9952 4.66423   3
  -1  12   8 -4.2079 5.68837   2
   0 -12  -8 34.2472 7.45543   2
   0 -12  -8 56.1464 8.63743   3
   0  12   8 35.6032 12.0398   2
  -1 -12  -8 36.1843 7.17352   2
  -1 -12  -8 36.3020 6.80843   2
  -1 -12  -8 40.0871 7.13357   3
   1  12   8 38.4610 7.34766   2
  -2 -12  -8 43.9229 6.84489   2
  -2 -12  -8 45.2678 7.44255   2
  -2 -12  -8 34.3233 6.53646   3
   2  12   8 39.6341 7.54161   2
  -3 -12  -8 2.51999 3.58682   2
  -3 -12  -8 7.58934 4.19061   2
  -3 -12  -8 5.59245 4.22217   3
   3  12   8 8.00672 4.96601   2
  -4 -12  -8 10.6807 4.93600   2
  -4 -12  -8 29.9259 5.11057   2
   4  12   8 15.9497 5.38747   2
  -5 -12  -8 28.7408 6.48602   2
  -5 -12  -8 11.9117 4.63875   2
   5  12   8 18.4923 6.19593   2
  -6 -12  -8 8.17830 5.16347   2
  -6 -12  -8 13.1625 4.55051   2
   6  12   8 2.33118 5.15633   2
  -7 -12  -8 1.01904 5.21174   2
   0 -13  -8 10.6840 5.33254   2
   0 -13  -8 16.1077 8.59205   3
  -1 -13  -8 10.1598 5.33681   3
  -1 -13  -8 11.4243 5.35013   2
   1  13   8 11.3245 6.27845   2
  -2 -13  -8 -1.1679 4.86733   3
   2  13   8 6.17511 5.00327   2
  -3 -13  -8 33.3385 6.95163   2
  -3 -13  -8 27.8583 7.55326   2
   3  13   8 31.7591 7.43567   2
  -4 -13  -8 1.48059 5.78434   2
  -4 -13  -8 12.1386 6.09687   2
   4  13   8 19.1255 5.37616   2
  -5 -13  -8 5.96578 5.55850   2
  -6 -13  -8 18.1922 8.81622   2
   5   7  -9 14.2457 4.58167   3
   4   7  -9 8.94907 4.01927   3
   3   7  -9 -1.4715 2.90541   3
   2   7  -9 22.4621 3.58764   3
   6   6  -9 1.46961 4.72262   3
   4   6  -9 7.75242 3.69258   3
   3   6  -9 0.91191 2.86378   3
   3   6  -9 3.72430 3.26557   3
   2   6  -9 1.10876 2.35838   3
   2   6  -9 -5.4081 2.14685   3
   1   6  -9 -2.3267 2.01346   3
   1   6  -9 0.63186 2.58013   3
   2  -6   9 1.96590 2.67149   2
   2  -6   9 -0.2096 2.78550   2
   7   5  -9 30.7232 6.91701   3
   6   5  -9 -1.5356 3.96255   3
   5   5  -9 9.31321 4.43804   3
   4   5  -9 8.17964 3.95449   3
   4   5  -9 3.35551 3.42905   3
   3   5  -9 43.6345 5.09870   3
   3   5  -9 45.6919 5.42578   3
   2   5  -9 12.9941 2.99989   3
   1   5  -9 23.6863 2.78094   3
   1   5  -9 33.0435 2.97768   3
   1  -5   9 6.17235 2.66864   2
   1  -5   9 4.94739 2.18078   2
  -2   5  -9 11.0087 4.31889   2
   2  -5   9 16.7768 3.68630   2
   2  -5   9 15.3287 3.75728   2
   3  -5   9 0.86112 3.53702   2
   3  -5   9 2.97334 3.30122   2
   4  -5   9 18.1405 5.05113   2
   4  -5   9 19.8251 5.42606   2
   7   4  -9 -4.7375 4.53351   3
   6   4  -9 25.1334 5.90844   3
   5   4  -9 -2.0262 3.78437   3
   4   4  -9 7.60276 3.49165   3
   4   4  -9 18.1883 4.31797   3
   3   4  -9 4.49439 2.75307   3
   3   4  -9 8.32440 3.23481   3
   2   4  -9 149.832 8.99051   3
   1   4  -9 34.0452 2.91549   3
   1   4  -9 40.3029 2.73189   3
   0   4  -9 7.53021 2.50909   2
   0  -4   9 5.71356 2.21516   2
   0  -4   9 4.30692 2.60137   2
  -1   4  -9 2.27325 2.83116   2
   1  -4   9 6.05378 2.89336   2
   1  -4   9 4.68386 2.60020   2
  -2   4  -9 -4.3621 3.20716   2
   2  -4   9 2.20022 3.11475   2
   2  -4   9 8.66829 3.08320   2
  -3   4  -9 18.3375 7.06604   2
   3  -4   9 7.10498 4.07634   2
   3  -4   9 11.0531 5.29047   2
   4  -4   9 88.1714 11.3809   2
   4  -4   9 80.1422 8.56866   2
   5  -4   9 102.789 11.5966   2
   7   3  -9 16.6613 6.07259   3
  -7  -3   9 13.7883 2.86224   2
  -6  -3   9 14.1355 2.39724   2
  -6  -3   9 12.4546 3.88244   2
   5   3  -9 11.9734 4.59944   3
  -5  -3   9 10.6344 1.85935   2
  -5  -3   9 3.22056 7.30043   1
  -5  -3   9 11.2872 1.91028   2
   4   3  -9 2.48978 3.54597   3
  -4  -3   9 2.05761 10.0341   1
  -4  -3   9 2.10050 1.10281   2
  -4  -3   9 4.09705 1.19078   2
   3   3  -9 210.207 9.08670   3
   3   3  -9 193.642 8.65312   3
  -3  -3   9 199.152 5.34034   2
  -3  -3   9 198.942 13.5296   1
  -3  -3   9 205.012 5.28036   2
   2   3  -9 145.039 6.56050   3
   2   3  -9 141.027 6.04986   2
   2   3  -9 144.371 6.35911   3
  -2  -3   9 145.838 5.28732   2
  -2  -3   9 151.081 5.23097   2
  -2  -3   9 144.123 12.9089   1
   1   3  -9 32.0210 2.23452   3
   1   3  -9 22.2150 3.27623   2
   1   3  -9 31.2474 2.18150   3
  -1  -3   9 30.5167 3.57959   2
   0   3  -9 -4.8883 2.21328   2
   0  -3   9 -0.8744 2.30606   2
   0  -3   9 -0.9325 1.99363   2
  -2   3  -9 14.9685 4.34501   2
   2  -3   9 24.2424 4.66072   2
  -3   3  -9 2.44722 3.93846   2
   3  -3   9 7.80559 3.52799   2
   3  -3   9 8.91841 4.01709   2
  -4   3  -9 34.7094 5.89301   2
   4  -3   9 64.0067 6.93147   2
   4  -3   9 42.2922 7.18505   2
   5  -3   9 2.86803 5.08786   2
   5  -3   9 9.30793 4.93091   2
   8   2  -9 -2.1314 5.39552   3
  -8  -2   9 6.28884 3.98152   2
  -8  -2   9 6.70751 4.20620   2
   7   2  -9 59.9825 8.37982   3
  -7  -2   9 55.9133 5.77907   2
  -7  -2   9 51.5390 6.21121   2
   6   2  -9 36.2896 4.92084   2
   6   2  -9 33.2973 10.3658   3
  -6  -2   9 28.3075 4.34332   2
  -6  -2   9 22.5844 3.71963   2
  -6  -2   9 12.6062 14.8877   1
   5   2  -9 9.44040 4.26023   3
   5   2  -9 12.6777 3.41952   2
  -5  -2   9 14.1278 3.13251   2
  -5  -2   9 0.05355 9.46891   1
  -5  -2   9 10.0897 2.90965   2
   4   2  -9 43.7662 4.76457   2
   4   2  -9 45.9104 5.81321   3
  -4  -2   9 41.7951 9.28337   1
  -4  -2   9 52.4150 5.55139   2
  -4  -2   9 42.2884 4.51035   2
   3   2  -9 50.8219 4.93856   2
   3   2  -9 61.1453 5.69913   3
  -3  -2   9 52.9035 4.51923   2
  -3  -2   9 45.3242 4.31548   2
  -3  -2   9 46.0138 9.47603   1
   2   2  -9 16.9657 3.29561   2
   2   2  -9 18.1259 2.86104   3
   2   2  -9 14.0370 2.80144   3
  -2  -2   9 14.8000 3.10217   2
  -2  -2   9 22.8302 3.37148   2
  -2  -2   9 19.9687 7.04162   1
   1   2  -9 39.1425 2.31029   3
   1   2  -9 39.1944 2.35470   3
  -1  -2   9 21.4386 10.5800   1
  -1  -2   9 42.8341 4.74759   2
   0   2  -9 38.5257 4.97477   2
   0  -2   9 35.8193 4.71274   2
  -1   2  -9 4.34690 3.16683   2
   1  -2   9 -0.6624 2.62286   2
   1  -2   9 -2.5585 2.79063   2
  -2   2  -9 6.05701 3.65555   2
   2  -2   9 4.43868 3.11808   2
   2  -2   9 1.62410 3.43460   2
  -3   2  -9 1.79615 3.49100   2
   3  -2   9 11.2138 3.77012   2
   3  -2   9 2.51160 3.73883   2
  -4   2  -9 4.38679 4.00673   2
   4  -2   9 -2.8128 3.93364   2
   4  -2   9 3.61006 3.38169   2
   5  -2   9 10.5549 4.07051   2
   5  -2   9 -2.0227 4.43238   2
   6  -2   9 3.02782 5.10561   2
   8   1  -9 36.8460 7.36541   3
  -8  -1   9 51.8992 7.83460   2
  -8  -1   9 55.9062 7.40733   2
   7   1  -9 42.5177 6.98440   3
  -7  -1   9 33.9839 5.22867   2
  -7  -1   9 42.3325 6.17506   2
   6   1  -9 -14.127 4.98984   3
   6   1  -9 0.39121 3.50393   2
  -6  -1   9 5.84542 3.78745   2
  -6  -1   9 -1.7886 3.01111   2
   5   1  -9 5.71610 4.00108   3
  -5  -1   9 17.2601 10.2871   1
  -5  -1   9 2.92705 3.13409   2
   4   1  -9 11.3057 3.91991   3
  -4  -1   9 7.96098 7.79751   1
  -4  -1   9 12.1827 3.56214   2
   3   1  -9 22.4359 3.88505   3
   3   1  -9 18.4977 3.74304   2
  -3  -1   9 20.2118 3.88042   2
   2   1  -9 18.6509 3.78641   2
   2   1  -9 17.1263 2.86711   3
  -2  -1   9 18.3425 3.85083   2
  -2  -1   9 14.7199 8.04702   1
  -2  -1   9 23.6152 4.36614   2
  -2  -1   9 14.3509 7.62442   1
   1   1  -9 21.7352 3.94667   2
   1   1  -9 26.4303 9.13283   1
   1   1  -9 24.0181 2.13694   3
   1   1  -9 21.2464 2.16497   3
  -1  -1   9 17.1179 8.14689   1
  -1  -1   9 23.1231 4.00959   2
  -1  -1   9 24.2929 3.83938   2
   0   1  -9 32.3387 4.58937   2
   0   1  -9 33.4451 9.88964   1
   0  -1   9 31.4230 4.59626   2
   0  -1   9 32.1988 4.58557   2
   0  -1   9 37.2221 10.8118   1
  -1   1  -9 -9.1095 6.21215   1
  -1   1  -9 -2.5998 2.60583   2
   1  -1   9 -4.8614 6.21387   1
   1  -1   9 3.75277 3.31804   2
   1  -1   9 -0.2289 2.69931   2
  -2   1  -9 4.81685 3.46709   2
   2  -1   9 6.46682 3.73678   2
   2  -1   9 -0.1621 2.74963   2
  -3   1  -9 19.2530 4.76691   2
   3  -1   9 21.9691 5.05505   2
   3  -1   9 29.4542 4.95326   2
  -4   1  -9 3.78646 4.93676   2
   4  -1   9 2.98553 4.93725   2
   4  -1   9 9.16721 3.37835   2
  -5   1  -9 2.03828 3.99472   2
   5  -1   9 -9.2590 5.56301   2
   5  -1   9 -1.7602 4.48460   2
  -6   1  -9 3.22394 4.24414   2
   6  -1   9 7.51257 5.00002   2
   6  -1   9 6.58519 4.86532   2
   7  -1   9 -0.1105 4.94610   2
   8   0  -9 41.4482 8.14186   3
  -8   0   9 22.5264 5.92590   2
   7   0  -9 2.30150 4.08263   2
   7   0  -9 -3.2560 4.03020   3
  -7   0   9 -1.6028 3.88760   2
   6   0  -9 15.4098 4.76943   2
  -6   0   9 5.91160 3.76315   2
  -6   0   9 14.3388 4.30374   2
   5   0  -9 5.32492 3.67108   3
   5   0  -9 3.12833 3.49230   2
  -5   0   9 -6.9128 9.75904   1
  -5   0   9 0.76217 3.23374   2
  -5   0   9 2.26833 2.93359   2
   4   0  -9 29.1291 4.87632   3
   4   0  -9 31.3030 5.03289   2
  -4   0   9 33.2527 5.08488   2
  -4   0   9 35.0873 11.6665   1
  -4   0   9 35.7503 5.03362   2
   3   0  -9 25.7713 4.18255   3
   3   0  -9 34.8261 4.95971   2
  -3   0   9 27.7685 4.70527   2
  -3   0   9 22.4233 9.50071   1
  -3   0   9 32.7500 10.3957   1
  -3   0   9 34.4498 4.73591   2
   2   0  -9 1.86199 2.12250   3
   2   0  -9 -3.1915 2.53289   2
  -2   0   9 -1.7918 2.73140   2
  -2   0   9 6.43165 7.34704   1
   1   0  -9 6.00996 7.48094   1
   1   0  -9 8.00052 2.79810   2
   1   0  -9 2.85304 1.44831   3
   1   0  -9 0.99483 2.68751   2
  -1   0   9 -3.0551 4.85371   1
  -1   0   9 0.53168 2.98106   2
  -1   0   9 3.06866 2.79850   2
   0   0  -9 13.4357 6.39534   1
   0   0  -9 11.5625 3.50255   2
   0   0  -9 2.31841 2.84879   2
   0   0   9 0.82397 3.10441   2
   0   0   9 2.57774 2.93885   2
   0   0   9 6.44008 7.10950   1
  -1   0  -9 33.9971 4.90690   2
  -1   0  -9 21.9544 9.10959   1
  -1   0  -9 34.0820 4.74743   2
   1   0   9 25.2221 4.82726   2
   1   0   9 38.9387 12.6388   1
   1   0   9 19.6232 4.21449   2
  -2   0  -9 7.64557 9.74952   1
  -2   0  -9 13.5324 4.18563   2
  -2   0  -9 13.5795 4.85795   2
   2   0   9 18.5873 4.16090   2
   2   0   9 16.2738 4.78498   2
   2   0   9 3.68192 8.24265   1
  -3   0  -9 8.29080 3.84110   2
   3   0   9 1.27551 2.21361   2
   3   0   9 11.1984 11.0848   1
   3   0   9 3.95781 3.89554   2
  -4   0  -9 27.4362 5.86415   2
   4   0   9 25.5145 7.82013   2
   4   0   9 30.9170 6.21531   2
  -5   0  -9 52.8032 7.45890   2
   5   0   9 50.3833 6.75956   2
   5   0   9 27.9194 7.66216   2
  -6   0  -9 6.48521 5.08547   2
   6   0   9 -5.5651 3.89835   2
   6   0   9 3.89142 4.50853   2
   7   0   9 0.90248 5.85232   2
   8  -1  -9 21.8557 9.77467   3
  -8   1   9 17.3674 5.55761   2
   7  -1  -9 33.3467 5.76499   2
   7  -1  -9 10.3673 5.23489   3
  -7   1   9 14.8135 4.70564   2
  -7   1   9 21.9437 5.92396   2
   6  -1  -9 49.8094 6.47575   2
   6  -1  -9 45.1455 7.21008   3
  -6   1   9 33.2207 5.90443   2
  -6   1   9 53.2823 6.07406   2
   5  -1  -9 71.9519 7.87207   3
   5  -1  -9 58.0762 6.65253   2
  -5   1   9 74.3651 7.07877   2
  -5   1   9 30.3552 19.5060   1
  -5   1   9 82.6412 7.76692   2
   4  -1  -9 34.0291 5.30488   3
   4  -1  -9 39.9832 5.83477   2
  -4   1   9 35.3664 5.29754   2
  -4   1   9 22.7187 16.3065   1
  -4   1   9 23.1971 4.99574   2
  -4   1   9 24.4704 4.13582   3
   3  -1  -9 22.2903 4.52722   2
   3  -1  -9 17.5499 3.84537   3
  -3   1   9 6.04449 8.48604   1
  -3   1   9 22.2515 10.7936   1
  -3   1   9 19.5438 4.61265   2
  -3   1   9 12.5497 3.39660   3
  -3   1   9 20.2898 4.30513   2
   2  -1  -9 39.0551 5.51675   2
   2  -1  -9 32.1145 4.64290   2
  -2   1   9 29.2868 5.01995   2
  -2   1   9 28.9482 9.81690   1
   1  -1  -9 148.677 8.49891   2
   1  -1  -9 139.779 5.52055   3
   1  -1  -9 153.350 34.4546   1
   1  -1  -9 137.750 8.04554   2
  -1   1   9 134.399 8.03688   2
  -1   1   9 134.181 19.0706   1
  -1   1   9 130.490 8.32505   2
   0  -1  -9 322.850 27.1300   1
   0  -1  -9 278.172 11.7633   2
   0   1   9 288.167 11.6620   2
   0   1   9 278.864 11.8491   2
   0   1   9 267.214 26.0577   1
  -1  -1  -9 20.6626 4.38751   2
  -1  -1  -9 33.1203 11.3319   1
   1   1   9 13.8504 4.17488   2
   1   1   9 17.2653 3.78936   2
  -2  -1  -9 27.3703 5.16072   2
  -2  -1  -9 21.6735 4.53223   2
   2   1   9 23.7549 5.47389   2
   2   1   9 11.1389 11.7805   1
  -3  -1  -9 163.497 10.2564   2
  -3  -1  -9 162.203 9.86147   2
  -3  -1  -9 124.048 21.3530   1
   3   1   9 161.618 9.53678   2
   3   1   9 150.286 21.7458   1
   3   1   9 143.703 10.3565   2
  -4  -1  -9 3.74864 3.94858   2
  -4  -1  -9 -7.0882 10.2445   1
   4   1   9 -4.6665 3.69324   2
   4   1   9 -1.8816 2.85787   2
   4   1   9 11.1335 10.4479   1
  -5  -1  -9 -5.6774 4.04362   2
   5   1   9 0.61367 4.15486   2
   5   1   9 4.12237 3.22368   2
  -6  -1  -9 6.86077 5.42776   2
   6   1   9 3.85820 4.07115   2
   6   1   9 -2.3231 4.19415   2
  -7  -1  -9 9.35759 7.50201   2
   7   1   9 2.20762 4.46211   2
   7   1   9 2.06230 8.60101   2
  -8  -1  -9 8.31279 5.30130   2
   8   1   9 7.49050 6.20518   2
   7  -2  -9 8.98483 4.87577   3
  -7   2   9 5.33783 4.88230   2
  -7   2   9 11.8092 4.15002   2
   6  -2  -9 3.40468 3.72625   3
  -6   2   9 4.37692 4.24185   2
  -6   2   9 3.97835 2.66488   2
   5  -2  -9 68.8526 7.57161   3
  -5   2   9 38.4048 16.3857   1
  -5   2   9 67.9680 8.29784   2
  -5   2   9 62.8752 6.39157   2
   4  -2  -9 60.8020 7.35068   2
   4  -2  -9 50.4547 6.40695   3
  -4   2   9 47.4963 5.92228   2
  -4   2   9 38.0453 12.1579   1
  -4   2   9 49.3428 6.58362   2
  -4   2   9 36.3187 6.13805   3
   3  -2  -9 303.767 11.8703   3
   3  -2  -9 323.397 15.2527   2
  -3   2   9 268.483 27.3150   1
  -3   2   9 270.663 30.1678   1
  -3   2   9 326.779 13.5658   2
  -3   2   9 319.032 12.9925   2
  -3   2   9 323.385 11.9589   3
   2  -2  -9 113.575 13.6347   2
   2  -2  -9 126.251 8.30861   2
  -2   2   9 137.452 9.22482   2
  -2   2   9 126.742 17.7801   1
  -2   2   9 123.582 6.92280   3
   1  -2  -9 2.03590 6.85305   1
   1  -2  -9 1.83011 1.99819   3
   1  -2  -9 3.27285 3.81307   2
   1  -2  -9 1.75356 3.27003   2
  -1   2   9 2.11954 2.09488   2
  -1   2   9 -1.5375 1.84294   3
  -1   2   9 -1.3687 3.13181   2
  -1   2   9 -9.1125 5.93062   1
   0  -2  -9 22.3887 4.65971   2
   0  -2  -9 16.3139 10.0569   1
   0  -2  -9 28.9175 4.98498   2
   0  -2  -9 21.7108 2.32874   3
   0   2   9 31.4520 9.88887   1
   0   2   9 22.8161 4.95942   2
  -1  -2  -9 104.699 18.4491   1
  -1  -2  -9 106.628 7.48117   2
  -1  -2  -9 101.923 7.89696   2
   1   2   9 94.2319 8.07447   2
   1   2   9 81.0558 17.2521   1
  -2  -2  -9 9.42427 7.55273   1
  -2  -2  -9 2.24384 3.46859   2
  -2  -2  -9 1.83488 3.32829   2
   2   2   9 1.36101 3.51401   2
   2   2   9 4.18940 3.73840   2
   2   2   9 3.42834 8.23407   1
  -3  -2  -9 73.8080 16.6820   1
  -3  -2  -9 75.3041 7.40628   2
   3   2   9 62.9835 7.11682   2
   3   2   9 84.3427 8.12041   2
   3   2   9 124.085 19.5076   1
  -4  -2  -9 44.7245 6.33751   2
  -4  -2  -9 48.5000 17.9335   1
  -4  -2  -9 62.2593 7.32472   2
   4   2   9 54.2902 7.67414   2
   4   2   9 65.8200 7.39256   2
  -5  -2  -9 40.5350 17.7184   1
  -5  -2  -9 29.8574 6.43426   2
   5   2   9 50.3047 7.10333   2
  -6  -2  -9 2.23936 7.10983   2
   6   2   9 -4.6939 3.47403   2
   6   2   9 0.84743 5.02408   2
  -7  -2  -9 -0.5869 5.14384   2
   7   2   9 13.3648 5.69587   2
   7   2   9 0.78256 4.55445   2
  -8  -2  -9 2.27634 5.73766   2
   8   2   9 -6.5580 5.33870   2
   7  -3  -9 -5.9271 4.55916   2
   7  -3  -9 -4.2023 4.33517   3
  -7   3   9 8.94327 5.21838   2
   6  -3  -9 44.5340 6.44690   2
   6  -3  -9 47.2312 7.20126   3
  -6   3   9 61.8445 7.54777   2
  -6   3   9 48.8530 7.59511   2
   5  -3  -9 6.14009 4.24847   2
   5  -3  -9 9.38912 4.70766   3
  -5   3   9 6.17000 5.90163   2
  -5   3   9 -6.4047 3.29397   2
  -5   3   9 -15.424 10.3784   1
   4  -3  -9 19.5634 4.75693   3
   4  -3  -9 15.7498 4.62657   2
  -4   3   9 25.3835 5.04628   2
  -4   3   9 20.9036 12.2104   1
  -4   3   9 32.7714 6.08301   2
  -4   3   9 30.8090 5.13405   3
   3  -3  -9 65.9351 6.83493   2
   3  -3  -9 60.6897 7.35079   2
   3  -3  -9 59.0101 6.36601   3
  -3   3   9 66.0471 6.69511   3
  -3   3   9 55.0392 15.0813   1
  -3   3   9 64.3002 7.22240   2
  -3   3   9 54.4856 6.12128   2
  -3   3   9 53.8813 14.4938   1
   2  -3  -9 -2.1307 2.48171   3
   2  -3  -9 -4.0360 3.16097   2
   2  -3  -9 2.57580 3.62080   2
  -2   3   9 -0.0463 4.05747   2
  -2   3   9 1.42965 3.08989   2
  -2   3   9 9.65111 7.31395   1
  -2   3   9 3.30980 7.11660   1
  -2   3   9 0.26332 2.93432   3
   1  -3  -9 261.127 26.6310   1
   1  -3  -9 201.412 10.9566   2
   1  -3  -9 238.278 13.3209   3
   1  -3  -9 226.180 11.0629   2
  -1   3   9 233.982 9.37665   3
  -1   3   9 245.051 12.0905   2
  -1   3   9 206.224 25.7628   1
  -1   3   9 226.206 10.8889   2
   0  -3  -9 22.1797 10.6466   1
   0  -3  -9 26.5244 4.93871   2
   0  -3  -9 23.0507 4.66239   2
   0  -3  -9 21.5897 2.70465   3
   0   3   9 21.6418 10.5657   1
   0   3   9 24.7154 4.85833   2
   0   3   9 23.1125 3.00724   3
   0   3   9 21.4784 4.84549   2
  -1  -3  -9 12.5398 4.35813   2
  -1  -3  -9 12.3163 4.00910   2
  -1  -3  -9 13.6001 8.93897   1
   1   3   9 21.6612 9.42586   1
   1   3   9 11.6585 1.77084   3
   1   3   9 3.40997 3.86178   2
   1   3   9 9.22760 4.03214   2
  -2  -3  -9 1.50872 3.59074   2
  -2  -3  -9 5.26651 3.31859   2
  -2  -3  -9 3.04450 8.53952   1
   2   3   9 -3.5299 3.06428   2
   2   3   9 2.23104 3.77324   2
   2   3   9 12.0237 8.62627   1
  -3  -3  -9 11.2260 9.17622   1
  -3  -3  -9 16.5601 5.16623   2
  -3  -3  -9 14.9958 4.50772   2
   3   3   9 4.90720 4.43110   2
   3   3   9 12.5541 4.08311   2
   3   3   9 0.20610 9.87440   1
  -4  -3  -9 1.13242 10.7969   1
  -4  -3  -9 9.16923 4.85777   2
  -4  -3  -9 3.08306 3.72762   2
   4   3   9 1.13859 3.61430   2
   4   3   9 10.4860 5.06937   2
   4   3   9 13.4130 10.4385   1
  -5  -3  -9 3.57319 3.86340   2
  -5  -3  -9 -1.3856 4.02726   2
  -5  -3  -9 -9.2338 13.4821   1
   5   3   9 1.17808 4.09605   2
   5   3   9 0.35092 3.55954   2
  -6  -3  -9 -9.7386 13.1714   1
   6   3   9 1.84334 4.50798   2
   6   3   9 40.9125 18.3014   1
   6   3   9 -2.3939 4.30144   2
  -7  -3  -9 8.98251 5.54439   2
   7   3   9 9.68108 5.66256   2
   7   3   9 15.6766 5.17091   2
   7   3   9 9.13542 1.63043   3
   7   3   9 5.44431 1.33727   3
  -8  -3  -9 -2.0556 4.96177   2
   8   3   9 -2.5947 5.02637   2
   7  -4  -9 6.80703 5.27344   3
  -7   4   9 3.76718 4.81666   2
   6  -4  -9 13.7079 5.30426   3
   6  -4  -9 8.54763 4.78930   2
  -6   4   9 3.03925 4.46306   2
  -6   4   9 14.6089 5.73315   2
   5  -4  -9 54.3607 7.39348   2
   5  -4  -9 60.4681 9.59472   3
  -5   4   9 73.0392 8.65825   2
  -5   4   9 64.3342 7.56234   2
   4  -4  -9 20.0360 4.77941   2
   4  -4  -9 11.9472 4.51387   3
  -4   4   9 9.34784 11.5868   1
  -4   4   9 19.6045 6.01814   2
  -4   4   9 14.0733 4.58708   2
   3  -4  -9 49.3409 6.89093   2
   3  -4  -9 39.1725 5.52527   3
   3  -4  -9 49.9531 6.97284   2
  -3   4   9 38.5795 6.34508   3
  -3   4   9 20.3032 12.4382   1
  -3   4   9 10.1414 11.8591   1
  -3   4   9 38.3057 5.70762   2
  -3   4   9 37.9691 6.39431   2
   2  -4  -9 19.4710 4.06809   3
   2  -4  -9 19.4108 4.90577   2
   2  -4  -9 17.3359 7.69474   2
  -2   4   9 22.1301 11.2167   1
  -2   4   9 16.6600 4.00536   3
  -2   4   9 16.8175 5.23082   2
  -2   4   9 14.3173 8.80756   1
  -2   4   9 17.2301 4.82702   2
   1  -4  -9 232.929 11.4797   2
   1  -4  -9 244.966 11.8141   2
   1  -4  -9 262.882 28.5644   1
   1  -4  -9 247.523 9.78864   3
  -1   4   9 258.947 12.7431   2
  -1   4   9 244.981 9.98925   3
  -1   4   9 237.902 11.6105   2
  -1   4   9 217.228 26.0091   1
   0  -4  -9 -0.5105 7.45158   1
   0  -4  -9 10.1115 2.66793   3
   0  -4  -9 2.64818 3.58288   2
   0  -4  -9 8.26818 3.72934   2
   0   4   9 8.41218 3.74042   2
   0   4   9 14.1899 8.48903   1
   0   4   9 15.9718 3.13130   3
   0   4   9 15.8934 4.57315   2
  -1  -4  -9 205.183 7.07557   3
  -1  -4  -9 211.683 10.9769   2
  -1  -4  -9 228.388 11.3504   2
  -1  -4  -9 203.253 24.0580   1
   1   4   9 208.452 7.39295   3
   1   4   9 181.787 24.2817   1
   1   4   9 220.771 10.9988   2
   1   4   9 215.069 11.2984   2
  -2  -4  -9 62.6805 6.53956   2
  -2  -4  -9 23.5724 11.4672   1
  -2  -4  -9 51.6814 6.60538   2
   2   4   9 55.4717 7.04719   2
   2   4   9 52.2728 6.33172   2
   2   4   9 50.6312 3.33434   3
   2   4   9 37.1957 12.7306   1
  -3  -4  -9 15.3875 4.96455   2
  -3  -4  -9 17.0699 4.83562   2
  -3  -4  -9 19.7655 11.0069   1
   3   4   9 12.4486 4.84871   2
   3   4   9 16.8442 1.99770   3
   3   4   9 24.6737 11.6348   1
   3   4   9 13.1664 4.70463   2
   3   4   9 21.2761 2.01745   3
  -4  -4  -9 62.6269 6.96765   2
  -4  -4  -9 73.2152 15.7294   1
  -4  -4  -9 48.4744 7.09779   2
   4   4   9 47.7530 6.78273   2
   4   4   9 29.7722 16.6127   1
   4   4   9 49.7407 2.35835   3
   4   4   9 48.2260 2.72947   3
   4   4   9 55.6488 8.35353   2
  -5  -4  -9 32.6629 6.11254   2
  -5  -4  -9 40.4013 6.91928   2
  -5  -4  -9 48.1084 15.2664   1
   5   4   9 32.5342 2.84270   3
   5   4   9 38.7534 7.77584   2
   5   4   9 29.4437 6.55815   2
   5   4   9 33.1586 14.7011   1
   5   4   9 36.9515 2.37983   3
  -6  -4  -9 44.8605 7.61284   2
  -6  -4  -9 66.8216 27.3615   1
  -6  -4  -9 38.7907 6.51076   2
   6   4   9 33.0106 6.46193   2
   6   4   9 45.3289 7.63746   2
   6   4   9 42.9857 3.55872   3
   6   4   9 49.3317 3.17814   3
  -7  -4  -9 9.67637 22.2494   1
  -7  -4  -9 20.3612 6.20277   2
   7   4   9 17.6595 6.44317   2
   7   4   9 44.0668 22.6395   1
   7   4   9 22.3816 6.07554   2
   7   4   9 13.6532 3.88476   3
   7   4   9 19.0013 2.80288   3
  -8  -4  -9 21.7879 6.36139   2
   8   4   9 13.5132 3.90218   3
   8   4   9 4.54260 8.75532   2
  -9  -4  -9 -7.3461 5.25125   2
   9   4   9 6.60319 3.15631   3
   7  -5  -9 32.5148 7.11809   3
   6  -5  -9 108.878 10.6957   2
   6  -5  -9 132.806 11.3399   3
  -6   5   9 134.106 12.3519   2
   5  -5  -9 -0.3641 3.82676   3
   5  -5  -9 -4.1572 3.54414   2
  -5   5   9 -4.5185 4.20019   2
  -5   5   9 -5.5476 4.52859   2
   4  -5  -9 21.2747 5.56502   2
   4  -5  -9 17.0390 4.88726   3
  -4   5   9 13.5913 5.26590   2
  -4   5   9 19.5862 5.29832   2
  -4   5   9 -0.6206 13.7033   1
   3  -5  -9 -4.3645 2.96294   2
   3  -5  -9 7.21334 4.09103   2
   3  -5  -9 -1.2760 3.35436   3
  -3   5   9 0.62603 3.24739   2
  -3   5   9 -0.2665 3.98769   2
  -3   5   9 -0.9169 11.5811   1
  -3   5   9 3.41482 3.63685   3
  -3   5   9 7.34733 11.2286   1
   2  -5  -9 78.6178 8.01173   2
   2  -5  -9 78.4541 6.83597   3
   2  -5  -9 82.5271 7.74626   2
  -2   5   9 76.5343 8.33822   2
  -2   5   9 66.7224 17.4539   1
  -2   5   9 96.3755 8.10098   2
  -2   5   9 59.3104 15.3877   1
  -2   5   9 74.9117 7.07902   3
   1  -5  -9 230.733 11.9646   2
   1  -5  -9 216.473 12.1132   2
   1  -5  -9 222.197 9.91815   3
  -1   5   9 211.720 9.90717   3
  -1   5   9 190.910 26.0739   1
  -1   5   9 225.234 12.2160   2
   0  -5  -9 15.2678 12.2225   1
   0  -5  -9 26.7936 4.28790   3
   0  -5  -9 38.7220 6.21428   2
   0  -5  -9 29.7792 5.35490   2
   0   5   9 28.0121 5.74384   2
   0   5   9 30.6465 5.43563   2
   0   5   9 9.02553 11.7847   1
   0   5   9 35.9669 4.58609   3
  -1  -5  -9 138.196 9.33380   2
  -1  -5  -9 125.802 8.86421   2
  -1  -5  -9 144.017 7.62013   3
   1   5   9 116.276 8.70545   2
   1   5   9 136.916 6.59385   3
   1   5   9 124.969 20.9381   1
   1   5   9 144.063 9.67504   2
  -2  -5  -9 492.941 17.8528   2
  -2  -5  -9 514.075 18.3697   2
  -2  -5  -9 513.757 40.5770   1
   2   5   9 537.785 19.0120   2
   2   5   9 521.636 13.3770   3
   2   5   9 467.967 40.6339   1
   2   5   9 516.853 18.0938   2
  -3  -5  -9 137.198 9.90065   2
  -3  -5  -9 136.744 21.5904   1
  -3  -5  -9 135.294 9.33060   2
   3   5   9 140.990 5.64888   3
   3   5   9 129.370 9.41965   2
   3   5   9 139.376 10.1922   2
   3   5   9 100.409 19.8570   1
  -4  -5  -9 24.0604 12.0752   1
  -4  -5  -9 45.1455 7.30525   2
  -4  -5  -9 57.9534 7.13827   2
   4   5   9 50.7976 7.61380   2
   4   5   9 42.1108 3.92776   3
   4   5   9 55.8403 8.26578   2
   4   5   9 53.7889 3.62141   3
   4   5   9 38.7020 15.1448   1
  -5  -5  -9 201.562 12.3086   2
  -5  -5  -9 159.928 10.6087   2
  -5  -5  -9 155.586 25.2237   1
   5   5   9 177.095 11.2075   2
   5   5   9 180.998 7.19599   3
   5   5   9 190.451 12.5734   2
   5   5   9 172.688 6.57112   3
  -6  -5  -9 5.37385 4.29865   2
  -6  -5  -9 0.32369 4.47117   2
   6   5   9 -0.1193 15.8815   1
   6   5   9 1.13095 4.83365   2
   6   5   9 8.91775 4.49018   2
   6   5   9 4.80527 2.15164   3
   6   5   9 0.57600 3.86636   3
  -7  -5  -9 17.6511 5.79227   2
  -7  -5  -9 24.5280 21.9537   1
  -7  -5  -9 9.43071 5.39259   2
   7   5   9 4.77203 5.23374   2
   7   5   9 -12.101 23.9030   1
   7   5   9 12.9379 2.62059   3
   7   5   9 7.05828 5.59586   2
   7   5   9 5.17197 4.66278   3
  -8  -5  -9 30.8883 7.71554   2
   8   5   9 23.1606 6.66718   2
  -9  -5  -9 2.47649 5.56250   2
   9   5   9 7.41646 5.38265   2
   9   5   9 2.76625 3.25133   3
   6  -6  -9 47.1319 8.34065   3
   6  -6  -9 42.3760 7.54932   2
  -6   6   9 42.3568 8.43349   2
   5  -6  -9 96.0533 9.82900   3
   5  -6  -9 94.6823 9.59384   2
  -5   6   9 82.0776 9.42021   2
  -5   6   9 105.637 11.3883   2
   4  -6  -9 2.04157 3.97832   3
  -4   6   9 40.1380 18.4591   1
  -4   6   9 -0.2946 4.34869   2
   3  -6  -9 4.99957 3.70333   2
   3  -6  -9 -4.2566 3.24799   3
  -3   6   9 -6.8188 14.2621   1
  -3   6   9 0.42586 4.45846   2
  -3   6   9 -3.5008 3.69454   2
  -3   6   9 13.9243 14.3883   1
   2  -6  -9 2.22249 3.77287   2
   2  -6  -9 0.28125 3.17251   2
   2  -6  -9 1.46579 3.53144   3
  -2   6   9 11.2672 4.31685   3
  -2   6   9 -0.5086 4.12579   2
  -2   6   9 -14.164 11.2414   1
  -2   6   9 5.64479 12.1425   1
  -2   6   9 -0.0505 3.52731   2
   1  -6  -9 88.0333 8.28114   2
   1  -6  -9 94.7758 7.82445   2
   1  -6  -9 83.4533 7.01178   3
  -1   6   9 94.5805 7.30235   3
  -1   6   9 85.9782 8.58195   2
  -1   6   9 86.1536 21.0051   1
   0  -6  -9 62.3270 7.44447   2
   0  -6  -9 62.4640 16.8090   1
   0  -6  -9 70.9479 6.13660   3
   0  -6  -9 55.1794 6.79460   2
   0   6   9 67.6705 8.03791   2
   0   6   9 69.1682 6.03379   3
   0   6   9 47.5448 14.5198   1
   0   6   9 61.4984 7.14116   2
  -1  -6  -9 148.628 9.82316   2
  -1  -6  -9 132.803 21.8704   1
  -1  -6  -9 151.214 7.71750   3
  -1  -6  -9 155.274 10.2153   2
   1   6   9 152.516 7.50383   3
   1   6   9 172.707 23.7236   1
   1   6   9 161.586 10.5667   2
   1   6   9 140.337 9.54829   2
  -2  -6  -9 -5.6497 10.0338   1
  -2  -6  -9 9.48206 3.25999   3
  -2  -6  -9 17.5556 4.59277   2
   2   6   9 -0.2212 8.91953   1
   2   6   9 11.9730 5.23070   2
   2   6   9 14.7900 5.33372   2
   2   6   9 17.0473 2.96176   3
  -3  -6  -9 513.071 18.4623   2
  -3  -6  -9 489.148 29.0654   2
  -3  -6  -9 530.236 41.7667   1
   3   6   9 493.368 19.4424   2
   3   6   9 534.773 19.5155   2
   3   6   9 440.786 40.7489   1
  -4  -6  -9 28.5297 14.5926   1
  -4  -6  -9 60.2048 7.88598   2
  -4  -6  -9 58.4009 7.74248   2
   4   6   9 51.1158 7.81145   2
   4   6   9 66.1874 18.6696   1
   4   6   9 58.7108 7.24205   2
  -5  -6  -9 9.97904 4.50051   2
  -5  -6  -9 14.8941 5.59889   2
  -5  -6  -9 6.89265 10.8512   1
   5   6   9 15.8213 5.14884   2
   5   6   9 5.69218 5.12709   2
   5   6   9 23.1113 17.5925   1
   5   6   9 11.3647 3.41072   3
   5   6   9 6.27053 2.35294   3
  -6  -6  -9 22.2654 17.9294   1
  -6  -6  -9 57.7437 8.37787   2
  -6  -6  -9 47.2345 6.86389   2
   6   6   9 41.5740 7.84775   2
   6   6   9 62.0549 7.57232   2
   6   6   9 56.9952 5.62049   3
   6   6   9 49.7893 4.55472   3
  -7  -6  -9 73.2684 9.34095   2
  -7  -6  -9 73.9638 8.47188   2
   7   6   9 68.5158 5.51654   3
   7   6   9 85.4258 6.85319   3
   7   6   9 91.6291 8.91240   2
   7   6   9 84.9426 10.0130   2
   7   6   9 85.9412 26.0894   1
  -8  -6  -9 4.51083 5.56588   2
   8   6   9 3.07717 3.87646   3
   8   6   9 0.99327 4.69559   3
   8   6   9 4.66106 5.71039   2
  -9  -6  -9 5.70312 5.42548   2
   9   6   9 7.49050 3.96890   3
   9   6   9 -8.8321 4.85826   2
   6  -7  -9 19.7390 6.70770   3
   6  -7  -9 11.3585 5.35064   2
  -6   7   9 9.54733 6.44083   2
   5  -7  -9 133.947 11.9882   3
   5  -7  -9 137.742 11.9622   2
  -5   7   9 140.866 12.6091   2
   4  -7  -9 68.9718 8.77787   3
   4  -7  -9 70.0330 8.71583   2
  -4   7   9 80.1072 8.45311   2
  -4   7   9 82.4592 9.55277   2
   3  -7  -9 6.05829 4.39340   2
   3  -7  -9 4.79390 6.87686   3
   3  -7  -9 5.89164 4.08930   2
  -3   7   9 -13.427 17.3851   1
  -3   7   9 8.14437 4.11542   2
  -3   7   9 -13.021 17.8699   1
  -3   7   9 -6.3141 4.50557   2
   2  -7  -9 3.77725 4.56011   2
   2  -7  -9 -0.9534 3.31457   3
   2  -7  -9 2.56011 4.05313   2
  -2   7   9 -2.5014 3.90160   2
  -2   7   9 3.33861 12.9577   1
  -2   7   9 -1.3905 3.79939   2
  -2   7   9 3.60470 12.3792   1
   1  -7  -9 3.00639 3.84162   2
   1  -7  -9 3.97586 3.81967   2
   1  -7  -9 -0.0480 3.35035   3
  -1   7   9 -14.985 10.3143   1
  -1   7   9 -1.7899 3.80154   2
  -1   7   9 2.20067 3.09501   3
  -1   7   9 18.2325 14.4442   1
  -1   7   9 2.57866 3.19285   2
   0  -7  -9 56.8032 6.89268   2
   0  -7  -9 54.9594 7.82286   2
   0  -7  -9 51.4844 14.8573   1
   0  -7  -9 51.2695 6.27642   3
   0   7   9 55.9198 7.98261   2
   0   7   9 57.5554 6.01848   3
   0   7   9 57.1581 7.83538   2
   0   7   9 61.1636 16.5231   1
  -1  -7  -9 74.0577 7.56762   2
  -1  -7  -9 73.2150 8.05353   2
  -1  -7  -9 61.2114 16.5854   1
  -1  -7  -9 76.6369 6.46287   3
   1   7   9 81.2181 8.16343   2
   1   7   9 67.3162 5.93771   3
   1   7   9 77.2559 8.33143   2
   1   7   9 55.1037 17.3050   1
  -2  -7  -9 469.823 14.7342   3
  -2  -7  -9 434.642 17.3121   2
  -2  -7  -9 509.747 41.8581   1
  -2  -7  -9 459.805 17.9503   2
   2   7   9 453.107 14.3112   3
   2   7   9 444.710 17.5621   2
   2   7   9 414.196 38.0742   1
   2   7   9 451.962 18.0451   2
  -3  -7  -9 17.6558 10.8053   1
  -3  -7  -9 11.3958 4.52910   2
  -3  -7  -9 11.2018 4.87848   2
   3   7   9 14.8873 3.10946   3
   3   7   9 10.7260 5.24606   2
   3   7   9 16.4023 11.5678   1
  -4  -7  -9 2.70157 4.52786   2
  -4  -7  -9 11.7846 12.7107   1
  -4  -7  -9 7.47744 4.16442   2
   4   7   9 2.15320 2.22201   3
   4   7   9 -0.5729 4.25378   2
   4   7   9 7.19299 5.19210   2
   4   7   9 5.89819 12.2690   1
  -5  -7  -9 20.7962 14.2821   1
  -5  -7  -9 38.1067 7.10120   2
  -5  -7  -9 30.3746 5.87213   2
   5   7   9 17.4371 13.6969   1
   5   7   9 24.2605 6.17094   2
   5   7   9 20.4179 6.14517   2
   5   7   9 23.3554 3.46044   3
  -6  -7  -9 14.1447 5.72988   2
  -6  -7  -9 4.44042 4.23998   2
  -6  -7  -9 32.5294 16.7366   1
   6   7   9 7.95052 3.24118   3
   6   7   9 -2.3591 2.29575   3
   6   7   9 8.25644 15.8736   1
   6   7   9 3.69828 5.70431   2
  -7  -7  -9 1.40023 4.72398   2
  -7  -7  -9 -12.504 19.1401   1
  -7  -7  -9 19.6445 6.13963   2
   7   7   9 10.6031 2.96367   3
   7   7   9 9.64447 5.82800   2
   7   7   9 15.1608 22.6627   1
   7   7   9 17.1783 4.29716   3
  -8  -7  -9 15.2704 5.38510   2
  -8  -7  -9 -9.7574 5.85197   2
   8   7   9 -1.2703 5.99351   2
   8   7   9 3.89836 4.07970   3
   8   7   9 -4.4813 3.41899   3
  -9  -7  -9 -8.0861 5.69921   2
   9   7   9 2.33488 5.07963   2
   9   7   9 2.70893 4.40794   3
   5  -8  -9 38.2192 7.29890   2
   5  -8  -9 53.5274 9.16666   3
  -5   8   9 44.1713 8.42092   2
   4  -8  -9 -3.2865 4.89543   3
   4  -8  -9 5.38757 4.62867   2
  -4   8   9 -3.2711 5.97274   2
  -4   8   9 7.95745 9.94262   2
   3  -8  -9 -2.2431 5.49519   2
   3  -8  -9 -5.0463 4.12160   2
   3  -8  -9 4.08542 4.21507   3
  -3   8   9 -5.6268 19.1047   1
  -3   8   9 20.0615 19.3065   1
  -3   8   9 -4.4101 4.93058   2
  -3   8   9 -5.5541 3.85593   2
   2  -8  -9 35.0308 7.14130   2
   2  -8  -9 34.1633 7.10944   3
   2  -8  -9 37.4092 5.95390   2
  -2   8   9 23.0434 5.51133   2
  -2   8   9 35.0056 19.1006   1
  -2   8   9 26.6582 7.14629   2
  -2   8   9 51.7954 18.2662   1
   1  -8  -9 -1.6495 3.11004   2
   1  -8  -9 2.56520 4.06144   2
   1  -8  -9 -2.1729 3.39773   3
  -1   8   9 -3.5078 3.30577   2
  -1   8   9 18.1750 13.6960   1
  -1   8   9 20.5462 14.1680   1
  -1   8   9 -1.8206 4.40408   2
   0  -8  -9 24.8659 5.87898   2
   0  -8  -9 29.2204 5.23958   3
   0  -8  -9 35.9741 5.96756   2
   0   8   9 35.6105 16.1768   1
   0   8   9 27.8723 6.45551   2
   0   8   9 21.8284 4.57710   3
  -1  -8  -9 34.8084 14.6494   1
  -1  -8  -9 29.9659 4.83311   3
  -1  -8  -9 29.7070 5.80154   2
  -1  -8  -9 26.2486 5.97264   2
   1   8   9 30.8507 5.44445   3
   1   8   9 34.3366 6.62872   2
   1   8   9 10.0571 11.9748   1
   1   8   9 15.3708 5.21745   2
  -2  -8  -9 21.9544 5.10724   2
  -2  -8  -9 18.9639 11.8331   1
  -2  -8  -9 18.2185 4.04165   3
  -2  -8  -9 16.6932 5.13522   2
   2   8   9 16.2370 4.65172   2
   2   8   9 23.9674 14.9405   1
   2   8   9 19.9761 3.62104   3
   2   8   9 19.3140 5.55317   2
  -3  -8  -9 40.6329 16.8922   1
  -3  -8  -9 53.3664 7.82070   2
  -3  -8  -9 54.8179 6.72429   2
   3   8   9 27.6633 18.4637   1
   3   8   9 45.2581 5.09998   3
   3   8   9 44.8875 7.74211   2
   3   8   9 42.1205 6.55030   2
  -4  -8  -9 90.1593 9.33702   2
  -4  -8  -9 85.2883 19.7617   1
  -4  -8  -9 92.3082 8.53568   2
   4   8   9 90.2799 6.54172   3
   4   8   9 102.417 9.92123   2
   4   8   9 63.5416 21.6192   1
   4   8   9 114.914 9.23211   2
  -5  -8  -9 50.6632 18.0567   1
  -5  -8  -9 33.6499 6.39542   2
  -5  -8  -9 36.3585 7.07100   2
   5   8   9 28.8158 4.14799   3
   5   8   9 8.57416 12.9320   1
   5   8   9 20.9990 6.50959   2
   5   8   9 29.9917 9.85453   2
  -6  -8  -9 31.9244 6.00327   2
  -6  -8  -9 31.9155 6.75162   2
   6   8   9 1.49026 18.1938   1
   6   8   9 29.0650 6.65224   2
   6   8   9 26.9246 4.94575   3
   6   8   9 35.9097 7.62049   3
  -7  -8  -9 0.07588 4.77767   2
  -7  -8  -9 9.71778 4.81189   2
   7   8   9 3.85081 3.11904   3
   7   8   9 -4.9871 4.37184   2
   7   8   9 -0.2059 3.34150   3
  -8  -8  -9 24.2180 6.90842   2
   8   8   9 11.7328 4.69464   3
   8   8   9 3.68129 4.95298   2
  -9  -8  -9 0.93007 5.71831   2
   9   8   9 2.33602 5.69103   2
   9   8   9 5.25794 4.33565   3
   4  -9  -9 34.3294 7.76517   3
   4  -9  -9 28.0922 10.7553   2
  -4   9   9 33.1054 9.15571   2
  -3   9   9 90.1505 44.0553   1
  -3   9   9 5.02208 5.03933   2
   2  -9  -9 5.75651 4.79757   2
   2  -9  -9 20.9678 5.55745   2
   2  -9  -9 19.9468 5.70809   3
  -2   9   9 23.3055 21.1899   1
  -2   9   9 21.7358 6.03515   2
  -2   9   9 23.3338 21.4709   1
  -2   9   9 16.4010 5.45955   2
   1  -9  -9 -3.3257 3.87667   2
   1  -9  -9 -3.9775 3.51335   2
  -1   9   9 33.1463 18.0786   1
  -1   9   9 -9.7139 16.1262   1
  -1   9   9 -1.2351 4.55017   2
   0  -9  -9 9.88454 4.09715   2
   0  -9  -9 10.1657 4.39815   3
   0  -9  -9 9.93710 4.84913   2
   0   9   9 0.98417 12.8560   1
   0   9   9 -0.4660 5.26286   2
   0   9   9 -17.930 12.7129   1
  -1  -9  -9 24.0178 5.38865   2
  -1  -9  -9 -9.6608 12.0595   1
  -1  -9  -9 22.0701 5.17754   3
  -1  -9  -9 15.3157 5.33279   2
   1   9   9 14.0194 4.99155   2
   1   9   9 24.4618 6.13652   2
   1   9   9 26.4841 13.9962   1
  -2  -9  -9 7.76464 13.0191   1
  -2  -9  -9 -2.2226 2.70198   3
  -2  -9  -9 5.56987 4.30821   2
  -2  -9  -9 9.43948 3.78566   2
   2   9   9 -5.6620 4.43998   2
   2   9   9 -2.1924 2.33918   3
   2   9   9 2.86084 4.49028   2
  -3  -9  -9 3.77159 4.14324   2
  -3  -9  -9 -2.1189 3.73104   2
   3   9   9 6.04079 3.11811   3
   3   9   9 12.6314 15.4423   1
   3   9   9 8.23000 7.95967   2
  -4  -9  -9 -0.0203 3.81379   2
  -4  -9  -9 14.6853 15.1718   1
  -4  -9  -9 -1.3953 3.65152   2
   4   9   9 -3.8386 2.39080   3
   4   9   9 -2.7512 13.0510   1
   4   9   9 -0.3542 3.97252   2
  -5  -9  -9 -10.102 18.7643   1
  -5  -9  -9 4.85719 5.28129   2
  -5  -9  -9 11.0777 5.12825   2
   5   9   9 15.4324 3.41835   3
   5   9   9 14.7349 8.77685   2
   5   9   9 46.8326 19.1658   1
  -6  -9  -9 18.8855 5.84089   2
  -6  -9  -9 17.6307 34.5341   1
  -6  -9  -9 13.6009 5.36269   2
   6   9   9 14.6835 6.14249   2
  -7  -9  -9 10.5768 4.93774   2
   7   9   9 4.70464 5.19637   2
   7   9   9 9.32466 4.55952   3
  -8  -9  -9 -1.5454 5.35030   2
   8   9   9 3.62926 5.29639   2
   8   9   9 -10.437 3.60024   3
   3 -10  -9 10.5712 5.77857   2
   3 -10  -9 11.9858 5.82135   3
  -3  10   9 8.68601 6.34411   2
   2 -10  -9 22.9109 7.62457   2
   2 -10  -9 13.5706 5.54381   3
  -2  10   9 8.78336 5.28169   2
   1 -10  -9 3.37539 5.03645   2
   1 -10  -9 10.8526 4.83605   3
   1 -10  -9 6.68986 4.64995   2
  -1  10   9 3.56679 5.50613   2
   0 -10  -9 12.8979 4.73432   3
   0 -10  -9 2.70572 3.93436   2
   0 -10  -9 8.08475 4.68946   2
   0  10   9 13.1627 6.12942   2
   0  10   9 21.7439 19.3673   1
   0  10   9 12.9171 23.1943   1
  -1 -10  -9 -7.0476 3.01296   3
  -1 -10  -9 -8.2642 3.18208   2
  -1 -10  -9 -2.9358 3.37188   2
   1  10   9 3.00894 4.34360   2
   1  10   9 2.02833 14.7484   1
  -2 -10  -9 27.3733 5.24445   3
  -2 -10  -9 23.1625 5.71732   2
  -2 -10  -9 15.4693 5.37537   2
  -2 -10  -9 28.3112 18.1716   1
   2  10   9 7.64734 16.1244   1
   2  10   9 32.9520 11.1649   2
  -3 -10  -9 4.09203 4.59300   2
  -3 -10  -9 -19.221 15.1870   1
  -3 -10  -9 3.13056 3.72952   2
   3  10   9 -3.0891 15.9374   1
   3  10   9 -4.3026 4.35606   2
  -4 -10  -9 18.8910 4.79859   2
  -4 -10  -9 21.7882 5.86374   2
  -4 -10  -9 34.1651 16.6338   1
   4  10   9 19.9417 15.8238   1
   4  10   9 16.7096 7.34699   2
  -5 -10  -9 44.6802 11.2078   2
  -5 -10  -9 23.7113 5.39186   2
  -5 -10  -9 53.0817 31.9482   1
   5  10   9 36.9990 9.12352   2
  -6 -10  -9 36.0259 5.88763   2
  -6 -10  -9 32.6338 7.25364   2
   6  10   9 20.9196 6.85360   2
  -7 -10  -9 30.6052 6.36048   2
   7  10   9 22.5605 5.59627   3
   7  10   9 14.7825 7.71996   2
  -8 -10  -9 33.1422 7.78346   2
   8  10   9 52.1501 9.30145   2
   8  10   9 68.8153 8.22812   3
   2 -11  -9 0.34389 4.84559   3
   2 -11  -9 0.96075 4.79495   2
  -2  11   9 3.30854 5.28573   2
   1 -11  -9 72.1411 9.19712   3
   1 -11  -9 51.1650 8.15435   2
  -1  11   9 69.9061 10.6707   2
   0 -11  -9 78.3383 8.65138   2
   0 -11  -9 72.3744 8.98390   2
   0 -11  -9 77.2371 8.91529   3
   0  11   9 70.7484 9.29272   2
  -1 -11  -9 212.944 18.6426   2
  -1 -11  -9 158.972 10.8456   2
  -1 -11  -9 139.399 10.5315   3
   1  11   9 148.052 12.8331   2
  -2 -11  -9 41.2539 8.12919   2
  -2 -11  -9 54.3626 13.2647   2
  -2 -11  -9 64.7648 7.65947   3
   2  11   9 65.4416 11.7748   2
  -3 -11  -9 5.39793 4.84213   2
  -3 -11  -9 0.90783 4.28793   2
  -4 -11  -9 22.5454 5.23234   2
  -4 -11  -9 19.2045 4.84224   2
   4  11   9 8.88133 5.79960   2
  -5 -11  -9 14.0767 5.00519   2
  -5 -11  -9 26.7821 6.37802   2
   5  11   9 12.2454 5.77986   2
  -6 -11  -9 4.07152 4.56287   2
  -6 -11  -9 6.20267 4.96718   2
   6  11   9 7.57161 6.18917   2
  -7 -11  -9 22.3165 6.74332   2
   1 -12  -9 67.2177 9.73587   2
   1 -12  -9 72.1796 13.9417   3
  -1  12   9 46.6223 9.07586   2
   0 -12  -9 5.75457 4.59703   2
   0 -12  -9 8.35304 5.49273   3
   0  12   9 2.79640 4.77929   2
  -1 -12  -9 34.0930 6.46194   3
  -1 -12  -9 29.6245 6.56685   2
   1  12   9 20.6709 6.51448   2
  -2 -12  -9 96.3372 9.35153   3
  -2 -12  -9 114.304 10.3107   2
   2  12   9 110.261 14.2973   2
  -3 -12  -9 9.16473 4.86786   2
  -3 -12  -9 20.5183 6.14255   2
   3  12   9 11.5873 5.70935   2
  -4 -12  -9 30.1985 7.02869   2
  -4 -12  -9 27.2277 5.96778   2
   4  12   9 15.4938 6.81729   2
  -5 -12  -9 3.62096 4.68671   2
  -5 -12  -9 21.1433 8.69561   2
   5  12   9 -1.6903 5.64541   2
  -6 -12  -9 -0.7237 4.94622   2
   6  12   9 -4.6658 5.46029   2
  -7 -12  -9 11.4583 8.25842   2
  -1 -13  -9 71.8329 14.1154   3
  -1 -13  -9 45.1244 8.28171   2
  -2 -13  -9 77.4039 9.26369   3
  -2 -13  -9 73.8782 10.2378   2
   2  13   9 41.1967 13.2103   2
  -3 -13  -9 32.1775 7.24999   2
   3  13   9 17.8290 7.05802   2
  -4 -13  -9 -0.0550 4.52839   2
   4  13   9 5.60377 7.21303   2
  -5 -13  -9 25.9295 7.45838   2
   4   6 -10 4.04906 2.98760   3
   3   6 -10 0.01835 2.66513   3
   5   5 -10 -1.9976 3.42335   3
   4   5 -10 -0.1447 2.79819   3
   3   5 -10 -0.2702 2.34620   3
   3   5 -10 1.82431 4.53996   3
   2   5 -10 5.31579 1.97470   3
   2   5 -10 1.10123 2.30511   3
   1  -5  10 -0.4643 2.03075   2
   2  -5  10 13.4843 3.71546   2
   2  -5  10 11.2430 5.22464   2
   6   4 -10 8.48847 4.67851   3
   5   4 -10 2.94957 3.86961   3
   4   4 -10 5.59181 3.32500   3
   3   4 -10 117.708 6.76533   3
   3   4 -10 121.788 6.73756   3
   2   4 -10 0.41807 1.54201   3
   2   4 -10 2.38159 1.85134   3
   0  -4  10 101.423 5.09451   2
  -1   4 -10 30.2826 5.38109   2
   1  -4  10 37.1102 4.44646   2
   1  -4  10 27.5843 4.05421   2
  -2   4 -10 0.58616 4.95435   2
   2  -4  10 7.56794 3.02556   2
   2  -4  10 7.89776 3.81756   2
   3  -4  10 8.58640 4.25917   2
   3  -4  10 1.13629 3.64402   2
   4  -4  10 11.7030 4.81139   2
   4  -4  10 13.6415 5.37539   2
   7   3 -10 109.200 10.3754   3
   6   3 -10 5.29142 4.27063   3
   5   3 -10 24.9595 5.13947   3
   4   3 -10 1.35814 2.85784   3
   4   3 -10 0.85835 2.83926   3
   3   3 -10 15.1904 3.41137   3
   3   3 -10 18.2883 3.53344   3
   2   3 -10 8.29422 2.05858   3
   2   3 -10 7.34919 1.92608   3
  -2  -3  10 8.62450 8.22139   1
  -2  -3  10 5.44767 1.51528   2
   1   3 -10 -5.1092 4.01762   2
  -1  -3  10 -0.1269 1.94869   2
   0   3 -10 0.46852 2.50925   2
   0  -3  10 1.95186 2.37004   2
   0  -3  10 -0.1719 2.24245   2
  -1   3 -10 3.19904 3.10221   2
   1  -3  10 -1.4195 2.32904   2
   1  -3  10 0.80691 2.80087   2
  -2   3 -10 8.00848 3.63699   2
   2  -3  10 3.44490 3.67362   2
   2  -3  10 6.04460 3.25574   2
  -3   3 -10 9.55956 7.08661   2
   3  -3  10 1.64124 4.69402   2
   3  -3  10 2.58071 3.71425   2
   4  -3  10 11.6258 5.16881   2
   7   2 -10 14.0543 5.20034   3
  -7  -2  10 3.43121 3.85662   2
   6   2 -10 21.3294 5.14543   3
  -6  -2  10 19.0021 3.48801   2
  -6  -2  10 12.4973 3.23821   2
   5   2 -10 -4.6910 3.33161   3
  -5  -2  10 2.88432 2.38494   2
  -5  -2  10 -0.1248 2.23275   2
  -5  -2  10 11.7416 22.2454   1
   4   2 -10 17.1448 4.12710   2
   4   2 -10 16.4719 4.08240   3
  -4  -2  10 21.8064 3.43129   2
  -4  -2  10 -1.4020 10.8941   1
  -4  -2  10 21.3504 3.12140   2
   3   2 -10 61.8342 5.39602   3
   3   2 -10 57.0629 5.39371   2
   3   2 -10 69.5058 5.40437   3
  -3  -2  10 59.0213 4.92673   2
  -3  -2  10 56.2858 11.3632   1
  -3  -2  10 70.3779 4.90517   2
   2   2 -10 52.1715 3.85003   3
   2   2 -10 50.8647 3.82392   3
   2   2 -10 50.3671 5.07307   2
  -2  -2  10 48.9735 11.6216   1
  -2  -2  10 44.6972 6.57488   2
  -2  -2  10 54.5275 4.59362   2
   1   2 -10 6.16089 2.96599   2
   0   2 -10 53.5684 5.56698   2
   0  -2  10 56.8732 5.25954   2
   0  -2  10 53.3090 6.12175   2
   1  -2  10 56.9944 6.08397   2
  -2   2 -10 -3.0087 3.21950   2
   2  -2  10 1.92638 3.35509   2
   2  -2  10 5.06384 5.61834   2
  -3   2 -10 35.6357 6.01860   2
   3  -2  10 34.2411 5.35901   2
   3  -2  10 35.2034 5.99298   2
  -4   2 -10 3.38042 4.12019   2
   4  -2  10 -0.8307 3.95703   2
   4  -2  10 2.80700 3.64795   2
   5  -2  10 6.81378 5.25422   2
   5  -2  10 -0.0593 4.85234   2
   7   1 -10 74.4976 9.24148   3
  -7  -1  10 49.3475 6.23711   2
   6   1 -10 10.6952 4.46947   3
   6   1 -10 0.21714 6.42587   2
  -6  -1  10 -2.9275 3.17848   2
  -6  -1  10 3.05542 3.07269   2
   5   1 -10 3.25944 3.36315   3
   5   1 -10 3.28560 3.43797   2
  -5  -1  10 1.27807 16.2626   1
  -5  -1  10 -1.6897 2.59287   2
  -5  -1  10 3.96548 2.95307   2
   4   1 -10 6.09670 3.16436   2
   4   1 -10 6.43516 3.35052   3
  -4  -1  10 10.0667 9.79676   1
  -4  -1  10 1.83242 2.86534   2
  -4  -1  10 5.41934 2.98595   2
   3   1 -10 2.89656 2.70454   3
   3   1 -10 8.83984 3.64328   2
  -3  -1  10 19.0692 12.3422   1
  -3  -1  10 5.20314 3.06871   2
  -3  -1  10 8.18860 3.16453   2
   2   1 -10 71.6331 4.51169   3
   2   1 -10 66.6828 4.35378   3
  -2  -1  10 81.3642 7.70582   2
  -2  -1  10 59.6757 12.0262   1
   1   1 -10 44.7839 5.63857   2
  -1  -1  10 47.2773 5.65632   2
   0   1 -10 31.1812 4.86043   2
   0  -1  10 41.5180 4.94617   2
   0  -1  10 26.9508 4.62923   2
  -1   1 -10 2.81288 3.13567   2
   1  -1  10 0.11270 2.53541   2
   1  -1  10 2.53548 6.20603   2
  -2   1 -10 29.1294 5.26282   2
   2  -1  10 26.5670 4.85220   2
   2  -1  10 28.3748 5.70788   2
  -3   1 -10 -6.6166 3.36764   2
   3  -1  10 4.20510 4.02268   2
   3  -1  10 2.50210 3.04445   2
  -4   1 -10 1.29516 3.92573   2
   4  -1  10 -3.5037 3.22059   2
   4  -1  10 3.54371 4.43996   2
  -5   1 -10 9.46861 4.81035   2
   5  -1  10 10.6172 5.66701   2
   6  -1  10 3.63159 5.28008   2
   7   0 -10 44.5667 7.68802   3
  -7   0  10 16.7063 5.21066   2
   6   0 -10 33.7248 6.03098   3
  -6   0  10 37.0467 5.87109   2
   5   0 -10 4.41807 3.33723   3
   5   0 -10 1.07558 5.52722   2
  -5   0  10 -1.1013 3.10904   2
   4   0 -10 11.3321 3.76639   3
   4   0 -10 -0.1138 3.39003   2
  -4   0  10 -1.2176 3.29477   2
  -4   0  10 -1.1174 10.8152   1
   3   0 -10 6.29644 2.98771   3
   3   0 -10 7.72978 3.58284   2
  -3   0  10 19.9790 9.87656   1
  -3   0  10 6.21562 3.12238   2
   2   0 -10 44.7669 4.08349   3
   2   0 -10 39.4608 5.45782   2
  -2   0  10 21.2558 9.80192   1
  -2   0  10 57.3955 5.63589   2
  -2   0  10 36.8617 5.26645   2
   1   0 -10 353.039 8.27246   3
   1   0 -10 411.416 14.4407   2
   1   0 -10 373.870 8.36958   3
  -1   0  10 418.791 14.5665   2
  -1   0  10 402.073 13.9777   2
   0   0 -10 16.7963 4.02398   2
   0   0  10 10.0632 3.89005   2
   0   0  10 13.8806 3.76505   2
  -1   0 -10 14.3993 4.24403   2
   1   0  10 15.0465 4.39251   2
   1   0  10 14.1286 3.90859   2
  -2   0 -10 251.900 12.2760   2
   2   0  10 262.784 12.9721   2
   2   0  10 278.989 12.4809   2
  -3   0 -10 6.64762 4.19404   2
   3   0  10 1.86814 2.98627   2
  -4   0 -10 7.86732 4.00861   2
   4   0  10 1.85677 4.15243   2
  -5   0 -10 -0.5746 4.02547   2
   5   0  10 0.59985 4.79604   2
   5   0  10 2.51960 3.64292   2
  -6   0 -10 30.3784 7.05329   2
   6   0  10 40.3185 7.71196   2
   6   0  10 13.6699 7.13077   2
   7  -1 -10 4.47531 5.24362   3
  -7   1  10 6.50915 6.83982   2
   6  -1 -10 6.49387 3.94992   3
   6  -1 -10 7.84424 4.54376   2
  -6   1  10 -4.6197 3.48575   2
  -6   1  10 17.6240 5.12225   2
   5  -1 -10 12.1268 4.42209   3
   5  -1 -10 7.38763 4.29786   2
  -5   1  10 5.47977 3.53828   2
  -5   1  10 7.99283 4.20688   2
   4  -1 -10 83.3328 7.62495   2
   4  -1 -10 100.943 7.66109   3
  -4   1  10 111.060 7.98651   2
  -4   1  10 74.8782 18.3168   1
  -4   1  10 86.7803 8.03571   2
   3  -1 -10 21.6447 4.45415   2
   3  -1 -10 16.6170 3.56502   3
  -3   1  10 24.9528 4.53974   2
  -3   1  10 15.0505 4.96014   2
   2  -1 -10 137.314 8.96805   2
  -2   1  10 141.488 19.6397   1
  -2   1  10 149.676 9.33803   2
   1  -1 -10 210.447 6.54069   3
   1  -1 -10 198.863 10.5439   2
  -1   1  10 194.729 10.5536   2
  -1   1  10 225.281 31.5502   1
  -1   1  10 210.512 10.2679   2
   0  -1 -10 19.4745 4.64456   2
   0   1  10 17.3009 4.68589   2
   0   1  10 15.2653 3.93428   2
   0   1  10 22.2830 10.9728   1
  -1  -1 -10 8.24549 3.84262   2
   1   1  10 4.61901 3.39908   2
   1   1  10 -5.8692 9.05125   1
   1   1  10 8.19228 4.26435   2
   2   1  10 7.29194 3.10917   2
   2   1  10 1.98423 4.08343   2
  -3  -1 -10 2.49120 3.43086   2
   3   1  10 1.13949 3.99338   2
  -4  -1 -10 1.57099 3.97362   2
   4   1  10 1.51713 3.19099   2
  -5  -1 -10 1.77809 4.03339   2
   5   1  10 2.00625 4.87659   2
   5   1  10 3.83569 3.50616   2
  -6  -1 -10 24.4413 6.37297   2
   6   1  10 10.2785 5.66371   2
   6   1  10 20.5634 5.74037   2
   7   1  10 13.5259 6.30851   2
   7  -2 -10 4.42613 4.68784   3
   6  -2 -10 4.40625 4.26895   2
   6  -2 -10 14.3799 5.00026   3
  -6   2  10 3.20137 3.50116   2
  -6   2  10 8.49069 4.76016   2
   5  -2 -10 4.09509 4.11183   2
   5  -2 -10 9.98870 4.41552   3
  -5   2  10 1.64787 3.69231   2
  -5   2  10 8.65168 3.41222   2
   4  -2 -10 50.1065 6.15667   3
   4  -2 -10 34.1714 5.76029   2
  -4   2  10 43.1030 5.36091   3
  -4   2  10 34.6706 6.32635   2
  -4   2  10 15.9669 13.7454   1
  -4   2  10 34.4822 5.63349   2
   3  -2 -10 0.79244 3.08722   2
   3  -2 -10 -1.7040 2.72712   3
  -3   2  10 -4.2873 9.37525   1
  -3   2  10 2.52792 2.48562   3
  -3   2  10 0.14405 3.61555   2
  -3   2  10 -0.2506 2.56189   2
   2  -2 -10 70.7932 5.83969   3
   2  -2 -10 74.1921 7.30804   2
  -2   2  10 56.6292 14.2457   1
  -2   2  10 84.2493 5.62356   3
  -2   2  10 75.7193 7.85557   2
   1  -2 -10 634.770 15.5834   3
   1  -2 -10 661.189 20.7024   2
   1  -2 -10 666.978 45.5832   1
  -1   2  10 585.666 43.3933   1
  -1   2  10 653.367 20.6310   2
  -1   2  10 622.238 19.8701   2
   0  -2 -10 75.1197 11.8636   2
   0  -2 -10 61.4428 13.6493   1
   0   2  10 37.7189 5.90884   2
   0   2  10 57.5562 5.65499   2
   0   2  10 38.6753 12.2327   1
  -1  -2 -10 4.50214 3.68210   2
  -1  -2 -10 9.52893 4.46662   2
  -1  -2 -10 -1.4965 8.98708   1
   1   2  10 2.36628 8.40507   1
   1   2  10 2.43027 3.70210   2
  -2  -2 -10 42.9840 6.27709   2
  -2  -2 -10 18.5528 11.3180   1
   2   2  10 32.2676 13.1182   1
   2   2  10 36.1927 6.69120   2
   2   2  10 31.0000 5.67995   2
  -3  -2 -10 101.823 8.53845   2
  -3  -2 -10 63.9808 26.1958   1
   3   2  10 109.527 9.26481   2
   3   2  10 124.217 8.57944   2
   3   2  10 75.8218 17.5389   1
  -4  -2 -10 92.5246 8.94498   2
   4   2  10 83.3568 7.68057   2
   4   2  10 91.2500 10.0302   2
  -5  -2 -10 30.7302 6.61912   2
   5   2  10 27.1190 5.22477   2
  -6  -2 -10 4.79144 5.77640   2
   6   2  10 19.2758 5.86389   2
   6   2  10 23.7623 5.35733   2
  -7  -2 -10 34.2627 7.47061   2
   7   2  10 34.4910 7.33296   2
   7  -3 -10 6.28847 4.71057   3
  -7   3  10 7.31954 8.16573   2
   6  -3 -10 0.73728 3.48466   2
   6  -3 -10 -7.4909 3.72520   3
  -6   3  10 3.49139 4.81392   2
   5  -3 -10 3.10877 4.25030   2
   5  -3 -10 -1.2915 4.17138   3
  -5   3  10 3.15690 4.45818   2
   4  -3 -10 43.2000 6.99223   2
   4  -3 -10 44.7135 6.21135   3
  -4   3  10 57.7533 7.92172   2
   3  -3 -10 4.95412 3.87185   2
   3  -3 -10 9.69442 3.68865   3
  -3   3  10 6.34943 3.07111   3
  -3   3  10 12.3169 4.92628   2
   2  -3 -10 64.6175 7.13175   2
   2  -3 -10 59.7792 5.75857   3
  -2   3  10 64.7762 7.77612   2
  -2   3  10 55.1501 5.29467   3
  -2   3  10 52.3662 16.8922   1
   1  -3 -10 245.350 12.0791   2
   1  -3 -10 182.448 24.8081   1
   1  -3 -10 233.147 13.6841   2
  -1   3  10 210.243 26.8727   1
  -1   3  10 241.404 12.1634   2
   0  -3 -10 17.4916 4.70277   2
   0  -3 -10 5.26914 9.55835   1
   0  -3 -10 17.2982 4.74617   2
   0  -3 -10 22.2569 2.61686   3
   0   3  10 19.0467 2.43178   3
   0   3  10 19.6591 5.06136   2
   0   3  10 22.2073 4.92938   2
   0   3  10 16.0150 9.16266   1
  -1  -3 -10 44.7457 5.97381   2
  -1  -3 -10 43.6528 6.36843   2
  -1  -3 -10 34.7576 12.3746   1
   1   3  10 34.9187 5.97228   2
   1   3  10 58.3042 16.9352   1
   1   3  10 50.6749 6.02493   2
  -2  -3 -10 3.78653 3.56845   2
  -2  -3 -10 -15.543 8.41374   1
  -2  -3 -10 1.34716 3.54058   2
   2   3  10 1.80343 10.7003   1
   2   3  10 4.23630 4.14258   2
   2   3  10 8.81185 3.83354   2
  -3  -3 -10 31.3553 13.4229   1
  -3  -3 -10 28.6641 5.74001   2
  -3  -3 -10 24.5337 5.52834   2
   3   3  10 19.6357 5.31740   2
   3   3  10 21.3014 5.00133   2
   3   3  10 12.7451 12.1566   1
  -4  -3 -10 -1.8976 3.94350   2
  -4  -3 -10 3.20742 11.6984   1
   4   3  10 -1.8399 13.8745   1
   4   3  10 6.58954 3.96348   2
   4   3  10 4.97692 4.54053   2
  -5  -3 -10 -5.6323 4.08560   2
   5   3  10 -3.2471 3.40350   2
   5   3  10 2.36123 4.54507   2
  -6  -3 -10 28.3365 12.1068   2
   6   3  10 25.6867 10.0646   2
  -7  -3 -10 8.54580 5.65242   2
   7   3  10 15.0370 5.99719   2
   7   3  10 -5.1653 6.07822   2
  -8  -3 -10 54.9326 8.98141   2
   8   3  10 55.8500 9.85268   2
   6  -4 -10 11.4608 5.19477   2
   6  -4 -10 19.7762 5.35442   3
  -6   4  10 2.93269 5.65352   2
   5  -4 -10 -6.2586 3.18432   2
   5  -4 -10 1.35034 3.58184   3
  -5   4  10 -4.1378 4.01440   2
  -5   4  10 10.6237 5.30951   2
   4  -4 -10 -2.8554 3.30495   2
   4  -4 -10 1.98195 3.27998   3
  -4   4  10 17.0736 24.2523   1
  -4   4  10 -2.3137 4.25508   2
  -4   4  10 10.8355 4.26478   2
   3  -4 -10 -4.8916 2.67966   3
   3  -4 -10 -2.0045 3.26582   2
  -3   4  10 -2.4549 3.47717   2
  -3   4  10 12.0191 3.74092   3
  -3   4  10 3.41317 3.37639   2
  -3   4  10 31.7488 12.5384   1
   2  -4 -10 50.6771 6.77183   2
   2  -4 -10 52.5810 5.77885   3
  -2   4  10 30.6261 15.1940   1
  -2   4  10 46.7347 7.38757   2
  -2   4  10 46.1152 6.30259   2
  -2   4  10 45.2107 15.7729   1
  -2   4  10 48.7587 5.44994   3
   1  -4 -10 2.14714 2.53343   3
   1  -4 -10 -4.8030 9.27225   1
   1  -4 -10 -1.1575 3.44502   2
   1  -4 -10 9.93108 4.11070   2
  -1   4  10 15.8824 9.01635   1
  -1   4  10 -3.1195 3.52327   2
  -1   4  10 -0.5823 3.00746   2
  -1   4  10 0.20013 2.39733   3
   0  -4 -10 235.140 12.1496   2
   0  -4 -10 220.368 11.8314   2
   0  -4 -10 235.987 8.43431   3
   0   4  10 188.647 31.3823   1
   0   4  10 232.898 8.53340   3
   0   4  10 233.624 12.7249   2
   0   4  10 240.806 12.1592   2
  -1  -4 -10 22.1497 11.1793   1
  -1  -4 -10 4.33814 1.62857   3
  -1  -4 -10 0.26937 3.61414   2
   1   4  10 0.88090 9.08414   1
   1   4  10 5.28341 4.80465   2
   1   4  10 10.6320 4.05841   2
   1   4  10 3.03146 1.82682   3
  -2  -4 -10 10.5976 4.47096   2
  -2  -4 -10 15.7911 11.4271   1
   2   4  10 2.62895 4.75799   2
   2   4  10 7.74204 9.85605   1
   2   4  10 6.87678 3.88179   2
  -3  -4 -10 11.2636 4.92166   2
  -3  -4 -10 53.0943 24.2215   1
  -3  -4 -10 0.18100 4.67702   2
   3   4  10 0.66486 12.3330   1
   3   4  10 10.9722 4.80312   2
   3   4  10 15.3264 5.28376   2
  -4  -4 -10 332.953 15.8206   2
  -4  -4 -10 364.463 35.9976   1
  -4  -4 -10 325.656 15.1251   2
   4   4  10 331.810 16.0949   2
   4   4  10 330.490 15.7193   2
   4   4  10 297.420 37.7956   1
  -5  -4 -10 3.85478 12.4882   1
  -5  -4 -10 6.97292 5.68385   2
   5   4  10 9.62226 15.3256   1
   5   4  10 8.76402 4.44704   2
   5   4  10 4.41831 5.22833   2
  -6  -4 -10 20.4517 6.62342   2
   6   4  10 27.8019 6.28246   2
   6   4  10 23.1386 6.78791   2
  -7  -4 -10 29.6412 7.25944   2
   7   4  10 32.1940 8.63678   2
   7   4  10 47.6189 7.49087   2
  -8  -4 -10 16.0210 6.39119   2
   8   4  10 21.0690 7.14651   2
   6  -5 -10 2.08232 5.86397   2
   6  -5 -10 2.34621 4.60819   3
  -6   5  10 -7.8662 4.84743   2
   5  -5 -10 10.3121 4.66448   3
   5  -5 -10 7.85617 4.93432   2
  -5   5  10 0.31915 4.45362   2
  -5   5  10 2.83487 5.17625   2
   4  -5 -10 34.5609 6.57263   2
  -4   5  10 40.7474 7.14192   2
  -4   5  10 42.2174 6.86447   2
   3  -5 -10 3.95088 4.14907   2
   3  -5 -10 2.69347 3.51325   3
  -3   5  10 1.17949 14.8969   1
  -3   5  10 6.11535 4.19374   2
  -3   5  10 0.99175 4.20339   2
   2  -5 -10 11.3143 4.44406   2
   2  -5 -10 21.1114 4.57065   3
  -2   5  10 22.2029 5.65553   2
  -2   5  10 11.2936 10.4265   1
  -2   5  10 -1.1675 10.2892   1
  -2   5  10 15.9434 4.78495   2
  -2   5  10 18.5952 4.09542   3
   1  -5 -10 20.7609 4.91930   2
   1  -5 -10 24.9475 5.57508   2
   1  -5 -10 34.9991 4.81483   3
  -1   5  10 8.18326 13.7315   1
  -1   5  10 21.7809 3.96718   3
  -1   5  10 31.4918 6.30927   2
   0  -5 -10 -2.3014 3.17416   2
   0  -5 -10 7.31867 8.85213   1
   0  -5 -10 -0.9826 2.24454   3
   0   5  10 -1.3392 2.37481   3
   0   5  10 -9.5262 8.86732   1
   0   5  10 5.12843 4.17828   2
   0   5  10 2.74840 3.47554   2
  -1  -5 -10 21.7439 3.13959   3
  -1  -5 -10 19.4309 4.95841   2
  -1  -5 -10 26.0566 5.44391   2
  -1  -5 -10 17.9872 10.3667   1
   1   5  10 25.2443 5.86618   2
   1   5  10 16.2347 4.59064   2
   1   5  10 22.2736 3.34493   3
   1   5  10 20.3043 12.8411   1
  -2  -5 -10 6.84418 4.32512   2
  -2  -5 -10 11.5475 11.1294   1
  -2  -5 -10 7.64380 4.46679   2
   2   5  10 11.6488 4.32012   2
   2   5  10 5.99335 10.8624   1
   2   5  10 7.69279 4.65755   2
   2   5  10 10.5793 2.39601   3
  -3  -5 -10 43.9474 6.70076   2
  -3  -5 -10 49.7343 14.6570   1
  -3  -5 -10 46.8654 7.04710   2
   3   5  10 9.66406 12.4370   1
   3   5  10 45.0016 6.78252   2
   3   5  10 38.6546 2.98933   3
   3   5  10 30.9602 6.62405   2
  -4  -5 -10 57.1547 14.3696   1
  -4  -5 -10 55.2450 8.03995   2
   4   5  10 68.1456 8.72688   2
   4   5  10 61.2598 18.7863   1
   4   5  10 57.5469 2.89549   3
   4   5  10 54.9022 3.16483   3
   4   5  10 59.8367 8.85369   2
  -5  -5 -10 23.4647 16.4520   1
  -5  -5 -10 19.7503 5.29706   2
  -5  -5 -10 8.76803 5.73725   2
   5   5  10 8.10601 1.26486   3
   5   5  10 9.36784 4.72240   2
   5   5  10 12.3470 5.60612   2
   5   5  10 6.37598 1.61527   3
   5   5  10 46.1323 20.6978   1
  -6  -5 -10 53.9718 8.59182   2
  -6  -5 -10 45.3114 21.5783   1
   6   5  10 50.7071 3.08332   3
   6   5  10 20.8901 21.7433   1
   6   5  10 54.8460 7.72022   2
   6   5  10 78.0962 9.79907   2
   6   5  10 56.7308 2.83599   3
  -7  -5 -10 -7.8357 4.03824   2
   7   5  10 -0.2534 1.52217   3
   7   5  10 2.23952 5.71766   2
   7   5  10 11.6588 6.14933   2
   7   5  10 -1.8423 1.55495   3
  -8  -5 -10 28.2742 8.78898   2
   8   5  10 42.7437 8.21323   2
   5  -6 -10 3.58651 4.80902   2
   5  -6 -10 -5.8223 3.64573   3
  -5   6  10 -2.7467 4.77149   2
   4  -6 -10 1.01079 4.63332   2
   4  -6 -10 5.58766 4.45932   3
  -4   6  10 -1.8649 4.23201   2
  -4   6  10 8.40437 4.84851   2
   3  -6 -10 30.2900 5.61168   3
  -3   6  10 23.1411 18.1774   1
  -3   6  10 22.2533 6.27960   2
  -3   6  10 21.1313 5.49493   2
   2  -6 -10 -2.5280 3.42961   2
   2  -6 -10 -2.2138 2.78541   3
  -2   6  10 -0.2201 3.70813   2
  -2   6  10 5.83439 14.4656   1
  -2   6  10 1.04798 4.28556   2
  -2   6  10 -0.3452 3.25870   3
   1  -6 -10 14.7979 4.08434   3
   1  -6 -10 15.7002 4.30072   2
   1  -6 -10 18.7447 5.32337   2
  -1   6  10 14.8857 3.97255   3
  -1   6  10 16.4674 5.43928   2
   0  -6 -10 31.0015 12.1440   1
   0  -6 -10 17.0114 5.07196   2
   0  -6 -10 24.4187 5.62672   2
   0  -6 -10 16.7560 3.68767   3
   0   6  10 20.4149 13.7709   1
   0   6  10 10.6012 4.99203   2
   0   6  10 10.0472 3.33141   3
   0   6  10 21.6560 5.04339   2
  -1  -6 -10 28.2385 3.98034   3
  -1  -6 -10 30.0583 6.69138   2
  -1  -6 -10 21.7369 5.24906   2
  -1  -6 -10 47.6858 14.1476   1
   1   6  10 23.7313 3.73694   3
   1   6  10 25.6339 5.57716   2
   1   6  10 14.4424 5.23591   2
   1   6  10 14.4767 13.9172   1
  -2  -6 -10 214.301 29.0420   1
  -2  -6 -10 267.892 13.1524   2
   2   6  10 253.411 13.3084   2
   2   6  10 269.211 14.5954   2
   2   6  10 183.385 29.5011   1
   2   6  10 292.717 10.5237   3
  -3  -6 -10 42.0487 16.4024   1
  -3  -6 -10 42.8198 6.57748   2
   3   6  10 44.1027 3.87919   3
   3   6  10 48.4182 7.67884   2
   3   6  10 33.8999 19.8346   1
   3   6  10 46.9044 7.30260   2
  -4  -6 -10 45.8803 6.90883   2
  -4  -6 -10 53.3849 18.5251   1
  -4  -6 -10 51.6979 7.95232   2
   4   6  10 69.2878 8.62395   2
   4   6  10 48.0735 3.68912   3
   4   6  10 42.6667 7.18901   2
   4   6  10 41.5780 15.3076   1
  -5  -6 -10 160.783 28.9282   1
  -5  -6 -10 211.944 12.5981   2
  -5  -6 -10 185.135 12.6444   2
   5   6  10 151.488 33.0173   1
   5   6  10 188.347 6.95287   3
   5   6  10 182.291 12.1161   2
   5   6  10 200.639 13.5428   2
   5   6  10 182.318 7.55263   3
  -6  -6 -10 36.6305 7.26543   2
  -6  -6 -10 27.7355 6.20889   2
  -6  -6 -10 50.7461 20.5407   1
   6   6  10 28.6811 7.25492   2
   6   6  10 29.5641 6.14904   2
   6   6  10 61.8448 28.2501   1
  -7  -6 -10 20.8871 46.2625   1
  -7  -6 -10 3.28484 5.09450   2
   7   6  10 -5.3489 6.03199   2
   7   6  10 -5.4851 4.78196   2
   7   6  10 0.12115 2.10205   3
   7   6  10 -10.385 29.4624   1
   8   6  10 17.7934 3.54357   3
   5  -7 -10 25.5695 6.38758   3
   5  -7 -10 28.9462 7.05898   2
  -5   7  10 27.3288 7.37445   2
   4  -7 -10 49.0128 8.06482   2
   4  -7 -10 42.5120 6.92755   3
  -4   7  10 33.2788 7.14139   2
  -4   7  10 41.3121 7.12978   2
   3  -7 -10 13.9384 5.92135   2
   3  -7 -10 6.36794 4.35320   3
  -3   7  10 10.6094 30.3900   1
  -3   7  10 14.2638 5.51472   2
  -3   7  10 17.3567 5.77548   2
   2  -7 -10 -1.7248 4.08609   2
   2  -7 -10 -5.5137 2.83907   3
  -2   7  10 -0.7440 3.85445   2
  -2   7  10 -2.1881 4.25215   2
  -2   7  10 14.8081 15.5845   1
  -2   7  10 13.9350 15.6372   1
   1  -7 -10 42.8842 7.19397   2
   1  -7 -10 50.6042 6.06461   3
   1  -7 -10 37.8177 7.34863   2
  -1   7  10 32.9580 6.66009   2
  -1   7  10 46.7382 5.86711   3
  -1   7  10 32.5228 26.6773   1
  -1   7  10 55.1472 23.3393   1
   0  -7 -10 20.0128 5.20003   2
   0  -7 -10 18.2687 14.3119   1
   0  -7 -10 6.21607 4.81111   2
   0  -7 -10 5.02267 3.35798   3
   0   7  10 5.31206 4.67056   2
   0   7  10 -0.7612 13.1389   1
   0   7  10 0.76171 3.76084   2
   0   7  10 5.08611 2.84069   3
  -1  -7 -10 57.8663 7.63909   2
  -1  -7 -10 50.9195 6.54432   2
  -1  -7 -10 67.9170 19.7349   1
  -1  -7 -10 51.3938 5.72910   3
   1   7  10 57.4438 8.33152   2
   1   7  10 49.8147 7.15901   2
   1   7  10 36.5718 15.7958   1
   1   7  10 53.9350 5.32214   3
  -2  -7 -10 3.63418 2.85891   3
  -2  -7 -10 3.43543 4.42125   2
  -2  -7 -10 -1.2656 3.44097   2
  -2  -7 -10 0.93045 11.2771   1
   2   7  10 6.85513 2.50460   3
   2   7  10 -12.941 11.1304   1
   2   7  10 2.67972 4.47236   2
   2   7  10 1.04509 3.89358   2
  -3  -7 -10 3.79938 4.28287   2
  -3  -7 -10 12.7979 16.1657   1
  -3  -7 -10 2.26955 3.74689   2
   3   7  10 5.60257 3.85806   2
   3   7  10 6.68294 2.46864   3
   3   7  10 3.68416 5.08368   2
   3   7  10 8.85827 14.7307   1
  -4  -7 -10 8.31406 5.51593   2
  -4  -7 -10 9.44527 4.41066   2
   4   7  10 3.37235 5.41237   2
   4   7  10 17.7496 14.7301   1
   4   7  10 5.52841 4.16435   2
   4   7  10 6.92172 2.32190   3
  -5  -7 -10 14.8312 17.7322   1
  -5  -7 -10 30.3992 5.44441   2
  -5  -7 -10 17.2681 6.01480   2
   5   7  10 21.2153 3.64889   3
   5   7  10 7.83210 18.9196   1
   5   7  10 17.0430 2.80836   3
   5   7  10 10.5558 5.51878   2
   5   7  10 17.0296 4.93385   2
  -6  -7 -10 2.37694 19.4035   1
  -6  -7 -10 -0.8265 4.09451   2
  -6  -7 -10 -8.3294 3.76324   2
   6   7  10 38.4233 26.3630   1
   6   7  10 3.47487 2.22283   3
   6   7  10 -3.9312 4.50400   2
   6   7  10 0.37650 4.99197   2
   6   7  10 -0.4443 2.57288   3
  -7  -7 -10 6.89509 5.10648   2
  -7  -7 -10 -9.5252 5.76902   2
   7   7  10 -8.7541 5.21193   2
   7   7  10 3.37841 2.46921   3
   7   7  10 -6.4149 2.57526   3
  -8  -7 -10 -3.2830 4.32573   2
   8   7  10 -13.017 5.36506   2
   8   7  10 2.36670 3.58545   3
   4  -8 -10 5.77909 5.49422   2
   4  -8 -10 13.5995 5.80357   3
  -4   8  10 16.5660 5.95781   2
   3  -8 -10 0.82502 3.89281   3
   3  -8 -10 0.19455 4.98669   2
  -3   8  10 -5.0737 6.47105   2
  -3   8  10 -3.0658 5.16849   2
   2  -8 -10 34.0915 7.25841   2
   2  -8 -10 25.6701 5.95905   3
  -2   8  10 10.0688 22.7811   1
  -2   8  10 7.56000 20.9499   1
  -2   8  10 15.2726 5.89344   2
  -2   8  10 17.7683 6.55402   2
   1  -8 -10 5.56004 3.85962   3
   1  -8 -10 14.0818 5.10438   2
   1  -8 -10 4.72255 4.65211   2
  -1   8  10 9.24039 5.53202   2
  -1   8  10 45.5907 21.1868   1
  -1   8  10 8.15517 4.23293   2
   0  -8 -10 1.06900 3.19783   3
   0  -8 -10 -1.7729 4.38875   2
   0  -8 -10 3.39302 3.39253   2
   0   8  10 3.08737 14.0383   1
   0   8  10 2.32682 4.61039   2
   0   8  10 3.76728 3.87040   3
  -1  -8 -10 5.17955 3.89439   2
  -1  -8 -10 -0.5029 3.15695   3
  -1  -8 -10 1.55993 3.80346   2
   1   8  10 -1.3501 2.71654   3
   1   8  10 1.35435 3.66012   2
   1   8  10 -18.250 12.2866   1
   1   8  10 -1.7993 4.25260   2
  -2  -8 -10 0.52252 4.47724   2
  -2  -8 -10 -7.0747 3.40587   2
  -2  -8 -10 -11.304 11.2169   1
  -2  -8 -10 1.23160 2.81809   3
   2   8  10 -4.1030 3.66421   2
   2   8  10 2.93775 2.26593   3
   2   8  10 -1.1281 4.26683   2
   2   8  10 -3.7374 13.9569   1
  -3  -8 -10 30.8257 16.5528   1
  -3  -8 -10 2.95765 3.70440   2
  -3  -8 -10 10.0178 5.12451   2
   3   8  10 3.89207 2.50701   3
   3   8  10 9.72912 5.31687   2
   3   8  10 -1.5508 12.5677   1
   3   8  10 5.67205 4.06065   2
  -4  -8 -10 55.3132 7.06909   2
  -4  -8 -10 19.3350 16.8702   1
  -4  -8 -10 49.9825 7.81427   2
   4   8  10 42.5334 7.70676   2
   4   8  10 49.3692 7.28810   2
   4   8  10 28.0265 21.4217   1
   4   8  10 45.4365 4.77862   3
  -5  -8 -10 0.97997 4.34349   2
  -5  -8 -10 24.4972 19.5747   1
   5   8  10 19.3431 20.0717   1
   5   8  10 14.8362 5.07570   2
   5   8  10 1.11601 4.98874   2
  -6  -8 -10 16.0809 5.07664   2
  -6  -8 -10 13.9883 6.18764   2
  -6  -8 -10 11.6391 22.8586   1
   6   8  10 6.72476 3.18809   3
   6   8  10 5.91280 2.94461   3
   6   8  10 12.2023 6.48261   2
   6   8  10 -21.855 23.0450   1
  -7  -8 -10 17.9876 10.3448   2
  -7  -8 -10 -5.1579 8.84041   2
   7   8  10 10.3179 3.68467   3
   7   8  10 -1.9194 5.22007   2
   7   8  10 -4.6568 2.92392   3
  -8  -8 -10 5.98816 6.15859   2
   8   8  10 10.2168 6.02828   2
   8   8  10 0.10123 3.66573   3
  -4   9  10 28.3793 7.72099   2
   3  -9 -10 5.14348 4.97103   3
   3  -9 -10 9.74922 5.39656   2
  -3   9  10 2.24961 7.76509   2
   2  -9 -10 4.10317 3.95683   3
   2  -9 -10 4.06842 5.39202   2
  -2   9  10 -13.632 5.21040   2
  -2   9  10 23.1361 23.4315   1
  -2   9  10 9.02328 6.53776   2
   1  -9 -10 17.5171 5.68794   2
   1  -9 -10 15.8269 5.66232   2
   1  -9 -10 11.7814 4.68230   3
  -1   9  10 8.89921 5.84104   2
  -1   9  10 37.2971 29.6734   1
   0  -9 -10 -1.7226 3.46016   2
   0  -9 -10 2.63287 4.04650   2
   0  -9 -10 1.88210 3.71810   3
   0   9  10 -3.7931 19.7797   1
   0   9  10 12.5363 18.7510   1
   0   9  10 8.82442 5.52178   2
  -1  -9 -10 13.7577 4.34332   3
  -1  -9 -10 34.1122 16.7973   1
  -1  -9 -10 16.7124 5.73323   2
  -1  -9 -10 12.2430 5.31338   2
   1   9  10 18.3639 6.28598   2
   1   9  10 16.7272 5.07684   2
   1   9  10 17.2382 18.8016   1
  -2  -9 -10 17.0747 5.62106   2
  -2  -9 -10 11.8728 3.72028   3
  -2  -9 -10 9.79611 15.0711   1
  -2  -9 -10 9.11752 4.05714   2
   2   9  10 3.01936 17.9080   1
   2   9  10 7.07322 3.04051   3
   2   9  10 16.4188 5.67332   2
  -3  -9 -10 11.5085 15.5797   1
  -3  -9 -10 6.50236 4.68665   2
  -3  -9 -10 3.02563 4.13501   2
   3   9  10 1.79573 4.61211   2
   3   9  10 1.99351 4.37807   2
   3   9  10 0.21314 2.38509   3
   3   9  10 3.47249 18.0835   1
  -4  -9 -10 27.6522 6.44870   2
  -4  -9 -10 3.64683 18.9196   1
  -4  -9 -10 38.3973 5.72995   2
   4   9  10 25.0363 4.08361   3
   4   9  10 22.5028 5.89842   2
   4   9  10 15.5294 6.44734   2
   4   9  10 5.53526 21.5469   1
  -5  -9 -10 7.32006 4.91472   2
  -5  -9 -10 9.89834 5.24945   2
  -5  -9 -10 -17.738 19.3617   1
   5   9  10 13.6868 23.1739   1
   5   9  10 5.85967 3.00738   3
   5   9  10 -0.1656 4.94984   2
  -6  -9 -10 6.15908 5.14087   2
   6   9  10 8.38496 5.63175   2
  -7  -9 -10 6.79810 4.63711   2
   7   9  10 0.22069 3.25319   3
   7   9  10 4.45581 5.97535   2
  -8  -9 -10 10.7328 6.64778   2
   8   9  10 6.39922 6.40985   2
   8   9  10 7.45608 7.26620   3
   3 -10 -10 -4.6108 5.22987   3
   3 -10 -10 10.3989 5.79014   2
  -3  10  10 5.34226 5.86827   2
   2 -10 -10 41.9718 7.24232   3
  -2  10  10 45.3577 8.37328   2
   1 -10 -10 -5.4885 4.62328   2
   1 -10 -10 3.90632 4.48709   2
   1 -10 -10 8.70866 4.49142   3
  -1  10  10 13.4685 6.06157   2
   0 -10 -10 16.8292 5.69178   2
   0 -10 -10 38.9401 6.39648   3
   0 -10 -10 30.7752 6.55764   2
   0  10  10 34.3819 7.15355   2
  -1 -10 -10 22.3543 5.91679   2
   1  10  10 20.8208 6.43075   2
   1  10  10 38.5827 24.9915   1
  -2 -10 -10 48.7279 6.95272   2
  -2 -10 -10 45.9090 6.26748   3
  -2 -10 -10 37.9007 7.36373   2
  -2 -10 -10 15.8689 21.5870   1
   2  10  10 14.2931 20.1662   1
   2  10  10 48.7015 8.29964   2
  -3 -10 -10 37.2445 6.44956   2
  -3 -10 -10 63.9764 8.34223   2
  -3 -10 -10 50.9897 23.7005   1
   3  10  10 61.9915 8.73666   2
   3  10  10 -0.4401 20.3131   1
  -4 -10 -10 3.48448 4.15465   2
  -4 -10 -10 1.65302 4.40659   2
   4  10  10 -5.4945 5.21828   2
  -5 -10 -10 5.65179 6.02931   2
  -5 -10 -10 4.73147 4.44459   2
   5  10  10 1.94867 5.17850   2
  -6 -10 -10 13.0431 5.37317   2
  -6 -10 -10 -8.2613 5.41970   2
   6  10  10 8.47233 6.14193   2
  -7 -10 -10 -6.3265 4.10473   2
   7  10  10 1.95029 5.86895   2
   7  10  10 -4.8684 3.78736   3
   2 -11 -10 1.82278 5.45630   2
  -2  11  10 2.91451 6.43563   2
   1 -11 -10 27.9262 6.68241   2
   1 -11 -10 8.37227 5.24941   3
  -1  11  10 18.1628 6.90385   2
   0 -11 -10 5.11741 5.38356   2
   0 -11 -10 0.35227 4.29683   3
   0  11  10 -12.157 4.37845   2
  -1 -11 -10 27.8173 6.58391   2
  -1 -11 -10 36.1577 6.89782   2
  -1 -11 -10 30.8052 6.22781   3
   1  11  10 28.6881 7.21533   2
  -2 -11 -10 59.4485 8.75161   2
  -2 -11 -10 62.8166 7.50125   3
  -2 -11 -10 57.0922 8.74029   2
   2  11  10 71.5847 10.0779   2
  -3 -11 -10 40.5515 7.02806   2
  -3 -11 -10 31.8806 6.77404   2
   3  11  10 18.6451 6.58542   2
  -4 -11 -10 -3.0335 4.23674   2
  -4 -11 -10 -6.0498 4.27078   2
   4  11  10 4.88961 4.97467   2
  -5 -11 -10 -7.0266 5.43409   2
  -5 -11 -10 13.1093 5.44901   2
   5  11  10 0.63072 5.09669   2
  -6 -11 -10 16.2354 6.04614   2
   6  11  10 19.5050 6.25498   2
  -7 -11 -10 15.0167 7.02404   2
   7  11  10 0.10053 6.23915   2
   0 -12 -10 6.14207 5.14903   3
   0 -12 -10 1.82894 4.77123   2
   0  12  10 11.9703 7.31517   2
  -1 -12 -10 -9.8458 4.47370   2
  -1 -12 -10 4.52374 4.14316   3
   1  12  10 4.76751 6.24615   2
  -2 -12 -10 1.17250 4.63422   2
  -2 -12 -10 9.39626 4.38972   3
   2  12  10 3.78244 5.79925   2
  -3 -12 -10 18.5981 5.75560   2
   3  12  10 6.26251 5.63792   2
  -4 -12 -10 22.6407 7.13203   2
   4  12  10 19.5446 6.47292   2
  -5 -12 -10 16.1491 6.33514   2
   5  12  10 8.78950 6.67032   2
  -6 -12 -10 -1.6227 4.87252   2
  -3 -13 -10 3.95027 5.49393   2
  -4 -13 -10 -4.7887 5.32121   2
   5   4 -11 1.71686 3.62539   3
   4   4 -11 5.36467 2.78076   3
   0  -4  11 9.08205 1.68660   2
   1  -4  11 -0.4355 2.34594   2
   2  -4  11 19.0466 5.72875   2
   5   3 -11 24.5776 4.58380   3
   4   3 -11 1.35902 2.54228   3
   3   3 -11 19.0593 4.53314   3
  -1  -3  11 4.13825 2.12250   2
  -1  -3  11 1.74269 2.73222   2
   0  -3  11 26.2577 4.00129   2
   1  -3  11 11.7444 3.87639   2
   1  -3  11 10.6492 3.10481   2
   2  -3  11 4.30001 3.67623   2
   2  -3  11 3.84939 2.82829   2
   3  -3  11 6.19151 3.88536   2
   6   2 -11 3.84128 4.12950   3
  -6  -2  11 5.37330 2.29558   2
   5   2 -11 2.02783 3.26996   3
  -5  -2  11 2.27407 2.27465   2
   4   2 -11 5.24585 2.93981   3
   4   2 -11 -5.5393 3.05514   3
  -4  -2  11 2.01345 2.06900   2
   3   2 -11 5.41190 3.64496   3
   3   2 -11 3.61006 2.44185   3
  -3  -2  11 -4.7503 11.4248   1
  -3  -2  11 3.85767 2.26158   2
  -3  -2  11 3.08438 2.32802   2
   2   2 -11 1.31239 1.54782   3
   2   2 -11 4.03505 1.05867   3
  -2  -2  11 -1.0125 11.5313   1
  -2  -2  11 3.81695 2.40943   2
  -2  -2  11 3.03127 2.58783   2
   1   2 -11 10.0523 3.33601   2
  -1  -2  11 12.0269 3.50519   2
   0   2 -11 16.9597 4.00817   2
   0  -2  11 16.9893 3.84990   2
   0  -2  11 22.9281 3.71047   2
  -1   2 -11 2.63330 3.81154   2
   1  -2  11 4.97706 3.20901   2
   1  -2  11 2.36801 3.52777   2
  -2   2 -11 2.02236 6.78448   2
   2  -2  11 -0.0785 3.48213   2
   2  -2  11 1.44006 3.61235   2
   3  -2  11 1.31038 4.13379   2
   4  -2  11 3.88220 6.64808   2
   6   1 -11 -1.4980 3.54194   3
  -6  -1  11 -4.2360 3.16746   2
   5   1 -11 17.3414 4.40916   3
  -5  -1  11 15.7078 3.89896   2
  -5  -1  11 20.6321 4.00598   2
   4   1 -11 3.03205 2.85519   3
   4   1 -11 -2.1802 2.95139   2
  -4  -1  11 -1.2069 2.58238   2
  -4  -1  11 1.84471 2.92634   2
   3   1 -11 21.1910 4.14408   2
   3   1 -11 28.6240 3.75667   3
  -3  -1  11 26.8503 4.57682   2
  -3  -1  11 33.4857 4.39958   2
  -3  -1  11 17.1857 13.5000   1
   2   1 -11 17.6787 2.16322   3
   2   1 -11 14.3160 1.94971   3
   2   1 -11 13.6516 3.78041   2
  -2  -1  11 9.79239 3.19245   2
  -2  -1  11 -5.7412 10.0311   1
  -2  -1  11 25.6221 4.31632   2
   1   1 -11 3.71999 3.36340   2
  -1  -1  11 -0.9054 3.00305   2
   0  -1  11 -1.8712 3.20950   2
  -1   1 -11 2.79079 3.66399   2
   1  -1  11 -0.6445 3.51002   2
  -2   1 -11 -0.5931 3.70641   2
   2  -1  11 10.3462 3.95035   2
   2  -1  11 9.32926 4.24557   2
  -3   1 -11 5.91027 4.25673   2
   3  -1  11 1.99632 4.20243   2
   3  -1  11 4.52029 3.67698   2
  -4   1 -11 -1.2894 4.62549   2
   4  -1  11 4.90923 4.04563   2
   4  -1  11 1.19656 4.37763   2
   6   0 -11 8.98314 3.98721   3
  -6   0  11 20.6448 4.48359   2
   5   0 -11 15.4506 4.50458   3
  -5   0  11 16.6464 4.15090   2
  -5   0  11 9.41734 4.23338   2
   4   0 -11 37.8922 5.19007   3
  -4   0  11 32.7866 5.37176   2
  -4   0  11 34.9418 5.21826   2
   3   0 -11 42.0769 4.61947   3
  -3   0  11 36.0481 12.8810   1
  -3   0  11 40.0020 5.68009   2
  -3   0  11 36.9327 6.70755   2
   2   0 -11 6.71459 2.04984   3
   2   0 -11 7.24629 4.09138   2
  -2   0  11 8.86442 11.6683   1
  -2   0  11 2.96119 3.42365   2
   1   0 -11 37.9536 5.75288   2
  -1   0  11 35.4467 5.42332   2
   0   0 -11 127.719 9.10445   2
   0   0  11 142.992 8.67954   2
   0   0  11 142.927 9.40230   2
  -1   0 -11 79.0103 7.50091   2
   1   0  11 96.5543 7.64714   2
   1   0  11 88.2105 7.84930   2
  -2   0 -11 5.82183 3.63135   2
   2   0  11 15.6544 3.98315   2
   2   0  11 -1.9372 3.83036   2
  -3   0 -11 1.67727 4.02232   2
   3   0  11 0.13027 4.18468   2
   3   0  11 8.70489 3.79302   2
   4   0  11 58.2071 8.32580   2
   4   0  11 43.9406 6.11873   2
  -5   0 -11 -1.5090 4.89058   2
   5   0  11 -8.1620 4.77004   2
   6  -1 -11 2.99802 3.90428   3
  -6   1  11 -1.6807 6.31520   2
  -6   1  11 -0.5732 5.23242   2
   5  -1 -11 -0.6691 4.15959   3
   5  -1 -11 1.13309 4.38207   2
  -5   1  11 4.31545 4.02484   2
   4  -1 -11 75.2680 6.66722   3
   4  -1 -11 57.0235 7.45901   2
  -4   1  11 82.3274 7.61501   2
  -4   1  11 65.0120 7.47180   2
   3  -1 -11 29.2513 4.26017   3
   3  -1 -11 25.4463 5.10384   2
  -3   1  11 23.9972 15.0402   1
  -3   1  11 29.3193 5.13733   2
  -3   1  11 25.2977 5.22241   2
   2  -1 -11 118.539 8.66883   2
  -2   1  11 94.6349 18.1379   1
  -2   1  11 107.123 8.73609   2
  -2   1  11 136.898 8.67320   2
   1  -1 -11 55.7705 2.35675   3
   1  -1 -11 74.5930 7.30144   2
  -1   1  11 76.1209 7.05874   2
  -1   1  11 78.0346 8.77879   2
   0  -1 -11 3.79773 3.48287   2
   0   1  11 1.43232 3.28584   2
  -1  -1 -11 22.8919 4.36862   2
   1   1  11 26.8978 5.11458   2
  -2  -1 -11 4.38277 4.24563   2
   2   1  11 16.7966 4.09952   2
   2   1  11 21.5242 5.46497   2
  -3  -1 -11 7.96366 4.03052   2
   3   1  11 1.27481 3.01316   2
   3   1  11 8.78168 4.84660   2
  -4  -1 -11 27.1456 5.93242   2
   4   1  11 20.1501 6.09823   2
  -5  -1 -11 17.8913 5.95493   2
   5   1  11 11.6921 5.26660   2
   5   1  11 18.5680 5.89704   2
  -6  -1 -11 14.0116 6.21916   2
   6   1  11 13.3153 5.70660   2
   6  -2 -11 -8.5181 3.28738   3
  -6   2  11 4.84936 5.33179   2
  -6   2  11 -3.2932 7.14505   2
   5  -2 -11 23.3559 5.47225   2
   5  -2 -11 35.3061 5.90472   3
  -5   2  11 26.2823 5.12779   2
  -5   2  11 29.0187 5.96356   2
   4  -2 -11 12.8311 4.21108   3
   4  -2 -11 6.75293 4.21484   2
  -4   2  11 22.2620 5.37034   2
  -4   2  11 18.0427 4.13346   2
   3  -2 -11 1.00871 3.67888   2
   3  -2 -11 6.89766 3.16778   3
  -3   2  11 2.00977 4.02840   2
  -3   2  11 29.6982 23.3221   1
  -3   2  11 5.42478 3.51507   2
   2  -2 -11 24.9840 5.38110   2
   2  -2 -11 29.4571 4.30099   3
  -2   2  11 6.09602 17.2187   1
  -2   2  11 34.4358 5.38549   2
  -2   2  11 29.3472 5.79830   2
   1  -2 -11 7.15960 1.90463   3
   1  -2 -11 8.98122 3.93140   2
  -1   2  11 12.7544 7.02437   2
  -1   2  11 3.67652 3.71609   2
   0  -2 -11 44.1816 5.92769   2
   0   2  11 39.6606 5.67647   2
   1   2  11 10.7046 3.62810   2
   1   2  11 3.34594 4.30508   2
  -2  -2 -11 0.03219 3.45861   2
   2   2  11 4.66796 5.12896   2
  -3  -2 -11 -0.6154 3.38928   2
   3   2  11 -4.7399 6.02080   2
  -4  -2 -11 1.41970 4.39409   2
   4   2  11 -4.2661 2.92181   2
   4   2  11 6.82486 5.49679   2
  -5  -2 -11 4.62252 5.22062   2
   5   2  11 2.91785 4.58885   2
   5   2  11 -3.0274 4.70980   2
  -6  -2 -11 4.15557 5.35961   2
   6   2  11 7.87654 5.50735   2
   7   2  11 9.22279 5.83315   2
   6  -3 -11 4.40322 4.01475   3
   5  -3 -11 20.5276 5.08964   3
  -5   3  11 13.1500 5.12956   2
  -5   3  11 26.7368 6.60694   2
   4  -3 -11 46.8089 6.26579   3
  -4   3  11 55.6117 8.08173   2
  -4   3  11 69.8551 6.90119   2
   3  -3 -11 6.68469 3.38082   3
   3  -3 -11 7.04951 6.46458   2
  -3   3  11 13.3255 3.67082   2
  -3   3  11 -10.513 17.4138   1
  -3   3  11 13.6682 5.01392   2
   2  -3 -11 16.6046 3.59426   3
   2  -3 -11 16.4059 4.57070   2
  -2   3  11 15.1057 3.08693   3
  -2   3  11 7.85520 6.83357   2
  -2   3  11 6.70960 12.2527   1
   1  -3 -11 16.1449 5.03483   2
  -1   3  11 17.0906 5.41413   2
  -1   3  11 9.34375 2.66757   3
   0  -3 -11 87.7582 7.65911   2
   0  -3 -11 76.3008 3.21001   3
   0   3  11 73.2298 7.99741   2
  -1  -3 -11 5.52597 3.93625   2
   1   3  11 6.09598 4.36855   2
   1   3  11 2.30498 3.44550   2
  -2  -3 -11 90.0676 8.82725   2
   2   3  11 84.9463 9.09558   2
   2   3  11 87.5864 8.03392   2
  -3  -3 -11 29.5397 6.46237   2
   3   3  11 24.1370 4.99689   2
   3   3  11 23.4349 6.26337   2
  -4  -3 -11 1.81649 4.35427   2
   4   3  11 8.61077 3.62897   2
  -5  -3 -11 -0.4674 4.67297   2
   5   3  11 -7.1042 4.20291   2
   5   3  11 3.84364 4.57201   2
   6   3  11 -14.457 7.07380   2
   6   3  11 27.3605 6.71670   2
  -7  -3 -11 1.85257 5.86798   2
   7   3  11 4.47230 5.22968   2
   6  -4 -11 8.11372 4.55579   3
   5  -4 -11 102.640 9.95673   2
   5  -4 -11 102.218 9.45932   3
  -5   4  11 118.134 9.57234   2
  -5   4  11 123.387 11.5322   2
   4  -4 -11 -6.0994 3.67439   2
   4  -4 -11 3.51758 3.76468   3
  -4   4  11 6.94547 5.27985   2
  -4   4  11 0.37917 4.19879   2
   3  -4 -11 15.5565 4.13921   3
   3  -4 -11 9.76070 4.85290   2
  -3   4  11 22.1073 5.05490   2
  -3   4  11 19.9866 4.25603   3
  -3   4  11 19.6083 5.95292   2
   2  -4 -11 4.01021 2.89337   3
   2  -4 -11 -0.2230 3.47002   2
  -2   4  11 4.22316 2.56886   3
  -2   4  11 -3.4120 6.47904   2
  -2   4  11 6.88427 11.7314   1
  -2   4  11 4.86966 3.52451   2
   1  -4 -11 32.7260 6.33202   2
   1  -4 -11 36.2946 4.54979   3
  -1   4  11 32.1595 6.34235   2
  -1   4  11 36.0708 4.52494   3
   0  -4 -11 107.408 5.33271   3
   0  -4 -11 103.339 8.73145   2
   0   4  11 109.385 9.84801   2
   0   4  11 91.7984 8.44941   2
   0   4  11 99.6025 5.23147   3
  -1  -4 -11 10.9239 5.15639   2
   1   4  11 10.9794 13.5483   1
   1   4  11 4.58525 3.98011   2
   1   4  11 9.06000 4.76063   2
  -2  -4 -11 97.6308 8.76666   2
   2   4  11 80.7008 25.5672   1
   2   4  11 77.1428 8.68301   2
   2   4  11 73.4341 7.76579   2
  -3  -4 -11 305.567 15.1797   2
   3   4  11 298.055 14.4155   2
   3   4  11 343.617 16.7385   2
  -4  -4 -11 61.4227 8.77674   2
   4   4  11 52.1454 8.12913   2
   4   4  11 62.3223 8.59464   2
  -5  -4 -11 14.9002 5.81564   2
   5   4  11 -1.6460 4.45933   2
  -6  -4 -11 99.4341 10.3631   2
   6   4  11 82.3003 9.20662   2
   6   4  11 106.350 11.0819   2
  -7  -4 -11 -1.9844 5.38438   2
   7   4  11 -5.3812 4.59574   2
   5  -5 -11 57.3385 8.23995   2
   5  -5 -11 53.9103 8.02675   3
  -5   5  11 60.9456 9.27333   2
   4  -5 -11 95.1498 8.95688   3
   4  -5 -11 78.3139 9.53807   2
  -4   5  11 79.6650 9.64366   2
  -4   5  11 96.5445 10.5312   2
   3  -5 -11 -3.6338 3.13484   3
   3  -5 -11 1.40435 3.56477   2
  -3   5  11 -11.081 4.13957   2
   2  -5 -11 -1.1817 2.85928   3
   2  -5 -11 7.31596 4.13748   2
  -2   5  11 8.03647 3.20427   3
  -2   5  11 14.2488 9.02478   2
  -2   5  11 -0.2221 3.42179   2
  -2   5  11 -5.1401 12.7215   1
   1  -5 -11 11.7149 3.34595   3
   1  -5 -11 7.72505 4.47855   2
  -1   5  11 7.11034 2.88291   3
  -1   5  11 12.5816 5.57905   2
   0  -5 -11 46.4777 5.80840   3
   0  -5 -11 47.3982 7.11337   2
   0   5  11 40.0821 7.02936   2
   0   5  11 8.26122 14.8769   1
   0   5  11 50.0824 7.17636   2
   0   5  11 44.0383 4.56071   3
  -1  -5 -11 25.5138 5.92487   2
  -1  -5 -11 41.3964 15.2840   1
  -1  -5 -11 19.1245 2.76819   3
   1   5  11 15.2841 4.78346   2
   1   5  11 25.0849 5.74049   2
   1   5  11 12.2587 12.5720   1
   1   5  11 20.6839 2.83837   3
  -2  -5 -11 68.8031 18.9998   1
  -2  -5 -11 52.6281 7.80793   2
   2   5  11 54.3625 7.98804   2
   2   5  11 49.8155 3.17397   3
   2   5  11 63.3732 7.26412   2
   2   5  11 31.4150 16.3343   1
  -3  -5 -11 12.0703 15.6552   1
  -3  -5 -11 19.6267 5.84009   2
   3   5  11 10.5112 5.11073   2
   3   5  11 16.0057 16.8420   1
   3   5  11 15.2372 5.02698   2
  -4  -5 -11 208.500 14.2353   2
   4   5  11 199.900 14.4177   2
   4   5  11 259.978 14.7419   2
  -5  -5 -11 22.4900 6.32856   2
   5   5  11 18.0404 6.25322   2
   5   5  11 15.7071 6.01068   2
  -6  -5 -11 30.0839 7.93051   2
   6   5  11 20.7697 6.64895   2
   6   5  11 14.5007 6.41316   2
  -7  -5 -11 6.42906 5.60611   2
   7   5  11 5.63199 5.58587   2
   5  -6 -11 4.95494 5.80425   2
   5  -6 -11 8.82834 5.19955   3
  -5   6  11 8.20883 6.51926   2
   4  -6 -11 134.865 10.4313   3
   4  -6 -11 118.943 13.4384   2
  -4   6  11 114.102 11.2586   2
   3  -6 -11 39.9732 7.03000   2
  -3   6  11 58.1317 8.82788   2
  -3   6  11 38.6391 6.48873   2
   2  -6 -11 9.48988 4.64099   2
   2  -6 -11 2.17169 3.50605   3
  -2   6  11 -19.135 15.9213   1
  -2   6  11 11.4455 4.88444   2
  -2   6  11 2.03682 7.68538   2
   1  -6 -11 -0.8981 3.92882   2
   1  -6 -11 3.06975 3.06944   3
  -1   6  11 2.34293 4.36327   2
  -1   6  11 -0.7751 3.34750   3
   0  -6 -11 -0.9358 2.44074   3
   0  -6 -11 1.80227 15.0804   1
   0  -6 -11 -1.5313 3.45836   2
   0   6  11 -5.8705 12.6646   1
   0   6  11 6.02499 3.76933   2
   0   6  11 1.46570 3.99936   2
   0   6  11 -6.4027 2.31551   3
  -1  -6 -11 21.0712 5.68501   2
  -1  -6 -11 21.2916 3.44884   3
  -1  -6 -11 29.3115 15.9633   1
  -1  -6 -11 18.9072 7.07103   2
   1   6  11 17.2645 6.07361   2
   1   6  11 22.2424 5.43593   2
   1   6  11 20.2555 3.49553   3
   1   6  11 -3.5593 14.1128   1
  -2  -6 -11 86.4171 8.02299   2
  -2  -6 -11 82.3640 11.0843   2
  -2  -6 -11 82.4546 19.5673   1
   2   6  11 84.1464 6.73998   3
   2   6  11 94.0999 9.42721   2
   2   6  11 79.9215 8.39197   2
   2   6  11 55.5955 21.7023   1
  -3  -6 -11 275.517 34.1101   1
  -3  -6 -11 288.051 24.7265   2
  -3  -6 -11 318.024 15.5655   2
   3   6  11 318.360 9.21804   3
   3   6  11 333.198 16.2914   2
   3   6  11 339.962 17.1973   2
   3   6  11 293.890 40.4459   1
  -4  -6 -11 -13.287 15.4860   1
  -4  -6 -11 1.76114 4.25761   2
   4   6  11 -0.0354 1.25204   3
   4   6  11 3.54483 1.35942   3
   4   6  11 2.02149 4.26553   2
   4   6  11 21.7089 17.8773   1
   4   6  11 -0.8206 4.55320   2
  -5  -6 -11 1.77634 4.86862   2
   5   6  11 2.26454 1.20597   3
   5   6  11 0.32939 1.08189   3
   5   6  11 -3.6294 23.5229   1
   5   6  11 10.5014 6.19791   2
   5   6  11 -3.6240 4.35363   2
  -6  -6 -11 11.6166 5.56399   2
   6   6  11 16.2228 6.77213   2
   6   6  11 5.29147 6.19032   2
  -7  -6 -11 -7.7049 4.96802   2
   7   6  11 2.90218 5.49392   2
   4  -7 -11 63.0189 8.66296   3
   4  -7 -11 91.5774 9.98627   2
  -4   7  11 105.356 11.6507   2
   3  -7 -11 2.46885 3.92948   2
   3  -7 -11 -1.7521 3.57047   3
  -3   7  11 1.61128 4.96815   2
  -3   7  11 -1.9507 5.17980   2
   2  -7 -11 -1.5487 3.49568   3
   2  -7 -11 2.23219 4.07466   2
  -2   7  11 10.4739 5.23129   2
   1  -7 -11 10.2771 5.22450   2
   1  -7 -11 17.0882 4.40118   3
  -1   7  11 38.0981 25.9536   1
  -1   7  11 25.7089 6.93738   2
  -1   7  11 15.8488 4.65740   2
   0  -7 -11 5.89028 15.5102   1
   0  -7 -11 2.60912 3.11190   3
   0  -7 -11 2.83158 4.21724   2
   0   7  11 4.42727 4.73313   3
   0   7  11 -1.8494 4.34800   2
   0   7  11 11.0646 13.8300   1
   0   7  11 -3.2091 3.99492   2
  -1  -7 -11 -0.2490 4.13839   2
  -1  -7 -11 15.8587 3.34809   3
  -1  -7 -11 13.8167 4.31041   2
  -1  -7 -11 -19.963 13.8838   1
   1   7  11 -3.6642 3.89957   2
   1   7  11 17.1955 4.77210   2
   1   7  11 4.37474 2.65442   3
   1   7  11 4.25208 15.2254   1
  -2  -7 -11 27.2989 5.38581   2
  -2  -7 -11 17.6012 5.85752   2
  -2  -7 -11 30.3951 17.0393   1
   2   7  11 23.4026 6.32908   2
   2   7  11 16.6815 2.92152   3
   2   7  11 38.3866 17.9731   1
   2   7  11 11.5090 4.65461   2
  -3  -7 -11 1.29778 3.57939   2
  -3  -7 -11 32.2794 15.2646   1
  -3  -7 -11 10.9546 5.26157   2
   3   7  11 7.26243 2.29683   3
   3   7  11 2.57273 4.86404   2
   3   7  11 -6.1043 16.0914   1
   3   7  11 1.10334 4.86020   2
  -4  -7 -11 32.2721 5.95536   2
  -4  -7 -11 28.1788 6.36631   2
  -4  -7 -11 24.8133 17.7856   1
   4   7  11 27.9152 3.76833   3
   4   7  11 28.1030 7.47934   2
  -5  -7 -11 62.7502 9.16199   2
  -5  -7 -11 50.9517 20.5315   1
   5   7  11 53.1820 8.86263   2
   5   7  11 58.5979 8.92078   2
   5   7  11 88.3284 28.6461   1
  -6  -7 -11 -0.5161 4.48469   2
   6   7  11 -18.295 6.53264   2
   6   7  11 10.4885 5.85433   2
  -7  -7 -11 16.8218 8.63890   2
   4  -8 -11 -0.5283 4.61530   3
   4  -8 -11 5.48724 5.54510   2
  -4   8  11 1.77721 6.22838   2
   3  -8 -11 43.7757 8.19386   2
   3  -8 -11 52.5203 7.93243   3
  -3   8  11 58.7519 9.14336   2
   2  -8 -11 1.23621 3.83026   3
   2  -8 -11 6.91988 5.19586   2
  -2   8  11 -3.9705 5.14372   2
  -2   8  11 2.23816 5.64088   2
   1  -8 -11 16.9097 5.95663   2
   1  -8 -11 34.7172 5.94956   3
  -1   8  11 34.6116 7.44748   2
  -1   8  11 13.9647 5.52937   2
  -1   8  11 -5.0966 24.6100   1
   0  -8 -11 3.59667 4.43544   2
   0  -8 -11 6.76233 3.58364   3
   0   8  11 10.2295 5.57704   2
   0   8  11 14.3005 22.8397   1
  -1  -8 -11 24.0828 17.0705   1
  -1  -8 -11 18.0345 4.09871   3
  -1  -8 -11 10.7925 4.98524   2
  -1  -8 -11 15.1966 4.81577   2
   1   8  11 13.0242 5.54518   2
   1   8  11 5.72826 4.57785   2
   1   8  11 8.89096 21.3979   1
   1   8  11 19.0032 3.65674   3
  -2  -8 -11 16.1092 5.72385   2
  -2  -8 -11 27.2330 7.20363   2
  -2  -8 -11 1.32412 25.6266   1
  -2  -8 -11 14.5225 3.30842   3
   2   8  11 14.4186 5.84085   2
   2   8  11 4.86091 4.67055   2
   2   8  11 -1.7340 22.3896   1
   2   8  11 12.8743 3.08459   3
  -3  -8 -11 9.81440 21.9039   1
  -3  -8 -11 1.92942 4.23175   2
   3   8  11 -1.7446 2.12341   3
   3   8  11 -1.6848 4.71934   2
   3   8  11 12.1408 4.73616   2
  -4  -8 -11 -9.6634 3.94792   2
  -4  -8 -11 0.20828 4.40395   2
   4   8  11 -21.332 24.8818   1
   4   8  11 0.92217 4.66357   2
   4   8  11 -3.2692 1.97519   3
   4   8  11 8.24785 5.33733   2
  -5  -8 -11 -27.498 20.7906   1
  -5  -8 -11 -2.4976 4.95356   2
  -5  -8 -11 -3.3513 4.58455   2
   5   8  11 45.1824 24.9737   1
   5   8  11 -3.5834 5.25075   2
   5   8  11 3.01948 2.28504   3
   5   8  11 1.89033 4.99943   2
  -6  -8 -11 9.21976 5.51724   2
   6   8  11 10.1626 3.28111   3
   6   8  11 11.4581 6.45939   2
  -7  -8 -11 10.2819 5.46438   2
   7   8  11 6.14970 3.34026   3
   7   8  11 2.16133 6.08357   2
   3  -9 -11 1.75648 4.19048   3
   3  -9 -11 12.3441 5.86337   2
  -3   9  11 6.39200 6.12020   2
   2  -9 -11 16.8650 5.53828   3
   2  -9 -11 18.9180 6.23422   2
  -2   9  11 15.3569 7.37870   2
   1  -9 -11 22.7754 5.17186   3
   1  -9 -11 15.1771 5.76967   2
  -1   9  11 13.6233 6.62535   2
  -1   9  11 9.54142 6.49684   2
   0  -9 -11 -4.5448 3.82887   2
   0  -9 -11 11.7118 6.48806   3
   0   9  11 46.1038 24.9062   1
   0   9  11 -27.508 20.4869   1
   0   9  11 3.36263 5.23137   2
  -1  -9 -11 5.54679 4.33241   2
  -1  -9 -11 3.23664 4.25352   2
  -1  -9 -11 0.16747 3.20486   3
  -1  -9 -11 2.47172 16.9494   1
   1   9  11 3.72012 4.99356   2
   1   9  11 -9.6253 19.7632   1
  -2  -9 -11 0.80285 4.10495   2
  -2  -9 -11 0.89607 3.01442   3
  -2  -9 -11 45.4142 26.2762   1
   2   9  11 3.57677 4.89262   2
   2   9  11 4.95046 22.4665   1
   2   9  11 0.24052 9.02091   2
  -3  -9 -11 -6.1668 19.2733   1
  -3  -9 -11 12.6341 9.58907   2
  -3  -9 -11 8.88391 4.79178   2
   3   9  11 11.3020 5.86411   2
   3   9  11 -32.294 20.1863   1
   3   9  11 13.8040 3.22691   3
   3   9  11 3.34940 4.66928   2
  -4  -9 -11 2.43055 4.69311   2
  -4  -9 -11 -18.798 22.0050   1
   4   9  11 -10.564 4.60394   2
   4   9  11 -0.1324 2.84502   3
   4   9  11 26.8562 24.6180   1
  -5  -9 -11 22.4973 6.49168   2
   5   9  11 10.3221 6.23863   2
  -6  -9 -11 12.5302 6.56070   2
   6   9  11 12.4576 5.90446   2
   6   9  11 6.69759 3.88579   3
  -7  -9 -11 19.4510 6.14265   2
   7   9  11 6.21773 5.81882   2
   7   9  11 15.3214 4.24049   3
   2 -10 -11 50.8162 7.91848   3
   2 -10 -11 62.1291 10.9678   2
  -2  10  11 53.6665 9.46041   2
   1 -10 -11 7.83073 4.94107   3
   1 -10 -11 -5.6000 6.87774   2
  -1  10  11 8.50916 7.67375   2
   0 -10 -11 43.1967 6.82314   3
   0 -10 -11 42.6297 7.61466   2
   0  10  11 55.6473 9.38348   2
  -1 -10 -11 67.7673 8.60443   2
  -1 -10 -11 66.4026 7.30176   3
  -1 -10 -11 73.5708 9.25551   2
   1  10  11 85.4857 10.3315   2
  -2 -10 -11 133.874 11.2869   3
  -2 -10 -11 127.318 11.2848   2
   2  10  11 126.215 11.7451   2
  -3 -10 -11 55.1400 8.20282   2
  -3 -10 -11 40.6129 7.68960   2
   3  10  11 39.6868 7.42669   2
  -4 -10 -11 1.13842 5.23906   2
   4  10  11 6.04806 5.66859   2
  -5 -10 -11 10.5466 5.41882   2
   5  10  11 1.56599 6.02430   2
  -6 -10 -11 8.57852 5.57973   2
   6  10  11 0.51717 5.54901   2
   1 -11 -11 -6.6564 3.82968   3
   1 -11 -11 -5.8327 3.97452   2
   0 -11 -11 39.1453 7.13285   2
   0 -11 -11 50.8477 7.73522   3
   0  11  11 63.4630 9.58685   2
  -1 -11 -11 4.93021 5.27044   2
  -1 -11 -11 -0.4849 3.77836   3
   1  11  11 -2.2283 5.18547   2
  -2 -11 -11 45.7018 8.18221   2
  -2 -11 -11 38.7674 6.02411   3
   2  11  11 52.9933 8.76233   2
  -3 -11 -11 81.5809 9.74137   2
   3  11  11 64.5202 9.70994   2
  -4 -11 -11 13.3596 6.10911   2
   4  11  11 16.6821 6.38363   2
  -5 -11 -11 17.6907 6.25329   2
   5  11  11 21.4456 7.19721   2
  -6 -11 -11 -0.0028 5.76055   2
   6  11  11 -6.4667 6.11464   2
  -1 -12 -11 34.4416 6.43900   3
   1  12  11 31.0432 8.03741   2
  -2 -12 -11 52.8789 7.56453   3
  -2 -12 -11 70.1677 9.27111   2
   2  12  11 67.8338 9.93307   2
  -3 -12 -11 90.4135 10.5163   2
   3  12  11 85.0180 11.5635   2
  -4 -12 -11 10.6484 6.07651   2
   4  12  11 19.0780 8.09699   2
  -1  -3  12 15.9740 2.02219   2
  -1  -3  12 18.2387 1.96629   2
   0  -3  12 4.64138 2.56998   2
   1  -3  12 16.7856 4.31731   2
   4   2 -12 2.05011 2.46667   3
  -4  -2  12 -2.0224 1.64432   2
  -4  -2  12 0.30326 1.50053   2
   3   2 -12 2.55994 1.97285   3
  -3  -2  12 1.62647 2.18431   2
  -3  -2  12 -1.9973 2.58196   2
  -2  -2  12 2.90692 2.55059   2
  -1  -2  12 20.8361 3.81330   2
   0  -2  12 3.19926 3.32563   2
   1  -2  12 16.7371 3.76728   2
   1  -2  12 11.1652 4.16586   2
   2  -2  12 7.03199 6.48009   2
   2  -2  12 4.81229 3.71931   2
   3  -2  12 6.86238 4.42927   2
   3  -2  12 2.03936 4.44235   2
   5   1 -12 23.6431 7.93538   3
  -5  -1  12 17.3843 5.60384   2
   4   1 -12 1.14015 2.50288   3
  -4  -1  12 0.00061 3.49233   2
  -4  -1  12 3.99130 3.17637   2
  -3  -1  12 -1.4522 2.82665   2
  -3  -1  12 -0.4447 2.91785   2
   2   1 -12 1.06404 3.63169   2
  -2  -1  12 3.98106 2.68095   2
  -2  -1  12 2.32835 3.09670   2
   1   1 -12 18.3428 4.56052   2
  -1  -1  12 21.3506 4.51683   2
   0   1 -12 115.462 8.78447   2
   0  -1  12 135.171 8.13576   2
   0  -1  12 123.882 8.83830   2
  -1   1 -12 6.14295 4.19594   2
   1  -1  12 4.01592 3.49043   2
   1  -1  12 1.41924 3.80432   2
   2  -1  12 4.19590 4.47213   2
   2  -1  12 -0.8129 4.78672   2
   3  -1  12 101.819 9.84418   2
   4  -1  12 1.34853 5.42361   2
   5   0 -12 3.14064 3.88538   3
  -5   0  12 -5.9717 3.19696   2
   4   0 -12 -2.8364 2.48366   3
  -4   0  12 -5.6978 2.89322   2
  -4   0  12 4.95242 3.39586   2
   3   0 -12 25.4545 3.27366   3
   3   0 -12 34.5219 5.60816   2
  -3   0  12 22.2321 4.39244   2
  -3   0  12 23.8908 5.02341   2
   2   0 -12 7.35688 1.49497   3
   2   0 -12 3.33870 1.25678   3
   2   0 -12 8.94291 4.23520   2
  -2   0  12 4.96217 3.88698   2
  -2   0  12 6.53005 3.30628   2
  -1   0  12 57.5949 7.14806   2
   0   0 -12 74.7843 8.70216   2
   0   0  12 83.1597 8.28523   2
  -1   0 -12 29.3763 5.88086   2
   1   0  12 13.6287 5.05927   2
  -2   0 -12 16.5121 5.29186   2
   2   0  12 18.8181 4.52133   2
   2   0  12 8.25033 4.91844   2
  -3   0 -12 5.25464 4.78819   2
   3   0  12 7.20210 4.25917   2
   3   0  12 6.73501 4.73740   2
   4   0  12 -1.4067 4.83794   2
   4   0  12 -2.3612 4.51338   2
   5  -1 -12 4.96291 3.43411   3
  -5   1  12 1.53247 4.15201   2
   4  -1 -12 1.06507 2.80073   3
  -4   1  12 3.13164 5.60048   2
  -4   1  12 -4.5721 3.56401   2
   3  -1 -12 14.3229 3.14604   3
   3  -1 -12 16.3916 5.72995   2
  -3   1  12 14.3231 4.95558   2
   2  -1 -12 -0.5889 1.56477   3
   2  -1 -12 1.71686 4.09017   2
  -2   1  12 5.11106 4.14708   2
  -2   1  12 7.18091 6.50912   2
   1  -1 -12 18.3746 4.87537   2
  -1   1  12 15.3714 4.84451   2
   0   1  12 207.918 12.0557   2
   0   1  12 239.940 11.8272   2
  -1  -1 -12 32.0848 5.71660   2
   1   1  12 30.6787 5.90587   2
   1   1  12 25.1700 4.85734   2
  -2  -1 -12 -3.0546 2.99373   2
   2   1  12 0.77363 4.50326   2
   2   1  12 0.59420 2.84365   2
  -3  -1 -12 7.23003 4.70856   2
   3   1  12 10.5362 5.13582   2
   3   1  12 5.85987 3.88336   2
  -4  -1 -12 21.0693 5.57454   2
   4   1  12 20.4943 6.44050   2
   5   1  12 10.9280 5.61695   2
   5  -2 -12 1.87527 3.43906   3
  -5   2  12 6.87864 7.22907   2
   4  -2 -12 4.51763 3.38682   3
  -4   2  12 6.07753 4.08927   2
  -4   2  12 -0.2259 4.13827   2
   3  -2 -12 21.9688 5.18747   2
   3  -2 -12 15.7948 3.55559   3
  -3   2  12 30.5732 6.09158   2
  -3   2  12 26.2141 4.60517   2
   2  -2 -12 -3.1665 3.56181   2
  -2   2  12 2.71355 3.26794   2
  -2   2  12 2.10306 4.05787   2
   1  -2 -12 53.6915 6.94169   2
  -1   2  12 38.2003 6.43828   2
   0  -2 -12 170.241 11.0791   2
   0   2  12 236.002 11.6413   2
  -1  -2 -12 21.0959 5.41727   2
   1   2  12 34.4063 6.52609   2
   1   2  12 22.7797 4.46868   2
  -2  -2 -12 2.94168 4.70566   2
   2   2  12 9.24028 4.65824   2
   2   2  12 14.0765 3.36529   2
  -3  -2 -12 1.74289 3.94490   2
   3   2  12 -3.0938 4.50968   2
  -4  -2 -12 -1.4811 4.70519   2
   4   2  12 0.50799 4.96622   2
   4   2  12 8.15891 4.37580   2
  -5  -2 -12 -2.6901 5.11553   2
   5   2  12 -8.6061 4.50497   2
   5  -3 -12 4.28354 4.08751   3
   4  -3 -12 8.59774 4.55275   2
   4  -3 -12 1.49445 3.14955   3
  -4   3  12 0.39750 3.84884   2
  -4   3  12 -3.0246 4.65463   2
   3  -3 -12 -2.6155 3.38876   2
   3  -3 -12 -1.4745 2.85014   3
  -3   3  12 11.4151 3.73814   2
  -3   3  12 6.09261 4.52124   2
   2  -3 -12 -3.4470 3.50234   2
   2  -3 -12 -0.9305 2.22341   3
  -2   3  12 -1.2773 3.37112   2
  -2   3  12 0.78304 3.63081   2
   1  -3 -12 12.7521 2.34244   3
  -1   3  12 10.5743 4.39170   2
   0  -3 -12 3.30595 3.78907   2
   0   3  12 3.22993 4.62108   2
  -1  -3 -12 149.947 10.9822   2
   1   3  12 181.066 12.1012   2
  -2  -3 -12 -3.6285 3.64180   2
   2   3  12 -2.2589 2.84660   2
   2   3  12 -1.1184 3.92688   2
  -3  -3 -12 6.83231 4.89113   2
   3   3  12 3.65631 3.68658   2
   3   3  12 13.2507 5.89008   2
  -4  -3 -12 13.0326 5.41560   2
   4   3  12 26.3663 7.19809   2
   4   3  12 14.5988 5.00894   2
  -5  -3 -12 134.379 11.9247   2
   5   3  12 153.537 13.1990   2
  -6  -3 -12 -5.9185 6.11400   2
   6   3  12 2.52126 5.75659   2
   5  -4 -12 11.2719 4.58359   3
   4  -4 -12 13.4183 5.43348   2
   4  -4 -12 7.68609 4.53979   3
  -4   4  12 14.9684 6.48205   2
   3  -4 -12 55.0101 6.33981   3
   3  -4 -12 50.3577 7.01133   2
  -3   4  12 50.2054 7.90659   2
   2  -4 -12 7.30032 3.11778   3
   2  -4 -12 15.7321 4.70775   2
  -2   4  12 7.42909 4.64650   2
  -2   4  12 -1.0280 6.36623   2
  -2   4  12 5.56140 2.84493   3
   1  -4 -12 -0.9734 3.34990   2
   1  -4 -12 2.53806 2.84642   3
  -1   4  12 4.82259 2.17579   3
  -1   4  12 7.97945 4.85458   2
   0  -4 -12 32.6533 2.76410   3
   0  -4 -12 34.3405 5.87381   2
   0   4  12 34.4814 5.66706   2
   0   4  12 30.3540 6.25170   2
  -1  -4 -12 -4.6535 3.52718   2
   1   4  12 5.22799 3.67042   2
   1   4  12 -1.3601 4.13102   2
  -2  -4 -12 -2.6032 3.68515   2
   2   4  12 -4.3828 4.60891   2
   2   4  12 16.7160 4.36379   2
  -3  -4 -12 3.79521 4.24399   2
   3   4  12 -6.6368 3.60328   2
   3   4  12 4.96164 4.95185   2
  -4  -4 -12 27.3820 7.09749   2
   4   4  12 24.3877 6.38653   2
   4   4  12 24.5611 5.93961   2
  -5  -4 -12 19.4719 7.38260   2
   5   4  12 10.6134 5.48974   2
   5   4  12 30.3897 7.33872   2
  -6  -4 -12 -3.9767 5.81917   2
   6   4  12 2.88291 6.16883   2
   4  -5 -12 6.16731 5.57488   2
   4  -5 -12 3.03830 3.66674   3
  -4   5  12 -4.0547 4.43338   2
   3  -5 -12 7.64992 4.11866   2
   3  -5 -12 3.47438 4.01570   3
  -3   5  12 3.15199 4.11702   2
  -3   5  12 -1.9952 4.47549   2
   2  -5 -12 31.9201 6.31954   2
   2  -5 -12 22.2762 4.26874   3
  -2   5  12 22.0429 4.87847   2
  -2   5  12 23.7170 5.98629   2
  -2   5  12 18.4463 4.11474   3
   1  -5 -12 3.87189 2.91112   3
   1  -5 -12 -0.5364 3.80681   2
  -1   5  12 3.58943 4.24454   2
  -1   5  12 -1.3471 2.47770   3
   0  -5 -12 17.0492 5.19203   2
   0   5  12 9.78595 5.15360   2
   0   5  12 12.5665 2.70929   3
   0   5  12 0.77704 4.10439   2
  -1  -5 -12 11.1355 5.46801   2
   1   5  12 8.29471 4.02637   2
   1   5  12 5.54957 1.45972   3
  -2  -5 -12 3.29523 4.15175   2
   2   5  12 -7.6079 3.41356   2
  -3  -5 -12 83.1259 9.28828   2
   3   5  12 93.7381 12.1174   2
   3   5  12 86.1864 8.17735   2
  -4  -5 -12 10.1998 6.72157   2
   4   5  12 5.62924 5.26213   2
   4   5  12 3.72993 5.29435   2
  -5  -5 -12 25.9997 7.09063   2
   5   5  12 37.5808 7.86903   2
   5   5  12 13.2386 5.85222   2
  -6  -5 -12 40.3621 8.36431   2
   6   5  12 54.7626 9.82082   2
   4  -6 -12 -0.9742 4.08619   3
  -4   6  12 9.20332 5.89822   2
   3  -6 -12 92.8305 8.31575   3
   3  -6 -12 73.7268 9.94604   2
  -3   6  12 106.545 10.5604   2
   2  -6 -12 1.12018 4.78094   2
   2  -6 -12 -0.3183 3.39180   3
  -2   6  12 11.0483 5.14203   2
  -2   6  12 0.41852 5.03429   2
   1  -6 -12 -5.3730 2.27552   3
   1  -6 -12 -0.5490 3.83791   2
  -1   6  12 7.33704 3.67728   3
  -1   6  12 -5.3327 4.50351   2
   0  -6 -12 18.1370 5.59372   2
   0  -6 -12 15.0974 3.23006   3
   0   6  12 21.0913 5.61130   2
   0   6  12 14.9813 3.27791   3
   0   6  12 1.44535 7.30535   2
  -1  -6 -12 -2.0993 4.05442   2
   1   6  12 3.81155 3.73085   2
   1   6  12 -3.6937 1.96860   3
   1   6  12 -5.3014 4.83201   2
  -2  -6 -12 26.9804 7.67731   2
   2   6  12 24.9719 5.81996   2
   2   6  12 30.2495 8.57691   2
   2   6  12 26.5413 3.03264   3
  -3  -6 -12 13.2256 7.51881   2
   3   6  12 -3.6506 8.02239   2
   3   6  12 -1.4188 4.45829   2
  -4  -6 -12 0.88556 4.40238   2
   4   6  12 16.1946 9.53185   2
   4   6  12 4.45729 5.16324   2
  -5  -6 -12 7.91463 5.13713   2
   5   6  12 15.1721 6.69897   2
   5   6  12 -8.1401 5.18634   2
  -6  -6 -12 -4.7022 4.52206   2
   6   6  12 12.3364 7.39035   2
   3  -7 -12 19.7132 5.11030   3
   3  -7 -12 6.21804 5.41157   2
  -3   7  12 16.0015 6.06793   2
   2  -7 -12 4.53668 4.37658   3
   2  -7 -12 6.87138 4.90035   2
  -2   7  12 2.47610 4.92777   2
  -2   7  12 10.8692 5.71957   2
   1  -7 -12 21.6362 5.59365   2
   1  -7 -12 24.1676 4.56397   3
  -1   7  12 18.5206 4.89422   2
  -1   7  12 31.7776 6.88885   2
   0  -7 -12 10.0291 4.91558   2
   0  -7 -12 13.7176 3.65129   3
   0   7  12 13.3406 9.43688   2
   0   7  12 7.34360 4.77963   3
  -1  -7 -12 2.72529 2.54547   3
  -1  -7 -12 0.15070 3.93712   2
   1   7  12 -3.2916 4.59282   2
   1   7  12 1.97786 2.80398   3
   1   7  12 -2.7192 3.76233   2
  -2  -7 -12 4.97675 4.87768   2
   2   7  12 0.82233 4.96098   2
   2   7  12 -2.0917 2.10944   3
   2   7  12 5.61405 4.59603   2
  -3  -7 -12 0.15108 4.51612   2
   3   7  12 5.88703 4.86627   2
   3   7  12 0.55011 4.73635   2
  -4  -7 -12 5.70363 4.75936   2
   4   7  12 1.94412 1.52278   3
   4   7  12 -8.8972 7.50339   2
   4   7  12 -2.4474 1.31268   3
   4   7  12 -5.7578 4.72491   2
  -5  -7 -12 7.41283 5.78697   2
   5   7  12 3.06890 7.35272   2
   5   7  12 12.9657 7.25467   2
  -6  -7 -12 4.54584 4.67571   2
   6   7  12 -1.5039 5.76052   2
   3  -8 -12 27.1811 7.39923   2
   3  -8 -12 24.0578 5.71968   3
  -3   8  12 17.7423 6.84210   2
   2  -8 -12 2.00245 5.00462   2
   2  -8 -12 3.49213 3.37940   3
  -2   8  12 4.64223 5.38685   2
   1  -8 -12 -8.6057 4.14726   2
  -1   8  12 4.36433 5.47772   2
  -1   8  12 -3.1894 5.10677   2
   0  -8 -12 15.9932 4.12386   3
   0  -8 -12 17.3860 5.73486   2
   0   8  12 19.0257 10.4169   2
  -1  -8 -12 6.72925 2.82907   3
  -1  -8 -12 2.05407 4.59195   2
   1   8  12 4.68180 3.06331   3
   1   8  12 -3.1688 5.12082   2
   1   8  12 1.63613 5.50169   2
  -2  -8 -12 15.8130 5.68050   2
   2   8  12 3.61659 5.37693   2
   2   8  12 10.0817 3.14623   3
   2   8  12 13.8139 5.27140   2
  -3  -8 -12 12.2810 5.50595   2
   3   8  12 -9.4011 5.52449   2
   3   8  12 4.71658 5.49464   2
   3   8  12 2.85274 2.49332   3
  -4  -8 -12 2.06368 4.34522   2
   4   8  12 -1.9447 2.10908   3
   4   8  12 -2.4942 4.98833   2
  -5  -8 -12 6.09369 5.17641   2
  -6  -8 -12 -1.9439 7.34919   2
   6   8  12 1.60521 6.88044   2
   2  -9 -12 3.03978 4.41454   2
   2  -9 -12 4.19522 4.57390   3
  -2   9  12 -2.5884 6.20983   2
   1  -9 -12 9.59714 5.33448   2
   1  -9 -12 15.2138 4.60216   3
  -1   9  12 12.7701 6.49613   2
   0  -9 -12 -5.3273 4.39263   2
   0  -9 -12 4.46349 3.72045   3
   0   9  12 5.55921 5.79451   2
  -1  -9 -12 26.4724 6.31866   2
  -1  -9 -12 36.1101 5.22619   3
   1   9  12 19.3241 8.26527   2
   1   9  12 32.4660 7.89951   2
  -2  -9 -12 -2.2875 4.45816   2
   2   9  12 13.0001 6.58046   2
   2   9  12 13.3699 6.30850   2
  -3  -9 -12 46.4567 7.99220   2
   3   9  12 35.3317 11.4237   2
   3   9  12 41.0440 8.63072   2
   3   9  12 46.3403 4.82840   3
  -4  -9 -12 50.9723 8.36067   2
   4   9  12 56.0547 9.19820   2
   5   9  12 -4.4843 4.86954   2
  -6  -9 -12 3.09396 5.73817   2
   6   9  12 1.97135 3.06715   3
   6   9  12 -14.645 8.50561   2
   1 -10 -12 0.85955 4.06900   3
  -1  10  12 1.04437 5.67509   2
   0 -10 -12 37.9911 8.60892   2
   0 -10 -12 49.1924 6.88408   3
   0  10  12 42.7722 8.66268   2
  -1 -10 -12 8.18130 3.93197   3
  -1 -10 -12 11.5679 5.52376   2
   1  10  12 14.7971 10.3865   2
  -2 -10 -12 15.4931 5.27414   3
  -2 -10 -12 -3.6919 7.35009   2
   2  10  12 15.2000 7.28230   2
   3  10  12 63.2190 9.49039   2
  -4 -10 -12 19.0371 6.43003   2
   4  10  12 27.3225 8.16317   2
  -5 -10 -12 -0.0009 5.44239   2
   5  10  12 -11.464 5.99904   2
  -1 -11 -12 15.3067 6.45876   2
  -1 -11 -12 25.4124 5.44290   3
  -2 -11 -12 -4.3584 4.60085   2
  -2 -11 -12 2.07504 3.76140   3
   2  11  12 -9.8761 5.50756   2
  -3 -11 -12 -3.4070 4.64016   2
   3  11  12 10.0212 6.48246   2
  -4 -11 -12 13.6302 6.65838   2
   4  11  12 13.6069 6.63028   2
  -1  -2  13 5.87217 2.55622   2
  -1  -2  13 3.57388 4.06526   2
  -3  -1  13 14.8179 4.52396   2
  -3  -1  13 12.7712 4.41141   2
  -2  -1  13 21.2889 4.72253   2
  -1  -1  13 4.59721 3.18117   2
  -1  -1  13 -0.5079 5.70551   2
   1  -1  13 89.9303 7.44252   2
   2  -1  13 10.7808 4.66234   2
   2  -1  13 7.18121 4.78452   2
  -3   0  13 55.6693 6.03261   2
  -2   0  13 16.8881 3.91644   2
  -2   0  13 20.4249 4.82459   2
  -1   0  13 24.7019 5.20843   2
   0   0  13 32.5562 6.14434   2
   0   0  13 39.7062 5.24475   2
   1   0  13 -1.3666 4.20958   2
   1   0  13 2.13692 3.67318   2
   2   0  13 24.2125 6.60052   2
   3   0  13 -7.8697 3.95595   2
   4  -1 -13 3.76152 2.96502   3
  -4   1  13 3.63090 4.49124   2
  -4   1  13 6.95163 4.57624   2
   3  -1 -13 0.15578 2.28808   3
  -3   1  13 5.56856 3.88314   2
  -2   1  13 -2.0849 3.89467   2
  -2   1  13 -0.4326 3.41973   2
  -1   1  13 13.9716 4.91991   2
   0  -1 -13 8.24129 7.04050   2
   0   1  13 7.91255 5.20815   2
   1   1  13 0.70829 3.88209   2
   1   1  13 2.72569 4.79454   2
   2   1  13 3.04887 4.49177   2
   2   1  13 -6.7132 3.91966   2
   3   1  13 2.53411 4.88602   2
   3   1  13 -3.6422 5.24829   2
   4   1  13 -2.8881 4.98382   2
   4  -2 -13 8.95039 3.42217   3
  -4   2  13 12.4910 8.71439   2
  -4   2  13 13.3666 5.18699   2
   3  -2 -13 39.4835 4.71901   3
  -3   2  13 43.8013 7.18534   2
   2  -2 -13 5.79690 2.01710   3
  -2   2  13 3.63292 3.97573   2
  -2   2  13 0.80920 4.55245   2
   1  -2 -13 4.67231 4.54961   2
  -1   2  13 -0.3146 4.26982   2
   0  -2 -13 10.1871 4.49516   2
   0   2  13 15.1526 5.40958   2
   0   2  13 0.68573 3.51552   2
  -1  -2 -13 21.0905 4.96564   2
   1   2  13 29.7019 6.87406   2
   1   2  13 8.83367 4.43505   2
  -2  -2 -13 21.1179 5.56212   2
   2   2  13 15.7136 4.79761   2
   2   2  13 12.0332 5.74050   2
   3   2  13 25.4176 5.35845   2
   3   2  13 28.9582 7.60867   2
   4   2  13 10.1632 8.37261   2
   4  -3 -13 39.9568 5.58286   3
  -4   3  13 40.1927 7.68904   2
   3  -3 -13 0.92756 2.81708   3
  -3   3  13 11.6625 4.89237   2
  -3   3  13 -5.5654 3.82416   2
   2  -3 -13 8.51120 5.40609   2
   2  -3 -13 10.3294 2.70273   3
  -2   3  13 13.4904 5.66226   2
  -2   3  13 18.2006 4.84176   2
  -1   3  13 -2.2215 4.29028   2
   0  -3 -13 13.0620 5.96984   2
   0   3  13 14.3973 4.87133   2
   0   3  13 14.0159 6.01650   2
  -1  -3 -13 31.4804 6.28449   2
   1   3  13 30.7208 7.22853   2
   1   3  13 19.7637 5.06709   2
  -2  -3 -13 8.50071 4.37848   2
   2   3  13 3.24767 5.25400   2
  -3  -3 -13 27.4121 5.60423   2
   3   3  13 23.1614 5.22965   2
   3   3  13 39.2991 7.93930   2
  -4  -3 -13 117.787 12.0640   2
   4   3  13 134.990 13.0749   2
   5   3  13 22.1356 10.7910   2
   3  -4 -13 65.6690 6.43318   3
  -3   4  13 80.0444 9.55198   2
   2  -4 -13 13.0744 5.20105   2
   2  -4 -13 0.93431 2.35312   3
  -2   4  13 0.62239 5.16841   2
   1  -4 -13 5.64909 4.79260   2
  -1   4  13 9.98402 5.26778   2
   0  -4 -13 1.47392 3.97039   2
   0   4  13 0.55568 4.44266   2
   0   4  13 -1.4199 5.53119   2
  -1  -4 -13 8.58351 4.54840   2
   1   4  13 21.2022 4.37685   2
   1   4  13 5.60711 4.55786   2
  -2  -4 -13 -4.4282 4.27425   2
   2   4  13 3.63719 3.79724   2
   2   4  13 10.4656 5.22108   2
  -3  -4 -13 -1.6285 5.07422   2
   3   4  13 12.8333 4.51659   2
   3   4  13 4.11766 5.55945   2
  -4  -4 -13 -0.2328 5.63877   2
   4   4  13 2.09963 5.84590   2
   5   4  13 53.3828 9.01517   2
  -3   5  13 93.0646 11.0931   2
   2  -5 -13 12.2849 5.53747   2
   2  -5 -13 17.8634 3.75636   3
  -2   5  13 22.1947 6.50296   2
  -2   5  13 10.7788 5.05562   2
   1  -5 -13 3.48595 2.48137   3
   1  -5 -13 2.05676 4.54914   2
  -1   5  13 1.92764 2.31001   3
  -1   5  13 8.65019 5.49663   2
   0  -5 -13 -1.1628 3.82656   2
   0   5  13 -2.1024 4.26480   2
   0   5  13 7.98641 4.61148   2
  -1  -5 -13 2.24919 3.97200   2
   1   5  13 -4.5567 3.96948   2
   1   5  13 -1.1779 4.44057   2
  -2  -5 -13 10.8054 5.44653   2
   2   5  13 5.26191 4.97692   2
   2   5  13 2.77399 4.57545   2
  -3  -5 -13 63.3153 9.08565   2
   3   5  13 64.0502 8.42546   2
   3   5  13 49.7330 7.96742   2
  -4  -5 -13 154.249 20.3263   2
   4   5  13 169.750 13.1717   2
  -5  -5 -13 -2.7676 5.56574   2
   5   5  13 1.31196 5.30561   2
   3  -6 -13 50.0785 6.58722   3
  -3   6  13 55.8212 10.1411   2
   2  -6 -13 1.88204 3.05426   3
   2  -6 -13 3.28749 4.61377   2
  -2   6  13 2.31086 5.42900   2
   1  -6 -13 -4.6053 4.33566   2
   1  -6 -13 -1.0504 2.53342   3
  -1   6  13 6.83395 4.92214   2
  -1   6  13 6.25318 4.47693   2
   0  -6 -13 4.23601 4.48183   2
   0  -6 -13 8.87493 2.42587   3
   0   6  13 9.99211 2.61148   3
   0   6  13 22.9108 6.58745   2
  -1  -6 -13 2.24762 4.82570   2
   1   6  13 1.70932 4.24435   2
   1   6  13 0.19226 4.34370   2
  -2  -6 -13 -4.7921 5.14627   2
   2   6  13 1.39412 4.54892   2
   2   6  13 -0.6345 4.61439   2
  -3  -6 -13 2.40375 4.51444   2
   3   6  13 8.25351 5.34018   2
   3   6  13 -2.1406 5.36290   2
  -4  -6 -13 -6.2428 4.63980   2
   4   6  13 7.13204 5.40897   2
  -5  -6 -13 6.81751 5.98088   2
   5   6  13 9.70331 6.66361   2
   2  -7 -13 40.5244 5.46163   3
   2  -7 -13 23.9659 6.37439   2
  -2   7  13 50.7281 9.10176   2
   1  -7 -13 5.58360 3.39822   3
   1  -7 -13 0.67416 4.17840   2
  -1   7  13 -7.8785 4.88096   2
   0  -7 -13 14.5229 3.33146   3
   0  -7 -13 22.3337 6.51107   2
   0   7  13 10.1551 5.81073   2
  -1  -7 -13 2.93064 4.59505   2
   1   7  13 2.64082 2.51267   3
   1   7  13 3.59559 5.43502   2
   1   7  13 4.38758 4.69814   2
  -2  -7 -13 5.19226 4.70635   2
   2   7  13 6.39781 5.37391   2
   2   7  13 3.07083 4.77735   2
  -3  -7 -13 6.49628 5.42317   2
   3   7  13 8.01208 5.62212   2
  -4  -7 -13 5.60051 5.35015   2
   4   7  13 -0.8185 5.01921   2
  -5  -7 -13 -14.138 5.27327   2
   5   7  13 -6.7426 5.20411   2
   1  -8 -13 21.8324 4.84238   3
   1  -8 -13 23.0949 6.87885   2
  -1   8  13 21.2542 6.92716   2
   0  -8 -13 2.26166 4.92161   2
   0  -8 -13 0.38647 2.81942   3
   0   8  13 5.75769 5.34160   2
  -1  -8 -13 15.5015 6.13127   2
  -1  -8 -13 4.25561 2.61306   3
   1   8  13 12.2883 5.99411   2
  -2  -8 -13 -4.9507 4.78072   2
   2   8  13 3.59709 5.72361   2
   3   8  13 10.1137 6.00632   2
  -4  -8 -13 0.81823 4.82655   2
   4   8  13 5.59951 5.87188   2
  -5  -8 -13 -4.0461 5.25580   2
   5   8  13 6.44671 6.59493   2
   0  -9 -13 14.1659 4.07814   3
   0  -9 -13 15.3255 5.20810   2
   0   9  13 11.6792 7.21827   2
  -1  -9 -13 8.86681 5.58369   2
  -1  -9 -13 11.4620 3.78931   3
   1   9  13 19.5147 6.92317   2
  -2  -9 -13 43.7750 7.75846   2
   2   9  13 41.3358 8.91833   2
  -3  -9 -13 67.2150 9.43469   2
   3   9  13 81.3471 10.8220   2
  -4  -9 -13 17.9485 10.2161   2
   4   9  13 5.67885 6.30511   2
  -1 -10 -13 26.2810 4.80449   3
  -2 -10 -13 0.46606 5.52604   2
   2  10  13 16.1375 7.04273   2
  -3 -10 -13 46.5037 8.81856   2
   3  10  13 46.7312 9.99945   2
  -1   1  14 -0.7733 4.06150   2
  -1   1  14 -3.2026 3.99729   2
   0   1  14 14.2358 5.31231   2
  -1   2  14 -1.2510 6.54820   2
   2   2  14 40.1106 8.13947   2
  -2   3  14 55.5217 8.05374   2
   0   3  14 7.44939 6.24961   2
   0   3  14 0.39709 8.79669   2
   1   3  14 32.2333 10.9078   2
   3   3  14 9.40738 6.77809   2
  -2   4  14 -4.5962 5.16737   2
  -1   4  14 6.65475 9.27539   2
   0   4  14 2.10511 5.63784   2
   1   4  14 2.62108 4.84019   2
   2   4  14 8.05810 5.58816   2
   3   4  14 1.84069 8.31764   2
  -1   5  14 6.86603 9.02420   2
   0   5  14 -0.7637 4.52614   2
  -1  -5 -14 -11.740 5.43828   2
   1   5  14 -2.3088 4.77241   2
  -2  -5 -14 9.64605 6.66870   2
   2   5  14 -1.9307 5.59817   2
   3   5  14 5.48995 6.18595   2
   1  -6 -14 1.31463 2.51929   3
  -1   6  14 6.14943 6.17208   2
   0   6  14 25.0510 6.96351   2
  -1  -6 -14 18.6311 7.00308   2
   1   6  14 -4.4332 5.12381   2
  -2  -6 -14 1.64082 6.10340   2
   2   6  14 7.54504 5.87875   2
  -3  -6 -14 6.75622 5.00625   2
   3   6  14 -1.4347 6.12167   2
   0  -7 -14 3.17800 2.31560   3
   0   7  14 9.94196 6.17961   2
  -1  -7 -14 10.2545 5.87598   2
   1   7  14 18.8528 6.98863   2
  -2  -7 -14 -6.4203 5.63296   2
   2   7  14 4.70415 6.31015   2
  -3  -7 -14 14.8252 6.25948   2
   3   7  14 7.41720 5.62196   2
  -2  -8 -14 26.4368 7.42217   2
   2   8  14 15.5415 6.99190   2
   0   0   0    0.00    0.00   0

 _exptl_absorpt_process_details
)
 SADABS 2016/2: Krause, L., Herbst-Irmer, R., Sheldrick G.M. & Stalke D.,
 J. Appl. Cryst. 48 (2015) 3-10
)
 _exptl_absorpt_correction_type   multi-scan
 _exptl_absorpt_correction_T_max  0.7465
 _exptl_absorpt_correction_T_min  0.6760
 _exptl_special_details
)
 The following wavelength and cell were deduced by SADABS from the
 direction cosines etc. They are given here for emergency use only:
 CELL 0.71083    7.212    9.400    9.449   71.639   85.751   71.183
)

;
_shelx_hkl_checksum              30654
loop_
_space_group_symop_operation_xyz
'x, y, z'
'-x, -y, -z'
loop_
_atom_site_label
_atom_site_type_symbol
_atom_site_fract_x
_atom_site_fract_y
_atom_site_fract_z
_atom_site_U_iso_or_equiv
_atom_site_adp_type
_atom_site_occupancy
_atom_site_site_symmetry_order
_atom_site_calc_flag
_atom_site_refinement_flags_posn
_atom_site_refinement_flags_adp
_atom_site_refinement_flags_occupancy
_atom_site_disorder_assembly
_atom_site_disorder_group
C1 C 0.39717(18) 0.23491(14) 0.90203(13) 0.0238(2) Uani 1 1 d . . . . .
C2 C 0.53967(18) 0.20947(14) 0.79838(13) 0.0241(2) Uani 1 1 d . . . . .
H2 H 0.563608 0.136476 0.743511 0.029 Uiso 1 1 calc R U . . .
C3 C 0.8024(2) 0.33334(19) 0.69825(17) 0.0373(3) Uani 1 1 d . . . . .
H3A H 0.754580 0.391215 0.594983 0.056 Uiso 1 1 calc R U . . .
H3B H 0.896565 0.229858 0.702665 0.056 Uiso 1 1 calc R U . . .
H3C H 0.866637 0.393606 0.733924 0.056 Uiso 1 1 calc R U . . .
N1 N 0.25846(19) 0.17317(15) 0.95677(14) 0.0315(3) Uani 1 1 d . . . . .
H1A H 0.181(3) 0.202(2) 1.022(2) 0.040(5) Uiso 1 1 d . . . . .
H1B H 0.239(3) 0.098(2) 0.925(2) 0.043(5) Uiso 1 1 d . . . . .
N2 N 0.57393(17) 0.39806(13) 0.88094(12) 0.0282(2) Uani 1 1 d . . . . .
N3 N 0.63640(16) 0.31137(12) 0.79297(11) 0.0255(2) Uani 1 1 d . . . . .
O1 O 0.41906(14) 0.34912(10) 0.95179(10) 0.0264(2) Uani 1 1 d . . . . .
C4 C 0.57851(19) 0.81021(15) 0.61133(14) 0.0216(2) Uani 0.9467(10) 1 d D . P A
1
C5 C 0.36479(19) 0.87773(14) 0.75358(13) 0.0221(2) Uani 0.9467(10) 1 d D . P A
1
C6 C 0.16908(18) 0.74095(16) 0.77790(14) 0.0215(2) Uani 0.9467(10) 1 d D . P A
1
O2 O 0.78883(16) 0.71131(13) 0.44546(13) 0.0362(2) Uani 0.9467(10) 1 d D . P A
1
O3 O 0.8487(2) 0.8872(2) 0.5241(2) 0.0313(3) Uani 0.9467(10) 1 d D . P A 1
O4 O 0.15991(15) 0.54893(12) 0.68523(11) 0.0293(2) Uani 0.9467(10) 1 d D . P A
1
O5 O -0.06586(17) 0.62040(16) 0.83931(15) 0.0302(3) Uani 0.9467(10) 1 d D . P A
1
N4 N 0.33355(16) 0.76358(14) 0.70752(13) 0.0200(2) Uani 0.9467(10) 1 d D . P A
1
N5 N 0.47352(15) 0.71643(12) 0.61130(11) 0.0218(2) Uani 0.9467(10) 1 d D . P A
1
N6 N 0.52634(17) 0.91041(14) 0.69238(13) 0.0232(2) Uani 0.9467(10) 1 d D . P A
1
N7 N 0.22537(17) 0.92463(13) 0.84734(12) 0.0261(2) Uani 0.9467(10) 1 d D . P A
1
N8 N 0.10328(17) 0.83587(14) 0.86069(13) 0.0254(2) Uani 0.9467(10) 1 d D . P A
1
N9 N 0.75137(17) 0.80184(14) 0.52034(13) 0.0251(2) Uani 0.9467(10) 1 d D . P A
1
N10 N 0.08232(17) 0.62977(14) 0.76714(12) 0.0233(2) Uani 0.9467(10) 1 d D . P A
1
C4B C 0.164(3) 0.687(2) 0.746(2) 0.0216(2) Uani 0.0533(10) 1 d D . P A 2
C5B C 0.277(3) 0.848(2) 0.785(2) 0.0221(2) Uani 0.0533(10) 1 d D . P A 2
C6B C 0.539(3) 0.844(3) 0.659(2) 0.0215(2) Uani 0.0533(10) 1 d D . P A 2
O2B O 0.087(3) 0.494(2) 0.679(2) 0.0362(2) Uani 0.0533(10) 1 d D . P A 2
O3B O -0.101(3) 0.598(4) 0.829(3) 0.0313(3) Uani 0.0533(10) 1 d D . P A 2
O4B O 0.692(3) 0.7029(19) 0.504(2) 0.0293(2) Uani 0.0533(10) 1 d D . P A 2
O5B O 0.814(5) 0.872(5) 0.537(5) 0.0302(3) Uani 0.0533(10) 1 d D . P A 2
N4B N 0.392(3) 0.775(3) 0.691(3) 0.0200(2) Uani 0.0533(10) 1 d D . P A 2
N5B N 0.324(2) 0.6682(19) 0.6599(19) 0.0218(2) Uani 0.0533(10) 1 d D . P A 2
N6B N 0.130(3) 0.787(2) 0.825(2) 0.0232(2) Uani 0.0533(10) 1 d D . P A 2
N7B N 0.353(3) 0.950(2) 0.810(2) 0.0261(2) Uani 0.0533(10) 1 d D . P A 2
N8B N 0.518(3) 0.949(3) 0.726(2) 0.0254(2) Uani 0.0533(10) 1 d D . P A 2
N9B N 0.046(3) 0.586(2) 0.753(2) 0.0251(2) Uani 0.0533(10) 1 d D . P A 2
N10B N 0.690(3) 0.802(2) 0.566(2) 0.0233(2) Uani 0.0533(10) 1 d D . P A 2
loop_
_atom_site_aniso_label
_atom_site_aniso_U_11
_atom_site_aniso_U_22
_atom_site_aniso_U_33
_atom_site_aniso_U_23
_atom_site_aniso_U_13
_atom_site_aniso_U_12
C1 0.0292(6) 0.0210(5) 0.0210(5) -0.0083(4) -0.0002(4) -0.0058(4)
C2 0.0270(6) 0.0246(5) 0.0217(5) -0.0097(4) 0.0008(4) -0.0069(4)
C3 0.0333(7) 0.0414(8) 0.0406(8) -0.0154(6) 0.0115(6) -0.0158(6)
N1 0.0372(6) 0.0324(6) 0.0315(6) -0.0176(5) 0.0113(5) -0.0146(5)
N2 0.0328(6) 0.0261(5) 0.0275(5) -0.0101(4) 0.0016(4) -0.0100(4)
N3 0.0277(5) 0.0248(5) 0.0230(5) -0.0080(4) -0.0006(4) -0.0061(4)
O1 0.0334(5) 0.0236(4) 0.0243(4) -0.0110(3) 0.0028(3) -0.0089(3)
C4 0.0211(6) 0.0207(5) 0.0210(5) -0.0054(4) -0.0006(4) -0.0047(4)
C5 0.0258(6) 0.0201(5) 0.0206(5) -0.0075(4) -0.0013(4) -0.0060(5)
C6 0.0216(6) 0.0224(6) 0.0205(5) -0.0070(5) 0.0008(4) -0.0066(5)
O2 0.0311(5) 0.0428(6) 0.0412(6) -0.0235(5) 0.0115(4) -0.0121(5)
O3 0.0261(7) 0.0329(6) 0.0342(6) -0.0029(5) -0.0015(5) -0.0150(5)
O4 0.0320(5) 0.0282(5) 0.0310(5) -0.0150(4) 0.0028(4) -0.0086(4)
O5 0.0260(6) 0.0345(6) 0.0333(5) -0.0112(4) 0.0060(5) -0.0141(4)
N4 0.0209(6) 0.0194(5) 0.0199(5) -0.0074(4) 0.0002(4) -0.0053(4)
N5 0.0208(5) 0.0230(5) 0.0217(5) -0.0090(4) 0.0026(4) -0.0055(4)
N6 0.0244(5) 0.0228(5) 0.0235(5) -0.0079(4) -0.0004(4) -0.0079(4)
N7 0.0298(6) 0.0257(5) 0.0251(5) -0.0124(4) 0.0028(4) -0.0079(4)
N8 0.0268(6) 0.0262(5) 0.0241(5) -0.0104(4) 0.0029(4) -0.0074(4)
N9 0.0213(5) 0.0264(5) 0.0246(5) -0.0047(4) -0.0007(4) -0.0062(4)
N10 0.0224(5) 0.0236(5) 0.0225(5) -0.0063(4) -0.0001(4) -0.0060(4)
C4B 0.0211(6) 0.0207(5) 0.0210(5) -0.0054(4) -0.0006(4) -0.0047(4)
C5B 0.0258(6) 0.0201(5) 0.0206(5) -0.0075(4) -0.0013(4) -0.0060(5)
C6B 0.0216(6) 0.0224(6) 0.0205(5) -0.0070(5) 0.0008(4) -0.0066(5)
O2B 0.0311(5) 0.0428(6) 0.0412(6) -0.0235(5) 0.0115(4) -0.0121(5)
O3B 0.0261(7) 0.0329(6) 0.0342(6) -0.0029(5) -0.0015(5) -0.0150(5)
O4B 0.0320(5) 0.0282(5) 0.0310(5) -0.0150(4) 0.0028(4) -0.0086(4)
O5B 0.0260(6) 0.0345(6) 0.0333(5) -0.0112(4) 0.0060(5) -0.0141(4)
N4B 0.0209(6) 0.0194(5) 0.0199(5) -0.0074(4) 0.0002(4) -0.0053(4)
N5B 0.0208(5) 0.0230(5) 0.0217(5) -0.0090(4) 0.0026(4) -0.0055(4)
N6B 0.0244(5) 0.0228(5) 0.0235(5) -0.0079(4) -0.0004(4) -0.0079(4)
N7B 0.0298(6) 0.0257(5) 0.0251(5) -0.0124(4) 0.0028(4) -0.0079(4)
N8B 0.0268(6) 0.0262(5) 0.0241(5) -0.0104(4) 0.0029(4) -0.0074(4)
N9B 0.0213(5) 0.0264(5) 0.0246(5) -0.0047(4) -0.0007(4) -0.0062(4)
N10B 0.0224(5) 0.0236(5) 0.0225(5) -0.0063(4) -0.0001(4) -0.0060(4)
loop_
_atom_type_symbol
_atom_type_description
_atom_type_scat_dispersion_real
_atom_type_scat_dispersion_imag
_atom_type_scat_source
C C 0.0033 0.0016 'International Tables Vol C Tables 4.2.6.8 and 6.1.1.4'
H H 0.0000 0.0000 'International Tables Vol C Tables 4.2.6.8 and 6.1.1.4'
N N 0.0061 0.0033 'International Tables Vol C Tables 4.2.6.8 and 6.1.1.4'
O O 0.0106 0.0060 'International Tables Vol C Tables 4.2.6.8 and 6.1.1.4'
loop_
_geom_angle_atom_site_label_1
_geom_angle_atom_site_label_2
_geom_angle_atom_site_label_3
_geom_angle
_geom_angle_site_symmetry_1
_geom_angle_site_symmetry_3
_geom_angle_publ_flag
N1 C1 O1 118.73(11) . . ?
N1 C1 C2 134.08(12) . . ?
O1 C1 C2 107.19(11) . . ?
N3 C2 C1 104.21(10) . . ?
N3 C2 H2 127.9 . . ?
C1 C2 H2 127.9 . . ?
N3 C3 H3A 109.5 . . ?
N3 C3 H3B 109.5 . . ?
H3A C3 H3B 109.5 . . ?
N3 C3 H3C 109.5 . . ?
H3A C3 H3C 109.5 . . ?
H3B C3 H3C 109.5 . . ?
C1 N1 H1A 122.6(12) . . ?
C1 N1 H1B 120.9(12) . . ?
H1A N1 H1B 116.5(16) . . ?
N3 N2 O1 103.41(10) . . ?
N2 N3 C2 115.42(11) . . ?
N2 N3 C3 118.19(11) . . ?
C2 N3 C3 126.39(11) . . ?
C1 O1 N2 109.77(9) . . ?
N5 C4 N6 121.08(12) . . ?
N5 C4 N9 118.34(11) . . ?
N6 C4 N9 120.58(11) . . ?
N6 C5 N7 138.53(12) . . ?
N6 C5 N4 110.46(11) . . ?
N7 C5 N4 111.01(12) . . ?
N8 C6 N4 110.44(12) . . ?
N8 C6 N10 124.41(12) . . ?
N4 C6 N10 125.13(12) . . ?
C6 N4 C5 104.46(11) . . ?
C6 N4 N5 144.23(12) . . ?
C5 N4 N5 111.32(11) . . ?
C4 N5 N4 97.84(10) . . ?
C4 N6 C5 99.31(11) . . ?
C5 N7 N8 105.45(10) . . ?
C6 N8 N7 108.64(11) . . ?
O2 N9 O3 124.89(13) . . ?
O2 N9 C4 117.70(12) . . ?
O3 N9 C4 117.41(13) . . ?
O4 N10 O5 124.57(12) . . ?
O4 N10 C6 117.27(11) . . ?
O5 N10 C6 118.16(11) . . ?
N6B C4B N5B 120.0(14) . . ?
N6B C4B N9B 123.7(14) . . ?
N5B C4B N9B 116.2(14) . . ?
N7B C5B N6B 141.9(16) . . ?
N7B C5B N4B 109.6(13) . . ?
N6B C5B N4B 108.4(13) . . ?
N8B C6B N4B 112.3(14) . . ?
N8B C6B N10B 125.4(15) . . ?
N4B C6B N10B 122.3(15) . . ?
N5B N4B C5B 113.3(12) . . ?
N5B N4B C6B 143.1(14) . . ?
C5B N4B C6B 103.7(12) . . ?
C4B N5B N4B 96.8(12) . . ?
C4B N6B C5B 101.5(14) . . ?
C5B N7B N8B 108.3(13) . . ?
C6B N8B N7B 106.1(14) . . ?
O2B N9B O3B 120.3(19) . . ?
O2B N9B C4B 120.9(16) . . ?
O3B N9B C4B 118.7(16) . . ?
O4B N10B O5B 121(2) . . ?
O4B N10B C6B 120.0(17) . . ?
O5B N10B C6B 119.2(19) . . ?
loop_
_geom_bond_atom_site_label_1
_geom_bond_atom_site_label_2
_geom_bond_distance
_geom_bond_site_symmetry_2
_geom_bond_publ_flag
C1 N1 1.3081(18) . ?
C1 O1 1.3541(14) . ?
C1 C2 1.3823(17) . ?
C2 N3 1.3410(17) . ?
C2 H2 0.9500 . ?
C3 N3 1.4691(17) . ?
C3 H3A 0.9800 . ?
C3 H3B 0.9800 . ?
C3 H3C 0.9800 . ?
N1 H1A 0.854(19) . ?
N1 H1B 0.898(19) . ?
N2 N3 1.3000(14) . ?
N2 O1 1.3897(15) . ?
C4 N5 1.3334(16) . ?
C4 N6 1.3401(16) . ?
C4 N9 1.4552(17) . ?
C5 N6 1.3427(18) . ?
C5 N7 1.3478(16) . ?
C5 N4 1.3612(16) . ?
C6 N8 1.3201(16) . ?
C6 N4 1.3597(16) . ?
C6 N10 1.4102(18) . ?
O2 N9 1.2241(15) . ?
O3 N9 1.2326(17) . ?
O4 N10 1.2328(14) . ?
O5 N10 1.2362(15) . ?
N4 N5 1.3674(14) . ?
N7 N8 1.3693(17) . ?
C4B N6B 1.330(16) . ?
C4B N5B 1.355(16) . ?
C4B N9B 1.450(15) . ?
C5B N7B 1.335(15) . ?
C5B N6B 1.336(15) . ?
C5B N4B 1.364(16) . ?
C6B N8B 1.301(16) . ?
C6B N4B 1.378(15) . ?
C6B N10B 1.381(15) . ?
O2B N9B 1.226(16) . ?
O3B N9B 1.234(17) . ?
O4B N10B 1.236(16) . ?
O5B N10B 1.240(17) . ?
N4B N5B 1.363(15) . ?
N7B N8B 1.377(16) . ?
loop_
_geom_hbond_atom_site_label_D
_geom_hbond_atom_site_label_H
_geom_hbond_atom_site_label_A
_geom_hbond_distance_DH
_geom_hbond_distance_HA
_geom_hbond_distance_DA
_geom_hbond_angle_DHA
_geom_hbond_site_symmetry_A
_geom_hbond_publ_flag
C2 H2 N6 0.95 2.42 3.2951(17) 153.5 1_545 yes
C2 H2 N7B 0.95 2.58 3.111(15) 115.9 1_545 yes
C2 H2 N8B 0.95 1.95 2.789(18) 146.5 1_545 yes
C3 H3A O4 0.98 2.60 3.4557(18) 146.3 2_666 yes
C3 H3C O2B 0.98 2.05 2.88(2) 140.4 1_655 yes
C3 H3C O3B 0.98 2.45 3.38(2) 158.7 1_655 yes
C3 H3C N9B 0.98 2.59 3.544(16) 164.6 1_655 yes
N1 H1A O5 0.854(19) 2.342(19) 3.1010(17) 148.3(15) 2_567 yes
N1 H1A N8 0.854(19) 2.330(18) 3.0269(17) 139.1(15) 2_567 yes
N1 H1A O3B 0.854(19) 2.58(3) 3.29(2) 141.3(16) 2_567 yes
N1 H1A N6B 0.854(19) 2.56(3) 3.342(17) 152.5(16) 2_567 yes
N1 H1B N7 0.898(19) 2.02(2) 2.9131(16) 173.9(17) 1_545 yes
N1 H1B N7B 0.898(19) 1.97(2) 2.748(15) 144.0(17) 1_545 yes
loop_
_geom_torsion_atom_site_label_1
_geom_torsion_atom_site_label_2
_geom_torsion_atom_site_label_3
_geom_torsion_atom_site_label_4
_geom_torsion
_geom_torsion_site_symmetry_1
_geom_torsion_site_symmetry_2
_geom_torsion_site_symmetry_3
_geom_torsion_site_symmetry_4
_geom_torsion_publ_flag
N1 C1 C2 N3 -179.67(14) . . . . ?
O1 C1 C2 N3 -0.31(13) . . . . ?
O1 N2 N3 C2 -0.24(13) . . . . ?
O1 N2 N3 C3 179.57(10) . . . . ?
C1 C2 N3 N2 0.36(14) . . . . ?
C1 C2 N3 C3 -179.44(12) . . . . ?
N1 C1 O1 N2 179.66(11) . . . . ?
C2 C1 O1 N2 0.19(13) . . . . ?
N3 N2 O1 C1 0.02(12) . . . . ?
N8 C6 N4 C5 0.43(14) . . . . ?
N10 C6 N4 C5 -178.33(12) . . . . ?
N8 C6 N4 N5 -179.40(17) . . . . ?
N10 C6 N4 N5 1.8(3) . . . . ?
N6 C5 N4 C6 179.40(11) . . . . ?
N7 C5 N4 C6 -0.43(14) . . . . ?
N6 C5 N4 N5 -0.71(15) . . . . ?
N7 C5 N4 N5 179.46(10) . . . . ?
N6 C4 N5 N4 -0.29(15) . . . . ?
N9 C4 N5 N4 -179.99(10) . . . . ?
C6 N4 N5 C4 -179.61(18) . . . . ?
C5 N4 N5 C4 0.56(13) . . . . ?
N5 C4 N6 C5 -0.10(15) . . . . ?
N9 C4 N6 C5 179.59(11) . . . . ?
N7 C5 N6 C4 -179.77(15) . . . . ?
N4 C5 N6 C4 0.46(13) . . . . ?
N6 C5 N7 N8 -179.49(15) . . . . ?
N4 C5 N7 N8 0.28(14) . . . . ?
N4 C6 N8 N7 -0.28(14) . . . . ?
N10 C6 N8 N7 178.50(11) . . . . ?
C5 N7 N8 C6 0.00(14) . . . . ?
N5 C4 N9 O2 1.68(17) . . . . ?
N6 C4 N9 O2 -178.02(12) . . . . ?
N5 C4 N9 O3 -178.61(14) . . . . ?
N6 C4 N9 O3 1.69(19) . . . . ?
N8 C6 N10 O4 179.98(12) . . . . ?
N4 C6 N10 O4 -1.42(19) . . . . ?
N8 C6 N10 O5 0.32(19) . . . . ?
N4 C6 N10 O5 178.92(13) . . . . ?
N7B C5B N4B N5B 180(2) . . . . ?
N6B C5B N4B N5B 2(3) . . . . ?
N7B C5B N4B C6B -1(3) . . . . ?
N6B C5B N4B C6B -179(2) . . . . ?
N8B C6B N4B N5B 178(3) . . . . ?
N10B C6B N4B N5B -2(5) . . . . ?
N8B C6B N4B C5B 0(3) . . . . ?
N10B C6B N4B C5B 180(2) . . . . ?
N6B C4B N5B N4B -1(3) . . . . ?
N9B C4B N5B N4B -177(2) . . . . ?
C5B N4B N5B C4B -1(3) . . . . ?
C6B N4B N5B C4B -179(4) . . . . ?
N5B C4B N6B C5B 2(3) . . . . ?
N9B C4B N6B C5B 178(2) . . . . ?
N7B C5B N6B C4B -179(3) . . . . ?
N4B C5B N6B C4B -3(3) . . . . ?
N6B C5B N7B N8B 179(3) . . . . ?
N4B C5B N7B N8B 3(3) . . . . ?
N4B C6B N8B N7B 2(3) . . . . ?
N10B C6B N8B N7B -178(2) . . . . ?
C5B N7B N8B C6B -2(3) . . . . ?
N6B C4B N9B O2B -179(2) . . . . ?
N5B C4B N9B O2B -3(3) . . . . ?
N6B C4B N9B O3B 4(4) . . . . ?
N5B C4B N9B O3B -180(2) . . . . ?
N8B C6B N10B O4B -178(2) . . . . ?
N4B C6B N10B O4B 3(4) . . . . ?
N8B C6B N10B O5B -3(4) . . . . ?
N4B C6B N10B O5B 177(3) . . . . ?
