#------------------------------------------------------------------------------
#$Date: 2021-03-05 04:21:38 +0200 (Fri, 05 Mar 2021) $
#$Revision: 262699 $
#$URL: file:///home/coder/svn-repositories/cod/cif/7/06/03/7060376.cif $
#------------------------------------------------------------------------------
#
# This file is available in the Crystallography Open Database (COD),
# http://www.crystallography.net/
#
# All data on this site have been placed in the public domain by the
# contributors.
#
data_7060376
loop_
_publ_author_name
'Kulakov, Ivan V.'
'Stalinskaya, Alena L.'
'Chikunov, Semyon Y.'
'Gatilov, Yuri V.'
_publ_section_title
;
 Synthesis of new representatives of
 11,12-dihydro-5H-5,11-epoxybenzo[7,8]oxocino[4,3-b]pyridines --
 structural analogues of integrastatins A, B
;
_journal_issue                   7
_journal_name_full               'New Journal of Chemistry'
_journal_page_first              3559
_journal_page_last               3569
_journal_paper_doi               10.1039/D0NJ06117D
_journal_volume                  45
_journal_year                    2021
_chemical_formula_moiety         'C18 H17 N O3'
_chemical_formula_sum            'C18 H17 N O3'
_chemical_formula_weight         295.32
_chemical_name_systematic
1-(2,5-dimethyl-11,12-dihydro-5H-5,11-epoxybenzo[7,8]oxocino[4,3-b]pyridin-3-yl)ethan-1-one
_space_group_crystal_system      triclinic
_space_group_IT_number           2
_space_group_name_Hall           '-P 1'
_space_group_name_H-M_alt        'P -1'
_atom_sites_solution_hydrogens   geom
_atom_sites_solution_primary     direct
_atom_sites_solution_secondary   difmap
_audit_creation_method           SHELXL-2018/3
_audit_update_record
;
2020-10-06 deposited with the CCDC.	2021-01-19 downloaded from the CCDC.
;
_cell_angle_alpha                74.462(5)
_cell_angle_beta                 81.905(5)
_cell_angle_gamma                69.130(5)
_cell_formula_units_Z            2
_cell_length_a                   8.7769(10)
_cell_length_b                   9.1976(12)
_cell_length_c                   10.1697(12)
_cell_measurement_reflns_used    9943
_cell_measurement_temperature    296(2)
_cell_measurement_theta_max      29.17
_cell_measurement_theta_min      2.44
_cell_volume                     738.13(16)
_computing_cell_refinement       'Bruker SAINT'
_computing_data_collection       'Bruker APEX2'
_computing_data_reduction        'Bruker SAINT'
_computing_molecular_graphics    'Bruker SHELXTL'
_computing_publication_material  'Bruker SHELXTL'
_computing_structure_refinement  'SHELXL-2018/3 (Sheldrick, 2018)'
_computing_structure_solution    'SHELXS-97 (Sheldrick, 2008)'
_diffrn_ambient_temperature      296(2)
_diffrn_measured_fraction_theta_full 1.000
_diffrn_measured_fraction_theta_max 0.999
_diffrn_measurement_device_type  'Bruker APEX-II CCD'
_diffrn_measurement_method       '\f and \w scans'
_diffrn_radiation_type           MoK\a
_diffrn_radiation_wavelength     0.71073
_diffrn_reflns_av_R_equivalents  0.0251
_diffrn_reflns_av_unetI/netI     0.0146
_diffrn_reflns_Laue_measured_fraction_full 1.000
_diffrn_reflns_Laue_measured_fraction_max 0.999
_diffrn_reflns_limit_h_max       12
_diffrn_reflns_limit_h_min       -12
_diffrn_reflns_limit_k_max       12
_diffrn_reflns_limit_k_min       -12
_diffrn_reflns_limit_l_max       13
_diffrn_reflns_limit_l_min       -13
_diffrn_reflns_number            25930
_diffrn_reflns_point_group_measured_fraction_full 1.000
_diffrn_reflns_point_group_measured_fraction_max 0.999
_diffrn_reflns_theta_full        25.242
_diffrn_reflns_theta_max         29.188
_diffrn_reflns_theta_min         2.438
_diffrn_source                   'sealed tube'
_exptl_absorpt_coefficient_mu    0.091
_exptl_absorpt_correction_T_max  0.9255
_exptl_absorpt_correction_T_min  0.8954
_exptl_absorpt_correction_type   multi-scan
_exptl_absorpt_process_details   SADABS-2008/1
_exptl_crystal_colour            orange
_exptl_crystal_density_diffrn    1.329
_exptl_crystal_description       plate_thick
_exptl_crystal_F_000             312
_exptl_crystal_size_max          0.540
_exptl_crystal_size_mid          0.420
_exptl_crystal_size_min          0.190
_refine_diff_density_max         0.341
_refine_diff_density_min         -0.207
_refine_diff_density_rms         0.042
_refine_ls_extinction_method     none
_refine_ls_goodness_of_fit_ref   0.937
_refine_ls_hydrogen_treatment    constr
_refine_ls_matrix_type           full
_refine_ls_number_parameters     202
_refine_ls_number_reflns         3979
_refine_ls_number_restraints     0
_refine_ls_restrained_S_all      0.937
_refine_ls_R_factor_all          0.0509
_refine_ls_R_factor_gt           0.0441
_refine_ls_shift/su_max          0.000
_refine_ls_shift/su_mean         0.000
_refine_ls_structure_factor_coef Fsqd
_refine_ls_weighting_details
'w=1/[\s^2^(Fo^2^)+(0.0723P)^2^+0.2490P] where P=(Fo^2^+2Fc^2^)/3'
_refine_ls_weighting_scheme      calc
_refine_ls_wR_factor_gt          0.1212
_refine_ls_wR_factor_ref         0.1304
_reflns_Friedel_coverage         0.000
_reflns_number_gt                3416
_reflns_number_total             3979
_reflns_threshold_expression     'I > 2\s(I)'
_cod_data_source_file            d0nj06117d3.cif
_cod_data_source_block           ksh_21
_cod_depositor_comments          'Adding full bibliography for 7060376.cif.'
_cod_database_code               7060376
_shelx_shelxl_version_number     2018/3
_shelx_space_group_comment
;
The symmetry employed for this shelxl refinement is uniquely defined
by the following loop, which should always be used as a source of
symmetry information in preference to the above space-group names.
They are only intended as comments.
;
_shelx_estimated_absorpt_t_min   0.953
_shelx_estimated_absorpt_t_max   0.983
_shelx_res_file
;
TITL ksH_21_0m in P-1
    ksh_21.res
    created by SHELXL-2018/3 at 11:42:53 on 25-Sep-2020
CELL 0.71073   8.7769   9.1976  10.1697  74.462  81.905  69.130
ZERR    2.00   0.0010   0.0012   0.0012   0.005   0.005   0.005
LATT  1
SFAC C H N O
UNIT 36 34 2 6
TEMP 23.000
SIZE 0.19 0.42 0.54
L.S. 18
ACTA
BOND $H
FMAP 2
PLAN 8
CONF
HTAB
WGHT    0.072300    0.249000
FVAR       0.35409
O1    4    0.565150   -0.441764    0.647042    11.00000    0.10008    0.04012 =
         0.05928    0.00795   -0.02814   -0.00349
N1    3    0.231123    0.043052    0.537047    11.00000    0.03329    0.03266 =
         0.02900   -0.00847   -0.00113   -0.01001
C2    1    0.353273   -0.094438    0.577766    11.00000    0.03180    0.03322 =
         0.02838   -0.00333   -0.00363   -0.01383
C3    1    0.419157   -0.203665    0.493951    11.00000    0.03094    0.02640 =
         0.03337   -0.00204   -0.00583   -0.00834
C4A   1    0.213827   -0.034701    0.333023    11.00000    0.02938    0.02692 =
         0.02660   -0.00391   -0.00290   -0.00972
C4    1    0.348454   -0.171324    0.370434    11.00000    0.03371    0.02536 =
         0.03053   -0.00674   -0.00261   -0.00732
AFIX  43
H4    2    0.391369   -0.241236    0.312881    11.00000   -1.20000
AFIX   0
C5    1    0.125025   -0.001943    0.203870    11.00000    0.03621    0.03209 =
         0.03080   -0.00477   -0.00643   -0.01112
O6    4    0.228952    0.036722    0.085791    11.00000    0.04740    0.03685 =
         0.02920   -0.00688   -0.00113   -0.01308
C6A   1    0.242532    0.186230    0.065011    11.00000    0.03817    0.03696 =
         0.02684   -0.00081   -0.00773   -0.01169
C7    1    0.364451    0.220761   -0.028315    11.00000    0.04673    0.05423 =
         0.03084   -0.00291   -0.00060   -0.01687
AFIX  43
H7    2    0.432400    0.145222   -0.074945    11.00000   -1.20000
AFIX   0
C8    1    0.383241    0.368508   -0.050786    11.00000    0.05473    0.06613 =
         0.03592    0.00358   -0.00417   -0.03271
AFIX  43
H8    2    0.464555    0.392086   -0.112858    11.00000   -1.20000
AFIX   0
C9    1    0.282633    0.481847    0.017873    11.00000    0.06421    0.04956 =
         0.04374    0.00467   -0.01472   -0.03204
AFIX  43
H9    2    0.297310    0.580361    0.003077    11.00000   -1.20000
AFIX   0
C10A  1    0.137743    0.299928    0.132824    11.00000    0.03443    0.03268 =
         0.03201    0.00064   -0.00995   -0.00825
C10   1    0.159994    0.447697    0.108725    11.00000    0.05039    0.03621 =
         0.04146   -0.00183   -0.01213   -0.01375
AFIX  43
H10   2    0.091654    0.524244    0.154211    11.00000   -1.20000
AFIX   0
C11   1   -0.000195    0.263205    0.226385    11.00000    0.02909    0.03110 =
         0.04021   -0.00355   -0.00730   -0.00314
AFIX  13
H11   2   -0.100337    0.355222    0.205404    11.00000   -1.20000
AFIX   0
C12A  1    0.163458    0.072080    0.417918    11.00000    0.02710    0.02767 =
         0.02827   -0.00501   -0.00011   -0.00790
C12   1    0.028309    0.228749    0.377140    11.00000    0.03118    0.03139 =
         0.03633   -0.00845    0.00030   -0.00255
AFIX  23
H12A  2    0.057222    0.314056    0.394619    11.00000   -1.20000
H12B  2   -0.070995    0.224123    0.430991    11.00000   -1.20000
AFIX   0
O13   4   -0.023235    0.126158    0.200362    11.00000    0.03149    0.03996 =
         0.04445   -0.00431   -0.01066   -0.01131
C14   1    0.414757   -0.119709    0.715576    11.00000    0.04780    0.05044 =
         0.03409   -0.00719   -0.01191   -0.01609
AFIX 137
H14A  2    0.378795   -0.019501    0.741868    11.00000   -1.50000
H14B  2    0.531907   -0.161433    0.711192    11.00000   -1.50000
H14C  2    0.372845   -0.194337    0.781699    11.00000   -1.50000
AFIX   0
C15   1    0.562312   -0.354022    0.534303    11.00000    0.04587    0.02732 =
         0.05262   -0.00603   -0.01994   -0.00476
C16   1    0.699723   -0.390227    0.430291    11.00000    0.04052    0.04550 =
         0.08896   -0.02314   -0.01025    0.00489
AFIX 137
H16A  2    0.789083   -0.480147    0.471836    11.00000   -1.50000
H16B  2    0.734726   -0.298753    0.395436    11.00000   -1.50000
H16C  2    0.663744   -0.415067    0.356700    11.00000   -1.50000
AFIX   0
C17   1    0.085579   -0.144057    0.189868    11.00000    0.06023    0.04449 =
         0.04634   -0.00940   -0.01400   -0.02486
AFIX 137
H17A  2    0.015400   -0.172957    0.266002    11.00000   -1.50000
H17B  2    0.184776   -0.232823    0.188236    11.00000   -1.50000
H17C  2    0.031507   -0.116651    0.106475    11.00000   -1.50000

AFIX   0
HKLF 4




REM  ksH_21_0m in P-1
REM wR2 = 0.1304, GooF = S = 0.937, Restrained GooF = 0.937 for all data
REM R1 = 0.0441 for 3416 Fo > 4sig(Fo) and 0.0509 for all 3979 data
REM 202 parameters refined using 0 restraints

END

WGHT      0.0697      0.1768

REM No hydrogen bonds found for HTAB generation

REM Highest difference peak  0.341,  deepest hole -0.207,  1-sigma level  0.042
Q1    1   0.1720 -0.0211  0.2726  11.00000  0.05    0.34
Q2    1   0.1850  0.0179  0.3741  11.00000  0.05    0.32
Q3    1   0.3792 -0.1865  0.4371  11.00000  0.05    0.31
Q4    1   0.3825 -0.1546  0.5381  11.00000  0.05    0.30
Q5    1   0.1974  0.0521  0.4800  11.00000  0.05    0.29
Q6    1   0.2806 -0.1001  0.3524  11.00000  0.05    0.29
Q7    1   0.3893 -0.1114  0.6458  11.00000  0.05    0.28
Q8    1   0.0796  0.2748  0.1798  11.00000  0.05    0.28
;
_shelx_res_checksum              89298
_shelx_hkl_file
;
  -1   0   0    0.46    0.02
  -1   0   0    0.40    0.02
   1   0   0    0.42    0.01
   1   0   0    0.36    0.02
   1   0   0    0.41    0.02
   1   0   0    0.38    0.02
   1   0   0    0.43    0.01
   1   0   0    0.43    0.02
   1   0   0    0.43    0.02
   1   0   0    0.40    0.02
  -2   0   0   11.40    0.36
  -2   0   0   11.65    0.46
  -2   0   0   11.46    0.32
  -2   0   0   11.62    0.32
  -2   0   0   11.72    0.33
   2   0   0   11.38    0.32
   2   0   0   11.44    0.33
   2   0   0   12.20    0.35
   2   0   0   11.29    0.32
   2   0   0   11.49    0.46
   2   0   0   11.59    0.46
   2   0   0   11.39    0.36
  -3   0   0   23.99    0.74
  -3   0   0   23.89    0.66
  -3   0   0   23.21    0.94
  -3   0   0   23.67    0.65
   3   0   0   23.42    0.94
   3   0   0   23.97    0.74
   3   0   0   24.15    0.72
   3   0   0   24.11    0.65
   3   0   0   23.51    0.67
   3   0   0   23.29    0.66
   3   0   0   24.38    0.94
  -4   0   0   -0.01    0.03
  -4   0   0    0.04    0.01
  -4   0   0    0.04    0.01
  -4   0   0    0.03    0.02
   4   0   0    0.03    0.01
   4   0   0    0.05    0.02
   4   0   0    0.03    0.02
   4   0   0    0.08    0.01
   4   0   0    0.01    0.02
   4   0   0    0.00    0.01
  -5   0   0   84.58    3.28
  -5   0   0   83.15    3.27
  -5   0   0   82.29    2.24
  -5   0   0   83.19    2.55
  -5   0   0   83.60    2.31
   5   0   0   85.41    3.27
   5   0   0   82.53    2.32
   5   0   0   82.71    2.55
   5   0   0   79.70    2.31
   5   0   0   84.91    3.27
   5   0   0   83.77    2.24
   5   0   0   82.49    2.49
  -6   0   0    0.14    0.02
  -6   0   0    0.14    0.02
  -6   0   0    0.14    0.01
  -6   0   0    0.20    0.04
   6   0   0    0.12    0.04
   6   0   0    0.12    0.02
   6   0   0    0.15    0.02
   6   0   0    0.14    0.02
   6   0   0    0.15    0.03
  -7   0   0    3.85    0.17
   7   0   0    3.42    0.14
   7   0   0    3.61    0.15
   7   0   0    3.58    0.15
  -8   0   0    5.54    0.23
   8   0   0    5.23    0.21
   8   0   0    5.03    0.20
   8   0   0    5.12    0.19
  -9   0   0    4.24    0.22
   9   0   0    4.53    0.19
   9   0   0    4.79    0.20
   9   0   0    4.70    0.18
 -10   0   0    0.52    0.09
  10   0   0    0.65    0.08
  10   0   0    0.77    0.09
  11   0   0    0.47    0.09
  11   0   0    0.45    0.08
  10  -1   0    0.61    0.08
 -10   1   0    0.73    0.10
   9  -1   0   10.89    0.37
  -9   1   0   11.72    0.43
   8  -1   0    7.31    0.28
   8  -1   0    7.82    0.27
   8  -1   0    7.51    0.25
  -8   1   0    8.01    0.30
  -8   1   0    7.58    0.32
   7  -1   0   13.39    0.42
   7  -1   0   13.34    0.44
   7  -1   0   13.48    0.38
   7  -1   0   13.34    0.41
   7  -1   0   13.58    0.55
   7  -1   0   13.55    0.54
  -7   1   0   13.23    0.38
  -7   1   0   13.18    0.55
  -7   1   0   13.39    0.40
  -7   1   0   13.55    0.46
  -7   1   0   13.26    0.54
   6  -1   0    3.95    0.17
   6  -1   0    3.88    0.12
   6  -1   0    3.88    0.14
   6  -1   0    3.98    0.16
   6  -1   0    3.90    0.17
   6  -1   0    3.88    0.15
   6  -1   0    3.78    0.13
  -6   1   0    3.88    0.17
  -6   1   0    3.74    0.17
  -6   1   0    3.77    0.12
  -6   1   0    3.89    0.17
  -6   1   0    3.75    0.14
   5  -1   0   30.20    0.86
   5  -1   0   30.79    0.93
   5  -1   0   31.31    1.22
   5  -1   0   31.37    1.22
   5  -1   0   30.65    0.88
   5  -1   0   31.23    0.85
   5  -1   0   29.87    0.92
   5  -1   0   30.14    0.86
  -5   1   0   31.42    0.87
  -5   1   0   30.47    1.22
  -5   1   0   30.90    0.97
  -5   1   0   31.04    0.85
   4  -1   0    0.13    0.03
   4  -1   0    0.12    0.02
   4  -1   0    0.13    0.02
   4  -1   0    0.12    0.03
   4  -1   0    0.12    0.03
   4  -1   0    0.07    0.03
   4  -1   0    0.09    0.03
   4  -1   0    0.13    0.02
   4  -1   0    0.12    0.03
  -4   1   0    0.13    0.03
  -4   1   0    0.11    0.03
  -4   1   0    0.18    0.02
  -4   1   0    0.14    0.03
  -4   1   0    0.08    0.03
   3  -1   0   34.11    1.03
   3  -1   0   34.37    0.96
   3  -1   0   36.05    0.95
   3  -1   0   34.62    1.38
   3  -1   0   35.08    0.98
   3  -1   0   34.99    1.38
   3  -1   0   35.40    1.04
   3  -1   0   35.48    0.97
   3  -1   0   35.48    0.98
  -3   1   0   32.29    1.38
  -3   1   0   33.33    1.38
  -3   1   0   35.81    0.98
  -3   1   0   35.73    1.08
  -3   1   0   35.86    0.95
   2  -1   0   10.99    0.34
   2  -1   0   11.66    0.46
   2  -1   0   12.56    0.32
   2  -1   0   11.84    0.34
   2  -1   0   11.28    0.46
   2  -1   0   11.36    0.32
   2  -1   0   11.64    0.33
  -2   1   0   10.39    0.46
  -2   1   0   11.59    0.33
  -2   1   0   11.71    0.36
  -2   1   0   10.86    0.46
  -2   1   0   11.49    0.32
   1  -1   0  436.56   12.74
   1  -1   0  443.35   11.97
   1  -1   0  447.17   11.75
  -1   1   0  439.05   12.23
  -1   1   0  434.11   11.75
   0  -1   0  254.84    9.05
   0  -1   0  246.60    6.40
   0  -1   0  212.63    9.04
   0  -1   0  233.43    6.34
   0   1   0  235.81    6.40
   0   1   0  194.74    9.03
  -1  -1   0    7.04    0.37
  -1  -1   0    8.15    0.26
  -1  -1   0    7.80    0.26
  -1  -1   0    7.93    0.28
  -1  -1   0    7.42    0.37
  -1  -1   0    7.84    0.27
   1   1   0    8.15    0.27
   1   1   0    8.10    0.26
   1   1   0    8.33    0.26
   1   1   0    7.57    0.37
   1   1   0    7.47    0.37
   1   1   0    7.88    0.28
  -2  -1   0   66.15    1.86
  -2  -1   0   65.56    1.87
  -2  -1   0   67.36    2.64
   2   1   0   67.16    2.64
   2   1   0   65.80    1.85
   2   1   0   65.39    1.86
   2   1   0   72.37    2.65
   2   1   0   66.97    2.02
   2   1   0   66.45    1.94
   2   1   0   67.07    2.04
   2   1   0   66.54    1.99
  -3  -1   0   16.93    0.47
  -3  -1   0   17.29    0.67
  -3  -1   0   17.18    0.53
  -3  -1   0   16.86    0.49
  -3  -1   0   17.23    0.67
   3   1   0   17.78    0.67
   3   1   0   16.86    0.52
   3   1   0   16.84    0.48
   3   1   0   17.11    0.67
   3   1   0   16.97    0.47
   3   1   0   16.69    0.53
   3   1   0   16.51    0.49
  -4  -1   0   43.10    1.33
  -4  -1   0   43.85    1.69
  -4  -1   0   42.21    1.21
  -4  -1   0   43.53    1.69
   4   1   0   42.47    1.16
   4   1   0   42.28    1.21
   4   1   0   42.97    1.30
   4   1   0   43.62    1.69
   4   1   0   43.31    1.69
   4   1   0   43.74    1.33
  -5  -1   0   34.43    0.98
  -5  -1   0   34.44    1.08
   5   1   0   33.99    0.98
   5   1   0   34.67    1.05
   5   1   0   35.05    1.08
   5   1   0   34.30    0.94
  -6  -1   0    0.50    0.05
  -6  -1   0    0.57    0.06
   6   1   0    0.74    0.06
   6   1   0    0.58    0.05
  -7  -1   0   16.46    0.55
   7   1   0   16.82    0.48
   7   1   0   16.49    0.53
   7   1   0   16.58    0.50
  -8  -1   0    0.96    0.09
   8   1   0    1.44    0.10
   8   1   0    1.56    0.09
  -9  -1   0    0.32    0.07
   9   1   0    0.47    0.07
   9   1   0    0.46    0.05
   9   1   0    0.56    0.07
   9   1   0    0.48    0.07
  10   1   0    0.15    0.05
  10   1   0    0.24    0.06
  10   1   0    0.22    0.06
  10   1   0    0.16    0.06
  11   1   0    1.11    0.10
  11   1   0    1.28    0.11
  11   1   0    1.50    0.13
  10  -2   0    0.54    0.09
 -10   2   0    0.44    0.09
   9  -2   0    0.19    0.07
  -9   2   0    0.23    0.04
  -9   2   0    0.14    0.07
   8  -2   0    3.31    0.16
  -8   2   0    3.51    0.15
  -8   2   0    3.10    0.16
  -8   2   0    3.32    0.18
   7  -2   0    6.05    0.19
   7  -2   0    6.16    0.27
   7  -2   0    5.89    0.19
   7  -2   0    5.98    0.21
  -7   2   0    5.99    0.19
  -7   2   0    5.93    0.25
  -7   2   0    5.96    0.27
  -7   2   0    5.64    0.21
   6  -2   0    0.81    0.07
   6  -2   0    0.73    0.04
   6  -2   0    0.65    0.06
   6  -2   0    0.82    0.05
   6  -2   0    0.82    0.05
  -6   2   0    0.94    0.09
  -6   2   0    0.64    0.06
  -6   2   0    0.73    0.07
  -6   2   0    0.80    0.05
  -6   2   0    0.80    0.07
   5  -2   0    0.22    0.04
   5  -2   0    0.28    0.05
   5  -2   0    0.32    0.03
   5  -2   0    0.31    0.04
   5  -2   0    0.24    0.04
   5  -2   0    0.22    0.04
   5  -2   0    0.28    0.03
   5  -2   0    0.24    0.02
  -5   2   0    0.18    0.04
  -5   2   0    0.28    0.03
  -5   2   0    0.26    0.04
  -5   2   0    0.23    0.04
  -5   2   0    0.33    0.04
   4  -2   0    0.13    0.02
   4  -2   0    0.12    0.02
   4  -2   0    0.13    0.03
   4  -2   0    0.13    0.03
   4  -2   0    0.03    0.04
   4  -2   0    0.12    0.03
   4  -2   0    0.08    0.03
  -4   2   0    0.14    0.03
  -4   2   0    0.15    0.03
  -4   2   0    0.12    0.02
  -4   2   0    0.07    0.03
  -4   2   0    0.12    0.03
   3  -2   0  537.93   19.95
   3  -2   0  507.27   14.10
   3  -2   0  501.89   13.54
   3  -2   0  453.32   19.92
   3  -2   0  499.95   14.68
   3  -2   0  490.95   13.81
  -3   2   0  502.54   14.11
  -3   2   0  559.41   19.97
  -3   2   0  504.78   15.41
  -3   2   0  508.97   19.95
  -3   2   0  502.68   13.56
   2  -2   0   15.01    0.66
   2  -2   0   16.68    0.47
   2  -2   0   17.24    0.66
   2  -2   0   16.60    0.45
   2  -2   0   16.11    0.46
  -2   2   0   16.56    0.47
  -2   2   0   17.14    0.66
  -2   2   0   15.24    0.66
  -2   2   0   16.48    0.45
   1  -2   0  172.37    4.91
   1  -2   0  190.98    7.12
   1  -2   0  175.92    4.82
   1  -2   0  175.95    5.02
   1  -2   0  192.60    7.12
  -1   2   0  196.41    7.14
  -1   2   0  180.70    7.11
  -1   2   0  175.59    4.83
  -1   2   0  172.93    5.36
  -1   2   0  174.17    5.03
  -1   2   0  172.86    5.22
  -1   2   0  175.85    4.90
   0  -2   0   27.86    0.77
   0  -2   0   27.12    1.09
   0  -2   0   27.91    0.75
   0  -2   0   27.75    0.74
   0  -2   0   27.98    0.76
   0   2   0   27.74    0.75
   0   2   0   27.45    0.74
   0   2   0   27.52    1.09
   0   2   0   27.16    0.77
   0   2   0   25.00    1.09
  -1  -2   0  151.75    4.61
  -1  -2   0  164.86    6.12
  -1  -2   0  155.12    4.31
  -1  -2   0  155.84    6.11
  -1  -2   0  151.14    4.27
   1   2   0  150.65    4.28
   1   2   0  144.35    6.10
   1   2   0  160.01    6.12
   1   2   0  154.82    4.33
  -2  -2   0  922.51   25.95
  -2  -2   0  950.39   25.78
  -3  -2   0   25.24    1.01
  -3  -2   0   26.21    0.72
  -3  -2   0   25.72    0.72
  -3  -2   0   26.21    0.72
  -3  -2   0   26.15    0.77
  -3  -2   0   24.86    1.01
   3   2   0   25.20    1.01
   3   2   0   25.84    0.72
   3   2   0   26.39    0.78
   3   2   0   23.49    1.01
   3   2   0   26.11    0.72
   3   2   0   25.40    0.77
  -4  -2   0   23.04    0.89
  -4  -2   0   22.89    0.63
  -4  -2   0   22.79    0.89
  -4  -2   0   22.10    0.63
   4   2   0   22.27    0.89
   4   2   0   22.38    0.89
   4   2   0   21.77    0.69
   4   2   0   22.71    0.69
   4   2   0   22.85    0.67
   4   2   0   22.17    0.64
   4   2   0   22.81    0.71
   4   2   0   22.86    0.64
  -5  -2   0    5.01    0.17
  -5  -2   0    5.19    0.21
  -5  -2   0    5.07    0.15
  -5  -2   0    5.01    0.21
  -5  -2   0    5.23    0.15
   5   2   0    4.97    0.17
   5   2   0    4.89    0.18
   5   2   0    5.21    0.21
   5   2   0    4.99    0.18
   5   2   0    5.16    0.18
   5   2   0    5.10    0.19
   5   2   0    4.91    0.16
   5   2   0    5.14    0.21
   5   2   0    5.06    0.17
  -6  -2   0    3.48    0.13
   6   2   0    3.46    0.14
   6   2   0    3.49    0.12
   6   2   0    3.45    0.14
   6   2   0    3.45    0.13
  -7  -2   0    0.03    0.04
   7   2   0    0.04    0.04
   7   2   0    0.03    0.04
   7   2   0    0.02    0.03
   7   2   0    0.04    0.03
  -8  -2   0    0.15    0.05
   8   2   0    0.14    0.04
   8   2   0    0.09    0.04
   8   2   0    0.16    0.05
   9   2   0    0.15    0.05
   9   2   0    0.16    0.03
   9   2   0    0.15    0.04
   9   2   0    0.14    0.05
  10   2   0    0.58    0.06
  10   2   0    0.51    0.07
  10   2   0    0.56    0.08
  10   2   0    0.63    0.08
  11   2   0    0.06    0.06
  11   2   0    0.20    0.06
  11   2   0    0.01    0.06
  11   2   0    0.09    0.06
   9  -3   0    0.39    0.08
  -9   3   0    0.41    0.08
  -9   3   0    0.38    0.07
  -9   3   0    0.46    0.06
   8  -3   0    0.75    0.08
  -8   3   0    0.65    0.09
  -8   3   0    0.79    0.08
  -8   3   0    0.73    0.08
   7  -3   0    0.00    0.05
   7  -3   0   -0.03    0.03
  -7   3   0   -0.01    0.04
  -7   3   0    0.02    0.04
  -7   3   0   -0.02    0.02
  -7   3   0   -0.06    0.05
   6  -3   0    7.70    0.24
   6  -3   0    7.94    0.34
   6  -3   0    7.76    0.24
   6  -3   0    7.50    0.25
  -6   3   0    7.73    0.34
  -6   3   0    7.95    0.24
  -6   3   0    7.52    0.29
  -6   3   0    7.61    0.25
  -6   3   0    8.11    0.35
   5  -3   0    0.03    0.02
   5  -3   0   -0.03    0.03
   5  -3   0    0.03    0.02
   5  -3   0    0.00    0.03
  -5   3   0    0.02    0.02
  -5   3   0    0.00    0.03
  -5   3   0    0.02    0.04
  -5   3   0    0.03    0.03
  -5   3   0    0.00    0.03
   4  -3   0   25.93    0.74
   4  -3   0   26.17    0.72
   4  -3   0   26.28    0.74
   4  -3   0   26.72    1.05
   4  -3   0   25.88    0.73
   4  -3   0   25.70    1.05
  -4   3   0   25.63    0.72
  -4   3   0   25.98    1.05
  -4   3   0   25.81    0.74
  -4   3   0   25.36    0.82
  -4   3   0   26.38    1.05
   3  -3   0   95.51    2.57
   3  -3   0   94.35    3.64
   3  -3   0   85.86    3.63
   3  -3   0   92.91    2.52
   3  -3   0   97.12    2.48
  -3   3   0   83.85    3.63
  -3   3   0   91.23    3.64
  -3   3   0   94.38    2.57
  -3   3   0   94.02    2.48
   2  -3   0   55.76    1.48
   2  -3   0   55.70    1.51
   2  -3   0   53.09    2.18
   2  -3   0   55.82    1.54
   2  -3   0   57.16    2.18
  -2   3   0   54.39    2.18
  -2   3   0   56.44    1.54
  -2   3   0   55.57    1.48
  -2   3   0   50.44    2.18
   1  -3   0   57.20    1.57
   1  -3   0   58.02    1.61
   1  -3   0   58.87    2.27
   1  -3   0   57.92    1.54
  -1   3   0   58.59    1.57
  -1   3   0   53.19    2.27
  -1   3   0   59.09    2.27
  -1   3   0   57.33    1.61
  -1   3   0   56.96    1.54
  -1   3   0   57.10    1.72
  -1   3   0   57.48    1.67
   0  -3   0   16.96    0.48
   0  -3   0   16.59    0.47
   0  -3   0   14.60    0.68
   0  -3   0   17.16    0.47
   0  -3   0   17.35    0.68
   0  -3   0   17.25    0.46
   0   3   0   17.01    0.46
   0   3   0   16.70    0.48
   0   3   0   17.42    0.51
   0   3   0   17.12    0.46
   0   3   0   16.09    0.68
  -1  -3   0   16.40    0.47
  -1  -3   0   16.15    0.67
  -1  -3   0   18.04    0.68
  -1  -3   0   16.72    0.48
   1   3   0   16.37    0.51
   1   3   0   16.92    0.46
   1   3   0   17.56    0.68
   1   3   0   17.08    0.46
   1   3   0   14.98    0.67
   1   3   0   16.59    0.47
   1   3   0   16.79    0.48
  -2  -3   0   39.50    1.65
  -2  -3   0   41.52    1.16
  -2  -3   0   43.30    1.65
  -2  -3   0   41.70    1.25
  -2  -3   0   42.80    1.21
  -2  -3   0   42.66    1.17
   2   3   0   41.83    1.26
   2   3   0   38.25    1.65
   2   3   0   41.91    1.65
   2   3   0   42.56    1.16
   2   3   0   42.85    1.17
  -3  -3   0   41.62    1.16
  -3  -3   0   41.69    1.25
  -3  -3   0   39.25    1.64
  -3  -3   0   42.04    1.16
  -3  -3   0   42.23    1.17
  -3  -3   0   41.25    1.21
  -3  -3   0   42.07    1.65
   3   3   0   40.97    1.64
   3   3   0   41.86    1.21
   3   3   0   41.90    1.16
   3   3   0   40.88    1.26
   3   3   0   41.73    1.25
   3   3   0   41.92    1.65
   3   3   0   40.96    1.16
  -4  -3   0   79.62    2.34
  -4  -3   0   78.56    2.17
  -4  -3   0   78.34    3.09
  -4  -3   0   79.04    2.19
  -4  -3   0   80.58    2.18
  -4  -3   0   74.94    3.09
   4   3   0   81.14    2.28
   4   3   0   77.22    2.34
   4   3   0   78.80    2.17
   4   3   0   78.36    2.36
   4   3   0   76.18    3.09
   4   3   0   78.78    3.09
  -5  -3   0    1.00    0.07
  -5  -3   0    1.05    0.07
  -5  -3   0    1.02    0.04
  -5  -3   0    1.10    0.04
   5   3   0    1.18    0.06
   5   3   0    1.00    0.07
   5   3   0    1.03    0.06
   5   3   0    1.07    0.06
   5   3   0    1.05    0.06
   5   3   0    1.05    0.07
  -6  -3   0    8.49    0.35
  -6  -3   0    8.56    0.28
  -6  -3   0    8.78    0.35
  -6  -3   0    8.72    0.25
  -6  -3   0    8.55    0.25
   6   3   0    8.78    0.30
   6   3   0    9.14    0.35
   6   3   0    8.66    0.26
   6   3   0    8.76    0.36
   6   3   0    8.73    0.27
   6   3   0    8.81    0.29
  -7  -3   0    0.01    0.04
   7   3   0    0.07    0.04
   7   3   0   -0.07    0.03
   7   3   0    0.00    0.03
   7   3   0   -0.01    0.03
  -8  -3   0   -0.01    0.04
   8   3   0    0.05    0.04
   8   3   0    0.01    0.04
   8   3   0   -0.04    0.04
  -9  -3   0   10.32    0.34
   9   3   0   10.28    0.35
   9   3   0    9.97    0.36
   9   3   0   10.46    0.34
  10   3   0    1.91    0.12
  10   3   0    1.94    0.13
  10   3   0    1.85    0.13
  11   3   0   -0.06    0.05
  11   3   0   -0.05    0.05
  11   3   0   -0.06    0.05
  11   3   0    0.01    0.06
   9  -4   0    0.46    0.08
  -9   4   0    0.56    0.08
  -9   4   0    0.47    0.09
   8  -4   0    2.65    0.15
  -8   4   0    2.59    0.15
  -8   4   0    2.79    0.17
  -8   4   0    2.42    0.16
   7  -4   0    0.12    0.06
   7  -4   0    0.19    0.04
  -7   4   0    0.28    0.06
  -7   4   0    0.27    0.06
  -7   4   0    0.25    0.04
  -7   4   0    0.15    0.06
   6  -4   0   -0.01    0.03
   6  -4   0    0.02    0.04
   6  -4   0    0.03    0.05
  -6   4   0    0.06    0.04
  -6   4   0    0.05    0.04
  -6   4   0    0.01    0.03
  -6   4   0   -0.06    0.04
   5  -4   0    0.40    0.04
   5  -4   0    0.38    0.06
   5  -4   0    0.34    0.05
  -5   4   0    0.39    0.05
  -5   4   0    0.37    0.04
  -5   4   0    0.46    0.06
  -5   4   0    0.25    0.05
  -5   4   0    0.34    0.06
   4  -4   0    1.44    0.07
   4  -4   0    1.36    0.10
   4  -4   0    1.43    0.08
   4  -4   0    1.30    0.07
  -4   4   0    1.32    0.10
  -4   4   0    1.51    0.07
  -4   4   0    1.43    0.09
  -4   4   0    1.44    0.08
  -4   4   0    1.32    0.10
   3  -4   0    7.30    0.23
   3  -4   0    7.44    0.33
   3  -4   0    7.52    0.23
   3  -4   0    7.46    0.23
  -3   4   0    7.47    0.23
  -3   4   0    7.53    0.24
  -3   4   0    7.26    0.33
  -3   4   0    7.83    0.34
   2  -4   0    1.84    0.11
   2  -4   0    1.61    0.07
   2  -4   0    1.78    0.11
   2  -4   0    1.58    0.07
   2  -4   0    1.80    0.08
  -2   4   0    1.84    0.11
  -2   4   0    1.82    0.11
  -2   4   0    1.69    0.08
  -2   4   0    1.61    0.07
  -2   4   0    1.79    0.07
   1  -4   0   42.98    1.19
   1  -4   0   42.95    1.21
   1  -4   0   45.35    1.73
   1  -4   0   43.17    1.17
   1  -4   0   43.34    1.73
   1  -4   0   43.37    1.22
  -1   4   0   43.00    1.22
  -1   4   0   44.04    1.19
  -1   4   0   42.53    1.17
  -1   4   0   45.33    1.73
  -1   4   0   43.20    1.30
  -1   4   0   40.47    1.73
  -1   4   0   42.75    1.27
   0  -4   0    0.42    0.04
   0  -4   0    0.40    0.03
   0  -4   0    0.42    0.04
   0  -4   0    0.44    0.04
   0  -4   0    0.63    0.06
   0  -4   0    0.48    0.06
   0   4   0    0.51    0.03
   0   4   0    0.43    0.04
   0   4   0    0.45    0.04
   0   4   0    0.54    0.06
   0   4   0    0.51    0.03
   0   4   0    0.50    0.06
  -1  -4   0   17.86    0.52
  -1  -4   0   17.79    0.52
  -1  -4   0   18.54    0.74
  -1  -4   0   17.58    0.74
   1   4   0   18.26    0.52
   1   4   0   18.77    0.74
   1   4   0   17.92    0.74
   1   4   0   17.71    0.52
   1   4   0   18.55    0.50
   1   4   0   18.37    0.50
   1   4   0   18.30    0.56
  -2  -4   0  126.35    3.75
  -2  -4   0  132.31    4.99
  -2  -4   0  125.51    3.47
  -2  -4   0  125.92    3.64
  -2  -4   0  124.06    3.51
  -2  -4   0  125.47    4.96
   2   4   0  123.82    3.36
   2   4   0  124.75    3.78
   2   4   0  124.93    3.47
   2   4   0  132.79    4.99
   2   4   0  121.71    3.51
   2   4   0  123.86    4.96
  -3  -4   0   37.05    1.09
  -3  -4   0   35.18    1.49
  -3  -4   0   37.12    1.04
  -3  -4   0   37.04    1.13
  -3  -4   0   41.35    1.49
  -3  -4   0   37.18    1.05
   3   4   0   37.59    1.04
   3   4   0   37.09    1.14
   3   4   0   37.94    1.05
   3   4   0   34.16    1.49
   3   4   0   39.35    1.49
  -4  -4   0   37.31    1.04
  -4  -4   0   36.61    1.09
  -4  -4   0   37.04    1.12
  -4  -4   0   37.68    1.04
  -4  -4   0   38.06    1.48
  -4  -4   0   37.23    1.05
  -4  -4   0   34.34    1.47
   4   4   0   37.46    1.12
   4   4   0   37.03    1.04
   4   4   0   37.82    1.09
   4   4   0   37.30    1.04
   4   4   0   36.69    1.13
   4   4   0   36.97    1.47
  -5  -4   0    0.81    0.05
  -5  -4   0    0.86    0.07
  -5  -4   0    0.75    0.04
  -5  -4   0    0.88    0.06
  -5  -4   0    0.81    0.07
  -5  -4   0    0.90    0.06
   5   4   0    0.75    0.06
   5   4   0    0.83    0.07
   5   4   0    0.67    0.05
   5   4   0    0.80    0.06
   5   4   0    0.82    0.06
   5   4   0    0.80    0.06
  -6  -4   0    0.01    0.02
  -6  -4   0    0.02    0.03
  -6  -4   0   -0.01    0.01
  -6  -4   0    0.00    0.01
  -6  -4   0    0.01    0.03
   6   4   0    0.00    0.03
   6   4   0    0.02    0.02
   6   4   0    0.01    0.03
   6   4   0   -0.01    0.03
   6   4   0   -0.01    0.03
  -7  -4   0    1.51    0.08
  -7  -4   0    1.50    0.06
  -7  -4   0    1.52    0.08
  -7  -4   0    1.53    0.10
  -7  -4   0    1.48    0.06
   7   4   0    1.55    0.08
   7   4   0    1.48    0.09
   7   4   0    1.49    0.08
   7   4   0    1.28    0.09
   7   4   0    1.40    0.09
   7   4   0    1.47    0.08
  -8  -4   0    3.50    0.15
   8   4   0    3.32    0.14
   8   4   0    3.40    0.16
   8   4   0    3.42    0.15
  -9  -4   0    2.26    0.14
   9   4   0    2.17    0.12
   9   4   0    2.27    0.13
   9   4   0    2.15    0.12
 -10  -4   0    0.14    0.06
  10   4   0    0.18    0.05
  10   4   0    0.13    0.06
  10   4   0    0.25    0.06
  11   4   0    0.02    0.05
  11   4   0    0.09    0.05
  11   4   0    0.01    0.06
   8  -5   0    0.11    0.07
  -8   5   0    0.23    0.07
  -8   5   0    0.09    0.06
   7  -5   0    0.06    0.04
   7  -5   0    0.02    0.06
  -7   5   0    0.02    0.05
  -7   5   0    0.00    0.03
  -7   5   0   -0.02    0.05
  -7   5   0   -0.05    0.05
   6  -5   0    0.14    0.05
   6  -5   0    0.17    0.04
  -6   5   0    0.06    0.05
  -6   5   0    0.02    0.05
  -6   5   0    0.20    0.04
  -6   5   0    0.15    0.06
   5  -5   0    0.09    0.05
   5  -5   0    0.12    0.05
   5  -5   0    0.13    0.04
  -5   5   0    0.29    0.06
  -5   5   0    0.15    0.05
  -5   5   0    0.12    0.05
  -5   5   0    0.13    0.04
  -5   5   0    0.18    0.04
   4  -5   0    0.36    0.06
   4  -5   0    0.37    0.04
   4  -5   0    0.39    0.05
  -4   5   0    0.47    0.06
  -4   5   0    0.39    0.05
  -4   5   0    0.39    0.06
  -4   5   0    0.42    0.05
  -4   5   0    0.45    0.07
   3  -5   0    0.44    0.05
   3  -5   0    0.36    0.06
  -3   5   0    0.45    0.06
  -3   5   0    0.39    0.04
  -3   5   0    0.42    0.05
  -3   5   0    0.39    0.06
   2  -5   0    0.00    0.03
   2  -5   0    0.00    0.03
   2  -5   0    0.10    0.04
  -2   5   0   -0.06    0.02
  -2   5   0    0.11    0.03
  -2   5   0    0.01    0.04
  -2   5   0    0.01    0.01
  -2   5   0   -0.02    0.03
  -2   5   0    0.01    0.02
   1  -5   0    4.57    0.21
   1  -5   0    4.18    0.14
   1  -5   0    3.99    0.14
   1  -5   0    4.15    0.15
   1  -5   0    4.15    0.14
   1  -5   0    4.18    0.21
  -1   5   0    4.20    0.14
  -1   5   0    4.29    0.14
  -1   5   0    4.22    0.15
  -1   5   0    4.18    0.14
  -1   5   0    4.11    0.15
  -1   5   0    4.31    0.21
  -1   5   0    4.06    0.21
   0  -5   0   13.88    0.42
   0  -5   0   13.80    0.41
   0  -5   0   13.62    0.40
   0  -5   0   13.57    0.40
   0  -5   0   15.21    0.59
   0  -5   0   13.44    0.59
   0   5   0   13.80    0.42
   0   5   0   13.89    0.40
   0   5   0   13.86    0.40
   0   5   0   13.94    0.43
   0   5   0   13.91    0.59
   0   5   0   15.14    0.59
  -1  -5   0  127.89    3.57
  -1  -5   0  128.29    3.53
  -1  -5   0  124.15    5.04
  -1  -5   0  130.12    5.04
   1   5   0  126.10    5.04
   1   5   0  129.21    5.04
   1   5   0  127.34    3.57
   1   5   0  127.94    3.82
   1   5   0  128.38    3.42
   1   5   0  128.83    3.48
  -2  -5   0   46.77    1.34
  -2  -5   0   48.03    1.33
  -2  -5   0   46.99    1.90
  -2  -5   0   46.40    1.38
  -2  -5   0   48.61    1.90
  -2  -5   0   48.38    1.43
   2   5   0   47.64    1.30
   2   5   0   47.52    1.44
   2   5   0   47.67    1.33
   2   5   0   49.17    1.90
   2   5   0   45.04    1.90
   2   5   0   47.17    1.28
   2   5   0   48.03    1.34
  -3  -5   0    1.32    0.06
  -3  -5   0    1.15    0.07
  -3  -5   0    1.30    0.09
  -3  -5   0    1.11    0.09
  -3  -5   0    1.16    0.06
  -3  -5   0    1.28    0.06
   3   5   0    1.15    0.09
   3   5   0    1.31    0.09
   3   5   0    1.29    0.06
   3   5   0    1.27    0.07
   3   5   0    1.18    0.06
   3   5   0    1.28    0.06
  -4  -5   0    0.41    0.05
  -4  -5   0    0.35    0.03
  -4  -5   0    0.40    0.04
  -4  -5   0    0.38    0.04
  -4  -5   0    0.36    0.05
  -4  -5   0    0.33    0.04
  -4  -5   0    0.53    0.04
   4   5   0    0.33    0.05
   4   5   0    0.54    0.05
   4   5   0    0.45    0.06
   4   5   0    0.35    0.03
   4   5   0    0.35    0.04
  -5  -5   0    0.03    0.03
  -5  -5   0   -0.02    0.03
  -5  -5   0    0.03    0.04
  -5  -5   0   -0.05    0.02
  -5  -5   0    0.01    0.02
  -5  -5   0    0.05    0.03
   5   5   0    0.03    0.03
   5   5   0    0.01    0.03
   5   5   0   -0.02    0.03
   5   5   0    0.02    0.03
   5   5   0    0.02    0.03
   5   5   0    0.03    0.02
  -6  -5   0   21.99    0.89
  -6  -5   0   21.94    0.63
  -6  -5   0   21.83    0.64
  -6  -5   0   21.89    0.65
  -6  -5   0   22.08    0.89
  -6  -5   0   21.95    0.68
   6   5   0   21.29    0.63
   6   5   0   22.64    0.89
   6   5   0   21.90    0.68
   6   5   0   22.05    0.70
   6   5   0   22.01    0.89
  -7  -5   0    9.18    0.28
  -7  -5   0    9.35    0.31
  -7  -5   0    9.36    0.28
  -7  -5   0    9.42    0.39
   7   5   0    9.39    0.33
   7   5   0    8.75    0.29
   7   5   0    9.41    0.39
   7   5   0    9.37    0.31
  -8  -5   0    0.30    0.04
  -8  -5   0    0.21    0.06
  -8  -5   0    0.25    0.04
  -8  -5   0    0.30    0.03
  -8  -5   0    0.26    0.03
   8   5   0    0.22    0.05
   8   5   0    0.24    0.05
   8   5   0    0.22    0.04
   8   5   0    0.20    0.05
  -9  -5   0    0.09    0.06
   9   5   0    0.09    0.05
   9   5   0    0.08    0.05
   9   5   0    0.09    0.05
 -10  -5   0    0.06    0.06
  10   5   0    0.00    0.05
  10   5   0    0.07    0.05
  10   5   0   -0.02    0.05
 -11  -5   0    0.05    0.06
  11   5   0    0.11    0.06
  11   5   0    0.07    0.06
  11   5   0    0.21    0.06
   7  -6   0    0.18    0.07
  -7   6   0    0.20    0.07
  -7   6   0    0.18    0.05
  -7   6   0    0.20    0.07
   6  -6   0    0.10    0.06
   6  -6   0    0.10    0.04
  -6   6   0    0.14    0.04
  -6   6   0    0.19    0.05
  -6   6   0    0.09    0.06
  -6   6   0    0.05    0.06
   5  -6   0    0.28    0.07
   5  -6   0    0.27    0.06
   5  -6   0    0.27    0.05
  -5   6   0    0.37    0.06
  -5   6   0    0.27    0.07
  -5   6   0    0.20    0.06
  -5   6   0    0.31    0.05
   4  -6   0    1.16    0.12
   4  -6   0    1.14    0.09
   4  -6   0    1.20    0.09
  -4   6   0    1.05    0.11
  -4   6   0    1.27    0.12
  -4   6   0    1.26    0.09
  -4   6   0    1.25    0.09
   3  -6   0    4.64    0.26
   3  -6   0    5.07    0.18
  -3   6   0    4.79    0.18
  -3   6   0    5.57    0.26
  -3   6   0    4.98    0.26
  -3   6   0    5.21    0.19
   2  -6   0    7.74    0.25
   2  -6   0    7.93    0.37
  -2   6   0    7.96    0.24
  -2   6   0    8.25    0.37
  -2   6   0    7.85    0.37
  -2   6   0    7.95    0.26
  -2   6   0    7.86    0.25
   1  -6   0    4.73    0.16
   1  -6   0    4.89    0.16
   1  -6   0    4.14    0.24
  -1   6   0    4.95    0.16
  -1   6   0    4.50    0.25
  -1   6   0    4.97    0.16
  -1   6   0    5.13    0.16
  -1   6   0    5.40    0.25
  -1   6   0    5.03    0.18
   0  -6   0   -0.03    0.05
   0  -6   0    0.08    0.03
   0   6   0    0.07    0.03
   0   6   0    0.08    0.02
   0   6   0    0.07    0.03
   0   6   0   -0.01    0.04
   0   6   0    0.10    0.02
  -1  -6   0   11.71    0.54
  -1  -6   0   13.17    0.55
  -1  -6   0   12.31    0.37
   1   6   0   12.59    0.38
   1   6   0   12.84    0.36
   1   6   0   12.99    0.36
   1   6   0   12.93    0.40
   1   6   0   13.43    0.55
   1   6   0   11.94    0.54
  -2  -6   0    0.42    0.04
  -2  -6   0    0.46    0.06
  -2  -6   0    0.50    0.04
  -2  -6   0    0.42    0.06
   2   6   0    0.41    0.04
   2   6   0    0.48    0.04
   2   6   0    0.45    0.04
   2   6   0    0.45    0.06
   2   6   0    0.39    0.04
   2   6   0    0.49    0.06
   2   6   0    0.45    0.04
  -3  -6   0    0.78    0.06
  -3  -6   0    0.88    0.06
  -3  -6   0    0.87    0.05
  -3  -6   0    0.86    0.05
  -3  -6   0    0.88    0.08
  -3  -6   0    0.83    0.09
   3   6   0    0.90    0.07
   3   6   0    0.84    0.06
   3   6   0    0.77    0.06
   3   6   0    0.84    0.08
   3   6   0    0.80    0.05
  -4  -6   0   10.32    0.44
  -4  -6   0   10.01    0.31
  -4  -6   0    9.99    0.31
  -4  -6   0   10.53    0.33
  -4  -6   0   10.05    0.31
  -4  -6   0   10.31    0.44
   4   6   0   10.07    0.31
   4   6   0    9.97    0.30
   4   6   0    9.99    0.29
   4   6   0   10.12    0.34
   4   6   0    9.32    0.44
  -5  -6   0   33.91    1.01
  -5  -6   0   34.01    0.98
  -5  -6   0   33.73    0.99
  -5  -6   0   34.32    0.96
  -5  -6   0   34.10    0.97
  -5  -6   0   34.73    1.04
  -5  -6   0   33.84    1.37
  -5  -6   0   35.37    1.37
   5   6   0   34.15    0.97
   5   6   0   34.60    0.96
   5   6   0   31.01    1.37
   5   6   0   33.92    1.05
  -6  -6   0   63.21    1.81
  -6  -6   0   64.65    2.57
  -6  -6   0   64.12    1.83
  -6  -6   0   66.44    2.57
   6   6   0   64.76    2.57
   6   6   0   64.35    1.97
   6   6   0   63.77    1.80
   6   6   0   65.09    1.95
  -7  -6   0    0.01    0.03
  -7  -6   0    0.08    0.05
  -7  -6   0    0.01    0.05
  -7  -6   0   -0.06    0.04
   7   6   0    0.11    0.04
   7   6   0   -0.03    0.05
   7   6   0    0.08    0.04
   7   6   0   -0.02    0.05
  -8  -6   0    1.26    0.11
  -8  -6   0    1.21    0.10
   8   6   0    1.34    0.10
   8   6   0    1.13    0.11
   8   6   0    1.39    0.09
  -9  -6   0    0.64    0.07
  -9  -6   0    0.49    0.07
   9   6   0    0.61    0.07
   9   6   0    0.47    0.06
   9   6   0    0.48    0.06
 -10  -6   0    0.21    0.06
  10   6   0    0.12    0.06
  10   6   0    0.11    0.06
  10   6   0    0.20    0.05
 -11  -6   0    1.13    0.11
  11   6   0    1.07    0.11
  11   6   0    1.47    0.12
  11   6   0    1.09    0.10
   6  -7   0    0.23    0.05
   6  -7   0    0.19    0.07
  -6   7   0    0.19    0.05
  -6   7   0    0.11    0.07
  -6   7   0    0.23    0.07
   5  -7   0    0.01    0.04
   5  -7   0    0.00    0.05
  -5   7   0   -0.02    0.05
  -5   7   0   -0.01    0.04
  -5   7   0    0.06    0.04
  -5   7   0   -0.03    0.05
   4  -7   0    3.23    0.21
   4  -7   0    3.37    0.15
   4  -7   0    3.47    0.15
  -4   7   0    3.28    0.15
  -4   7   0    3.19    0.15
  -4   7   0    3.27    0.21
   3  -7   0    1.92    0.16
   3  -7   0    2.12    0.11
  -3   7   0    1.82    0.16
  -3   7   0    2.02    0.11
  -3   7   0    1.81    0.11
   2  -7   0    6.97    0.34
   2  -7   0    6.76    0.23
  -2   7   0    6.68    0.34
  -2   7   0    6.70    0.23
  -2   7   0    6.70    0.24
  -2   7   0    6.70    0.21
   1  -7   0   26.97    0.76
   1  -7   0   28.04    1.12
  -1   7   0   26.14    0.79
  -1   7   0   26.16    0.82
  -1   7   0   26.34    0.75
  -1   7   0   27.40    1.12
   0  -7   0    0.00    0.05
   0   7   0    0.01    0.06
   0   7   0    0.07    0.04
   0   7   0    0.04    0.03
  -1  -7   0    0.37    0.06
   1   7   0    0.38    0.04
   1   7   0    0.32    0.04
   1   7   0    0.31    0.06
   1   7   0    0.35    0.05
   1   7   0    0.44    0.04
  -2  -7   0    0.83    0.10
   2   7   0    0.80    0.07
   2   7   0    0.87    0.06
   2   7   0    0.78    0.05
   2   7   0    0.76    0.09
   2   7   0    0.87    0.07
  -3  -7   0    0.19    0.03
  -3  -7   0    0.18    0.06
  -3  -7   0    0.23    0.05
   3   7   0    0.18    0.04
   3   7   0    0.22    0.06
   3   7   0    0.22    0.03
   3   7   0    0.22    0.04
   3   7   0    0.22    0.04
   3   7   0    0.21    0.03
  -4  -7   0    2.09    0.09
  -4  -7   0    1.87    0.14
  -4  -7   0    2.23    0.14
   4   7   0    2.06    0.10
   4   7   0    2.02    0.09
   4   7   0    2.06    0.11
   4   7   0    2.10    0.09
   4   7   0    2.02    0.14
  -5  -7   0   18.70    0.78
  -5  -7   0   18.50    0.56
  -5  -7   0   18.84    0.55
  -5  -7   0   18.39    0.79
  -5  -7   0   18.94    0.57
   5   7   0   18.61    0.61
   5   7   0   19.08    0.53
   5   7   0   19.08    0.55
   5   7   0   18.55    0.56
  -6  -7   0    0.95    0.11
  -6  -7   0    1.09    0.10
  -6  -7   0    0.94    0.08
   6   7   0    0.83    0.09
   6   7   0    0.78    0.08
   6   7   0    1.17    0.08
  -7  -7   0    3.86    0.20
  -7  -7   0    4.04    0.17
  -7  -7   0    4.00    0.21
   7   7   0    3.96    0.21
   7   7   0    4.13    0.16
   7   7   0    3.80    0.18
  -8  -7   0    0.03    0.05
  -8  -7   0    0.00    0.05
   8   7   0   -0.02    0.04
   8   7   0    0.03    0.04
   8   7   0   -0.04    0.05
  -9  -7   0    0.05    0.05
  -9  -7   0    0.05    0.05
   9   7   0    0.12    0.05
   9   7   0    0.06    0.05
   9   7   0   -0.02    0.05
 -10  -7   0    0.06    0.06
 -10  -7   0    0.02    0.04
  10   7   0   -0.03    0.05
  10   7   0   -0.03    0.06
  10   7   0   -0.02    0.05
 -11  -7   0    0.27    0.08
  11   7   0    0.11    0.07
  11   7   0    0.10    0.06
   5  -8   0    0.15    0.05
   5  -8   0    0.10    0.06
  -5   8   0    0.11    0.07
  -5   8   0    0.04    0.05
  -5   8   0    0.05    0.07
   4  -8   0    0.79    0.08
   4  -8   0    0.70    0.08
   4  -8   0    0.64    0.11
  -4   8   0    0.93    0.08
  -4   8   0    0.62    0.11
  -4   8   0    0.62    0.08
   3  -8   0    2.02    0.12
   3  -8   0    2.17    0.18
  -3   8   0    2.25    0.17
  -3   8   0    2.03    0.12
  -3   8   0    1.89    0.12
   2  -8   0    4.63    0.18
   2  -8   0    5.19    0.28
  -2   8   0    4.63    0.27
  -2   8   0    4.92    0.20
  -2   8   0    4.67    0.18
   1  -8   0    1.76    0.15
  -1   8   0    1.82    0.11
  -1   8   0    1.85    0.08
  -1   8   0    1.77    0.10
  -1   8   0    1.71    0.16
   0  -8   0    0.03    0.07
   0   8   0    0.04    0.04
   0   8   0    0.02    0.05
   0   8   0    0.09    0.04
   0   8   0    0.11    0.03
  -1  -8   0    3.18    0.21
   1   8   0    3.23    0.14
   1   8   0    3.32    0.14
   1   8   0    3.37    0.21
   1   8   0    3.19    0.13
  -2  -8   0   14.87    0.64
   2   8   0   14.20    0.42
   2   8   0   14.02    0.43
   2   8   0   14.31    0.48
   2   8   0   15.93    0.65
   2   8   0   14.80    0.46
  -3  -8   0   28.51    1.16
  -3  -8   0   27.26    0.83
   3   8   0   28.06    0.80
   3   8   0   28.15    0.82
   3   8   0   27.96    1.16
   3   8   0   27.53    0.78
   3   8   0   27.31    0.78
   3   8   0   28.45    0.87
  -4  -8   0    1.31    0.08
  -4  -8   0    1.49    0.13
   4   8   0    1.54    0.10
   4   8   0    1.54    0.08
   4   8   0    1.69    0.09
   4   8   0    1.51    0.13
   4   8   0    1.49    0.07
   4   8   0    1.52    0.10
  -5  -8   0    0.68    0.05
  -5  -8   0    0.61    0.05
  -5  -8   0    0.66    0.09
  -5  -8   0    0.76    0.07
  -5  -8   0    0.64    0.08
   5   8   0    0.58    0.07
   5   8   0    0.64    0.05
   5   8   0    0.63    0.06
   5   8   0    0.62    0.06
   5   8   0    0.56    0.08
  -6  -8   0    0.06    0.05
  -6  -8   0   -0.01    0.04
  -6  -8   0    0.05    0.02
  -6  -8   0   -0.04    0.05
   6   8   0   -0.02    0.03
   6   8   0    0.01    0.03
   6   8   0    0.01    0.05
   6   8   0   -0.03    0.04
  -7  -8   0    6.75    0.25
  -7  -8   0    6.69    0.33
   7   8   0    7.02    0.33
   7   8   0    6.66    0.27
   7   8   0    7.01    0.24
  -8  -8   0    0.94    0.09
  -8  -8   0    1.14    0.12
   8   8   0    1.26    0.10
   8   8   0    1.08    0.10
  -9  -8   0   -0.04    0.06
  -9  -8   0    0.06    0.06
   9   8   0    0.04    0.05
   9   8   0   -0.03    0.06
 -10  -8   0    0.42    0.09
 -10  -8   0    0.59    0.07
  10   8   0    0.64    0.07
  10   8   0    0.59    0.09
 -11  -8   0    1.32    0.13
  11   8   0    1.25    0.12
  11   8   0    1.45    0.12
   4  -9   0    1.37    0.12
   4  -9   0    0.99    0.09
  -4   9   0    1.11    0.10
  -4   9   0    0.78    0.13
   3  -9   0   -0.05    0.07
   3  -9   0   -0.07    0.05
   3  -9   0   -0.03    0.05
  -3   9   0   -0.01    0.05
  -3   9   0   -0.09    0.06
  -3   9   0    0.05    0.05
   2  -9   0    0.01    0.08
  -2   9   0    0.04    0.04
  -2   9   0    0.06    0.07
  -2   9   0    0.08    0.05
   1  -9   0    0.16    0.08
  -1   9   0    0.06    0.07
  -1   9   0    0.13    0.05
  -1   9   0    0.10    0.05
   0  -9   0    0.22    0.08
   0   9   0    0.25    0.08
   0   9   0    0.19    0.04
   0   9   0    0.23    0.05
   0   9   0    0.19    0.04
  -1  -9   0    0.54    0.10
   1   9   0    0.52    0.06
   1   9   0    0.51    0.07
   1   9   0    0.48    0.05
   1   9   0    0.61    0.10
  -2  -9   0   42.89    1.27
  -2  -9   0   43.03    1.77
   2   9   0   43.66    1.33
   2   9   0   42.86    1.19
   2   9   0   43.52    1.25
   2   9   0   43.15    1.77
  -3  -9   0   -0.09    0.03
  -3  -9   0    0.03    0.07
   3   9   0   -0.03    0.05
   3   9   0   -0.03    0.04
   3   9   0    0.03    0.04
   3   9   0    0.07    0.07
  -4  -9   0    2.23    0.10
  -4  -9   0    2.20    0.17
   4   9   0    2.42    0.13
   4   9   0    2.15    0.12
   4   9   0    2.38    0.11
   4   9   0    2.26    0.11
   4   9   0    2.08    0.17
  -5  -9   0   -0.03    0.05
  -5  -9   0    0.00    0.03
  -5  -9   0   -0.05    0.06
  -5  -9   0    0.00    0.03
   5   9   0    0.01    0.04
   5   9   0   -0.04    0.04
   5   9   0    0.02    0.04
   5   9   0   -0.05    0.03
  -6  -9   0   -0.06    0.06
  -6  -9   0    0.00    0.05
  -6  -9   0    0.02    0.02
   6   9   0    0.01    0.06
   6   9   0    0.01    0.04
   6   9   0    0.03    0.04
   6   9   0   -0.06    0.04
  -7  -9   0    3.86    0.18
  -7  -9   0    3.84    0.23
   7   9   0    4.02    0.15
   7   9   0    3.84    0.19
   7   9   0    3.86    0.16
  -8  -9   0    0.06    0.06
  -8  -9   0    0.01    0.06
   8   9   0   -0.05    0.04
   8   9   0    0.00    0.05
   8   9   0   -0.02    0.04
  -9  -9   0    0.01    0.06
  -9  -9   0   -0.05    0.06
   9   9   0   -0.10    0.06
   9   9   0   -0.04    0.05
 -10  -9   0   -0.02    0.07
 -10  -9   0   -0.01    0.06
  10   9   0   -0.12    0.05
  10   9   0   -0.10    0.06
   3 -10   0    0.30    0.07
  -3  10   0    0.33    0.07
   2 -10   0    1.15    0.14
   2 -10   0    1.05    0.09
  -2  10   0    1.21    0.10
  -2  10   0    1.10    0.14
   1 -10   0    0.81    0.12
  -1  10   0    0.71    0.11
  -1  10   0    0.87    0.08
  -1  10   0    1.01    0.09
   0 -10   0    0.70    0.11
   0  10   0    0.58    0.07
   0  10   0    0.54    0.07
   0  10   0    0.61    0.11
  -1 -10   0   -0.02    0.07
   1  10   0   -0.01    0.03
   1  10   0   -0.05    0.05
   1  10   0    0.02    0.04
   1  10   0    0.04    0.07
  -2 -10   0    0.17    0.09
  -2 -10   0    0.17    0.04
   2  10   0    0.19    0.06
   2  10   0    0.22    0.08
   2  10   0    0.25    0.05
   2  10   0    0.19    0.05
  -3 -10   0    0.50    0.10
  -3 -10   0    0.60    0.05
   3  10   0    0.68    0.06
   3  10   0    0.59    0.07
   3  10   0    0.61    0.10
   3  10   0    0.53    0.07
  -4 -10   0    7.24    0.24
  -4 -10   0    6.88    0.37
   4  10   0    7.28    0.27
   4  10   0    6.90    0.28
   4  10   0    7.27    0.38
   4  10   0    7.46    0.24
  -5 -10   0    0.29    0.09
  -5 -10   0    0.37    0.07
  -5 -10   0    0.21    0.04
  -5 -10   0    0.33    0.05
   5  10   0    0.28    0.05
   5  10   0    0.28    0.05
   5  10   0    0.30    0.08
   5  10   0    0.32    0.06
   5  10   0    0.31    0.06
  -6 -10   0    0.15    0.08
  -6 -10   0    0.20    0.06
   6  10   0    0.07    0.06
   6  10   0    0.20    0.08
   6  10   0    0.19    0.05
   6  10   0    0.26    0.05
  -7 -10   0    0.72    0.11
  -7 -10   0    0.76    0.09
   7  10   0    0.81    0.07
   7  10   0    0.78    0.09
   7  10   0    0.66    0.06
  -8 -10   0    5.32    0.30
  -8 -10   0    5.32    0.23
   8  10   0    5.47    0.25
   8  10   0    5.26    0.21
   8  10   0    5.34    0.20
  -9 -10   0    1.64    0.13
  -9 -10   0    1.76    0.17
   9  10   0    1.48    0.12
   9  10   0    1.82    0.15
   1 -11   0    0.95    0.10
   1 -11   0    0.99    0.14
   0 -11   0    0.10    0.09
   0  11   0    0.13    0.09
   0  11   0    0.12    0.06
  -1 -11   0    1.48    0.18
   1  11   0    1.55    0.11
   1  11   0    1.76    0.18
   1  11   0    1.49    0.13
  -2 -11   0    0.11    0.09
   2  11   0    0.11    0.08
   2  11   0    0.06    0.06
   2  11   0    0.10    0.05
   2  11   0    0.10    0.05
  -3 -11   0    1.19    0.15
   3  11   0    1.32    0.11
   3  11   0    1.53    0.17
   3  11   0    1.50    0.13
   3  11   0    1.44    0.10
  -4 -11   0   15.97    0.71
   4  11   0   15.45    0.50
   4  11   0   15.21    0.70
   4  11   0   15.06    0.46
   4  11   0   15.06    0.52
  -5 -11   0    0.20    0.09
  -5 -11   0    0.00    0.06
   5  11   0    0.04    0.08
   5  11   0    0.17    0.06
   5  11   0    0.14    0.06
   5  11   0    0.07    0.05
  -6 -11   0    2.44    0.21
  -6 -11   0    2.22    0.15
   6  11   0    2.20    0.12
   6  11   0    1.96    0.14
   6  11   0    2.03    0.13
  -7 -11   0    3.52    0.19
  -7 -11   0    3.17    0.24
   7  11   0    3.09    0.16
   7  11   0    3.31    0.19
   7  11   0    3.31    0.15
  -8 -11   0    1.95    0.16
  -8 -11   0    1.56    0.18
   8  11   0    1.40    0.13
   8  11   0    1.89    0.12
  -3 -12   0    0.33    0.12
   3  12   0    0.37    0.07
   3  12   0    0.23    0.06
   4  12   0    0.21    0.07
   4  12   0   -0.02    0.09
   4  12   0    0.11    0.06
   4  12   0    0.08    0.05
  -5 -12   0    6.60    0.27
   5  12   0    6.47    0.28
   5  12   0    6.43    0.37
   5  12   0    6.25    0.23
   7  11  -1    0.32    0.08
  -7 -11   1    0.27    0.10
  -7 -11   1    0.44    0.08
  -7 -11   1    0.39    0.06
   6  11  -1    1.46    0.14
   6  11  -1    1.53    0.13
   6  11  -1    1.50    0.10
  -6 -11   1    1.61    0.14
  -6 -11   1    1.22    0.15
   5  11  -1    0.79    0.09
   5  11  -1    0.71    0.08
   5  11  -1    0.61    0.11
   5  11  -1    0.74    0.07
  -5 -11   1    0.63    0.12
  -5 -11   1    0.75    0.09
   4  11  -1    1.95    0.11
   4  11  -1    2.01    0.14
   4  11  -1    1.97    0.18
  -4 -11   1    1.62    0.19
  -4 -11   1    1.85    0.14
   3  11  -1    0.03    0.06
   3  11  -1    0.05    0.05
   3  11  -1    0.13    0.04
   3  11  -1    0.04    0.08
  -3 -11   1    0.13    0.09
   2  11  -1    0.25    0.07
   2  11  -1    0.22    0.09
   2  11  -1    0.21    0.05
   2  11  -1    0.17    0.05
  -2 -11   1    0.17    0.10
   1  11  -1    0.13    0.06
   1  11  -1    0.02    0.08
   1  11  -1    0.04    0.05
  -1 -11   1   -0.03    0.05
  -1 -11   1   -0.05    0.08
   0  11  -1    0.03    0.08
   0  11  -1    0.13    0.06
   0 -11   1    0.02    0.09
   0 -11   1    0.09    0.06
   9  10  -1    2.88    0.19
  -9 -10   1    2.76    0.18
  -9 -10   1    2.63    0.20
   8  10  -1    1.16    0.10
   8  10  -1    1.02    0.11
  -8 -10   1    1.18    0.13
  -8 -10   1    1.04    0.10
  -8 -10   1    1.42    0.10
   7  10  -1    0.13    0.06
   7  10  -1    0.16    0.05
   7  10  -1    0.19    0.05
  -7 -10   1   -0.01    0.06
  -7 -10   1    0.18    0.08
   6  10  -1    1.02    0.08
   6  10  -1    0.97    0.10
   6  10  -1    0.90    0.07
   6  10  -1    0.98    0.09
  -6 -10   1    0.97    0.09
  -6 -10   1    1.07    0.13
  -6 -10   1    1.10    0.09
   5  10  -1    0.05    0.04
   5  10  -1    0.06    0.05
   5  10  -1   -0.01    0.05
   5  10  -1    0.03    0.06
  -5 -10   1    0.03    0.05
  -5 -10   1   -0.07    0.04
  -5 -10   1   -0.02    0.07
   4  10  -1    6.25    0.25
   4  10  -1    6.33    0.24
   4  10  -1    6.54    0.22
   4  10  -1    6.31    0.34
  -4 -10   1    6.03    0.22
  -4 -10   1    6.00    0.34
  -4 -10   1    6.64    0.24
   3  10  -1   -0.08    0.03
   3  10  -1    0.03    0.04
   3  10  -1    0.05    0.05
   3  10  -1   -0.02    0.07
  -3 -10   1   -0.09    0.07
  -3 -10   1    0.01    0.04
   2  10  -1    0.43    0.06
   2  10  -1    0.46    0.10
   2  10  -1    0.46    0.06
   2  10  -1    0.45    0.07
  -2 -10   1    0.40    0.10
  -2 -10   1    0.34    0.05
   1  10  -1    0.59    0.06
   1  10  -1    0.64    0.06
   1  10  -1    0.58    0.08
   1  10  -1    0.51    0.10
  -1 -10   1    0.61    0.11
   0  10  -1    0.72    0.07
   0  10  -1    0.72    0.11
   0  10  -1    0.84    0.09
   0 -10   1    0.65    0.11
   0 -10   1    0.63    0.08
  -1  10  -1   -0.02    0.07
  -1  10  -1    0.04    0.05
  -1  10  -1    0.08    0.06
   1 -10   1    0.04    0.08
   1 -10   1    0.12    0.06
  -2  10  -1    0.08    0.08
  -2  10  -1    0.09    0.06
   2 -10   1    0.10    0.06
   2 -10   1    0.16    0.10
  10   9  -1    0.88    0.11
 -10  -9   1    0.96    0.10
 -10  -9   1    0.85    0.11
   9   9  -1    0.47    0.06
   9   9  -1    0.37    0.08
  -9  -9   1    0.53    0.09
  -9  -9   1    0.29    0.08
   8   9  -1    0.09    0.04
   8   9  -1    0.04    0.04
   8   9  -1    0.08    0.06
  -8  -9   1   -0.03    0.06
  -8  -9   1    0.05    0.07
  -8  -9   1    0.00    0.04
   7   9  -1    0.05    0.04
   7   9  -1    0.08    0.05
   7   9  -1    0.08    0.04
  -7  -9   1   -0.05    0.05
  -7  -9   1    0.00    0.07
   6   9  -1    0.55    0.06
   6   9  -1    0.49    0.07
   6   9  -1    0.48    0.08
   6   9  -1    0.61    0.06
   6   9  -1    0.50    0.05
  -6  -9   1    0.42    0.07
  -6  -9   1    0.45    0.06
  -6  -9   1    0.52    0.09
   5   9  -1    1.50    0.10
   5   9  -1    1.42    0.14
   5   9  -1    1.57    0.09
   5   9  -1    1.56    0.09
   5   9  -1    1.63    0.12
  -5  -9   1    1.65    0.10
  -5  -9   1    1.52    0.11
  -5  -9   1    1.61    0.15
   4   9  -1    0.05    0.06
   4   9  -1    0.03    0.05
   4   9  -1    0.00    0.04
   4   9  -1    0.06    0.04
  -4  -9   1    0.00    0.04
  -4  -9   1    0.03    0.05
  -4  -9   1    0.16    0.07
   3   9  -1   10.06    0.34
   3   9  -1   10.32    0.36
   3   9  -1   10.83    0.49
   3   9  -1   10.36    0.32
  -3  -9   1   10.27    0.49
  -3  -9   1    9.83    0.33
   2   9  -1    0.03    0.04
   2   9  -1    0.09    0.04
   2   9  -1    0.00    0.05
   2   9  -1   -0.05    0.07
  -2  -9   1   -0.03    0.07
   1   9  -1    0.48    0.07
   1   9  -1    0.54    0.06
   1   9  -1    0.51    0.05
   1   9  -1    0.50    0.09
  -1  -9   1    0.53    0.10
   0   9  -1    0.19    0.04
   0   9  -1    0.14    0.04
   0   9  -1    0.10    0.05
   0   9  -1    0.13    0.07
   0  -9   1    0.08    0.07
  -1   9  -1    0.22    0.06
  -1   9  -1    0.32    0.05
  -1   9  -1    0.30    0.08
   1  -9   1    0.31    0.09
   1  -9   1    0.26    0.06
  -2   9  -1    0.09    0.05
  -2   9  -1    0.04    0.04
  -2   9  -1    0.03    0.07
   2  -9   1    0.03    0.07
   2  -9   1    0.06    0.05
  -3   9  -1    0.23    0.06
  -3   9  -1    0.13    0.08
   3  -9   1    0.13    0.06
   3  -9   1    0.19    0.09
   3  -9   1   -0.03    0.05
  -4   9  -1    0.47    0.07
  -4   9  -1    0.36    0.10
   4  -9   1    0.31    0.07
   4  -9   1    0.27    0.07
  10   8  -1    0.07    0.07
  10   8  -1    0.12    0.06
 -10  -8   1    0.11    0.05
 -10  -8   1    0.04    0.07
   9   8  -1    1.90    0.11
   9   8  -1    1.49    0.13
  -9  -8   1    1.66    0.13
  -9  -8   1    1.58    0.14
   8   8  -1    0.05    0.06
   8   8  -1    0.03    0.04
  -8  -8   1   -0.01    0.06
  -8  -8   1   -0.03    0.06
  -8  -8   1    0.00    0.03
   7   8  -1    0.91    0.08
   7   8  -1    0.70    0.06
   7   8  -1    0.69    0.08
  -7  -8   1    0.72    0.09
  -7  -8   1    0.72    0.08
   6   8  -1    0.82    0.07
   6   8  -1    0.80    0.07
   6   8  -1    0.77    0.08
   6   8  -1    0.84    0.10
   6   8  -1    0.93    0.07
  -6  -8   1    0.89    0.05
  -6  -8   1    0.75    0.09
  -6  -8   1    0.76    0.08
  -6  -8   1    0.97    0.08
   5   8  -1    0.03    0.04
   5   8  -1    0.03    0.03
   5   8  -1    0.01    0.04
   5   8  -1    0.13    0.06
   5   8  -1    0.01    0.03
  -5  -8   1    0.01    0.03
  -5  -8   1    0.00    0.05
  -5  -8   1    0.04    0.06
  -5  -8   1   -0.02    0.04
   4   8  -1    5.63    0.19
   4   8  -1    5.69    0.19
   4   8  -1    5.12    0.29
   4   8  -1    5.69    0.20
   4   8  -1    5.43    0.17
   4   8  -1    5.82    0.22
  -4  -8   1    5.40    0.20
  -4  -8   1    5.59    0.29
  -4  -8   1    5.78    0.21
   3   8  -1    0.07    0.03
   3   8  -1    0.02    0.02
   3   8  -1   -0.03    0.04
   3   8  -1    0.05    0.04
   3   8  -1   -0.07    0.05
  -3  -8   1    0.03    0.06
  -3  -8   1    0.01    0.03
   2   8  -1    0.20    0.05
   2   8  -1    0.22    0.07
   2   8  -1    0.24    0.04
   2   8  -1    0.24    0.03
   2   8  -1    0.15    0.05
  -2  -8   1    0.16    0.07
   1   8  -1    2.37    0.12
   1   8  -1    2.22    0.17
   1   8  -1    2.26    0.10
   1   8  -1    2.25    0.11
   1   8  -1    2.23    0.09
  -1  -8   1    2.33    0.17
   0   8  -1    0.44    0.08
   0   8  -1    0.45    0.06
   0   8  -1    0.42    0.04
   0   8  -1    0.50    0.05
   0  -8   1    0.48    0.09
  -1   8  -1    0.50    0.06
  -1   8  -1    0.47    0.04
  -1   8  -1    0.39    0.05
  -1   8  -1    0.33    0.08
   1  -8   1    0.54    0.09
  -2   8  -1    1.55    0.10
  -2   8  -1    1.54    0.15
  -2   8  -1    1.70    0.11
   2  -8   1    1.83    0.12
   2  -8   1    1.50    0.10
   2  -8   1    1.67    0.16
  -3   8  -1    0.33    0.06
  -3   8  -1    0.34    0.08
  -3   8  -1    0.31    0.06
   3  -8   1    0.36    0.09
   3  -8   1    0.27    0.06
   3  -8   1    0.35    0.06
  -4   8  -1    2.88    0.15
  -4   8  -1    2.92    0.15
  -4   8  -1    2.78    0.21
   4  -8   1    2.83    0.22
   4  -8   1    2.75    0.15
   4  -8   1    3.01    0.15
  -5   8  -1    0.68    0.11
  -5   8  -1    0.67    0.08
  -5   8  -1    0.62    0.09
   5  -8   1    0.66    0.08
   5  -8   1    0.53    0.07
  11   7  -1    0.94    0.11
  11   7  -1    1.06    0.10
 -11  -7   1    0.95    0.11
  10   7  -1    4.18    0.22
  10   7  -1    4.62    0.19
  10   7  -1    4.46    0.20
 -10  -7   1    4.61    0.22
   9   7  -1    0.14    0.05
   9   7  -1    0.11    0.05
   9   7  -1    0.15    0.06
  -9  -7   1    0.17    0.05
  -9  -7   1    0.25    0.07
   8   7  -1   12.22    0.38
   8   7  -1   12.33    0.43
   8   7  -1   12.45    0.42
  -8  -7   1   12.18    0.37
  -8  -7   1   12.17    0.40
  -8  -7   1   12.00    0.52
   7   7  -1    0.12    0.05
   7   7  -1    0.10    0.04
   7   7  -1    0.08    0.05
  -7  -7   1    0.11    0.05
  -7  -7   1    0.10    0.05
   6   7  -1    1.94    0.10
   6   7  -1    2.14    0.10
   6   7  -1    1.96    0.12
  -6  -7   1    1.97    0.11
  -6  -7   1    1.84    0.12
  -6  -7   1    1.85    0.14
  -6  -7   1    1.90    0.13
   5   7  -1   16.01    0.46
   5   7  -1   16.33    0.53
   5   7  -1   15.66    0.48
   5   7  -1   15.94    0.68
   5   7  -1   15.89    0.47
  -5  -7   1   16.57    0.68
  -5  -7   1   16.01    0.50
  -5  -7   1   16.16    0.49
  -5  -7   1   15.84    0.48
  -5  -7   1   15.73    0.68
   4   7  -1    2.98    0.10
   4   7  -1    2.82    0.11
   4   7  -1    2.79    0.12
   4   7  -1    2.85    0.13
   4   7  -1    2.88    0.17
   4   7  -1    2.75    0.11
  -4  -7   1    2.92    0.17
  -4  -7   1    2.77    0.18
  -4  -7   1    2.82    0.12
  -4  -7   1    2.56    0.13
   3   7  -1    1.72    0.07
   3   7  -1    1.73    0.09
   3   7  -1    1.84    0.13
   3   7  -1    1.82    0.10
   3   7  -1    1.76    0.10
   3   7  -1    1.87    0.08
  -3  -7   1    1.79    0.13
  -3  -7   1    1.80    0.13
  -3  -7   1    1.65    0.09
   2   7  -1    0.76    0.05
   2   7  -1    0.54    0.08
   2   7  -1    0.78    0.07
   2   7  -1    0.69    0.06
   2   7  -1    0.79    0.06
  -2  -7   1    0.70    0.09
   1   7  -1    0.14    0.03
   1   7  -1    0.14    0.03
   1   7  -1    0.11    0.02
   1   7  -1    0.18    0.04
   1   7  -1    0.13    0.06
  -1  -7   1    0.16    0.06
   0   7  -1    0.99    0.11
   0   7  -1    1.02    0.07
   0   7  -1    1.02    0.06
   0   7  -1    1.01    0.08
   0   7  -1    1.02    0.06
   0  -7   1    0.78    0.10
  -1   7  -1    2.02    0.11
  -1   7  -1    2.05    0.09
  -1   7  -1    2.02    0.10
  -1   7  -1    2.03    0.16
   1  -7   1    1.98    0.10
   1  -7   1    2.02    0.16
  -2   7  -1    0.05    0.04
  -2   7  -1    0.05    0.07
  -2   7  -1    0.07    0.05
  -2   7  -1    0.03    0.02
   2  -7   1    0.12    0.04
   2  -7   1    0.05    0.07
  -3   7  -1   27.26    0.81
  -3   7  -1   24.73    1.13
  -3   7  -1   27.44    0.77
   3  -7   1   28.07    1.14
   3  -7   1   27.75    0.81
   3  -7   1   27.73    0.78
  -4   7  -1    0.41    0.06
  -4   7  -1    0.54    0.06
  -4   7  -1    0.42    0.08
   4  -7   1    0.25    0.08
   4  -7   1    0.47    0.06
   4  -7   1    0.41    0.06
  -5   7  -1    0.29    0.07
  -5   7  -1    0.42    0.07
  -5   7  -1    0.50    0.09
  -5   7  -1    0.42    0.06
   5  -7   1    0.46    0.06
   5  -7   1    0.47    0.07
  -6   7  -1   -0.05    0.06
  -6   7  -1    0.03    0.05
  -6   7  -1    0.11    0.07
   6  -7   1   -0.02    0.06
   6  -7   1   -0.01    0.05
  11   6  -1    0.04    0.06
  11   6  -1    0.06    0.06
  11   6  -1    0.00    0.05
 -11  -6   1   -0.05    0.07
  10   6  -1    0.08    0.05
  10   6  -1    0.10    0.06
  10   6  -1    0.02    0.05
 -10  -6   1   -0.02    0.06
   9   6  -1    0.06    0.05
   9   6  -1    0.01    0.04
   9   6  -1    0.12    0.05
  -9  -6   1    0.07    0.03
  -9  -6   1    0.10    0.06
   8   6  -1    0.19    0.04
   8   6  -1    0.11    0.05
   8   6  -1    0.07    0.05
  -8  -6   1    0.18    0.05
  -8  -6   1    0.08    0.03
  -8  -6   1    0.14    0.06
   7   6  -1    0.09    0.05
   7   6  -1    0.12    0.04
   7   6  -1    0.22    0.05
   7   6  -1    0.03    0.05
  -7  -6   1    0.10    0.04
  -7  -6   1    0.08    0.05
  -7  -6   1    0.11    0.03
  -7  -6   1    0.10    0.05
   6   6  -1   23.37    0.68
   6   6  -1   23.39    0.74
   6   6  -1   22.45    0.75
   6   6  -1   23.19    0.68
   6   6  -1   24.33    0.96
  -6  -6   1   23.25    0.69
  -6  -6   1   23.03    0.71
  -6  -6   1   24.63    0.69
  -6  -6   1   22.81    0.68
  -6  -6   1   23.54    0.96
  -6  -6   1   23.84    0.96
   5   6  -1   30.89    1.34
   5   6  -1   33.96    0.94
   5   6  -1   33.90    0.95
   5   6  -1   33.64    1.03
  -5  -6   1   32.67    0.95
  -5  -6   1   32.10    1.34
  -5  -6   1   34.00    0.96
  -5  -6   1   34.73    0.96
  -5  -6   1   32.33    1.34
  -5  -6   1   33.38    0.94
  -5  -6   1   33.13    0.99
   4   6  -1   10.91    0.34
   4   6  -1   11.13    0.32
   4   6  -1   11.30    0.33
   4   6  -1   11.55    0.48
   4   6  -1   11.07    0.37
  -4  -6   1   10.94    0.35
  -4  -6   1   10.91    0.34
  -4  -6   1   11.20    0.33
  -4  -6   1   11.32    0.48
  -4  -6   1   10.87    0.35
  -4  -6   1   11.34    0.48
   3   6  -1    2.86    0.12
   3   6  -1    2.99    0.12
   3   6  -1    2.88    0.11
   3   6  -1    2.70    0.16
   3   6  -1    2.96    0.09
   3   6  -1    2.97    0.10
  -3  -6   1    2.87    0.16
  -3  -6   1    2.88    0.11
  -3  -6   1    2.95    0.11
  -3  -6   1    2.69    0.16
   2   6  -1    0.38    0.04
   2   6  -1    0.53    0.05
   2   6  -1    0.34    0.03
   2   6  -1    0.46    0.06
   2   6  -1    0.40    0.03
  -2  -6   1    0.46    0.06
  -2  -6   1    0.38    0.04
  -2  -6   1    0.41    0.06
   1   6  -1   15.57    0.49
   1   6  -1   15.51    0.43
   1   6  -1   15.58    0.44
   1   6  -1   14.03    0.65
   1   6  -1   15.18    0.46
  -1  -6   1   16.84    0.66
  -1  -6   1   15.01    0.45
  -1  -6   1   15.18    0.65
  -1  -6   1   15.40    0.44
   0   6  -1    2.89    0.10
   0   6  -1    2.82    0.11
   0   6  -1    2.79    0.11
   0   6  -1    2.73    0.17
   0   6  -1    2.62    0.12
   0  -6   1    2.83    0.10
   0  -6   1    2.54    0.16
  -1   6  -1    0.09    0.06
  -1   6  -1    0.19    0.04
  -1   6  -1    0.16    0.02
  -1   6  -1    0.21    0.04
   1  -6   1    0.03    0.06
   1  -6   1    0.23    0.03
   1  -6   1    0.15    0.03
  -2   6  -1   15.71    0.46
  -2   6  -1   15.12    0.68
  -2   6  -1   16.03    0.48
  -2   6  -1   15.90    0.48
   2  -6   1   16.01    0.68
   2  -6   1   15.76    0.46
  -3   6  -1    0.05    0.04
  -3   6  -1    0.09    0.04
  -3   6  -1    0.01    0.05
   3  -6   1    0.06    0.04
   3  -6   1    0.14    0.04
   3  -6   1    0.00    0.06
  -4   6  -1    0.47    0.06
  -4   6  -1    0.34    0.05
  -4   6  -1    0.47    0.08
   4  -6   1    0.39    0.06
   4  -6   1    0.40    0.08
   4  -6   1    0.39    0.05
  -5   6  -1    0.01    0.05
  -5   6  -1    0.04    0.04
  -5   6  -1    0.01    0.05
  -5   6  -1   -0.01    0.04
   5  -6   1   -0.03    0.04
   5  -6   1    0.03    0.06
   5  -6   1   -0.01    0.05
  -6   6  -1    1.35    0.10
  -6   6  -1    1.26    0.13
  -6   6  -1    1.20    0.11
  -6   6  -1    1.29    0.10
   6  -6   1    1.30    0.11
   6  -6   1    1.39    0.10
  -7   6  -1    0.53    0.09
  -7   6  -1    0.55    0.09
  -7   6  -1    0.41    0.06
   7  -6   1    0.43    0.08
   7  -6   1    0.41    0.06
  11   5  -1    2.55    0.16
  11   5  -1    3.22    0.16
  11   5  -1    2.80    0.16
 -11  -5   1    2.78    0.17
  10   5  -1    0.03    0.05
  10   5  -1   -0.04    0.05
  10   5  -1   -0.04    0.05
 -10  -5   1    0.00    0.06
   9   5  -1    1.28    0.10
   9   5  -1    1.26    0.11
   9   5  -1    1.37    0.11
  -9  -5   1    1.01    0.09
   8   5  -1    3.39    0.17
   8   5  -1    3.48    0.16
   8   5  -1    3.54    0.16
   8   5  -1    3.46    0.13
   8   5  -1    3.68    0.14
  -8  -5   1    3.54    0.16
  -8  -5   1    3.32    0.16
  -8  -5   1    3.41    0.11
  -8  -5   1    3.49    0.16
   7   5  -1    8.35    0.30
   7   5  -1    8.63    0.29
   7   5  -1    8.35    0.36
   7   5  -1    8.14    0.27
  -7  -5   1    8.20    0.25
  -7  -5   1    8.54    0.25
  -7  -5   1    8.29    0.36
  -7  -5   1    8.39    0.28
   6   5  -1   22.99    0.73
   6   5  -1   23.69    0.74
   6   5  -1   23.29    0.67
   6   5  -1   21.79    0.95
   6   5  -1   24.64    0.95
  -6  -5   1   23.54    0.69
  -6  -5   1   23.53    0.67
  -6  -5   1   24.50    0.95
  -6  -5   1   22.82    0.67
  -6  -5   1   23.18    0.95
   5   5  -1    1.61    0.09
   5   5  -1    1.52    0.07
   5   5  -1    1.50    0.09
   5   5  -1    1.67    0.10
   5   5  -1    1.61    0.08
   5   5  -1    1.49    0.10
  -5  -5   1    1.57    0.09
  -5  -5   1    1.70    0.10
  -5  -5   1    1.67    0.07
  -5  -5   1    1.55    0.09
  -5  -5   1    1.49    0.09
  -5  -5   1    1.75    0.08
  -5  -5   1    1.50    0.10
   4   5  -1   13.61    0.55
   4   5  -1   12.66    0.42
   4   5  -1   13.05    0.38
   4   5  -1   12.90    0.39
   4   5  -1   12.69    0.42
   4   5  -1   13.59    0.55
  -4  -5   1   12.68    0.42
  -4  -5   1   12.97    0.39
  -4  -5   1   13.03    0.55
  -4  -5   1   14.59    0.55
  -4  -5   1   13.21    0.39
  -4  -5   1   12.82    0.40
  -4  -5   1   12.82    0.38
  -4  -5   1   12.79    0.40
   3   5  -1    1.81    0.08
   3   5  -1    1.94    0.11
   3   5  -1    1.81    0.07
   3   5  -1    2.01    0.11
   3   5  -1    1.72    0.07
  -3  -5   1    1.89    0.11
  -3  -5   1    1.67    0.08
  -3  -5   1    1.70    0.08
  -3  -5   1    1.77    0.09
  -3  -5   1    1.86    0.11
  -3  -5   1    1.78    0.07
  -3  -5   1    1.76    0.08
   2   5  -1    9.91    0.29
   2   5  -1   10.28    0.29
   2   5  -1   10.56    0.31
   2   5  -1   10.23    0.30
   2   5  -1   10.15    0.44
   2   5  -1   10.11    0.44
  -2  -5   1   10.56    0.33
  -2  -5   1   10.13    0.30
  -2  -5   1    9.72    0.44
  -2  -5   1   10.67    0.44
  -2  -5   1   10.10    0.31
   1   5  -1    2.13    0.09
   1   5  -1    1.96    0.13
   1   5  -1    2.28    0.07
   1   5  -1    2.15    0.08
   1   5  -1    1.92    0.12
  -1  -5   1    2.07    0.08
  -1  -5   1    2.07    0.13
  -1  -5   1    2.23    0.08
  -1  -5   1    1.97    0.12
  -1  -5   1    2.11    0.09
  -1  -5   1    2.22    0.10
   0   5  -1    7.24    0.24
   0   5  -1    7.44    0.22
   0   5  -1    6.68    0.33
   0   5  -1    7.61    0.22
   0   5  -1    7.81    0.34
   0  -5   1    7.31    0.23
   0  -5   1    7.48    0.22
   0  -5   1    7.59    0.22
   0  -5   1    8.14    0.34
   0  -5   1    6.96    0.33
   0  -5   1    7.32    0.23
  -1   5  -1    1.83    0.12
  -1   5  -1    1.66    0.09
  -1   5  -1    1.62    0.08
  -1   5  -1    1.60    0.12
  -1   5  -1    1.82    0.07
  -1   5  -1    1.81    0.07
   1  -5   1    2.16    0.08
   1  -5   1    2.09    0.08
   1  -5   1    1.97    0.08
   1  -5   1    1.74    0.12
   1  -5   1    1.75    0.12
  -2   5  -1    0.37    0.04
  -2   5  -1    0.52    0.07
  -2   5  -1    0.31    0.06
  -2   5  -1    0.44    0.03
  -2   5  -1    0.49    0.04
   2  -5   1    0.37    0.06
   2  -5   1    0.37    0.04
   2  -5   1    0.38    0.04
  -3   5  -1    1.79    0.09
  -3   5  -1    1.75    0.09
  -3   5  -1    1.74    0.13
  -3   5  -1    1.87    0.13
   3  -5   1    1.63    0.13
   3  -5   1    1.76    0.09
   3  -5   1    1.68    0.09
  -4   5  -1    1.16    0.11
  -4   5  -1    1.08    0.10
  -4   5  -1    1.15    0.08
  -4   5  -1    1.07    0.08
   4  -5   1    0.95    0.08
   4  -5   1    1.01    0.08
   4  -5   1    0.94    0.11
  -5   5  -1   -0.01    0.04
  -5   5  -1    0.08    0.05
  -5   5  -1   -0.01    0.03
  -5   5  -1    0.05    0.04
   5  -5   1    0.04    0.05
   5  -5   1    0.05    0.05
   5  -5   1    0.02    0.03
  -6   5  -1    0.33    0.06
  -6   5  -1    0.33    0.07
  -6   5  -1    0.31    0.05
  -6   5  -1    0.28    0.06
   6  -5   1    0.29    0.06
   6  -5   1    0.37    0.05
  -7   5  -1    0.62    0.08
  -7   5  -1    0.82    0.07
  -7   5  -1    0.63    0.09
  -7   5  -1    0.66    0.08
   7  -5   1    0.70    0.08
   7  -5   1    0.77    0.07
  -8   5  -1    1.51    0.14
  -8   5  -1    1.80    0.15
   8  -5   1    1.70    0.14
  11   4  -1    0.89    0.09
  11   4  -1    0.89    0.09
  11   4  -1    0.87    0.09
  11   4  -1    0.89    0.09
  10   4  -1    0.04    0.05
  10   4  -1    0.05    0.05
  10   4  -1    0.09    0.05
 -10  -4   1    0.00    0.06
   9   4  -1    2.19    0.13
   9   4  -1    2.08    0.13
   9   4  -1    2.11    0.12
  -9  -4   1    1.90    0.13
   8   4  -1    8.34    0.30
   8   4  -1    8.26    0.30
   8   4  -1    8.21    0.26
   8   4  -1    8.68    0.27
  -8  -4   1    8.31    0.29
   7   4  -1    0.74    0.05
   7   4  -1    0.77    0.05
   7   4  -1    0.66    0.05
   7   4  -1    0.53    0.06
   7   4  -1    0.49    0.05
   7   4  -1    0.55    0.05
  -7  -4   1    0.69    0.05
  -7  -4   1    0.73    0.04
  -7  -4   1    0.64    0.06
  -7  -4   1    0.71    0.05
  -7  -4   1    0.66    0.04
  -7  -4   1    0.70    0.03
   6   4  -1   17.33    0.69
   6   4  -1   16.65    0.54
   6   4  -1   17.01    0.55
   6   4  -1   16.88    0.68
   6   4  -1   17.12    0.49
  -6  -4   1   17.03    0.68
  -6  -4   1   16.63    0.48
  -6  -4   1   17.01    0.51
   5   4  -1    9.15    0.27
   5   4  -1    9.01    0.31
   5   4  -1    9.06    0.27
   5   4  -1    9.20    0.29
   5   4  -1    9.09    0.38
   5   4  -1    8.96    0.30
  -5  -4   1    8.87    0.29
  -5  -4   1    8.91    0.27
  -5  -4   1    8.85    0.38
  -5  -4   1    9.15    0.38
  -5  -4   1    9.02    0.28
  -5  -4   1    8.98    0.30
  -5  -4   1    9.17    0.27
   4   4  -1   67.12    2.59
   4   4  -1   66.14    1.83
   4   4  -1   65.38    1.97
   4   4  -1   66.73    1.82
   4   4  -1   64.03    2.59
  -4  -4   1   66.92    1.97
  -4  -4   1   65.39    1.82
  -4  -4   1   65.30    1.84
  -4  -4   1   66.02    1.91
  -4  -4   1   65.83    1.89
  -4  -4   1   66.09    1.83
  -4  -4   1   61.12    2.59
  -4  -4   1   65.61    2.59
   3   4  -1   15.17    0.64
   3   4  -1   14.76    0.48
   3   4  -1   15.56    0.45
   3   4  -1   16.16    0.64
   3   4  -1   15.53    0.44
  -3  -4   1   15.52    0.48
  -3  -4   1   15.24    0.44
  -3  -4   1   16.05    0.64
  -3  -4   1   15.31    0.47
  -3  -4   1   15.50    0.45
  -3  -4   1   15.33    0.45
  -3  -4   1   16.49    0.64
   2   4  -1   29.83    0.83
   2   4  -1   30.01    0.80
   2   4  -1   29.68    0.82
   2   4  -1   25.99    1.18
   2   4  -1   32.02    1.18
  -2  -4   1   29.13    0.82
  -2  -4   1   29.62    0.89
  -2  -4   1   28.88    0.83
  -2  -4   1   31.23    1.18
  -2  -4   1   27.41    1.18
   1   4  -1   64.08    1.73
   1   4  -1   62.28    1.78
   1   4  -1   64.54    2.51
   1   4  -1   63.22    2.51
   1   4  -1   62.82    1.70
  -1  -4   1   63.35    2.51
  -1  -4   1   63.45    1.90
  -1  -4   1   64.08    1.76
  -1  -4   1   61.52    1.78
  -1  -4   1   63.70    1.70
  -1  -4   1   63.80    2.51
   0   4  -1   21.66    0.91
   0   4  -1   22.67    0.62
   0   4  -1   22.30    0.64
   0   4  -1   22.69    0.61
   0   4  -1   21.60    0.91
   0  -4   1   22.52    0.62
   0  -4   1   22.47    0.61
   0  -4   1   23.04    0.91
   0  -4   1   22.45    0.64
   0  -4   1   22.53    0.63
   0  -4   1   22.22    0.91
  -1   4  -1   90.04    3.74
  -1   4  -1   98.39    2.58
  -1   4  -1   99.45    3.74
  -1   4  -1   94.97    2.54
  -1   4  -1   94.47    2.64
   1  -4   1   95.77    2.54
   1  -4   1   96.03    3.74
   1  -4   1   97.02    2.64
   1  -4   1   84.83    3.74
   1  -4   1   94.95    2.58
  -2   4  -1   15.85    0.46
  -2   4  -1   15.89    0.50
  -2   4  -1   17.43    0.68
  -2   4  -1   16.31    0.68
  -2   4  -1   16.00    0.48
  -2   4  -1   16.12    0.49
   2  -4   1   17.14    0.68
   2  -4   1   16.22    0.48
   2  -4   1   16.42    0.46
   2  -4   1   15.58    0.68
   2  -4   1   15.88    0.46
  -3   4  -1    0.82    0.06
  -3   4  -1    0.92    0.06
  -3   4  -1    0.85    0.08
  -3   4  -1    0.74    0.08
   3  -4   1    0.73    0.06
   3  -4   1    0.70    0.08
   3  -4   1    0.80    0.06
   3  -4   1    0.77    0.06
   3  -4   1    0.84    0.06
  -4   4  -1    2.34    0.10
  -4   4  -1    2.43    0.12
  -4   4  -1    2.36    0.14
  -4   4  -1    2.44    0.11
  -4   4  -1    2.27    0.15
   4  -4   1    2.70    0.15
   4  -4   1    2.42    0.11
   4  -4   1    2.37    0.10
  -5   4  -1    9.71    0.30
  -5   4  -1    9.34    0.35
  -5   4  -1    9.63    0.31
  -5   4  -1    9.79    0.43
  -5   4  -1   10.22    0.43
   5  -4   1    9.41    0.30
   5  -4   1   10.07    0.43
   5  -4   1    9.63    0.31
  -6   4  -1    0.76    0.08
  -6   4  -1    0.80    0.07
  -6   4  -1    0.83    0.09
  -6   4  -1    0.79    0.07
   6  -4   1    0.91    0.10
   6  -4   1    0.88    0.07
   6  -4   1    0.71    0.07
  -7   4  -1    0.30    0.04
  -7   4  -1    0.26    0.06
  -7   4  -1    0.27    0.06
  -7   4  -1    0.27    0.07
   7  -4   1    0.29    0.06
   7  -4   1    0.23    0.04
  -8   4  -1    1.61    0.15
  -8   4  -1    1.55    0.12
  -8   4  -1    1.47    0.12
   8  -4   1    1.63    0.13
  -9   4  -1    0.38    0.09
  -9   4  -1    0.25    0.06
   9  -4   1    0.21    0.08
  11   3  -1   -0.04    0.05
  11   3  -1    0.01    0.05
  11   3  -1   -0.01    0.06
  11   3  -1   -0.04    0.05
  10   3  -1    0.67    0.08
  10   3  -1    0.53    0.07
  10   3  -1    0.56    0.07
   9   3  -1    0.44    0.06
   9   3  -1    0.45    0.06
   9   3  -1    0.43    0.06
  -9  -3   1    0.46    0.07
   8   3  -1    2.02    0.10
   8   3  -1    2.20    0.12
   8   3  -1    2.12    0.11
   8   3  -1    1.90    0.10
  -8  -3   1    1.93    0.12
   7   3  -1   -0.05    0.03
   7   3  -1   -0.01    0.03
   7   3  -1   -0.04    0.03
   7   3  -1    0.01    0.03
  -7  -3   1    0.07    0.04
   6   3  -1    1.34    0.08
   6   3  -1    1.34    0.07
   6   3  -1    1.27    0.06
   6   3  -1    1.30    0.06
   6   3  -1    1.25    0.08
   6   3  -1    1.30    0.07
  -6  -3   1    1.40    0.08
  -6  -3   1    1.28    0.04
  -6  -3   1    1.32    0.06
  -6  -3   1    1.26    0.06
   5   3  -1   17.12    0.54
   5   3  -1   17.40    0.70
   5   3  -1   17.18    0.56
   5   3  -1   17.39    0.51
   5   3  -1   17.54    0.53
   5   3  -1   17.41    0.50
   5   3  -1   17.49    0.55
   5   3  -1   17.94    0.70
  -5  -3   1   17.57    0.70
  -5  -3   1   17.61    0.70
  -5  -3   1   17.51    0.51
  -5  -3   1   17.19    0.49
   4   3  -1  188.33    7.30
   4   3  -1  184.59    7.31
   4   3  -1  182.86    5.18
   4   3  -1  183.60    5.10
   4   3  -1  186.71    5.35
   4   3  -1  183.25    5.50
  -4  -3   1  196.32    7.33
  -4  -3   1  183.49    5.16
  -4  -3   1  181.72    5.10
  -4  -3   1  181.26    5.35
  -4  -3   1  181.37    5.13
  -4  -3   1  186.03    7.30
  -4  -3   1  186.12    5.50
   3   3  -1    0.13    0.03
   3   3  -1    0.12    0.03
   3   3  -1    0.13    0.03
   3   3  -1    0.14    0.02
   3   3  -1    0.11    0.02
  -3  -3   1    0.12    0.03
  -3  -3   1    0.11    0.01
  -3  -3   1    0.15    0.02
  -3  -3   1    0.14    0.02
  -3  -3   1    0.09    0.03
  -3  -3   1    0.14    0.03
  -3  -3   1    0.12    0.03
  -3  -3   1    0.07    0.02
   2   3  -1   61.58    1.86
   2   3  -1   62.72    2.46
   2   3  -1   63.62    1.74
   2   3  -1   63.96    1.67
   2   3  -1   57.98    2.46
   2   3  -1   62.04    1.72
  -2  -3   1   60.45    2.46
  -2  -3   1   62.16    1.72
  -2  -3   1   61.42    2.46
  -2  -3   1   63.20    1.81
  -2  -3   1   62.83    1.74
  -2  -3   1   64.02    1.86
  -2  -3   1   62.48    1.74
   1   3  -1   19.72    0.54
   1   3  -1   19.65    0.55
   1   3  -1   19.94    0.53
   1   3  -1   19.44    0.56
   1   3  -1   19.81    0.79
   1   3  -1   19.18    0.79
  -1  -3   1   19.57    0.53
  -1  -3   1   19.42    0.60
  -1  -3   1   19.86    0.79
  -1  -3   1   20.13    0.79
  -1  -3   1   18.84    0.56
  -1  -3   1   19.67    0.55
   0   3  -1    0.08    0.02
   0   3  -1    0.05    0.01
   0   3  -1    0.02    0.02
   0   3  -1    0.11    0.03
   0  -3   1    0.03    0.02
   0  -3   1    0.07    0.01
   0  -3   1    0.10    0.03
   0  -3   1    0.04    0.01
   0  -3   1    0.04    0.02
   0  -3   1    0.09    0.01
  -1   3  -1  152.12    4.17
  -1   3  -1  144.12    4.32
  -1   3  -1  170.44    6.13
  -1   3  -1  154.47    6.14
   1  -3   1  150.13    6.09
   1  -3   1  151.63    4.13
   1  -3   1  154.35    4.31
   1  -3   1  152.42    4.21
   1  -3   1  164.74    6.13
  -2   3  -1    2.62    0.11
  -2   3  -1    2.91    0.14
  -2   3  -1    2.85    0.10
  -2   3  -1    2.73    0.09
  -2   3  -1    2.74    0.10
  -2   3  -1    2.58    0.14
   2  -3   1    2.86    0.14
   2  -3   1    2.73    0.10
   2  -3   1    2.76    0.10
   2  -3   1    2.69    0.10
   2  -3   1    2.83    0.14
  -3   3  -1    7.43    0.23
  -3   3  -1    8.21    0.34
  -3   3  -1    8.27    0.24
  -3   3  -1    7.79    0.34
   3  -3   1    7.42    0.24
   3  -3   1    7.97    0.34
   3  -3   1    7.73    0.24
   3  -3   1    7.60    0.24
   3  -3   1    7.51    0.34
   3  -3   1    7.63    0.23
  -4   3  -1    6.48    0.21
  -4   3  -1    6.61    0.24
  -4   3  -1    6.29    0.29
  -4   3  -1    6.45    0.21
  -4   3  -1    6.49    0.29
   4  -3   1    6.72    0.21
   4  -3   1    6.54    0.21
   4  -3   1    6.39    0.21
   4  -3   1    6.61    0.21
   4  -3   1    6.43    0.29
  -5   3  -1    1.41    0.10
  -5   3  -1    1.46    0.08
  -5   3  -1    1.43    0.08
  -5   3  -1    1.45    0.10
  -5   3  -1    1.40    0.10
   5  -3   1    1.32    0.07
   5  -3   1    1.34    0.07
   5  -3   1    1.38    0.08
   5  -3   1    1.47    0.09
   5  -3   1    1.49    0.11
  -6   3  -1    3.01    0.17
  -6   3  -1    2.82    0.15
  -6   3  -1    3.20    0.14
  -6   3  -1    3.14    0.12
  -6   3  -1    3.20    0.17
   6  -3   1    2.96    0.17
   6  -3   1    3.08    0.12
   6  -3   1    3.09    0.14
   6  -3   1    3.18    0.12
  -7   3  -1   -0.03    0.05
  -7   3  -1    0.08    0.04
  -7   3  -1   -0.03    0.04
  -7   3  -1   -0.01    0.03
   7  -3   1    0.00    0.05
   7  -3   1    0.01    0.03
  -8   3  -1    1.93    0.09
  -8   3  -1    1.93    0.15
  -8   3  -1    1.89    0.13
  -8   3  -1    1.97    0.13
   8  -3   1    2.06    0.13
  -9   3  -1    0.16    0.05
  -9   3  -1    0.12    0.07
   9  -3   1    0.15    0.07
  11   2  -1    0.24    0.07
  11   2  -1    0.19    0.06
  11   2  -1    0.17    0.07
  11   2  -1    0.20    0.07
  10   2  -1   -0.05    0.04
  10   2  -1   -0.01    0.05
  10   2  -1   -0.02    0.05
  10   2  -1    0.06    0.05
   9   2  -1    1.05    0.09
   9   2  -1    0.90    0.08
   9   2  -1    1.09    0.06
   9   2  -1    0.89    0.08
   8   2  -1    0.47    0.05
   8   2  -1    0.49    0.06
   8   2  -1    0.39    0.06
   8   2  -1    0.51    0.04
   7   2  -1    8.38    0.29
   7   2  -1    8.76    0.26
   7   2  -1    8.52    0.27
   7   2  -1    8.33    0.26
   7   2  -1    8.38    0.29
  -7  -2   1    8.38    0.28
   6   2  -1    0.12    0.02
   6   2  -1    0.08    0.03
   6   2  -1    0.09    0.03
   6   2  -1    0.12    0.03
   6   2  -1    0.09    0.03
  -6  -2   1    0.14    0.04
   5   2  -1    0.55    0.03
   5   2  -1    0.56    0.05
   5   2  -1    0.43    0.04
   5   2  -1    0.37    0.04
   5   2  -1    0.47    0.04
   5   2  -1    0.45    0.04
   5   2  -1    0.43    0.04
   5   2  -1    0.47    0.04
  -5  -2   1    0.36    0.04
   4   2  -1    0.39    0.03
   4   2  -1    0.33    0.04
   4   2  -1    0.34    0.03
   4   2  -1    0.54    0.02
   4   2  -1    0.49    0.03
   4   2  -1    0.34    0.04
   4   2  -1    0.39    0.03
   4   2  -1    0.49    0.03
   4   2  -1    0.48    0.04
  -4  -2   1    0.40    0.02
  -4  -2   1    0.38    0.04
  -4  -2   1    0.41    0.02
  -4  -2   1    0.49    0.03
  -4  -2   1    0.51    0.04
   3   2  -1   42.87    1.17
   3   2  -1   41.39    1.26
   3   2  -1   41.94    1.18
   3   2  -1   42.35    1.66
   3   2  -1   42.70    1.17
   3   2  -1   42.09    1.23
   3   2  -1   41.20    1.66
  -3  -2   1   41.95    1.23
  -3  -2   1   42.28    1.26
  -3  -2   1   40.46    1.66
  -3  -2   1   42.65    1.21
  -3  -2   1   42.41    1.18
  -3  -2   1   42.34    1.17
  -3  -2   1   41.90    1.17
   2   2  -1  422.40   17.42
   2   2  -1  447.21   12.32
   2   2  -1  440.25   13.19
   2   2  -1  445.20   12.20
   2   2  -1  437.38   17.41
  -2  -2   1  448.89   13.19
  -2  -2   1  445.26   12.76
  -2  -2   1  412.14   17.41
  -2  -2   1  467.19   17.42
  -2  -2   1  444.32   12.30
  -2  -2   1  451.89   12.20
  -2  -2   1  446.75   12.82
  -2  -2   1  444.03   12.32
   1   2  -1    1.78    0.06
   1   2  -1    1.98    0.09
   1   2  -1    1.77    0.06
   1   2  -1    2.10    0.09
   1   2  -1    1.83    0.06
  -1  -2   1    1.80    0.06
  -1  -2   1    1.77    0.07
  -1  -2   1    1.79    0.09
  -1  -2   1    1.83    0.06
  -1  -2   1    1.96    0.09
   0   2  -1    1.40    0.08
   0   2  -1    1.58    0.06
   0   2  -1    1.69    0.05
   0   2  -1    1.65    0.05
   0   2  -1    1.57    0.08
   0  -2   1    1.40    0.08
   0  -2   1    1.53    0.05
   0  -2   1    1.50    0.06
   0  -2   1    1.49    0.08
   0  -2   1    1.69    0.05
  -1   2  -1    3.91    0.19
  -1   2  -1    4.32    0.19
   1  -2   1    4.12    0.19
   1  -2   1    4.49    0.13
   1  -2   1    4.02    0.19
   1  -2   1    4.50    0.13
   1  -2   1    4.43    0.13
  -2   2  -1   98.44    3.88
  -2   2  -1   97.44    2.86
  -2   2  -1  101.04    2.64
  -2   2  -1   98.68    2.94
  -2   2  -1   98.76    2.74
  -2   2  -1   97.21    3.88
   2  -2   1  100.43    2.64
   2  -2   1   96.37    2.68
   2  -2   1   96.67    3.88
   2  -2   1   98.37    2.74
   2  -2   1   97.80    3.88
   2  -2   1  100.82    2.74
  -3   2  -1   57.01    1.68
  -3   2  -1   56.82    1.73
  -3   2  -1   55.59    2.23
  -3   2  -1   57.08    1.52
  -3   2  -1   54.63    2.23
  -3   2  -1   57.30    1.58
   3  -2   1   56.52    1.58
   3  -2   1   57.50    2.23
   3  -2   1   55.08    2.23
   3  -2   1   54.95    1.55
   3  -2   1   56.94    1.52
   3  -2   1   57.54    1.58
  -4   2  -1   46.11    1.95
  -4   2  -1   50.47    1.38
  -4   2  -1   43.80    1.95
  -4   2  -1   49.73    1.52
  -4   2  -1   49.89    1.33
   4  -2   1   50.69    1.38
   4  -2   1   48.02    1.35
   4  -2   1   49.75    1.37
   4  -2   1   49.70    1.33
   4  -2   1   49.18    1.38
   4  -2   1   48.95    1.95
   4  -2   1   52.28    1.95
  -5   2  -1    9.66    0.43
  -5   2  -1   10.04    0.31
  -5   2  -1   10.40    0.35
  -5   2  -1   10.30    0.31
  -5   2  -1   10.52    0.44
   5  -2   1   10.10    0.31
   5  -2   1   10.52    0.31
   5  -2   1   10.20    0.31
   5  -2   1   10.71    0.44
   5  -2   1    9.87    0.43
   5  -2   1   10.16    0.31
   5  -2   1   10.55    0.31
   5  -2   1   10.14    0.31
  -6   2  -1    0.09    0.04
  -6   2  -1    0.06    0.04
  -6   2  -1    0.07    0.04
  -6   2  -1    0.03    0.02
  -6   2  -1    0.03    0.04
   6  -2   1    0.04    0.04
   6  -2   1    0.04    0.03
   6  -2   1    0.00    0.04
   6  -2   1    0.05    0.02
  -7   2  -1    6.17    0.28
  -7   2  -1    5.93    0.25
  -7   2  -1    6.35    0.28
  -7   2  -1    6.11    0.22
  -7   2  -1    6.21    0.20
   7  -2   1    6.28    0.22
   7  -2   1    6.22    0.19
   7  -2   1    6.27    0.28
   7  -2   1    6.22    0.20
  -8   2  -1    2.70    0.16
  -8   2  -1    2.78    0.11
  -8   2  -1    2.94    0.15
  -8   2  -1    2.95    0.14
   8  -2   1    2.60    0.14
   8  -2   1    2.65    0.11
  -9   2  -1    0.63    0.08
  -9   2  -1    0.65    0.09
   9  -2   1    0.60    0.08
 -10   2  -1    0.94    0.11
  10  -2   1    1.04    0.10
  11   1  -1    0.44    0.08
  11   1  -1    0.46    0.07
  11   1  -1    0.63    0.09
  11   1  -1    0.39    0.08
  10   1  -1    0.35    0.06
  10   1  -1    0.36    0.07
  10   1  -1    0.42    0.07
  10   1  -1    0.36    0.05
  10   1  -1    0.49    0.08
   9   1  -1    0.02    0.03
   9   1  -1    0.00    0.05
   9   1  -1    0.03    0.04
   9   1  -1    0.02    0.05
   8   1  -1   -0.15    0.04
   8   1  -1   -0.06    0.03
   8   1  -1   -0.04    0.03
   8   1  -1   -0.03    0.04
   7   1  -1   30.14    0.92
   7   1  -1   30.18    0.83
   7   1  -1   29.07    0.88
   7   1  -1   30.12    0.86
  -7  -1   1   30.11    0.96
   6   1  -1    6.00    0.19
   6   1  -1    5.92    0.21
   6   1  -1    6.30    0.19
  -6  -1   1    5.95    0.23
   5   1  -1   29.57    0.90
   5   1  -1   29.21    0.80
   5   1  -1   28.90    0.84
   5   1  -1   29.45    0.86
   5   1  -1   29.54    0.92
   5   1  -1   29.83    0.87
  -5  -1   1   29.15    0.84
  -5  -1   1   29.29    0.92
   4   1  -1  128.81    3.71
   4   1  -1  127.62    3.56
   4   1  -1  126.89    3.90
   4   1  -1  125.79    3.70
   4   1  -1  129.26    3.42
  -4  -1   1  127.39    3.56
  -4  -1   1  131.39    3.90
   3   1  -1   38.49    1.12
   3   1  -1   39.77    1.04
   3   1  -1   38.48    1.17
   3   1  -1   38.53    1.09
   3   1  -1   38.96    1.13
   3   1  -1   38.92    1.08
   3   1  -1   39.00    1.19
  -3  -1   1   38.32    1.09
   2   1  -1 1000.00   29.34
   2   1  -1  974.26   27.35
   1   1  -1    9.79    0.29
   1   1  -1    9.21    0.40
   1   1  -1    9.92    0.28
   1   1  -1    9.86    0.29
   1   1  -1   10.02    0.31
   1   1  -1    9.94    0.28
   1   1  -1   10.95    0.40
  -1  -1   1    8.81    0.40
  -1  -1   1    9.88    0.29
  -1  -1   1    9.73    0.31
  -1  -1   1   10.02    0.30
  -1  -1   1   10.02    0.29
  -1  -1   1    9.85    0.28
  -1  -1   1   10.00    0.28
  -1  -1   1   10.05    0.28
  -1  -1   1    9.49    0.40
   0   1  -1   21.22    0.94
   0   1  -1   24.41    0.94
   0   1  -1   23.55    0.66
   0   1  -1   24.07    0.63
   0  -1   1   24.44    0.63
   0  -1   1   23.61    0.66
   0  -1   1   24.98    0.94
   0  -1   1   23.62    0.71
   0  -1   1   23.61    0.66
   0  -1   1   22.71    0.94
   0  -1   1   24.05    0.64
  -1   1  -1   96.12    2.48
  -1   1  -1   91.53    3.65
  -1   1  -1   94.53    2.57
  -1   1  -1   98.25    2.77
   1  -1   1   96.07    2.58
   1  -1   1   94.44    2.58
   1  -1   1   81.74    3.63
   1  -1   1   95.94    2.46
   1  -1   1   82.06    3.63
  -2   1  -1   -0.02    0.02
  -2   1  -1    0.00    0.02
  -2   1  -1    0.01    0.01
  -2   1  -1   -0.02    0.02
  -2   1  -1    0.01    0.02
  -2   1  -1   -0.05    0.01
  -2   1  -1    0.00    0.02
   2  -1   1   -0.01    0.02
   2  -1   1   -0.02    0.01
   2  -1   1   -0.02    0.02
   2  -1   1   -0.04    0.01
   2  -1   1   -0.02    0.02
   2  -1   1   -0.01    0.01
  -3   1  -1   79.32    2.13
  -3   1  -1   78.25    2.33
  -3   1  -1   67.29    3.01
  -3   1  -1   72.92    3.01
  -3   1  -1   79.50    2.05
  -3   1  -1   78.90    2.28
   3  -1   1   80.63    2.13
   3  -1   1   67.52    3.01
   3  -1   1   78.14    2.13
   3  -1   1   75.27    3.01
   3  -1   1   80.50    2.28
   3  -1   1   78.70    2.12
  -4   1  -1   17.31    0.72
  -4   1  -1   17.93    0.50
  -4   1  -1   17.83    0.57
  -4   1  -1   18.95    0.72
  -4   1  -1   17.87    0.51
  -4   1  -1   17.93    0.54
   4  -1   1   16.79    0.72
   4  -1   1   18.51    0.50
   4  -1   1   17.66    0.51
   4  -1   1   18.78    0.72
   4  -1   1   17.55    0.51
   4  -1   1   17.52    0.51
   4  -1   1   17.67    0.54
  -5   1  -1    0.12    0.02
  -5   1  -1    0.08    0.03
  -5   1  -1    0.03    0.03
  -5   1  -1    0.09    0.03
   5  -1   1    0.11    0.02
   5  -1   1    0.05    0.02
   5  -1   1    0.08    0.03
   5  -1   1    0.09    0.03
   5  -1   1    0.09    0.03
   5  -1   1    0.06    0.03
  -6   1  -1    1.63    0.10
  -6   1  -1    1.71    0.09
  -6   1  -1    1.70    0.10
  -6   1  -1    1.66    0.07
  -6   1  -1    1.53    0.10
   6  -1   1    1.70    0.07
   6  -1   1    1.72    0.10
   6  -1   1    1.55    0.08
   6  -1   1    1.66    0.10
   6  -1   1    1.60    0.07
  -7   1  -1    5.03    0.23
  -7   1  -1    4.97    0.16
  -7   1  -1    5.26    0.22
  -7   1  -1    5.15    0.18
   7  -1   1    5.31    0.23
   7  -1   1    4.97    0.19
   7  -1   1    4.99    0.16
   7  -1   1    4.92    0.17
  -8   1  -1    1.90    0.11
  -8   1  -1    2.08    0.15
  -8   1  -1    1.92    0.08
   8  -1   1    1.67    0.09
   8  -1   1    1.95    0.08
   8  -1   1    2.12    0.12
  -9   1  -1    5.43    0.25
  -9   1  -1    5.89    0.26
   9  -1   1    5.76    0.22
 -10   1  -1    0.28    0.08
  10  -1   1    0.30    0.08
  11   0  -1   -0.01    0.06
  11   0  -1   -0.03    0.07
  11   0  -1    0.11    0.07
  10   0  -1    0.41    0.07
  10   0  -1    0.30    0.07
  10   0  -1    0.30    0.07
 -10   0   1    0.23    0.08
   9   0  -1    0.04    0.04
   9   0  -1    0.14    0.06
   9   0  -1   -0.06    0.06
   9   0  -1    0.05    0.04
  -9   0   1    0.03    0.06
   8   0  -1    3.03    0.14
   8   0  -1    3.18    0.13
  -8   0   1    2.78    0.16
   7   0  -1    0.47    0.05
   7   0  -1    0.44    0.06
  -7   0   1    0.45    0.07
   6   0  -1    2.73    0.11
   6   0  -1    2.48    0.11
   6   0  -1    2.49    0.11
  -6   0   1    3.12    0.14
   5   0  -1    9.47    0.30
   5   0  -1    9.23    0.28
   5   0  -1    9.22    0.30
   5   0  -1    9.58    0.29
   5   0  -1    9.38    0.27
  -5   0   1    9.28    0.32
  -5   0   1    9.10    0.28
   4   0  -1   18.06    0.52
   4   0  -1   18.06    0.57
   4   0  -1   18.02    0.54
   4   0  -1   18.01    0.50
  -4   0   1   17.71    0.50
  -4   0   1   17.83    0.57
   3   0  -1   -0.05    0.02
   3   0  -1   -0.04    0.01
   3   0  -1   -0.02    0.02
   3   0  -1   -0.04    0.02
  -3   0   1   -0.05    0.02
  -3   0   1   -0.02    0.02
   2   0  -1   83.60    3.26
   2   0  -1   83.28    2.21
   2   0  -1   80.80    2.30
   2   0  -1   82.94    2.40
   2   0  -1   81.83    2.26
   2   0  -1   83.02    2.52
   2   0  -1   84.72    3.26
   2   0  -1   82.09    2.30
   2   0  -1   84.75    2.31
  -2   0   1   82.32    2.52
  -2   0   1   81.09    3.26
  -2   0   1   83.14    2.21
  -2   0   1   84.82    3.26
   1   0  -1  565.94   16.83
   1   0  -1  549.73   15.37
  -1   0   1  548.68   16.83
  -1   0  -1    8.08    0.25
  -1   0  -1    7.98    0.26
  -1   0  -1    8.08    0.29
  -1   0  -1    7.81    0.37
  -1   0  -1    8.17    0.28
  -1   0  -1    8.14    0.37
  -1   0  -1    7.93    0.26
   1   0   1    8.11    0.25
   1   0   1    7.65    0.37
   1   0   1    8.27    0.26
   1   0   1    8.18    0.29
   1   0   1    8.03    0.28
   1   0   1    7.99    0.26
   1   0   1    8.22    0.37
  -2   0  -1  414.76   12.33
  -2   0  -1  414.08   16.24
  -2   0  -1  409.37   11.46
  -2   0  -1  411.19   12.55
  -2   0  -1  415.04   11.46
  -2   0  -1  410.91   16.24
  -2   0  -1  416.46   11.05
  -2   0  -1  414.57   11.49
   2   0   1  406.17   16.24
   2   0   1  408.96   11.46
   2   0   1  414.87   12.56
   2   0   1  416.54   11.47
   2   0   1  412.13   12.33
   2   0   1  414.29   11.03
   2   0   1  417.57   16.24
  -3   0  -1    3.53    0.16
  -3   0  -1    4.19    0.16
  -3   0  -1    3.69    0.11
  -3   0  -1    3.60    0.12
  -3   0  -1    3.67    0.13
  -3   0  -1    3.57    0.12
  -3   0  -1    3.57    0.12
  -3   0  -1    3.66    0.11
   3   0   1    3.63    0.16
   3   0   1    3.74    0.12
   3   0   1    3.69    0.12
   3   0   1    3.68    0.16
   3   0   1    3.49    0.11
   3   0   1    3.68    0.12
   3   0   1    3.75    0.13
  -4   0  -1   21.98    0.89
  -4   0  -1   23.77    0.89
  -4   0  -1   22.04    0.62
  -4   0  -1   22.41    0.70
  -4   0  -1   22.40    0.68
  -4   0  -1   22.40    0.63
   4   0   1   22.10    0.63
   4   0   1   22.10    0.64
   4   0   1   22.71    0.70
   4   0   1   22.30    0.62
   4   0   1   21.38    0.89
   4   0   1   22.34    0.68
   4   0   1   22.75    0.89
   4   0   1   22.87    0.67
  -5   0  -1    1.77    0.09
  -5   0  -1    1.75    0.06
  -5   0  -1    1.78    0.09
   5   0   1    1.70    0.09
   5   0   1    1.78    0.08
   5   0   1    1.63    0.08
   5   0   1    1.80    0.09
   5   0   1    1.58    0.07
   5   0   1    1.62    0.09
   5   0   1    1.80    0.08
   5   0   1    1.61    0.06
  -6   0  -1    2.58    0.12
  -6   0  -1    2.47    0.08
  -6   0  -1    2.24    0.12
   6   0   1    2.52    0.12
   6   0   1    2.43    0.11
   6   0   1    2.51    0.10
   6   0   1    2.59    0.12
   6   0   1    2.42    0.10
   6   0   1    2.34    0.09
  -7   0  -1    0.07    0.04
  -7   0  -1   -0.01    0.02
  -7   0  -1    0.01    0.02
  -7   0  -1    0.00    0.03
   7   0   1   -0.01    0.02
   7   0   1    0.05    0.02
   7   0   1    0.01    0.03
   7   0   1   -0.04    0.04
   7   0   1   -0.03    0.03
  -8   0  -1   19.77    0.65
  -8   0  -1   19.11    0.78
  -8   0  -1   19.28    0.55
  -8   0  -1   19.47    0.78
   8   0   1   19.39    0.55
   8   0   1   20.01    0.61
   8   0   1   19.23    0.78
  -9   0  -1    2.75    0.17
   9   0   1    2.78    0.15
   9   0   1    2.56    0.15
   9   0   1    2.67    0.12
 -10   0  -1    0.00    0.07
  10   0   1    0.00    0.06
  10   0   1   -0.03    0.06
 -11   0  -1    0.34    0.08
  11   0   1    0.39    0.08
  11   0   1    0.28    0.08
  10  -1  -1    0.31    0.07
  10  -1  -1    0.24    0.07
 -10   1   1    0.18    0.07
   9  -1  -1    0.41    0.07
   9  -1  -1    0.54    0.08
  -9   1   1    0.27    0.07
   8  -1  -1   16.72    0.51
   8  -1  -1   16.71    0.55
   8  -1  -1   16.88    0.53
  -8   1   1   17.24    0.58
   7  -1  -1   31.09    0.89
   7  -1  -1   31.49    0.95
   7  -1  -1   31.31    1.24
   7  -1  -1   31.58    1.24
  -7   1   1   30.81    1.24
  -7   1   1   31.58    0.88
  -7   1   1   31.23    1.00
  -7   1   1   31.84    1.24
   6  -1  -1    3.67    0.16
   6  -1  -1    3.71    0.13
   6  -1  -1    3.74    0.14
   6  -1  -1    3.70    0.11
   6  -1  -1    3.79    0.14
   6  -1  -1    3.77    0.16
  -6   1   1    3.71    0.14
  -6   1   1    3.56    0.16
  -6   1   1    3.54    0.16
  -6   1   1    3.48    0.17
   5  -1  -1   95.76    2.86
   5  -1  -1   93.57    2.65
   5  -1  -1   97.67    3.75
   5  -1  -1   97.08    2.57
   5  -1  -1   93.76    2.62
   5  -1  -1   95.86    2.65
   5  -1  -1   94.19    2.67
   5  -1  -1   96.31    3.75
  -5   1   1   96.50    3.75
  -5   1   1   94.92    2.93
  -5   1   1   95.48    2.57
   4  -1  -1    1.35    0.07
   4  -1  -1    1.25    0.07
   4  -1  -1    1.37    0.06
   4  -1  -1    1.30    0.05
   4  -1  -1    1.34    0.07
   4  -1  -1    1.31    0.06
   4  -1  -1    1.42    0.07
   4  -1  -1    1.35    0.05
  -4   1   1    1.31    0.07
  -4   1   1    1.09    0.06
  -4   1   1    1.29    0.06
  -4   1   1    1.32    0.05
  -4   1   1    1.28    0.08
   3  -1  -1   14.63    0.41
   3  -1  -1   15.07    0.47
   3  -1  -1   14.32    0.59
   3  -1  -1   14.58    0.41
   3  -1  -1   14.15    0.59
   3  -1  -1   14.09    0.42
  -3   1   1   14.53    0.59
  -3   1   1   14.78    0.47
  -3   1   1   15.89    0.42
  -3   1   1   14.34    0.41
   2  -1  -1    6.15    0.18
   2  -1  -1    6.17    0.18
   2  -1  -1    6.02    0.25
   2  -1  -1    6.28    0.25
  -2   1   1    5.89    0.18
  -2   1   1    6.23    0.25
  -2   1   1    6.09    0.20
  -2   1   1    6.26    0.25
  -2   1   1    6.17    0.18
   1  -1  -1   28.09    0.74
   1  -1  -1   26.23    1.09
   1  -1  -1   27.50    1.09
   1  -1  -1   27.86    0.77
   1  -1  -1   27.88    0.75
   1  -1  -1   28.21    0.82
  -1   1   1   28.19    0.74
  -1   1   1   25.75    1.09
  -1   1   1   26.77    1.09
  -1   1   1   27.83    0.84
  -1   1   1   28.61    0.75
   0  -1  -1  400.85   15.19
   0  -1  -1  378.60   15.18
   0   1   1  357.95   15.18
   0   1   1  374.83   11.15
   0   1   1  420.02   15.20
  -1  -1  -1  529.52   14.55
  -1  -1  -1  521.40   14.45
   1   1   1  522.46   14.45
  -2  -1  -1    2.30    0.11
  -2  -1  -1    2.76    0.08
  -2  -1  -1    2.60    0.08
  -2  -1  -1    2.60    0.08
  -2  -1  -1    2.59    0.09
  -2  -1  -1    2.53    0.09
   2   1   1    2.67    0.09
   2   1   1    2.61    0.08
   2   1   1    2.53    0.09
   2   1   1    2.63    0.11
   2   1   1    2.59    0.08
  -3  -1  -1   14.73    0.42
  -3  -1  -1   14.89    0.41
  -3  -1  -1   14.57    0.45
  -3  -1  -1   14.72    0.58
  -3  -1  -1   13.79    0.58
  -3  -1  -1   14.85    0.46
   3   1   1   15.22    0.45
   3   1   1   14.59    0.41
   3   1   1   14.75    0.41
   3   1   1   14.76    0.42
   3   1   1   14.43    0.58
   3   1   1   14.46    0.42
   3   1   1   14.59    0.58
  -4  -1  -1    0.15    0.03
  -4  -1  -1    0.21    0.03
  -4  -1  -1    0.24    0.02
  -4  -1  -1    0.21    0.02
   4   1   1    0.21    0.02
   4   1   1    0.18    0.02
   4   1   1    0.19    0.03
   4   1   1    0.16    0.03
   4   1   1    0.22    0.03
   4   1   1    0.21    0.03
   4   1   1    0.19    0.03
   4   1   1    0.23    0.02
  -5  -1  -1    0.03    0.02
  -5  -1  -1    0.01    0.01
  -5  -1  -1    0.01    0.03
  -5  -1  -1    0.02    0.02
  -5  -1  -1    0.03    0.01
  -5  -1  -1    0.01    0.03
   5   1   1    0.02    0.02
   5   1   1    0.03    0.01
   5   1   1    0.01    0.02
   5   1   1    0.01    0.02
   5   1   1    0.00    0.03
   5   1   1    0.04    0.03
   5   1   1    0.02    0.03
   5   1   1   -0.02    0.02
  -6  -1  -1   37.40    1.05
  -6  -1  -1   37.28    1.04
  -6  -1  -1   36.83    1.16
  -6  -1  -1   36.41    1.47
  -6  -1  -1   37.71    1.47
   6   1   1   37.41    1.47
   6   1   1   36.67    1.46
   6   1   1   37.19    1.05
   6   1   1   37.12    1.05
   6   1   1   37.19    1.13
   6   1   1   36.60    1.03
  -7  -1  -1    2.02    0.07
  -7  -1  -1    2.01    0.10
  -7  -1  -1    2.02    0.12
  -7  -1  -1    2.03    0.10
   7   1   1    2.19    0.11
   7   1   1    2.02    0.10
   7   1   1    2.01    0.10
   7   1   1    2.10    0.10
   7   1   1    1.87    0.10
  -8  -1  -1    1.14    0.06
  -8  -1  -1    1.20    0.11
  -8  -1  -1    1.09    0.06
   8   1   1    1.22    0.08
   8   1   1    1.20    0.10
   8   1   1    1.07    0.06
   8   1   1    1.29    0.09
  -9  -1  -1   -0.04    0.06
   9   1   1    0.04    0.04
   9   1   1    0.06    0.05
   9   1   1   -0.09    0.05
  10   1   1    0.38    0.06
  10   1   1    0.44    0.08
  11   1   1    0.20    0.08
  11   1   1    0.25    0.06
  11   1   1    0.28    0.07
  10  -2  -1    0.48    0.08
  10  -2  -1    0.30    0.06
 -10   2   1    0.44    0.09
   9  -2  -1    0.58    0.08
  -9   2   1    0.69    0.09
   8  -2  -1    8.07    0.28
   8  -2  -1    8.06    0.30
  -8   2   1    8.09    0.27
  -8   2   1    8.33    0.33
  -8   2   1    7.90    0.34
   7  -2  -1   -0.04    0.02
   7  -2  -1    0.00    0.06
   7  -2  -1    0.00    0.03
   7  -2  -1    0.02    0.02
   7  -2  -1    0.02    0.05
  -7   2   1    0.02    0.03
  -7   2   1   -0.03    0.05
  -7   2   1    0.03    0.03
  -7   2   1   -0.02    0.04
   6  -2  -1    4.76    0.19
   6  -2  -1    4.92    0.15
   6  -2  -1    4.70    0.16
   6  -2  -1    5.06    0.22
   6  -2  -1    4.64    0.21
   6  -2  -1    4.84    0.15
   6  -2  -1    4.71    0.18
  -6   2   1    4.88    0.15
  -6   2   1    4.60    0.20
  -6   2   1    4.76    0.17
   5  -2  -1    1.45    0.06
   5  -2  -1    1.45    0.09
   5  -2  -1    1.49    0.06
   5  -2  -1    1.57    0.07
   5  -2  -1    1.45    0.09
   5  -2  -1    1.45    0.06
   5  -2  -1    1.35    0.08
   5  -2  -1    1.44    0.08
  -5   2   1    1.49    0.09
  -5   2   1    1.42    0.08
  -5   2   1    1.80    0.06
  -5   2   1    1.45    0.09
  -5   2   1    1.39    0.09
   4  -2  -1   26.22    0.72
   4  -2  -1   26.32    0.73
   4  -2  -1   26.48    1.04
   4  -2  -1   26.32    0.78
   4  -2  -1   25.77    0.73
   4  -2  -1   26.56    1.04
  -4   2   1   25.98    0.73
  -4   2   1   24.31    1.04
  -4   2   1   26.35    1.04
  -4   2   1   25.91    0.82
  -4   2   1   25.36    0.72
   3  -2  -1   10.59    0.31
   3  -2  -1   10.86    0.33
   3  -2  -1   10.95    0.31
   3  -2  -1   10.82    0.33
   3  -2  -1   11.44    0.44
   3  -2  -1   10.68    0.31
   3  -2  -1   11.17    0.44
  -3   2   1   10.49    0.44
  -3   2   1   10.70    0.31
  -3   2   1   10.75    0.31
  -3   2   1   10.42    0.44
  -3   2   1   10.95    0.35
   2  -2  -1   33.45    1.36
   2  -2  -1   34.75    0.93
   2  -2  -1   33.69    0.95
   2  -2  -1   34.82    1.36
   2  -2  -1   34.35    0.96
   2  -2  -1   34.46    1.03
  -2   2   1   34.73    0.93
  -2   2   1   34.51    1.36
  -2   2   1   33.60    1.36
  -2   2   1   34.39    0.95
  -2   2   1   35.02    0.97
   1  -2  -1  166.33    6.33
   1  -2  -1  152.43    4.37
   1  -2  -1  170.60    6.32
   1  -2  -1  153.40    4.44
   1  -2  -1  154.39    4.77
   1  -2  -1  153.41    4.29
  -1   2   1  167.19    6.33
  -1   2   1  155.33    4.28
  -1   2   1  154.67    4.77
  -1   2   1  153.74    4.45
  -1   2   1  156.91    4.37
  -1   2   1  177.48    6.34
   0  -2  -1    5.94    0.18
   0  -2  -1    6.12    0.24
   0  -2  -1    6.07    0.24
   0  -2  -1    5.57    0.16
   0  -2  -1    5.79    0.18
   0  -2  -1    5.62    0.17
   0  -2  -1    5.78    0.17
   0  -2  -1    5.61    0.17
   0   2   1    5.55    0.17
   0   2   1    5.77    0.17
   0   2   1    6.11    0.24
   0   2   1    5.66    0.16
   0   2   1    5.64    0.18
   0   2   1    5.85    0.24
   0   2   1    5.65    0.17
  -1  -2  -1   56.38    1.56
  -1  -2  -1   57.64    1.58
  -1  -2  -1   51.63    2.23
  -1  -2  -1   59.28    1.69
  -1  -2  -1   57.26    2.23
  -1  -2  -1   57.25    1.64
   1   2   1   58.08    1.69
   1   2   1   57.38    1.56
   1   2   1   57.19    1.64
   1   2   1   52.06    2.23
   1   2   1   58.28    2.23
  -2  -2  -1  201.65    6.11
  -2  -2  -1  216.02    8.03
  -2  -2  -1  204.53    8.02
  -2  -2  -1  196.53    6.05
  -2  -2  -1  198.65    5.87
  -2  -2  -1  194.01    5.60
   2   2   1  199.92    6.12
   2   2   1  213.12    8.02
   2   2   1  196.98    5.87
   2   2   1  192.23    5.62
   2   2   1  195.23    6.05
   2   2   1  228.40    8.05
  -3  -2  -1    6.25    0.20
  -3  -2  -1    5.79    0.26
  -3  -2  -1    6.35    0.18
  -3  -2  -1    6.17    0.19
  -3  -2  -1    6.10    0.19
  -3  -2  -1    6.07    0.26
   3   2   1    6.15    0.20
   3   2   1    6.17    0.19
   3   2   1    6.31    0.19
   3   2   1    6.69    0.18
   3   2   1    6.32    0.26
   3   2   1    6.25    0.26
   3   2   1    6.09    0.21
  -4  -2  -1    7.97    0.25
  -4  -2  -1    8.18    0.24
  -4  -2  -1    8.15    0.26
  -4  -2  -1    8.01    0.33
  -4  -2  -1    8.10    0.33
   4   2   1    8.12    0.24
   4   2   1    8.14    0.27
   4   2   1    8.42    0.34
   4   2   1    8.13    0.25
   4   2   1    8.32    0.33
   4   2   1    8.09    0.26
   4   2   1    8.16    0.26
  -5  -2  -1   54.48    1.52
  -5  -2  -1   53.65    2.15
  -5  -2  -1   54.65    1.53
   5   2   1   53.41    1.63
   5   2   1   53.44    1.52
   5   2   1   55.52    1.58
   5   2   1   55.33    1.48
   5   2   1   55.05    1.53
   5   2   1   54.82    1.65
   5   2   1   54.49    2.15
   5   2   1   54.99    2.15
  -6  -2  -1    0.12    0.03
  -6  -2  -1    0.13    0.03
  -6  -2  -1    0.09    0.02
  -6  -2  -1    0.11    0.03
  -6  -2  -1    0.15    0.02
   6   2   1    0.16    0.04
   6   2   1    0.15    0.04
   6   2   1    0.15    0.03
   6   2   1    0.11    0.02
   6   2   1    0.14    0.03
   6   2   1    0.20    0.02
   6   2   1    0.17    0.03
   6   2   1    0.14    0.03
  -7  -2  -1    3.58    0.11
  -7  -2  -1    3.61    0.11
  -7  -2  -1    3.58    0.14
  -7  -2  -1    3.41    0.15
   7   2   1    3.62    0.12
   7   2   1    3.53    0.15
   7   2   1    3.57    0.14
   7   2   1    3.37    0.14
   7   2   1    3.39    0.15
   7   2   1    3.47    0.14
   7   2   1    3.47    0.14
  -8  -2  -1    0.41    0.06
   8   2   1    0.51    0.06
   8   2   1    0.43    0.05
   8   2   1    0.53    0.05
   8   2   1    0.47    0.06
   8   2   1    0.44    0.05
   9   2   1    2.06    0.12
   9   2   1    2.19    0.12
   9   2   1    2.24    0.13
   9   2   1    1.94    0.12
  10   2   1    0.29    0.06
  10   2   1    0.24    0.05
  10   2   1    0.24    0.07
  10   2   1    0.31    0.06
  11   2   1    0.16    0.06
  11   2   1    0.11    0.07
   9  -3  -1    2.39    0.15
  -9   3   1    2.51    0.17
  -9   3   1    2.51    0.15
   8  -3  -1    0.85    0.09
  -8   3   1    0.94    0.09
  -8   3   1    1.02    0.10
  -8   3   1    0.89    0.08
   7  -3  -1    0.01    0.03
   7  -3  -1   -0.07    0.05
  -7   3   1   -0.07    0.05
  -7   3   1   -0.01    0.04
  -7   3   1   -0.05    0.04
   6  -3  -1    6.19    0.20
   6  -3  -1    6.17    0.28
   6  -3  -1    6.36    0.20
   6  -3  -1    6.56    0.24
   6  -3  -1    6.24    0.22
  -6   3   1    5.90    0.25
  -6   3   1    6.16    0.28
  -6   3   1    6.17    0.21
  -6   3   1    6.58    0.28
   5  -3  -1    0.39    0.06
   5  -3  -1    0.39    0.05
   5  -3  -1    0.40    0.03
   5  -3  -1    0.37    0.05
   5  -3  -1    0.42    0.03
  -5   3   1    0.48    0.05
  -5   3   1    0.40    0.04
  -5   3   1    0.36    0.05
  -5   3   1    0.46    0.05
  -5   3   1    0.38    0.05
   4  -3  -1    4.93    0.18
   4  -3  -1    4.94    0.16
   4  -3  -1    5.02    0.23
   4  -3  -1    5.10    0.23
   4  -3  -1    4.88    0.17
   4  -3  -1    5.14    0.17
  -4   3   1    5.25    0.23
  -4   3   1    5.01    0.16
  -4   3   1    5.08    0.23
  -4   3   1    4.92    0.20
  -4   3   1    5.34    0.17
   3  -3  -1    0.38    0.04
   3  -3  -1    0.35    0.04
   3  -3  -1    0.30    0.03
   3  -3  -1    0.50    0.04
   3  -3  -1    0.31    0.04
  -3   3   1    0.25    0.03
  -3   3   1    0.32    0.04
  -3   3   1    0.30    0.04
  -3   3   1    0.41    0.04
   2  -3  -1   57.27    2.40
   2  -3  -1   62.87    1.77
   2  -3  -1   61.37    1.66
   2  -3  -1   62.70    1.63
   2  -3  -1   62.59    1.70
   2  -3  -1   56.60    2.40
  -2   3   1   58.40    2.40
  -2   3   1   63.04    1.66
  -2   3   1   57.01    2.40
  -2   3   1   62.59    1.70
  -2   3   1   63.38    1.64
   1  -3  -1    1.54    0.06
   1  -3  -1    1.62    0.09
   1  -3  -1    1.45    0.06
   1  -3  -1    1.60    0.06
   1  -3  -1    1.62    0.09
   1  -3  -1    1.56    0.06
   1  -3  -1    1.58    0.06
  -1   3   1    1.53    0.06
  -1   3   1    1.57    0.06
  -1   3   1    1.32    0.09
  -1   3   1    1.54    0.06
  -1   3   1    1.68    0.09
  -1   3   1    1.57    0.06
   0  -3  -1   38.92    1.04
   0  -3  -1   35.43    1.50
   0  -3  -1   39.48    1.06
   0  -3  -1   38.58    1.02
   0  -3  -1   34.81    1.50
   0  -3  -1   38.17    1.05
   0  -3  -1   39.51    1.13
   0   3   1   31.53    1.50
   0   3   1   39.12    1.05
   0   3   1   39.54    1.04
   0   3   1   37.43    1.10
   0   3   1   38.12    1.06
   0   3   1   39.52    1.02
   0   3   1   39.37    1.13
  -1  -3  -1   64.80    1.92
  -1  -3  -1   62.84    1.77
  -1  -3  -1   64.15    1.79
  -1  -3  -1   64.98    2.53
  -1  -3  -1   65.14    2.53
   1   3   1   64.14    2.53
   1   3   1   63.56    1.92
   1   3   1   65.31    2.53
   1   3   1   63.40    1.79
   1   3   1   64.52    1.72
   1   3   1   62.96    1.77
  -2  -3  -1    0.02    0.01
  -2  -3  -1    0.03    0.01
  -2  -3  -1    0.02    0.02
  -2  -3  -1    0.00    0.02
  -2  -3  -1    0.02    0.02
  -2  -3  -1    0.00    0.03
  -2  -3  -1    0.02    0.01
  -2  -3  -1    0.00    0.01
   2   3   1    0.07    0.02
   2   3   1   -0.01    0.02
   2   3   1   -0.01    0.03
   2   3   1    0.03    0.01
   2   3   1    0.02    0.02
  -3  -3  -1   28.60    0.85
  -3  -3  -1   25.66    1.12
  -3  -3  -1   28.25    1.12
  -3  -3  -1   28.50    0.79
  -3  -3  -1   28.63    0.82
  -3  -3  -1   29.17    0.79
  -3  -3  -1   29.44    0.86
   3   3   1   25.41    1.12
   3   3   1   29.13    0.79
   3   3   1   28.42    0.85
   3   3   1   28.59    0.86
   3   3   1   28.95    0.82
   3   3   1   27.79    1.12
  -4  -3  -1    1.71    0.08
  -4  -3  -1    2.08    0.07
  -4  -3  -1    1.76    0.07
  -4  -3  -1    1.75    0.09
  -4  -3  -1    1.72    0.09
   4   3   1    1.79    0.09
   4   3   1    1.79    0.08
   4   3   1    1.72    0.07
   4   3   1    1.78    0.09
   4   3   1    1.66    0.08
   4   3   1    1.65    0.07
  -5  -3  -1    0.57    0.03
  -5  -3  -1    0.55    0.04
  -5  -3  -1    0.54    0.05
  -5  -3  -1    0.54    0.05
  -5  -3  -1    0.43    0.04
   5   3   1    0.55    0.05
   5   3   1    0.60    0.05
   5   3   1    0.52    0.04
   5   3   1    0.62    0.05
   5   3   1    0.43    0.04
   5   3   1    0.43    0.04
   5   3   1    0.54    0.05
  -6  -3  -1    2.20    0.07
  -6  -3  -1    2.07    0.07
  -6  -3  -1    1.89    0.10
  -6  -3  -1    2.06    0.10
  -6  -3  -1    2.19    0.11
   6   3   1    2.33    0.11
   6   3   1    2.36    0.10
   6   3   1    2.16    0.07
   6   3   1    2.22    0.10
   6   3   1    2.14    0.11
   6   3   1    2.16    0.09
   6   3   1    2.22    0.09
  -7  -3  -1    0.78    0.03
  -7  -3  -1    0.74    0.05
  -7  -3  -1    0.73    0.05
  -7  -3  -1    0.74    0.04
  -7  -3  -1    0.75    0.06
   7   3   1    0.73    0.06
   7   3   1    0.76    0.06
   7   3   1    0.59    0.06
   7   3   1    0.61    0.06
   7   3   1    0.75    0.06
   7   3   1    0.79    0.04
   7   3   1    0.77    0.05
  -8  -3  -1    1.63    0.07
  -8  -3  -1    1.57    0.10
  -8  -3  -1    1.62    0.07
   8   3   1    1.60    0.07
   8   3   1    1.67    0.06
   8   3   1    1.53    0.10
   8   3   1    1.70    0.10
   8   3   1    1.66    0.09
  -9  -3  -1    0.02    0.05
   9   3   1    0.06    0.04
   9   3   1    0.04    0.04
   9   3   1    0.03    0.05
  10   3   1    0.05    0.06
  10   3   1    0.10    0.05
  10   3   1    0.01    0.05
  10   3   1    0.05    0.05
  11   3   1    4.01    0.19
  11   3   1    3.97    0.18
  11   3   1    4.11    0.20
  11   3   1    4.22    0.19
   9  -4  -1    0.32    0.08
  -9   4   1    0.50    0.09
   8  -4  -1   -0.02    0.06
  -8   4   1   -0.09    0.05
  -8   4   1   -0.03    0.05
  -8   4   1   -0.01    0.05
   7  -4  -1    1.42    0.08
   7  -4  -1    1.27    0.10
  -7   4   1    1.32    0.13
  -7   4   1    1.36    0.11
  -7   4   1    1.36    0.11
   6  -4  -1    0.02    0.04
   6  -4  -1    0.02    0.05
   6  -4  -1    0.02    0.03
  -6   4   1    0.01    0.03
  -6   4   1    0.06    0.04
  -6   4   1    0.06    0.04
  -6   4   1   -0.06    0.05
   5  -4  -1   -0.06    0.04
   5  -4  -1    0.06    0.03
   5  -4  -1   -0.05    0.04
  -5   4   1    0.00    0.04
  -5   4   1    0.02    0.04
  -5   4   1   -0.08    0.04
  -5   4   1    0.00    0.02
  -5   4   1   -0.01    0.03
   4  -4  -1    3.87    0.20
   4  -4  -1    4.10    0.14
   4  -4  -1    4.13    0.15
  -4   4   1    4.22    0.15
  -4   4   1    4.02    0.20
  -4   4   1    4.19    0.17
  -4   4   1    4.02    0.14
  -4   4   1    3.91    0.20
   3  -4  -1    0.29    0.03
   3  -4  -1    0.22    0.04
   3  -4  -1    0.25    0.04
   3  -4  -1    0.26    0.05
   3  -4  -1    0.34    0.05
  -3   4   1    0.22    0.05
  -3   4   1    0.26    0.04
  -3   4   1    0.27    0.03
  -3   4   1    0.31    0.05
   2  -4  -1    3.75    0.13
   2  -4  -1    4.06    0.13
   2  -4  -1    3.89    0.13
   2  -4  -1    4.21    0.19
   2  -4  -1    4.04    0.19
  -2   4   1    4.17    0.13
  -2   4   1    3.96    0.19
  -2   4   1    3.97    0.14
  -2   4   1    3.78    0.13
  -2   4   1    4.12    0.19
   1  -4  -1   11.51    0.52
   1  -4  -1   12.69    0.37
   1  -4  -1   12.56    0.35
   1  -4  -1   12.69    0.36
   1  -4  -1   13.16    0.52
   1  -4  -1   12.68    0.37
  -1   4   1   12.78    0.38
  -1   4   1   11.73    0.52
  -1   4   1   12.60    0.35
  -1   4   1   12.82    0.36
  -1   4   1   12.45    0.37
  -1   4   1   12.26    0.52
   0  -4  -1    5.03    0.16
   0  -4  -1    5.01    0.16
   0  -4  -1    4.76    0.23
   0  -4  -1    5.12    0.16
   0  -4  -1    5.07    0.23
   0  -4  -1    5.00    0.16
   0   4   1    5.19    0.16
   0   4   1    5.13    0.23
   0   4   1    5.05    0.17
   0   4   1    5.07    0.17
   0   4   1    5.28    0.24
   0   4   1    4.96    0.17
   0   4   1    5.18    0.16
  -1  -4  -1   65.92    2.60
  -1  -4  -1   68.32    2.60
  -1  -4  -1   66.50    1.84
  -1  -4  -1   64.51    1.82
   1   4   1   66.95    2.60
   1   4   1   65.81    1.79
   1   4   1   64.97    1.76
   1   4   1   65.16    1.97
   1   4   1   62.99    1.84
   1   4   1   64.59    1.82
   1   4   1   65.59    2.59
  -2  -4  -1   53.49    2.20
  -2  -4  -1   55.90    1.61
  -2  -4  -1   57.33    1.56
  -2  -4  -1   57.10    1.54
  -2  -4  -1   52.57    2.20
   2   4   1   56.85    1.54
   2   4   1   55.25    1.67
   2   4   1   56.47    1.56
   2   4   1   58.17    2.21
   2   4   1   52.83    2.20
  -3  -4  -1   23.48    0.66
  -3  -4  -1   25.15    0.93
  -3  -4  -1   23.66    0.67
  -3  -4  -1   23.08    0.65
  -3  -4  -1   22.12    0.93
  -3  -4  -1   22.94    0.70
   3   4   1   20.37    0.93
   3   4   1   23.51    0.68
   3   4   1   22.50    0.65
   3   4   1   23.65    0.93
   3   4   1   22.88    0.71
  -4  -4  -1    0.04    0.01
  -4  -4  -1    0.03    0.02
  -4  -4  -1    0.04    0.03
  -4  -4  -1    0.06    0.02
  -4  -4  -1    0.08    0.03
  -4  -4  -1    0.05    0.03
  -4  -4  -1    0.02    0.02
   4   4   1    0.04    0.03
   4   4   1    0.10    0.02
   4   4   1    0.09    0.02
   4   4   1    0.06    0.03
   4   4   1    0.02    0.02
   4   4   1    0.05    0.03
  -5  -4  -1    5.83    0.19
  -5  -4  -1    5.74    0.25
  -5  -4  -1    5.65    0.25
  -5  -4  -1    5.68    0.18
  -5  -4  -1    5.50    0.19
   5   4   1    5.71    0.19
   5   4   1    5.98    0.25
   5   4   1    5.73    0.25
   5   4   1    5.64    0.19
   5   4   1    5.89    0.19
   5   4   1    5.95    0.21
  -6  -4  -1    3.11    0.10
  -6  -4  -1    3.34    0.15
  -6  -4  -1    2.87    0.13
  -6  -4  -1    3.05    0.15
  -6  -4  -1    3.08    0.11
   6   4   1    3.18    0.15
   6   4   1    3.37    0.15
   6   4   1    3.38    0.13
   6   4   1    3.04    0.12
   6   4   1    3.10    0.13
   6   4   1    3.17    0.12
  -7  -4  -1    0.08    0.04
  -7  -4  -1    0.05    0.03
  -7  -4  -1    0.09    0.02
  -7  -4  -1    0.12    0.02
   7   4   1    0.07    0.03
   7   4   1    0.02    0.04
   7   4   1    0.07    0.04
   7   4   1    0.11    0.03
  -8  -4  -1    3.51    0.16
  -8  -4  -1    3.66    0.16
  -8  -4  -1    3.64    0.11
  -8  -4  -1    3.49    0.11
  -8  -4  -1    3.43    0.15
   8   4   1    3.53    0.16
   8   4   1    3.48    0.14
   8   4   1    3.62    0.16
   8   4   1    3.38    0.15
   8   4   1    3.50    0.16
  -9  -4  -1    0.80    0.08
   9   4   1    0.78    0.08
   9   4   1    0.77    0.08
   9   4   1    0.91    0.08
 -10  -4  -1    6.76    0.26
  10   4   1    6.84    0.27
  10   4   1    7.21    0.26
  10   4   1    6.91    0.26
  11   4   1    6.24    0.26
  11   4   1    6.31    0.24
  11   4   1    6.48    0.25
  12   4   1    0.52    0.08
   8  -5  -1    0.03    0.06
  -8   5   1    0.03    0.06
  -8   5   1   -0.03    0.05
   7  -5  -1    4.12    0.18
   7  -5  -1    4.27    0.16
  -7   5   1    4.15    0.21
  -7   5   1    4.00    0.22
  -7   5   1    3.99    0.18
   6  -5  -1    0.14    0.05
   6  -5  -1    0.10    0.04
  -6   5   1    0.08    0.05
  -6   5   1    0.11    0.05
  -6   5   1    0.18    0.06
  -6   5   1    0.12    0.04
   5  -5  -1    3.12    0.14
   5  -5  -1    3.04    0.18
  -5   5   1    3.14    0.13
  -5   5   1    3.10    0.18
  -5   5   1    3.18    0.18
  -5   5   1    3.20    0.16
  -5   5   1    3.27    0.14
   4  -5  -1    0.30    0.05
   4  -5  -1    0.38    0.06
  -4   5   1    0.25    0.05
  -4   5   1    0.20    0.05
  -4   5   1    0.26    0.04
  -4   5   1    0.26    0.06
  -4   5   1    0.33    0.04
   3  -5  -1    0.48    0.07
   3  -5  -1    0.37    0.05
  -3   5   1    0.46    0.05
  -3   5   1    0.48    0.04
  -3   5   1    0.43    0.06
  -3   5   1    0.44    0.06
   2  -5  -1   10.21    0.31
   2  -5  -1   10.12    0.44
   2  -5  -1    9.97    0.30
   2  -5  -1   10.27    0.30
  -2   5   1   10.33    0.30
  -2   5   1   10.47    0.44
  -2   5   1   10.13    0.31
  -2   5   1    9.17    0.44
   1  -5  -1    3.31    0.12
   1  -5  -1    3.06    0.11
   1  -5  -1    3.49    0.17
   1  -5  -1    3.34    0.17
   1  -5  -1    3.27    0.11
   1  -5  -1    3.17    0.12
  -1   5   1    3.46    0.17
  -1   5   1    3.29    0.12
  -1   5   1    3.18    0.11
  -1   5   1    2.74    0.16
  -1   5   1    3.20    0.11
  -1   5   1    3.24    0.11
   0  -5  -1   27.50    1.23
   0  -5  -1   31.66    1.23
   0  -5  -1   30.00    0.87
   0  -5  -1   30.09    0.83
   0  -5  -1   30.68    0.86
   0   5   1   30.12    0.92
   0   5   1   31.06    0.84
   0   5   1   30.37    0.87
   0   5   1   30.12    0.83
   0   5   1   32.83    1.23
   0   5   1   30.54    0.90
   0   5   1   29.75    1.23
  -1  -5  -1   26.57    0.77
  -1  -5  -1   27.28    0.78
  -1  -5  -1   25.59    1.10
  -1  -5  -1   28.73    1.11
   1   5   1   27.38    0.78
   1   5   1   26.54    1.10
   1   5   1   27.52    0.75
   1   5   1   27.39    0.83
   1   5   1   27.66    0.76
   1   5   1   28.65    1.11
   1   5   1   27.01    0.77
  -2  -5  -1   16.36    0.71
  -2  -5  -1   17.46    0.71
  -2  -5  -1   17.13    0.50
  -2  -5  -1   17.38    0.50
  -2  -5  -1   17.08    0.51
   2   5   1   17.38    0.71
   2   5   1   16.92    0.50
   2   5   1   17.62    0.50
   2   5   1   17.02    0.54
   2   5   1   16.89    0.48
   2   5   1   17.94    0.71
  -3  -5  -1    7.22    0.32
  -3  -5  -1    7.19    0.22
  -3  -5  -1    6.63    0.32
  -3  -5  -1    7.21    0.22
  -3  -5  -1    7.31    0.22
  -3  -5  -1    6.33    0.22
  -3  -5  -1    7.22    0.23
   3   5   1    6.90    0.24
   3   5   1    7.37    0.22
   3   5   1    7.22    0.31
   3   5   1    7.32    0.22
  -4  -5  -1    0.28    0.04
  -4  -5  -1    0.31    0.03
  -4  -5  -1    0.31    0.03
  -4  -5  -1    0.31    0.03
  -4  -5  -1    0.36    0.03
  -4  -5  -1    0.30    0.05
   4   5   1    0.37    0.03
   4   5   1    0.34    0.05
   4   5   1    0.33    0.05
   4   5   1    0.27    0.04
   4   5   1    0.28    0.03
  -5  -5  -1    0.18    0.04
  -5  -5  -1    0.16    0.03
  -5  -5  -1    0.20    0.03
  -5  -5  -1    0.24    0.04
   5   5   1    0.11    0.04
   5   5   1    0.22    0.03
   5   5   1    0.20    0.03
   5   5   1    0.18    0.04
  -6  -5  -1    2.30    0.09
  -6  -5  -1    2.38    0.13
  -6  -5  -1    2.57    0.11
  -6  -5  -1    2.51    0.13
   6   5   1    2.34    0.13
   6   5   1    2.35    0.12
   6   5   1    2.26    0.10
   6   5   1    2.29    0.10
   6   5   1    2.40    0.13
   6   5   1    2.44    0.11
  -7  -5  -1   17.68    0.70
  -7  -5  -1   16.69    0.70
  -7  -5  -1   17.17    0.52
  -7  -5  -1   16.91    0.49
  -7  -5  -1   16.56    0.49
   7   5   1   17.22    0.56
   7   5   1   17.18    0.51
   7   5   1   17.12    0.53
   7   5   1   16.84    0.70
  -8  -5  -1    4.35    0.14
  -8  -5  -1    4.36    0.21
  -8  -5  -1    4.31    0.14
  -8  -5  -1    4.59    0.20
  -8  -5  -1    4.37    0.18
   8   5   1    4.33    0.19
   8   5   1    4.54    0.21
   8   5   1    4.35    0.17
   8   5   1    4.40    0.18
  -9  -5  -1   -0.01    0.05
  -9  -5  -1    0.02    0.03
   9   5   1    0.03    0.04
   9   5   1   -0.05    0.05
   9   5   1   -0.03    0.05
 -10  -5  -1    5.71    0.23
  10   5   1    5.58    0.24
  10   5   1    5.59    0.22
  10   5   1    5.77    0.22
 -11  -5  -1    0.67    0.09
  11   5   1    0.61    0.08
  11   5   1    0.82    0.09
  11   5   1    0.63    0.08
   7  -6  -1    0.22    0.07
  -7   6   1    0.35    0.08
  -7   6   1    0.29    0.08
   6  -6  -1    3.70    0.17
   6  -6  -1    3.71    0.16
  -6   6   1    3.59    0.20
  -6   6   1    3.61    0.22
  -6   6   1    3.58    0.15
  -6   6   1    3.72    0.16
   5  -6  -1    0.79    0.07
   5  -6  -1    0.65    0.09
   5  -6  -1    0.79    0.06
  -5   6   1    0.71    0.07
  -5   6   1    0.73    0.09
  -5   6   1    0.78    0.08
  -5   6   1    0.58    0.06
   4  -6  -1    0.06    0.04
   4  -6  -1    0.13    0.06
  -4   6   1    0.14    0.05
  -4   6   1    0.15    0.05
  -4   6   1    0.14    0.05
  -4   6   1    0.18    0.04
  -4   6   1    0.15    0.04
   3  -6  -1    1.46    0.13
   3  -6  -1    1.41    0.09
  -3   6   1    1.42    0.12
  -3   6   1    1.53    0.09
  -3   6   1    1.46    0.12
  -3   6   1    1.48    0.09
   2  -6  -1    5.56    0.19
   2  -6  -1    4.93    0.27
  -2   6   1    5.72    0.19
  -2   6   1    5.76    0.27
  -2   6   1    5.41    0.19
  -2   6   1    5.71    0.28
  -2   6   1    5.63    0.17
   1  -6  -1    8.94    0.28
   1  -6  -1    9.25    0.42
   1  -6  -1    8.99    0.28
  -1   6   1    9.15    0.29
  -1   6   1    9.20    0.29
  -1   6   1    9.04    0.28
  -1   6   1    9.57    0.42
  -1   6   1    9.48    0.41
   0  -6  -1   64.20    1.74
   0  -6  -1   63.00    2.56
   0   6   1   64.16    1.74
   0   6   1   64.51    1.93
   0   6   1   64.34    1.81
   0   6   1   62.42    2.56
   0   6   1   66.40    2.57
   0   6   1   65.54    1.76
   0   6   1   63.25    1.88
  -1  -6  -1    1.96    0.12
  -1  -6  -1    2.09    0.09
  -1  -6  -1    1.83    0.12
   1   6   1    2.02    0.08
   1   6   1    2.00    0.09
   1   6   1    1.99    0.09
   1   6   1    1.84    0.12
   1   6   1    1.95    0.08
   1   6   1    1.95    0.13
  -2  -6  -1    4.14    0.14
  -2  -6  -1    4.08    0.14
  -2  -6  -1    4.33    0.21
  -2  -6  -1    4.28    0.21
   2   6   1    4.40    0.22
   2   6   1    3.96    0.14
   2   6   1    4.20    0.16
   2   6   1    4.34    0.21
   2   6   1    4.42    0.15
   2   6   1    4.05    0.14
   2   6   1    4.17    0.14
  -3  -6  -1    1.88    0.07
  -3  -6  -1    1.97    0.08
  -3  -6  -1    1.91    0.13
  -3  -6  -1    1.92    0.08
  -3  -6  -1    1.72    0.12
  -3  -6  -1    1.90    0.09
   3   6   1    1.83    0.08
   3   6   1    1.89    0.12
   3   6   1    2.00    0.08
   3   6   1    1.90    0.12
   3   6   1    1.91    0.09
   3   6   1    1.79    0.09
  -4  -6  -1    0.29    0.03
  -4  -6  -1    0.23    0.05
  -4  -6  -1    0.26    0.03
  -4  -6  -1    0.21    0.05
  -4  -6  -1    0.30    0.03
  -4  -6  -1    0.31    0.03
  -4  -6  -1    0.24    0.03
   4   6   1    0.21    0.05
   4   6   1    0.25    0.04
   4   6   1    0.22    0.04
  -5  -6  -1    2.78    0.15
  -5  -6  -1    2.37    0.12
  -5  -6  -1    2.26    0.08
  -5  -6  -1    2.36    0.10
  -5  -6  -1    2.52    0.11
  -5  -6  -1    2.51    0.14
   5   6   1    2.19    0.12
   5   6   1    2.38    0.11
   5   6   1    3.02    0.15
  -6  -6  -1    1.59    0.11
  -6  -6  -1    1.56    0.10
  -6  -6  -1    1.45    0.08
  -6  -6  -1    1.13    0.07
  -6  -6  -1    1.42    0.11
   6   6   1    1.56    0.09
   6   6   1    1.48    0.08
   6   6   1    1.13    0.10
   6   6   1    1.44    0.11
  -7  -6  -1   32.43    1.29
  -7  -6  -1   31.94    0.93
  -7  -6  -1   31.35    0.91
  -7  -6  -1   30.91    0.91
  -7  -6  -1   32.07    1.29
   7   6   1   31.83    0.98
   7   6   1   32.35    0.92
   7   6   1   31.53    1.00
   7   6   1   32.79    1.29
  -8  -6  -1   18.73    0.58
  -8  -6  -1   18.17    0.55
  -8  -6  -1   19.02    0.78
  -8  -6  -1   18.37    0.78
  -8  -6  -1   19.44    0.55
   8   6   1   18.84    0.60
   8   6   1   18.92    0.62
   8   6   1   19.70    0.57
   8   6   1   19.15    0.78
  -9  -6  -1    0.09    0.06
  -9  -6  -1    0.07    0.04
   9   6   1    0.13    0.05
   9   6   1    0.04    0.06
   9   6   1    0.02    0.04
 -10  -6  -1    0.27    0.04
 -10  -6  -1    0.24    0.07
  10   6   1    0.33    0.07
  10   6   1    0.26    0.06
  10   6   1    0.21    0.05
 -11  -6  -1    0.83    0.09
  11   6   1    0.51    0.08
  11   6   1    0.74    0.08
   6  -7  -1   -0.07    0.06
   6  -7  -1    0.02    0.04
  -6   7   1   -0.02    0.04
  -6   7   1   -0.08    0.06
   5  -7  -1    2.05    0.12
   5  -7  -1    2.04    0.13
  -5   7   1    1.94    0.14
  -5   7   1    2.03    0.16
  -5   7   1    1.87    0.12
   4  -7  -1    0.24    0.07
   4  -7  -1    0.21    0.05
  -4   7   1    0.19    0.06
  -4   7   1    0.22    0.05
  -4   7   1    0.22    0.07
  -4   7   1    0.16    0.05
   3  -7  -1    0.02    0.06
   3  -7  -1    0.14    0.05
  -3   7   1    0.06    0.06
  -3   7   1    0.04    0.04
  -3   7   1    0.17    0.04
   2  -7  -1   15.71    0.68
   2  -7  -1   15.64    0.47
  -2   7   1   15.40    0.46
  -2   7   1   15.98    0.48
  -2   7   1   16.22    0.69
  -2   7   1   15.44    0.47
   1  -7  -1   41.57    1.77
   1  -7  -1   44.33    1.22
  -1   7   1   43.98    1.31
  -1   7   1   43.02    1.20
  -1   7   1   44.72    1.78
  -1   7   1   44.17    1.25
   0  -7  -1   23.88    0.99
   0   7   1   24.79    0.99
   0   7   1   23.12    0.66
   0   7   1   23.00    0.70
   0   7   1   23.25    0.73
  -1  -7  -1    0.99    0.11
   1   7   1    0.98    0.07
   1   7   1    1.09    0.06
   1   7   1    1.21    0.11
   1   7   1    1.18    0.07
   1   7   1    1.12    0.07
   1   7   1    1.27    0.08
  -2  -7  -1    1.84    0.07
  -2  -7  -1    1.79    0.13
   2   7   1    1.69    0.13
   2   7   1    1.83    0.09
   2   7   1    1.89    0.09
   2   7   1    1.76    0.08
   2   7   1    1.89    0.08
   2   7   1    1.80    0.10
  -3  -7  -1    1.93    0.13
  -3  -7  -1    2.14    0.14
  -3  -7  -1    2.05    0.08
   3   7   1    2.10    0.09
   3   7   1    2.05    0.10
   3   7   1    1.93    0.10
   3   7   1    2.07    0.08
   3   7   1    2.00    0.09
   3   7   1    1.93    0.14
  -4  -7  -1    0.04    0.05
  -4  -7  -1    0.09    0.05
  -4  -7  -1    0.03    0.03
  -4  -7  -1    0.10    0.02
   4   7   1    0.16    0.03
   4   7   1    0.06    0.04
   4   7   1    0.12    0.05
   4   7   1    0.04    0.03
   4   7   1    0.06    0.03
  -5  -7  -1   18.33    0.76
  -5  -7  -1   18.21    0.77
  -5  -7  -1   17.85    0.54
   5   7   1   18.36    0.54
   5   7   1   18.22    0.59
   5   7   1   18.33    0.77
  -6  -7  -1   17.36    0.52
  -6  -7  -1   17.96    0.72
  -6  -7  -1   16.81    0.72
   6   7   1   16.94    0.56
   6   7   1   16.05    0.72
   6   7   1   17.06    0.51
  -7  -7  -1    6.50    0.24
  -7  -7  -1    6.71    0.30
  -7  -7  -1    5.94    0.30
   7   7   1    6.71    0.23
   7   7   1    6.43    0.25
   7   7   1    6.17    0.30
  -8  -7  -1   -0.07    0.05
  -8  -7  -1    0.00    0.05
   8   7   1    0.01    0.05
   8   7   1   -0.01    0.04
  -9  -7  -1    3.35    0.19
  -9  -7  -1    3.72    0.17
   9   7   1    3.40    0.18
   9   7   1    3.60    0.16
 -10  -7  -1    0.14    0.06
 -10  -7  -1    0.21    0.05
  10   7   1    0.11    0.06
  10   7   1    0.17    0.06
  10   7   1    0.13    0.05
 -11  -7  -1    0.03    0.07
  11   7   1    0.02    0.06
  11   7   1    0.13    0.06
   5  -8  -1    1.86    0.13
   5  -8  -1    1.57    0.13
  -5   8   1    1.75    0.15
  -5   8   1    1.62    0.12
  -5   8   1    1.63    0.16
   4  -8  -1    1.06    0.13
   4  -8  -1    1.34    0.11
  -4   8   1    1.32    0.10
  -4   8   1    0.99    0.09
  -4   8   1    1.16    0.14
   3  -8  -1   -0.02    0.06
   3  -8  -1   -0.03    0.04
  -3   8   1   -0.05    0.04
  -3   8   1    0.02    0.04
  -3   8   1   -0.04    0.06
   2  -8  -1    5.27    0.19
   2  -8  -1    5.08    0.28
  -2   8   1    5.01    0.28
  -2   8   1    4.90    0.20
  -2   8   1    5.18    0.19
   1  -8  -1    8.24    0.40
  -1   8   1    8.36    0.29
  -1   8   1    8.07    0.27
  -1   8   1    8.26    0.27
  -1   8   1    8.89    0.41
   0  -8  -1    9.66    0.48
   0   8   1   10.94    0.34
   0   8   1   10.39    0.32
   0   8   1   10.34    0.34
   0   8   1   10.34    0.48
  -1  -8  -1    2.14    0.17
   1   8   1    2.28    0.12
   1   8   1    2.19    0.10
   1   8   1    2.25    0.11
   1   8   1    2.13    0.16
  -2  -8  -1    7.18    0.23
  -2  -8  -1    7.16    0.35
   2   8   1    7.08    0.35
   2   8   1    6.98    0.25
   2   8   1    7.06    0.25
   2   8   1    7.34    0.23
  -3  -8  -1    2.00    0.08
  -3  -8  -1    2.02    0.15
   3   8   1    1.94    0.10
   3   8   1    2.02    0.11
   3   8   1    2.05    0.15
   3   8   1    1.94    0.11
   3   8   1    1.97    0.10
  -4  -8  -1    1.94    0.15
  -4  -8  -1    1.82    0.09
  -4  -8  -1    1.67    0.08
   4   8   1    1.74    0.10
   4   8   1    1.71    0.11
   4   8   1    1.85    0.10
   4   8   1    1.85    0.09
   4   8   1    1.95    0.15
  -5  -8  -1    0.03    0.03
  -5  -8  -1    0.05    0.05
  -5  -8  -1   -0.10    0.06
   5   8   1   -0.01    0.03
   5   8   1    0.00    0.04
   5   8   1    0.02    0.04
   5   8   1   -0.02    0.06
  -6  -8  -1    0.50    0.04
  -6  -8  -1    0.43    0.06
  -6  -8  -1    0.51    0.07
  -6  -8  -1    0.45    0.08
   6   8   1    0.53    0.06
   6   8   1    0.46    0.08
   6   8   1    0.40    0.06
  -7  -8  -1    1.47    0.11
  -7  -8  -1    1.26    0.13
   7   8   1    1.44    0.10
   7   8   1    1.45    0.13
   7   8   1    1.29    0.11
  -8  -8  -1    0.49    0.07
  -8  -8  -1    0.43    0.08
   8   8   1    0.28    0.07
   8   8   1    0.35    0.06
  -9  -8  -1    0.08    0.06
  -9  -8  -1    0.02    0.06
   9   8   1   -0.04    0.06
   9   8   1   -0.02    0.05
 -10  -8  -1    0.03    0.05
 -10  -8  -1    0.01    0.06
  10   8   1    0.03    0.05
  10   8   1   -0.08    0.06
 -11  -8  -1    0.03    0.07
  11   8   1   -0.02    0.07
  11   8   1    0.01    0.06
   4  -9  -1    1.72    0.13
   4  -9  -1    1.99    0.14
  -4   9   1    1.98    0.16
  -4   9   1    1.63    0.17
  -4   9   1    2.01    0.14
   3  -9  -1    6.17    0.23
   3  -9  -1    5.77    0.33
  -3   9   1    6.14    0.23
  -3   9   1    6.07    0.33
   2  -9  -1    1.51    0.16
  -2   9   1    1.56    0.16
  -2   9   1    1.55    0.11
   1  -9  -1   -0.02    0.06
  -1   9   1    0.03    0.06
  -1   9   1    0.04    0.05
  -1   9   1    0.01    0.04
   0  -9  -1    0.20    0.08
   0   9   1    0.14    0.07
   0   9   1    0.20    0.04
   0   9   1    0.15    0.05
   0   9   1    0.15    0.04
  -1  -9  -1    2.08    0.17
   1   9   1    2.08    0.11
   1   9   1    1.87    0.17
   1   9   1    2.12    0.11
  -2  -9  -1   25.69    1.06
  -2  -9  -1   24.45    0.74
   2   9   1   24.66    0.79
   2   9   1   24.69    0.71
   2   9   1   25.77    1.06
  -3  -9  -1    0.46    0.09
  -3  -9  -1    0.25    0.04
   3   9   1    0.23    0.08
   3   9   1    0.28    0.05
   3   9   1    0.28    0.06
   3   9   1    0.29    0.05
  -4  -9  -1    3.25    0.13
  -4  -9  -1    3.33    0.22
  -4  -9  -1    3.26    0.12
   4   9   1    3.28    0.14
   4   9   1    3.00    0.15
   4   9   1    3.30    0.13
   4   9   1    3.34    0.15
   4   9   1    3.20    0.21
  -5  -9  -1    0.30    0.08
  -5  -9  -1    0.31    0.04
   5   9   1    0.28    0.05
   5   9   1    0.32    0.05
   5   9   1    0.33    0.06
   5   9   1    0.31    0.08
  -6  -9  -1    5.09    0.17
  -6  -9  -1    5.44    0.21
  -6  -9  -1    5.03    0.28
   6   9   1    5.25    0.18
   6   9   1    5.09    0.22
   6   9   1    4.84    0.28
   6   9   1    5.08    0.19
  -7  -9  -1    4.58    0.20
  -7  -9  -1    4.85    0.27
   7   9   1    4.77    0.22
   7   9   1    4.78    0.18
   7   9   1    4.76    0.27
   7   9   1    5.03    0.19
  -8  -9  -1    1.26    0.10
  -8  -9  -1    1.20    0.14
   8   9   1    1.24    0.10
   8   9   1    1.10    0.10
  -9  -9  -1    0.10    0.07
  -9  -9  -1    0.04    0.07
   9   9   1    0.03    0.05
   9   9   1    0.02    0.06
 -10  -9  -1    0.17    0.08
 -10  -9  -1    0.33    0.08
  10   9   1    0.20    0.06
  10   9   1    0.19    0.08
  -3  10   1    3.27    0.18
  -3  10   1    3.41    0.25
   2 -10  -1    0.08    0.09
  -2  10   1    0.14    0.06
  -2  10   1    0.10    0.09
   1 -10  -1   -0.01    0.08
  -1  10   1    0.06    0.08
  -1  10   1    0.06    0.05
  -1  10   1    0.09    0.05
   0 -10  -1    0.00    0.07
   0  10   1    0.04    0.05
   0  10   1    0.00    0.07
   0  10   1   -0.06    0.04
  -1 -10  -1    1.35    0.16
   1  10   1    1.61    0.12
   1  10   1    1.54    0.10
   1  10   1    1.74    0.17
   1  10   1    1.66    0.10
  -2 -10  -1    6.85    0.37
   2  10   1    6.70    0.37
   2  10   1    7.12    0.26
   2  10   1    6.97    0.26
   2  10   1    7.36    0.24
  -3 -10  -1    3.13    0.22
   3  10   1    2.99    0.21
   3  10   1    3.18    0.14
   3  10   1    3.18    0.16
   3  10   1    3.28    0.16
  -4 -10  -1    5.80    0.21
  -4 -10  -1    5.81    0.32
   4  10   1    5.45    0.20
   4  10   1    5.69    0.23
   4  10   1    5.46    0.23
   4  10   1    5.72    0.21
   4  10   1    5.91    0.32
  -5 -10  -1    0.33    0.09
  -5 -10  -1    0.42    0.05
   5  10   1    0.51    0.09
   5  10   1    0.37    0.05
   5  10   1    0.37    0.07
   5  10   1    0.38    0.06
  -6 -10  -1    0.27    0.08
  -6 -10  -1    0.34    0.07
   6  10   1    0.29    0.05
   6  10   1    0.32    0.07
   6  10   1    0.46    0.09
   6  10   1    0.35    0.05
  -7 -10  -1    0.07    0.08
  -7 -10  -1    0.11    0.06
   7  10   1    0.08    0.04
   7  10   1    0.04    0.05
   7  10   1    0.10    0.05
  -8 -10  -1    0.05    0.07
  -8 -10  -1    0.10    0.06
   8  10   1   -0.07    0.06
   8  10   1    0.05    0.05
   8  10   1    0.00    0.05
  -9 -10  -1    0.28    0.09
  -9 -10  -1    0.38    0.08
   9  10   1    0.23    0.06
   9  10   1    0.40    0.08
   9  10   1    0.32    0.07
   1 -11  -1    5.68    0.34
  -1  11   1    5.53    0.34
  -1  11   1    5.84    0.25
   0 -11  -1   -0.08    0.08
   0  11   1    0.02    0.06
   0  11   1    0.07    0.08
  -1 -11  -1    0.06    0.09
   1  11   1    0.14    0.09
   1  11   1    0.15    0.06
   1  11   1    0.09    0.05
  -2 -11  -1    0.12    0.09
   2  11   1    0.20    0.06
   2  11   1    0.15    0.05
   2  11   1    0.07    0.05
  -3 -11  -1    5.63    0.32
   3  11   1    5.27    0.20
   3  11   1    5.29    0.23
   3  11   1    5.30    0.32
   3  11   1    5.28    0.22
  -4 -11  -1   10.77    0.35
  -4 -11  -1    9.96    0.51
   4  11   1    9.87    0.50
   4  11   1   10.28    0.33
   4  11   1   10.33    0.37
  -5 -11  -1    0.68    0.12
   5  11   1    0.69    0.12
   5  11   1    0.55    0.08
   5  11   1    0.68    0.07
   5  11   1    0.65    0.07
  -6 -11  -1    0.95    0.13
  -6 -11  -1    1.02    0.10
   6  11   1    0.97    0.08
   6  11   1    0.85    0.13
   6  11   1    0.91    0.08
   6  11   1    0.98    0.10
  -7 -11  -1    0.31    0.10
  -7 -11  -1    0.18    0.07
   7  11   1    0.27    0.06
   7  11   1    0.26    0.06
   7  11   1    0.41    0.08
  -8 -11  -1    1.18    0.14
  -8 -11  -1    0.99    0.11
   8  11   1    1.10    0.09
   8  11   1    1.16    0.12
   8  11   1    1.14    0.09
  -2 -12  -1    0.04    0.09
   2  12   1    0.06    0.06
   2  12   1    0.01    0.09
  -3 -12  -1    0.35    0.11
  -3 -12  -1    0.40    0.07
   3  12   1    0.49    0.07
   3  12   1    0.44    0.11
  -4 -12  -1    0.02    0.05
  -4 -12  -1    0.06    0.09
   4  12   1    0.00    0.08
   4  12   1   -0.02    0.05
  -5 -12  -1    0.40    0.12
   5  12   1    0.33    0.08
   5  12   1    0.46    0.12
   5  12   1    0.41    0.07
  -6 -12  -1    3.32    0.19
   6  12   1    3.07    0.19
   6  12   1    3.16    0.16
   6  11  -2    0.25    0.07
   6  11  -2    0.18    0.06
  -6 -11   2    0.03    0.09
  -6 -11   2    0.20    0.06
  -6 -11   2    0.15    0.07
   5  11  -2    0.04    0.05
   5  11  -2    0.06    0.06
  -5 -11   2    0.00    0.09
  -5 -11   2    0.11    0.06
  -5 -11   2    0.03    0.05
   4  11  -2    0.05    0.06
   4  11  -2    0.00    0.08
   4  11  -2    0.02    0.04
   4  11  -2    0.00    0.05
  -4 -11   2   -0.06    0.09
  -4 -11   2    0.01    0.05
  -4 -11   2    0.02    0.05
   3  11  -2    0.02    0.04
   3  11  -2    0.02    0.08
   3  11  -2    0.06    0.05
   3  11  -2    0.00    0.06
  -3 -11   2    0.05    0.09
  -3 -11   2   -0.01    0.05
  -3 -11   2    0.12    0.06
   2  11  -2    0.50    0.06
   2  11  -2    0.57    0.11
   2  11  -2    0.67    0.08
   2  11  -2    0.55    0.07
  -2 -11   2    0.49    0.08
  -2 -11   2    0.46    0.11
   1  11  -2    0.02    0.08
   1  11  -2    0.04    0.06
   1  11  -2   -0.07    0.04
  -1 -11   2    0.03    0.09
  -1 -11   2    0.08    0.06
   8  10  -2    0.09    0.07
  -8 -10   2    0.07    0.08
  -8 -10   2    0.09    0.07
   7  10  -2    0.12    0.05
   7  10  -2    0.15    0.07
  -7 -10   2    0.06    0.06
  -7 -10   2    0.15    0.05
  -7 -10   2   -0.06    0.08
  -7 -10   2    0.16    0.05
   6  10  -2    2.23    0.15
  -6 -10   2    1.85    0.18
  -6 -10   2    2.06    0.13
  -6 -10   2    1.93    0.12
  -6 -10   2    1.97    0.14
   5  10  -2    0.07    0.06
   5  10  -2    0.07    0.07
   5  10  -2    0.05    0.04
   5  10  -2    0.02    0.05
  -5 -10   2    0.07    0.05
  -5 -10   2    0.05    0.07
  -5 -10   2    0.08    0.04
  -5 -10   2    0.04    0.05
   4  10  -2    0.01    0.04
   4  10  -2    0.06    0.05
   4  10  -2    0.02    0.07
   4  10  -2    0.04    0.05
  -4 -10   2    0.04    0.05
  -4 -10   2   -0.02    0.08
  -4 -10   2    0.00    0.05
  -4 -10   2    0.04    0.04
   3  10  -2    0.21    0.05
   3  10  -2    0.21    0.06
   3  10  -2    0.24    0.06
   3  10  -2    0.16    0.08
  -3 -10   2    0.30    0.06
  -3 -10   2    0.21    0.05
  -3 -10   2    0.24    0.06
  -3 -10   2    0.08    0.08
   2  10  -2    1.96    0.18
   2  10  -2    2.03    0.12
   2  10  -2    2.08    0.13
   2  10  -2    1.89    0.11
  -2 -10   2    2.02    0.19
  -2 -10   2    1.93    0.13
   1  10  -2    1.31    0.16
   1  10  -2    1.17    0.10
   1  10  -2    1.35    0.10
   1  10  -2    1.25    0.09
  -1 -10   2    1.16    0.10
  -1 -10   2    1.05    0.13
   0  10  -2    0.01    0.04
   0  10  -2    0.07    0.08
   0  10  -2    0.15    0.06
   0 -10   2    0.02    0.08
   0 -10   2   -0.02    0.05
  -1  10  -2    0.40    0.06
  -1  10  -2    0.29    0.09
  -1  10  -2    0.23    0.07
   1 -10   2    0.24    0.10
   1 -10   2    0.26    0.07
  -2  10  -2    0.04    0.06
  -2  10  -2    0.00    0.08
   2 -10   2    0.04    0.06
   2 -10   2   -0.07    0.08
   9   9  -2    0.45    0.08
  -9  -9   2    0.65    0.09
  -9  -9   2    0.55    0.09
   8   9  -2    0.53    0.08
  -8  -9   2    0.47    0.08
  -8  -9   2    0.63    0.10
  -8  -9   2    0.63    0.06
   7   9  -2    0.48    0.06
   7   9  -2    0.45    0.05
   7   9  -2    0.33    0.07
   7   9  -2    0.37    0.05
  -7  -9   2    0.34    0.07
  -7  -9   2    0.50    0.09
  -7  -9   2    0.36    0.06
  -7  -9   2    0.40    0.05
   6   9  -2    0.69    0.07
   6   9  -2    1.02    0.08
   6   9  -2    0.90    0.07
   6   9  -2    0.81    0.11
   6   9  -2    0.91    0.09
  -6  -9   2    0.86    0.08
  -6  -9   2    0.90    0.08
  -6  -9   2    0.83    0.11
  -6  -9   2    0.78    0.07
   5   9  -2    5.59    0.21
   5   9  -2    5.68    0.23
   5   9  -2    5.24    0.18
   5   9  -2    5.52    0.30
  -5  -9   2    5.51    0.30
  -5  -9   2    5.34    0.21
  -5  -9   2    5.01    0.20
  -5  -9   2    5.49    0.21
   4   9  -2    0.38    0.05
   4   9  -2    0.42    0.09
   4   9  -2    0.35    0.06
   4   9  -2    0.32    0.05
  -4  -9   2    0.43    0.06
  -4  -9   2    0.34    0.05
  -4  -9   2    0.36    0.08
   3   9  -2    0.05    0.05
   3   9  -2    0.10    0.04
   3   9  -2    0.02    0.04
   3   9  -2    0.09    0.07
  -3  -9   2    0.11    0.05
  -3  -9   2    0.05    0.04
  -3  -9   2    0.00    0.07
   2   9  -2    1.17    0.09
   2   9  -2    0.82    0.11
   2   9  -2    0.83    0.08
   2   9  -2    1.01    0.08
  -2  -9   2    0.87    0.12
  -2  -9   2    0.91    0.08
   1   9  -2    2.72    0.13
   1   9  -2    2.71    0.15
   1   9  -2    2.73    0.12
   1   9  -2    2.50    0.19
  -1  -9   2    2.42    0.20
  -1  -9   2    2.59    0.15
   0   9  -2    0.03    0.04
   0   9  -2    0.13    0.07
   0   9  -2    0.11    0.04
   0   9  -2    0.05    0.05
   0  -9   2    0.05    0.05
   0  -9   2    0.08    0.08
  -1   9  -2    0.90    0.12
  -1   9  -2    0.99    0.09
  -1   9  -2    1.09    0.09
   1  -9   2    0.87    0.08
   1  -9   2    0.97    0.12
  -2   9  -2    0.92    0.09
  -2   9  -2    0.99    0.12
  -2   9  -2    0.80    0.08
   2  -9   2    0.93    0.12
   2  -9   2    0.90    0.09
  -3   9  -2    1.40    0.16
  -3   9  -2    1.65    0.13
   3  -9   2    1.08    0.14
   3  -9   2    1.78    0.13
   3  -9   2    1.51    0.11
  10   8  -2    4.27    0.23
  10   8  -2    4.62    0.22
 -10  -8   2    4.60    0.22
   9   8  -2    0.32    0.08
  -9  -8   2    0.37    0.08
  -9  -8   2    0.40    0.07
   8   8  -2    0.41    0.05
   8   8  -2    0.39    0.07
   8   8  -2    0.42    0.05
  -8  -8   2    0.30    0.07
  -8  -8   2    0.44    0.08
  -8  -8   2    0.44    0.05
   7   8  -2    1.37    0.12
   7   8  -2    1.31    0.09
   7   8  -2    1.33    0.08
   7   8  -2    1.34    0.08
  -7  -8   2    1.39    0.10
  -7  -8   2    1.46    0.09
  -7  -8   2    1.23    0.13
  -7  -8   2    1.20    0.10
   6   8  -2    1.29    0.12
   6   8  -2    1.31    0.08
   6   8  -2    1.26    0.08
   6   8  -2    1.32    0.11
   6   8  -2    1.22    0.09
  -6  -8   2    1.31    0.10
  -6  -8   2    1.39    0.09
  -6  -8   2    1.26    0.11
  -6  -8   2    1.39    0.13
   5   8  -2    1.34    0.08
   5   8  -2    1.55    0.13
   5   8  -2    1.44    0.08
   5   8  -2    1.54    0.11
   5   8  -2    1.56    0.10
  -5  -8   2    1.60    0.13
  -5  -8   2    1.38    0.09
  -5  -8   2    1.47    0.11
   4   8  -2    0.06    0.04
   4   8  -2    0.00    0.04
   4   8  -2    0.03    0.03
   4   8  -2    0.07    0.05
  -4  -8   2   -0.01    0.03
  -4  -8   2    0.13    0.05
  -4  -8   2    0.06    0.06
   3   8  -2    7.95    0.28
   3   8  -2    8.28    0.25
   3   8  -2    7.98    0.29
   3   8  -2    8.42    0.39
  -3  -8   2    8.06    0.27
  -3  -8   2    8.19    0.39
  -3  -8   2    8.15    0.27
   2   8  -2   14.91    0.64
   2   8  -2   14.61    0.48
   2   8  -2   14.15    0.45
   2   8  -2   14.21    0.42
  -2  -8   2   14.38    0.64
   1   8  -2    9.31    0.28
   1   8  -2    9.37    0.31
   1   8  -2    7.81    0.42
   1   8  -2    9.28    0.31
  -1  -8   2    8.68    0.43
  -1  -8   2    9.25    0.31
   0   8  -2    2.06    0.10
   0   8  -2    2.06    0.17
   0   8  -2    2.17    0.12
   0   8  -2    2.14    0.10
   0  -8   2    1.99    0.12
   0  -8   2    1.98    0.16
  -1   8  -2    1.09    0.14
  -1   8  -2    1.26    0.09
  -1   8  -2    1.32    0.08
  -1   8  -2    1.34    0.10
   1  -8   2    1.28    0.10
   1  -8   2    1.14    0.14
  -2   8  -2    0.05    0.04
  -2   8  -2    0.12    0.05
  -2   8  -2    0.01    0.06
   2  -8   2   -0.03    0.04
   2  -8   2   -0.04    0.04
   2  -8   2    0.10    0.07
  -3   8  -2    0.40    0.09
  -3   8  -2    0.35    0.06
  -3   8  -2    0.33    0.06
   3  -8   2    0.37    0.06
   3  -8   2    0.35    0.09
   3  -8   2    0.45    0.07
  -4   8  -2   -0.02    0.07
  -4   8  -2   -0.06    0.05
  -4   8  -2   -0.05    0.05
   4  -8   2    0.02    0.05
   4  -8   2   -0.06    0.05
   4  -8   2   -0.02    0.07
  -5   8  -2    0.84    0.10
  -5   8  -2    0.73    0.09
  -5   8  -2    0.81    0.12
   5  -8   2    0.75    0.09
   5  -8   2    0.79    0.09
  10   7  -2    2.29    0.16
  10   7  -2    1.97    0.15
 -10  -7   2    2.52    0.17
   9   7  -2    0.02    0.06
   9   7  -2    0.08    0.06
   9   7  -2    0.05    0.05
  -9  -7   2    0.03    0.05
  -9  -7   2    0.07    0.06
   8   7  -2   11.88    0.36
   8   7  -2   11.72    0.41
   8   7  -2   11.35    0.42
  -8  -7   2   11.49    0.39
  -8  -7   2   11.58    0.35
  -8  -7   2   11.14    0.50
   7   7  -2    6.07    0.21
   7   7  -2    6.16    0.21
   7   7  -2    5.97    0.24
   7   7  -2    5.95    0.25
  -7  -7   2    6.38    0.24
  -7  -7   2    6.22    0.30
  -7  -7   2    6.03    0.23
  -7  -7   2    6.30    0.21
   6   7  -2    0.22    0.04
   6   7  -2    0.27    0.04
   6   7  -2    0.20    0.06
   6   7  -2    0.23    0.05
   6   7  -2    0.22    0.03
  -6  -7   2    0.23    0.04
  -6  -7   2    0.19    0.05
  -6  -7   2    0.40    0.07
  -6  -7   2    0.25    0.06
  -6  -7   2    0.21    0.05
   5   7  -2    4.83    0.26
   5   7  -2    5.20    0.17
   5   7  -2    5.00    0.18
   5   7  -2    5.26    0.17
   5   7  -2    5.24    0.21
  -5  -7   2    5.08    0.19
  -5  -7   2    5.24    0.18
  -5  -7   2    5.26    0.19
  -5  -7   2    4.85    0.26
  -5  -7   2    5.07    0.26
  -5  -7   2    4.87    0.17
   4   7  -2   -0.05    0.03
   4   7  -2    0.06    0.05
   4   7  -2    0.04    0.02
   4   7  -2    0.05    0.03
   4   7  -2    0.12    0.04
   4   7  -2   -0.02    0.03
  -4  -7   2    0.06    0.03
  -4  -7   2    0.04    0.05
  -4  -7   2    0.07    0.04
  -4  -7   2    0.08    0.05
  -4  -7   2    0.02    0.04
   3   7  -2   14.48    0.61
   3   7  -2   14.05    0.40
   3   7  -2   13.75    0.43
   3   7  -2   13.75    0.39
  -3  -7   2   14.38    0.61
  -3  -7   2   13.86    0.43
  -3  -7   2   13.99    0.42
  -3  -7   2   13.78    0.44
  -3  -7   2   14.34    0.61
   2   7  -2   10.57    0.34
   2   7  -2   10.45    0.30
   2   7  -2   10.32    0.31
   2   7  -2   10.65    0.48
  -2  -7   2   10.81    0.48
   1   7  -2   -0.04    0.02
   1   7  -2    0.03    0.03
   1   7  -2   -0.02    0.03
   1   7  -2   -0.02    0.05
  -1  -7   2    0.05    0.03
  -1  -7   2    0.07    0.06
   0   7  -2    4.42    0.25
   0   7  -2    4.83    0.18
   0   7  -2    4.86    0.17
   0   7  -2    4.61    0.18
   0  -7   2    4.86    0.26
   0  -7   2    4.88    0.18
  -1   7  -2    1.48    0.14
  -1   7  -2    1.67    0.09
  -1   7  -2    1.52    0.10
  -1   7  -2    1.73    0.08
   1  -7   2    1.58    0.08
   1  -7   2    1.62    0.11
   1  -7   2    1.68    0.15
  -2   7  -2   23.96    0.70
  -2   7  -2   23.84    0.75
  -2   7  -2   24.20    0.73
  -2   7  -2   25.39    1.04
   2  -7   2   24.05    0.73
   2  -7   2   25.44    1.03
   2  -7   2   24.22    0.70
  -3   7  -2   16.12    0.75
  -3   7  -2   17.63    0.53
  -3   7  -2   17.46    0.51
   3  -7   2   16.76    0.75
   3  -7   2   17.25    0.53
   3  -7   2   17.54    0.51
  -4   7  -2    0.19    0.05
  -4   7  -2    0.19    0.07
  -4   7  -2    0.23    0.06
   4  -7   2    0.20    0.06
   4  -7   2    0.25    0.08
   4  -7   2    0.22    0.06
  -5   7  -2    1.39    0.11
  -5   7  -2    1.45    0.15
  -5   7  -2    1.28    0.11
  -5   7  -2    1.34    0.11
   5  -7   2    1.47    0.11
   5  -7   2    1.37    0.12
  -6   7  -2    2.43    0.18
  -6   7  -2    2.77    0.15
  -6   7  -2    2.76    0.20
   6  -7   2    2.74    0.16
   6  -7   2    2.86    0.16
  11   6  -2   -0.06    0.06
  11   6  -2   -0.04    0.05
  11   6  -2    0.05    0.05
 -11  -6   2   -0.01    0.07
  10   6  -2    1.92    0.12
  10   6  -2    2.04    0.14
  10   6  -2    2.14    0.14
 -10  -6   2    1.88    0.15
   9   6  -2    0.57    0.08
   9   6  -2    0.60    0.07
   9   6  -2    0.58    0.06
  -9  -6   2    0.63    0.06
  -9  -6   2    0.56    0.08
   8   6  -2    8.54    0.33
   8   6  -2    9.00    0.28
   8   6  -2    8.90    0.32
  -8  -6   2    8.62    0.27
  -8  -6   2    8.72    0.38
  -8  -6   2    8.87    0.31
   7   6  -2    1.08    0.10
   7   6  -2    1.01    0.07
   7   6  -2    1.01    0.09
   7   6  -2    0.86    0.08
  -7  -6   2    0.93    0.06
  -7  -6   2    1.01    0.07
  -7  -6   2    1.13    0.10
  -7  -6   2    0.88    0.08
  -7  -6   2    1.00    0.09
   6   6  -2   53.76    1.60
   6   6  -2   53.95    1.62
   6   6  -2   53.25    1.48
   6   6  -2   47.82    2.10
   6   6  -2   53.85    1.47
  -6  -6   2   53.55    1.56
  -6  -6   2   50.32    2.10
  -6  -6   2   53.86    1.48
  -6  -6   2   52.16    1.47
  -6  -6   2   53.51    1.50
  -6  -6   2   51.64    2.10
  -6  -6   2   52.92    1.48
   5   6  -2   16.84    0.53
   5   6  -2   15.96    0.49
   5   6  -2   16.81    0.48
   5   6  -2   16.25    0.46
   5   6  -2   17.07    0.69
  -5  -6   2   16.25    0.69
  -5  -6   2   16.23    0.49
  -5  -6   2   16.30    0.50
  -5  -6   2   15.91    0.51
  -5  -6   2   16.19    0.69
  -5  -6   2   16.45    0.48
   4   6  -2   35.16    1.00
   4   6  -2   34.91    0.98
   4   6  -2   35.60    0.95
   4   6  -2   32.14    1.40
  -4  -6   2   33.10    1.41
  -4  -6   2   35.28    0.98
  -4  -6   2   34.55    1.00
  -4  -6   2   35.48    1.02
  -4  -6   2   34.52    1.03
  -4  -6   2   36.76    1.41
   3   6  -2   13.46    0.37
   3   6  -2   13.12    0.40
   3   6  -2   13.12    0.38
   3   6  -2   13.80    0.57
   3   6  -2   13.25    0.39
  -3  -6   2   13.10    0.57
  -3  -6   2   13.11    0.41
  -3  -6   2   12.96    0.40
  -3  -6   2   13.22    0.39
  -3  -6   2   13.81    0.57
   2   6  -2    1.98    0.07
   2   6  -2    2.06    0.14
   2   6  -2    1.89    0.08
   2   6  -2    2.10    0.10
  -2  -6   2    2.28    0.14
  -2  -6   2    2.13    0.14
  -2  -6   2    1.91    0.08
   1   6  -2   48.80    1.39
   1   6  -2   48.00    1.33
   1   6  -2   48.44    1.34
   1   6  -2   50.65    1.98
  -1  -6   2   48.41    1.37
  -1  -6   2   50.65    1.97
  -1  -6   2   48.11    1.33
   0   6  -2    1.96    0.09
   0   6  -2    2.13    0.14
   0   6  -2    1.95    0.10
   0  -6   2    1.96    0.08
   0  -6   2    1.95    0.14
  -1   6  -2    2.82    0.17
  -1   6  -2    2.54    0.12
  -1   6  -2    2.51    0.11
   1  -6   2    2.71    0.10
   1  -6   2    2.75    0.17
   1  -6   2    2.58    0.11
   1  -6   2    2.55    0.12
  -2   6  -2   18.74    0.57
  -2   6  -2   18.76    0.56
  -2   6  -2   19.01    0.58
  -2   6  -2   19.18    0.80
  -2   6  -2   18.65    0.54
   2  -6   2   18.49    0.54
   2  -6   2   18.43    0.80
   2  -6   2   18.84    0.57
  -3   6  -2    3.35    0.14
  -3   6  -2    3.56    0.12
  -3   6  -2    3.51    0.12
  -3   6  -2    3.68    0.22
  -3   6  -2    3.82    0.16
   3  -6   2    3.85    0.14
   3  -6   2    3.74    0.22
   3  -6   2    3.60    0.16
  -4   6  -2   11.62    0.53
  -4   6  -2   11.88    0.38
  -4   6  -2   11.62    0.37
   4  -6   2   12.04    0.37
   4  -6   2   11.92    0.53
   4  -6   2   11.83    0.38
  -5   6  -2    0.00    0.04
  -5   6  -2    0.02    0.04
  -5   6  -2   -0.01    0.05
  -5   6  -2   -0.01    0.05
   5  -6   2    0.03    0.06
   5  -6   2   -0.01    0.05
   5  -6   2   -0.03    0.04
  -6   6  -2    2.90    0.20
  -6   6  -2    3.14    0.18
  -6   6  -2    2.79    0.15
  -6   6  -2    3.13    0.14
   6  -6   2    2.88    0.15
   6  -6   2    2.89    0.15
  -7   6  -2    0.77    0.10
  -7   6  -2    0.74    0.10
  -7   6  -2    0.95    0.08
   7  -6   2    0.77    0.09
   7  -6   2    0.68    0.08
  11   5  -2    0.42    0.08
  11   5  -2    0.62    0.08
  11   5  -2    0.59    0.07
  10   5  -2    1.60    0.11
  10   5  -2    1.79    0.13
  10   5  -2    1.81    0.13
 -10  -5   2    1.66    0.14
   9   5  -2   -0.14    0.05
   9   5  -2   -0.13    0.04
   9   5  -2    0.01    0.05
  -9  -5   2    0.08    0.06
   8   5  -2    3.16    0.16
   8   5  -2    3.26    0.16
   8   5  -2    3.18    0.13
   8   5  -2    2.96    0.12
  -8  -5   2    3.15    0.16
  -8  -5   2    3.03    0.10
  -8  -5   2    3.10    0.14
  -8  -5   2    3.03    0.14
   7   5  -2    0.16    0.04
   7   5  -2    0.30    0.06
   7   5  -2    0.31    0.04
   7   5  -2    0.29    0.05
   7   5  -2    0.25    0.05
  -7  -5   2    0.32    0.06
  -7  -5   2    0.32    0.05
  -7  -5   2    0.25    0.03
  -7  -5   2    0.23    0.04
  -7  -5   2    0.29    0.03
   6   5  -2   36.75    1.12
   6   5  -2   37.29    1.11
   6   5  -2   32.42    1.44
   6   5  -2   36.45    1.02
  -6  -5   2   36.05    1.44
  -6  -5   2   35.46    1.08
  -6  -5   2   36.69    1.04
  -6  -5   2   36.40    1.02
  -6  -5   2   36.70    1.02
  -6  -5   2   36.23    1.44
   5   5  -2   51.76    2.04
   5   5  -2   51.13    1.43
   5   5  -2   50.59    1.44
   5   5  -2   50.55    1.55
  -5  -5   2   51.83    1.48
  -5  -5   2   50.49    1.51
  -5  -5   2   52.05    1.44
  -5  -5   2   51.78    1.45
  -5  -5   2   52.17    2.04
  -5  -5   2   52.18    1.44
  -5  -5   2   50.71    1.43
  -5  -5   2   49.73    2.04
   4   5  -2    8.31    0.34
   4   5  -2    7.58    0.23
   4   5  -2    7.38    0.24
   4   5  -2    7.50    0.27
   4   5  -2    7.74    0.23
  -4  -5   2    7.91    0.24
  -4  -5   2    7.68    0.24
  -4  -5   2    8.21    0.34
  -4  -5   2    7.69    0.25
  -4  -5   2    7.84    0.34
  -4  -5   2    7.72    0.23
  -4  -5   2    7.70    0.26
   3   5  -2    2.30    0.09
   3   5  -2    2.19    0.08
   3   5  -2    2.22    0.07
   3   5  -2    2.17    0.13
   3   5  -2    2.25    0.08
   3   5  -2    2.40    0.13
  -3  -5   2    2.19    0.13
  -3  -5   2    2.14    0.08
  -3  -5   2    2.20    0.10
  -3  -5   2    2.14    0.09
  -3  -5   2    2.21    0.13
  -3  -5   2    2.24    0.09
   2   5  -2    0.68    0.05
   2   5  -2    0.70    0.04
   2   5  -2    0.68    0.07
   2   5  -2    0.70    0.03
   2   5  -2    0.79    0.07
  -2  -5   2    0.69    0.08
  -2  -5   2    0.73    0.08
  -2  -5   2    1.00    0.07
  -2  -5   2    0.68    0.05
  -2  -5   2    0.65    0.04
   1   5  -2   11.34    0.35
   1   5  -2   11.49    0.49
   1   5  -2   11.28    0.33
   1   5  -2   12.36    0.50
   1   5  -2   11.48    0.32
  -1  -5   2   11.18    0.33
  -1  -5   2   10.90    0.32
  -1  -5   2   12.13    0.50
  -1  -5   2   10.85    0.49
  -1  -5   2   11.39    0.35
   0   5  -2   13.77    0.66
   0   5  -2   17.19    0.67
   0   5  -2   15.66    0.47
   0   5  -2   16.23    0.45
   0  -5   2   14.33    0.66
   0  -5   2   16.33    0.45
   0  -5   2   17.02    0.67
   0  -5   2   16.28    0.45
   0  -5   2   15.95    0.46
  -1   5  -2    4.72    0.23
  -1   5  -2    4.57    0.23
  -1   5  -2    4.35    0.15
  -1   5  -2    4.31    0.16
   1  -5   2    4.26    0.16
   1  -5   2    4.19    0.15
   1  -5   2    4.35    0.15
   1  -5   2    4.54    0.14
   1  -5   2    4.36    0.23
  -2   5  -2    3.12    0.11
  -2   5  -2    2.93    0.12
  -2   5  -2    3.22    0.18
  -2   5  -2    2.89    0.18
  -2   5  -2    3.17    0.13
   2  -5   2    3.01    0.11
   2  -5   2    3.02    0.13
   2  -5   2    2.92    0.11
   2  -5   2    2.93    0.17
  -3   5  -2    3.82    0.15
  -3   5  -2    3.92    0.13
  -3   5  -2    3.92    0.22
  -3   5  -2    3.95    0.15
  -3   5  -2    4.47    0.22
   3  -5   2    3.72    0.15
   3  -5   2    3.93    0.14
   3  -5   2    3.74    0.21
  -4   5  -2    1.25    0.11
  -4   5  -2    1.12    0.08
  -4   5  -2    1.05    0.09
  -4   5  -2    1.10    0.12
   4  -5   2    1.05    0.09
   4  -5   2    1.15    0.09
   4  -5   2    1.19    0.12
  -5   5  -2    0.00    0.05
  -5   5  -2   -0.01    0.05
  -5   5  -2   -0.04    0.04
  -5   5  -2    0.03    0.04
   5  -5   2   -0.01    0.04
   5  -5   2   -0.01    0.04
   5  -5   2   -0.02    0.06
  -6   5  -2    0.66    0.09
  -6   5  -2    0.68    0.07
  -6   5  -2    0.63    0.08
  -6   5  -2    0.70    0.06
   6  -5   2    0.52    0.07
   6  -5   2    0.65    0.06
  -7   5  -2    0.01    0.06
  -7   5  -2   -0.03    0.06
  -7   5  -2   -0.02    0.04
  -7   5  -2    0.03    0.05
   7  -5   2   -0.01    0.06
   7  -5   2    0.02    0.04
  -8   5  -2    1.42    0.14
  -8   5  -2    1.09    0.12
   8  -5   2    1.44    0.11
  11   4  -2    1.50    0.12
  11   4  -2    1.62    0.13
  11   4  -2    1.60    0.11
  11   4  -2    1.36    0.12
  10   4  -2    0.03    0.05
  10   4  -2    0.02    0.04
  10   4  -2    0.05    0.05
  10   4  -2    0.02    0.05
   9   4  -2    6.27    0.22
   9   4  -2    5.89    0.24
   9   4  -2    6.00    0.24
  -9  -4   2    6.04    0.24
   8   4  -2   -0.02    0.03
   8   4  -2   -0.01    0.04
   8   4  -2    0.10    0.05
   8   4  -2    0.07    0.04
  -8  -4   2    0.11    0.05
   7   4  -2    1.48    0.10
   7   4  -2    1.62    0.08
   7   4  -2    1.60    0.08
   7   4  -2    1.51    0.11
   7   4  -2    1.57    0.08
   7   4  -2    1.36    0.09
  -7  -4   2    1.55    0.06
  -7  -4   2    1.49    0.10
  -7  -4   2    1.56    0.08
  -7  -4   2    1.58    0.08
   6   4  -2   37.17    1.04
   6   4  -2   37.04    1.13
   6   4  -2   36.16    1.00
   6   4  -2   36.79    1.47
   6   4  -2   36.80    1.04
  -6  -4   2   37.27    1.03
  -6  -4   2   36.83    1.06
  -6  -4   2   37.27    1.47
  -6  -4   2   36.86    1.04
   5   4  -2    2.33    0.08
   5   4  -2    2.27    0.12
   5   4  -2    2.40    0.11
   5   4  -2    2.23    0.09
   5   4  -2    2.26    0.12
  -5  -4   2    2.42    0.11
  -5  -4   2    2.36    0.09
  -5  -4   2    2.25    0.09
  -5  -4   2    2.31    0.12
  -5  -4   2    2.22    0.11
  -5  -4   2    2.39    0.12
   4   4  -2   78.93    2.21
   4   4  -2   79.25    2.18
   4   4  -2   78.21    3.12
   4   4  -2   78.17    2.37
   4   4  -2   76.47    3.12
  -4  -4   2   77.71    2.30
  -4  -4   2   77.74    2.18
  -4  -4   2   79.46    2.28
  -4  -4   2   81.79    3.12
  -4  -4   2   80.04    2.20
  -4  -4   2   78.89    3.12
  -4  -4   2   79.59    2.37
  -4  -4   2   78.05    2.21
  -4  -4   2   80.58    2.20
   3   4  -2    3.92    0.13
   3   4  -2    4.28    0.19
   3   4  -2    4.04    0.12
   3   4  -2    3.84    0.15
   3   4  -2    4.01    0.12
   3   4  -2    3.96    0.19
  -3  -4   2    3.92    0.13
  -3  -4   2    4.05    0.19
  -3  -4   2    3.94    0.15
  -3  -4   2    3.96    0.14
  -3  -4   2    4.15    0.19
  -3  -4   2    3.84    0.13
  -3  -4   2    3.89    0.14
  -3  -4   2    3.87    0.13
   2   4  -2    9.63    0.28
   2   4  -2    9.56    0.27
   2   4  -2    9.70    0.29
   2   4  -2    9.73    0.27
   2   4  -2   10.06    0.41
   2   4  -2   10.02    0.42
  -2  -4   2    9.89    0.41
  -2  -4   2    9.31    0.29
  -2  -4   2    9.63    0.29
  -2  -4   2    9.89    0.41
  -2  -4   2    9.41    0.28
  -2  -4   2    9.76    0.31
   1   4  -2    3.89    0.11
   1   4  -2    4.18    0.19
   1   4  -2    3.90    0.12
   1   4  -2    3.95    0.19
  -1  -4   2    3.90    0.12
  -1  -4   2    4.17    0.19
  -1  -4   2    3.95    0.19
  -1  -4   2    3.77    0.14
  -1  -4   2    3.75    0.13
  -1  -4   2    3.83    0.12
   0   4  -2    8.97    0.29
   0   4  -2    9.20    0.41
   0   4  -2   10.13    0.41
   0   4  -2    9.52    0.27
   0  -4   2    9.99    0.41
   0  -4   2    9.19    0.27
   0  -4   2    9.11    0.27
   0  -4   2    9.20    0.29
   0  -4   2    9.46    0.29
   0  -4   2    9.88    0.41
   0  -4   2    9.15    0.28
  -1   4  -2    4.06    0.20
  -1   4  -2    3.91    0.14
  -1   4  -2    3.84    0.13
  -1   4  -2    3.56    0.19
   1  -4   2    3.86    0.13
   1  -4   2    3.65    0.14
   1  -4   2    3.98    0.20
   1  -4   2    4.02    0.12
   1  -4   2    3.88    0.14
   1  -4   2    3.98    0.19
  -2   4  -2    0.10    0.03
  -2   4  -2    0.08    0.04
  -2   4  -2    0.10    0.04
  -2   4  -2    0.11    0.02
  -2   4  -2    0.09    0.03
   2  -4   2    0.11    0.03
   2  -4   2    0.12    0.03
   2  -4   2    0.11    0.04
   2  -4   2    0.09    0.03
   2  -4   2    0.19    0.05
   2  -4   2    0.14    0.03
  -3   4  -2    0.01    0.04
  -3   4  -2    0.01    0.03
  -3   4  -2    0.00    0.04
  -3   4  -2   -0.01    0.01
  -3   4  -2    0.00    0.03
   3  -4   2    0.01    0.03
   3  -4   2   -0.01    0.04
   3  -4   2   -0.03    0.03
   3  -4   2    0.02    0.03
  -4   4  -2    1.19    0.09
  -4   4  -2    1.15    0.08
  -4   4  -2    1.35    0.11
  -4   4  -2    1.25    0.08
  -4   4  -2    1.40    0.11
   4  -4   2    1.26    0.08
   4  -4   2    1.33    0.11
   4  -4   2    1.22    0.08
  -5   4  -2    8.69    0.28
  -5   4  -2    8.85    0.32
  -5   4  -2    9.08    0.29
  -5   4  -2    8.94    0.40
  -5   4  -2    9.13    0.41
   5  -4   2    8.75    0.40
   5  -4   2    8.70    0.27
   5  -4   2    8.94    0.29
   5  -4   2    8.74    0.28
  -6   4  -2    5.40    0.19
  -6   4  -2    5.23    0.27
  -6   4  -2    5.22    0.23
  -6   4  -2    5.42    0.20
   6  -4   2    5.19    0.19
   6  -4   2    5.23    0.20
   6  -4   2    5.69    0.27
  -7   4  -2    0.19    0.05
  -7   4  -2    0.19    0.04
  -7   4  -2    0.10    0.06
  -7   4  -2    0.05    0.06
   7  -4   2    0.17    0.06
   7  -4   2    0.09    0.04
  -8   4  -2   -0.06    0.06
  -8   4  -2    0.04    0.04
  -8   4  -2    0.06    0.05
   8  -4   2    0.01    0.06
  -9   4  -2    1.20    0.12
  -9   4  -2    1.17    0.13
   9  -4   2    1.15    0.11
  11   3  -2    0.29    0.07
  11   3  -2    0.27    0.06
  11   3  -2    0.29    0.07
  11   3  -2    0.28    0.06
  10   3  -2    0.53    0.07
  10   3  -2    0.57    0.07
  10   3  -2    0.43    0.07
  10   3  -2    0.66    0.08
   9   3  -2    9.39    0.30
   9   3  -2    9.41    0.34
   9   3  -2    9.20    0.33
   9   3  -2    9.51    0.31
   8   3  -2    4.84    0.20
   8   3  -2    5.03    0.17
   8   3  -2    4.93    0.18
   8   3  -2    4.92    0.20
  -8  -3   2    4.94    0.20
   7   3  -2    0.98    0.08
   7   3  -2    0.76    0.07
   7   3  -2    0.87    0.06
   7   3  -2    0.80    0.07
  -7  -3   2    0.89    0.07
   6   3  -2    0.86    0.07
   6   3  -2    0.67    0.06
   6   3  -2    0.82    0.05
   6   3  -2    0.83    0.05
   6   3  -2    0.65    0.05
  -6  -3   2    0.73    0.06
  -6  -3   2    0.79    0.03
  -6  -3   2    0.82    0.05
  -6  -3   2    0.83    0.05
   5   3  -2    1.84    0.07
   5   3  -2    1.86    0.09
   5   3  -2    1.87    0.08
   5   3  -2    1.87    0.07
   5   3  -2    1.87    0.10
   5   3  -2    2.00    0.11
   5   3  -2    1.93    0.09
  -5  -3   2    1.82    0.09
  -5  -3   2    1.56    0.09
  -5  -3   2    1.80    0.09
  -5  -3   2    1.88    0.07
  -5  -3   2    1.87    0.07
  -5  -3   2    1.85    0.09
   4   3  -2  144.26    4.13
   4   3  -2  142.43    4.26
   4   3  -2  143.88    5.66
   4   3  -2  150.06    5.63
   4   3  -2  142.30    3.94
   4   3  -2  142.59    4.01
   4   3  -2  142.98    3.97
  -4  -3   2  138.48    5.61
  -4  -3   2  141.18    3.97
  -4  -3   2  141.31    3.97
  -4  -3   2  143.97    4.26
  -4  -3   2  141.15    4.14
  -4  -3   2  141.39    4.12
  -4  -3   2  144.07    3.97
  -4  -3   2  143.44    5.63
   3   3  -2    6.15    0.18
   3   3  -2    5.93    0.26
   3   3  -2    5.94    0.20
   3   3  -2    6.00    0.18
   3   3  -2    5.37    0.26
  -3  -3   2    6.30    0.26
  -3  -3   2    5.87    0.26
  -3  -3   2    5.95    0.18
  -3  -3   2    6.13    0.18
  -3  -3   2    6.30    0.18
  -3  -3   2    6.06    0.20
  -3  -3   2    5.80    0.19
  -3  -3   2    6.03    0.20
  -3  -3   2    6.06    0.18
   2   3  -2   11.28    0.36
   2   3  -2   10.37    0.47
   2   3  -2   11.32    0.32
   2   3  -2   11.54    0.31
   2   3  -2   11.66    0.33
   2   3  -2   11.10    0.47
  -2  -3   2   11.42    0.34
  -2  -3   2   10.47    0.47
  -2  -3   2   11.64    0.33
  -2  -3   2   11.52    0.36
  -2  -3   2   11.32    0.32
  -2  -3   2   11.37    0.33
  -2  -3   2   11.64    0.33
  -2  -3   2   12.12    0.47
   1   3  -2    6.72    0.27
   1   3  -2    6.13    0.18
   1   3  -2    6.00    0.19
   1   3  -2    6.08    0.17
   1   3  -2    6.40    0.27
  -1  -3   2    6.04    0.18
  -1  -3   2    6.49    0.27
  -1  -3   2    6.24    0.19
  -1  -3   2    5.96    0.18
  -1  -3   2    6.19    0.19
  -1  -3   2    5.98    0.19
  -1  -3   2    6.13    0.21
  -1  -3   2    6.69    0.27
   0   3  -2    0.45    0.06
   0   3  -2    0.48    0.03
   0   3  -2    0.43    0.05
   0   3  -2    0.46    0.04
   0  -3   2    0.49    0.04
   0  -3   2    0.43    0.05
   0  -3   2    0.44    0.04
   0  -3   2    0.49    0.04
   0  -3   2    0.46    0.03
   0  -3   2    0.34    0.05
   0  -3   2    0.47    0.02
  -1   3  -2   96.22    3.81
  -1   3  -2   95.21    2.59
  -1   3  -2   94.52    2.70
  -1   3  -2  100.19    3.82
   1  -3   2   96.56    3.81
   1  -3   2   95.81    2.63
   1  -3   2   95.37    2.69
   1  -3   2   97.54    2.59
   1  -3   2   96.41    3.81
   1  -3   2   98.32    2.70
  -2   3  -2    7.74    0.24
  -2   3  -2    7.74    0.23
  -2   3  -2    7.80    0.24
  -2   3  -2    7.79    0.34
  -2   3  -2    6.93    0.33
   2  -3   2    7.87    0.24
   2  -3   2    7.53    0.23
   2  -3   2    7.41    0.33
   2  -3   2    7.86    0.34
   2  -3   2    7.55    0.24
   2  -3   2    7.52    0.22
  -3   3  -2    3.97    0.13
  -3   3  -2    3.90    0.14
  -3   3  -2    4.02    0.20
  -3   3  -2    4.34    0.20
  -3   3  -2    3.82    0.14
  -3   3  -2    4.03    0.15
   3  -3   2    4.06    0.14
   3  -3   2    4.15    0.20
   3  -3   2    3.89    0.14
   3  -3   2    3.97    0.14
   3  -3   2    3.98    0.14
   3  -3   2    4.32    0.20
  -4   3  -2    7.02    0.23
  -4   3  -2    7.09    0.22
  -4   3  -2    6.99    0.26
  -4   3  -2    7.71    0.32
  -4   3  -2    6.76    0.32
  -4   3  -2    7.19    0.23
   4  -3   2    7.06    0.23
   4  -3   2    7.13    0.23
   4  -3   2    7.34    0.32
   4  -3   2    6.87    0.23
   4  -3   2    7.12    0.22
  -5   3  -2   22.12    0.86
  -5   3  -2   20.92    0.68
  -5   3  -2   20.57    0.61
  -5   3  -2   20.53    0.86
  -5   3  -2   20.59    0.59
   5  -3   2   21.28    0.86
   5  -3   2   20.19    0.60
   5  -3   2   20.13    0.60
   5  -3   2   20.06    0.61
  -6   3  -2    0.02    0.05
  -6   3  -2    0.05    0.05
  -6   3  -2   -0.02    0.04
  -6   3  -2    0.02    0.03
  -6   3  -2    0.01    0.05
   6  -3   2   -0.01    0.04
   6  -3   2   -0.05    0.03
   6  -3   2   -0.01    0.03
   6  -3   2    0.02    0.05
  -7   3  -2    1.59    0.09
  -7   3  -2    1.28    0.13
  -7   3  -2    1.37    0.11
  -7   3  -2    1.58    0.12
   7  -3   2    1.52    0.09
   7  -3   2    1.57    0.11
  -8   3  -2    0.03    0.05
  -8   3  -2    0.02    0.05
  -8   3  -2   -0.03    0.06
  -8   3  -2    0.04    0.03
   8  -3   2   -0.03    0.04
   8  -3   2    0.05    0.06
  -9   3  -2    2.61    0.16
  -9   3  -2    2.77    0.18
   9  -3   2    2.70    0.16
  11   2  -2    0.09    0.06
  11   2  -2    0.06    0.06
  11   2  -2    0.12    0.06
  10   2  -2   -0.06    0.04
  10   2  -2    0.00    0.05
  10   2  -2   -0.05    0.05
  10   2  -2   -0.03    0.05
   9   2  -2    2.81    0.14
   9   2  -2    2.80    0.13
   9   2  -2    2.83    0.16
   9   2  -2    2.78    0.14
   8   2  -2    1.10    0.08
   8   2  -2    1.24    0.06
   8   2  -2    0.93    0.08
   8   2  -2    1.07    0.09
   8   2  -2    1.08    0.08
   8   2  -2    1.26    0.08
   7   2  -2    1.33    0.08
   7   2  -2    1.29    0.08
   7   2  -2    1.18    0.10
   7   2  -2    1.26    0.07
   7   2  -2    1.27    0.06
  -7  -2   2    1.42    0.09
   6   2  -2    0.40    0.05
   6   2  -2    0.52    0.04
   6   2  -2    0.60    0.05
   6   2  -2    0.54    0.04
  -6  -2   2    0.48    0.05
   5   2  -2    1.05    0.07
   5   2  -2    1.12    0.07
   5   2  -2    1.07    0.05
   5   2  -2    0.99    0.06
   5   2  -2    1.05    0.05
   5   2  -2    1.04    0.07
   5   2  -2    1.04    0.07
  -5  -2   2    0.95    0.07
   4   2  -2  228.79    6.37
   4   2  -2  229.18    6.16
   4   2  -2  227.77    9.09
   4   2  -2  229.88    9.10
   4   2  -2  234.42    7.02
   4   2  -2  230.44    6.44
   4   2  -2  233.94    6.68
   4   2  -2  231.29    6.41
   4   2  -2  238.64    6.67
   4   2  -2  227.82    6.87
  -4  -2   2  231.64    6.68
  -4  -2   2  229.57    6.42
  -4  -2   2  230.27    6.41
  -4  -2   2  228.39    9.09
  -4  -2   2  234.54    9.10
   3   2  -2   28.52    0.80
   3   2  -2   27.83    1.13
   3   2  -2   28.21    0.86
   3   2  -2   28.92    1.13
   3   2  -2   28.77    0.84
   3   2  -2   28.26    0.79
   3   2  -2   28.13    0.82
   3   2  -2   28.99    0.80
  -3  -2   2   28.33    0.80
  -3  -2   2   28.85    0.80
  -3  -2   2   28.82    0.86
  -3  -2   2   27.69    1.13
  -3  -2   2   28.05    0.84
  -3  -2   2   28.99    0.81
  -3  -2   2   27.79    1.13
  -3  -2   2   28.09    0.82
   2   2  -2  131.75    3.72
   2   2  -2  145.16    5.27
   2   2  -2  145.23    5.25
   2   2  -2  129.13    3.68
   2   2  -2  129.61    3.95
   2   2  -2  127.58    3.66
  -2  -2   2  129.91    3.84
  -2  -2   2  128.60    3.70
  -2  -2   2  136.54    5.25
  -2  -2   2  133.20    3.69
  -2  -2   2  128.35    3.68
  -2  -2   2  128.98    3.65
  -2  -2   2  138.16    5.26
  -2  -2   2  128.67    3.95
  -2  -2   2  130.07    3.83
   1   2  -2    3.20    0.12
   1   2  -2    3.33    0.10
   1   2  -2    3.66    0.15
   1   2  -2    3.62    0.15
   1   2  -2    3.26    0.11
  -1  -2   2    3.34    0.10
  -1  -2   2    3.19    0.10
  -1  -2   2    3.65    0.15
  -1  -2   2    3.14    0.11
  -1  -2   2    3.24    0.11
  -1  -2   2    3.31    0.12
  -1  -2   2    3.30    0.10
  -1  -2   2    3.19    0.11
  -1  -2   2    3.31    0.15
   0   2  -2    8.50    0.23
   0   2  -2    8.64    0.35
   0   2  -2    7.31    0.35
   0   2  -2    8.47    0.25
   0  -2   2    8.53    0.23
   0  -2   2    8.73    0.23
   0  -2   2    8.22    0.26
   0  -2   2    8.44    0.25
   0  -2   2    8.73    0.35
   0  -2   2    8.60    0.25
   0  -2   2    7.60    0.35
  -1   2  -2    0.01    0.02
  -1   2  -2    0.15    0.03
  -1   2  -2    0.01    0.02
  -1   2  -2    0.03    0.02
   1  -2   2    0.01    0.01
   1  -2   2    0.01    0.02
   1  -2   2    0.01    0.01
   1  -2   2    0.01    0.02
   1  -2   2    0.02    0.02
  -2   2  -2   23.17    0.69
  -2   2  -2   22.84    0.66
  -2   2  -2   22.50    0.63
  -2   2  -2   22.88    0.93
  -2   2  -2   24.06    0.93
   2  -2   2   22.59    0.63
   2  -2   2   22.95    0.66
   2  -2   2   23.55    0.93
   2  -2   2   23.55    0.93
   2  -2   2   22.22    0.66
  -3   2  -2    5.26    0.18
  -3   2  -2    5.39    0.17
  -3   2  -2    5.49    0.17
  -3   2  -2    5.55    0.17
  -3   2  -2    5.47    0.19
  -3   2  -2    5.12    0.24
  -3   2  -2    5.43    0.24
   3  -2   2    5.28    0.17
   3  -2   2    5.28    0.25
   3  -2   2    5.56    0.17
   3  -2   2    5.36    0.17
   3  -2   2    5.84    0.25
  -4   2  -2   36.07    0.99
  -4   2  -2   36.46    1.12
  -4   2  -2   36.70    1.02
  -4   2  -2   36.93    1.08
  -4   2  -2   35.63    1.44
  -4   2  -2   33.47    1.44
   4  -2   2   36.20    1.44
   4  -2   2   37.34    1.02
   4  -2   2   36.22    1.01
   4  -2   2   36.66    1.02
   4  -2   2   33.40    1.44
   4  -2   2   36.38    0.98
  -5   2  -2   25.39    1.02
  -5   2  -2   23.72    1.02
  -5   2  -2   25.83    0.80
  -5   2  -2   25.30    0.72
  -5   2  -2   25.15    0.71
  -5   2  -2   25.01    0.76
   5  -2   2   26.66    1.02
   5  -2   2   24.64    0.72
   5  -2   2   24.84    0.70
   5  -2   2   24.88    0.72
   5  -2   2   25.33    0.72
  -6   2  -2    0.00    0.04
  -6   2  -2    0.02    0.04
  -6   2  -2    0.03    0.04
  -6   2  -2   -0.05    0.03
  -6   2  -2    0.05    0.04
   6  -2   2   -0.04    0.03
   6  -2   2    0.03    0.04
   6  -2   2    0.03    0.03
   6  -2   2    0.04    0.04
  -7   2  -2    2.64    0.15
  -7   2  -2    2.83    0.17
  -7   2  -2    2.58    0.11
  -7   2  -2    2.70    0.13
  -7   2  -2    2.70    0.16
   7  -2   2    2.74    0.13
   7  -2   2    2.93    0.16
   7  -2   2    2.73    0.11
  -8   2  -2    1.03    0.10
  -8   2  -2    1.09    0.07
  -8   2  -2    1.03    0.10
   8  -2   2    1.04    0.08
   8  -2   2    0.98    0.09
  -9   2  -2    1.63    0.15
  -9   2  -2    1.69    0.12
   9  -2   2    1.81    0.14
 -10   2  -2    0.04    0.07
  10  -2   2    0.02    0.07
  11   1  -2    1.01    0.10
  11   1  -2    1.19    0.11
  11   1  -2    1.03    0.10
  10   1  -2    0.40    0.07
  10   1  -2    0.45    0.07
  10   1  -2    0.40    0.06
  10   1  -2    0.47    0.07
   9   1  -2    0.45    0.04
   9   1  -2    0.47    0.06
   9   1  -2    0.44    0.07
   9   1  -2    0.41    0.05
   9   1  -2    0.43    0.06
   8   1  -2    0.20    0.03
   8   1  -2    0.15    0.04
   8   1  -2    0.16    0.05
   8   1  -2    0.16    0.05
   8   1  -2    0.12    0.05
   7   1  -2   22.44    0.61
   7   1  -2   22.09    0.64
   7   1  -2   21.73    0.63
   7   1  -2   21.72    0.65
   7   1  -2   21.30    0.68
   6   1  -2    0.35    0.04
   6   1  -2    0.57    0.05
   6   1  -2    0.50    0.04
   5   1  -2   13.27    0.44
   5   1  -2   13.22    0.40
   5   1  -2   13.93    0.42
   5   1  -2   13.39    0.39
   5   1  -2   13.34    0.38
   5   1  -2   13.42    0.40
   4   1  -2    1.93    0.08
   4   1  -2    1.88    0.07
   4   1  -2    1.90    0.07
   4   1  -2    1.92    0.07
   4   1  -2    1.71    0.08
  -4  -1   2    1.91    0.09
   3   1  -2    7.42    0.29
   3   1  -2    7.32    0.24
   3   1  -2    7.16    0.22
   3   1  -2    7.17    0.20
   3   1  -2    7.25    0.21
   3   1  -2    7.36    0.29
   3   1  -2    7.20    0.21
   3   1  -2    7.32    0.22
   3   1  -2    7.28    0.23
   3   1  -2    7.12    0.24
  -3  -1   2    6.63    0.29
  -3  -1   2    7.21    0.21
  -3  -1   2    7.14    0.22
  -3  -1   2    7.42    0.29
  -3  -1   2    7.35    0.22
   2   1  -2  348.26   13.51
   2   1  -2  350.56    9.96
   2   1  -2  342.44    9.16
   2   1  -2  336.97    9.56
   2   1  -2  342.32    9.56
   2   1  -2  342.85    9.34
   2   1  -2  339.32   13.52
   2   1  -2  338.98   10.26
   2   1  -2  349.50    9.54
   2   1  -2  332.01    9.92
   2   1  -2  340.48    9.46
  -2  -1   2  357.90   13.52
  -2  -1   2  341.01    9.54
  -2  -1   2  355.20   13.52
  -2  -1   2  334.61    9.56
  -2  -1   2  343.72    9.92
  -2  -1   2  342.31    9.96
   1   1  -2   61.85    1.79
   1   1  -2   65.44    2.44
   1   1  -2   63.56    1.69
   1   1  -2   63.10    1.72
   1   1  -2   62.39    1.85
   1   1  -2   62.28    2.44
   1   1  -2   63.29    1.72
   1   1  -2   63.43    1.65
   1   1  -2   64.20    1.73
  -1  -1   2   61.55    1.72
  -1  -1   2   61.93    1.72
  -1  -1   2   54.68    2.44
  -1  -1   2   62.89    1.85
  -1  -1   2   63.59    1.73
  -1  -1   2   54.09    2.44
  -1  -1   2   62.45    1.79
   0   1  -2   45.83    1.21
   0   1  -2   44.14    1.79
   0   1  -2   45.71    1.27
   0   1  -2   45.94    1.36
   0   1  -2   45.40    1.27
   0   1  -2   47.32    1.80
   0  -1   2   45.42    1.36
   0  -1   2   40.89    1.79
   0  -1   2   45.22    1.27
   0  -1   2   47.46    1.80
   0  -1   2   45.20    1.32
   0  -1   2   45.86    1.27
   0  -1   2   44.72    1.26
   0  -1   2   46.44    1.21
  -1   1  -2  132.91    3.74
  -1   1  -2  130.02    3.75
  -1   1  -2  148.92    5.33
  -1   1  -2  131.09    3.62
  -1   1  -2  134.32    4.04
  -1   1  -2  141.95    5.33
   1  -1   2  140.22    5.33
   1  -1   2  136.06    5.30
   1  -1   2  126.05    3.75
   1  -1   2  129.70    3.59
   1  -1   2  132.26    3.75
  -2   1  -2   47.20    2.14
  -2   1  -2   57.19    1.62
  -2   1  -2   57.02    1.46
  -2   1  -2   57.19    1.51
  -2   1  -2   52.01    2.14
   2  -1   2   50.91    2.14
   2  -1   2   56.43    1.52
   2  -1   2   56.18    1.51
   2  -1   2   46.10    2.14
   2  -1   2   56.36    1.50
   2  -1   2   56.67    1.46
   2  -1   2   56.81    1.62
  -3   1  -2   29.34    0.87
  -3   1  -2   29.13    0.83
  -3   1  -2   29.13    0.83
  -3   1  -2   29.41    1.18
  -3   1  -2   28.46    1.17
  -3   1  -2   29.46    0.91
  -3   1  -2   29.61    0.89
  -3   1  -2   29.28    0.80
   3  -1   2   29.49    0.83
   3  -1   2   29.41    0.83
   3  -1   2   29.50    0.80
   3  -1   2   29.06    1.18
   3  -1   2   29.77    0.89
   3  -1   2   29.00    0.82
   3  -1   2   29.98    1.18
  -4   1  -2   33.24    0.98
  -4   1  -2   31.76    1.01
  -4   1  -2   36.12    1.31
  -4   1  -2   32.78    0.92
  -4   1  -2   32.14    0.89
  -4   1  -2   29.54    1.30
   4  -1   2   31.94    0.91
   4  -1   2   32.66    0.89
   4  -1   2   34.48    1.30
   4  -1   2   32.56    0.92
   4  -1   2   31.02    1.30
   4  -1   2   32.50    0.98
  -5   1  -2    2.46    0.12
  -5   1  -2    2.38    0.11
  -5   1  -2    2.48    0.09
  -5   1  -2    2.60    0.14
  -5   1  -2    2.54    0.09
  -5   1  -2    2.58    0.13
   5  -1   2    2.37    0.10
   5  -1   2    2.63    0.14
   5  -1   2    2.49    0.09
   5  -1   2    2.48    0.09
   5  -1   2    2.55    0.10
   5  -1   2    2.55    0.14
  -6   1  -2    3.74    0.19
  -6   1  -2    3.97    0.19
  -6   1  -2    3.86    0.17
  -6   1  -2    3.90    0.13
  -6   1  -2    3.58    0.14
   6  -1   2    3.82    0.13
   6  -1   2    3.92    0.14
   6  -1   2    3.90    0.14
   6  -1   2    3.79    0.19
  -7   1  -2    1.15    0.11
  -7   1  -2    1.15    0.09
  -7   1  -2    0.99    0.06
  -7   1  -2    1.08    0.09
   7  -1   2    0.98    0.07
   7  -1   2    0.92    0.06
   7  -1   2    1.16    0.09
  -8   1  -2   12.81    0.53
  -8   1  -2   12.48    0.45
  -8   1  -2   12.68    0.38
   8  -1   2   12.50    0.38
   8  -1   2   12.53    0.40
   8  -1   2   12.96    0.40
  -9   1  -2    2.79    0.17
  -9   1  -2    2.54    0.14
   9  -1   2    2.64    0.14
 -10   1  -2    2.18    0.18
  10  -1   2    2.35    0.15
  10  -1   2    2.55    0.16
  11   0  -2    0.61    0.09
  11   0  -2    0.47    0.08
  11   0  -2    0.60    0.08
  10   0  -2    1.45    0.12
  10   0  -2    1.51    0.12
  10   0  -2    1.51    0.12
   9   0  -2    0.75    0.06
   9   0  -2    0.67    0.06
   9   0  -2    0.89    0.08
  -9   0   2    0.74    0.09
   8   0  -2    2.01    0.10
   8   0  -2    2.18    0.10
   8   0  -2    2.12    0.11
  -8   0   2    1.85    0.14
   7   0  -2   22.18    0.61
   7   0  -2   21.27    0.65
   7   0  -2   21.59    0.68
   7   0  -2   21.91    0.63
  -7   0   2   21.87    0.71
   6   0  -2   31.87    0.90
   6   0  -2   31.52    0.94
   6   0  -2   32.12    0.88
   6   0  -2   31.99    0.98
  -6   0   2   32.31    1.01
  -6   0   2   31.70    0.88
   5   0  -2    0.45    0.04
   5   0  -2    0.44    0.04
   5   0  -2    0.43    0.04
   5   0  -2    0.45    0.05
   5   0  -2    0.45    0.05
  -5   0   2    0.40    0.04
  -5   0   2    0.33    0.05
   4   0  -2    0.96    0.07
   4   0  -2    1.20    0.06
   4   0  -2    1.08    0.06
   4   0  -2    1.13    0.06
   4   0  -2    1.09    0.05
   4   0  -2    1.11    0.06
  -4   0   2    1.09    0.05
  -4   0   2    1.16    0.07
   3   0  -2   77.15    2.15
   3   0  -2   77.88    3.05
   3   0  -2   78.08    3.04
   3   0  -2   76.60    2.37
   3   0  -2   77.31    2.12
   3   0  -2   76.70    2.25
   3   0  -2   78.72    2.25
   3   0  -2   76.08    2.07
   3   0  -2   76.99    2.16
  -3   0   2   78.31    2.37
  -3   0   2   81.02    3.05
  -3   0   2   77.78    2.08
  -3   0   2   76.43    3.04
   2   0  -2   47.09    1.97
   2   0  -2   50.83    1.46
   2   0  -2   47.68    1.97
   2   0  -2   50.53    1.39
   2   0  -2   51.47    1.34
   2   0  -2   50.93    1.37
   2   0  -2   50.26    1.45
   2   0  -2   50.35    1.53
   2   0  -2   50.43    1.40
  -2   0   2   50.76    1.34
  -2   0   2   51.01    1.53
  -2   0   2   51.03    1.45
  -2   0   2   47.40    1.97
  -2   0   2   51.30    1.46
  -2   0   2   50.46    1.39
   1   0  -2   53.56    2.24
   1   0  -2   59.36    2.24
   1   0  -2   57.30    1.56
   1   0  -2   57.54    1.58
   1   0  -2   57.48    1.73
   1   0  -2   57.59    1.53
   1   0  -2   55.73    1.65
   1   0  -2   57.57    1.58
   1   0  -2   56.53    1.58
   1   0  -2   56.60    1.70
  -1   0   2   58.38    1.55
  -1   0   2   56.54    1.65
  -1   0   2   57.06    1.58
  -1   0   2   56.77    1.65
  -1   0   2   53.22    2.24
  -1   0   2   58.45    2.24
  -1   0   2   58.09    1.53
   0   0  -2  112.28    3.26
   0   0  -2  104.64    4.27
   0   0  -2  107.42    3.00
   0   0  -2  105.51    3.13
   0   0  -2  108.00    3.24
   0   0  -2  107.72    3.01
   0   0   2  122.27    4.29
   0   0   2  107.85    3.00
   0   0   2  108.72    3.23
   0   0   2  110.64    3.14
   0   0   2  100.17    4.26
   0   0   2  108.16    3.02
  -1   0  -2  672.03   19.78
  -1   0  -2  683.23   19.01
  -1   0  -2  767.67   26.95
  -1   0  -2  698.05   20.44
  -1   0  -2  584.63   26.91
   1   0   2  706.23   18.28
   1   0   2  673.84   19.78
   1   0   2  693.34   19.01
   1   0   2  675.02   18.87
   1   0   2  697.86   20.44
   1   0   2  687.68   26.94
  -2   0  -2  802.65   22.74
  -2   0  -2  814.86   22.79
  -2   0  -2  809.59   24.89
  -2   0  -2  854.63   32.23
  -2   0  -2  837.25   32.22
   2   0   2  822.70   32.21
   2   0   2  806.28   24.45
   2   0   2  822.59   23.67
   2   0   2  811.01   21.88
   2   0   2  802.10   22.75
   2   0   2  836.96   32.23
  -3   0  -2   77.04    2.92
  -3   0  -2   68.56    2.92
  -3   0  -2   73.19    2.06
  -3   0  -2   75.30    2.26
  -3   0  -2   76.47    2.22
  -3   0  -2   74.09    2.06
  -3   0  -2   73.49    2.15
  -3   0  -2   74.48    2.06
   3   0   2   73.86    2.06
   3   0   2   74.30    2.26
   3   0   2   73.62    1.99
   3   0   2   74.38    2.21
   3   0   2   73.80    2.06
   3   0   2   73.45    2.92
  -4   0  -2    3.55    0.11
  -4   0  -2    3.35    0.11
  -4   0  -2    3.41    0.12
  -4   0  -2    3.36    0.16
  -4   0  -2    3.37    0.13
  -4   0  -2    3.47    0.16
   4   0   2    3.39    0.11
   4   0   2    3.31    0.12
   4   0   2    3.53    0.16
   4   0   2    3.36    0.13
   4   0   2    3.15    0.16
   4   0   2    3.36    0.11
  -5   0  -2    3.29    0.16
  -5   0  -2    3.38    0.12
  -5   0  -2    3.28    0.11
  -5   0  -2    3.34    0.14
  -5   0  -2    3.29    0.11
  -5   0  -2    3.36    0.16
   5   0   2    3.39    0.16
   5   0   2    3.30    0.11
   5   0   2    3.45    0.16
   5   0   2    3.25    0.11
   5   0   2    3.19    0.12
   5   0   2    3.27    0.14
  -6   0  -2    0.25    0.03
  -6   0  -2    0.25    0.04
  -6   0  -2    0.22    0.04
  -6   0  -2    0.26    0.05
   6   0   2    0.35    0.04
   6   0   2    0.22    0.04
   6   0   2    0.32    0.04
   6   0   2    0.19    0.03
   6   0   2    0.29    0.04
   6   0   2    0.23    0.03
  -7   0  -2    3.39    0.17
  -7   0  -2    3.75    0.12
  -7   0  -2    3.78    0.18
  -7   0  -2    3.60    0.17
   7   0   2    3.63    0.13
   7   0   2    3.74    0.17
   7   0   2    3.52    0.14
  -8   0  -2    0.07    0.02
  -8   0  -2    0.00    0.04
  -8   0  -2    0.03    0.03
  -8   0  -2    0.06    0.05
   8   0   2   -0.12    0.03
   8   0   2    0.03    0.03
  -9   0  -2    0.95    0.09
  -9   0  -2    0.80    0.07
   9   0   2    0.84    0.09
   9   0   2    0.84    0.08
 -10   0  -2    2.40    0.17
  10   0   2    2.52    0.16
  10   0   2    2.58    0.16
 -11   0  -2    0.08    0.07
  11   0   2    0.10    0.07
  11   0   2    0.11    0.07
  10  -1  -2    0.20    0.07
  10  -1  -2    0.04    0.07
 -10   1   2    0.15    0.07
   9  -1  -2    0.23    0.05
   9  -1  -2    0.13    0.07
   9  -1  -2    0.15    0.06
  -9   1   2    0.10    0.06
   8  -1  -2    4.49    0.17
   8  -1  -2    4.54    0.18
   8  -1  -2    4.43    0.18
  -8   1   2    4.66    0.21
   7  -1  -2   27.51    0.85
   7  -1  -2   27.82    0.79
   7  -1  -2   27.82    0.83
  -7   1   2   27.50    0.78
  -7   1   2   27.82    0.89
   6  -1  -2    0.49    0.04
   6  -1  -2    0.40    0.05
   6  -1  -2    0.60    0.06
  -6   1   2    0.37    0.05
  -6   1   2    0.32    0.06
  -6   1   2    0.30    0.03
   5  -1  -2   46.22    1.30
   5  -1  -2   47.78    1.85
   5  -1  -2   47.42    1.27
   5  -1  -2   47.26    1.31
   5  -1  -2   47.56    1.85
   5  -1  -2   46.05    1.31
  -5   1   2   46.75    1.28
  -5   1   2   47.24    1.46
  -5   1   2   45.68    1.85
  -5   1   2   48.01    1.85
   4  -1  -2    1.91    0.08
   4  -1  -2    1.92    0.08
   4  -1  -2    1.98    0.09
   4  -1  -2    1.80    0.08
   4  -1  -2    1.94    0.09
   4  -1  -2    1.97    0.09
   4  -1  -2    2.00    0.08
   4  -1  -2    1.88    0.06
  -4   1   2    1.91    0.09
  -4   1   2    1.90    0.08
  -4   1   2    2.08    0.09
  -4   1   2    1.84    0.09
   3  -1  -2    1.17    0.07
   3  -1  -2    1.22    0.07
   3  -1  -2    1.16    0.06
   3  -1  -2    1.18    0.06
   3  -1  -2    1.25    0.06
   3  -1  -2    1.24    0.05
   3  -1  -2    1.19    0.04
  -3   1   2    1.21    0.05
  -3   1   2    1.25    0.07
  -3   1   2    1.12    0.07
   2  -1  -2    7.60    0.31
   2  -1  -2    7.48    0.22
   2  -1  -2    7.37    0.24
   2  -1  -2    7.45    0.22
   2  -1  -2    7.25    0.23
   2  -1  -2    7.59    0.23
   2  -1  -2    7.60    0.21
   2  -1  -2    7.62    0.22
  -2   1   2    7.57    0.30
  -2   1   2    7.31    0.22
  -2   1   2    7.49    0.31
  -2   1   2    7.38    0.21
  -2   1   2    7.28    0.24
   1  -1  -2   51.44    1.36
   1  -1  -2   50.23    1.38
   1  -1  -2   51.31    1.40
   1  -1  -2   50.92    1.41
   1  -1  -2   47.88    2.00
   1  -1  -2   49.83    1.47
   1  -1  -2   51.27    2.00
   1  -1  -2   51.08    1.47
   1  -1  -2   52.27    1.52
  -1   1   2   51.90    1.54
  -1   1   2   49.64    2.00
  -1   1   2   48.33    2.00
  -1   1   2   51.71    1.36
  -1   1   2   51.38    1.47
  -1   1   2   51.42    1.47
  -1   1   2   51.52    1.38
   0  -1  -2   97.45    2.83
   0  -1  -2   98.77    2.71
   0  -1  -2   90.71    3.85
   0  -1  -2   99.30    2.72
   0  -1  -2  103.54    3.85
   0  -1  -2  101.99    2.92
   0   1   2  102.77    3.85
   0   1   2   99.23    2.72
   0   1   2   85.96    3.85
   0   1   2  100.33    2.72
   0   1   2   98.39    2.93
  -1  -1  -2  353.33   12.28
  -1  -1  -2  321.26   12.26
  -1  -1  -2  296.16    8.64
  -1  -1  -2  302.64    9.23
  -1  -1  -2  311.09    9.31
  -1  -1  -2  292.18    9.00
  -1  -1  -2  297.25    8.58
   1   1   2  294.15    8.59
   1   1   2  298.25    8.65
   1   1   2  309.28    9.43
   1   1   2  337.64   12.28
   1   1   2  327.71   12.27
   1   1   2  302.61    9.31
  -2  -1  -2  197.69    5.43
  -2  -1  -2  192.63    5.38
  -2  -1  -2  206.97    7.72
  -2  -1  -2  195.49    5.95
  -2  -1  -2  192.91    5.64
  -2  -1  -2  195.45    5.85
   2   1   2  194.39    5.87
   2   1   2  193.49    5.37
   2   1   2  177.39    7.67
   2   1   2  202.14    5.93
   2   1   2  196.31    5.65
   2   1   2  195.64    5.43
  -3  -1  -2   72.24    2.08
  -3  -1  -2   66.95    2.74
  -3  -1  -2   70.37    1.93
  -3  -1  -2   70.60    1.93
  -3  -1  -2   70.71    2.12
  -3  -1  -2   66.18    2.74
   3   1   2   69.59    1.93
   3   1   2   71.90    2.12
   3   1   2   70.16    1.93
   3   1   2   62.35    2.74
   3   1   2   68.55    2.74
   3   1   2   71.74    2.08
   3   1   2   71.96    2.01
  -4  -1  -2    1.23    0.06
  -4  -1  -2    1.15    0.06
  -4  -1  -2    1.28    0.07
  -4  -1  -2    1.23    0.07
  -4  -1  -2    1.16    0.05
  -4  -1  -2    1.19    0.08
   4   1   2    1.22    0.08
   4   1   2    1.27    0.06
   4   1   2    1.20    0.07
   4   1   2    1.16    0.05
   4   1   2    1.14    0.05
   4   1   2    1.23    0.06
   4   1   2    1.23    0.06
   4   1   2    1.17    0.06
  -5  -1  -2   10.01    0.34
  -5  -1  -2   10.33    0.30
  -5  -1  -2   10.35    0.43
  -5  -1  -2   10.24    0.31
  -5  -1  -2   10.30    0.43
  -5  -1  -2   10.39    0.30
  -5  -1  -2   10.38    0.33
   5   1   2   10.61    0.43
   5   1   2    9.98    0.30
   5   1   2   10.53    0.34
   5   1   2   10.38    0.33
   5   1   2   10.18    0.32
   5   1   2   10.60    0.43
   5   1   2   10.38    0.31
  -6  -1  -2   16.22    0.51
  -6  -1  -2   16.29    0.47
  -6  -1  -2   16.23    0.66
  -6  -1  -2   16.42    0.47
  -6  -1  -2   16.09    0.48
  -6  -1  -2   17.13    0.67
  -6  -1  -2   15.99    0.54
   6   1   2   16.41    0.66
   6   1   2   16.22    0.49
   6   1   2   16.09    0.48
   6   1   2   15.96    0.47
   6   1   2   16.30    0.51
   6   1   2   16.97    0.66
  -7  -1  -2    0.20    0.03
  -7  -1  -2    0.17    0.04
  -7  -1  -2    0.08    0.04
   7   1   2    0.16    0.02
   7   1   2    0.24    0.04
   7   1   2    0.13    0.04
   7   1   2    0.16    0.03
   7   1   2    0.15    0.04
  -8  -1  -2    2.02    0.13
  -8  -1  -2    2.00    0.07
  -8  -1  -2    1.82    0.10
  -8  -1  -2    1.87    0.11
   8   1   2    1.93    0.12
   8   1   2    1.90    0.08
   8   1   2    1.87    0.10
   8   1   2    1.95    0.10
  -9  -1  -2    2.35    0.16
  -9  -1  -2    2.24    0.11
   9   1   2    2.36    0.12
   9   1   2    2.12    0.14
 -10  -1  -2    2.21    0.16
  10   1   2    2.29    0.15
  10   1   2    2.29    0.13
  11   1   2    0.18    0.08
  11   1   2    0.20    0.07
  10  -2  -2    1.03    0.10
  10  -2  -2    1.25    0.12
 -10   2   2    1.12    0.12
   9  -2  -2    0.34    0.06
   9  -2  -2    0.36    0.08
   9  -2  -2    0.20    0.07
  -9   2   2    0.21    0.07
   8  -2  -2   -0.02    0.05
   8  -2  -2    0.05    0.06
   8  -2  -2    0.09    0.06
  -8   2   2    0.12    0.06
  -8   2   2    0.07    0.05
   7  -2  -2    2.85    0.14
   7  -2  -2    2.68    0.13
   7  -2  -2    2.75    0.10
   7  -2  -2    2.71    0.09
  -7   2   2    2.79    0.13
  -7   2   2    2.88    0.13
  -7   2   2    2.85    0.16
  -7   2   2    2.65    0.13
   6  -2  -2   42.70    1.21
   6  -2  -2   44.32    1.71
   6  -2  -2   42.53    1.21
   6  -2  -2   42.86    1.30
   6  -2  -2   42.91    1.21
   6  -2  -2   43.37    1.71
  -6   2   2   42.61    1.19
  -6   2   2   43.83    1.71
  -6   2   2   42.94    1.71
  -6   2   2   43.82    1.36
   5  -2  -2    0.53    0.03
   5  -2  -2    0.39    0.05
   5  -2  -2    0.33    0.04
   5  -2  -2    0.36    0.04
   5  -2  -2    0.33    0.03
   5  -2  -2    0.32    0.04
  -5   2   2    0.28    0.04
  -5   2   2    0.35    0.04
  -5   2   2    0.16    0.05
   4  -2  -2   11.11    0.35
   4  -2  -2   11.31    0.33
   4  -2  -2   11.41    0.46
   4  -2  -2   11.38    0.33
   4  -2  -2   11.73    0.46
   4  -2  -2   11.18    0.34
  -4   2   2   10.98    0.38
  -4   2   2   11.61    0.46
  -4   2   2   10.91    0.33
  -4   2   2   11.43    0.47
   3  -2  -2    2.44    0.11
   3  -2  -2    2.33    0.11
   3  -2  -2    2.30    0.08
   3  -2  -2    2.31    0.08
   3  -2  -2    2.22    0.09
   3  -2  -2    2.42    0.08
  -3   2   2    2.31    0.10
  -3   2   2    2.18    0.09
  -3   2   2    2.22    0.11
  -3   2   2    2.36    0.08
  -3   2   2    2.29    0.11
   2  -2  -2    0.96    0.05
   2  -2  -2    0.94    0.06
   2  -2  -2    0.91    0.04
   2  -2  -2    0.95    0.05
   2  -2  -2    0.93    0.04
   2  -2  -2    0.99    0.07
   2  -2  -2    0.84    0.05
  -2   2   2    0.93    0.05
  -2   2   2    0.96    0.05
  -2   2   2    1.08    0.07
  -2   2   2    0.94    0.06
  -2   2   2    0.89    0.05
   1  -2  -2  330.66    9.92
   1  -2  -2  327.15    9.17
   1  -2  -2  359.88   13.10
   1  -2  -2  331.39    8.89
   1  -2  -2  328.55    9.06
   1  -2  -2  352.27   13.10
   1  -2  -2  323.42    9.26
   1  -2  -2  326.82    9.60
   1  -2  -2  323.92    9.62
  -1   2   2  323.10   13.09
  -1   2   2  333.38    9.92
  -1   2   2  323.10   13.08
  -1   2   2  334.37    8.89
  -1   2   2  328.79    9.06
   0  -2  -2    2.49    0.08
   0  -2  -2    2.46    0.08
   0  -2  -2    2.53    0.12
   0  -2  -2    2.46    0.09
   0  -2  -2    2.44    0.09
   0  -2  -2    2.55    0.12
   0   2   2    2.41    0.08
   0   2   2    2.37    0.12
   0   2   2    2.45    0.08
   0   2   2    2.48    0.08
   0   2   2    2.60    0.12
   0   2   2    2.47    0.09
  -1  -2  -2   26.98    0.75
  -1  -2  -2   26.39    0.76
  -1  -2  -2   28.32    0.82
  -1  -2  -2   25.88    1.07
  -1  -2  -2   26.69    0.79
   1   2   2   26.98    0.79
   1   2   2   26.68    1.07
   1   2   2   26.98    0.75
   1   2   2   26.72    0.81
   1   2   2   28.20    1.08
  -2  -2  -2  158.18    4.81
  -2  -2  -2  160.24    6.38
  -2  -2  -2  156.28    4.48
  -2  -2  -2  182.34    6.39
  -2  -2  -2  155.19    4.68
  -2  -2  -2  158.40    4.45
   2   2   2  177.06    6.40
   2   2   2  156.22    4.45
   2   2   2  160.33    4.68
   2   2   2  155.43    4.83
   2   2   2  160.13    6.38
  -3  -2  -2    4.24    0.20
  -3  -2  -2    4.52    0.14
  -3  -2  -2    4.40    0.20
  -3  -2  -2    4.40    0.14
  -3  -2  -2    4.60    0.14
  -3  -2  -2    4.70    0.15
   3   2   2    4.55    0.14
   3   2   2    4.59    0.14
   3   2   2    4.53    0.14
   3   2   2    4.77    0.20
   3   2   2    4.42    0.16
   3   2   2    4.61    0.15
   3   2   2    4.45    0.15
   3   2   2    4.71    0.20
  -4  -2  -2   10.85    0.32
  -4  -2  -2   10.24    0.45
  -4  -2  -2   11.08    0.35
  -4  -2  -2   11.18    0.45
  -4  -2  -2   11.12    0.32
   4   2   2   11.00    0.33
   4   2   2   11.63    0.45
   4   2   2   11.12    0.33
   4   2   2   10.91    0.45
   4   2   2   10.91    0.35
   4   2   2   10.93    0.32
   4   2   2   10.88    0.34
   4   2   2   11.13    0.33
   4   2   2   11.11    0.36
  -5  -2  -2   50.82    1.50
  -5  -2  -2   49.21    1.39
  -5  -2  -2   48.57    1.97
  -5  -2  -2   49.86    1.97
  -5  -2  -2   49.08    1.40
   5   2   2   48.83    1.39
   5   2   2   51.42    1.97
   5   2   2   48.90    1.50
   5   2   2   48.98    1.39
   5   2   2   49.90    1.44
   5   2   2   50.79    1.97
   5   2   2   49.97    1.53
   5   2   2   50.00    1.35
   5   2   2   49.31    1.45
  -6  -2  -2    0.16    0.03
  -6  -2  -2    0.17    0.04
  -6  -2  -2    0.17    0.04
  -6  -2  -2    0.20    0.02
  -6  -2  -2    0.14    0.03
   6   2   2    0.20    0.03
   6   2   2    0.17    0.03
   6   2   2    0.24    0.03
   6   2   2    0.25    0.04
   6   2   2    0.18    0.04
   6   2   2    0.16    0.04
   6   2   2    0.12    0.04
  -7  -2  -2    4.14    0.13
  -7  -2  -2    4.26    0.15
  -7  -2  -2    4.05    0.13
  -7  -2  -2    4.12    0.19
   7   2   2    4.12    0.15
   7   2   2    4.04    0.19
   7   2   2    4.21    0.19
   7   2   2    4.13    0.16
   7   2   2    4.08    0.16
   7   2   2    4.10    0.14
  -8  -2  -2   -0.01    0.04
  -8  -2  -2   -0.01    0.03
  -8  -2  -2    0.01    0.02
  -8  -2  -2    0.00    0.03
   8   2   2   -0.01    0.04
   8   2   2    0.00    0.03
   8   2   2    0.00    0.03
   8   2   2    0.02    0.03
   8   2   2   -0.01    0.04
  -9  -2  -2   13.74    0.58
   9   2   2   14.40    0.47
   9   2   2   14.73    0.46
   9   2   2   14.87    0.47
  10   2   2    0.73    0.07
  10   2   2    0.80    0.09
  10   2   2    0.75    0.07
  11   2   2    0.26    0.08
   9  -3  -2   -0.05    0.05
   9  -3  -2   -0.01    0.06
  -9   3   2    0.06    0.06
  -9   3   2   -0.07    0.06
   8  -3  -2    0.50    0.08
   8  -3  -2    0.45    0.07
  -8   3   2    0.46    0.07
  -8   3   2    0.48    0.05
  -8   3   2    0.47    0.08
   7  -3  -2    0.48    0.07
   7  -3  -2    0.69    0.05
   7  -3  -2    0.51    0.08
  -7   3   2    0.58    0.07
  -7   3   2    0.60    0.06
  -7   3   2    0.54    0.07
   6  -3  -2    0.39    0.03
   6  -3  -2    0.31    0.06
   6  -3  -2    0.27    0.05
   6  -3  -2    0.34    0.06
   6  -3  -2    0.40    0.03
  -6   3   2    0.33    0.05
  -6   3   2    0.33    0.05
  -6   3   2    0.18    0.06
  -6   3   2    0.34    0.05
   5  -3  -2    5.01    0.16
   5  -3  -2    4.97    0.18
   5  -3  -2    4.98    0.23
   5  -3  -2    4.93    0.17
   5  -3  -2    4.98    0.19
  -5   3   2    5.00    0.23
  -5   3   2    4.92    0.17
  -5   3   2    4.65    0.23
  -5   3   2    4.74    0.20
   4  -3  -2   11.36    0.34
   4  -3  -2   11.56    0.35
   4  -3  -2   11.31    0.35
   4  -3  -2   11.45    0.34
   4  -3  -2   11.62    0.34
   4  -3  -2   11.39    0.48
   4  -3  -2   12.09    0.48
  -4   3   2   11.61    0.39
  -4   3   2   11.50    0.48
  -4   3   2   11.28    0.34
  -4   3   2   11.80    0.48
   3  -3  -2    0.22    0.02
   3  -3  -2    0.13    0.03
   3  -3  -2    0.22    0.02
   3  -3  -2    0.17    0.04
   3  -3  -2    0.15    0.03
  -3   3   2    0.12    0.03
  -3   3   2    0.20    0.03
  -3   3   2    0.16    0.03
  -3   3   2    0.20    0.03
  -3   3   2    0.15    0.04
   2  -3  -2   59.09    1.59
   2  -3  -2   59.11    1.65
   2  -3  -2   56.36    2.33
   2  -3  -2   58.16    1.62
   2  -3  -2   59.15    1.76
   2  -3  -2   59.28    2.33
  -2   3   2   58.52    1.65
  -2   3   2   60.01    1.62
  -2   3   2   60.15    2.33
  -2   3   2   59.99    2.33
  -2   3   2   58.08    1.59
   1  -3  -2    2.13    0.07
   1  -3  -2    2.05    0.08
   1  -3  -2    2.13    0.08
   1  -3  -2    1.92    0.11
   1  -3  -2    2.05    0.08
   1  -3  -2    2.06    0.11
   1  -3  -2    2.04    0.08
  -1   3   2    1.94    0.11
  -1   3   2    2.12    0.08
  -1   3   2    2.45    0.08
  -1   3   2    2.25    0.11
  -1   3   2    2.20    0.08
   0  -3  -2    9.28    0.25
   0  -3  -2    7.62    0.35
   0  -3  -2    8.01    0.23
   0  -3  -2    8.15    0.26
   0  -3  -2    7.82    0.25
   0  -3  -2    7.88    0.24
   0  -3  -2    8.25    0.24
   0  -3  -2    8.62    0.35
   0   3   2    8.18    0.24
   0   3   2    8.89    0.35
   0   3   2    8.25    0.26
   0   3   2    8.01    0.23
   0   3   2    8.02    0.24
   0   3   2    8.13    0.35
  -1  -3  -2  324.68    9.49
  -1  -3  -2  358.19   13.57
  -1  -3  -2  335.03   10.28
  -1  -3  -2  344.76   13.58
  -1  -3  -2  327.91    9.94
  -1  -3  -2  335.20    9.57
   1   3   2  369.01   13.56
   1   3   2  381.90   13.61
   1   3   2  327.77    9.50
   1   3   2  330.48   10.28
  -2  -3  -2   99.06    3.71
  -2  -3  -2   94.88    2.81
  -2  -3  -2   91.15    2.60
  -2  -3  -2   92.19    3.70
  -2  -3  -2   93.42    2.72
   2   3   2   94.88    2.72
   2   3   2   94.60    2.81
   2   3   2   92.46    2.60
   2   3   2   97.57    3.70
   2   3   2   89.58    3.70
   2   3   2   94.82    2.71
  -3  -3  -2    2.68    0.09
  -3  -3  -2    2.69    0.09
  -3  -3  -2    2.96    0.13
  -3  -3  -2    2.72    0.09
  -3  -3  -2    2.65    0.10
  -3  -3  -2    2.84    0.11
  -3  -3  -2    2.68    0.14
   3   3   2    2.58    0.14
   3   3   2    2.83    0.09
   3   3   2    2.78    0.11
   3   3   2    2.95    0.13
  -4  -3  -2   16.67    0.48
  -4  -3  -2   16.47    0.48
  -4  -3  -2   16.32    0.68
  -4  -3  -2   16.62    0.49
  -4  -3  -2   16.27    0.68
  -4  -3  -2   17.22    0.52
   4   3   2   16.57    0.53
   4   3   2   16.66    0.52
   4   3   2   17.11    0.68
   4   3   2   16.36    0.50
   4   3   2   16.69    0.48
   4   3   2   17.30    0.68
   4   3   2   16.66    0.49
  -5  -3  -2    1.65    0.08
  -5  -3  -2    1.56    0.07
  -5  -3  -2    1.46    0.09
  -5  -3  -2    1.61    0.09
  -5  -3  -2    1.56    0.08
   5   3   2    1.63    0.08
   5   3   2    1.48    0.08
   5   3   2    1.55    0.07
   5   3   2    1.56    0.08
   5   3   2    1.69    0.10
   5   3   2    1.67    0.06
   5   3   2    1.70    0.09
  -6  -3  -2    1.00    0.08
  -6  -3  -2    0.97    0.07
  -6  -3  -2    0.99    0.05
  -6  -3  -2    0.97    0.07
  -6  -3  -2    0.99    0.06
   6   3   2    0.94    0.05
   6   3   2    1.03    0.08
   6   3   2    0.98    0.06
   6   3   2    0.86    0.07
   6   3   2    0.98    0.07
   6   3   2    1.09    0.07
  -7  -3  -2    0.34    0.03
  -7  -3  -2    0.28    0.05
  -7  -3  -2    0.32    0.04
   7   3   2    0.32    0.04
   7   3   2    0.39    0.05
   7   3   2    0.38    0.05
   7   3   2    0.37    0.04
   7   3   2    0.34    0.04
   7   3   2    0.34    0.03
   7   3   2    0.34    0.04
   7   3   2    0.30    0.04
  -8  -3  -2    7.02    0.21
  -8  -3  -2    6.99    0.30
  -8  -3  -2    6.98    0.24
  -8  -3  -2    6.87    0.21
  -8  -3  -2    6.68    0.21
   8   3   2    6.89    0.25
   8   3   2    7.16    0.30
   8   3   2    6.81    0.24
   8   3   2    6.91    0.24
   8   3   2    6.84    0.22
   8   3   2    6.94    0.29
   8   3   2    7.05    0.24
  -9  -3  -2    0.70    0.06
  -9  -3  -2    0.88    0.06
  -9  -3  -2    0.94    0.04
  -9  -3  -2    0.93    0.08
   9   3   2    0.95    0.08
   9   3   2    0.68    0.07
   9   3   2    0.83    0.06
   9   3   2    0.79    0.08
  10   3   2   12.07    0.39
  10   3   2   11.43    0.39
  10   3   2   11.51    0.40
  11   3   2    0.04    0.05
  11   3   2   -0.05    0.07
   9  -4  -2    1.53    0.14
   9  -4  -2    1.84    0.14
  -9   4   2    1.86    0.17
   8  -4  -2    0.14    0.06
  -8   4   2    0.16    0.07
  -8   4   2    0.24    0.06
  -8   4   2    0.22    0.05
   7  -4  -2    1.82    0.12
   7  -4  -2    2.07    0.09
  -7   4   2    1.83    0.12
  -7   4   2    1.80    0.13
  -7   4   2    1.69    0.11
   6  -4  -2   -0.03    0.05
   6  -4  -2    0.02    0.04
   6  -4  -2    0.05    0.05
   6  -4  -2    0.07    0.03
  -6   4   2    0.04    0.04
  -6   4   2   -0.05    0.05
  -6   4   2    0.02    0.04
   5  -4  -2    1.07    0.06
   5  -4  -2    0.76    0.08
   5  -4  -2    0.88    0.09
   5  -4  -2    0.80    0.07
  -5   4   2    0.81    0.08
  -5   4   2    0.92    0.08
  -5   4   2    0.95    0.08
  -5   4   2    0.84    0.09
   4  -4  -2   39.49    1.07
   4  -4  -2   38.96    1.57
   4  -4  -2   38.39    1.17
   4  -4  -2   39.13    1.11
   4  -4  -2   39.09    1.09
  -4   4   2   39.07    1.22
  -4   4   2   38.61    1.07
  -4   4   2   39.52    1.57
  -4   4   2   39.11    1.11
   3  -4  -2    7.03    0.32
   3  -4  -2    7.47    0.23
   3  -4  -2    7.15    0.25
   3  -4  -2    7.48    0.22
   3  -4  -2    7.08    0.23
   3  -4  -2    7.67    0.32
  -3   4   2    7.68    0.23
  -3   4   2    7.47    0.23
  -3   4   2    7.45    0.26
  -3   4   2    7.36    0.32
  -3   4   2    6.03    0.32
   2  -4  -2    0.07    0.02
   2  -4  -2    0.09    0.01
   2  -4  -2    0.07    0.03
   2  -4  -2    0.09    0.03
   2  -4  -2    0.06    0.04
   2  -4  -2    0.11    0.02
   2  -4  -2    0.13    0.03
  -2   4   2    0.06    0.02
  -2   4   2    0.08    0.02
  -2   4   2    0.08    0.03
  -2   4   2    0.09    0.03
  -2   4   2    0.05    0.02
   1  -4  -2    8.22    0.25
   1  -4  -2    8.34    0.24
   1  -4  -2    8.28    0.26
   1  -4  -2    8.95    0.36
   1  -4  -2    7.67    0.35
   1  -4  -2    8.61    0.25
   1  -4  -2    8.28    0.25
  -1   4   2    8.09    0.36
  -1   4   2    8.31    0.25
  -1   4   2    7.90    0.35
  -1   4   2    8.44    0.25
  -1   4   2    8.07    0.24
  -1   4   2    8.33    0.26
   0  -4  -2    0.37    0.03
   0  -4  -2    0.40    0.03
   0  -4  -2    0.30    0.05
   0  -4  -2    0.32    0.03
   0  -4  -2    0.38    0.05
   0  -4  -2    0.33    0.03
   0   4   2    0.35    0.03
   0   4   2    0.31    0.05
   0   4   2    0.41    0.03
   0   4   2    0.33    0.03
   0   4   2    0.34    0.03
   0   4   2    0.29    0.03
   0   4   2    0.39    0.04
  -1  -4  -2   18.06    0.54
  -1  -4  -2   18.27    0.52
  -1  -4  -2   18.30    0.52
  -1  -4  -2   15.79    0.74
  -1  -4  -2   18.34    0.56
  -1  -4  -2   19.16    0.74
   1   4   2   18.44    0.56
   1   4   2   18.23    0.50
   1   4   2   18.45    0.51
   1   4   2   19.67    0.74
   1   4   2   18.30    0.52
   1   4   2   16.71    0.74
  -2  -4  -2   34.94    1.02
  -2  -4  -2   35.55    1.06
  -2  -4  -2   31.90    1.39
  -2  -4  -2   36.18    1.40
  -2  -4  -2   34.64    0.99
  -2  -4  -2   34.99    0.98
   2   4   2   35.13    0.98
   2   4   2   34.70    1.01
   2   4   2   36.38    1.40
   2   4   2   34.55    1.06
   2   4   2   34.66    1.39
  -3  -4  -2   20.31    0.60
  -3  -4  -2   20.21    0.58
  -3  -4  -2   20.63    0.58
  -3  -4  -2   21.60    0.82
  -3  -4  -2   19.99    0.63
  -3  -4  -2   20.42    0.61
  -3  -4  -2   20.03    0.82
   3   4   2   20.23    0.58
   3   4   2   18.85    0.82
   3   4   2   20.46    0.59
   3   4   2   19.81    0.63
   3   4   2   20.54    0.82
  -4  -4  -2   62.24    1.84
  -4  -4  -2   64.15    1.78
  -4  -4  -2   63.48    1.89
  -4  -4  -2   61.93    2.51
  -4  -4  -2   68.73    2.51
  -4  -4  -2   62.65    1.91
  -4  -4  -2   62.37    1.77
   4   4   2   64.15    1.92
   4   4   2   62.14    1.77
   4   4   2   63.50    1.84
   4   4   2   64.46    2.51
   4   4   2   61.84    2.51
  -5  -4  -2   13.34    0.39
  -5  -4  -2   12.75    0.39
  -5  -4  -2   12.70    0.55
  -5  -4  -2   14.26    0.55
  -5  -4  -2   12.94    0.42
  -5  -4  -2   13.60    0.40
  -5  -4  -2   13.06    0.38
   5   4   2   13.25    0.40
   5   4   2   13.28    0.39
   5   4   2   13.40    0.43
   5   4   2   13.13    0.43
   5   4   2   12.70    0.55
   5   4   2   13.53    0.54
   5   4   2   12.68    0.41
   5   4   2   13.17    0.39
  -6  -4  -2    2.55    0.14
  -6  -4  -2    2.71    0.13
  -6  -4  -2    2.45    0.11
  -6  -4  -2    2.56    0.09
   6   4   2    2.64    0.13
   6   4   2    2.47    0.12
   6   4   2    2.43    0.11
   6   4   2    2.66    0.14
   6   4   2    2.45    0.11
   6   4   2    2.54    0.10
   6   4   2    2.51    0.08
  -7  -4  -2    0.27    0.05
  -7  -4  -2    0.28    0.04
  -7  -4  -2    0.23    0.03
  -7  -4  -2    0.24    0.03
  -7  -4  -2    0.28    0.05
   7   4   2    0.21    0.03
   7   4   2    0.27    0.04
   7   4   2    0.24    0.05
   7   4   2    0.30    0.05
   7   4   2    0.18    0.05
  -8  -4  -2    3.29    0.11
  -8  -4  -2    3.18    0.11
  -8  -4  -2    3.42    0.16
  -8  -4  -2    3.27    0.16
  -8  -4  -2    3.27    0.15
   8   4   2    3.45    0.16
   8   4   2    3.40    0.13
   8   4   2    3.14    0.15
   8   4   2    3.43    0.15
  -9  -4  -2    5.93    0.25
  -9  -4  -2    5.51    0.25
  -9  -4  -2    5.89    0.18
  -9  -4  -2    5.78    0.22
   9   4   2    5.95    0.23
   9   4   2    6.03    0.21
   9   4   2    6.01    0.21
   9   4   2    6.08    0.23
 -10  -4  -2    8.92    0.31
  10   4   2    8.67    0.32
  10   4   2    8.29    0.30
  10   4   2    8.88    0.31
  10   4   2    8.56    0.30
 -11  -4  -2    1.00    0.10
  11   4   2    1.02    0.10
  11   4   2    1.04    0.10
  12   4   2    3.98    0.20
   8  -5  -2    0.05    0.06
  -8   5   2    0.13    0.07
  -8   5   2    0.11    0.06
   7  -5  -2    0.70    0.08
  -7   5   2    0.70    0.08
  -7   5   2    0.67    0.09
  -7   5   2    0.77    0.09
   6  -5  -2    0.12    0.04
   6  -5  -2    0.09    0.05
  -6   5   2    0.06    0.05
  -6   5   2    0.12    0.05
  -6   5   2    0.11    0.06
   5  -5  -2    1.74    0.11
   5  -5  -2    1.74    0.13
  -5   5   2    1.79    0.13
  -5   5   2    1.80    0.12
  -5   5   2    1.72    0.10
  -5   5   2    1.82    0.13
   4  -5  -2    0.23    0.05
   4  -5  -2    0.16    0.05
  -4   5   2    0.21    0.05
  -4   5   2    0.20    0.05
  -4   5   2    0.28    0.04
  -4   5   2    0.19    0.05
  -4   5   2    0.25    0.04
   3  -5  -2    3.53    0.14
   3  -5  -2    3.66    0.19
  -3   5   2    3.55    0.14
  -3   5   2    3.41    0.19
  -3   5   2    3.72    0.19
  -3   5   2    3.41    0.13
   2  -5  -2   82.36    2.17
   2  -5  -2   80.70    2.21
   2  -5  -2   79.64    2.26
   2  -5  -2   80.62    3.20
  -2   5   2   75.38    3.20
  -2   5   2   80.96    2.17
  -2   5   2   83.78    3.20
  -2   5   2   80.91    2.26
   1  -5  -2    0.27    0.03
   1  -5  -2    0.35    0.03
   1  -5  -2    0.22    0.05
   1  -5  -2    0.23    0.04
   1  -5  -2    0.20    0.03
   1  -5  -2    0.27    0.03
  -1   5   2    0.26    0.02
  -1   5   2    0.25    0.03
  -1   5   2    0.26    0.03
  -1   5   2    0.23    0.03
  -1   5   2    0.17    0.04
  -1   5   2    0.23    0.04
   0  -5  -2   12.99    0.41
   0  -5  -2   13.32    0.56
   0  -5  -2   13.51    0.40
   0  -5  -2   12.87    0.38
   0  -5  -2   12.83    0.39
   0  -5  -2   14.62    0.56
   0   5   2   14.23    0.56
   0   5   2   12.89    0.41
   0   5   2   13.66    0.56
   0   5   2   13.25    0.38
   0   5   2   12.55    0.40
   0   5   2   13.12    0.38
  -1  -5  -2   19.89    0.83
  -1  -5  -2   19.61    0.58
  -1  -5  -2   20.02    0.62
  -1  -5  -2   20.47    0.58
  -1  -5  -2   19.98    0.83
   1   5   2   20.50    0.83
   1   5   2   20.00    0.58
   1   5   2   21.26    0.83
   1   5   2   19.99    0.56
   1   5   2   20.05    0.62
   1   5   2   19.95    0.59
   1   5   2   20.27    0.57
  -2  -5  -2    0.62    0.06
  -2  -5  -2    0.79    0.09
  -2  -5  -2    0.61    0.06
  -2  -5  -2    0.76    0.06
  -2  -5  -2    0.84    0.08
  -2  -5  -2    0.80    0.05
   2   5   2    0.70    0.04
   2   5   2    0.78    0.05
   2   5   2    0.78    0.08
   2   5   2    0.77    0.06
   2   5   2    0.57    0.07
   2   5   2    0.73    0.06
  -3  -5  -2  415.90   16.49
  -3  -5  -2  419.43   11.63
  -3  -5  -2  414.50   12.06
  -3  -5  -2  413.73   12.43
  -3  -5  -2  428.55   12.51
  -3  -5  -2  414.67   11.52
  -3  -5  -2  407.42   16.41
   3   5   2  408.52   12.54
   3   5   2  464.11   16.53
   3   5   2  420.83   11.54
   3   5   2  382.59   16.41
  -4  -5  -2    3.77    0.15
  -4  -5  -2    3.72    0.19
  -4  -5  -2    4.07    0.14
  -4  -5  -2    3.84    0.13
  -4  -5  -2    3.71    0.14
  -4  -5  -2    4.01    0.13
  -4  -5  -2    3.83    0.19
   4   5   2    3.99    0.19
   4   5   2    3.67    0.19
   4   5   2    3.74    0.14
   4   5   2    3.97    0.15
   4   5   2    4.05    0.13
  -5  -5  -2    3.87    0.19
  -5  -5  -2    3.85    0.14
  -5  -5  -2    3.82    0.12
  -5  -5  -2    3.90    0.19
  -5  -5  -2    4.02    0.13
  -5  -5  -2    4.03    0.14
  -5  -5  -2    4.01    0.15
   5   5   2    4.04    0.16
   5   5   2    3.84    0.14
   5   5   2    3.86    0.19
   5   5   2    3.91    0.14
   5   5   2    3.69    0.19
  -6  -5  -2    1.46    0.09
  -6  -5  -2    1.46    0.07
  -6  -5  -2    1.40    0.07
  -6  -5  -2    1.41    0.10
  -6  -5  -2    1.65    0.10
   6   5   2    1.50    0.11
   6   5   2    1.35    0.07
   6   5   2    1.39    0.08
   6   5   2    1.49    0.08
   6   5   2    1.34    0.09
  -7  -5  -2    5.89    0.19
  -7  -5  -2    6.00    0.20
  -7  -5  -2    6.10    0.22
  -7  -5  -2    6.08    0.28
  -7  -5  -2    5.95    0.27
   7   5   2    6.10    0.23
   7   5   2    6.14    0.21
   7   5   2    6.37    0.28
   7   5   2    6.16    0.21
  -8  -5  -2    0.14    0.03
  -8  -5  -2    0.28    0.06
  -8  -5  -2    0.27    0.05
  -8  -5  -2    0.18    0.03
  -8  -5  -2    0.15    0.05
   8   5   2    0.23    0.04
   8   5   2    0.17    0.06
   8   5   2    0.24    0.05
   8   5   2    0.23    0.05
  -9  -5  -2    0.05    0.04
  -9  -5  -2    0.06    0.05
   9   5   2    0.04    0.06
   9   5   2    0.10    0.04
   9   5   2    0.03    0.05
 -10  -5  -2    0.07    0.03
 -10  -5  -2    0.18    0.06
  10   5   2    0.14    0.06
  10   5   2    0.29    0.05
  10   5   2    0.10    0.06
  10   5   2    0.05    0.04
 -11  -5  -2    0.07    0.07
  11   5   2    0.16    0.07
  11   5   2    0.06    0.06
 -12  -5  -2    4.40    0.21
  12   5   2    3.91    0.21
   7  -6  -2    2.84    0.16
  -7   6   2    3.03    0.19
  -7   6   2    2.69    0.19
   6  -6  -2    1.47    0.10
   6  -6  -2    1.66    0.12
  -6   6   2    1.54    0.13
  -6   6   2    1.40    0.13
  -6   6   2    1.35    0.11
   5  -6  -2    3.99    0.17
   5  -6  -2    3.77    0.22
  -5   6   2    3.54    0.16
  -5   6   2    3.84    0.19
  -5   6   2    3.77    0.22
   4  -6  -2    1.02    0.08
   4  -6  -2    0.90    0.11
  -4   6   2    0.84    0.08
  -4   6   2    0.98    0.08
  -4   6   2    0.89    0.08
  -4   6   2    0.95    0.10
   3  -6  -2    1.29    0.12
   3  -6  -2    1.32    0.09
  -3   6   2    1.34    0.08
  -3   6   2    1.43    0.12
  -3   6   2    1.40    0.09
  -3   6   2    1.38    0.11
   2  -6  -2   44.33    1.24
   2  -6  -2   45.06    1.80
  -2   6   2   44.16    1.27
  -2   6   2   44.54    1.33
  -2   6   2   47.66    1.80
  -2   6   2   41.98    1.80
  -2   6   2   43.90    1.22
   1  -6  -2   26.18    1.05
   1  -6  -2   24.99    0.71
   1  -6  -2   25.33    0.72
  -1   6   2   27.49    1.05
  -1   6   2   25.76    0.75
  -1   6   2   25.99    0.71
  -1   6   2   26.00    0.78
  -1   6   2   22.78    1.05
   0  -6  -2    2.91    0.17
   0  -6  -2    2.59    0.11
   0   6   2    2.83    0.17
   0   6   2    2.83    0.11
   0   6   2    2.82    0.16
   0   6   2    2.74    0.10
   0   6   2    2.60    0.12
   0   6   2    2.70    0.11
  -1  -6  -2    4.26    0.22
  -1  -6  -2    4.42    0.21
   1   6   2    4.29    0.21
   1   6   2    3.95    0.15
   1   6   2    3.98    0.14
   1   6   2    4.24    0.14
   1   6   2    4.11    0.15
   1   6   2    4.08    0.21
   1   6   2    4.02    0.15
  -2  -6  -2    4.48    0.23
  -2  -6  -2    4.53    0.14
  -2  -6  -2    4.46    0.15
  -2  -6  -2    4.47    0.22
   2   6   2    4.32    0.22
   2   6   2    4.57    0.15
   2   6   2    4.47    0.15
   2   6   2    4.54    0.15
   2   6   2    4.68    0.17
   2   6   2    4.50    0.15
   2   6   2    4.44    0.16
   2   6   2    4.28    0.22
  -3  -6  -2   27.90    1.16
  -3  -6  -2   28.99    0.82
  -3  -6  -2   28.78    0.87
  -3  -6  -2   28.05    0.84
  -3  -6  -2   27.86    0.81
  -3  -6  -2   30.92    1.16
   3   6   2   30.27    1.16
   3   6   2   28.31    0.79
   3   6   2   28.84    0.88
   3   6   2   28.19    0.81
   3   6   2   25.21    1.16
  -4  -6  -2   19.48    0.61
  -4  -6  -2   19.24    0.58
  -4  -6  -2   20.83    0.82
  -4  -6  -2   19.45    0.57
  -4  -6  -2   19.64    0.82
   4   6   2   20.45    0.82
   4   6   2   19.16    0.62
   4   6   2   19.12    0.57
  -5  -6  -2    0.57    0.07
  -5  -6  -2    0.44    0.04
  -5  -6  -2    0.42    0.04
  -5  -6  -2    0.46    0.06
  -5  -6  -2    0.55    0.05
   5   6   2    0.46    0.05
   5   6   2    0.40    0.05
   5   6   2    0.51    0.04
   5   6   2    0.49    0.06
  -6  -6  -2    5.59    0.20
  -6  -6  -2    5.57    0.19
  -6  -6  -2    5.38    0.18
  -6  -6  -2    5.71    0.27
  -6  -6  -2    5.69    0.26
   6   6   2    5.28    0.21
   6   6   2    5.49    0.19
   6   6   2    5.47    0.19
   6   6   2    5.24    0.26
  -7  -6  -2   48.84    1.40
  -7  -6  -2   47.70    1.39
  -7  -6  -2   52.20    1.96
  -7  -6  -2   48.74    1.97
  -7  -6  -2   47.77    1.39
   7   6   2   48.63    1.51
   7   6   2   49.02    1.39
   7   6   2   50.05    1.97
  -8  -6  -2    4.18    0.21
  -8  -6  -2    4.22    0.21
  -8  -6  -2    4.18    0.18
  -8  -6  -2    3.99    0.14
  -8  -6  -2    4.10    0.15
   8   6   2    4.18    0.22
   8   6   2    4.38    0.16
   8   6   2    4.10    0.19
   8   6   2    4.25    0.17
  -9  -6  -2   11.53    0.38
  -9  -6  -2   11.04    0.49
   9   6   2   11.35    0.38
   9   6   2   12.32    0.38
   9   6   2   11.76    0.41
 -10  -6  -2    0.00    0.04
 -10  -6  -2   -0.04    0.06
  10   6   2    0.01    0.06
  10   6   2   -0.02    0.05
 -11  -6  -2    0.19    0.07
  11   6   2    0.17    0.07
  11   6   2    0.20    0.07
   6  -7  -2    0.29    0.05
   6  -7  -2    0.31    0.07
  -6   7   2    0.24    0.08
  -6   7   2    0.20    0.08
   5  -7  -2    7.83    0.27
  -5   7   2    7.64    0.38
  -5   7   2    7.63    0.31
  -5   7   2    7.60    0.27
   4  -7  -2    0.12    0.06
   4  -7  -2    0.17    0.05
  -4   7   2    0.04    0.05
  -4   7   2    0.10    0.04
  -4   7   2    0.15    0.04
  -4   7   2    0.17    0.07
   3  -7  -2    0.48    0.06
   3  -7  -2    0.44    0.08
  -3   7   2    0.54    0.06
  -3   7   2    0.55    0.06
  -3   7   2    0.62    0.09
  -3   7   2    0.46    0.08
   2  -7  -2   27.82    0.78
   2  -7  -2   25.90    1.13
  -2   7   2   27.15    1.13
  -2   7   2   27.57    0.77
  -2   7   2   27.68    0.82
   1  -7  -2   10.52    0.47
  -1   7   2   10.07    0.32
  -1   7   2   10.50    0.31
  -1   7   2   10.10    0.33
  -1   7   2    9.47    0.46
   0  -7  -2  140.68    5.55
   0   7   2  122.02    5.55
   0   7   2  146.51    3.77
   0   7   2  145.56    3.93
   0   7   2  146.71    4.20
  -1  -7  -2   12.03    0.55
   1   7   2   12.69    0.39
   1   7   2   12.39    0.40
   1   7   2   12.84    0.55
   1   7   2   12.52    0.37
  -2  -7  -2    5.95    0.29
  -2  -7  -2    6.07    0.18
   2   7   2    5.75    0.21
   2   7   2    5.26    0.29
   2   7   2    6.00    0.20
   2   7   2    6.27    0.21
   2   7   2    6.24    0.20
   2   7   2    6.09    0.19
  -3  -7  -2    4.03    0.15
  -3  -7  -2    4.36    0.22
  -3  -7  -2    4.31    0.22
  -3  -7  -2    4.03    0.15
   3   7   2    3.88    0.14
   3   7   2    3.99    0.16
   3   7   2    3.89    0.15
   3   7   2    4.05    0.14
   3   7   2    4.16    0.22
  -4  -7  -2    6.89    0.23
  -4  -7  -2    7.01    0.34
  -4  -7  -2    7.67    0.34
  -4  -7  -2    7.11    0.24
   4   7   2    7.32    0.26
   4   7   2    6.91    0.23
   4   7   2    7.48    0.34
   4   7   2    7.16    0.23
  -5  -7  -2   10.64    0.35
  -5  -7  -2   11.35    0.47
  -5  -7  -2   10.48    0.32
  -5  -7  -2   10.52    0.47
   5   7   2   10.55    0.33
   5   7   2   10.37    0.47
   5   7   2   10.44    0.36
  -6  -7  -2    2.39    0.16
  -6  -7  -2    2.35    0.09
  -6  -7  -2    2.67    0.15
  -6  -7  -2    1.99    0.12
  -6  -7  -2    2.53    0.11
   6   7   2    2.42    0.12
   6   7   2    2.20    0.13
   6   7   2    2.38    0.16
  -7  -7  -2    4.25    0.22
  -7  -7  -2    4.14    0.16
  -7  -7  -2    3.92    0.18
  -7  -7  -2    4.32    0.23
   7   7   2    4.17    0.22
   7   7   2    4.15    0.17
   7   7   2    3.85    0.18
  -8  -7  -2    1.69    0.14
  -8  -7  -2    1.84    0.13
   8   7   2    2.05    0.12
   8   7   2    1.82    0.13
   8   7   2    1.87    0.15
  -9  -7  -2    5.49    0.28
  -9  -7  -2    5.83    0.23
   9   7   2    5.44    0.24
   9   7   2    5.90    0.22
 -10  -7  -2    1.96    0.14
 -10  -7  -2    2.14    0.15
  10   7   2    2.11    0.15
  10   7   2    2.15    0.13
 -11  -7  -2    0.96    0.10
  11   7   2    1.02    0.11
  11   7   2    1.16    0.10
   5  -8  -2    5.63    0.22
  -5   8   2    5.50    0.31
  -5   8   2    5.34    0.25
   4  -8  -2    0.60    0.08
  -4   8   2    0.65    0.10
  -4   8   2    0.61    0.07
  -4   8   2    0.36    0.08
  -4   8   2    0.61    0.07
   3  -8  -2    0.48    0.06
   3  -8  -2    0.35    0.08
  -3   8   2    0.38    0.06
  -3   8   2    0.34    0.06
   2  -8  -2    0.06    0.04
   2  -8  -2    0.03    0.06
  -2   8   2    0.07    0.04
  -2   8   2    0.09    0.05
  -2   8   2   -0.13    0.06
   1  -8  -2    0.13    0.08
  -1   8   2    0.15    0.05
  -1   8   2    0.16    0.07
  -1   8   2    0.16    0.05
  -1   8   2    0.16    0.03
   0  -8  -2   54.34    2.30
   0   8   2   57.16    1.72
   0   8   2   57.89    1.63
   0   8   2   57.19    1.56
   0   8   2   58.13    2.30
  -1  -8  -2   11.43    0.52
   1   8   2   11.43    0.37
   1   8   2   12.41    0.52
   1   8   2   11.13    0.37
   1   8   2   10.82    0.34
  -2  -8  -2    1.52    0.06
  -2  -8  -2    1.53    0.14
   2   8   2    1.57    0.14
   2   8   2    1.60    0.09
   2   8   2    1.48    0.09
   2   8   2    1.58    0.09
   2   8   2    1.45    0.10
  -3  -8  -2    0.47    0.08
  -3  -8  -2    0.48    0.05
  -3  -8  -2    0.51    0.04
   3   8   2    0.47    0.05
   3   8   2    0.50    0.05
   3   8   2    0.38    0.05
   3   8   2    0.49    0.05
   3   8   2    0.41    0.08
  -4  -8  -2    1.65    0.14
  -4  -8  -2    1.64    0.09
   4   8   2    1.51    0.14
   4   8   2    1.65    0.09
   4   8   2    1.67    0.09
   4   8   2    1.53    0.10
  -5  -8  -2   16.79    0.51
  -5  -8  -2   16.53    0.72
  -5  -8  -2   17.41    0.72
   5   8   2   16.88    0.50
   5   8   2   16.79    0.72
   5   8   2   16.65    0.55
   5   8   2   16.35    0.48
  -6  -8  -2    0.62    0.09
  -6  -8  -2    0.67    0.07
  -6  -8  -2    0.70    0.09
  -6  -8  -2    0.76    0.05
   6   8   2    0.62    0.07
   6   8   2    0.61    0.09
   6   8   2    0.63    0.06
  -7  -8  -2    0.52    0.08
  -7  -8  -2    0.72    0.07
   7   8   2    0.49    0.07
   7   8   2    0.62    0.07
   7   8   2    0.82    0.09
  -8  -8  -2    0.18    0.07
  -8  -8  -2    0.24    0.06
   8   8   2    0.32    0.06
   8   8   2    0.15    0.06
  -9  -8  -2    0.73    0.09
  -9  -8  -2    0.77    0.08
   9   8   2    0.70    0.09
   9   8   2    0.77    0.08
 -10  -8  -2    0.10    0.06
 -10  -8  -2    0.04    0.06
  10   8   2    0.01    0.05
  10   8   2    0.02    0.06
 -11  -8  -2    2.58    0.17
  11   8   2    2.20    0.16
  11   8   2    2.57    0.15
   4  -9  -2    4.09    0.19
  -4   9   2    3.98    0.21
  -4   9   2    4.11    0.26
   3  -9  -2    3.45    0.16
   3  -9  -2    3.23    0.24
  -3   9   2    3.63    0.24
  -3   9   2    3.20    0.16
  -3   9   2    3.60    0.17
   2  -9  -2    1.77    0.17
  -2   9   2    1.97    0.18
  -2   9   2    2.16    0.12
  -2   9   2    1.96    0.13
   1  -9  -2    1.45    0.15
  -1   9   2    1.43    0.10
  -1   9   2    1.31    0.11
   0  -9  -2    2.81    0.20
   0   9   2    2.49    0.14
   0   9   2    2.53    0.11
   0   9   2    2.60    0.12
  -1  -9  -2   10.74    0.49
   1   9   2   10.14    0.35
   1   9   2   10.47    0.35
   1   9   2   10.01    0.32
   1   9   2   10.83    0.49
  -2  -9  -2   12.79    0.57
  -2  -9  -2   12.91    0.38
   2   9   2   12.74    0.41
   2   9   2   12.63    0.42
   2   9   2   12.87    0.38
   2   9   2   11.35    0.56
  -3  -9  -2    0.56    0.09
  -3  -9  -2    0.42    0.03
  -3  -9  -2    0.47    0.05
   3   9   2    0.43    0.05
   3   9   2    0.39    0.08
   3   9   2    0.39    0.06
   3   9   2    0.49    0.05
   3   9   2    0.33    0.05
  -4  -9  -2    0.94    0.08
  -4  -9  -2    0.97    0.11
   4   9   2    0.92    0.11
   4   9   2    1.02    0.09
   4   9   2    1.09    0.08
   4   9   2    0.96    0.08
  -5  -9  -2    0.15    0.07
  -5  -9  -2    0.18    0.03
   5   9   2    0.25    0.07
   5   9   2    0.15    0.04
   5   9   2    0.09    0.04
   5   9   2    0.14    0.05
  -6  -9  -2    0.61    0.10
  -6  -9  -2    0.76    0.06
   6   9   2    0.63    0.06
   6   9   2    0.75    0.10
   6   9   2    0.72    0.07
   6   9   2    0.64    0.08
  -7  -9  -2    0.21    0.07
  -7  -9  -2    0.20    0.06
   7   9   2    0.23    0.06
   7   9   2    0.26    0.08
   7   9   2    0.29    0.06
  -8  -9  -2   -0.09    0.05
  -8  -9  -2   -0.07    0.06
   8   9   2   -0.02    0.05
   8   9   2   -0.03    0.05
  -9  -9  -2    0.11    0.06
  -9  -9  -2    0.11    0.07
   9   9   2    0.05    0.05
   9   9   2    0.06    0.06
 -10  -9  -2    0.06    0.07
 -10  -9  -2    0.10    0.07
  10   9   2    0.04    0.06
  10   9   2    0.05    0.07
  -3  10   2    9.39    0.48
   2 -10  -2    0.52    0.11
  -2  10   2    0.51    0.11
   1 -10  -2    0.08    0.08
  -1  10   2    0.08    0.05
  -1  10   2    0.11    0.08
  -1  10   2    0.10    0.05
   0 -10  -2    0.35    0.09
   0  10   2    0.29    0.05
   0  10   2    0.33    0.09
   0  10   2    0.29    0.06
  -1 -10  -2    3.03    0.22
   1  10   2    2.82    0.13
   1  10   2    2.78    0.13
   1  10   2    2.79    0.21
   1  10   2    2.76    0.15
  -2 -10  -2    4.16    0.26
   2  10   2    3.82    0.25
   2  10   2    4.08    0.17
   2  10   2    3.88    0.16
  -3 -10  -2    4.76    0.27
  -3 -10  -2    4.38    0.18
   3  10   2    4.24    0.19
   3  10   2    4.41    0.27
   3  10   2    4.24    0.17
  -4 -10  -2   -0.01    0.07
  -4 -10  -2   -0.02    0.04
   4  10   2   -0.04    0.04
   4  10   2   -0.06    0.04
   4  10   2    0.03    0.07
   4  10   2   -0.04    0.04
  -5 -10  -2    0.54    0.05
  -5 -10  -2    0.56    0.10
   5  10   2    0.52    0.07
   5  10   2    0.53    0.10
   5  10   2    0.47    0.06
   5  10   2    0.49    0.06
  -6 -10  -2    0.64    0.06
  -6 -10  -2    0.61    0.10
   6  10   2    0.68    0.07
   6  10   2    0.68    0.11
   6  10   2    0.61    0.07
   6  10   2    0.61    0.08
  -7 -10  -2   -0.01    0.05
  -7 -10  -2   -0.06    0.07
   7  10   2   -0.02    0.04
   7  10   2   -0.04    0.05
   7  10   2   -0.02    0.04
   7  10   2   -0.06    0.07
  -8 -10  -2    0.22    0.07
  -8 -10  -2    0.19    0.08
   8  10   2    0.19    0.07
   8  10   2    0.14    0.05
   8  10   2    0.16    0.06
  -9 -10  -2    1.70    0.14
  -9 -10  -2    1.50    0.16
   9  10   2    1.48    0.12
   9  10   2    1.37    0.12
 -10 -10  -2    1.24    0.16
 -10 -10  -2    1.16    0.12
  10  10   2    1.22    0.10
  10  10   2    1.34    0.13
   1 -11  -2    0.40    0.11
  -1  11   2    0.50    0.12
   0 -11  -2    1.24    0.15
   0  11   2    1.47    0.18
  -1 -11  -2    2.11    0.20
   1  11   2    1.77    0.19
   1  11   2    1.86    0.12
  -2 -11  -2    0.06    0.05
  -2 -11  -2   -0.04    0.08
   2  11   2    0.07    0.08
   2  11   2    0.08    0.05
   2  11   2    0.09    0.05
  -3 -11  -2    5.92    0.24
  -3 -11  -2    6.27    0.35
   3  11   2    6.01    0.22
   3  11   2    6.35    0.35
   3  11   2    6.26    0.24
  -4 -11  -2    4.26    0.28
  -4 -11  -2    4.28    0.18
   4  11   2    4.36    0.18
   4  11   2    4.49    0.28
   4  11   2    4.21    0.20
  -5 -11  -2    0.02    0.08
  -5 -11  -2    0.01    0.04
   5  11   2   -0.10    0.05
   5  11   2    0.01    0.08
   5  11   2   -0.03    0.05
   5  11   2    0.01    0.05
  -6 -11  -2    0.57    0.11
   6  11   2    0.60    0.11
   6  11   2    0.45    0.08
   6  11   2    0.39    0.06
   6  11   2    0.49    0.07
  -7 -11  -2    1.53    0.17
  -7 -11  -2    1.47    0.12
   7  11   2    1.50    0.13
   7  11   2    1.50    0.12
   7  11   2    1.48    0.11
  -8 -11  -2    1.34    0.12
  -8 -11  -2    1.32    0.15
   8  11   2    1.08    0.11
   8  11   2    1.32    0.11
   8  11   2    1.16    0.10
  -9 -11  -2    2.47    0.21
  -9 -11  -2    2.99    0.20
   9  11   2    2.74    0.16
   9  11   2    2.59    0.18
  -1 -12  -2   -0.05    0.10
  -1 -12  -2   -0.07    0.06
   1  12   2   -0.08    0.10
  -2 -12  -2    0.41    0.08
  -2 -12  -2    0.42    0.12
   2  12   2    0.45    0.12
  -3 -12  -2    0.11    0.06
  -3 -12  -2    0.04    0.10
   3  12   2    0.05    0.05
   3  12   2    0.02    0.09
  -4 -12  -2    0.04    0.05
  -4 -12  -2    0.19    0.10
   4  12   2    0.05    0.05
   4  12   2    0.05    0.09
  -5 -12  -2    3.14    0.25
   5  12   2    2.81    0.23
   5  12   2    2.81    0.17
  -6 -12  -2   -0.07    0.10
   6  12   2    0.06    0.06
   6  12   2   -0.04    0.05
  -7 -12  -2    0.32    0.08
   7  12   2    0.15    0.07
   7  12   2    0.16    0.06
   5  11  -3    0.15    0.06
   5  11  -3    0.11    0.06
  -5 -11   3    0.20    0.07
   4  11  -3    0.04    0.08
   4  11  -3    0.06    0.06
   4  11  -3    0.03    0.06
  -4 -11   3    0.12    0.06
  -4 -11   3    0.04    0.06
   3  11  -3   -0.06    0.07
   3  11  -3    0.07    0.05
   3  11  -3   -0.01    0.05
  -3 -11   3   -0.05    0.06
  -3 -11   3   -0.07    0.05
   2  11  -3    0.35    0.07
   2  11  -3    0.39    0.11
  -2 -11   3    0.28    0.07
   7  10  -3    5.65    0.22
   7  10  -3    5.69    0.26
  -7 -10   3    5.68    0.32
  -7 -10   3    6.07    0.23
  -7 -10   3    5.58    0.24
  -7 -10   3    5.58    0.24
   6  10  -3    0.09    0.06
   6  10  -3    0.14    0.06
  -6 -10   3    0.03    0.08
  -6 -10   3    0.04    0.05
  -6 -10   3    0.12    0.05
  -6 -10   3    0.06    0.06
   5  10  -3    0.95    0.10
   5  10  -3    1.18    0.09
  -5 -10   3    1.12    0.14
  -5 -10   3    1.14    0.09
  -5 -10   3    0.96    0.09
  -5 -10   3    1.21    0.10
   4  10  -3    0.35    0.05
   4  10  -3    0.28    0.06
   4  10  -3    0.19    0.06
   4  10  -3    0.26    0.09
  -4 -10   3    0.29    0.05
  -4 -10   3    0.21    0.09
  -4 -10   3    0.28    0.06
  -4 -10   3    0.40    0.07
   3  10  -3    0.46    0.07
   3  10  -3    0.45    0.10
   3  10  -3    0.46    0.06
   3  10  -3    0.40    0.07
  -3 -10   3    0.54    0.11
  -3 -10   3    0.50    0.07
  -3 -10   3    0.59    0.07
  -3 -10   3    0.47    0.06
   2  10  -3    0.59    0.11
   2  10  -3    0.64    0.08
   2  10  -3    0.70    0.07
   2  10  -3    0.60    0.07
  -2 -10   3    0.63    0.12
  -2 -10   3    0.56    0.08
  -2 -10   3    0.79    0.07
   1  10  -3    0.00    0.04
   1  10  -3   -0.04    0.04
   1  10  -3    0.04    0.08
   1  10  -3    0.03    0.05
  -1 -10   3   -0.12    0.05
  -1 -10   3    0.05    0.09
  -1 -10   3   -0.08    0.04
   0  10  -3    0.29    0.07
   0  10  -3    0.30    0.06
   0  10  -3    0.27    0.09
   0 -10   3    0.29    0.07
   0 -10   3    0.31    0.10
  -1  10  -3    0.89    0.10
  -1  10  -3    0.77    0.12
   1 -10   3    0.87    0.09
   1 -10   3    0.76    0.13
   9   9  -3    0.91    0.11
  -9  -9   3    0.92    0.11
  -9  -9   3    1.01    0.11
   8   9  -3    0.48    0.08
  -8  -9   3    0.52    0.09
  -8  -9   3    0.53    0.09
   7   9  -3    0.09    0.05
   7   9  -3    0.07    0.06
  -7  -9   3    0.12    0.05
  -7  -9   3   -0.01    0.06
  -7  -9   3    0.06    0.07
  -7  -9   3    0.11    0.05
   6   9  -3    0.19    0.06
   6   9  -3    0.15    0.05
  -6  -9   3    0.21    0.05
  -6  -9   3    0.21    0.05
  -6  -9   3    0.21    0.06
  -6  -9   3    0.24    0.08
   5   9  -3    2.86    0.14
   5   9  -3    2.90    0.16
   5   9  -3    2.85    0.20
   5   9  -3    2.98    0.12
  -5  -9   3    2.82    0.14
  -5  -9   3    2.67    0.20
  -5  -9   3    2.89    0.15
  -5  -9   3    3.09    0.15
   4   9  -3    2.26    0.10
   4   9  -3    2.19    0.14
   4   9  -3    2.55    0.13
   4   9  -3    2.34    0.18
  -4  -9   3    2.15    0.12
  -4  -9   3    2.41    0.13
  -4  -9   3    2.16    0.18
  -4  -9   3    2.45    0.14
   3   9  -3    0.02    0.06
   3   9  -3    0.02    0.04
   3   9  -3    0.04    0.03
   3   9  -3    0.06    0.05
  -3  -9   3    0.07    0.05
  -3  -9   3    0.02    0.05
  -3  -9   3    0.02    0.04
  -3  -9   3    0.01    0.07
   2   9  -3    0.10    0.05
   2   9  -3    0.15    0.05
   2   9  -3    0.08    0.04
   2   9  -3    0.12    0.07
  -2  -9   3    0.17    0.08
  -2  -9   3    0.08    0.05
  -2  -9   3    0.13    0.05
   1   9  -3    0.49    0.06
   1   9  -3    0.51    0.07
   1   9  -3    0.55    0.06
   1   9  -3    0.64    0.11
  -1  -9   3    0.40    0.07
  -1  -9   3    0.53    0.11
   0   9  -3    1.74    0.10
   0   9  -3    1.95    0.11
   0   9  -3    1.70    0.13
   0   9  -3    1.63    0.17
   0  -9   3    1.73    0.18
   0  -9   3    1.89    0.14
  -1   9  -3    0.40    0.10
  -1   9  -3    0.51    0.07
  -1   9  -3    0.43    0.06
   1  -9   3    0.41    0.07
   1  -9   3    0.46    0.10
  -2   9  -3    2.37    0.20
  -2   9  -3    2.32    0.15
  -2   9  -3    2.54    0.13
   2  -9   3    2.46    0.21
   2  -9   3    2.45    0.16
  -3   9  -3   -0.01    0.07
  -3   9  -3    0.04    0.05
   3  -9   3   -0.03    0.05
   3  -9   3   -0.08    0.08
   9   8  -3    1.26    0.12
  -9  -8   3    1.42    0.12
  -9  -8   3    1.43    0.13
   8   8  -3   -0.07    0.05
  -8  -8   3    0.03    0.06
  -8  -8   3   -0.09    0.06
   7   8  -3    0.11    0.04
   7   8  -3    0.12    0.06
   7   8  -3    0.09    0.04
  -7  -8   3    0.20    0.05
  -7  -8   3    0.12    0.06
  -7  -8   3    0.14    0.04
  -7  -8   3    0.14    0.06
   6   8  -3    0.40    0.04
   6   8  -3    0.26    0.06
   6   8  -3    0.28    0.04
   6   8  -3    0.41    0.08
   6   8  -3    0.27    0.05
  -6  -8   3    0.34    0.06
  -6  -8   3    0.35    0.05
  -6  -8   3    0.30    0.07
  -6  -8   3    0.30    0.06
   5   8  -3    4.49    0.15
   5   8  -3    4.55    0.18
   5   8  -3    4.32    0.20
   5   8  -3    4.68    0.25
  -5  -8   3    4.26    0.24
  -5  -8   3    4.48    0.18
  -5  -8   3    4.49    0.18
  -5  -8   3    4.48    0.18
   4   8  -3   -0.05    0.03
   4   8  -3    0.03    0.05
   4   8  -3    0.04    0.04
   4   8  -3   -0.02    0.04
  -4  -8   3   -0.04    0.05
  -4  -8   3    0.00    0.04
  -4  -8   3    0.00    0.04
  -4  -8   3   -0.03    0.04
   3   8  -3    6.64    0.23
   3   8  -3    6.56    0.33
   3   8  -3    6.66    0.21
  -3  -8   3    6.72    0.23
  -3  -8   3    6.23    0.33
  -3  -8   3    6.24    0.23
  -3  -8   3    6.36    0.23
   2   8  -3   10.42    0.51
   2   8  -3   11.16    0.33
   2   8  -3   11.53    0.37
  -2  -8   3   11.32    0.37
  -2  -8   3   11.42    0.35
  -2  -8   3   11.07    0.52
   1   8  -3    0.27    0.08
   1   8  -3    0.31    0.04
   1   8  -3    0.31    0.06
  -1  -8   3    0.27    0.06
  -1  -8   3    0.28    0.09
   0   8  -3    5.37    0.30
   0   8  -3    5.43    0.20
   0   8  -3    5.64    0.19
   0   8  -3    5.44    0.21
   0  -8   3    5.78    0.22
   0  -8   3    5.13    0.30
  -1   8  -3    0.10    0.03
  -1   8  -3    0.06    0.04
  -1   8  -3    0.02    0.05
  -1   8  -3    0.03    0.06
   1  -8   3    0.03    0.07
   1  -8   3    0.03    0.05
  -2   8  -3    0.00    0.07
  -2   8  -3    0.04    0.04
  -2   8  -3    0.03    0.05
   2  -8   3   -0.08    0.03
   2  -8   3    0.02    0.07
   2  -8   3    0.05    0.05
  -3   8  -3    1.27    0.10
  -3   8  -3    0.97    0.13
  -3   8  -3    1.17    0.10
   3  -8   3    1.10    0.10
   3  -8   3    1.04    0.08
   3  -8   3    1.33    0.16
  -4   8  -3    0.58    0.08
  -4   8  -3    0.60    0.11
   4  -8   3    0.64    0.07
   4  -8   3    0.60    0.08
   4  -8   3    0.55    0.11
  10   7  -3    0.95    0.11
  10   7  -3    1.20    0.11
 -10  -7   3    0.86    0.10
   9   7  -3    4.45    0.22
   9   7  -3    4.75    0.22
  -9  -7   3    4.53    0.21
  -9  -7   3    4.37    0.22
   8   7  -3    5.87    0.26
   8   7  -3    6.26    0.26
   8   7  -3    6.33    0.21
  -8  -7   3    5.72    0.29
  -8  -7   3    6.30    0.24
   7   7  -3    3.19    0.17
   7   7  -3    3.24    0.12
   7   7  -3    3.22    0.17
   7   7  -3    3.41    0.12
  -7  -7   3    3.17    0.19
  -7  -7   3    3.39    0.16
  -7  -7   3    3.25    0.13
  -7  -7   3    3.11    0.16
   6   7  -3    1.58    0.12
   6   7  -3    1.92    0.08
   6   7  -3    1.81    0.10
   6   7  -3    2.00    0.14
   6   7  -3    1.98    0.09
  -6  -7   3    2.01    0.14
  -6  -7   3    1.83    0.12
  -6  -7   3    1.93    0.12
  -6  -7   3    1.97    0.10
   5   7  -3    0.11    0.05
   5   7  -3    0.03    0.03
   5   7  -3    0.03    0.03
   5   7  -3    0.11    0.03
  -5  -7   3    0.06    0.04
  -5  -7   3    0.07    0.05
  -5  -7   3   -0.04    0.04
  -5  -7   3    0.02    0.03
  -5  -7   3    0.07    0.05
  -5  -7   3    0.04    0.04
  -5  -7   3    0.11    0.03
   4   7  -3    6.10    0.21
   4   7  -3    6.18    0.19
   4   7  -3    5.75    0.30
   4   7  -3    6.10    0.17
  -4  -7   3    6.05    0.21
  -4  -7   3    6.23    0.20
  -4  -7   3    5.95    0.22
  -4  -7   3    5.76    0.21
  -4  -7   3    5.96    0.22
  -4  -7   3    6.35    0.31
  -4  -7   3    6.07    0.30
   3   7  -3    5.09    0.25
   3   7  -3    4.71    0.15
   3   7  -3    4.61    0.14
   3   7  -3    4.41    0.18
  -3  -7   3    4.39    0.18
  -3  -7   3    4.84    0.18
  -3  -7   3    4.87    0.16
  -3  -7   3    4.46    0.18
  -3  -7   3    4.77    0.25
   2   7  -3    0.24    0.03
   2   7  -3    0.19    0.04
   2   7  -3    0.15    0.06
  -2  -7   3    0.24    0.04
  -2  -7   3    0.26    0.07
  -2  -7   3    0.26    0.05
   1   7  -3    1.55    0.14
   1   7  -3    1.40    0.08
   1   7  -3    1.51    0.10
  -1  -7   3    1.36    0.08
  -1  -7   3    1.45    0.10
  -1  -7   3    1.59    0.14
   0   7  -3    2.39    0.12
   0   7  -3    2.31    0.10
   0   7  -3    2.23    0.16
   0  -7   3    2.34    0.13
   0  -7   3    2.39    0.17
  -1   7  -3   16.40    0.48
  -1   7  -3   16.93    0.73
  -1   7  -3   16.02    0.51
   1  -7   3   17.22    0.73
   1  -7   3   16.42    0.48
   1  -7   3   16.58    0.51
  -2   7  -3    0.00    0.06
  -2   7  -3    0.03    0.04
  -2   7  -3    0.02    0.05
  -2   7  -3    0.00    0.03
   2  -7   3    0.05    0.05
   2  -7   3    0.05    0.04
   2  -7   3    0.11    0.07
  -3   7  -3    0.80    0.11
  -3   7  -3    0.94    0.08
  -3   7  -3    0.83    0.08
   3  -7   3    0.87    0.12
   3  -7   3    0.70    0.08
   3  -7   3    1.04    0.09
  -4   7  -3    0.66    0.08
  -4   7  -3    0.61    0.11
  -4   7  -3    0.68    0.07
   4  -7   3    0.63    0.08
   4  -7   3    0.48    0.10
   4  -7   3    0.75    0.07
  -5   7  -3    4.70    0.20
  -5   7  -3    4.61    0.20
  -5   7  -3    4.78    0.23
  -5   7  -3    4.83    0.29
   5  -7   3    4.59    0.21
   5  -7   3    4.60    0.19
  -6   7  -3   10.62    0.37
  -6   7  -3   10.11    0.42
  -6   7  -3   10.48    0.52
   6  -7   3   11.16    0.37
   6  -7   3   10.86    0.36
  10   6  -3    0.44    0.08
  10   6  -3    0.43    0.08
 -10  -6   3    0.48    0.08
   9   6  -3    0.63    0.08
   9   6  -3    0.84    0.07
   9   6  -3    0.74    0.08
  -9  -6   3    0.74    0.09
   8   6  -3   11.65    0.40
   8   6  -3   11.36    0.34
   8   6  -3   10.98    0.40
  -8  -6   3   11.23    0.38
  -8  -6   3   10.73    0.47
   7   6  -3    0.13    0.03
   7   6  -3    0.16    0.06
   7   6  -3    0.13    0.03
   7   6  -3    0.09    0.05
  -7  -6   3    0.14    0.05
  -7  -6   3    0.15    0.05
  -7  -6   3    0.21    0.05
  -7  -6   3    0.15    0.03
   6   6  -3    2.18    0.10
   6   6  -3    2.31    0.09
   6   6  -3    2.23    0.14
   6   6  -3    2.45    0.09
   6   6  -3    2.30    0.14
  -6  -6   3    2.29    0.13
  -6  -6   3    2.22    0.14
  -6  -6   3    2.16    0.09
  -6  -6   3    2.29    0.15
  -6  -6   3    2.28    0.13
  -6  -6   3    2.26    0.10
   5   6  -3   26.86    0.83
   5   6  -3   25.91    0.76
   5   6  -3   26.30    0.72
   5   6  -3   25.21    1.08
   5   6  -3   26.00    0.74
  -5  -6   3   26.16    0.80
  -5  -6   3   27.97    1.08
  -5  -6   3   26.23    0.77
  -5  -6   3   25.85    1.08
  -5  -6   3   26.03    0.75
  -5  -6   3   26.15    0.77
  -5  -6   3   26.66    0.76
   4   6  -3   52.59    1.46
   4   6  -3   51.36    1.49
   4   6  -3   52.27    1.41
   4   6  -3   52.26    1.43
   4   6  -3   51.99    2.10
  -4  -6   3   51.89    2.10
  -4  -6   3   53.31    2.10
  -4  -6   3   53.72    1.48
  -4  -6   3   52.17    1.55
  -4  -6   3   52.45    1.46
  -4  -6   3   52.44    1.53
  -4  -6   3   52.19    1.49
   3   6  -3    4.48    0.23
   3   6  -3    4.49    0.16
   3   6  -3    4.50    0.14
   3   6  -3    4.49    0.13
  -3  -6   3    4.63    0.15
  -3  -6   3    4.51    0.23
  -3  -6   3    4.27    0.16
  -3  -6   3    3.95    0.17
  -3  -6   3    4.44    0.16
  -3  -6   3    4.27    0.16
  -3  -6   3    4.33    0.23
   2   6  -3   12.46    0.39
   2   6  -3   12.24    0.36
   2   6  -3   13.00    0.55
  -2  -6   3   13.02    0.55
  -2  -6   3   12.27    0.38
  -2  -6   3   12.17    0.39
  -2  -6   3   12.99    0.55
  -2  -6   3   12.47    0.37
   1   6  -3   14.89    0.42
   1   6  -3   13.25    0.63
   1   6  -3   15.04    0.45
  -1  -6   3   15.31    0.42
  -1  -6   3   15.15    0.45
  -1  -6   3   13.59    0.63
  -1  -6   3   15.11    0.43
   0   6  -3    0.74    0.09
   0   6  -3    0.94    0.06
   0   6  -3    0.69    0.06
   0  -6   3    0.67    0.06
   0  -6   3    0.74    0.09
   0  -6   3    0.79    0.06
  -1   6  -3    0.06    0.06
  -1   6  -3    0.06    0.03
  -1   6  -3   -0.02    0.04
   1  -6   3    0.07    0.03
   1  -6   3    0.04    0.04
   1  -6   3    0.06    0.03
   1  -6   3    0.01    0.06
  -2   6  -3    1.82    0.08
  -2   6  -3    1.54    0.11
  -2   6  -3    1.51    0.14
  -2   6  -3    1.81    0.10
   2  -6   3    1.76    0.09
   2  -6   3    1.70    0.15
   2  -6   3    1.75    0.11
  -3   6  -3   14.32    0.43
  -3   6  -3   14.42    0.45
  -3   6  -3   13.99    0.63
   3  -6   3   14.17    0.45
   3  -6   3   14.04    0.63
   3  -6   3   14.21    0.42
  -4   6  -3    4.83    0.27
  -4   6  -3    4.45    0.18
  -4   6  -3    4.66    0.19
   4  -6   3    4.75    0.18
   4  -6   3    4.76    0.27
   4  -6   3    4.63    0.19
  -5   6  -3    0.24    0.05
  -5   6  -3    0.29    0.06
  -5   6  -3    0.23    0.06
  -5   6  -3    0.19    0.07
   5  -6   3    0.26    0.06
   5  -6   3    0.20    0.08
   5  -6   3    0.19    0.05
  -6   6  -3    0.04    0.05
  -6   6  -3    0.08    0.06
  -6   6  -3    0.02    0.06
  -6   6  -3    0.17    0.08
   6  -6   3    0.05    0.05
   6  -6   3    0.03    0.06
  -7   6  -3    0.33    0.09
  -7   6  -3    0.16    0.08
  -7   6  -3    0.36    0.06
   7  -6   3    0.29    0.08
   7  -6   3    0.41    0.07
  11   5  -3   -0.01    0.06
  11   5  -3    0.01    0.07
  10   5  -3    0.49    0.08
  10   5  -3    0.41    0.07
  10   5  -3    0.41    0.06
 -10  -5   3    0.24    0.08
   9   5  -3    0.12    0.04
   9   5  -3    0.12    0.06
   9   5  -3    0.31    0.04
   9   5  -3    0.20    0.06
  -9  -5   3    0.20    0.06
   8   5  -3    3.42    0.17
   8   5  -3    3.60    0.14
   8   5  -3    3.54    0.17
  -8  -5   3    3.87    0.17
  -8  -5   3    3.44    0.16
   7   5  -3    6.83    0.26
   7   5  -3    6.54    0.21
   7   5  -3    6.86    0.21
  -7  -5   3    6.70    0.29
  -7  -5   3    6.65    0.24
  -7  -5   3    6.67    0.21
   6   5  -3   48.17    2.05
   6   5  -3   50.80    1.45
   6   5  -3   51.88    1.57
   6   5  -3   52.74    1.43
  -6  -5   3   51.98    1.45
  -6  -5   3   50.66    2.05
  -6  -5   3   52.67    1.47
  -6  -5   3   51.80    1.53
  -6  -5   3   52.62    1.45
  -6  -5   3   50.88    2.05
   5   5  -3   17.93    0.54
   5   5  -3   18.18    0.51
   5   5  -3   19.11    0.77
   5   5  -3   18.71    0.60
   5   5  -3   18.33    0.53
  -5  -5   3   19.77    0.77
  -5  -5   3   19.19    0.55
  -5  -5   3   18.97    0.56
  -5  -5   3   18.57    0.77
  -5  -5   3   19.22    0.55
  -5  -5   3   18.31    0.58
  -5  -5   3   18.85    0.55
  -5  -5   3   17.97    0.53
   4   5  -3    0.90    0.05
   4   5  -3    0.85    0.06
   4   5  -3    0.70    0.08
   4   5  -3    0.79    0.04
   4   5  -3    0.86    0.08
  -4  -5   3    0.98    0.06
  -4  -5   3    0.81    0.06
  -4  -5   3    0.84    0.05
  -4  -5   3    0.90    0.07
  -4  -5   3    0.78    0.07
  -4  -5   3    0.87    0.05
  -4  -5   3    0.67    0.08
  -4  -5   3    0.71    0.08
   3   5  -3   13.32    0.37
   3   5  -3   13.23    0.40
   3   5  -3   13.12    0.36
   3   5  -3   12.60    0.56
  -3  -5   3   13.13    0.40
  -3  -5   3   13.09    0.40
  -3  -5   3   12.89    0.56
  -3  -5   3   12.96    0.41
  -3  -5   3   13.46    0.40
  -3  -5   3   14.41    0.56
  -3  -5   3   12.88    0.39
  -3  -5   3   12.95    0.38
   2   5  -3    5.98    0.27
   2   5  -3    5.35    0.17
   2   5  -3    5.40    0.19
  -2  -5   3    5.48    0.19
  -2  -5   3    5.70    0.27
  -2  -5   3    5.38    0.17
  -2  -5   3    5.50    0.26
  -2  -5   3    5.58    0.18
   1   5  -3    6.96    0.31
   1   5  -3    6.56    0.22
   1   5  -3    6.64    0.20
  -1  -5   3    6.65    0.20
  -1  -5   3    6.17    0.22
  -1  -5   3    6.88    0.31
  -1  -5   3    6.96    0.31
  -1  -5   3    6.42    0.20
  -1  -5   3    6.55    0.21
   0   5  -3   36.89    1.46
   0   5  -3   35.50    1.03
   0   5  -3   35.20    0.98
   0  -5   3   36.15    0.98
   0  -5   3   35.61    1.01
   0  -5   3   35.29    1.03
   0  -5   3   36.33    0.98
  -1   5  -3    2.84    0.12
  -1   5  -3    3.00    0.11
  -1   5  -3    3.26    0.18
   1  -5   3    2.23    0.17
   1  -5   3    2.91    0.10
   1  -5   3    2.75    0.11
   1  -5   3    2.94    0.11
   1  -5   3    3.05    0.13
  -2   5  -3    7.69    0.26
  -2   5  -3    7.86    0.26
  -2   5  -3    8.18    0.37
  -2   5  -3    7.74    0.25
   2  -5   3    7.50    0.24
   2  -5   3    7.98    0.26
   2  -5   3    8.36    0.37
   2  -5   3    7.92    0.24
  -3   5  -3   17.27    0.50
  -3   5  -3   17.31    0.53
  -3   5  -3   16.83    0.74
  -3   5  -3   17.04    0.52
   3  -5   3   17.63    0.74
   3  -5   3   17.20    0.52
   3  -5   3   17.10    0.50
  -4   5  -3    1.59    0.14
  -4   5  -3    1.85    0.10
  -4   5  -3    1.81    0.07
  -4   5  -3    1.86    0.10
   4  -5   3    1.69    0.10
   4  -5   3    1.75    0.10
   4  -5   3    1.88    0.15
  -5   5  -3    0.17    0.05
  -5   5  -3    0.12    0.05
  -5   5  -3    0.12    0.06
  -5   5  -3    0.13    0.05
   5  -5   3    0.08    0.07
   5  -5   3    0.04    0.04
   5  -5   3    0.14    0.05
  -6   5  -3    0.03    0.05
  -6   5  -3    0.06    0.06
  -6   5  -3   -0.02    0.05
  -6   5  -3    0.03    0.04
   6  -5   3   -0.01    0.07
   6  -5   3    0.05    0.05
   6  -5   3    0.11    0.05
  -7   5  -3    0.05    0.07
  -7   5  -3   -0.09    0.06
  -7   5  -3   -0.07    0.04
   7  -5   3   -0.19    0.06
   7  -5   3   -0.06    0.05
  -8   5  -3    4.80    0.25
  -8   5  -3    4.64    0.27
   8  -5   3    4.78    0.21
  11   4  -3    1.57    0.14
  11   4  -3    1.25    0.11
  11   4  -3    1.34    0.12
  10   4  -3    0.01    0.04
  10   4  -3   -0.01    0.05
  10   4  -3    0.07    0.06
  10   4  -3    0.03    0.05
   9   4  -3    0.03    0.05
   9   4  -3    0.15    0.04
   9   4  -3    0.12    0.05
   9   4  -3    0.17    0.05
  -9  -4   3    0.12    0.06
   8   4  -3    2.17    0.13
   8   4  -3    2.20    0.10
   8   4  -3    2.22    0.10
   8   4  -3    2.12    0.14
   8   4  -3    2.30    0.11
  -8  -4   3    2.31    0.13
   7   4  -3    5.66    0.19
   7   4  -3    5.62    0.24
   7   4  -3    5.40    0.18
   7   4  -3    5.55    0.24
   7   4  -3    5.65    0.22
  -7  -4   3    5.58    0.24
  -7  -4   3    5.70    0.17
  -7  -4   3    5.59    0.24
  -7  -4   3    5.48    0.21
   6   4  -3   11.10    0.32
   6   4  -3   11.66    0.47
   6   4  -3   11.17    0.33
   6   4  -3   11.32    0.34
   6   4  -3   11.27    0.47
   6   4  -3   11.54    0.38
  -6  -4   3   11.46    0.47
  -6  -4   3   11.53    0.33
  -6  -4   3   12.01    0.36
  -6  -4   3   11.33    0.37
   5   4  -3    6.74    0.29
   5   4  -3    6.67    0.24
   5   4  -3    6.63    0.21
   5   4  -3    6.61    0.29
   5   4  -3    6.73    0.20
  -5  -4   3    6.57    0.21
  -5  -4   3    6.56    0.20
  -5  -4   3    6.62    0.23
  -5  -4   3    6.65    0.21
  -5  -4   3    6.48    0.23
  -5  -4   3    6.67    0.29
  -5  -4   3    7.02    0.29
   4   4  -3    3.92    0.16
   4   4  -3    3.99    0.13
   4   4  -3    4.00    0.12
   4   4  -3    4.11    0.19
   4   4  -3    3.97    0.19
   4   4  -3    4.02    0.12
  -4  -4   3    4.05    0.14
  -4  -4   3    3.97    0.19
  -4  -4   3    3.93    0.13
  -4  -4   3    4.08    0.13
  -4  -4   3    3.95    0.13
  -4  -4   3    4.03    0.15
  -4  -4   3    4.02    0.19
  -4  -4   3    3.85    0.15
   3   4  -3    5.41    0.24
   3   4  -3    5.51    0.24
   3   4  -3    5.11    0.19
   3   4  -3    5.29    0.15
   3   4  -3    5.08    0.17
   3   4  -3    5.11    0.16
  -3  -4   3    5.12    0.17
  -3  -4   3    5.48    0.24
  -3  -4   3    5.17    0.17
  -3  -4   3    4.89    0.18
  -3  -4   3    5.32    0.17
  -3  -4   3    5.57    0.20
  -3  -4   3    5.33    0.16
  -3  -4   3    5.77    0.25
  -3  -4   3    5.25    0.18
   2   4  -3    4.63    0.14
   2   4  -3    4.82    0.23
   2   4  -3    5.12    0.23
   2   4  -3    4.66    0.16
  -2  -4   3    4.85    0.16
  -2  -4   3    4.71    0.15
  -2  -4   3    4.69    0.17
  -2  -4   3    4.57    0.16
  -2  -4   3    5.36    0.23
  -2  -4   3    4.57    0.16
  -2  -4   3    4.72    0.16
  -2  -4   3    4.78    0.23
   1   4  -3   52.18    1.38
   1   4  -3   52.68    1.45
   1   4  -3   52.61    2.04
  -1  -4   3   51.82    1.54
  -1  -4   3   52.04    1.38
  -1  -4   3   51.54    1.42
  -1  -4   3   53.03    1.44
  -1  -4   3   51.70    1.43
  -1  -4   3   50.06    2.04
  -1  -4   3   43.53    2.04
  -1  -4   3   51.68    1.44
   0   4  -3   14.49    0.58
   0   4  -3   13.53    0.41
   0   4  -3   12.27    0.57
   0   4  -3   13.62    0.38
   0  -4   3   13.70    0.43
   0  -4   3   13.56    0.38
   0  -4   3   14.56    0.58
   0  -4   3   13.69    0.41
   0  -4   3   13.64    0.41
   0  -4   3   12.40    0.57
   0  -4   3   13.86    0.38
   0  -4   3   13.32    0.39
  -1   4  -3   38.30    0.99
  -1   4  -3   34.41    1.47
  -1   4  -3   38.13    1.04
  -1   4  -3   33.08    1.47
   1  -4   3   38.59    1.00
   1  -4   3   32.32    1.47
   1  -4   3   38.35    0.99
   1  -4   3   38.48    1.04
   1  -4   3   35.69    1.47
  -2   4  -3    2.14    0.09
  -2   4  -3    2.23    0.14
  -2   4  -3    2.18    0.14
  -2   4  -3    2.24    0.09
  -2   4  -3    2.20    0.10
   2  -4   3    2.19    0.09
   2  -4   3    2.12    0.14
   2  -4   3    2.15    0.08
   2  -4   3    2.10    0.10
  -3   4  -3    4.78    0.17
  -3   4  -3    5.03    0.25
  -3   4  -3    4.90    0.17
  -3   4  -3    4.95    0.16
  -3   4  -3    4.83    0.25
   3  -4   3    4.80    0.25
   3  -4   3    4.63    0.18
   3  -4   3    5.03    0.16
   3  -4   3    4.89    0.17
  -4   4  -3    1.03    0.11
  -4   4  -3    0.99    0.08
  -4   4  -3    1.17    0.05
  -4   4  -3    0.95    0.08
  -4   4  -3    1.24    0.11
  -4   4  -3    0.90    0.09
   4  -4   3    1.04    0.11
   4  -4   3    1.08    0.08
   4  -4   3    0.99    0.08
  -5   4  -3    6.55    0.32
  -5   4  -3    6.37    0.23
  -5   4  -3    6.41    0.26
  -5   4  -3    6.50    0.23
  -5   4  -3    6.69    0.32
   5  -4   3    6.56    0.23
   5  -4   3    6.64    0.21
   5  -4   3    6.71    0.22
   5  -4   3    6.33    0.32
  -6   4  -3    1.47    0.12
  -6   4  -3    1.18    0.09
  -6   4  -3    1.28    0.13
  -6   4  -3    1.22    0.10
   6  -4   3    1.22    0.10
   6  -4   3    1.40    0.13
   6  -4   3    1.35    0.10
  -7   4  -3    0.28    0.05
  -7   4  -3   -0.03    0.05
  -7   4  -3    0.03    0.06
  -7   4  -3    0.06    0.06
   7  -4   3    0.06    0.06
   7  -4   3   -0.04    0.04
  -8   4  -3    1.54    0.14
  -8   4  -3    1.36    0.10
  -8   4  -3    1.71    0.15
   8  -4   3    1.52    0.13
   8  -4   3    1.53    0.12
  11   3  -3    0.46    0.07
  11   3  -3    0.44    0.07
  11   3  -3    0.40    0.08
  10   3  -3    0.13    0.05
  10   3  -3    0.19    0.06
  10   3  -3    0.22    0.05
  10   3  -3    0.23    0.07
   9   3  -3    1.55    0.13
   9   3  -3    1.85    0.11
   9   3  -3    1.67    0.10
   9   3  -3    1.68    0.11
   8   3  -3    4.98    0.18
   8   3  -3    5.24    0.21
   8   3  -3    4.76    0.16
   8   3  -3    4.59    0.20
   8   3  -3    4.95    0.17
   7   3  -3    2.08    0.09
   7   3  -3    1.95    0.09
   7   3  -3    1.95    0.09
   7   3  -3    2.00    0.12
  -7  -3   3    2.10    0.12
   6   3  -3    9.84    0.29
   6   3  -3    9.97    0.28
   6   3  -3    9.82    0.34
   6   3  -3   10.01    0.40
   6   3  -3    9.82    0.29
   6   3  -3    9.97    0.40
   6   3  -3    9.89    0.28
   6   3  -3    9.53    0.29
  -6  -3   3    9.94    0.40
  -6  -3   3    9.83    0.28
  -6  -3   3    9.62    0.32
  -6  -3   3   10.10    0.40
   5   3  -3   14.40    0.41
   5   3  -3   14.12    0.41
   5   3  -3   14.19    0.47
   5   3  -3   14.71    0.59
   5   3  -3   14.87    0.59
   5   3  -3   13.89    0.40
  -5  -3   3   14.45    0.43
  -5  -3   3   14.53    0.41
  -5  -3   3   14.63    0.43
  -5  -3   3   14.48    0.59
  -5  -3   3   14.38    0.45
   4   3  -3   22.68    0.91
   4   3  -3   22.22    0.64
   4   3  -3   22.78    0.65
   4   3  -3   22.84    0.70
   4   3  -3   22.44    0.63
   4   3  -3   22.19    0.91
  -4  -3   3   23.00    0.70
  -4  -3   3   22.69    0.64
  -4  -3   3   22.40    0.91
  -4  -3   3   22.65    0.64
  -4  -3   3   22.85    0.66
  -4  -3   3   22.82    0.65
  -4  -3   3   22.48    0.91
  -4  -3   3   22.63    0.68
   3   3  -3   19.54    0.54
   3   3  -3   17.73    0.78
   3   3  -3   19.16    0.53
   3   3  -3   19.20    0.55
   3   3  -3   19.58    0.52
   3   3  -3   19.71    0.60
   3   3  -3   19.46    0.56
   3   3  -3   18.68    0.78
  -3  -3   3   19.04    0.78
  -3  -3   3   19.44    0.57
  -3  -3   3   19.58    0.55
  -3  -3   3   19.56    0.60
  -3  -3   3   19.94    0.55
  -3  -3   3   19.03    0.56
  -3  -3   3   19.17    0.58
  -3  -3   3   18.95    0.78
  -3  -3   3   19.27    0.54
   2   3  -3    4.11    0.19
   2   3  -3    3.82    0.15
   2   3  -3    3.99    0.12
   2   3  -3    4.02    0.13
   2   3  -3    4.32    0.19
  -2  -3   3    3.67    0.19
  -2  -3   3    4.01    0.12
  -2  -3   3    4.04    0.13
  -2  -3   3    4.13    0.13
  -2  -3   3    4.05    0.13
  -2  -3   3    3.94    0.13
  -2  -3   3    4.11    0.19
   1   3  -3    7.65    0.21
   1   3  -3    7.23    0.33
   1   3  -3    7.71    0.23
   1   3  -3    6.62    0.32
  -1  -3   3    7.60    0.22
  -1  -3   3    7.87    0.33
  -1  -3   3    7.81    0.23
  -1  -3   3    7.23    0.33
  -1  -3   3    7.58    0.24
  -1  -3   3    7.77    0.25
  -1  -3   3    7.73    0.21
  -1  -3   3    7.72    0.23
  -1  -3   3    7.43    0.22
   0   3  -3    4.96    0.15
   0   3  -3    5.44    0.23
   0   3  -3    4.22    0.22
   0   3  -3    4.86    0.16
   0  -3   3    4.94    0.16
   0  -3   3    4.87    0.16
   0  -3   3    4.94    0.14
   0  -3   3    4.31    0.22
   0  -3   3    4.95    0.17
   0  -3   3    5.05    0.23
   0  -3   3    4.94    0.14
   0  -3   3    4.79    0.15
  -1   3  -3   10.51    0.47
  -1   3  -3   11.29    0.47
  -1   3  -3   10.84    0.31
  -1   3  -3   10.96    0.33
   1  -3   3   11.69    0.47
   1  -3   3   10.72    0.31
   1  -3   3   11.21    0.33
   1  -3   3   10.93    0.35
   1  -3   3   10.82    0.33
   1  -3   3   10.96    0.47
   1  -3   3   10.56    0.31
  -2   3  -3    0.03    0.03
  -2   3  -3    0.04    0.02
  -2   3  -3    0.01    0.03
  -2   3  -3    0.05    0.02
  -2   3  -3    0.06    0.03
   2  -3   3    0.03    0.02
   2  -3   3    0.04    0.02
   2  -3   3    0.03    0.02
   2  -3   3    0.03    0.03
   2  -3   3    0.04    0.04
   2  -3   3    0.02    0.02
  -3   3  -3    0.16    0.03
  -3   3  -3    0.10    0.05
  -3   3  -3    0.10    0.03
  -3   3  -3    0.19    0.02
  -3   3  -3    0.12    0.04
   3  -3   3    0.10    0.03
   3  -3   3    0.21    0.03
   3  -3   3    0.15    0.05
   3  -3   3    0.14    0.03
   3  -3   3    0.17    0.03
  -4   3  -3    2.71    0.15
  -4   3  -3    2.48    0.12
  -4   3  -3    2.53    0.09
  -4   3  -3    2.30    0.11
  -4   3  -3    2.50    0.15
  -4   3  -3    2.34    0.11
   4  -3   3    2.41    0.11
   4  -3   3    2.27    0.11
   4  -3   3    2.68    0.15
   4  -3   3    2.39    0.10
   4  -3   3    2.42    0.09
  -5   3  -3    5.03    0.18
  -5   3  -3    5.02    0.21
  -5   3  -3    5.35    0.26
  -5   3  -3    4.99    0.17
  -5   3  -3    5.31    0.19
  -5   3  -3    5.36    0.26
   5  -3   3    4.98    0.19
   5  -3   3    5.27    0.18
   5  -3   3    5.16    0.17
   5  -3   3    5.37    0.26
  -6   3  -3    0.61    0.06
  -6   3  -3    0.55    0.07
  -6   3  -3    0.56    0.08
  -6   3  -3    0.69    0.07
  -6   3  -3    0.75    0.09
   6  -3   3    0.54    0.06
   6  -3   3    0.63    0.05
   6  -3   3    0.54    0.06
   6  -3   3    0.67    0.08
  -7   3  -3    1.40    0.12
  -7   3  -3    1.43    0.13
  -7   3  -3    1.44    0.11
  -7   3  -3    1.55    0.09
   7  -3   3    1.42    0.10
   7  -3   3    1.41    0.11
  -8   3  -3    0.01    0.06
  -8   3  -3    0.05    0.05
  -8   3  -3    0.04    0.04
   8  -3   3    0.00    0.04
   8  -3   3    0.09    0.06
  -9   3  -3    0.12    0.07
  -9   3  -3    0.32    0.07
   9  -3   3    0.27    0.08
  11   2  -3   -0.01    0.06
  11   2  -3   -0.02    0.06
  11   2  -3   -0.06    0.05
  10   2  -3    0.22    0.07
  10   2  -3    0.18    0.06
  10   2  -3    0.35    0.06
  10   2  -3    0.22    0.06
   9   2  -3    3.59    0.18
   9   2  -3    3.53    0.15
   9   2  -3    3.52    0.16
   9   2  -3    3.33    0.15
   8   2  -3    3.39    0.17
   8   2  -3    3.50    0.14
   8   2  -3    3.22    0.14
   8   2  -3    3.32    0.12
   8   2  -3    3.38    0.13
   8   2  -3    3.47    0.15
   7   2  -3    0.08    0.03
   7   2  -3    0.10    0.03
   7   2  -3    0.04    0.03
   7   2  -3    0.07    0.04
   7   2  -3    0.08    0.04
   6   2  -3    0.03    0.02
   6   2  -3    0.02    0.02
   6   2  -3    0.00    0.04
   6   2  -3    0.02    0.03
   6   2  -3   -0.02    0.02
  -6  -2   3    0.02    0.04
   5   2  -3    4.56    0.13
   5   2  -3    4.53    0.19
   5   2  -3    4.31    0.17
   5   2  -3    4.41    0.14
   5   2  -3    4.42    0.14
   5   2  -3    4.27    0.17
   5   2  -3    4.54    0.14
   5   2  -3    4.47    0.14
  -5  -2   3    4.58    0.19
  -5  -2   3    4.53    0.13
  -5  -2   3    4.38    0.17
  -5  -2   3    4.33    0.16
   4   2  -3    8.70    0.25
   4   2  -3    8.54    0.35
   4   2  -3    8.66    0.24
   4   2  -3    8.43    0.25
   4   2  -3    8.64    0.28
   4   2  -3    8.72    0.29
   4   2  -3    8.37    0.35
   4   2  -3    8.56    0.27
   4   2  -3    8.42    0.25
   4   2  -3    8.59    0.26
   4   2  -3    8.84    0.29
  -4  -2   3    8.32    0.27
  -4  -2   3    8.63    0.25
  -4  -2   3    8.83    0.26
  -4  -2   3    8.63    0.35
  -4  -2   3    8.69    0.28
   3   2  -3   26.83    0.74
   3   2  -3   27.09    0.76
   3   2  -3   26.90    0.75
   3   2  -3   26.92    0.79
   3   2  -3   26.87    0.77
   3   2  -3   26.20    0.83
   3   2  -3   27.53    1.08
   3   2  -3   29.01    1.08
   3   2  -3   26.79    0.73
  -3  -2   3   27.58    0.81
  -3  -2   3   26.42    1.08
  -3  -2   3   27.51    0.83
  -3  -2   3   26.65    0.76
  -3  -2   3   26.85    0.79
  -3  -2   3   26.76    0.77
  -3  -2   3   27.41    1.08
   2   2  -3   83.40    2.31
   2   2  -3   81.24    3.26
   2   2  -3   82.44    2.47
   2   2  -3   83.78    2.39
   2   2  -3   84.89    2.30
   2   2  -3   77.65    3.26
   2   2  -3   83.74    2.21
   2   2  -3   84.63    2.25
  -2  -2   3   84.47    2.47
  -2  -2   3   84.19    2.30
  -2  -2   3   88.37    3.26
  -2  -2   3   71.85    3.26
  -2  -2   3   84.02    2.39
  -2  -2   3   82.44    2.27
  -2  -2   3   83.31    2.30
  -2  -2   3   84.18    2.31
  -2  -2   3   81.84    2.40
   1   2  -3    0.69    0.06
   1   2  -3    0.65    0.04
   1   2  -3    0.66    0.04
   1   2  -3    0.67    0.05
   1   2  -3    0.67    0.06
   1   2  -3    0.66    0.04
   1   2  -3    0.67    0.03
  -1  -2   3    0.61    0.05
  -1  -2   3    0.66    0.04
  -1  -2   3    0.63    0.04
  -1  -2   3    0.69    0.03
  -1  -2   3    0.70    0.03
  -1  -2   3    0.72    0.06
  -1  -2   3    0.63    0.04
  -1  -2   3    0.75    0.06
   0   2  -3    9.11    0.43
   0   2  -3   10.85    0.31
   0   2  -3   10.51    0.29
   0   2  -3    9.73    0.43
   0   2  -3   10.40    0.31
   0  -2   3    9.07    0.43
   0  -2   3   10.43    0.33
   0  -2   3   11.14    0.44
   0  -2   3   10.72    0.29
   0  -2   3   10.66    0.32
   0  -2   3   10.44    0.31
   0  -2   3   10.88    0.31
   0  -2   3   10.45    0.29
  -1   2  -3   10.66    0.32
  -1   2  -3   10.89    0.45
  -1   2  -3    9.94    0.45
  -1   2  -3   10.45    0.32
  -1   2  -3   10.90    0.30
   1  -2   3   10.70    0.30
   1  -2   3   10.76    0.45
   1  -2   3   10.75    0.32
   1  -2   3   10.52    0.32
   1  -2   3   11.24    0.45
   1  -2   3   10.70    0.34
  -2   2  -3   -0.01    0.02
  -2   2  -3    0.04    0.02
  -2   2  -3    0.02    0.02
  -2   2  -3    0.05    0.03
  -2   2  -3    0.01    0.03
   2  -2   3    0.08    0.03
   2  -2   3    0.01    0.03
   2  -2   3    0.03    0.02
   2  -2   3    0.02    0.02
   2  -2   3    0.01    0.02
  -3   2  -3    6.85    0.30
  -3   2  -3    6.57    0.22
  -3   2  -3    6.52    0.21
  -3   2  -3    7.47    0.31
  -3   2  -3    6.62    0.21
   3  -2   3    7.38    0.31
   3  -2   3    6.69    0.30
   3  -2   3    6.69    0.21
   3  -2   3    6.84    0.21
   3  -2   3    6.56    0.20
   3  -2   3    6.46    0.21
  -4   2  -3   25.27    0.73
  -4   2  -3   26.26    1.04
  -4   2  -3   24.30    1.04
  -4   2  -3   26.08    0.81
  -4   2  -3   25.46    0.77
  -4   2  -3   25.75    0.71
   4  -2   3   25.25    1.04
   4  -2   3   25.18    0.72
   4  -2   3   25.44    0.73
   4  -2   3   25.72    0.71
  -5   2  -3    0.17    0.04
  -5   2  -3    0.15    0.04
  -5   2  -3    0.20    0.02
  -5   2  -3    0.19    0.06
  -5   2  -3    0.19    0.05
  -5   2  -3    0.07    0.04
   5  -2   3    0.14    0.04
   5  -2   3    0.22    0.03
   5  -2   3    0.21    0.05
  -6   2  -3    3.39    0.14
  -6   2  -3    3.44    0.12
  -6   2  -3    3.61    0.19
  -6   2  -3    3.48    0.15
  -6   2  -3    3.72    0.19
  -6   2  -3    3.56    0.17
   6  -2   3    3.23    0.14
   6  -2   3    3.50    0.19
   6  -2   3    3.65    0.13
  -7   2  -3    0.80    0.10
  -7   2  -3    0.83    0.07
  -7   2  -3    0.63    0.07
  -7   2  -3    0.74    0.08
   7  -2   3    0.72    0.07
   7  -2   3    0.71    0.06
   7  -2   3    0.82    0.10
  -8   2  -3   -0.06    0.03
  -8   2  -3   -0.04    0.05
  -8   2  -3   -0.01    0.04
   8  -2   3   -0.03    0.04
   8  -2   3    0.00    0.05
  -9   2  -3    0.86    0.10
  -9   2  -3    0.86    0.10
   9  -2   3    0.82    0.09
 -10   2  -3    5.93    0.28
 -10   2  -3    5.85    0.29
  10  -2   3    5.92    0.25
  11   1  -3    0.49    0.08
  11   1  -3    0.50    0.08
  11   1  -3    0.42    0.08
  10   1  -3    2.32    0.16
  10   1  -3    1.97    0.13
  10   1  -3    1.82    0.12
  10   1  -3    2.17    0.14
   9   1  -3    0.45    0.07
   9   1  -3    0.41    0.06
   9   1  -3    0.49    0.06
   9   1  -3    0.44    0.06
   8   1  -3    1.39    0.08
   8   1  -3    1.42    0.09
   8   1  -3    1.35    0.10
   8   1  -3    1.43    0.09
   8   1  -3    1.44    0.12
   7   1  -3    0.58    0.05
   7   1  -3    0.64    0.06
   7   1  -3    0.60    0.05
   7   1  -3    0.59    0.07
   7   1  -3    0.68    0.06
   6   1  -3   -0.02    0.03
   6   1  -3    0.01    0.02
   6   1  -3   -0.02    0.02
   6   1  -3   -0.01    0.04
   5   1  -3    0.75    0.05
   5   1  -3    0.79    0.07
   5   1  -3    0.78    0.07
   5   1  -3    0.81    0.04
   4   1  -3   13.12    0.43
   4   1  -3   13.33    0.42
   4   1  -3   13.60    0.41
   4   1  -3   13.30    0.36
   4   1  -3   12.97    0.37
   4   1  -3   13.09    0.53
   4   1  -3   12.84    0.37
   4   1  -3   13.02    0.39
   4   1  -3   13.00    0.40
   4   1  -3   13.65    0.53
  -4  -1   3   12.73    0.41
  -4  -1   3   13.25    0.37
  -4  -1   3   13.29    0.53
  -4  -1   3   13.08    0.53
   3   1  -3  260.62   10.42
   3   1  -3  261.14    7.09
   3   1  -3  274.51    7.65
   3   1  -3  268.26   10.46
   3   1  -3  269.58    8.04
   3   1  -3  261.61    7.24
   3   1  -3  262.41    7.39
   3   1  -3  258.11    7.68
   3   1  -3  260.25    7.88
   3   1  -3  264.64    7.31
   3   1  -3  269.60    7.35
   3   1  -3  266.64    7.38
  -3  -1   3  263.75    7.67
  -3  -1   3  262.82    7.36
  -3  -1   3  269.36   10.46
  -3  -1   3  273.21    7.37
  -3  -1   3  263.02    7.71
   2   1  -3   28.67    0.87
   2   1  -3   28.75    0.84
   2   1  -3   28.55    0.79
   2   1  -3   30.23    1.14
   2   1  -3   28.89    0.81
   2   1  -3   26.71    1.14
   2   1  -3   28.87    0.81
   2   1  -3   29.00    0.79
   2   1  -3   28.73    0.81
  -2  -1   3   29.01    0.81
  -2  -1   3   28.59    0.85
  -2  -1   3   30.06    1.14
  -2  -1   3   29.04    0.81
  -2  -1   3   29.31    0.84
  -2  -1   3   26.66    1.14
   1   1  -3   20.16    0.57
   1   1  -3   19.19    0.81
   1   1  -3   20.41    0.57
   1   1  -3   19.85    0.59
   1   1  -3   19.58    0.61
   1   1  -3   20.06    0.57
   1   1  -3   20.77    0.81
  -1  -1   3   20.34    0.57
  -1  -1   3   20.40    0.59
  -1  -1   3   21.51    0.81
  -1  -1   3   18.32    0.81
  -1  -1   3   20.23    0.57
  -1  -1   3   20.39    0.61
  -1  -1   3   20.63    0.55
   0   1  -3   41.80    1.14
   0   1  -3   41.68    1.63
   0   1  -3   40.53    1.23
   0   1  -3   39.36    1.63
   0   1  -3   41.48    1.15
   0   1  -3   41.05    1.20
   0   1  -3   42.29    1.15
   0   1  -3   41.39    1.10
   0  -1   3   41.68    1.20
   0  -1   3   40.40    1.15
   0  -1   3   41.63    1.23
   0  -1   3   43.04    1.63
   0  -1   3   35.91    1.63
   0  -1   3   42.11    1.10
  -1   1  -3    7.03    0.21
  -1   1  -3    7.33    0.30
  -1   1  -3    7.14    0.20
  -1   1  -3    6.86    0.21
  -1   1  -3    6.51    0.30
  -1   1  -3    7.34    0.22
   1  -1   3    7.04    0.21
   1  -1   3    7.14    0.22
   1  -1   3    6.79    0.22
   1  -1   3    7.22    0.20
   1  -1   3    6.93    0.30
   1  -1   3    6.47    0.30
  -2   1  -3   26.75    0.98
  -2   1  -3   21.66    0.97
  -2   1  -3   24.11    0.69
  -2   1  -3   24.29    0.73
  -2   1  -3   23.83    0.69
  -2   1  -3   23.73    0.66
   2  -1   3   24.01    0.66
   2  -1   3   23.74    0.69
   2  -1   3   24.82    0.98
  -3   1  -3    2.03    0.08
  -3   1  -3    2.11    0.09
  -3   1  -3    1.94    0.08
  -3   1  -3    2.31    0.12
  -3   1  -3    2.16    0.08
  -3   1  -3    2.19    0.08
  -3   1  -3    2.11    0.12
   3  -1   3    1.94    0.09
   3  -1   3    2.21    0.07
   3  -1   3    2.23    0.12
   3  -1   3    1.98    0.08
   3  -1   3    2.21    0.12
   3  -1   3    2.04    0.08
  -4   1  -3    0.33    0.03
  -4   1  -3    0.17    0.04
  -4   1  -3    0.20    0.03
  -4   1  -3    0.24    0.03
  -4   1  -3    0.25    0.04
  -4   1  -3    0.23    0.03
  -4   1  -3    0.20    0.04
  -4   1  -3    0.16    0.04
   4  -1   3    0.19    0.04
   4  -1   3    0.25    0.02
   4  -1   3    0.25    0.05
   4  -1   3    0.22    0.03
   4  -1   3    0.25    0.04
   4  -1   3    0.24    0.03
  -5   1  -3    0.23    0.03
  -5   1  -3    0.15    0.04
  -5   1  -3    0.19    0.03
  -5   1  -3    0.13    0.04
  -5   1  -3    0.16    0.04
  -5   1  -3    0.22    0.04
   5  -1   3    0.08    0.04
   5  -1   3    0.21    0.03
   5  -1   3    0.15    0.03
   5  -1   3    0.21    0.04
   5  -1   3    0.19    0.03
  -6   1  -3    0.24    0.05
  -6   1  -3    0.13    0.03
  -6   1  -3    0.18    0.03
  -6   1  -3    0.24    0.05
  -6   1  -3    0.20    0.05
   6  -1   3    0.27    0.03
   6  -1   3    0.22    0.05
   6  -1   3    0.17    0.04
   6  -1   3    0.24    0.03
  -7   1  -3    3.43    0.17
  -7   1  -3    3.49    0.13
  -7   1  -3    3.51    0.19
  -7   1  -3    3.51    0.19
   7  -1   3    3.55    0.13
   7  -1   3    3.59    0.18
   7  -1   3    3.51    0.14
   7  -1   3    3.49    0.13
  -8   1  -3    1.50    0.13
  -8   1  -3    1.39    0.11
  -8   1  -3    1.57    0.08
   8  -1   3    1.35    0.08
   8  -1   3    1.47    0.09
  -9   1  -3    0.10    0.05
  -9   1  -3    0.01    0.06
   9  -1   3    0.14    0.06
 -10   1  -3    2.13    0.17
 -10   1  -3    1.97    0.13
  10  -1   3    2.06    0.16
  10  -1   3    2.61    0.15
  10   0  -3    0.64    0.09
  10   0  -3    0.84    0.08
  10   0  -3    0.72    0.08
   9   0  -3    0.02    0.05
   9   0  -3    0.41    0.05
   9   0  -3    0.07    0.04
   8   0  -3    3.26    0.14
   8   0  -3    3.54    0.15
   8   0  -3    3.21    0.14
  -8   0   3    3.54    0.18
   7   0  -3    1.32    0.08
   7   0  -3    1.26    0.08
   7   0  -3    1.26    0.09
   7   0  -3    1.18    0.08
  -7   0   3    0.78    0.08
   6   0  -3    0.96    0.07
   6   0  -3    0.78    0.07
   6   0  -3    1.00    0.06
  -6   0   3    0.67    0.05
  -6   0   3    0.65    0.07
   5   0  -3   16.90    0.53
   5   0  -3   16.57    0.46
   5   0  -3   16.18    0.49
   5   0  -3   16.01    0.47
  -5   0   3   16.18    0.53
  -5   0   3   16.29    0.46
   4   0  -3   23.90    0.68
   4   0  -3   23.94    0.72
   4   0  -3   23.67    0.68
   4   0  -3   24.12    0.96
   4   0  -3   24.74    0.76
   4   0  -3   24.06    0.70
   4   0  -3   25.15    0.73
   4   0  -3   24.49    0.66
  -4   0   3   24.72    0.76
  -4   0   3   24.81    0.96
  -4   0   3   23.93    0.96
  -4   0   3   24.26    0.66
   3   0  -3   25.73    0.70
   3   0  -3   24.63    1.01
   3   0  -3   25.06    0.75
   3   0  -3   25.36    0.79
   3   0  -3   25.55    0.75
   3   0  -3   25.85    0.72
   3   0  -3   25.67    0.69
   3   0  -3   25.03    1.01
   3   0  -3   25.46    0.71
  -3   0   3   25.80    0.79
  -3   0   3   25.65    0.71
  -3   0   3   26.03    0.75
  -3   0   3   24.88    1.01
  -3   0   3   25.50    0.69
  -3   0   3   24.85    0.75
   2   0  -3    1.76    0.07
   2   0  -3    1.68    0.08
   2   0  -3    1.78    0.06
   2   0  -3    1.85    0.09
   2   0  -3    1.82    0.07
   2   0  -3    1.82    0.06
   2   0  -3    1.87    0.07
   2   0  -3    1.85    0.06
   2   0  -3    1.77    0.09
   2   0  -3    1.83    0.07
  -2   0   3    1.89    0.07
  -2   0   3    1.69    0.09
  -2   0   3    1.83    0.06
  -2   0   3    1.89    0.09
  -2   0   3    1.79    0.07
  -2   0   3    1.76    0.06
  -2   0   3    1.83    0.07
   1   0  -3   51.95    2.09
   1   0  -3   53.09    1.45
   1   0  -3   53.79    1.61
   1   0  -3   52.63    1.47
   1   0  -3   52.49    1.58
   1   0  -3   53.25    1.47
   1   0  -3   55.75    2.09
   1   0  -3   52.30    1.53
  -1   0   3   53.00    1.45
  -1   0   3   54.35    1.42
  -1   0   3   48.43    2.09
  -1   0   3   52.87    1.47
  -1   0   3   52.97    1.53
   0   0  -3    3.70    0.16
   0   0  -3    3.47    0.12
   0   0  -3    3.52    0.11
   0   0  -3    3.55    0.12
   0   0  -3    3.48    0.10
   0   0  -3    3.55    0.16
   0   0   3    3.46    0.16
   0   0   3    3.38    0.10
   0   0   3    3.43    0.12
   0   0   3    3.35    0.12
  -1   0  -3  425.15   11.96
  -1   0  -3  424.23   12.45
  -1   0  -3  447.36   16.97
  -1   0  -3  422.95   12.80
  -1   0  -3  433.28   12.86
  -1   0  -3  395.68   16.94
   1   0   3  424.16   11.96
   1   0   3  427.31   12.45
   1   0   3  425.63   11.86
   1   0   3  452.49   16.98
   1   0   3  428.37   12.80
   1   0   3  420.59   12.86
   1   0   3  430.82   11.49
   1   0   3  463.71   16.97
  -2   0  -3  138.79    4.07
  -2   0  -3  131.93    5.34
  -2   0  -3  137.55    3.77
  -2   0  -3  136.25    4.13
  -2   0  -3  136.78    3.76
   2   0   3  138.59    4.05
   2   0   3  139.40    3.92
   2   0   3  137.67    3.63
   2   0   3  132.73    5.34
   2   0   3  121.97    5.34
   2   0   3  139.32    4.05
   2   0   3  136.72    3.77
   2   0   3  138.00    3.74
  -3   0  -3   24.08    1.07
  -3   0  -3   26.61    0.75
  -3   0  -3   27.26    0.74
  -3   0  -3   26.30    1.07
  -3   0  -3   27.17    0.83
  -3   0  -3   26.89    0.76
  -3   0  -3   27.48    0.81
   3   0   3   26.29    1.07
   3   0   3   26.71    0.81
   3   0   3   27.15    0.79
   3   0   3   27.14    0.76
   3   0   3   26.52    1.07
  -4   0  -3   36.90    1.12
  -4   0  -3   35.72    1.08
  -4   0  -3   36.34    1.04
  -4   0  -3   36.92    1.04
  -4   0  -3   35.89    1.47
  -4   0  -3   36.51    1.14
  -4   0  -3   40.62    1.48
   4   0   3   36.02    1.04
   4   0   3   36.19    1.03
   4   0   3   37.54    1.47
   4   0   3   37.78    1.47
   4   0   3   35.98    1.11
  -5   0  -3    5.85    0.22
  -5   0  -3    5.93    0.20
  -5   0  -3    5.95    0.19
  -5   0  -3    6.53    0.27
  -5   0  -3    5.90    0.27
  -5   0  -3    5.81    0.19
   5   0   3    6.56    0.27
   5   0   3    5.95    0.19
   5   0   3    6.27    0.27
   5   0   3    5.89    0.19
   5   0   3    5.72    0.18
   5   0   3    5.82    0.20
  -6   0  -3    0.37    0.05
  -6   0  -3    0.38    0.05
  -6   0  -3    0.42    0.04
  -6   0  -3    0.46    0.06
  -6   0  -3    0.40    0.03
  -6   0  -3    0.42    0.04
   6   0   3    0.41    0.04
   6   0   3    0.39    0.04
   6   0   3    0.40    0.04
   6   0   3    0.45    0.06
  -7   0  -3   21.23    0.70
  -7   0  -3   21.11    0.66
  -7   0  -3   21.76    0.88
  -7   0  -3   21.03    0.88
  -7   0  -3   21.22    0.62
   7   0   3   21.17    0.62
   7   0   3   22.37    0.88
   7   0   3   21.43    0.67
   7   0   3   21.61    0.62
  -8   0  -3    7.94    0.25
  -8   0  -3    8.01    0.35
  -8   0  -3    8.35    0.31
   8   0   3    8.17    0.27
   8   0   3    7.38    0.28
   8   0   3    7.66    0.25
  -9   0  -3    3.60    0.19
  -9   0  -3    3.65    0.19
  -9   0  -3    3.83    0.14
   9   0   3    3.87    0.16
   9   0   3    3.89    0.18
 -10   0  -3    1.05    0.09
 -10   0  -3    1.09    0.11
  10   0   3    1.17    0.11
 -11   0  -3    1.83    0.17
  11   0   3    1.82    0.14
  11   0   3    2.24    0.17
  10  -1  -3    1.68    0.13
  10  -1  -3    1.65    0.14
 -10   1   3    1.57    0.15
   9  -1  -3    0.07    0.06
   9  -1  -3    0.05    0.04
  -9   1   3    0.05    0.06
   8  -1  -3    2.13    0.12
   8  -1  -3    2.08    0.10
   8  -1  -3    1.98    0.11
  -8   1   3    2.11    0.15
   7  -1  -3   -0.07    0.04
   7  -1  -3   -0.04    0.04
   7  -1  -3   -0.01    0.03
  -7   1   3    0.08    0.06
  -7   1   3   -0.05    0.04
   6  -1  -3   27.28    0.78
   6  -1  -3   26.85    0.82
   6  -1  -3   27.70    0.76
  -6   1   3   27.54    0.88
  -6   1   3   27.87    0.76
   5  -1  -3   31.80    0.86
   5  -1  -3   30.91    0.93
   5  -1  -3   31.14    0.87
   5  -1  -3   31.15    0.88
   5  -1  -3   30.70    0.87
   5  -1  -3   31.91    1.24
   5  -1  -3   31.79    1.24
  -5   1   3   30.79    1.24
  -5   1   3   30.78    0.86
  -5   1   3   31.28    0.99
  -5   1   3   31.91    1.24
   4  -1  -3    0.85    0.06
   4  -1  -3    0.94    0.06
   4  -1  -3    0.91    0.07
   4  -1  -3    0.92    0.04
   4  -1  -3    0.89    0.04
   4  -1  -3    0.90    0.06
   4  -1  -3    0.88    0.05
   4  -1  -3    0.91    0.06
   4  -1  -3    0.91    0.05
   4  -1  -3    0.96    0.06
  -4   1   3    0.93    0.05
  -4   1   3    0.87    0.07
  -4   1   3    0.91    0.05
  -4   1   3    0.87    0.06
   3  -1  -3   21.17    0.62
   3  -1  -3   20.01    0.61
   3  -1  -3   20.47    0.58
   3  -1  -3   20.90    0.65
   3  -1  -3   20.69    0.56
   3  -1  -3   20.02    0.58
   3  -1  -3   21.34    0.83
   3  -1  -3   20.26    0.83
  -3   1   3   20.44    0.57
  -3   1   3   20.72    0.65
  -3   1   3   20.99    0.83
  -3   1   3   21.22    0.58
   2  -1  -3    4.42    0.14
   2  -1  -3    4.45    0.13
   2  -1  -3    4.78    0.15
   2  -1  -3    4.62    0.19
   2  -1  -3    4.34    0.15
   2  -1  -3    4.30    0.19
   2  -1  -3    4.41    0.14
   2  -1  -3    4.41    0.15
  -2   1   3    4.47    0.19
  -2   1   3    4.40    0.14
  -2   1   3    4.52    0.15
  -2   1   3    4.35    0.15
  -2   1   3    4.48    0.15
  -2   1   3    4.87    0.20
  -2   1   3    4.46    0.13
   1  -1  -3    4.64    0.15
   1  -1  -3    4.60    0.13
   1  -1  -3    4.45    0.15
   1  -1  -3    4.55    0.14
   1  -1  -3    4.69    0.13
   1  -1  -3    4.65    0.20
   1  -1  -3    4.69    0.20
   1  -1  -3    4.49    0.14
   1  -1  -3    4.66    0.15
  -1   1   3    4.54    0.14
  -1   1   3    4.17    0.20
  -1   1   3    4.79    0.15
  -1   1   3    4.66    0.13
  -1   1   3    4.57    0.13
  -1   1   3    4.66    0.15
  -1   1   3    3.76    0.20
  -1   1   3    4.59    0.15
   0  -1  -3   47.11    1.36
   0  -1  -3   42.07    1.79
   0  -1  -3   43.81    1.32
   0  -1  -3   49.29    1.79
   0  -1  -3   45.63    1.27
   0  -1  -3   45.90    1.25
   0   1   3   45.95    1.25
   0   1   3   43.97    1.36
   0   1   3   43.51    1.79
   0   1   3   44.91    1.32
   0   1   3   44.76    1.26
   0   1   3   46.20    1.37
  -1  -1  -3  112.73    3.24
  -1  -1  -3  102.76    4.27
  -1  -1  -3  111.43    3.01
  -1  -1  -3  110.68    3.23
  -1  -1  -3  109.83    2.99
  -1  -1  -3  109.90    3.13
  -1  -1  -3   98.59    4.27
   1   1   3  115.93    4.27
   1   1   3  112.18    3.29
   1   1   3  112.29    3.13
   1   1   3  109.62    3.01
   1   1   3  110.85    2.99
   1   1   3   92.18    4.27
   1   1   3  109.62    3.24
  -2  -1  -3   30.47    0.92
  -2  -1  -3   30.27    0.85
  -2  -1  -3   29.99    0.86
  -2  -1  -3   29.90    0.89
  -2  -1  -3   30.53    0.93
  -2  -1  -3   32.32    1.21
   2   1   3   30.06    0.89
   2   1   3   29.97    0.85
   2   1   3   30.04    0.93
   2   1   3   30.31    1.21
   2   1   3   30.00    0.90
   2   1   3   30.54    0.86
   2   1   3   30.51    0.92
  -3  -1  -3   10.14    0.46
  -3  -1  -3   11.13    0.32
  -3  -1  -3   11.29    0.46
  -3  -1  -3   11.04    0.35
  -3  -1  -3   11.69    0.35
  -3  -1  -3   11.08    0.32
   3   1   3   11.13    0.35
   3   1   3   11.26    0.35
   3   1   3   11.47    0.34
   3   1   3   11.11    0.32
   3   1   3   11.28    0.46
   3   1   3    9.57    0.46
  -4  -1  -3   15.03    0.45
  -4  -1  -3   15.44    0.49
  -4  -1  -3   15.32    0.44
  -4  -1  -3   15.80    0.63
  -4  -1  -3   15.28    0.63
  -4  -1  -3   15.55    0.48
   4   1   3   15.26    0.45
   4   1   3   15.14    0.45
   4   1   3   15.99    0.64
   4   1   3   15.84    0.47
   4   1   3   15.48    0.49
   4   1   3   15.37    0.48
   4   1   3   15.38    0.44
   4   1   3   16.06    0.64
  -5  -1  -3    4.07    0.19
  -5  -1  -3    4.17    0.14
  -5  -1  -3    4.09    0.14
  -5  -1  -3    4.10    0.19
  -5  -1  -3    4.25    0.15
  -5  -1  -3    4.23    0.16
  -5  -1  -3    4.14    0.14
   5   1   3    4.34    0.14
   5   1   3    4.08    0.19
   5   1   3    3.94    0.19
   5   1   3    4.09    0.15
   5   1   3    4.21    0.15
   5   1   3    4.15    0.14
   5   1   3    4.10    0.14
   5   1   3    4.20    0.16
  -6  -1  -3    3.92    0.13
  -6  -1  -3    4.01    0.19
  -6  -1  -3    3.86    0.16
  -6  -1  -3    3.89    0.15
  -6  -1  -3    3.86    0.14
  -6  -1  -3    3.97    0.19
  -6  -1  -3    4.18    0.14
   6   1   3    4.17    0.19
   6   1   3    4.06    0.19
   6   1   3    4.13    0.15
   6   1   3    3.99    0.15
   6   1   3    4.06    0.15
   6   1   3    3.94    0.14
   6   1   3    3.91    0.14
  -7  -1  -3    1.31    0.07
  -7  -1  -3    1.25    0.10
  -7  -1  -3    1.18    0.09
  -7  -1  -3    0.99    0.09
  -7  -1  -3    1.09    0.07
  -7  -1  -3    1.28    0.06
   7   1   3    1.27    0.07
   7   1   3    1.31    0.09
   7   1   3    1.22    0.08
   7   1   3    1.19    0.07
   7   1   3    1.31    0.09
  -8  -1  -3    7.62    0.24
  -8  -1  -3    7.60    0.29
  -8  -1  -3    7.63    0.34
  -8  -1  -3    7.59    0.34
   8   1   3    7.48    0.24
   8   1   3    7.72    0.27
   8   1   3    7.53    0.27
   8   1   3    7.70    0.33
  -9  -1  -3    0.50    0.07
  -9  -1  -3    0.41    0.05
  -9  -1  -3    0.47    0.04
   9   1   3    0.47    0.06
   9   1   3    0.45    0.07
 -10  -1  -3    1.91    0.11
 -10  -1  -3    2.02    0.15
  10   1   3    1.65    0.14
  11   1   3   -0.03    0.07
  10  -2  -3   -0.10    0.06
  10  -2  -3   -0.06    0.07
 -10   2   3   -0.06    0.07
   9  -2  -3    0.04    0.05
   9  -2  -3    0.06    0.07
   9  -2  -3    0.09    0.06
  -9   2   3    0.02    0.06
   8  -2  -3    0.03    0.05
   8  -2  -3   -0.12    0.04
  -8   2   3   -0.03    0.06
  -8   2   3   -0.05    0.04
   7  -2  -3   11.24    0.37
   7  -2  -3   11.34    0.35
   7  -2  -3   11.53    0.36
  -7   2   3   11.22    0.35
  -7   2   3   10.67    0.45
  -7   2   3   11.22    0.40
  -7   2   3   11.03    0.45
   6  -2  -3    3.57    0.15
   6  -2  -3    3.60    0.17
   6  -2  -3    3.70    0.12
   6  -2  -3    3.66    0.12
   6  -2  -3    3.94    0.15
   6  -2  -3    3.56    0.16
   6  -2  -3    3.68    0.17
  -6   2   3    3.65    0.17
  -6   2   3    3.64    0.15
  -6   2   3    3.76    0.17
  -6   2   3    3.68    0.17
   5  -2  -3    4.55    0.17
   5  -2  -3    4.73    0.14
   5  -2  -3    4.55    0.17
   5  -2  -3    4.54    0.15
   5  -2  -3    4.66    0.21
   5  -2  -3    4.83    0.20
   5  -2  -3    4.52    0.15
  -5   2   3    4.65    0.21
  -5   2   3    4.64    0.19
  -5   2   3    4.57    0.16
  -5   2   3    4.67    0.20
   4  -2  -3    0.01    0.02
   4  -2  -3    0.02    0.02
   4  -2  -3    0.00    0.03
   4  -2  -3   -0.01    0.02
   4  -2  -3    0.00    0.02
   4  -2  -3   -0.06    0.03
   4  -2  -3    0.02    0.02
   4  -2  -3    0.00    0.02
  -4   2   3   -0.03    0.03
  -4   2   3   -0.02    0.02
  -4   2   3    0.00    0.03
  -4   2   3   -0.01    0.02
   3  -2  -3    2.03    0.11
   3  -2  -3    1.98    0.08
   3  -2  -3    2.02    0.07
   3  -2  -3    1.92    0.07
   3  -2  -3    2.03    0.08
   3  -2  -3    2.04    0.07
   3  -2  -3    1.89    0.09
   3  -2  -3    2.04    0.08
   3  -2  -3    2.13    0.10
  -3   2   3    2.07    0.09
  -3   2   3    2.08    0.08
  -3   2   3    2.02    0.08
  -3   2   3    1.94    0.11
  -3   2   3    2.07    0.10
   2  -2  -3  137.90    5.52
   2  -2  -3  140.07    4.06
   2  -2  -3  139.95    3.83
   2  -2  -3  141.61    3.88
   2  -2  -3  144.75    4.19
   2  -2  -3  143.94    3.91
   2  -2  -3  142.23    3.90
   2  -2  -3  144.30    4.06
   2  -2  -3  141.88    3.76
   2  -2  -3  130.74    5.52
  -2   2   3  143.80    3.77
  -2   2   3  132.60    5.52
  -2   2   3  142.73    4.27
  -2   2   3  141.27    3.84
  -2   2   3  140.18    5.52
   1  -2  -3   16.90    0.51
   1  -2  -3   16.70    0.48
   1  -2  -3   17.00    0.46
   1  -2  -3   17.15    0.47
   1  -2  -3   17.22    0.48
   1  -2  -3   17.31    0.50
   1  -2  -3   14.89    0.68
   1  -2  -3   17.38    0.52
   1  -2  -3   15.71    0.68
  -1   2   3   17.19    0.46
  -1   2   3   16.86    0.50
  -1   2   3   17.72    0.69
  -1   2   3   17.10    0.47
  -1   2   3   17.09    0.52
  -1   2   3   17.55    0.68
   0  -2  -3    0.01    0.01
   0  -2  -3    0.02    0.02
   0  -2  -3    0.01    0.02
   0  -2  -3    0.02    0.02
   0  -2  -3    0.04    0.03
   0  -2  -3    0.03    0.02
   0   2   3    0.02    0.01
   0   2   3    0.04    0.03
   0   2   3    0.01    0.02
   0   2   3    0.04    0.02
   0   2   3    0.00    0.02
   0   2   3    0.00    0.01
   0   2   3    0.07    0.01
   0   2   3    0.02    0.01
  -1  -2  -3   41.41    1.68
  -1  -2  -3   42.32    1.28
  -1  -2  -3   41.09    1.24
  -1  -2  -3   42.17    1.18
  -1  -2  -3   45.31    1.69
  -1  -2  -3   42.13    1.19
   1   2   3   41.15    1.68
   1   2   3   42.48    1.28
   1   2   3   41.57    1.19
   1   2   3   41.81    1.18
   1   2   3   42.75    1.24
   1   2   3   45.11    1.69
  -2  -2  -3   17.06    0.52
  -2  -2  -3   17.37    0.71
  -2  -2  -3   17.59    0.50
  -2  -2  -3   17.54    0.50
  -2  -2  -3   17.97    0.54
  -2  -2  -3   17.00    0.71
   2   2   3   17.56    0.50
   2   2   3   16.49    0.71
   2   2   3   18.51    0.71
   2   2   3   17.87    0.52
   2   2   3   17.40    0.50
   2   2   3   17.85    0.54
  -3  -2  -3   45.04    1.24
  -3  -2  -3   43.57    1.77
  -3  -2  -3   44.73    1.29
  -3  -2  -3   44.74    1.29
  -3  -2  -3   47.26    1.34
  -3  -2  -3   45.68    1.25
  -3  -2  -3   37.39    1.76
   3   2   3   45.72    1.34
   3   2   3   44.47    1.77
   3   2   3   45.72    1.36
   3   2   3   44.84    1.25
   3   2   3   42.38    1.77
   3   2   3   45.13    1.24
   3   2   3   46.13    1.29
  -4  -2  -3    6.20    0.25
  -4  -2  -3    5.46    0.25
  -4  -2  -3    5.45    0.17
  -4  -2  -3    5.50    0.17
  -4  -2  -3    5.63    0.19
   4   2   3    5.41    0.18
   4   2   3    5.49    0.17
   4   2   3    5.29    0.25
   4   2   3    5.57    0.19
   4   2   3    5.51    0.18
   4   2   3    5.53    0.19
   4   2   3    5.68    0.17
   4   2   3    5.75    0.25
  -5  -2  -3    2.93    0.12
  -5  -2  -3    2.95    0.11
  -5  -2  -3    3.17    0.15
  -5  -2  -3    2.89    0.15
  -5  -2  -3    3.01    0.11
   5   2   3    2.84    0.12
   5   2   3    3.18    0.12
   5   2   3    2.95    0.12
   5   2   3    2.94    0.15
   5   2   3    3.03    0.11
   5   2   3    2.89    0.11
   5   2   3    2.99    0.12
   5   2   3    3.16    0.15
  -6  -2  -3    1.62    0.08
  -6  -2  -3    1.53    0.07
  -6  -2  -3    1.57    0.10
  -6  -2  -3    1.65    0.10
  -6  -2  -3    1.59    0.08
  -6  -2  -3    1.70    0.10
   6   2   3    1.63    0.09
   6   2   3    1.55    0.07
   6   2   3    1.63    0.10
   6   2   3    1.57    0.09
   6   2   3    1.64    0.10
   6   2   3    1.52    0.07
   6   2   3    1.65    0.09
  -7  -2  -3    7.03    0.26
  -7  -2  -3    7.17    0.22
  -7  -2  -3    6.90    0.31
  -7  -2  -3    6.94    0.31
  -7  -2  -3    6.87    0.22
  -7  -2  -3    7.18    0.23
   7   2   3    7.25    0.24
   7   2   3    7.20    0.31
   7   2   3    7.00    0.22
   7   2   3    7.09    0.25
   7   2   3    7.46    0.23
  -8  -2  -3   19.45    0.56
  -8  -2  -3   20.05    0.58
  -8  -2  -3   19.80    0.57
  -8  -2  -3   19.49    0.80
   8   2   3   19.63    0.80
   8   2   3   19.73    0.62
   8   2   3   19.92    0.59
   8   2   3   19.17    0.59
  -9  -2  -3    1.79    0.08
  -9  -2  -3    1.98    0.12
   9   2   3    1.96    0.11
   9   2   3    2.04    0.13
   9   2   3    1.85    0.12
 -10  -2  -3    3.85    0.18
  10   2   3    3.96    0.19
  10   2   3    3.99    0.18
  10   2   3    4.03    0.18
  11   2   3   -0.05    0.07
   9  -3  -3    0.38    0.07
   9  -3  -3    0.39    0.09
   9  -3  -3    0.50    0.08
  -9   3   3    0.48    0.07
  -9   3   3    0.48    0.09
   8  -3  -3    2.63    0.15
   8  -3  -3    2.35    0.14
   8  -3  -3    2.74    0.14
  -8   3   3    2.37    0.12
  -8   3   3    2.61    0.17
  -8   3   3    2.72    0.13
   7  -3  -3    0.04    0.06
   7  -3  -3   -0.10    0.05
   7  -3  -3   -0.05    0.04
  -7   3   3   -0.06    0.05
  -7   3   3   -0.03    0.03
  -7   3   3   -0.08    0.04
   6  -3  -3   12.38    0.38
   6  -3  -3   12.28    0.51
   6  -3  -3   12.42    0.38
   6  -3  -3   12.21    0.38
   6  -3  -3   12.21    0.40
   6  -3  -3   12.25    0.36
  -6   3   3   12.17    0.37
  -6   3   3   12.25    0.51
  -6   3   3   12.37    0.43
   5  -3  -3    0.63    0.06
   5  -3  -3    0.59    0.05
   5  -3  -3    0.60    0.07
   5  -3  -3    0.45    0.05
   5  -3  -3    0.44    0.04
   5  -3  -3    0.46    0.06
  -5   3   3    0.64    0.07
  -5   3   3    0.47    0.06
  -5   3   3    0.49    0.05
  -5   3   3    0.45    0.06
   4  -3  -3   10.33    0.33
   4  -3  -3   10.20    0.30
   4  -3  -3   10.29    0.32
   4  -3  -3   10.51    0.43
   4  -3  -3   10.02    0.31
   4  -3  -3   10.04    0.32
   4  -3  -3    9.94    0.43
   4  -3  -3   10.08    0.30
  -4   3   3   10.06    0.43
  -4   3   3   10.34    0.35
  -4   3   3   10.37    0.43
  -4   3   3   10.29    0.30
   3  -3  -3   19.99    0.60
   3  -3  -3   19.76    0.57
   3  -3  -3   18.90    0.81
   3  -3  -3   19.93    0.60
   3  -3  -3   21.07    0.81
   3  -3  -3   20.20    0.57
   3  -3  -3   20.42    0.55
   3  -3  -3   20.15    0.61
  -3   3   3   20.52    0.81
  -3   3   3   19.81    0.63
  -3   3   3   19.07    0.81
  -3   3   3   19.54    0.57
  -3   3   3   19.71    0.55
   2  -3  -3   39.27    1.72
   2  -3  -3   43.65    1.20
   2  -3  -3   42.87    1.27
   2  -3  -3   44.02    1.21
   2  -3  -3   43.97    1.17
   2  -3  -3   43.68    1.27
   2  -3  -3   43.66    1.22
   2  -3  -3   41.51    1.72
   2  -3  -3   44.22    1.30
  -2   3   3   44.34    1.34
  -2   3   3   44.41    1.73
  -2   3   3   43.88    1.20
  -2   3   3   43.00    1.17
  -2   3   3   45.00    1.73
   1  -3  -3    7.23    0.22
   1  -3  -3    6.95    0.20
   1  -3  -3    7.12    0.29
   1  -3  -3    6.76    0.21
   1  -3  -3    6.70    0.29
   1  -3  -3    6.88    0.21
   1  -3  -3    6.80    0.22
   1  -3  -3    6.80    0.20
  -1   3   3    7.00    0.20
  -1   3   3    5.77    0.29
  -1   3   3    6.38    0.29
  -1   3   3    7.00    0.22
  -1   3   3    6.70    0.20
   0  -3  -3   59.03    1.74
   0  -3  -3   60.69    2.30
   0  -3  -3   57.89    1.61
   0  -3  -3   57.26    1.69
   0  -3  -3   57.51    2.30
   0   3   3   60.06    2.30
   0   3   3   58.88    1.59
   0   3   3   51.33    2.30
   0   3   3   57.82    1.61
   0   3   3   58.98    1.74
   0   3   3   59.02    1.56
  -1  -3  -3  176.83    4.88
  -1  -3  -3  176.27    4.91
  -1  -3  -3  183.65    5.28
  -1  -3  -3  165.53    6.96
  -1  -3  -3  178.67    5.11
   1   3   3  171.69    6.96
   1   3   3  183.66    5.11
   1   3   3  178.66    4.88
   1   3   3  179.28    5.31
  -2  -3  -3    4.00    0.14
  -2  -3  -3    4.08    0.14
  -2  -3  -3    4.25    0.19
  -2  -3  -3    4.22    0.15
  -2  -3  -3    4.24    0.20
  -2  -3  -3    3.94    0.13
   2   3   3    4.48    0.20
   2   3   3    4.43    0.19
   2   3   3    4.10    0.15
   2   3   3    4.11    0.14
  -3  -3  -3    0.01    0.02
  -3  -3  -3    0.00    0.01
  -3  -3  -3   -0.01    0.02
  -3  -3  -3    0.00    0.03
  -3  -3  -3   -0.02    0.03
  -3  -3  -3   -0.02    0.02
  -3  -3  -3    0.00    0.02
   3   3   3    0.00    0.03
   3   3   3   -0.01    0.02
   3   3   3   -0.01    0.02
   3   3   3    0.00    0.03
   3   3   3   -0.02    0.02
  -4  -3  -3    6.40    0.20
  -4  -3  -3    6.52    0.22
  -4  -3  -3    6.48    0.20
  -4  -3  -3    7.10    0.29
  -4  -3  -3    6.71    0.29
  -4  -3  -3    6.51    0.20
   4   3   3    6.67    0.28
   4   3   3    6.40    0.22
   4   3   3    6.21    0.20
   4   3   3    5.85    0.28
   4   3   3    6.56    0.20
   4   3   3    6.51    0.22
  -5  -3  -3    5.34    0.24
  -5  -3  -3    5.61    0.24
  -5  -3  -3    5.07    0.17
  -5  -3  -3    5.21    0.17
  -5  -3  -3    4.98    0.18
  -5  -3  -3    5.45    0.19
   5   3   3    5.60    0.24
   5   3   3    5.22    0.17
   5   3   3    4.91    0.18
   5   3   3    5.47    0.24
   5   3   3    5.16    0.19
   5   3   3    5.13    0.16
   5   3   3    5.25    0.19
  -6  -3  -3    0.17    0.04
  -6  -3  -3    0.15    0.03
  -6  -3  -3    0.12    0.04
  -6  -3  -3    0.18    0.03
   6   3   3    0.19    0.04
   6   3   3    0.15    0.04
   6   3   3    0.17    0.02
   6   3   3    0.15    0.04
   6   3   3    0.14    0.04
   6   3   3    0.15    0.03
  -7  -3  -3    3.41    0.17
  -7  -3  -3    3.55    0.12
  -7  -3  -3    3.18    0.17
  -7  -3  -3    3.33    0.13
   7   3   3    3.30    0.12
   7   3   3    3.19    0.14
   7   3   3    3.55    0.15
   7   3   3    3.38    0.17
   7   3   3    3.32    0.12
  -8  -3  -3    0.27    0.05
  -8  -3  -3    0.40    0.03
  -8  -3  -3    0.25    0.05
  -8  -3  -3    0.28    0.04
  -8  -3  -3    0.23    0.05
   8   3   3    0.24    0.05
   8   3   3    0.39    0.04
   8   3   3    0.28    0.06
   8   3   3    0.28    0.04
   8   3   3    0.22    0.05
  -9  -3  -3    0.51    0.04
  -9  -3  -3    0.52    0.06
  -9  -3  -3    0.43    0.05
   9   3   3    0.45    0.06
   9   3   3    0.48    0.05
   9   3   3    0.33    0.07
 -10  -3  -3   12.56    0.53
 -10  -3  -3   13.09    0.41
  10   3   3   12.88    0.44
  10   3   3   13.44    0.43
  11   3   3    1.54    0.12
  11   3   3    1.43    0.12
   9  -4  -3   -0.05    0.07
   9  -4  -3   -0.10    0.05
  -9   4   3    0.02    0.07
   8  -4  -3    0.15    0.08
   8  -4  -3    0.12    0.06
   8  -4  -3    0.27    0.06
  -8   4   3    0.19    0.07
  -8   4   3    0.14    0.06
  -8   4   3    0.24    0.05
   7  -4  -3    0.65    0.09
   7  -4  -3    0.53    0.07
   7  -4  -3    0.53    0.07
  -7   4   3    0.60    0.07
  -7   4   3    0.42    0.07
  -7   4   3    0.67    0.07
   6  -4  -3    1.31    0.11
   6  -4  -3    1.15    0.09
   6  -4  -3    1.28    0.11
  -6   4   3    1.18    0.09
  -6   4   3    1.30    0.11
  -6   4   3    1.24    0.12
   5  -4  -3    3.79    0.17
   5  -4  -3    4.03    0.16
   5  -4  -3    3.69    0.20
   5  -4  -3    3.88    0.13
  -5   4   3    4.13    0.15
  -5   4   3    4.03    0.19
  -5   4   3    3.66    0.20
  -5   4   3    3.60    0.17
   4  -4  -3   77.68    2.17
   4  -4  -3   72.98    2.18
   4  -4  -3   71.73    2.94
   4  -4  -3   75.65    2.21
   4  -4  -3   75.05    2.05
   4  -4  -3   74.42    2.01
   4  -4  -3   73.54    2.08
  -4   4   3   75.23    2.94
  -4   4   3   73.33    2.94
  -4   4   3   73.62    2.29
  -4   4   3   72.89    2.01
   3  -4  -3    0.97    0.08
   3  -4  -3    0.93    0.06
   3  -4  -3    0.85    0.06
   3  -4  -3    0.92    0.06
   3  -4  -3    0.86    0.04
   3  -4  -3    0.86    0.07
  -3   4   3    0.89    0.09
  -3   4   3    0.86    0.06
  -3   4   3    1.01    0.08
  -3   4   3    0.88    0.08
   2  -4  -3    4.99    0.16
   2  -4  -3    4.87    0.16
   2  -4  -3    4.97    0.16
   2  -4  -3    4.82    0.16
   2  -4  -3    5.10    0.16
   2  -4  -3    4.77    0.23
   2  -4  -3    4.82    0.23
   2  -4  -3    4.92    0.16
  -2   4   3    4.97    0.16
  -2   4   3    4.82    0.16
  -2   4   3    4.81    0.23
  -2   4   3    4.68    0.23
   1  -4  -3    0.17    0.04
   1  -4  -3    0.14    0.02
   1  -4  -3    0.11    0.03
   1  -4  -3    0.13    0.03
   1  -4  -3    0.16    0.02
   1  -4  -3    0.16    0.02
   1  -4  -3    0.14    0.04
   1  -4  -3    0.20    0.02
   1  -4  -3    0.15    0.02
  -1   4   3    0.14    0.02
  -1   4   3    0.14    0.04
  -1   4   3    0.16    0.02
  -1   4   3    0.18    0.04
  -1   4   3    0.16    0.02
   0  -4  -3    1.34    0.05
   0  -4  -3    1.40    0.06
   0  -4  -3    1.40    0.09
   0  -4  -3    1.48    0.06
   0  -4  -3    1.41    0.06
   0  -4  -3    1.37    0.06
   0  -4  -3    1.37    0.09
   0  -4  -3    1.23    0.07
   0   4   3    1.43    0.09
   0   4   3    1.40    0.06
   0   4   3    1.39    0.06
   0   4   3    1.31    0.06
   0   4   3    1.43    0.06
   0   4   3    1.28    0.09
  -1  -4  -3   93.51    2.64
  -1  -4  -3   94.16    2.53
  -1  -4  -3   95.22    2.74
  -1  -4  -3   92.98    2.55
  -1  -4  -3   92.48    2.65
  -1  -4  -3   89.42    3.61
   1   4   3   92.60    2.53
   1   4   3   89.13    3.61
   1   4   3   93.13    2.74
   1   4   3   93.70    2.49
   1   4   3   92.36    2.45
   1   4   3   77.57    3.61
  -2  -4  -3   24.51    1.03
  -2  -4  -3   27.24    0.78
  -2  -4  -3   22.96    1.03
  -2  -4  -3   25.83    0.75
  -2  -4  -3   26.64    0.72
   2   4   3   26.42    0.78
   2   4   3   26.40    1.03
   2   4   3   24.00    1.03
   2   4   3   26.12    0.72
  -3  -4  -3   83.65    2.33
  -3  -4  -3   84.49    2.50
  -3  -4  -3   83.38    2.44
  -3  -4  -3   84.50    2.35
  -3  -4  -3   85.85    3.33
  -3  -4  -3   86.98    3.33
  -3  -4  -3   85.04    2.53
   3   4   3   83.08    2.53
   3   4   3   84.83    3.33
   3   4   3   82.35    2.33
   3   4   3   85.47    2.44
   3   4   3   79.62    3.32
  -4  -4  -3    3.34    0.11
  -4  -4  -3    3.27    0.12
  -4  -4  -3    3.21    0.13
  -4  -4  -3    3.26    0.17
  -4  -4  -3    3.38    0.17
  -4  -4  -3    3.19    0.12
  -4  -4  -3    3.24    0.11
   4   4   3    3.35    0.11
   4   4   3    3.33    0.17
   4   4   3    3.21    0.12
   4   4   3    3.47    0.17
  -5  -4  -3   32.11    0.98
  -5  -4  -3   31.53    0.90
  -5  -4  -3   30.01    1.28
  -5  -4  -3   31.60    0.91
  -5  -4  -3   31.35    0.91
  -5  -4  -3   31.94    0.93
  -5  -4  -3   32.87    1.28
   5   4   3   31.44    0.91
   5   4   3   32.57    1.28
   5   4   3   31.58    0.99
   5   4   3   31.98    0.93
   5   4   3   33.07    1.28
  -6  -4  -3    5.80    0.19
  -6  -4  -3    5.86    0.20
  -6  -4  -3    6.07    0.27
  -6  -4  -3    5.78    0.27
   6   4   3    5.79    0.18
   6   4   3    5.72    0.19
   6   4   3    5.91    0.26
   6   4   3    5.84    0.27
   6   4   3    5.64    0.21
   6   4   3    5.99    0.20
  -7  -4  -3    1.16    0.09
  -7  -4  -3    1.11    0.09
  -7  -4  -3    1.08    0.06
  -7  -4  -3    1.13    0.08
   7   4   3    1.09    0.06
   7   4   3    1.15    0.09
   7   4   3    1.20    0.10
   7   4   3    1.12    0.06
   7   4   3    1.02    0.09
  -8  -4  -3   -0.01    0.03
  -8  -4  -3    0.04    0.04
  -8  -4  -3   -0.02    0.02
  -8  -4  -3    0.00    0.04
  -8  -4  -3    0.02    0.04
   8   4   3   -0.07    0.05
   8   4   3    0.01    0.02
   8   4   3    0.02    0.04
   8   4   3    0.03    0.04
   8   4   3    0.01    0.02
  -9  -4  -3    0.05    0.05
  -9  -4  -3    0.09    0.05
   9   4   3    0.15    0.06
   9   4   3    0.12    0.03
   9   4   3    0.06    0.05
 -10  -4  -3    9.79    0.44
 -10  -4  -3   10.98    0.36
  10   4   3   10.80    0.38
  10   4   3   10.96    0.36
 -11  -4  -3    0.15    0.06
  11   4   3    0.13    0.07
  11   4   3    0.14    0.07
   8  -5  -3    0.07    0.07
   8  -5  -3    0.32    0.07
  -8   5   3    0.14    0.06
  -8   5   3    0.13    0.07
   7  -5  -3    0.77    0.08
   7  -5  -3    0.65    0.08
  -7   5   3    0.61    0.08
  -7   5   3    0.59    0.08
  -7   5   3    0.58    0.07
   6  -5  -3    1.01    0.09
  -6   5   3    0.87    0.11
  -6   5   3    0.89    0.09
  -6   5   3    0.91    0.08
   5  -5  -3    0.49    0.06
   5  -5  -3    0.39    0.07
   5  -5  -3    0.44    0.07
  -5   5   3    0.44    0.06
  -5   5   3    0.37    0.07
  -5   5   3    0.37    0.05
   4  -5  -3    2.95    0.15
   4  -5  -3    3.03    0.18
   4  -5  -3    2.91    0.13
  -4   5   3    3.16    0.15
  -4   5   3    3.04    0.18
  -4   5   3    3.03    0.13
  -4   5   3    3.39    0.18
   3  -5  -3    9.79    0.42
   3  -5  -3    9.59    0.32
   3  -5  -3    9.38    0.30
   3  -5  -3    9.41    0.29
  -3   5   3    9.51    0.33
  -3   5   3    9.45    0.42
  -3   5   3    9.52    0.42
  -3   5   3    9.33    0.29
   2  -5  -3   16.58    0.66
   2  -5  -3   15.89    0.46
   2  -5  -3   15.75    0.48
   2  -5  -3   15.75    0.49
   2  -5  -3   15.90    0.46
   2  -5  -3   15.68    0.45
  -2   5   3   14.73    0.65
  -2   5   3   14.66    0.66
  -2   5   3   15.55    0.45
   1  -5  -3    0.39    0.04
   1  -5  -3    0.37    0.05
   1  -5  -3    0.38    0.03
   1  -5  -3    0.38    0.04
   1  -5  -3    0.38    0.04
   1  -5  -3    0.31    0.03
   1  -5  -3    0.33    0.05
   1  -5  -3    0.36    0.04
  -1   5   3    0.32    0.03
  -1   5   3    0.34    0.04
  -1   5   3    0.31    0.05
  -1   5   3    0.36    0.05
   0  -5  -3    9.37    0.43
   0  -5  -3    9.77    0.31
   0  -5  -3    9.80    0.29
   0  -5  -3   10.14    0.43
   0  -5  -3    9.86    0.30
   0  -5  -3    9.94    0.31
   0  -5  -3    9.61    0.30
   0   5   3    9.80    0.29
   0   5   3   10.33    0.43
   0   5   3    9.97    0.43
   0   5   3    9.87    0.30
   0   5   3    9.77    0.31
   0   5   3    9.87    0.29
  -1  -5  -3   28.36    0.80
  -1  -5  -3   27.94    0.79
  -1  -5  -3   23.57    1.12
  -1  -5  -3   27.96    0.83
  -1  -5  -3   30.25    1.13
  -1  -5  -3   28.92    0.85
   1   5   3   27.85    0.76
   1   5   3   27.82    0.85
   1   5   3   27.99    0.79
   1   5   3   26.26    1.13
   1   5   3   27.91    1.13
   1   5   3   28.88    0.78
  -2  -5  -3  147.66    5.99
  -2  -5  -3  155.17    4.54
  -2  -5  -3  150.75    4.39
  -2  -5  -3  150.29    4.20
  -2  -5  -3  160.36    5.99
  -2  -5  -3  151.78    4.23
   2   5   3  152.16    4.06
   2   5   3  152.29    4.54
   2   5   3  141.80    5.99
   2   5   3  157.01    5.99
   2   5   3  152.24    4.20
  -3  -5  -3    6.75    0.22
  -3  -5  -3    7.20    0.32
  -3  -5  -3    6.64    0.22
  -3  -5  -3    6.66    0.24
  -3  -5  -3    6.97    0.31
  -3  -5  -3    6.62    0.22
   3   5   3    6.95    0.22
   3   5   3    7.60    0.31
   3   5   3    6.68    0.31
   3   5   3    6.49    0.24
   3   5   3    6.98    0.21
  -4  -5  -3    8.39    0.26
  -4  -5  -3    8.18    0.26
  -4  -5  -3    8.36    0.28
  -4  -5  -3    8.21    0.26
  -4  -5  -3    7.73    0.36
  -4  -5  -3    8.11    0.37
  -4  -5  -3    8.29    0.26
   4   5   3    8.17    0.36
   4   5   3    8.31    0.28
   4   5   3    8.85    0.37
   4   5   3    8.29    0.25
   4   5   3    8.20    0.26
  -5  -5  -3    0.66    0.04
  -5  -5  -3    0.59    0.05
  -5  -5  -3    0.49    0.07
  -5  -5  -3    0.71    0.08
  -5  -5  -3    0.61    0.04
  -5  -5  -3    0.69    0.05
   5   5   3    0.50    0.05
   5   5   3    0.56    0.06
   5   5   3    0.50    0.07
   5   5   3    0.48    0.05
   5   5   3    0.62    0.05
  -6  -5  -3    1.99    0.09
  -6  -5  -3    2.11    0.13
  -6  -5  -3    2.06    0.09
  -6  -5  -3    2.15    0.13
  -6  -5  -3    1.96    0.10
   6   5   3    2.04    0.08
   6   5   3    2.14    0.13
   6   5   3    2.06    0.10
   6   5   3    2.09    0.09
   6   5   3    1.94    0.11
  -7  -5  -3   12.26    0.50
  -7  -5  -3   11.40    0.50
  -7  -5  -3   10.44    0.35
  -7  -5  -3   11.64    0.35
  -7  -5  -3   11.90    0.37
   7   5   3   12.32    0.37
   7   5   3   11.84    0.35
   7   5   3   11.98    0.50
   7   5   3   11.72    0.40
  -8  -5  -3   11.94    0.38
  -8  -5  -3   11.59    0.35
  -8  -5  -3   11.72    0.36
  -8  -5  -3   12.21    0.51
  -8  -5  -3   11.80    0.50
   8   5   3   11.70    0.35
   8   5   3   12.03    0.37
   8   5   3   11.67    0.51
   8   5   3   12.06    0.38
   8   5   3   12.15    0.41
  -9  -5  -3    1.73    0.12
  -9  -5  -3    1.78    0.12
   9   5   3    1.81    0.09
   9   5   3    1.67    0.12
   9   5   3    1.91    0.13
 -10  -5  -3   -0.12    0.05
 -10  -5  -3   -0.07    0.04
  10   5   3    0.09    0.06
  10   5   3    0.03    0.06
 -11  -5  -3    6.30    0.25
  11   5   3    6.65    0.26
  11   5   3    6.26    0.27
  12   5   3    2.11    0.17
   7  -6  -3    2.80    0.17
   7  -6  -3    2.90    0.16
  -7   6   3    2.81    0.18
  -7   6   3    2.92    0.19
   6  -6  -3    0.42    0.07
  -6   6   3    0.61    0.07
  -6   6   3    0.47    0.08
  -6   6   3    0.51    0.08
   5  -6  -3    8.12    0.27
  -5   6   3    7.90    0.31
  -5   6   3    7.84    0.38
  -5   6   3    7.75    0.27
   4  -6  -3    0.14    0.07
   4  -6  -3    0.19    0.05
  -4   6   3    0.09    0.06
  -4   6   3    0.25    0.05
  -4   6   3    0.20    0.05
  -4   6   3    0.22    0.07
   3  -6  -3    2.98    0.18
   3  -6  -3    3.20    0.13
  -3   6   3    3.10    0.18
  -3   6   3    3.28    0.13
  -3   6   3    2.86    0.18
   2  -6  -3   53.64    2.21
   2  -6  -3   55.85    1.53
  -2   6   3   55.92    2.21
  -2   6   3   53.77    2.21
  -2   6   3   56.73    1.51
   1  -6  -3    3.35    0.13
   1  -6  -3    3.34    0.20
   1  -6  -3    3.55    0.12
  -1   6   3    3.31    0.19
  -1   6   3    3.26    0.19
  -1   6   3    3.31    0.12
  -1   6   3    3.39    0.13
   0  -6  -3    3.57    0.20
   0  -6  -3    3.98    0.14
   0  -6  -3    3.91    0.15
   0   6   3    3.61    0.14
   0   6   3    3.90    0.21
   0   6   3    3.87    0.14
   0   6   3    4.25    0.21
  -1  -6  -3    8.27    0.35
  -1  -6  -3    7.99    0.35
  -1  -6  -3    7.60    0.26
  -1  -6  -3    7.51    0.25
   1   6   3    7.63    0.24
   1   6   3    7.43    0.24
   1   6   3    8.01    0.35
   1   6   3    7.71    0.35
   1   6   3    7.61    0.26
   1   6   3    7.41    0.24
  -2  -6  -3    0.40    0.06
  -2  -6  -3    0.40    0.04
  -2  -6  -3    0.45    0.06
  -2  -6  -3    0.44    0.04
   2   6   3    0.39    0.04
   2   6   3    0.35    0.04
   2   6   3    0.43    0.06
   2   6   3    0.37    0.04
   2   6   3    0.42    0.06
   2   6   3    0.43    0.04
  -3  -6  -3    0.24    0.05
  -3  -6  -3    0.22    0.04
  -3  -6  -3    0.22    0.06
  -3  -6  -3    0.18    0.03
   3   6   3    0.17    0.05
   3   6   3    0.18    0.04
   3   6   3    0.28    0.04
   3   6   3    0.20    0.05
  -4  -6  -3   12.37    0.53
  -4  -6  -3   12.98    0.38
  -4  -6  -3   10.98    0.53
  -4  -6  -3   12.83    0.39
   4   6   3   11.74    0.53
   4   6   3   12.79    0.41
   4   6   3   12.68    0.37
  -5  -6  -3    1.00    0.06
  -5  -6  -3    1.09    0.06
  -5  -6  -3    0.98    0.06
  -5  -6  -3    1.00    0.10
  -5  -6  -3    1.12    0.09
   5   6   3    0.99    0.08
   5   6   3    1.07    0.06
   5   6   3    0.98    0.07
   5   6   3    1.02    0.10
  -6  -6  -3    4.98    0.18
  -6  -6  -3    4.99    0.18
  -6  -6  -3    4.93    0.25
  -6  -6  -3    5.17    0.17
  -6  -6  -3    5.37    0.19
  -6  -6  -3    5.28    0.25
  -6  -6  -3    5.16    0.16
   6   6   3    5.22    0.25
   6   6   3    5.01    0.20
   6   6   3    5.16    0.18
   6   6   3    5.06    0.18
  -7  -6  -3    0.03    0.05
  -7  -6  -3    0.01    0.05
  -7  -6  -3   -0.02    0.05
  -7  -6  -3   -0.05    0.03
  -7  -6  -3   -0.05    0.03
   7   6   3    0.06    0.06
   7   6   3    0.04    0.02
   7   6   3    0.03    0.04
  -8  -6  -3    0.08    0.04
  -8  -6  -3    0.14    0.05
  -8  -6  -3    0.15    0.05
  -8  -6  -3    0.13    0.06
  -8  -6  -3    0.10    0.03
   8   6   3    0.18    0.06
   8   6   3    0.22    0.06
   8   6   3    0.02    0.05
  -9  -6  -3    5.47    0.27
  -9  -6  -3    5.83    0.22
   9   6   3    5.73    0.22
   9   6   3    5.21    0.23
 -10  -6  -3   -0.04    0.06
 -10  -6  -3   -0.05    0.05
  10   6   3   -0.07    0.06
  10   6   3    0.03    0.06
 -11  -6  -3    3.81    0.19
  11   6   3    4.15    0.21
  11   6   3    4.17    0.20
   6  -7  -3    2.78    0.17
   6  -7  -3    2.67    0.16
  -6   7   3    2.74    0.18
  -6   7   3    2.73    0.20
   5  -7  -3    0.12    0.06
  -5   7   3    0.17    0.06
  -5   7   3   -0.02    0.06
  -5   7   3    0.04    0.05
   4  -7  -3    0.62    0.09
   4  -7  -3    0.57    0.07
  -4   7   3    0.59    0.07
  -4   7   3    0.58    0.09
  -4   7   3    0.61    0.07
   3  -7  -3    0.21    0.05
   3  -7  -3    0.14    0.07
  -3   7   3    0.19    0.07
  -3   7   3    0.18    0.04
  -3   7   3    0.25    0.06
   2  -7  -3    5.18    0.18
   2  -7  -3    5.15    0.27
  -2   7   3    4.96    0.26
  -2   7   3    5.05    0.18
  -2   7   3    4.60    0.27
   1  -7  -3   43.57    1.74
  -1   7   3   41.86    1.18
  -1   7   3   44.02    1.75
  -1   7   3   42.23    1.29
   0  -7  -3   21.35    0.91
   0   7   3   21.11    0.67
   0   7   3   22.71    0.91
   0   7   3   21.10    0.61
  -1  -7  -3   21.45    0.66
  -1  -7  -3   20.71    0.64
  -1  -7  -3   21.40    0.89
   1   7   3   20.94    0.62
   1   7   3   21.30    0.66
   1   7   3   20.25    0.60
   1   7   3   21.24    0.89
  -2  -7  -3   24.31    0.73
  -2  -7  -3   24.38    0.75
  -2  -7  -3   23.20    1.00
   2   7   3   23.86    0.70
   2   7   3   25.02    0.68
   2   7   3   24.55    0.76
   2   7   3   24.30    1.01
  -3  -7  -3    4.81    0.24
  -3  -7  -3    4.19    0.24
  -3  -7  -3    4.71    0.16
   3   7   3    4.46    0.16
   3   7   3    4.45    0.16
   3   7   3    4.36    0.24
   3   7   3    4.72    0.18
  -4  -7  -3    6.93    0.23
  -4  -7  -3    7.21    0.33
  -4  -7  -3    6.93    0.33
  -4  -7  -3    7.02    0.24
   4   7   3    6.98    0.23
   4   7   3    6.68    0.33
   4   7   3    7.20    0.25
  -5  -7  -3    0.51    0.08
  -5  -7  -3    0.54    0.07
  -5  -7  -3    0.48    0.04
  -5  -7  -3    0.51    0.04
   5   7   3    0.28    0.05
   5   7   3    0.41    0.05
   5   7   3    0.43    0.07
  -6  -7  -3    0.05    0.02
  -6  -7  -3    0.09    0.03
  -6  -7  -3    0.06    0.05
  -6  -7  -3    0.16    0.06
   6   7   3    0.11    0.04
   6   7   3   -0.01    0.04
   6   7   3    0.14    0.03
   6   7   3    0.06    0.06
  -7  -7  -3    0.85    0.10
  -7  -7  -3    0.83    0.08
  -7  -7  -3    1.02    0.11
   7   7   3    0.91    0.07
   7   7   3    1.03    0.11
   7   7   3    0.82    0.08
  -8  -7  -3   14.53    0.46
  -8  -7  -3   14.40    0.63
   8   7   3   15.28    0.46
   8   7   3   14.96    0.64
   8   7   3   14.43    0.50
  -9  -7  -3    3.43    0.17
  -9  -7  -3    3.05    0.20
   9   7   3    3.38    0.16
   9   7   3    3.30    0.17
 -10  -7  -3   -0.03    0.06
 -10  -7  -3   -0.02    0.06
  10   7   3    0.03    0.06
  10   7   3   -0.05    0.06
 -11  -7  -3    0.09    0.07
 -11  -7  -3    0.05    0.05
  11   7   3   -0.01    0.06
  11   7   3    0.08    0.07
   5  -8  -3    3.37    0.16
  -5   8   3    2.63    0.18
  -5   8   3    2.74    0.21
   4  -8  -3    0.06    0.06
  -4   8   3    0.11    0.07
  -4   8   3    0.08    0.05
  -4   8   3    0.04    0.05
   3  -8  -3    1.96    0.11
   3  -8  -3    2.07    0.18
  -3   8   3    2.09    0.11
  -3   8   3    2.02    0.17
   2  -8  -3    0.49    0.09
  -2   8   3    0.45    0.09
  -2   8   3    0.46    0.06
   1  -8  -3   27.07    1.16
  -1   8   3   28.11    0.78
  -1   8   3   27.61    1.16
  -1   8   3   28.03    0.84
   0  -8  -3    1.26    0.15
   0   8   3    1.03    0.08
   0   8   3    1.06    0.12
   0   8   3    0.86    0.08
  -1  -8  -3   20.77    0.86
  -1  -8  -3   20.64    0.63
   1   8   3   18.70    0.86
   1   8   3   20.15    0.58
   1   8   3   20.77    0.64
  -2  -8  -3    0.38    0.05
  -2  -8  -3    0.46    0.08
   2   8   3    0.40    0.08
   2   8   3    0.27    0.05
   2   8   3    0.35    0.05
   2   8   3    0.44    0.05
  -3  -8  -3    0.44    0.05
  -3  -8  -3    0.43    0.08
   3   8   3    0.33    0.05
   3   8   3    0.49    0.08
   3   8   3    0.33    0.05
   3   8   3    0.33    0.05
  -4  -8  -3    3.25    0.13
  -4  -8  -3    3.40    0.21
   4   8   3    3.33    0.20
   4   8   3    3.22    0.14
   4   8   3    3.64    0.15
   4   8   3    3.27    0.13
  -5  -8  -3    2.38    0.10
  -5  -8  -3    2.43    0.17
  -5  -8  -3    2.55    0.17
   5   8   3    2.40    0.13
   5   8   3    2.36    0.12
   5   8   3    2.40    0.17
  -6  -8  -3    3.74    0.22
  -6  -8  -3    3.69    0.14
  -6  -8  -3    3.60    0.13
  -6  -8  -3    3.69    0.21
   6   8   3    3.64    0.15
   6   8   3    3.57    0.17
   6   8   3    3.35    0.21
  -7  -8  -3    0.21    0.06
  -7  -8  -3    0.22    0.07
  -7  -8  -3    0.28    0.03
   7   8   3    0.27    0.06
   7   8   3    0.25    0.05
   7   8   3    0.31    0.07
  -8  -8  -3    0.60    0.09
  -8  -8  -3    0.50    0.07
   8   8   3    0.62    0.07
   8   8   3    0.48    0.07
  -9  -8  -3    0.00    0.06
  -9  -8  -3   -0.01    0.05
   9   8   3    0.08    0.06
   9   8   3    0.05    0.06
 -10  -8  -3    0.31    0.07
 -10  -8  -3    0.14    0.07
  10   8   3    0.20    0.07
  10   8   3    0.32    0.07
 -11  -8  -3    0.05    0.07
 -11  -8  -3    0.00    0.06
  11   8   3   -0.06    0.06
  11   8   3    0.01    0.06
   4  -9  -3    4.50    0.20
  -4   9   3    4.26    0.27
  -4   9   3    4.39    0.22
   3  -9  -3    0.73    0.12
  -3   9   3    0.70    0.08
  -3   9   3    0.87    0.12
   2  -9  -3    1.36    0.16
  -2   9   3    1.26    0.15
  -2   9   3    1.34    0.10
   1  -9  -3    0.05    0.07
  -1   9   3    0.06    0.04
  -1   9   3    0.04    0.07
   0  -9  -3    0.86    0.12
   0   9   3    0.86    0.07
   0   9   3    0.65    0.10
   0   9   3    0.94    0.08
  -1  -9  -3    2.43    0.13
  -1  -9  -3    2.34    0.19
   1   9   3    2.49    0.12
   1   9   3    2.23    0.11
   1   9   3    2.37    0.19
  -2  -9  -3    0.34    0.05
  -2  -9  -3    0.32    0.09
   2   9   3    0.28    0.05
   2   9   3    0.36    0.09
   2   9   3    0.20    0.05
  -3  -9  -3    0.35    0.08
  -3  -9  -3    0.31    0.05
   3   9   3    0.28    0.05
   3   9   3    0.28    0.05
   3   9   3    0.34    0.08
   3   9   3    0.24    0.05
  -4  -9  -3    5.66    0.20
  -4  -9  -3    5.50    0.30
   4   9   3    5.69    0.30
   4   9   3    5.69    0.21
   4   9   3    5.68    0.20
   4   9   3    5.64    0.22
  -5  -9  -3    0.31    0.08
  -5  -9  -3    0.28    0.04
   5   9   3    0.30    0.08
   5   9   3    0.31    0.05
   5   9   3    0.31    0.05
   5   9   3    0.24    0.05
  -6  -9  -3    2.09    0.17
  -6  -9  -3    2.09    0.09
   6   9   3    2.13    0.12
   6   9   3    2.08    0.16
   6   9   3    2.08    0.13
   6   9   3    1.99    0.11
  -7  -9  -3    0.97    0.12
  -7  -9  -3    1.00    0.09
   7   9   3    1.00    0.12
   7   9   3    1.27    0.10
   7   9   3    0.94    0.09
  -8  -9  -3    0.95    0.12
  -8  -9  -3    1.09    0.10
   8   9   3    1.22    0.10
   8   9   3    1.01    0.10
  -9  -9  -3    0.11    0.06
  -9  -9  -3    0.02    0.07
   9   9   3    0.03    0.06
   9   9   3    0.05    0.06
 -10  -9  -3    0.21    0.07
 -10  -9  -3    0.13    0.07
  10   9   3    0.17    0.06
  10   9   3    0.05    0.07
   3 -10  -3    0.19    0.07
  -3  10   3    0.03    0.08
   2 -10  -3    0.23    0.09
  -2  10   3    0.30    0.09
   1 -10  -3    0.81    0.12
  -1  10   3    0.72    0.12
  -1  10   3    0.67    0.07
   0 -10  -3    0.15    0.09
   0 -10  -3    0.15    0.06
   0  10   3    0.17    0.09
   0  10   3    0.27    0.05
  -1 -10  -3    1.51    0.17
  -1 -10  -3    1.63    0.12
   1  10   3    1.39    0.16
   1  10   3    1.43    0.09
   1  10   3    1.59    0.10
  -2 -10  -3    0.30    0.06
  -2 -10  -3    0.27    0.09
   2  10   3    0.28    0.09
   2  10   3    0.32    0.05
   2  10   3    0.29    0.05
  -3 -10  -3    3.07    0.22
  -3 -10  -3    3.09    0.15
   3  10   3    3.09    0.14
   3  10   3    2.99    0.22
   3  10   3    3.24    0.15
   3  10   3    2.98    0.15
  -4 -10  -3    0.15    0.08
  -4 -10  -3    0.17    0.05
   4  10   3    0.19    0.05
   4  10   3    0.12    0.05
   4  10   3    0.21    0.05
   4  10   3    0.19    0.08
  -5 -10  -3    0.53    0.06
  -5 -10  -3    0.63    0.10
   5  10   3    0.48    0.06
   5  10   3    0.50    0.07
   5  10   3    0.50    0.06
   5  10   3    0.54    0.10
  -6 -10  -3    1.03    0.13
  -6 -10  -3    1.21    0.08
   6  10   3    1.21    0.13
   6  10   3    1.12    0.09
   6  10   3    0.95    0.09
   6  10   3    0.97    0.08
  -7 -10  -3   -0.02    0.05
  -7 -10  -3    0.08    0.08
   7  10   3    0.00    0.05
   7  10   3    0.01    0.05
   7  10   3   -0.05    0.07
   7  10   3    0.03    0.05
  -8 -10  -3    0.45    0.08
  -8 -10  -3    0.52    0.10
   8  10   3    0.38    0.08
   8  10   3    0.56    0.07
  -9 -10  -3    1.07    0.13
  -9 -10  -3    1.15    0.11
   9  10   3    1.15    0.11
   9  10   3    1.05    0.10
 -10 -10  -3    0.74    0.10
 -10 -10  -3    0.85    0.12
  10  10   3    0.50    0.09
  10  10   3    0.61    0.09
   1 -11  -3   -0.05    0.06
   1 -11  -3   -0.09    0.08
  -1  11   3    0.11    0.08
   0 -11  -3    0.02    0.06
   0 -11  -3   -0.05    0.08
   0  11   3    0.04    0.08
  -1 -11  -3    0.42    0.07
  -1 -11  -3    0.42    0.11
   1  11   3    0.55    0.11
   1  11   3    0.49    0.07
  -2 -11  -3    1.69    0.13
  -2 -11  -3    1.70    0.19
   2  11   3    1.69    0.11
   2  11   3    1.66    0.11
   2  11   3    1.68    0.18
  -3 -11  -3   -0.06    0.05
  -3 -11  -3    0.00    0.09
   3  11   3   -0.05    0.04
   3  11   3    0.02    0.09
   3  11   3    0.08    0.05
  -4 -11  -3   -0.10    0.08
  -4 -11  -3   -0.08    0.04
   4  11   3    0.02    0.08
   4  11   3   -0.14    0.04
   4  11   3    0.04    0.04
   4  11   3    0.00    0.05
  -5 -11  -3    0.16    0.05
  -5 -11  -3    0.05    0.09
   5  11   3    0.11    0.05
   5  11   3    0.09    0.08
   5  11   3    0.05    0.05
   5  11   3    0.11    0.05
  -6 -11  -3    0.04    0.09
   6  11   3    0.05    0.05
   6  11   3   -0.09    0.08
   6  11   3   -0.01    0.05
   6  11   3    0.05    0.05
  -7 -11  -3    0.31    0.08
  -7 -11  -3    0.18    0.10
   7  11   3    0.14    0.06
   7  11   3    0.12    0.05
   7  11   3    0.11    0.06
  -8 -11  -3    1.46    0.18
  -8 -11  -3    1.45    0.12
   8  11   3    1.46    0.12
   8  11   3    1.30    0.12
   8  11   3    1.59    0.12
  -9 -11  -3    0.07    0.09
  -9 -11  -3    0.23    0.08
   9  11   3    0.24    0.07
   9  11   3    0.21    0.08
  -1 -12  -3    1.98    0.15
  -1 -12  -3    1.73    0.21
   1  12   3    1.94    0.23
  -2 -12  -3    1.70    0.15
  -2 -12  -3    1.69    0.21
   2  12   3    1.67    0.21
  -3 -12  -3    1.41    0.17
  -3 -12  -3    1.69    0.13
   3  12   3    1.48    0.12
   3  12   3    1.72    0.20
  -4 -12  -3   -0.15    0.08
  -4 -12  -3    0.02    0.05
   4  12   3   -0.04    0.05
   4  12   3    0.02    0.09
  -5 -12  -3    0.32    0.12
   5  12   3    0.37    0.07
   5  12   3    0.27    0.07
   5  12   3    0.27    0.11
  -6 -12  -3    0.31    0.11
   6  12   3    0.31    0.10
   6  12   3    0.35    0.07
   6  12   3    0.28    0.07
  -7 -12  -3    1.03    0.11
   7  12   3    0.99    0.11
   7  12   3    1.05    0.10
   6  10  -4    0.10    0.05
   6  10  -4    0.00    0.06
  -6 -10   4    0.07    0.05
  -6 -10   4    0.12    0.08
  -6 -10   4    0.09    0.06
  -6 -10   4    0.11    0.06
   5  10  -4    0.92    0.09
   5  10  -4    0.69    0.09
  -5 -10   4    0.91    0.09
  -5 -10   4    0.86    0.12
  -5 -10   4    0.76    0.08
  -5 -10   4    0.85    0.08
   4  10  -4    0.03    0.07
   4  10  -4    0.05    0.06
   4  10  -4    0.03    0.05
  -4 -10   4    0.04    0.05
  -4 -10   4    0.07    0.08
  -4 -10   4   -0.02    0.05
  -4 -10   4   -0.04    0.05
   3  10  -4   -0.08    0.05
   3  10  -4   -0.03    0.07
   3  10  -4   -0.02    0.05
  -3 -10   4    0.05    0.05
  -3 -10   4    0.04    0.05
  -3 -10   4    0.03    0.06
  -3 -10   4    0.06    0.08
   2  10  -4    2.38    0.14
   2  10  -4    2.72    0.21
   2  10  -4    2.73    0.16
  -2 -10   4    2.38    0.21
  -2 -10   4    2.32    0.16
   1  10  -4    0.48    0.08
   1  10  -4    0.35    0.06
   1  10  -4    0.51    0.11
  -1 -10   4    0.41    0.08
  -1 -10   4    0.20    0.10
   0  10  -4    0.70    0.12
   0  10  -4    1.04    0.10
   0  10  -4    0.80    0.08
   0 -10   4    0.75    0.09
   0 -10   4    0.87    0.13
   8   9  -4    0.05    0.06
  -8  -9   4    0.04    0.07
  -8  -9   4    0.02    0.05
  -8  -9   4   -0.13    0.06
   7   9  -4    0.27    0.07
   7   9  -4    0.29    0.06
  -7  -9   4    0.28    0.05
  -7  -9   4    0.15    0.07
  -7  -9   4    0.19    0.08
  -7  -9   4    0.27    0.06
   6   9  -4    0.71    0.09
   6   9  -4    0.85    0.08
  -6  -9   4    0.87    0.11
  -6  -9   4    0.95    0.08
  -6  -9   4    0.95    0.09
  -6  -9   4    0.88    0.08
   5   9  -4    4.22    0.18
   5   9  -4    4.66    0.21
  -5  -9   4    4.20    0.26
  -5  -9   4    4.38    0.19
  -5  -9   4    4.41    0.19
  -5  -9   4    4.27    0.19
   4   9  -4    1.32    0.12
   4   9  -4    1.17    0.11
   4   9  -4    1.42    0.15
  -4  -9   4    1.38    0.12
  -4  -9   4    1.30    0.15
  -4  -9   4    1.02    0.09
  -4  -9   4    1.32    0.11
   3   9  -4   -0.02    0.06
   3   9  -4    0.00    0.03
   3   9  -4   -0.01    0.05
   3   9  -4   -0.07    0.04
  -3  -9   4    0.00    0.05
  -3  -9   4   -0.07    0.04
  -3  -9   4   -0.02    0.07
  -3  -9   4   -0.06    0.04
   2   9  -4    1.62    0.12
   2   9  -4    1.61    0.12
   2   9  -4    1.81    0.17
   2   9  -4    1.55    0.09
  -2  -9   4    1.69    0.11
  -2  -9   4    1.65    0.13
  -2  -9   4    1.54    0.17
   1   9  -4    5.76    0.21
   1   9  -4    6.04    0.23
   1   9  -4    5.67    0.33
   1   9  -4    5.72    0.24
  -1  -9   4    5.92    0.34
  -1  -9   4    5.93    0.24
  -1  -9   4    5.86    0.21
   0   9  -4    0.02    0.07
   0   9  -4   -0.05    0.05
   0   9  -4   -0.02    0.04
   0   9  -4   -0.03    0.04
   0  -9   4   -0.14    0.05
   0  -9   4   -0.05    0.08
  -1   9  -4    1.04    0.13
  -1   9  -4    0.92    0.09
  -1   9  -4    1.16    0.09
   1  -9   4    0.98    0.09
   1  -9   4    0.95    0.14
  -2   9  -4    1.59    0.18
  -2   9  -4    1.50    0.11
  -2   9  -4    1.44    0.12
   2  -9   4    1.49    0.18
   2  -9   4    1.67    0.14
   9   8  -4    0.08    0.07
   9   8  -4   -0.08    0.07
  -9  -8   4    0.03    0.06
  -9  -8   4    0.10    0.07
   8   8  -4    3.50    0.20
  -8  -8   4    3.43    0.21
  -8  -8   4    3.77    0.19
  -8  -8   4    3.60    0.19
   7   8  -4    1.18    0.09
   7   8  -4    1.00    0.10
  -7  -8   4    1.31    0.12
  -7  -8   4    1.28    0.13
  -7  -8   4    1.32    0.10
  -7  -8   4    1.15    0.10
   6   8  -4    0.04    0.05
   6   8  -4    0.04    0.04
  -6  -8   4    0.06    0.05
  -6  -8   4   -0.03    0.06
  -6  -8   4    0.02    0.04
  -6  -8   4    0.01    0.05
   5   8  -4    0.97    0.12
   5   8  -4    1.18    0.09
  -5  -8   4    1.09    0.13
  -5  -8   4    0.92    0.08
  -5  -8   4    0.92    0.08
  -5  -8   4    0.91    0.08
   4   8  -4    0.04    0.03
   4   8  -4   -0.02    0.05
   4   8  -4    0.01    0.04
  -4  -8   4    0.04    0.04
  -4  -8   4   -0.02    0.04
  -4  -8   4   -0.04    0.04
  -4  -8   4    0.03    0.06
   3   8  -4    0.56    0.07
   3   8  -4    0.69    0.05
   3   8  -4    0.61    0.09
  -3  -8   4    0.63    0.07
  -3  -8   4    0.59    0.10
  -3  -8   4    0.59    0.06
  -3  -8   4    0.69    0.06
   2   8  -4    0.25    0.08
   2   8  -4    0.15    0.04
   2   8  -4    0.18    0.05
  -2  -8   4    0.14    0.05
  -2  -8   4    0.16    0.08
  -2  -8   4    0.22    0.05
   1   8  -4    2.90    0.12
   1   8  -4    3.26    0.22
   1   8  -4    2.93    0.15
  -1  -8   4    2.90    0.16
  -1  -8   4    2.86    0.13
  -1  -8   4    3.22    0.22
   0   8  -4   19.31    0.55
   0   8  -4   19.12    0.59
   0   8  -4   19.16    0.83
   0  -8   4   19.22    0.59
   0  -8   4   17.90    0.83
   0  -8   4   18.83    0.56
  -1   8  -4    0.97    0.12
  -1   8  -4    0.88    0.07
  -1   8  -4    0.83    0.08
   1  -8   4    0.91    0.09
   1  -8   4    0.86    0.12
  -2   8  -4    0.40    0.06
  -2   8  -4    0.28    0.06
  -2   8  -4    0.32    0.09
   2  -8   4    0.29    0.09
   2  -8   4    0.33    0.06
   2  -8   4    0.25    0.04
  -3   8  -4    0.00    0.05
  -3   8  -4    0.12    0.06
  -3   8  -4    0.02    0.07
   3  -8   4    0.03    0.06
   3  -8   4    0.02    0.08
   3  -8   4    0.11    0.05
  -4   8  -4    4.55    0.20
  -4   8  -4    4.50    0.29
   4  -8   4    4.40    0.19
   4  -8   4    4.22    0.29
   4  -8   4    4.46    0.21
   9   7  -4    0.77    0.10
   9   7  -4    0.87    0.10
  -9  -7   4    0.87    0.10
  -9  -7   4    0.98    0.10
   8   7  -4   10.45    0.38
   8   7  -4    9.62    0.38
  -8  -7   4   10.57    0.36
  -8  -7   4    9.88    0.45
   7   7  -4    0.00    0.03
   7   7  -4   -0.04    0.05
  -7  -7   4   -0.02    0.05
  -7  -7   4   -0.01    0.04
  -7  -7   4    0.05    0.05
  -7  -7   4   -0.02    0.05
   6   7  -4    1.19    0.08
   6   7  -4    1.25    0.07
  -6  -7   4    1.31    0.11
  -6  -7   4    1.30    0.09
  -6  -7   4    1.36    0.11
  -6  -7   4    1.19    0.12
   5   7  -4    0.02    0.05
   5   7  -4    0.06    0.04
   5   7  -4    0.01    0.02
  -5  -7   4   -0.02    0.04
  -5  -7   4    0.01    0.05
  -5  -7   4   -0.03    0.04
  -5  -7   4    0.04    0.04
   4   7  -4    0.03    0.05
   4   7  -4   -0.05    0.04
   4   7  -4   -0.02    0.02
  -4  -7   4   -0.01    0.04
  -4  -7   4    0.00    0.05
  -4  -7   4    0.07    0.06
  -4  -7   4    0.02    0.04
  -4  -7   4    0.02    0.04
   3   7  -4   11.32    0.52
   3   7  -4   11.76    0.37
   3   7  -4   11.85    0.33
  -3  -7   4   11.34    0.34
  -3  -7   4   11.54    0.37
  -3  -7   4   11.53    0.38
  -3  -7   4   11.51    0.52
  -3  -7   4   11.51    0.36
   2   7  -4    0.07    0.06
   2   7  -4    0.14    0.05
   2   7  -4    0.23    0.03
  -2  -7   4    0.09    0.07
  -2  -7   4    0.15    0.04
  -2  -7   4    0.12    0.05
  -2  -7   4    0.24    0.03
   1   7  -4    7.54    0.27
   1   7  -4    7.68    0.24
   1   7  -4    8.18    0.38
  -1  -7   4    7.95    0.38
  -1  -7   4    7.41    0.25
  -1  -7   4    7.70    0.27
   0   7  -4    0.63    0.10
   0   7  -4    0.62    0.07
   0   7  -4    0.66    0.05
   0  -7   4    0.52    0.05
   0  -7   4    0.51    0.10
   0  -7   4    0.54    0.07
  -1   7  -4    9.47    0.30
  -1   7  -4    9.96    0.33
  -1   7  -4    9.73    0.47
   1  -7   4   10.02    0.47
   1  -7   4   10.28    0.34
   1  -7   4    9.68    0.29
  -2   7  -4    0.31    0.05
  -2   7  -4    0.29    0.08
  -2   7  -4    0.31    0.06
   2  -7   4    0.24    0.04
   2  -7   4    0.42    0.06
   2  -7   4    0.35    0.09
  -3   7  -4   -0.03    0.04
  -3   7  -4    0.02    0.07
  -3   7  -4    0.08    0.05
   3  -7   4    0.02    0.04
   3  -7   4    0.02    0.05
   3  -7   4    0.07    0.08
  -4   7  -4   16.17    0.53
  -4   7  -4   17.04    0.75
  -4   7  -4   16.69    0.51
   4  -7   4   16.49    0.50
   4  -7   4   16.75    0.53
   4  -7   4   16.89    0.75
  -5   7  -4    0.91    0.09
  -5   7  -4    0.96    0.13
  -5   7  -4    0.93    0.10
   5  -7   4    0.92    0.09
   5  -7   4    0.88    0.08
  10   6  -4    0.58    0.09
  10   6  -4    0.61    0.09
 -10  -6   4    0.58    0.09
   9   6  -4    0.16    0.07
   9   6  -4    0.04    0.06
  -9  -6   4    0.02    0.06
   8   6  -4    1.81    0.14
   8   6  -4    1.88    0.14
  -8  -6   4    1.83    0.14
  -8  -6   4    1.75    0.12
   7   6  -4    2.36    0.10
   7   6  -4    2.38    0.09
   7   6  -4    2.54    0.15
  -7  -6   4    2.27    0.14
  -7  -6   4    2.44    0.14
  -7  -6   4    2.29    0.15
  -7  -6   4    2.39    0.11
   6   6  -4    0.09    0.04
   6   6  -4    0.11    0.02
   6   6  -4    0.12    0.03
   6   6  -4    0.14    0.02
   6   6  -4    0.11    0.05
   6   6  -4    0.08    0.03
  -6  -6   4    0.09    0.05
  -6  -6   4    0.11    0.05
  -6  -6   4    0.11    0.04
  -6  -6   4    0.11    0.05
   5   6  -4    2.67    0.16
   5   6  -4    2.69    0.12
   5   6  -4    2.77    0.15
   5   6  -4    2.65    0.09
  -5  -6   4    2.84    0.17
  -5  -6   4    2.48    0.14
  -5  -6   4    2.78    0.11
  -5  -6   4    2.71    0.17
  -5  -6   4    2.56    0.10
  -5  -6   4    2.86    0.12
  -5  -6   4    2.99    0.14
   4   6  -4   16.70    0.46
   4   6  -4   16.66    0.50
   4   6  -4   15.10    0.70
  -4  -6   4   16.69    0.52
  -4  -6   4   16.70    0.51
  -4  -6   4   16.55    0.48
  -4  -6   4   17.03    0.50
  -4  -6   4   16.67    0.50
  -4  -6   4   17.63    0.71
  -4  -6   4   16.17    0.71
   3   6  -4   13.67    0.39
   3   6  -4   13.64    0.43
   3   6  -4   13.50    0.60
  -3  -6   4   14.36    0.44
  -3  -6   4   13.90    0.42
  -3  -6   4   14.97    0.61
  -3  -6   4   14.06    0.43
  -3  -6   4   13.59    0.60
  -3  -6   4   13.48    0.44
  -3  -6   4   13.77    0.40
   2   6  -4    0.51    0.08
   2   6  -4    0.56    0.05
   2   6  -4    0.44    0.05
  -2  -6   4    0.43    0.08
  -2  -6   4    0.62    0.05
  -2  -6   4    0.49    0.05
  -2  -6   4    0.58    0.06
   1   6  -4    0.09    0.06
   1   6  -4    0.11    0.03
   1   6  -4    0.17    0.04
  -1  -6   4    0.12    0.03
  -1  -6   4    0.14    0.04
  -1  -6   4    0.05    0.06
  -1  -6   4    0.16    0.03
  -1  -6   4    0.14    0.03
   0   6  -4    1.39    0.10
   0   6  -4    1.34    0.08
   0   6  -4    1.60    0.13
   0  -6   4    1.33    0.07
   0  -6   4    1.47    0.07
   0  -6   4    1.35    0.10
   0  -6   4    1.53    0.14
  -1   6  -4    9.11    0.29
  -1   6  -4    9.95    0.44
  -1   6  -4    9.01    0.31
   1  -6   4    9.74    0.44
   1  -6   4    9.20    0.28
   1  -6   4    9.16    0.31
  -2   6  -4    0.80    0.06
  -2   6  -4    0.74    0.06
  -2   6  -4    0.66    0.07
  -2   6  -4    0.62    0.09
   2  -6   4    0.77    0.06
   2  -6   4    0.64    0.10
   2  -6   4    0.63    0.07
  -3   6  -4    9.78    0.47
  -3   6  -4    9.69    0.33
  -3   6  -4   10.15    0.31
   3  -6   4   10.05    0.33
   3  -6   4    9.20    0.46
   3  -6   4    9.92    0.30
  -4   6  -4    1.85    0.11
  -4   6  -4    1.98    0.12
  -4   6  -4    1.68    0.17
   4  -6   4    1.54    0.17
   4  -6   4    1.72    0.11
   4  -6   4    1.68    0.12
  -5   6  -4    1.54    0.12
  -5   6  -4    1.51    0.14
  -5   6  -4    1.59    0.12
  -5   6  -4    1.40    0.16
   5  -6   4    1.58    0.13
   5  -6   4    1.57    0.17
   5  -6   4    1.59    0.11
  -6   6  -4    1.59    0.12
  -6   6  -4    1.43    0.12
  -6   6  -4    1.67    0.16
   6  -6   4    1.79    0.13
   6  -6   4    1.56    0.13
  10   5  -4    0.44    0.08
  10   5  -4    0.28    0.07
   9   5  -4    0.20    0.07
   9   5  -4    0.21    0.04
   9   5  -4    0.15    0.06
  -9  -5   4   -0.04    0.06
   8   5  -4    1.70    0.09
   8   5  -4    1.91    0.09
   8   5  -4    1.94    0.14
  -8  -5   4    1.71    0.10
  -8  -5   4    1.56    0.13
   7   5  -4    2.70    0.10
   7   5  -4    2.88    0.11
   7   5  -4    2.87    0.16
   7   5  -4    2.66    0.10
  -7  -5   4    2.88    0.11
  -7  -5   4    2.93    0.15
  -7  -5   4    2.87    0.15
  -7  -5   4    2.72    0.15
   6   5  -4    2.42    0.10
   6   5  -4    2.44    0.14
   6   5  -4    2.41    0.09
   6   5  -4    2.44    0.14
   6   5  -4    2.43    0.08
   6   5  -4    2.42    0.09
   6   5  -4    2.45    0.09
  -6  -5   4    2.52    0.10
  -6  -5   4    2.38    0.13
  -6  -5   4    2.41    0.14
  -6  -5   4    2.38    0.09
  -6  -5   4    2.31    0.14
  -6  -5   4    2.32    0.13
   5   5  -4    4.48    0.13
   5   5  -4    4.48    0.13
   5   5  -4    4.21    0.22
   5   5  -4    4.70    0.19
   5   5  -4    4.60    0.16
   5   5  -4    4.48    0.14
  -5  -5   4    4.31    0.16
  -5  -5   4    4.55    0.17
  -5  -5   4    4.28    0.18
  -5  -5   4    4.13    0.22
  -5  -5   4    4.53    0.16
  -5  -5   4    4.48    0.23
  -5  -5   4    4.63    0.15
   4   5  -4   28.01    0.83
   4   5  -4   26.45    0.77
   4   5  -4   26.14    1.09
   4   5  -4   26.92    0.72
  -4  -5   4   26.66    0.77
  -4  -5   4   26.25    1.09
  -4  -5   4   26.39    0.81
  -4  -5   4   26.89    0.79
  -4  -5   4   26.39    0.74
  -4  -5   4   25.65    1.09
  -4  -5   4   26.59    0.77
   3   5  -4    5.99    0.18
   3   5  -4    6.14    0.20
   3   5  -4    5.27    0.28
  -3  -5   4    6.33    0.29
  -3  -5   4    5.96    0.21
  -3  -5   4    6.23    0.20
  -3  -5   4    6.12    0.18
  -3  -5   4    5.99    0.29
  -3  -5   4    5.95    0.20
  -3  -5   4    6.19    0.20
   2   5  -4    1.64    0.07
   2   5  -4    1.81    0.12
   2   5  -4    1.67    0.09
  -2  -5   4    1.74    0.07
  -2  -5   4    1.74    0.13
  -2  -5   4    1.71    0.13
  -2  -5   4    1.61    0.08
  -2  -5   4    1.66    0.09
  -2  -5   4    1.74    0.09
   1   5  -4    0.23    0.04
   1   5  -4    0.20    0.03
   1   5  -4    0.30    0.06
  -1  -5   4    0.25    0.03
  -1  -5   4    0.20    0.04
  -1  -5   4    0.19    0.02
  -1  -5   4    0.21    0.06
  -1  -5   4    0.17    0.03
   0   5  -4    3.10    0.13
   0   5  -4    3.08    0.11
   0   5  -4    3.24    0.19
   0  -5   4    3.25    0.13
   0  -5   4    3.00    0.19
   0  -5   4    3.18    0.11
   0  -5   4    3.14    0.11
   0  -5   4    3.21    0.10
   0  -5   4    3.22    0.11
  -1   5  -4   16.28    0.45
  -1   5  -4   14.29    0.67
  -1   5  -4   15.97    0.48
   1  -5   4   16.50    0.48
   1  -5   4   16.07    0.44
   1  -5   4   14.07    0.67
   1  -5   4   16.01    0.44
  -2   5  -4    0.01    0.04
  -2   5  -4    0.03    0.06
  -2   5  -4    0.04    0.03
  -2   5  -4    0.01    0.03
   2  -5   4   -0.01    0.03
   2  -5   4   -0.01    0.06
   2  -5   4    0.00    0.03
   2  -5   4    0.04    0.04
  -3   5  -4    2.68    0.13
  -3   5  -4    2.87    0.19
  -3   5  -4    3.13    0.13
  -3   5  -4    2.94    0.11
   3  -5   4    2.94    0.14
   3  -5   4    2.89    0.19
   3  -5   4    2.99    0.12
  -4   5  -4    0.50    0.06
  -4   5  -4    0.35    0.08
  -4   5  -4    0.47    0.06
   4  -5   4    0.18    0.08
   4  -5   4    0.43    0.05
   4  -5   4    0.52    0.06
  -5   5  -4    0.34    0.08
  -5   5  -4    0.42    0.06
  -5   5  -4    0.39    0.07
  -5   5  -4    0.54    0.07
   5  -5   4    0.52    0.06
   5  -5   4    0.50    0.09
   5  -5   4    0.41    0.06
  -6   5  -4    0.25    0.05
  -6   5  -4    0.27    0.07
  -6   5  -4    0.11    0.07
  -6   5  -4    0.27    0.06
   6  -5   4    0.19    0.06
   6  -5   4    0.13    0.06
  -7   5  -4   -0.03    0.07
  -7   5  -4   -0.03    0.06
  -7   5  -4   -0.02    0.05
   7  -5   4   -0.09    0.06
   7  -5   4   -0.09    0.05
  10   4  -4    0.47    0.06
  10   4  -4    0.39    0.07
  10   4  -4    0.36    0.08
   9   4  -4    0.07    0.04
   9   4  -4   -0.04    0.05
   9   4  -4    0.00    0.05
   8   4  -4    0.04    0.03
   8   4  -4    0.05    0.05
   8   4  -4    0.08    0.03
  -8  -4   4   -0.08    0.05
   7   4  -4    5.87    0.18
   7   4  -4    5.83    0.18
   7   4  -4    5.75    0.19
   7   4  -4    6.20    0.24
   7   4  -4    5.89    0.19
  -7  -4   4    6.09    0.23
  -7  -4   4    6.00    0.18
  -7  -4   4    5.91    0.22
  -7  -4   4    5.98    0.26
  -7  -4   4    5.80    0.26
   6   4  -4    0.20    0.05
   6   4  -4    0.06    0.02
   6   4  -4    0.06    0.02
   6   4  -4    0.13    0.02
   6   4  -4    0.09    0.02
   6   4  -4    0.02    0.03
  -6  -4   4    0.08    0.03
  -6  -4   4    0.05    0.04
  -6  -4   4    0.10    0.04
  -6  -4   4    0.01    0.03
  -6  -4   4   -0.09    0.04
   5   4  -4    3.41    0.10
   5   4  -4    3.40    0.11
   5   4  -4    3.40    0.12
   5   4  -4    3.66    0.16
   5   4  -4    3.34    0.17
   5   4  -4    3.46    0.11
   5   4  -4    3.42    0.11
  -5  -4   4    3.30    0.18
  -5  -4   4    3.53    0.15
  -5  -4   4    3.36    0.12
  -5  -4   4    3.50    0.12
  -5  -4   4    3.27    0.17
  -5  -4   4    3.62    0.14
   4   4  -4    0.19    0.01
   4   4  -4    0.12    0.04
   4   4  -4    0.21    0.02
   4   4  -4    0.19    0.02
   4   4  -4    0.16    0.03
   4   4  -4    0.13    0.04
  -4  -4   4    0.13    0.03
  -4  -4   4    0.13    0.04
  -4  -4   4    0.09    0.04
  -4  -4   4    0.18    0.04
  -4  -4   4    0.12    0.04
  -4  -4   4    0.21    0.03
  -4  -4   4    0.16    0.03
   3   4  -4    0.38    0.02
   3   4  -4    0.35    0.05
   3   4  -4    0.31    0.04
   3   4  -4    0.27    0.05
  -3  -4   4    0.39    0.05
  -3  -4   4    0.37    0.04
  -3  -4   4    0.31    0.04
  -3  -4   4    0.32    0.04
  -3  -4   4    0.39    0.03
  -3  -4   4    0.33    0.05
  -3  -4   4    0.33    0.04
  -3  -4   4    0.39    0.03
   2   4  -4    1.75    0.11
   2   4  -4    1.38    0.08
   2   4  -4    1.64    0.06
   2   4  -4    1.64    0.09
  -2  -4   4    1.62    0.06
  -2  -4   4    1.70    0.08
  -2  -4   4    1.73    0.08
  -2  -4   4    1.73    0.08
  -2  -4   4    1.74    0.11
  -2  -4   4    1.59    0.08
  -2  -4   4    1.71    0.11
   1   4  -4    1.40    0.07
   1   4  -4    1.24    0.05
   1   4  -4    1.27    0.10
  -1  -4   4    1.30    0.10
  -1  -4   4    1.32    0.07
  -1  -4   4    1.26    0.05
  -1  -4   4    1.27    0.06
  -1  -4   4    1.28    0.05
  -1  -4   4    1.22    0.07
  -1  -4   4    1.23    0.10
   0   4  -4   17.82    0.50
   0   4  -4   18.54    0.75
   0   4  -4   17.29    0.53
   0  -4   4   17.26    0.51
   0  -4   4   17.71    0.50
   0  -4   4   17.73    0.53
   0  -4   4   17.84    0.49
   0  -4   4   19.47    0.76
   0  -4   4   18.44    0.75
   0  -4   4   17.31    0.51
  -1   4  -4    5.57    0.19
  -1   4  -4    5.50    0.17
  -1   4  -4    5.55    0.27
   1  -4   4    5.39    0.27
   1  -4   4    5.48    0.17
   1  -4   4    5.64    0.19
   1  -4   4    5.44    0.17
   1  -4   4    5.52    0.17
  -2   4  -4    4.73    0.17
  -2   4  -4    4.50    0.16
  -2   4  -4    4.82    0.17
  -2   4  -4    4.90    0.25
   2  -4   4    4.71    0.18
   2  -4   4    4.75    0.15
   2  -4   4    4.90    0.16
   2  -4   4    4.87    0.25
  -3   4  -4   15.98    0.72
  -3   4  -4   17.35    0.53
  -3   4  -4   17.28    0.49
  -3   4  -4   17.09    0.51
   3  -4   4   17.14    0.49
   3  -4   4   16.45    0.73
   3  -4   4   17.62    0.49
   3  -4   4   17.19    0.52
  -4   4  -4    0.69    0.07
  -4   4  -4    0.79    0.07
  -4   4  -4    0.75    0.07
  -4   4  -4    0.93    0.11
  -4   4  -4    0.85    0.05
   4  -4   4    0.88    0.07
   4  -4   4    0.86    0.07
   4  -4   4    0.91    0.05
   4  -4   4    0.69    0.09
  -5   4  -4    0.07    0.05
  -5   4  -4    0.05    0.04
  -5   4  -4    0.14    0.05
  -5   4  -4    0.14    0.06
   5  -4   4    0.10    0.06
   5  -4   4    0.13    0.05
   5  -4   4    0.10    0.04
  -6   4  -4   -0.03    0.05
  -6   4  -4   -0.01    0.05
  -6   4  -4    0.01    0.04
  -6   4  -4   -0.08    0.04
   6  -4   4   -0.04    0.04
   6  -4   4    0.00    0.05
   6  -4   4    0.06    0.06
  -7   4  -4   -0.07    0.05
  -7   4  -4    0.06    0.05
  -7   4  -4   -0.01    0.06
  -7   4  -4   -0.02    0.04
   7  -4   4   -0.01    0.04
   7  -4   4    0.10    0.06
  -8   4  -4    4.26    0.26
  -8   4  -4    4.73    0.19
  -8   4  -4    4.88    0.24
   8  -4   4    4.89    0.21
   8  -4   4    4.63    0.20
  10   3  -4    0.85    0.07
  10   3  -4    0.65    0.08
  10   3  -4    0.58    0.09
   9   3  -4    0.33    0.06
   9   3  -4    0.32    0.05
   9   3  -4    0.39    0.07
   9   3  -4    0.25    0.05
   8   3  -4    1.36    0.08
   8   3  -4    1.31    0.08
   8   3  -4    1.50    0.12
   7   3  -4    0.65    0.05
   7   3  -4    0.81    0.05
   7   3  -4    0.77    0.05
   7   3  -4    0.73    0.06
   7   3  -4    0.64    0.07
   6   3  -4    0.01    0.02
   6   3  -4    0.06    0.02
   6   3  -4    0.03    0.02
   6   3  -4    0.01    0.03
   6   3  -4    0.09    0.02
   6   3  -4   -0.01    0.02
   6   3  -4    0.03    0.04
   6   3  -4    0.12    0.03
  -6  -3   4   -0.03    0.04
  -6  -3   4    0.02    0.03
  -6  -3   4    0.01    0.02
  -6  -3   4    0.06    0.03
   5   3  -4    1.87    0.06
   5   3  -4    1.80    0.11
   5   3  -4    1.94    0.07
   5   3  -4    1.86    0.10
   5   3  -4    1.93    0.11
   5   3  -4    1.90    0.07
   5   3  -4    1.85    0.07
   5   3  -4    1.89    0.08
  -5  -3   4    1.82    0.10
  -5  -3   4    1.85    0.11
  -5  -3   4    1.84    0.08
  -5  -3   4    1.75    0.10
  -5  -3   4    1.84    0.10
  -5  -3   4    1.87    0.07
   4   3  -4    3.05    0.09
   4   3  -4    3.02    0.09
   4   3  -4    3.03    0.15
   4   3  -4    3.01    0.09
   4   3  -4    2.98    0.09
   4   3  -4    3.01    0.15
   4   3  -4    3.08    0.13
   4   3  -4    2.98    0.11
  -4  -3   4    2.88    0.13
  -4  -3   4    3.08    0.11
  -4  -3   4    3.03    0.12
  -4  -3   4    3.16    0.15
  -4  -3   4    3.04    0.11
  -4  -3   4    3.28    0.16
   3   3  -4    3.50    0.10
   3   3  -4    3.53    0.13
   3   3  -4    3.45    0.12
   3   3  -4    3.43    0.14
   3   3  -4    3.34    0.17
   3   3  -4    3.20    0.17
  -3  -3   4    3.51    0.13
  -3  -3   4    3.85    0.18
  -3  -3   4    3.58    0.17
  -3  -3   4    3.40    0.13
  -3  -3   4    3.62    0.12
  -3  -3   4    3.60    0.12
  -3  -3   4    3.55    0.12
   2   3  -4    1.25    0.07
   2   3  -4    1.29    0.09
   2   3  -4    1.27    0.08
   2   3  -4    1.40    0.09
   2   3  -4    1.32    0.04
  -2  -3   4    1.33    0.04
  -2  -3   4    1.30    0.06
  -2  -3   4    1.30    0.08
  -2  -3   4    1.35    0.09
  -2  -3   4    1.38    0.07
  -2  -3   4    1.35    0.07
  -2  -3   4    1.32    0.07
  -2  -3   4    1.37    0.09
   1   3  -4    0.21    0.04
   1   3  -4    0.26    0.05
   1   3  -4    0.34    0.03
   1   3  -4    0.20    0.03
   1   3  -4    0.24    0.03
  -1  -3   4    0.27    0.02
  -1  -3   4    0.27    0.03
  -1  -3   4    0.29    0.02
  -1  -3   4    0.25    0.03
  -1  -3   4    0.23    0.03
  -1  -3   4    0.23    0.05
  -1  -3   4    0.24    0.03
  -1  -3   4    0.24    0.03
  -1  -3   4    0.26    0.05
   0   3  -4    0.86    0.07
   0   3  -4    0.82    0.08
   0   3  -4    0.91    0.04
   0   3  -4    0.82    0.06
   0  -3   4    0.82    0.08
   0  -3   4    0.81    0.07
   0  -3   4    0.77    0.04
   0  -3   4    0.81    0.04
   0  -3   4    0.76    0.06
   0  -3   4    0.77    0.06
   0  -3   4    0.77    0.03
   0  -3   4    0.83    0.06
   0  -3   4    0.81    0.06
  -1   3  -4    3.63    0.20
  -1   3  -4    3.86    0.13
  -1   3  -4    4.24    0.20
  -1   3  -4    3.79    0.14
   1  -3   4    3.88    0.12
   1  -3   4    3.84    0.12
   1  -3   4    4.20    0.14
   1  -3   4    3.95    0.12
   1  -3   4    3.43    0.19
   1  -3   4    3.93    0.15
   1  -3   4    4.07    0.14
   1  -3   4    3.87    0.20
  -2   3  -4    1.60    0.07
  -2   3  -4    1.73    0.12
  -2   3  -4    1.77    0.12
  -2   3  -4    1.55    0.08
  -2   3  -4    1.56    0.07
   2  -3   4    1.62    0.07
   2  -3   4    1.64    0.07
   2  -3   4    1.66    0.12
   2  -3   4    1.51    0.08
   2  -3   4    1.46    0.08
  -3   3  -4    4.10    0.15
  -3   3  -4    4.12    0.15
  -3   3  -4    4.10    0.15
  -3   3  -4    4.62    0.22
  -3   3  -4    4.40    0.22
   3  -3   4    4.17    0.14
   3  -3   4    4.03    0.12
   3  -3   4    4.04    0.16
   3  -3   4    4.31    0.22
   3  -3   4    4.04    0.14
  -4   3  -4    2.15    0.09
  -4   3  -4    1.78    0.11
  -4   3  -4    2.53    0.16
  -4   3  -4    1.89    0.12
  -4   3  -4    2.41    0.15
  -4   3  -4    2.33    0.11
   4  -3   4    2.30    0.08
   4  -3   4    2.36    0.10
   4  -3   4    1.68    0.11
   4  -3   4    2.53    0.16
  -5   3  -4    0.28    0.07
  -5   3  -4    0.23    0.04
  -5   3  -4    0.23    0.05
  -5   3  -4    0.20    0.05
  -5   3  -4    0.19    0.06
  -5   3  -4    0.22    0.03
   5  -3   4    0.23    0.05
   5  -3   4    0.29    0.03
   5  -3   4    0.28    0.05
   5  -3   4    0.29    0.07
  -6   3  -4    0.94    0.07
  -6   3  -4    1.06    0.09
  -6   3  -4    1.10    0.10
  -6   3  -4    1.07    0.12
   6  -3   4    1.15    0.09
   6  -3   4    1.18    0.12
   6  -3   4    1.08    0.09
  -7   3  -4    0.01    0.04
  -7   3  -4    0.03    0.05
  -7   3  -4    0.02    0.04
  -7   3  -4    0.01    0.05
   7  -3   4   -0.02    0.05
   7  -3   4    0.14    0.05
  -8   3  -4    1.55    0.13
  -8   3  -4    1.37    0.10
  -8   3  -4    1.65    0.14
   8  -3   4    1.23    0.10
   8  -3   4    1.34    0.11
  -9   3  -4    5.92    0.31
  -9   3  -4    5.43    0.27
   9  -3   4    6.08    0.24
  10   2  -4    0.11    0.06
  10   2  -4    0.09    0.05
  10   2  -4   -0.04    0.06
  10   2  -4    0.10    0.05
   9   2  -4    0.80    0.07
   9   2  -4    0.74    0.07
   9   2  -4    0.76    0.09
   9   2  -4    0.69    0.07
   8   2  -4    1.24    0.07
   8   2  -4    1.39    0.12
   8   2  -4    1.13    0.08
   8   2  -4    1.21    0.08
   7   2  -4    0.86    0.07
   7   2  -4    0.73    0.08
   7   2  -4    0.93    0.06
   7   2  -4    0.98    0.07
   7   2  -4    0.82    0.05
   6   2  -4    4.29    0.15
   6   2  -4    4.42    0.19
   6   2  -4    4.44    0.14
   6   2  -4    4.44    0.15
   6   2  -4    4.47    0.13
   6   2  -4    4.52    0.15
   6   2  -4    4.59    0.18
   6   2  -4    4.65    0.19
  -6  -2   4    4.43    0.18
  -6  -2   4    4.57    0.19
   5   2  -4    2.42    0.08
   5   2  -4    2.50    0.10
   5   2  -4    2.48    0.12
   5   2  -4    2.44    0.09
   5   2  -4    2.91    0.08
   5   2  -4    2.36    0.12
   5   2  -4    2.48    0.09
   5   2  -4    2.63    0.12
  -5  -2   4    2.46    0.12
  -5  -2   4    2.58    0.12
  -5  -2   4    2.44    0.09
  -5  -2   4    2.41    0.12
   4   2  -4    6.53    0.27
   4   2  -4    6.10    0.20
   4   2  -4    6.14    0.22
   4   2  -4    6.35    0.19
   4   2  -4    6.05    0.17
   4   2  -4    6.25    0.21
   4   2  -4    6.02    0.18
   4   2  -4    6.35    0.22
   4   2  -4    6.55    0.27
   4   2  -4    6.01    0.18
  -4  -2   4    6.23    0.22
  -4  -2   4    6.42    0.21
  -4  -2   4    6.40    0.27
  -4  -2   4    6.27    0.20
  -4  -2   4    6.11    0.19
  -4  -2   4    6.42    0.27
   3   2  -4    9.83    0.28
   3   2  -4    9.64    0.30
   3   2  -4    9.91    0.29
   3   2  -4    9.66    0.41
   3   2  -4    9.56    0.29
   3   2  -4    9.94    0.41
   3   2  -4    9.99    0.33
   3   2  -4    9.85    0.30
  -3  -2   4    9.69    0.29
  -3  -2   4    9.78    0.30
  -3  -2   4    9.91    0.30
  -3  -2   4   10.10    0.41
  -3  -2   4   10.39    0.42
  -3  -2   4    9.84    0.31
  -3  -2   4    9.99    0.32
   2   2  -4   30.38    1.30
   2   2  -4   31.77    0.99
   2   2  -4   33.09    0.92
   2   2  -4   32.23    0.92
   2   2  -4   30.48    1.31
   2   2  -4   32.50    0.96
   2   2  -4   32.91    0.92
  -2  -2   4   33.34    0.92
  -2  -2   4   34.02    1.31
  -2  -2   4   32.59    0.96
  -2  -2   4   32.53    0.92
  -2  -2   4   34.86    1.31
  -2  -2   4   33.19    0.99
   1   2  -4   18.63    0.51
   1   2  -4   18.64    0.59
   1   2  -4   18.95    0.54
   1   2  -4   18.60    0.55
   1   2  -4   21.55    0.78
   1   2  -4   17.51    0.77
   1   2  -4   19.28    0.55
  -1  -2   4   19.56    0.78
  -1  -2   4   18.61    0.55
  -1  -2   4   18.72    0.53
  -1  -2   4   18.52    0.54
  -1  -2   4   19.54    0.78
  -1  -2   4   19.01    0.57
  -1  -2   4   19.21    0.51
  -1  -2   4   18.81    0.59
   0   2  -4    8.07    0.25
   0   2  -4    8.00    0.23
   0   2  -4    8.33    0.25
   0   2  -4    9.13    0.36
   0   2  -4    7.60    0.35
   0   2  -4    7.90    0.26
   0  -2   4    8.21    0.23
   0  -2   4    8.06    0.25
   0  -2   4    8.13    0.26
   0  -2   4    8.83    0.36
   0  -2   4    8.19    0.25
   0  -2   4    7.88    0.23
   0  -2   4    7.07    0.35
   0  -2   4    8.05    0.26
  -1   2  -4    3.18    0.11
  -1   2  -4    2.94    0.11
  -1   2  -4    3.12    0.10
  -1   2  -4    3.19    0.16
  -1   2  -4    3.18    0.12
  -1   2  -4    3.20    0.16
   1  -2   4    3.03    0.16
   1  -2   4    3.10    0.12
   1  -2   4    3.07    0.09
   1  -2   4    3.02    0.10
   1  -2   4    3.31    0.17
   1  -2   4    3.21    0.12
   1  -2   4    3.19    0.11
  -2   2  -4    0.04    0.03
  -2   2  -4   -0.02    0.02
  -2   2  -4    0.00    0.04
  -2   2  -4    0.02    0.02
  -2   2  -4    0.02    0.02
  -2   2  -4    0.01    0.02
   2  -2   4   -0.01    0.02
   2  -2   4    0.01    0.02
   2  -2   4    0.03    0.03
   2  -2   4    0.01    0.03
   2  -2   4    0.01    0.04
   2  -2   4    0.02    0.02
  -3   2  -4    0.22    0.03
  -3   2  -4    0.23    0.03
  -3   2  -4    0.22    0.04
  -3   2  -4    0.19    0.03
  -3   2  -4    0.26    0.05
  -3   2  -4    0.28    0.05
   3  -2   4    0.20    0.05
   3  -2   4    0.22    0.04
   3  -2   4    0.25    0.03
   3  -2   4    0.28    0.05
  -4   2  -4    4.70    0.16
  -4   2  -4    4.56    0.16
  -4   2  -4    4.65    0.24
  -4   2  -4    4.81    0.23
  -4   2  -4    4.51    0.16
  -4   2  -4    4.55    0.18
   4  -2   4    4.44    0.17
   4  -2   4    4.71    0.23
   4  -2   4    4.57    0.16
   4  -2   4    4.69    0.14
  -5   2  -4   49.43    1.59
  -5   2  -4   54.39    2.06
  -5   2  -4   51.05    2.05
  -5   2  -4   50.76    1.40
  -5   2  -4   49.84    1.54
  -5   2  -4   50.60    1.45
   5  -2   4   53.76    2.06
   5  -2   4   50.85    1.45
   5  -2   4   50.02    1.43
  -6   2  -4   33.79    0.94
  -6   2  -4   31.88    1.36
  -6   2  -4   34.13    1.06
  -6   2  -4   34.19    0.96
  -6   2  -4   33.04    1.01
  -6   2  -4   33.51    1.36
   6  -2   4   32.99    0.96
   6  -2   4   33.18    0.94
   6  -2   4   33.51    1.36
  -7   2  -4    0.40    0.07
  -7   2  -4    0.44    0.05
  -7   2  -4    0.39    0.07
   7  -2   4    0.38    0.07
   7  -2   4    0.39    0.06
   7  -2   4    0.46    0.05
  -8   2  -4    0.49    0.08
  -8   2  -4    0.53    0.06
  -8   2  -4    0.48    0.08
   8  -2   4    0.63    0.08
   8  -2   4    0.48    0.06
  -9   2  -4    2.11    0.16
  -9   2  -4    2.04    0.16
   9  -2   4    2.45    0.15
  10   1  -4    5.48    0.25
  10   1  -4    5.49    0.21
  10   1  -4    5.20    0.22
  10   1  -4    5.55    0.22
   9   1  -4    0.76    0.07
   9   1  -4    0.82    0.09
   9   1  -4    0.69    0.07
   9   1  -4    0.82    0.07
   8   1  -4    0.03    0.04
   8   1  -4   -0.02    0.03
   8   1  -4   -0.02    0.04
   8   1  -4    0.05    0.05
   8   1  -4    0.07    0.03
   7   1  -4    1.00    0.06
   7   1  -4    1.14    0.07
   7   1  -4    1.04    0.08
   7   1  -4    1.14    0.08
   7   1  -4    1.16    0.11
   6   1  -4    0.03    0.03
   6   1  -4    0.01    0.03
   6   1  -4    0.12    0.03
   6   1  -4    0.00    0.04
   6   1  -4    0.00    0.03
   5   1  -4   10.21    0.32
   5   1  -4   10.65    0.42
   5   1  -4   10.39    0.29
   5   1  -4   10.33    0.31
   5   1  -4   10.22    0.30
   5   1  -4   10.42    0.35
   5   1  -4   10.75    0.36
   5   1  -4   10.46    0.31
   5   1  -4   10.72    0.42
  -5  -1   4   10.44    0.42
  -5  -1   4   10.62    0.42
  -5  -1   4   10.34    0.34
   4   1  -4    4.49    0.17
   4   1  -4    4.42    0.19
   4   1  -4    4.46    0.14
   4   1  -4    4.50    0.15
   4   1  -4    4.45    0.14
   4   1  -4    4.42    0.14
   4   1  -4    4.45    0.13
   4   1  -4    4.37    0.14
   4   1  -4    4.49    0.20
   4   1  -4    4.57    0.16
  -4  -1   4    4.50    0.14
  -4  -1   4    4.57    0.15
  -4  -1   4    4.45    0.20
  -4  -1   4    4.36    0.16
   3   1  -4   70.56    3.07
   3   1  -4   78.80    2.18
   3   1  -4   78.67    2.08
   3   1  -4   77.69    2.34
   3   1  -4   79.32    2.12
   3   1  -4   74.30    3.07
   3   1  -4   77.98    2.17
   3   1  -4   77.96    2.14
   3   1  -4   77.88    2.17
   3   1  -4   79.75    2.38
   3   1  -4   77.23    2.26
  -3  -1   4   79.79    2.27
  -3  -1   4   78.08    3.07
  -3  -1   4   78.27    3.07
  -3  -1   4   80.02    2.26
  -3  -1   4   79.95    2.17
   2   1  -4    2.69    0.11
   2   1  -4    3.04    0.14
   2   1  -4    2.82    0.10
   2   1  -4    2.63    0.10
   2   1  -4    2.79    0.10
   2   1  -4    2.93    0.14
   2   1  -4    2.72    0.10
   2   1  -4    2.75    0.09
  -2  -1   4    2.88    0.10
  -2  -1   4    2.95    0.14
  -2  -1   4    2.70    0.10
  -2  -1   4    2.74    0.14
  -2  -1   4    2.56    0.11
   1   1  -4   11.68    0.46
   1   1  -4   10.85    0.33
   1   1  -4    9.96    0.46
   1   1  -4   11.06    0.34
   1   1  -4   11.27    0.32
   1   1  -4   11.23    0.35
   1   1  -4   11.25    0.32
  -1  -1   4   11.19    0.33
  -1  -1   4   10.53    0.46
  -1  -1   4   11.14    0.35
  -1  -1   4   10.87    0.34
  -1  -1   4   10.95    0.30
  -1  -1   4   11.55    0.46
   0   1  -4    2.16    0.08
   0   1  -4    2.15    0.09
   0   1  -4    2.24    0.07
   0   1  -4    2.11    0.09
   0   1  -4    1.98    0.12
   0   1  -4    2.43    0.12
   0   1  -4    2.19    0.08
   0  -1   4    2.14    0.07
   0  -1   4    2.19    0.09
   0  -1   4    2.44    0.12
   0  -1   4    2.13    0.09
   0  -1   4    2.34    0.12
   0  -1   4    2.13    0.09
   0  -1   4    2.19    0.07
  -1   1  -4   30.11    0.84
  -1   1  -4   27.85    1.19
  -1   1  -4   30.68    0.90
  -1   1  -4   29.22    0.84
  -1   1  -4   31.28    1.20
   1  -1   4   29.38    0.88
   1  -1   4   29.70    0.84
   1  -1   4   30.15    0.90
   1  -1   4   30.01    0.80
   1  -1   4   26.69    1.19
   1  -1   4   31.39    1.20
  -2   1  -4    9.47    0.30
  -2   1  -4    9.47    0.40
  -2   1  -4    9.08    0.28
  -2   1  -4    9.75    0.41
  -2   1  -4    9.12    0.28
   2  -1   4    9.51    0.30
   2  -1   4    8.97    0.40
   2  -1   4    9.57    0.30
   2  -1   4    9.19    0.27
   2  -1   4    9.82    0.41
   2  -1   4    9.24    0.29
  -3   1  -4   18.85    0.56
  -3   1  -4   18.50    0.56
  -3   1  -4   18.92    0.59
  -3   1  -4   18.67    0.61
  -3   1  -4   20.02    0.79
  -3   1  -4   19.17    0.79
   3  -1   4   18.60    0.56
   3  -1   4   20.55    0.79
   3  -1   4   18.78    0.54
   3  -1   4   19.14    0.58
   3  -1   4   20.47    0.79
  -4   1  -4    4.41    0.15
  -4   1  -4    4.34    0.15
  -4   1  -4    4.42    0.17
  -4   1  -4    4.57    0.22
  -4   1  -4    4.19    0.21
  -4   1  -4    4.06    0.15
   4  -1   4    4.59    0.22
   4  -1   4    4.31    0.15
   4  -1   4    4.19    0.15
   4  -1   4    4.37    0.16
  -5   1  -4   47.08    1.34
  -5   1  -4   46.82    1.34
  -5   1  -4   47.22    1.43
  -5   1  -4   47.71    1.90
  -5   1  -4   48.40    1.90
  -5   1  -4   46.77    1.47
   5  -1   4   47.52    1.34
   5  -1   4   47.14    1.32
   5  -1   4   47.03    1.30
   5  -1   4   47.05    1.43
   5  -1   4   48.96    1.90
  -6   1  -4   55.64    2.26
  -6   1  -4   55.94    2.26
  -6   1  -4   57.27    1.60
  -6   1  -4   56.91    1.76
  -6   1  -4   56.31    1.71
   6  -1   4   56.83    1.70
   6  -1   4   57.80    2.26
   6  -1   4   56.26    1.60
   6  -1   4   55.86    1.58
  -7   1  -4    1.90    0.14
  -7   1  -4    1.72    0.08
  -7   1  -4    1.50    0.12
  -7   1  -4    1.67    0.09
  -7   1  -4    1.73    0.13
   7  -1   4    1.58    0.10
   7  -1   4    1.59    0.09
   7  -1   4    1.78    0.13
  -8   1  -4    1.13    0.11
  -8   1  -4    1.24    0.08
  -8   1  -4    1.09    0.10
   8  -1   4    1.23    0.08
   8  -1   4    1.29    0.09
  -9   1  -4    2.29    0.15
  -9   1  -4    2.27    0.12
  -9   1  -4    2.47    0.16
   9  -1   4    2.14    0.15
 -10   1  -4    3.40    0.22
 -10   1  -4    3.53    0.20
  10  -1   4    3.75    0.20
  10  -1   4    3.87    0.19
  10   0  -4    6.67    0.29
  10   0  -4    6.79    0.26
  10   0  -4    6.42    0.25
   9   0  -4    1.58    0.12
   9   0  -4    1.84    0.14
   9   0  -4    1.25    0.10
   9   0  -4    1.31    0.11
   8   0  -4    1.95    0.11
   8   0  -4    2.05    0.11
   8   0  -4    2.08    0.11
   8   0  -4    2.09    0.15
   7   0  -4    3.60    0.14
   7   0  -4    3.65    0.13
   7   0  -4    3.54    0.14
   6   0  -4    0.02    0.03
   6   0  -4   -0.01    0.03
   6   0  -4    0.05    0.03
   5   0  -4   30.88    1.18
   5   0  -4   29.28    0.88
   5   0  -4   30.12    1.18
   5   0  -4   29.71    0.83
   5   0  -4   29.21    0.83
   5   0  -4   29.81    0.81
   5   0  -4   29.89    0.84
  -5   0   4   29.83    1.18
  -5   0   4   29.08    0.82
  -5   0   4   30.74    1.18
   4   0  -4    8.47    0.24
   4   0  -4    8.46    0.27
   4   0  -4    8.53    0.28
   4   0  -4    8.29    0.25
   4   0  -4    8.25    0.27
   4   0  -4    8.49    0.35
   4   0  -4    8.62    0.35
   4   0  -4    8.22    0.24
   4   0  -4    8.62    0.27
  -4   0   4    8.39    0.24
  -4   0   4    8.38    0.35
  -4   0   4    8.11    0.27
   3   0  -4   50.67    2.09
   3   0  -4   53.50    1.49
   3   0  -4   53.16    1.54
   3   0  -4   53.92    1.62
   3   0  -4   53.10    1.45
   3   0  -4   50.33    2.09
   3   0  -4   55.15    1.55
   3   0  -4   53.05    1.42
   3   0  -4   52.82    1.48
   3   0  -4   53.15    1.60
  -3   0   4   51.69    2.09
  -3   0   4   54.41    1.54
  -3   0   4   52.49    1.55
  -3   0   4   53.67    1.42
  -3   0   4   53.55    1.48
  -3   0   4   52.42    2.09
   2   0  -4    8.15    0.23
   2   0  -4    8.58    0.35
   2   0  -4    7.70    0.34
   2   0  -4    8.01    0.27
   2   0  -4    8.26    0.26
   2   0  -4    8.24    0.26
   2   0  -4    8.09    0.23
   2   0  -4    8.27    0.25
   2   0  -4    8.15    0.24
  -2   0   4    8.37    0.34
  -2   0   4    7.91    0.34
  -2   0   4    8.18    0.23
  -2   0   4    8.37    0.26
  -2   0   4    8.01    0.26
  -2   0   4    8.19    0.22
  -2   0   4    8.31    0.24
   1   0  -4    8.34    0.25
   1   0  -4    8.29    0.26
   1   0  -4    8.06    0.27
   1   0  -4    8.51    0.35
   1   0  -4    8.11    0.26
   1   0  -4    8.26    0.23
   1   0  -4    8.14    0.25
   1   0  -4    8.49    0.35
  -1   0   4    8.36    0.26
  -1   0   4    8.19    0.25
  -1   0   4    8.73    0.35
  -1   0   4    8.86    0.36
  -1   0   4    8.16    0.24
  -1   0   4    8.34    0.23
   0   0  -4    4.23    0.15
   0   0  -4    4.26    0.15
   0   0  -4    4.22    0.14
   0   0  -4    4.42    0.15
   0   0  -4    4.26    0.20
   0   0  -4    4.48    0.20
   0   0   4    4.36    0.15
   0   0   4    4.19    0.14
   0   0   4    4.20    0.14
   0   0   4    4.83    0.20
   0   0   4    4.52    0.20
   0   0   4    4.24    0.13
  -1   0  -4  150.66    4.47
  -1   0  -4  155.83    5.89
  -1   0  -4  132.86    5.89
  -1   0  -4  153.37    4.47
  -1   0  -4  150.26    4.16
  -1   0  -4  148.38    4.33
   1   0   4  152.27    4.45
   1   0   4  148.52    4.13
   1   0   4  149.99    4.33
   1   0   4  148.86    4.16
   1   0   4  152.04    4.00
   1   0   4  154.81    5.89
  -2   0  -4   16.29    0.67
  -2   0  -4   16.51    0.50
  -2   0  -4   15.99    0.47
  -2   0  -4   16.01    0.50
  -2   0  -4   15.60    0.66
   2   0   4   15.93    0.45
   2   0   4   17.24    0.67
   2   0   4   16.02    0.46
   2   0   4   16.47    0.49
   2   0   4   16.01    0.50
   2   0   4   16.21    0.49
   2   0   4   15.98    0.47
   2   0   4   15.37    0.66
  -3   0  -4  244.30   11.08
  -3   0  -4  292.60    8.47
  -3   0  -4  285.94    7.82
  -3   0  -4  289.55    7.83
  -3   0  -4  282.81    7.84
  -3   0  -4  286.43    8.56
   3   0   4  287.87    7.83
   3   0   4  266.22   11.08
   3   0   4  297.01    8.14
   3   0   4  283.38    7.80
   3   0   4  284.52    7.53
   3   0   4  281.40    8.41
   3   0   4  288.40    8.41
  -4   0  -4    0.13    0.03
  -4   0  -4    0.12    0.05
  -4   0  -4    0.22    0.05
  -4   0  -4    0.12    0.03
  -4   0  -4    0.18    0.03
  -4   0  -4    0.15    0.03
   4   0   4    0.09    0.04
   4   0   4    0.14    0.03
   4   0   4    0.12    0.03
   4   0   4    0.14    0.03
   4   0   4    0.11    0.03
   4   0   4    0.09    0.03
   4   0   4    0.16    0.04
  -5   0  -4   14.31    0.65
  -5   0  -4   15.72    0.51
  -5   0  -4   14.96    0.65
  -5   0  -4   15.36    0.48
  -5   0  -4   15.79    0.49
  -5   0  -4   16.01    0.46
  -5   0  -4   16.07    0.46
   5   0   4   16.02    0.45
   5   0   4   16.23    0.48
   5   0   4   15.81    0.49
   5   0   4   14.00    0.65
   5   0   4   15.98    0.47
   5   0   4   15.75    0.46
  -6   0  -4   39.45    1.11
  -6   0  -4   42.25    1.58
  -6   0  -4   39.19    1.11
  -6   0  -4   38.93    1.23
  -6   0  -4   39.19    1.19
  -6   0  -4   36.61    1.57
   6   0   4   38.99    1.19
   6   0   4   39.53    1.12
   6   0   4   37.48    1.57
   6   0   4   39.17    1.11
  -7   0  -4    0.56    0.07
  -7   0  -4    0.49    0.07
  -7   0  -4    0.56    0.08
  -7   0  -4    0.55    0.05
  -7   0  -4    0.55    0.05
   7   0   4    0.61    0.07
   7   0   4    0.52    0.05
   7   0   4    0.45    0.05
   7   0   4    0.52    0.07
  -8   0  -4    2.67    0.12
  -8   0  -4    2.88    0.16
  -8   0  -4    2.68    0.15
   8   0   4    2.62    0.12
   8   0   4    2.46    0.14
   8   0   4    2.80    0.12
  -9   0  -4    0.67    0.08
  -9   0  -4    0.64    0.05
  -9   0  -4    0.60    0.07
   9   0   4    0.63    0.06
   9   0   4    0.72    0.09
   9   0   4    0.60    0.06
 -10   0  -4    0.07    0.07
 -10   0  -4    0.15    0.05
  10   0   4    0.02    0.07
  10  -1  -4    0.01    0.06
   9  -1  -4    0.85    0.09
   9  -1  -4    1.01    0.08
  -9   1   4    1.00    0.10
   8  -1  -4   12.83    0.41
   8  -1  -4   12.37    0.41
   8  -1  -4   12.66    0.40
  -8   1   4   12.85    0.45
   7  -1  -4    0.17    0.05
   7  -1  -4    0.02    0.04
  -7   1   4    0.05    0.04
  -7   1   4    0.00    0.05
   6  -1  -4   52.77    1.58
   6  -1  -4   54.31    1.45
   6  -1  -4   53.94    1.49
  -6   1   4   53.73    1.46
  -6   1   4   53.49    1.67
   5  -1  -4   10.00    0.30
   5  -1  -4    9.89    0.32
   5  -1  -4    9.63    0.29
   5  -1  -4   10.17    0.41
   5  -1  -4    9.98    0.41
   5  -1  -4   10.10    0.29
   5  -1  -4    9.86    0.29
  -5   1   4   10.23    0.35
  -5   1   4   10.18    0.41
  -5   1   4    9.85    0.41
  -5   1   4    9.98    0.29
   4  -1  -4    5.62    0.18
   4  -1  -4    5.54    0.19
   4  -1  -4    5.91    0.20
   4  -1  -4    5.77    0.20
   4  -1  -4    5.69    0.17
   4  -1  -4    5.64    0.17
   4  -1  -4    5.70    0.17
   4  -1  -4    5.87    0.25
  -4   1   4    5.86    0.21
  -4   1   4    5.77    0.25
  -4   1   4    5.53    0.17
   3  -1  -4   37.12    0.98
   3  -1  -4   37.42    1.13
   3  -1  -4   36.34    1.03
   3  -1  -4   38.37    1.45
   3  -1  -4   36.52    1.01
   3  -1  -4   37.76    1.07
   3  -1  -4   36.07    1.02
   3  -1  -4   35.35    1.45
   3  -1  -4   36.53    1.07
  -3   1   4   36.64    1.13
  -3   1   4   37.17    1.01
  -3   1   4   35.81    1.07
  -3   1   4   36.72    1.45
  -3   1   4   36.70    0.98
  -3   1   4   32.63    1.45
   2  -1  -4    8.35    0.36
   2  -1  -4    8.47    0.25
   2  -1  -4    8.49    0.24
   2  -1  -4    8.95    0.36
   2  -1  -4    8.11    0.27
   2  -1  -4    8.20    0.25
   2  -1  -4    8.50    0.27
   2  -1  -4    8.28    0.24
  -2   1   4    8.57    0.25
  -2   1   4    8.57    0.36
  -2   1   4    8.43    0.27
  -2   1   4    8.47    0.27
  -2   1   4    8.54    0.24
  -2   1   4    8.59    0.25
  -2   1   4    8.40    0.36
  -2   1   4    8.44    0.27
   1  -1  -4    3.63    0.13
   1  -1  -4    3.61    0.12
   1  -1  -4    3.66    0.17
   1  -1  -4    3.44    0.12
   1  -1  -4    3.46    0.11
   1  -1  -4    3.60    0.17
  -1   1   4    3.11    0.17
  -1   1   4    3.55    0.11
  -1   1   4    3.39    0.12
  -1   1   4    3.47    0.12
  -1   1   4    3.49    0.17
  -1   1   4    3.56    0.12
  -1   1   4    3.87    0.10
   0  -1  -4   29.70    0.93
   0  -1  -4   30.58    0.87
   0  -1  -4   31.05    1.23
   0  -1  -4   33.85    1.24
   0  -1  -4   30.07    0.91
   0  -1  -4   31.64    0.94
   0  -1  -4   30.24    0.86
   0   1   4   29.93    0.91
   0   1   4   31.67    1.24
   0   1   4   30.74    0.87
   0   1   4   29.49    1.23
   0   1   4   30.28    0.86
  -1  -1  -4    0.55    0.04
  -1  -1  -4    0.53    0.04
  -1  -1  -4    0.54    0.03
  -1  -1  -4    0.52    0.06
  -1  -1  -4    0.50    0.03
  -1  -1  -4    0.54    0.04
  -1  -1  -4    0.61    0.07
   1   1   4    0.65    0.04
   1   1   4    0.58    0.03
   1   1   4    0.60    0.05
   1   1   4    0.59    0.06
   1   1   4    0.52    0.06
  -2  -1  -4  447.16   15.72
  -2  -1  -4  393.44   11.06
  -2  -1  -4  382.74   11.53
  -2  -1  -4  386.37   10.98
  -2  -1  -4  391.36   15.71
  -2  -1  -4  387.97   11.89
  -2  -1  -4  386.86   12.09
   2   1   4  387.51   11.05
   2   1   4  394.14   10.98
   2   1   4  427.35   15.73
   2   1   4  386.75   11.83
   2   1   4  384.83   11.50
   2   1   4  426.11   15.72
   2   1   4  388.92   11.89
  -3  -1  -4  125.12    5.22
  -3  -1  -4  134.43    3.69
  -3  -1  -4  131.45    5.23
  -3  -1  -4  135.02    3.68
  -3  -1  -4  132.08    4.03
  -3  -1  -4  137.56    3.97
   3   1   4  135.03    4.03
   3   1   4  132.64    3.66
   3   1   4  132.32    3.95
   3   1   4  139.09    5.23
   3   1   4  131.74    3.97
   3   1   4  124.24    5.22
   3   1   4  133.33    3.69
   3   1   4  133.65    3.84
  -4  -1  -4   39.82    1.12
  -4  -1  -4   39.64    1.24
  -4  -1  -4   38.55    1.61
  -4  -1  -4   42.76    1.61
  -4  -1  -4   39.86    1.13
  -4  -1  -4   41.12    1.22
   4   1   4   39.32    1.13
   4   1   4   40.50    1.10
   4   1   4   39.74    1.22
   4   1   4   39.94    1.14
   4   1   4   41.41    1.61
   4   1   4   39.94    1.18
   4   1   4   39.17    1.61
   4   1   4   40.52    1.24
  -5  -1  -4    5.61    0.17
  -5  -1  -4    5.57    0.21
  -5  -1  -4    5.90    0.26
  -5  -1  -4    5.82    0.19
  -5  -1  -4    5.47    0.26
  -5  -1  -4    5.73    0.20
  -5  -1  -4    5.54    0.18
   5   1   4    5.65    0.19
   5   1   4    5.52    0.20
   5   1   4    5.21    0.26
   5   1   4    5.76    0.19
   5   1   4    5.66    0.19
   5   1   4    5.68    0.20
   5   1   4    5.59    0.18
   5   1   4    5.86    0.26
  -6  -1  -4   14.08    0.41
  -6  -1  -4   13.67    0.46
  -6  -1  -4   13.31    0.58
  -6  -1  -4   14.25    0.41
  -6  -1  -4   13.86    0.44
  -6  -1  -4   14.15    0.41
  -6  -1  -4   14.08    0.58
   6   1   4   13.21    0.58
   6   1   4   14.38    0.43
   6   1   4   13.64    0.42
   6   1   4   13.92    0.45
   6   1   4   14.06    0.41
  -7  -1  -4   10.14    0.44
  -7  -1  -4    9.78    0.43
  -7  -1  -4   10.05    0.31
  -7  -1  -4    9.74    0.35
  -7  -1  -4    9.85    0.31
   7   1   4   10.06    0.33
   7   1   4   10.61    0.44
   7   1   4    9.93    0.33
   7   1   4   10.00    0.31
  -8  -1  -4   42.80    1.23
  -8  -1  -4   43.23    1.23
  -8  -1  -4   43.64    1.37
  -8  -1  -4   42.96    1.74
   8   1   4   44.30    1.33
   8   1   4   43.39    1.25
   8   1   4   43.98    1.74
   8   1   4   42.56    1.23
  -9  -1  -4    2.75    0.16
  -9  -1  -4    2.66    0.16
  -9  -1  -4    2.66    0.11
   9   1   4    2.67    0.13
   9   1   4    2.61    0.12
   9   1   4    2.96    0.16
 -10  -1  -4    0.04    0.04
 -10  -1  -4    0.13    0.06
  10   1   4   -0.04    0.06
  11   1   4    0.04    0.07
   9  -2  -4   -0.04    0.05
   9  -2  -4    0.02    0.05
  -9   2   4    0.01    0.06
   8  -2  -4    5.75    0.22
   8  -2  -4    6.08    0.22
  -8   2   4    5.62    0.21
  -8   2   4    5.60    0.25
   7  -2  -4    0.10    0.03
   7  -2  -4    0.07    0.05
   7  -2  -4    0.09    0.05
  -7   2   4    0.08    0.05
  -7   2   4    0.10    0.06
   6  -2  -4   32.17    0.92
   6  -2  -4   33.05    0.93
   6  -2  -4   33.11    1.31
   6  -2  -4   32.82    0.91
   6  -2  -4   32.33    0.92
   6  -2  -4   32.99    1.31
   6  -2  -4   33.43    0.99
  -6   2   4   33.05    0.91
  -6   2   4   32.79    1.31
  -6   2   4   33.45    1.05
  -6   2   4   33.00    1.31
   5  -2  -4   13.27    0.40
   5  -2  -4   13.34    0.39
   5  -2  -4   13.42    0.42
   5  -2  -4   13.87    0.55
   5  -2  -4   13.63    0.55
   5  -2  -4   13.35    0.39
   5  -2  -4   13.61    0.39
  -5   2   4   12.51    0.55
  -5   2   4   13.69    0.55
  -5   2   4   13.62    0.45
  -5   2   4   13.41    0.39
   4  -2  -4    0.05    0.02
   4  -2  -4    0.04    0.03
   4  -2  -4    0.06    0.02
   4  -2  -4    0.03    0.03
   4  -2  -4    0.05    0.03
   4  -2  -4    0.07    0.03
   4  -2  -4    0.00    0.02
   4  -2  -4   -0.01    0.03
   4  -2  -4    0.06    0.02
  -4   2   4    0.04    0.03
  -4   2   4   -0.01    0.03
  -4   2   4    0.04    0.03
  -4   2   4    0.05    0.03
   3  -2  -4    0.10    0.03
   3  -2  -4    0.14    0.02
   3  -2  -4    0.27    0.02
   3  -2  -4    0.11    0.03
   3  -2  -4    0.12    0.02
   3  -2  -4    0.16    0.03
   3  -2  -4    0.21    0.02
   3  -2  -4    0.09    0.03
   3  -2  -4    0.13    0.03
  -3   2   4    0.15    0.02
  -3   2   4    0.11    0.04
  -3   2   4    0.15    0.03
  -3   2   4    0.08    0.03
  -3   2   4    0.14    0.03
   2  -2  -4   14.34    0.41
   2  -2  -4   14.10    0.40
   2  -2  -4   14.60    0.43
   2  -2  -4   14.48    0.44
   2  -2  -4   14.00    0.58
   2  -2  -4   13.70    0.44
   2  -2  -4   14.45    0.59
   2  -2  -4   14.03    0.41
   2  -2  -4   14.29    0.41
  -2   2   4   14.61    0.41
  -2   2   4   15.06    0.59
  -2   2   4   14.09    0.40
  -2   2   4   14.22    0.43
  -2   2   4   13.95    0.59
  -2   2   4   14.27    0.45
   1  -2  -4  227.50    6.72
   1  -2  -4  229.83    6.45
   1  -2  -4  208.19    9.14
   1  -2  -4  230.64    6.45
   1  -2  -4  249.51    9.21
   1  -2  -4  235.44    6.94
  -1   2   4  233.41    6.72
  -1   2   4  255.73    9.20
  -1   2   4  230.59    6.36
  -1   2   4  231.08    7.10
  -1   2   4  229.74    6.74
  -1   2   4  233.33    6.26
   0  -2  -4   10.25    0.30
   0  -2  -4   10.71    0.43
   0  -2  -4    8.96    0.42
   0  -2  -4   10.38    0.32
   0  -2  -4    9.85    0.29
   0  -2  -4    9.87    0.31
   0   2   4   10.25    0.32
   0   2   4   10.06    0.43
   0   2   4   10.61    0.43
   0   2   4    9.95    0.29
   0   2   4   10.30    0.31
   0   2   4   10.23    0.28
   0   2   4   10.14    0.30
   0   2   4   10.29    0.29
  -1  -2  -4    4.37    0.14
  -1  -2  -4    3.72    0.20
  -1  -2  -4    4.27    0.15
  -1  -2  -4    4.50    0.14
  -1  -2  -4    4.12    0.20
   1   2   4    4.40    0.20
   1   2   4    4.46    0.15
   1   2   4    4.45    0.14
   1   2   4    4.38    0.15
   1   2   4    4.37    0.14
   1   2   4    4.32    0.20
  -2  -2  -4    0.08    0.02
  -2  -2  -4   -0.03    0.04
  -2  -2  -4    0.11    0.01
  -2  -2  -4    0.24    0.03
  -2  -2  -4    0.09    0.02
  -2  -2  -4    0.09    0.02
   2   2   4    0.09    0.02
   2   2   4    0.12    0.02
   2   2   4    0.08    0.02
   2   2   4   -0.05    0.04
   2   2   4   -0.01    0.04
   2   2   4    0.10    0.03
   2   2   4    0.08    0.01
  -3  -2  -4  121.73    5.24
  -3  -2  -4  135.01    3.70
  -3  -2  -4  138.92    3.98
  -3  -2  -4  133.83    3.85
  -3  -2  -4  123.69    5.24
  -3  -2  -4  135.46    3.67
   3   2   4  136.86    3.85
   3   2   4  133.07    3.98
   3   2   4  133.83    3.70
   3   2   4  137.61    4.04
   3   2   4  135.35    3.67
   3   2   4  133.96    5.24
   3   2   4  129.95    5.24
  -4  -2  -4    2.91    0.11
  -4  -2  -4    2.98    0.12
  -4  -2  -4    2.88    0.16
  -4  -2  -4    2.95    0.10
  -4  -2  -4    2.96    0.16
  -4  -2  -4    2.92    0.10
   4   2   4    2.90    0.11
   4   2   4    2.79    0.12
   4   2   4    3.15    0.16
   4   2   4    2.86    0.15
   4   2   4    2.96    0.11
   4   2   4    3.04    0.11
  -5  -2  -4   12.13    0.51
  -5  -2  -4   11.47    0.51
  -5  -2  -4   11.94    0.36
  -5  -2  -4   12.57    0.39
  -5  -2  -4   12.17    0.36
  -5  -2  -4   12.12    0.40
   5   2   4   12.14    0.36
   5   2   4   12.10    0.37
   5   2   4   12.31    0.39
   5   2   4   12.29    0.51
   5   2   4   12.30    0.37
   5   2   4   12.30    0.36
   5   2   4   12.06    0.51
   5   2   4   12.52    0.40
  -6  -2  -4   18.95    0.59
  -6  -2  -4   17.96    0.77
  -6  -2  -4   18.86    0.54
  -6  -2  -4   18.85    0.60
  -6  -2  -4   18.88    0.54
  -6  -2  -4   19.13    0.77
   6   2   4   18.47    0.53
   6   2   4   18.81    0.55
   6   2   4   18.25    0.54
   6   2   4   19.12    0.56
   6   2   4   18.57    0.59
   6   2   4   17.96    0.77
  -7  -2  -4    0.45    0.05
  -7  -2  -4    0.44    0.04
  -7  -2  -4    0.20    0.05
  -7  -2  -4    0.47    0.06
  -7  -2  -4    0.44    0.04
  -7  -2  -4    0.35    0.06
   7   2   4    0.39    0.06
   7   2   4    0.34    0.04
   7   2   4    0.35    0.05
   7   2   4    0.45    0.04
   7   2   4    0.35    0.06
  -8  -2  -4   13.74    0.41
  -8  -2  -4   13.59    0.58
  -8  -2  -4   13.63    0.41
  -8  -2  -4   13.25    0.58
  -8  -2  -4   13.96    0.42
   8   2   4   14.15    0.58
   8   2   4   14.11    0.44
   8   2   4   13.93    0.45
   8   2   4   13.42    0.41
  -9  -2  -4    2.95    0.12
  -9  -2  -4    3.10    0.17
   9   2   4    3.03    0.15
   9   2   4    3.16    0.16
 -10  -2  -4    0.59    0.07
  10   2   4    0.55    0.07
  10   2   4    0.49    0.08
  11   2   4   -0.07    0.07
   9  -3  -4    0.37    0.07
   9  -3  -4    0.43    0.09
   9  -3  -4    0.38    0.08
  -9   3   4    0.51    0.07
  -9   3   4    0.55    0.09
   8  -3  -4    0.89    0.09
   8  -3  -4    0.68    0.07
  -8   3   4    0.87    0.08
  -8   3   4    0.63    0.09
   7  -3  -4    2.37    0.13
   7  -3  -4    2.24    0.13
  -7   3   4    2.30    0.12
  -7   3   4    2.40    0.15
  -7   3   4    2.26    0.12
   6  -3  -4   14.35    0.44
   6  -3  -4   15.01    0.47
  -6   3   4   14.61    0.60
  -6   3   4   14.68    0.43
  -6   3   4   14.68    0.61
  -6   3   4   14.73    0.50
   5  -3  -4    7.32    0.26
   5  -3  -4    7.32    0.23
   5  -3  -4    7.52    0.24
   5  -3  -4    7.31    0.23
   5  -3  -4    7.81    0.33
   5  -3  -4    7.22    0.23
   5  -3  -4    7.04    0.24
  -5   3   4    7.70    0.32
  -5   3   4    7.52    0.33
  -5   3   4    7.25    0.28
  -5   3   4    7.42    0.24
   4  -3  -4    0.98    0.08
   4  -3  -4    1.23    0.09
   4  -3  -4    1.15    0.06
   4  -3  -4    1.18    0.06
   4  -3  -4    1.09    0.06
   4  -3  -4    1.14    0.07
   4  -3  -4    1.29    0.08
   4  -3  -4    1.26    0.07
  -4   3   4    1.06    0.09
  -4   3   4    1.04    0.07
  -4   3   4    1.17    0.09
  -4   3   4    1.30    0.09
   3  -3  -4    4.99    0.23
   3  -3  -4    4.75    0.23
   3  -3  -4    5.05    0.17
   3  -3  -4    4.62    0.16
   3  -3  -4    4.95    0.16
   3  -3  -4    4.65    0.18
   3  -3  -4    5.02    0.16
   3  -3  -4    5.01    0.17
   3  -3  -4    4.90    0.16
   3  -3  -4    4.93    0.16
  -3   3   4    5.00    0.23
  -3   3   4    4.87    0.16
  -3   3   4    5.46    0.23
  -3   3   4    4.80    0.18
   2  -3  -4   14.22    0.60
   2  -3  -4   14.16    0.45
   2  -3  -4   14.27    0.43
   2  -3  -4   15.16    0.60
   2  -3  -4   14.47    0.45
   2  -3  -4   14.39    0.42
   2  -3  -4   14.49    0.41
   2  -3  -4   14.36    0.44
   2  -3  -4   14.81    0.43
   2  -3  -4   14.44    0.42
  -2   3   4   14.57    0.60
  -2   3   4   15.53    0.60
  -2   3   4   14.57    0.46
  -2   3   4   14.48    0.41
   1  -3  -4    0.07    0.04
   1  -3  -4    0.07    0.02
   1  -3  -4    0.04    0.02
   1  -3  -4    0.07    0.02
   1  -3  -4    0.09    0.02
   1  -3  -4    0.07    0.03
   1  -3  -4    0.01    0.03
  -1   3   4    0.05    0.04
  -1   3   4    0.09    0.02
  -1   3   4    0.09    0.02
  -1   3   4    0.12    0.02
  -1   3   4    0.06    0.03
   0  -3  -4    9.90    0.41
   0  -3  -4    9.13    0.30
   0  -3  -4    9.51    0.29
   0  -3  -4   10.28    0.41
   0  -3  -4    9.58    0.30
   0  -3  -4    9.30    0.28
   0   3   4    9.27    0.28
   0   3   4    9.31    0.28
   0   3   4    8.91    0.40
   0   3   4    9.40    0.30
   0   3   4    9.53    0.27
   0   3   4    9.47    0.28
   0   3   4   10.03    0.41
  -1  -3  -4    2.22    0.12
  -1  -3  -4    2.01    0.12
  -1  -3  -4    1.99    0.08
  -1  -3  -4    2.01    0.08
   1   3   4    2.02    0.08
   1   3   4    1.68    0.11
   1   3   4    2.00    0.08
   1   3   4    2.12    0.08
   1   3   4    2.01    0.11
  -2  -3  -4    1.02    0.08
  -2  -3  -4    1.20    0.09
  -2  -3  -4    1.02    0.06
  -2  -3  -4    1.08    0.05
  -2  -3  -4    1.07    0.06
   2   3   4    1.12    0.08
   2   3   4    1.04    0.06
   2   3   4    1.03    0.06
   2   3   4    1.06    0.05
   2   3   4    0.98    0.08
  -3  -3  -4   39.25    1.11
  -3  -3  -4   40.28    1.19
  -3  -3  -4   39.17    1.10
  -3  -3  -4   38.54    1.15
  -3  -3  -4   38.36    1.57
  -3  -3  -4   42.44    1.57
   3   3   4   39.86    1.15
   3   3   4   39.13    1.57
   3   3   4   39.03    1.19
   3   3   4   39.06    1.10
   3   3   4   38.09    1.57
   3   3   4   38.99    1.20
   3   3   4   38.42    1.11
  -4  -3  -4   20.52    0.89
  -4  -3  -4   22.64    0.63
  -4  -3  -4   22.07    0.63
  -4  -3  -4   22.51    0.68
  -4  -3  -4   21.29    0.89
  -4  -3  -4   22.00    0.65
   4   3   4   21.68    0.68
   4   3   4   22.40    0.63
   4   3   4   21.68    0.62
   4   3   4   22.44    0.65
   4   3   4   22.41    0.89
   4   3   4   21.99    0.68
   4   3   4   18.96    0.88
  -5  -3  -4    2.23    0.10
  -5  -3  -4    2.51    0.11
  -5  -3  -4    2.58    0.14
  -5  -3  -4    2.36    0.14
  -5  -3  -4    2.50    0.09
   5   3   4    2.45    0.13
   5   3   4    2.42    0.10
   5   3   4    2.36    0.11
   5   3   4    2.61    0.14
   5   3   4    2.19    0.09
   5   3   4    2.14    0.11
   5   3   4    2.10    0.10
  -6  -3  -4    3.92    0.19
  -6  -3  -4    3.86    0.14
  -6  -3  -4    3.73    0.19
  -6  -3  -4    3.98    0.14
   6   3   4    4.01    0.14
   6   3   4    3.82    0.15
   6   3   4    3.69    0.14
   6   3   4    3.61    0.19
   6   3   4    3.92    0.16
   6   3   4    3.76    0.15
  -7  -3  -4    0.07    0.05
  -7  -3  -4    0.15    0.05
  -7  -3  -4    0.12    0.03
  -7  -3  -4    0.06    0.03
   7   3   4    0.11    0.02
   7   3   4    0.06    0.05
   7   3   4    0.05    0.04
   7   3   4    0.12    0.03
   7   3   4    0.03    0.04
  -8  -3  -4    7.26    0.24
  -8  -3  -4    7.47    0.25
  -8  -3  -4    7.31    0.34
  -8  -3  -4    7.37    0.34
  -8  -3  -4    7.59    0.24
   8   3   4    7.46    0.24
   8   3   4    7.75    0.34
   8   3   4    7.71    0.27
   8   3   4    7.74    0.25
   8   3   4    7.78    0.26
  -9  -3  -4    4.81    0.17
  -9  -3  -4    5.06    0.19
  -9  -3  -4    4.91    0.24
   9   3   4    5.03    0.18
   9   3   4    5.49    0.21
   9   3   4    5.11    0.21
 -10  -3  -4    6.93    0.25
 -10  -3  -4    6.75    0.31
  10   3   4    7.47    0.27
  10   3   4    6.65    0.27
  11   3   4    0.41    0.09
  11   3   4    0.43    0.07
   8  -4  -4   -0.02    0.07
   8  -4  -4    0.07    0.05
   8  -4  -4   -0.01    0.06
  -8   4   4    0.07    0.05
  -8   4   4   -0.03    0.06
   7  -4  -4   -0.05    0.04
   7  -4  -4   -0.05    0.06
   7  -4  -4   -0.04    0.05
  -7   4   4    0.01    0.04
  -7   4   4   -0.04    0.05
  -7   4   4   -0.01    0.04
   6  -4  -4    5.63    0.22
   6  -4  -4    5.48    0.21
  -6   4   4    5.66    0.20
  -6   4   4    5.49    0.23
  -6   4   4    5.58    0.26
   5  -4  -4   10.71    0.33
   5  -4  -4   10.80    0.46
   5  -4  -4   10.42    0.34
   5  -4  -4   10.69    0.36
   5  -4  -4   10.51    0.32
  -5   4   4   10.54    0.38
  -5   4   4   11.26    0.46
  -5   4   4   11.00    0.46
  -5   4   4   10.41    0.33
   4  -4  -4   44.73    1.22
   4  -4  -4   45.88    1.25
   4  -4  -4   43.66    1.79
   4  -4  -4   43.89    1.26
   4  -4  -4   45.60    1.35
   4  -4  -4   44.77    1.33
  -4   4   4   43.50    1.79
  -4   4   4   45.52    1.79
  -4   4   4   45.20    1.22
  -4   4   4   44.58    1.40
   3  -4  -4    0.81    0.07
   3  -4  -4    0.91    0.07
   3  -4  -4    0.80    0.06
   3  -4  -4    0.95    0.06
   3  -4  -4    0.86    0.09
   3  -4  -4    0.91    0.05
   3  -4  -4    0.85    0.06
  -3   4   4    0.96    0.06
  -3   4   4    0.98    0.08
  -3   4   4    0.85    0.07
  -3   4   4    0.96    0.09
   2  -4  -4    8.82    0.29
   2  -4  -4    8.81    0.27
   2  -4  -4    9.11    0.27
   2  -4  -4    8.95    0.26
   2  -4  -4    8.80    0.28
   2  -4  -4    9.14    0.38
   2  -4  -4    8.49    0.27
   2  -4  -4    8.72    0.27
   2  -4  -4    8.89    0.38
  -2   4   4    8.21    0.38
  -2   4   4    8.69    0.29
  -2   4   4    8.70    0.26
  -2   4   4    8.47    0.38
   1  -4  -4    0.14    0.02
   1  -4  -4    0.10    0.04
   1  -4  -4    0.10    0.02
   1  -4  -4    0.14    0.02
   1  -4  -4    0.12    0.02
   1  -4  -4    0.09    0.04
   1  -4  -4    0.14    0.02
   1  -4  -4    0.07    0.03
  -1   4   4    0.05    0.04
  -1   4   4    0.11    0.04
  -1   4   4    0.20    0.03
  -1   4   4    0.13    0.02
  -1   4   4    0.11    0.02
   0  -4  -4   34.14    0.97
   0  -4  -4   34.67    1.03
   0  -4  -4   34.03    0.96
   0  -4  -4   35.63    1.37
   0  -4  -4   33.12    1.01
   0  -4  -4   33.16    1.37
   0   4   4   34.30    0.96
   0   4   4   33.55    0.93
   0   4   4   32.64    1.37
   0   4   4   34.25    0.94
   0   4   4   33.87    1.03
   0   4   4   35.23    1.37
  -1  -4  -4   14.72    0.45
  -1  -4  -4   13.45    0.60
  -1  -4  -4   14.06    0.42
  -1  -4  -4   15.75    0.60
  -1  -4  -4   13.94    0.44
  -1  -4  -4   14.71    0.43
   1   4   4   13.67    0.60
   1   4   4   14.98    0.44
   1   4   4   14.43    0.42
   1   4   4   13.88    0.45
   1   4   4   14.29    0.41
   1   4   4   15.21    0.60
  -2  -4  -4    0.86    0.06
  -2  -4  -4    0.88    0.06
  -2  -4  -4    1.01    0.08
  -2  -4  -4    0.89    0.06
  -2  -4  -4    0.90    0.05
  -2  -4  -4    0.91    0.08
   2   4   4    0.84    0.06
   2   4   4    0.90    0.05
   2   4   4    0.88    0.05
   2   4   4    0.98    0.08
  -3  -4  -4    0.64    0.05
  -3  -4  -4    0.72    0.05
  -3  -4  -4    0.67    0.05
  -3  -4  -4    0.62    0.08
  -3  -4  -4    0.72    0.08
  -3  -4  -4    0.62    0.05
   3   4   4    0.50    0.05
   3   4   4    0.67    0.08
   3   4   4    0.67    0.05
   3   4   4    0.72    0.05
   3   4   4    0.64    0.07
  -4  -4  -4   40.38    1.18
  -4  -4  -4   42.33    1.24
  -4  -4  -4   41.22    1.15
  -4  -4  -4   41.00    1.14
  -4  -4  -4   36.48    1.62
  -4  -4  -4   43.08    1.62
   4   4   4   41.53    1.18
   4   4   4   43.10    1.62
   4   4   4   34.54    1.62
   4   4   4   40.45    1.14
   4   4   4   41.18    1.24
  -5  -4  -4   83.20    3.64
  -5  -4  -4   90.90    3.64
  -5  -4  -4   93.60    2.67
  -5  -4  -4   92.26    2.57
   5   4   4   93.11    2.56
   5   4   4   93.02    3.65
   5   4   4   94.82    2.82
   5   4   4   92.78    2.77
   5   4   4   91.84    3.64
   5   4   4   95.35    2.67
  -6  -4  -4    0.78    0.09
  -6  -4  -4    0.74    0.08
  -6  -4  -4    0.77    0.06
  -6  -4  -4    0.66    0.05
   6   4   4    0.79    0.09
   6   4   4    0.66    0.06
   6   4   4    0.69    0.05
   6   4   4    0.60    0.06
  -7  -4  -4   10.36    0.33
  -7  -4  -4   10.65    0.46
  -7  -4  -4   10.44    0.45
  -7  -4  -4   10.22    0.32
   7   4   4   10.74    0.45
   7   4   4   10.53    0.32
   7   4   4   10.31    0.33
   7   4   4   10.08    0.35
  -8  -4  -4    0.27    0.06
  -8  -4  -4    0.23    0.06
  -8  -4  -4    0.29    0.05
  -8  -4  -4    0.26    0.04
   8   4   4    0.19    0.06
   8   4   4    0.22    0.06
   8   4   4    0.24    0.03
   8   4   4    0.28    0.05
   8   4   4    0.40    0.04
  -9  -4  -4    9.10    0.40
  -9  -4  -4    9.25    0.30
   9   4   4    9.00    0.32
   9   4   4    9.15    0.33
 -10  -4  -4    0.13    0.05
 -10  -4  -4    0.10    0.06
  10   4   4    0.04    0.07
  10   4   4   -0.08    0.06
 -11  -4  -4    4.46    0.20
  11   4   4    4.37    0.21
  11   4   4    4.83    0.22
   8  -5  -4    0.24    0.08
   8  -5  -4    0.26    0.07
  -8   5   4    0.17    0.08
   7  -5  -4    0.26    0.07
   7  -5  -4    0.11    0.06
   7  -5  -4    0.18    0.07
  -7   5   4    0.16    0.06
  -7   5   4    0.08    0.06
  -7   5   4    0.14    0.05
   6  -5  -4    0.04    0.05
   6  -5  -4    0.05    0.05
   6  -5  -4    0.12    0.06
  -6   5   4    0.19    0.05
  -6   5   4    0.03    0.05
  -6   5   4    0.03    0.05
   5  -5  -4    0.46    0.07
   5  -5  -4    0.37    0.06
   5  -5  -4    0.50    0.06
   5  -5  -4    0.46    0.07
  -5   5   4    0.51    0.07
  -5   5   4    0.45    0.06
  -5   5   4    0.41    0.07
   4  -5  -4   15.67    0.66
   4  -5  -4   15.50    0.46
   4  -5  -4   15.25    0.47
   4  -5  -4   15.60    0.49
   4  -5  -4   15.12    0.49
  -4   5   4   15.27    0.45
  -4   5   4   15.89    0.66
  -4   5   4   15.22    0.65
  -4   5   4   15.13    0.52
   3  -5  -4   34.52    1.02
   3  -5  -4   34.34    1.00
   3  -5  -4   34.03    0.95
   3  -5  -4   33.22    1.01
   3  -5  -4   34.70    1.02
   3  -5  -4   35.11    1.37
  -3   5   4   33.77    0.93
  -3   5   4   34.76    1.06
  -3   5   4   30.99    1.37
  -3   5   4   32.35    1.37
   2  -5  -4    0.92    0.06
   2  -5  -4    0.97    0.07
   2  -5  -4    0.99    0.08
   2  -5  -4    0.99    0.06
   2  -5  -4    1.08    0.05
   2  -5  -4    0.90    0.10
  -2   5   4    0.84    0.06
  -2   5   4    0.95    0.09
  -2   5   4    0.97    0.09
   1  -5  -4    0.71    0.08
   1  -5  -4    0.72    0.06
   1  -5  -4    0.66    0.05
   1  -5  -4    0.71    0.05
   1  -5  -4    0.72    0.07
   1  -5  -4    0.71    0.05
   1  -5  -4    0.77    0.04
  -1   5   4    0.66    0.08
  -1   5   4    0.77    0.05
  -1   5   4    0.75    0.08
  -1   5   4    0.77    0.05
   0  -5  -4    3.66    0.15
   0  -5  -4    3.79    0.20
   0  -5  -4    3.78    0.14
   0  -5  -4    3.84    0.20
   0  -5  -4    3.96    0.14
   0  -5  -4    3.86    0.14
   0  -5  -4    3.79    0.14
   0   5   4    4.37    0.20
   0   5   4    4.07    0.14
   0   5   4    3.80    0.20
   0   5   4    3.69    0.13
   0   5   4    3.77    0.14
   0   5   4    3.98    0.13
  -1  -5  -4    0.39    0.06
  -1  -5  -4    0.41    0.04
  -1  -5  -4    0.36    0.04
  -1  -5  -4    0.31    0.04
  -1  -5  -4    0.41    0.04
  -1  -5  -4    0.51    0.05
  -1  -5  -4    0.57    0.07
   1   5   4    0.44    0.04
   1   5   4    0.53    0.06
   1   5   4    0.42    0.04
   1   5   4    0.39    0.06
   1   5   4    0.37    0.04
   1   5   4    0.35    0.03
  -2  -5  -4    5.54    0.18
  -2  -5  -4    5.87    0.27
  -2  -5  -4    6.11    0.27
  -2  -5  -4    5.52    0.20
  -2  -5  -4    5.62    0.19
  -2  -5  -4    5.67    0.19
   2   5   4    5.49    0.20
   2   5   4    4.88    0.26
   2   5   4    5.64    0.18
   2   5   4    5.88    0.26
  -3  -5  -4   19.37    0.56
  -3  -5  -4   18.81    0.56
  -3  -5  -4   19.48    0.61
  -3  -5  -4   18.70    0.58
  -3  -5  -4   22.17    0.80
  -3  -5  -4   19.06    0.80
  -3  -5  -4   19.74    0.56
   3   5   4   19.41    0.58
   3   5   4   20.38    0.80
   3   5   4   18.69    0.61
   3   5   4   18.85    0.56
   3   5   4   19.11    0.56
   3   5   4   17.32    0.80
  -4  -5  -4   48.79    1.43
  -4  -5  -4   53.80    1.96
  -4  -5  -4   48.84    1.38
  -4  -5  -4   46.47    1.96
  -4  -5  -4   47.88    1.46
   4   5   4   51.77    1.96
   4   5   4   48.84    1.37
   4   5   4   49.59    1.43
   4   5   4   48.76    1.49
   4   5   4   44.47    1.96
  -5  -5  -4   39.88    1.50
  -5  -5  -4   36.21    1.06
  -5  -5  -4   36.72    1.51
  -5  -5  -4   37.09    1.11
  -5  -5  -4   36.91    1.09
   5   5   4   35.79    1.50
   5   5   4   37.73    1.09
   5   5   4   37.60    1.06
   5   5   4   37.61    1.15
  -6  -5  -4    0.55    0.05
  -6  -5  -4    0.41    0.05
  -6  -5  -4    0.47    0.06
  -6  -5  -4    0.41    0.04
  -6  -5  -4    0.44    0.07
   6   5   4    0.42    0.04
   6   5   4    0.38    0.07
   6   5   4    0.49    0.05
   6   5   4    0.40    0.06
  -7  -5  -4    3.18    0.13
  -7  -5  -4    3.38    0.19
  -7  -5  -4    3.34    0.14
  -7  -5  -4    3.22    0.18
   7   5   4    3.39    0.19
   7   5   4    3.16    0.15
   7   5   4    3.63    0.15
   7   5   4    3.35    0.12
  -8  -5  -4    0.70    0.05
  -8  -5  -4    0.66    0.08
  -8  -5  -4    0.67    0.05
  -8  -5  -4    0.69    0.08
  -8  -5  -4    0.68    0.07
   8   5   4    0.81    0.10
   8   5   4    0.50    0.07
   8   5   4    0.71    0.07
  -9  -5  -4    2.20    0.13
  -9  -5  -4    2.24    0.15
   9   5   4    2.13    0.14
   9   5   4    2.19    0.14
 -10  -5  -4   -0.12    0.05
 -10  -5  -4    0.00    0.05
  10   5   4   -0.03    0.06
  10   5   4   -0.08    0.06
 -11  -5  -4    0.03    0.06
 -11  -5  -4   -0.06    0.05
  11   5   4    0.09    0.07
  11   5   4    0.09    0.07
   7  -6  -4    0.19    0.07
   7  -6  -4    0.19    0.07
  -7   6   4    0.26    0.07
  -7   6   4    0.30    0.07
   6  -6  -4   -0.10    0.05
   6  -6  -4   -0.01    0.05
  -6   6   4    0.02    0.05
  -6   6   4    0.06    0.06
  -6   6   4    0.03    0.04
   5  -6  -4    0.00    0.05
   5  -6  -4    0.10    0.05
  -5   6   4    0.11    0.06
  -5   6   4    0.14    0.05
  -5   6   4    0.14    0.07
   4  -6  -4   17.73    0.56
   4  -6  -4   17.17    0.52
   4  -6  -4   17.31    0.56
   4  -6  -4   17.91    0.75
  -4   6   4   17.55    0.51
  -4   6   4   16.33    0.74
  -4   6   4   18.34    0.59
   3  -6  -4   14.28    0.62
   3  -6  -4   14.27    0.43
   3  -6  -4   14.39    0.46
   3  -6  -4   14.38    0.44
   3  -6  -4   14.17    0.46
   3  -6  -4   14.07    0.44
  -3   6   4   14.09    0.42
  -3   6   4   14.71    0.62
  -3   6   4   14.25    0.48
  -3   6   4   13.98    0.61
   2  -6  -4    9.36    0.32
   2  -6  -4    9.42    0.30
   2  -6  -4    9.56    0.30
   2  -6  -4    9.64    0.30
   2  -6  -4    9.96    0.32
   2  -6  -4    9.11    0.43
  -2   6   4    9.14    0.43
  -2   6   4    9.35    0.29
  -2   6   4   10.29    0.43
   1  -6  -4    0.97    0.05
   1  -6  -4    0.95    0.11
   1  -6  -4    0.94    0.06
   1  -6  -4    0.90    0.07
   1  -6  -4    0.82    0.07
  -1   6   4    1.16    0.10
  -1   6   4    0.83    0.07
  -1   6   4    0.90    0.06
  -1   6   4    0.93    0.10
   0  -6  -4    0.54    0.05
   0  -6  -4    0.49    0.07
   0  -6  -4    0.41    0.04
   0   6   4    0.45    0.04
   0   6   4    0.41    0.04
   0   6   4    0.49    0.07
   0   6   4    0.60    0.07
  -1  -6  -4   20.16    0.81
  -1  -6  -4   19.85    0.60
  -1  -6  -4   19.05    0.59
   1   6   4   20.34    0.81
   1   6   4   19.28    0.54
   1   6   4   19.40    0.56
   1   6   4   19.31    0.60
   1   6   4   16.93    0.80
  -2  -6  -4    1.72    0.12
  -2  -6  -4    1.82    0.09
  -2  -6  -4    1.74    0.09
  -2  -6  -4    1.59    0.12
   2   6   4    1.64    0.13
   2   6   4    1.69    0.08
   2   6   4    1.56    0.11
   2   6   4    1.74    0.08
   2   6   4    1.74    0.09
  -3  -6  -4    3.03    0.17
  -3  -6  -4    3.15    0.17
  -3  -6  -4    2.84    0.12
   3   6   4    2.84    0.17
   3   6   4    2.91    0.12
   3   6   4    2.67    0.12
  -4  -6  -4    4.06    0.14
  -4  -6  -4    3.83    0.21
  -4  -6  -4    3.95    0.14
  -4  -6  -4    3.91    0.21
   4   6   4    3.93    0.16
   4   6   4    3.86    0.15
   4   6   4    4.12    0.21
   4   6   4    4.00    0.13
  -5  -6  -4    0.02    0.02
  -5  -6  -4    0.09    0.05
  -5  -6  -4    0.05    0.05
  -5  -6  -4    0.01    0.02
   5   6   4    0.03    0.05
   5   6   4    0.00    0.03
   5   6   4    0.00    0.03
   5   6   4    0.04    0.02
  -6  -6  -4   10.11    0.45
  -6  -6  -4    9.84    0.31
  -6  -6  -4   10.48    0.45
   6   6   4    9.91    0.35
   6   6   4   10.26    0.32
   6   6   4   10.06    0.45
   6   6   4   10.14    0.32
  -7  -6  -4    2.19    0.12
  -7  -6  -4    2.07    0.15
  -7  -6  -4    2.33    0.15
   7   6   4    2.20    0.12
   7   6   4    2.08    0.15
   7   6   4    1.76    0.13
  -8  -6  -4    9.01    0.42
  -8  -6  -4    9.70    0.31
   8   6   4    9.67    0.32
   8   6   4    9.38    0.34
   8   6   4    8.98    0.42
  -9  -6  -4   11.97    0.39
  -9  -6  -4   11.51    0.52
   9   6   4   12.14    0.39
   9   6   4   11.92    0.42
 -10  -6  -4    0.21    0.07
 -10  -6  -4    0.37    0.07
  10   6   4    0.28    0.07
  10   6   4    0.41    0.07
 -11  -6  -4    0.89    0.10
 -11  -6  -4    0.88    0.10
  11   6   4    0.87    0.10
  11   6   4    0.99    0.10
   6  -7  -4    4.59    0.22
   6  -7  -4    4.74    0.21
  -6   7   4    4.51    0.27
  -6   7   4    4.70    0.23
   5  -7  -4    0.12    0.06
   5  -7  -4    0.18    0.06
  -5   7   4    0.10    0.07
  -5   7   4    0.17    0.06
  -5   7   4    0.17    0.05
   4  -7  -4    0.01    0.06
   4  -7  -4   -0.05    0.05
   4  -7  -4   -0.06    0.05
  -4   7   4   -0.03    0.04
  -4   7   4   -0.04    0.06
  -4   7   4   -0.08    0.05
   3  -7  -4    0.17    0.07
   3  -7  -4    0.11    0.05
   3  -7  -4    0.04    0.05
  -3   7   4    0.23    0.05
  -3   7   4    0.15    0.07
  -3   7   4    0.06    0.05
   2  -7  -4    0.30    0.07
   2  -7  -4    0.35    0.04
   2  -7  -4    0.24    0.06
  -2   7   4    0.36    0.07
  -2   7   4    0.28    0.04
  -2   7   4    0.26    0.07
   1  -7  -4    4.04    0.23
   1  -7  -4    4.00    0.13
   1  -7  -4    4.02    0.14
   1  -7  -4    3.90    0.17
  -1   7   4    3.73    0.15
  -1   7   4    3.78    0.22
  -1   7   4    3.58    0.14
   0  -7  -4   26.11    1.05
   0  -7  -4   24.48    0.77
   0  -7  -4   25.40    0.78
   0   7   4   24.59    0.77
   0   7   4   26.11    1.05
   0   7   4   24.25    0.71
  -1  -7  -4    5.46    0.28
  -1  -7  -4    5.29    0.20
  -1  -7  -4    5.36    0.19
   1   7   4    5.20    0.20
   1   7   4    5.14    0.28
   1   7   4    5.33    0.19
   1   7   4    5.50    0.18
  -2  -7  -4   18.37    0.76
  -2  -7  -4   17.40    0.55
   2   7   4   17.19    0.51
   2   7   4   18.55    0.76
   2   7   4   17.10    0.56
   2   7   4   17.48    0.52
  -3  -7  -4    0.21    0.07
  -3  -7  -4    0.19    0.04
   3   7   4    0.14    0.04
   3   7   4    0.13    0.04
   3   7   4    0.27    0.04
   3   7   4    0.21    0.07
  -4  -7  -4    0.14    0.03
  -4  -7  -4    0.12    0.03
  -4  -7  -4    0.12    0.06
  -4  -7  -4    0.09    0.06
   4   7   4    0.11    0.04
   4   7   4    0.08    0.06
   4   7   4    0.11    0.04
  -5  -7  -4    6.54    0.22
  -5  -7  -4    6.57    0.22
  -5  -7  -4    6.77    0.32
  -5  -7  -4    6.62    0.32
   5   7   4    6.49    0.32
   5   7   4    6.39    0.24
   5   7   4    6.45    0.22
   5   7   4    6.48    0.20
  -6  -7  -4    0.21    0.06
  -6  -7  -4    0.15    0.03
  -6  -7  -4    0.16    0.03
  -6  -7  -4    0.16    0.07
   6   7   4    0.17    0.03
   6   7   4    0.10    0.05
   6   7   4    0.16    0.07
   6   7   4    0.15    0.05
  -7  -7  -4    5.78    0.28
  -7  -7  -4    5.48    0.18
  -7  -7  -4    5.69    0.29
  -7  -7  -4    5.29    0.21
   7   7   4    5.42    0.19
   7   7   4    5.54    0.28
   7   7   4    5.47    0.21
   7   7   4    5.12    0.22
  -8  -7  -4   10.15    0.34
  -8  -7  -4    9.94    0.47
   8   7   4   10.43    0.34
   8   7   4   10.04    0.37
   8   7   4   10.63    0.47
  -9  -7  -4    0.83    0.08
  -9  -7  -4    0.67    0.09
   9   7   4    0.85    0.09
   9   7   4    0.77    0.09
 -10  -7  -4    2.24    0.15
 -10  -7  -4    2.28    0.17
  10   7   4    2.71    0.15
  10   7   4    2.28    0.15
 -11  -7  -4    0.33    0.08
 -11  -7  -4    0.43    0.07
  11   7   4    0.37    0.08
  11   7   4    0.33    0.08
   5  -8  -4    0.11    0.06
   5  -8  -4    0.09    0.07
  -5   8   4    0.00    0.08
  -5   8   4    0.02    0.06
   4  -8  -4    0.00    0.05
   4  -8  -4   -0.03    0.06
  -4   8   4   -0.03    0.06
  -4   8   4    0.00    0.04
  -4   8   4   -0.05    0.05
   3  -8  -4    0.44    0.06
   3  -8  -4    0.48    0.07
   3  -8  -4    0.52    0.10
  -3   8   4    0.53    0.10
  -3   8   4    0.53    0.06
   2  -8  -4    1.30    0.11
   2  -8  -4    1.19    0.14
  -2   8   4    1.32    0.09
  -2   8   4    1.34    0.14
   1  -8  -4   -0.05    0.06
   1  -8  -4   -0.05    0.04
  -1   8   4   -0.06    0.02
  -1   8   4    0.07    0.04
  -1   8   4   -0.02    0.06
   0  -8  -4    0.46    0.09
   0  -8  -4    0.50    0.07
   0   8   4    0.53    0.06
   0   8   4    0.52    0.05
   0   8   4    0.44    0.09
  -1  -8  -4    6.06    0.31
  -1  -8  -4    5.58    0.22
   1   8   4    5.74    0.20
   1   8   4    5.57    0.31
   1   8   4    5.84    0.21
  -2  -8  -4    0.01    0.07
  -2  -8  -4    0.05    0.04
   2   8   4    0.04    0.04
   2   8   4    0.05    0.07
   2   8   4    0.09    0.04
   2   8   4   -0.02    0.04
  -3  -8  -4    0.79    0.07
  -3  -8  -4    0.93    0.11
   3   8   4    0.73    0.10
   3   8   4    0.62    0.06
   3   8   4    0.55    0.06
   3   8   4    0.75    0.07
  -4  -8  -4    2.09    0.16
  -4  -8  -4    2.29    0.11
  -4  -8  -4    2.07    0.10
   4   8   4    2.29    0.12
   4   8   4    2.06    0.16
   4   8   4    2.20    0.11
   4   8   4    2.38    0.11
  -5  -8  -4    1.48    0.15
  -5  -8  -4    1.53    0.08
  -5  -8  -4    1.45    0.08
   5   8   4    1.41    0.11
   5   8   4    1.50    0.10
   5   8   4    1.11    0.14
  -6  -8  -4    0.78    0.06
  -6  -8  -4    0.98    0.12
  -6  -8  -4    0.89    0.06
  -6  -8  -4    0.69    0.10
   6   8   4    0.64    0.07
   6   8   4    0.70    0.10
   6   8   4    0.75    0.07
  -7  -8  -4    0.13    0.06
  -7  -8  -4    0.24    0.08
  -7  -8  -4    0.28    0.03
   7   8   4    0.30    0.08
   7   8   4    0.22    0.06
   7   8   4    0.29    0.06
  -8  -8  -4    2.48    0.14
  -8  -8  -4    2.42    0.18
   8   8   4    2.47    0.14
   8   8   4    2.44    0.15
   8   8   4    2.41    0.18
  -9  -8  -4    0.01    0.06
  -9  -8  -4   -0.02    0.07
   9   8   4    0.03    0.06
   9   8   4    0.04    0.06
 -10  -8  -4    0.03    0.06
 -10  -8  -4    0.02    0.06
  10   8   4    0.02    0.06
  10   8   4   -0.01    0.06
 -11  -8  -4    0.00    0.06
 -11  -8  -4    0.02    0.06
  11   8   4   -0.03    0.07
  11   8   4    0.10    0.07
   4  -9  -4    2.06    0.16
  -4   9   4    1.69    0.15
  -4   9   4    1.58    0.18
   3  -9  -4    1.83    0.15
  -3   9   4    2.14    0.18
  -3   9   4    1.78    0.12
   2  -9  -4    0.38    0.09
   2  -9  -4    0.34    0.07
  -2   9   4    0.51    0.07
  -2   9   4    0.38    0.09
   1  -9  -4    3.36    0.23
   1  -9  -4    3.39    0.17
  -1   9   4    3.58    0.14
  -1   9   4    3.40    0.15
  -1   9   4    3.99    0.24
   0  -9  -4    0.00    0.04
   0  -9  -4   -0.06    0.06
   0   9   4    0.01    0.04
   0   9   4   -0.03    0.03
   0   9   4   -0.04    0.06
  -1  -9  -4    1.26    0.14
  -1  -9  -4    1.38    0.11
   1   9   4    1.43    0.09
   1   9   4    1.44    0.09
   1   9   4    1.30    0.14
  -2  -9  -4   -0.06    0.07
  -2  -9  -4   -0.05    0.04
   2   9   4   -0.03    0.06
   2   9   4   -0.06    0.03
   2   9   4    0.07    0.04
   2   9   4   -0.03    0.04
  -3  -9  -4    0.86    0.11
  -3  -9  -4    0.81    0.07
   3   9   4    0.97    0.12
   3   9   4    0.91    0.08
   3   9   4    0.86    0.07
   3   9   4    1.01    0.08
  -4  -9  -4    0.26    0.08
  -4  -9  -4    0.19    0.04
   4   9   4    0.12    0.07
   4   9   4    0.18    0.05
   4   9   4    0.22    0.05
   4   9   4    0.21    0.05
  -5  -9  -4    3.09    0.22
  -5  -9  -4    3.21    0.13
   5   9   4    3.46    0.14
   5   9   4    2.90    0.22
   5   9   4    3.10    0.14
   5   9   4    3.23    0.16
  -6  -9  -4   -0.02    0.07
  -6  -9  -4    0.16    0.04
   6   9   4    0.02    0.07
   6   9   4    0.05    0.05
   6   9   4    0.06    0.05
  -7  -9  -4    0.40    0.09
  -7  -9  -4    0.45    0.04
   7   9   4    0.53    0.09
   7   9   4    0.28    0.07
   7   9   4    0.43    0.06
  -8  -9  -4    1.59    0.16
  -8  -9  -4    1.73    0.13
   8   9   4    1.79    0.12
   8   9   4    1.35    0.13
  -9  -9  -4    1.63    0.16
  -9  -9  -4    1.73    0.14
   9   9   4    1.60    0.15
   9   9   4    1.62    0.13
 -10  -9  -4    1.18    0.11
 -10  -9  -4    1.30    0.15
  10   9   4    1.11    0.11
  10   9   4    1.09    0.10
   3 -10  -4   -0.05    0.06
  -3  10   4   -0.04    0.09
   2 -10  -4    0.13    0.07
   2 -10  -4    0.17    0.10
  -2  10   4    0.09    0.09
   1 -10  -4    0.84    0.13
   1 -10  -4    0.95    0.09
  -1  10   4    0.74    0.08
  -1  10   4    0.85    0.13
   0 -10  -4   -0.02    0.05
   0 -10  -4   -0.10    0.07
   0  10   4   -0.01    0.04
   0  10   4   -0.02    0.07
  -1 -10  -4    0.68    0.11
  -1 -10  -4    0.64    0.07
   1  10   4    0.64    0.06
   1  10   4    0.67    0.07
   1  10   4    0.65    0.11
  -2 -10  -4   -0.01    0.08
  -2 -10  -4    0.01    0.04
   2  10   4   -0.05    0.07
   2  10   4   -0.02    0.04
   2  10   4   -0.03    0.04
  -3 -10  -4    0.35    0.10
  -3 -10  -4    0.31    0.06
   3  10   4    0.34    0.09
   3  10   4    0.31    0.06
   3  10   4    0.30    0.05
   3  10   4    0.24    0.05
  -4 -10  -4   -0.06    0.07
  -4 -10  -4   -0.01    0.04
   4  10   4    0.02    0.04
   4  10   4    0.08    0.05
   4  10   4    0.01    0.04
   4  10   4   -0.02    0.07
  -5 -10  -4    0.30    0.09
  -5 -10  -4    0.31    0.05
   5  10   4    0.26    0.05
   5  10   4    0.21    0.09
   5  10   4    0.26    0.06
   5  10   4    0.25    0.05
  -6 -10  -4   -0.01    0.03
  -6 -10  -4   -0.01    0.07
   6  10   4    0.01    0.05
   6  10   4    0.00    0.07
   6  10   4    0.02    0.05
   6  10   4    0.03    0.05
  -7 -10  -4   -0.02    0.08
   7  10   4    0.02    0.05
   7  10   4    0.01    0.05
   7  10   4   -0.07    0.07
   7  10   4    0.02    0.05
  -8 -10  -4   -0.14    0.07
  -8 -10  -4   -0.03    0.05
   8  10   4    0.01    0.06
   8  10   4    0.02    0.05
  -9 -10  -4    0.35    0.08
  -9 -10  -4    0.16    0.09
   9  10   4    0.08    0.06
   9  10   4    0.12    0.07
 -10 -10  -4    4.15    0.21
 -10 -10  -4    3.84    0.25
  10  10   4    4.01    0.22
  10  10   4    4.27    0.20
   1 -11  -4    0.14    0.07
   1 -11  -4    0.10    0.10
  -1  11   4    0.06    0.09
   0 -11  -4    0.43    0.08
   0 -11  -4    0.36    0.11
   0  11   4    0.34    0.11
  -1 -11  -4    4.85    0.22
  -1 -11  -4    4.93    0.31
   1  11   4    5.14    0.31
   1  11   4    4.48    0.19
  -2 -11  -4    2.24    0.14
  -2 -11  -4    2.14    0.21
   2  11   4    2.11    0.20
   2  11   4    2.27    0.12
   2  11   4    1.97    0.12
  -3 -11  -4    0.31    0.10
  -3 -11  -4    0.27    0.06
   3  11   4    0.23    0.06
   3  11   4    0.24    0.06
   3  11   4    0.20    0.10
  -4 -11  -4    0.46    0.11
  -4 -11  -4    0.35    0.06
   4  11   4    0.45    0.06
   4  11   4    0.29    0.10
   4  11   4    0.28    0.06
   4  11   4    0.35    0.06
  -5 -11  -4    0.96    0.14
  -5 -11  -4    1.04    0.08
   5  11   4    1.13    0.14
   5  11   4    0.98    0.09
   5  11   4    1.21    0.11
   5  11   4    1.18    0.10
  -6 -11  -4   -0.08    0.08
   6  11   4   -0.02    0.05
   6  11   4    0.01    0.08
   6  11   4   -0.04    0.05
   6  11   4    0.11    0.05
  -7 -11  -4    0.43    0.11
   7  11   4    0.52    0.12
   7  11   4    0.51    0.08
   7  11   4    0.53    0.07
   7  11   4    0.45    0.07
  -8 -11  -4    0.52    0.09
  -8 -11  -4    0.61    0.12
   8  11   4    0.62    0.08
   8  11   4    0.56    0.09
  -9 -11  -4    0.60    0.12
  -9 -11  -4    0.67    0.10
   9  11   4    0.60    0.09
   9  11   4    0.50    0.10
  -1 -12  -4    2.77    0.25
  -1 -12  -4    3.02    0.18
   1  12   4    2.98    0.26
  -2 -12  -4    1.78    0.22
  -2 -12  -4    2.27    0.16
   2  12   4    2.27    0.23
  -3 -12  -4    2.33    0.23
  -3 -12  -4    2.41    0.15
   3  12   4    2.12    0.14
   3  12   4    2.16    0.23
  -4 -12  -4    0.34    0.06
  -4 -12  -4    0.22    0.10
   4  12   4    0.18    0.11
   4  12   4    0.23    0.06
  -5 -12  -4   -0.01    0.09
   5  12   4   -0.03    0.09
   5  12   4   -0.08    0.05
   5  12   4    0.00    0.05
  -6 -12  -4   -0.10    0.09
   6  12   4   -0.05    0.05
   6  12   4   -0.15    0.05
   6  12   4   -0.02    0.09
   7  12   4    0.03    0.06
   7  12   4    0.01    0.06
   4  10  -5    0.12    0.06
   4  10  -5    0.19    0.06
  -4 -10   5    0.19    0.06
  -4 -10   5    0.18    0.06
   3  10  -5    4.66    0.22
   3  10  -5    4.43    0.29
   3  10  -5    4.53    0.21
  -3 -10   5    4.44    0.20
  -3 -10   5    4.94    0.22
   2  10  -5    0.01    0.05
   2  10  -5   -0.08    0.07
   2  10  -5    0.06    0.06
  -2 -10   5   -0.04    0.06
   7   9  -5    0.07    0.06
  -7  -9   5    0.07    0.06
  -7  -9   5    0.02    0.06
  -7  -9   5    0.07    0.07
   6   9  -5   -0.02    0.04
   6   9  -5   -0.10    0.06
  -6  -9   5    0.02    0.05
  -6  -9   5    0.05    0.06
  -6  -9   5   -0.02    0.05
  -6  -9   5   -0.12    0.07
   5   9  -5    0.06    0.05
  -5  -9   5    0.04    0.08
  -5  -9   5    0.00    0.05
  -5  -9   5    0.04    0.05
  -5  -9   5    0.04    0.05
   4   9  -5    0.03    0.07
   4   9  -5   -0.02    0.05
  -4  -9   5    0.04    0.07
  -4  -9   5    0.01    0.05
  -4  -9   5    0.04    0.05
  -4  -9   5    0.05    0.05
   3   9  -5   -0.06    0.05
   3   9  -5   -0.04    0.07
  -3  -9   5    0.09    0.08
  -3  -9   5   -0.03    0.05
  -3  -9   5    0.02    0.05
  -3  -9   5   -0.06    0.05
   2   9  -5    0.99    0.13
   2   9  -5    1.11    0.10
  -2  -9   5    1.20    0.10
  -2  -9   5    1.11    0.14
   1   9  -5    1.15    0.14
   1   9  -5    1.26    0.10
  -1  -9   5    1.14    0.10
  -1  -9   5    1.08    0.14
   0   9  -5    0.37    0.10
   0   9  -5    0.24    0.07
   0   9  -5    0.33    0.06
   0  -9   5    0.26    0.07
   0  -9   5    0.21    0.10
  -1   9  -5    0.44    0.11
  -1   9  -5    0.26    0.07
  -1   9  -5    0.39    0.06
   1  -9   5    0.31    0.08
   1  -9   5    0.48    0.12
   8   8  -5    1.04    0.11
  -8  -8   5    1.15    0.13
  -8  -8   5    0.92    0.10
  -8  -8   5    1.10    0.10
   7   8  -5    0.01    0.04
  -7  -8   5   -0.01    0.06
  -7  -8   5   -0.05    0.06
  -7  -8   5    0.02    0.05
  -7  -8   5    0.09    0.06
   6   8  -5    0.49    0.06
  -6  -8   5    0.55    0.09
  -6  -8   5    0.49    0.07
  -6  -8   5    0.48    0.07
  -6  -8   5    0.52    0.06
   5   8  -5    2.61    0.13
  -5  -8   5    2.88    0.15
  -5  -8   5    2.76    0.15
  -5  -8   5    2.66    0.20
  -5  -8   5    2.80    0.15
   4   8  -5    0.86    0.11
   4   8  -5    0.69    0.07
  -4  -8   5    0.70    0.07
  -4  -8   5    0.89    0.08
  -4  -8   5    0.66    0.10
  -4  -8   5    0.62    0.07
   3   8  -5    1.49    0.11
   3   8  -5    1.66    0.15
  -3  -8   5    1.40    0.12
  -3  -8   5    1.86    0.16
  -3  -8   5    1.65    0.10
  -3  -8   5    1.60    0.11
   2   8  -5    0.45    0.07
   2   8  -5    0.54    0.10
   2   8  -5    0.47    0.05
  -2  -8   5    0.63    0.11
  -2  -8   5    0.41    0.07
  -2  -8   5    0.54    0.06
   1   8  -5   11.95    0.36
   1   8  -5   12.73    0.58
   1   8  -5   12.03    0.40
  -1  -8   5   12.53    0.57
  -1  -8   5   12.17    0.41
  -1  -8   5   11.76    0.37
   0   8  -5    6.89    0.38
   0   8  -5    6.92    0.24
   0   8  -5    7.49    0.27
   0  -8   5    6.97    0.38
   0  -8   5    6.92    0.27
  -1   8  -5    0.78    0.09
  -1   8  -5    0.90    0.07
  -1   8  -5    0.84    0.13
   1  -8   5    0.66    0.08
   1  -8   5    0.93    0.13
  -2   8  -5    0.23    0.09
  -2   8  -5    0.27    0.07
  -2   8  -5    0.22    0.06
   2  -8   5    0.28    0.07
   2  -8   5    0.27    0.10
  -3   8  -5    0.10    0.06
  -3   8  -5   -0.01    0.05
  -3   8  -5   -0.03    0.08
   3  -8   5   -0.06    0.08
   3  -8   5    0.04    0.06
   9   7  -5    3.39    0.20
   9   7  -5    3.39    0.21
  -9  -7   5    3.93    0.19
   8   7  -5    0.48    0.08
   8   7  -5    0.41    0.08
  -8  -7   5    0.30    0.08
  -8  -7   5    0.42    0.08
  -8  -7   5    0.42    0.08
   7   7  -5    3.80    0.20
   7   7  -5    3.66    0.15
  -7  -7   5    3.73    0.15
  -7  -7   5    3.55    0.18
  -7  -7   5    3.51    0.21
  -7  -7   5    3.49    0.18
   6   7  -5    0.02    0.04
  -6  -7   5    0.03    0.05
  -6  -7   5    0.02    0.05
  -6  -7   5    0.00    0.05
  -6  -7   5    0.00    0.04
   5   7  -5    0.43    0.08
   5   7  -5    0.35    0.05
  -5  -7   5    0.30    0.05
  -5  -7   5    0.41    0.06
  -5  -7   5    0.37    0.06
  -5  -7   5    0.37    0.08
   4   7  -5    2.35    0.09
   4   7  -5    2.33    0.17
   4   7  -5    2.27    0.12
  -4  -7   5    2.48    0.17
  -4  -7   5    2.51    0.13
  -4  -7   5    2.37    0.12
  -4  -7   5    2.34    0.13
   3   7  -5   -0.02    0.03
   3   7  -5   -0.10    0.04
   3   7  -5    0.01    0.06
  -3  -7   5   -0.02    0.04
  -3  -7   5    0.00    0.07
  -3  -7   5   -0.06    0.04
  -3  -7   5   -0.07    0.04
   2   7  -5   -0.01    0.06
   2   7  -5   -0.04    0.03
   2   7  -5   -0.12    0.04
  -2  -7   5   -0.10    0.03
  -2  -7   5   -0.02    0.07
  -2  -7   5   -0.04    0.05
   1   7  -5    0.15    0.04
   1   7  -5   -0.07    0.05
   1   7  -5    0.08    0.07
  -1  -7   5   -0.08    0.05
  -1  -7   5    0.06    0.04
  -1  -7   5    0.22    0.08
   0   7  -5    0.70    0.11
   0   7  -5    0.83    0.07
   0   7  -5    0.66    0.07
   0  -7   5    0.65    0.07
   0  -7   5    0.71    0.05
   0  -7   5    0.70    0.11
  -1   7  -5    0.01    0.07
  -1   7  -5    0.08    0.04
  -1   7  -5    0.12    0.05
   1  -7   5    0.07    0.05
   1  -7   5    0.04    0.08
  -2   7  -5    0.10    0.08
  -2   7  -5    0.16    0.05
  -2   7  -5    0.10    0.05
   2  -7   5    0.03    0.03
   2  -7   5    0.08    0.08
   2  -7   5    0.06    0.05
  -3   7  -5    4.11    0.26
  -3   7  -5    3.96    0.17
  -3   7  -5    4.34    0.19
   3  -7   5    4.04    0.27
   3  -7   5    3.67    0.19
   3  -7   5    4.00    0.15
  -4   7  -5    0.07    0.08
  -4   7  -5   -0.04    0.06
  -4   7  -5    0.07    0.06
   4  -7   5   -0.03    0.05
   4  -7   5    0.00    0.08
   4  -7   5   -0.10    0.06
  -5   7  -5    0.05    0.07
  -5   7  -5    0.09    0.06
   5  -7   5    0.08    0.06
   5  -7   5   -0.02    0.06
   9   6  -5    0.21    0.08
   9   6  -5    0.01    0.06
  -9  -6   5    0.10    0.07
   8   6  -5    3.02    0.17
  -8  -6   5    2.50    0.16
  -8  -6   5    3.04    0.17
  -8  -6   5    2.49    0.16
   7   6  -5    0.93    0.09
   7   6  -5    0.97    0.07
  -7  -6   5    0.99    0.09
  -7  -6   5    0.95    0.10
  -7  -6   5    0.90    0.09
  -7  -6   5    0.93    0.08
   6   6  -5    1.92    0.10
   6   6  -5    2.18    0.15
  -6  -6   5    2.12    0.15
  -6  -6   5    2.29    0.13
  -6  -6   5    2.31    0.13
  -6  -6   5    2.05    0.11
   5   6  -5    0.28    0.06
   5   6  -5    0.29    0.02
   5   6  -5    0.39    0.07
   5   6  -5    0.30    0.05
  -5  -6   5    0.24    0.07
  -5  -6   5    0.25    0.05
  -5  -6   5    0.35    0.06
  -5  -6   5    0.32    0.06
   4   6  -5    0.72    0.09
   4   6  -5    0.70    0.06
   4   6  -5    0.59    0.04
  -4  -6   5    0.62    0.06
  -4  -6   5    0.69    0.07
  -4  -6   5    0.59    0.09
  -4  -6   5    0.59    0.07
  -4  -6   5    0.63    0.08
   3   6  -5   38.39    1.54
   3   6  -5   38.44    1.09
   3   6  -5   36.79    1.02
  -3  -6   5   38.08    1.08
  -3  -6   5   38.35    1.54
  -3  -6   5   36.03    1.05
  -3  -6   5   37.41    1.13
  -3  -6   5   38.22    1.09
  -3  -6   5   38.72    1.56
   2   6  -5    9.87    0.28
   2   6  -5    9.94    0.32
   2   6  -5    9.40    0.45
  -2  -6   5    9.96    0.32
  -2  -6   5    9.24    0.30
  -2  -6   5    9.61    0.29
  -2  -6   5    9.82    0.45
   1   6  -5    0.44    0.04
   1   6  -5    0.47    0.06
   1   6  -5    0.53    0.09
  -1  -6   5    0.48    0.04
  -1  -6   5    0.54    0.09
  -1  -6   5    0.42    0.04
  -1  -6   5    0.36    0.06
  -1  -6   5    0.46    0.04
   0   6  -5    0.21    0.07
   0   6  -5    0.20    0.04
   0   6  -5    0.14    0.05
   0  -6   5    0.24    0.03
   0  -6   5    0.17    0.05
   0  -6   5    0.13    0.03
   0  -6   5    0.20    0.08
  -1   6  -5    0.00    0.03
  -1   6  -5   -0.07    0.05
  -1   6  -5   -0.03    0.05
   1  -6   5    0.01    0.05
   1  -6   5   -0.07    0.06
   1  -6   5   -0.01    0.02
   1  -6   5   -0.03    0.02
  -2   6  -5    1.85    0.16
  -2   6  -5    2.13    0.12
  -2   6  -5    2.03    0.10
   2  -6   5    1.51    0.17
   2  -6   5    1.91    0.12
   2  -6   5    1.88    0.09
  -3   6  -5    1.92    0.11
  -3   6  -5    2.25    0.18
  -3   6  -5    2.10    0.13
   3  -6   5    2.16    0.18
   3  -6   5    1.84    0.13
   3  -6   5    1.92    0.10
  -4   6  -5    0.14    0.08
  -4   6  -5    0.09    0.06
  -4   6  -5    0.17    0.06
   4  -6   5    0.14    0.09
   4  -6   5    0.24    0.05
   4  -6   5    0.16    0.06
  -5   6  -5   12.22    0.58
  -5   6  -5   11.87    0.40
  -5   6  -5   12.16    0.39
  -5   6  -5   11.66    0.44
   5  -6   5   12.25    0.58
   5  -6   5   12.02    0.41
   5  -6   5   12.21    0.38
  -6   6  -5   -0.04    0.07
  -6   6  -5   -0.01    0.06
  -6   6  -5   -0.04    0.05
   6  -6   5    0.09    0.06
   6  -6   5    0.01    0.06
  10   5  -5    2.84    0.18
  10   5  -5    3.36    0.20
   9   5  -5    0.06    0.06
   9   5  -5    0.14    0.06
   8   5  -5    0.02    0.06
  -8  -5   5   -0.03    0.03
  -8  -5   5   -0.07    0.05
   7   5  -5    1.69    0.08
   7   5  -5    2.03    0.14
  -7  -5   5    1.76    0.13
  -7  -5   5    1.57    0.09
  -7  -5   5    1.59    0.12
  -7  -5   5    1.55    0.11
   6   5  -5    0.08    0.05
   6   5  -5   -0.04    0.04
   6   5  -5    0.01    0.02
   6   5  -5    0.01    0.03
  -6  -5   5    0.05    0.05
  -6  -5   5    0.06    0.03
  -6  -5   5   -0.05    0.04
  -6  -5   5    0.01    0.04
   5   5  -5    0.60    0.07
   5   5  -5    0.69    0.05
   5   5  -5    0.85    0.09
   5   5  -5    0.68    0.03
   5   5  -5    0.62    0.03
  -5  -5   5    0.61    0.08
  -5  -5   5    0.83    0.09
  -5  -5   5    0.62    0.07
  -5  -5   5    0.66    0.06
  -5  -5   5    0.63    0.06
  -5  -5   5    0.72    0.06
   4   5  -5   17.56    0.53
   4   5  -5   17.72    0.48
   4   5  -5   18.49    0.58
   4   5  -5   16.11    0.74
  -4  -5   5   18.07    0.53
  -4  -5   5   18.20    0.56
  -4  -5   5   17.69    0.75
  -4  -5   5   18.01    0.54
  -4  -5   5   17.04    0.75
  -4  -5   5   17.84    0.53
   3   5  -5    5.22    0.18
   3   5  -5    5.00    0.15
   3   5  -5    5.11    0.20
   3   5  -5    5.04    0.26
  -3  -5   5    5.03    0.26
  -3  -5   5    5.00    0.15
  -3  -5   5    4.67    0.19
  -3  -5   5    5.24    0.18
  -3  -5   5    4.93    0.26
  -3  -5   5    5.07    0.18
  -3  -5   5    5.18    0.19
   2   5  -5    1.56    0.06
   2   5  -5    1.61    0.09
   2   5  -5    1.49    0.12
  -2  -5   5    1.58    0.10
  -2  -5   5    1.53    0.13
  -2  -5   5    1.72    0.13
  -2  -5   5    1.48    0.08
  -2  -5   5    1.60    0.06
   1   5  -5    1.36    0.06
   1   5  -5    1.33    0.12
   1   5  -5    1.30    0.09
  -1  -5   5    1.38    0.13
  -1  -5   5    1.43    0.09
  -1  -5   5    1.36    0.07
  -1  -5   5    1.31    0.06
  -1  -5   5    1.35    0.06
   0   5  -5   10.97    0.32
   0   5  -5   11.09    0.50
   0   5  -5   11.15    0.35
   0  -5   5   10.97    0.50
   0  -5   5   11.01    0.33
   0  -5   5   10.70    0.32
   0  -5   5   11.03    0.32
   0  -5   5   11.25    0.35
  -1   5  -5    6.57    0.24
  -1   5  -5    6.55    0.21
  -1   5  -5    6.69    0.33
   1  -5   5    6.72    0.24
   1  -5   5    6.46    0.20
   1  -5   5    6.91    0.34
   1  -5   5    6.55    0.21
   1  -5   5    6.70    0.20
  -2   5  -5    4.13    0.15
  -2   5  -5    4.20    0.17
  -2   5  -5    4.04    0.24
   2  -5   5    3.61    0.23
   2  -5   5    4.04    0.17
   2  -5   5    3.99    0.14
   2  -5   5    4.07    0.12
  -3   5  -5    1.27    0.09
  -3   5  -5    1.15    0.10
  -3   5  -5    1.24    0.14
   3  -5   5    1.18    0.08
   3  -5   5    1.37    0.10
   3  -5   5    0.93    0.12
  -4   5  -5    0.08    0.07
  -4   5  -5    0.10    0.05
  -4   5  -5    0.10    0.05
   4  -5   5    0.05    0.08
   4  -5   5    0.13    0.04
   4  -5   5    0.08    0.05
  -5   5  -5    0.92    0.08
  -5   5  -5    0.86    0.08
  -5   5  -5    0.93    0.08
  -5   5  -5    0.86    0.11
   5  -5   5    0.80    0.08
   5  -5   5    0.93    0.08
   5  -5   5    0.97    0.13
  -6   5  -5    5.75    0.23
  -6   5  -5    5.83    0.23
  -6   5  -5    5.77    0.32
  -6   5  -5    5.18    0.25
   6  -5   5    5.79    0.24
   6  -5   5    5.93    0.22
  -7   5  -5    2.42    0.17
  -7   5  -5    2.45    0.20
  -7   5  -5    2.69    0.15
   7  -5   5    2.64    0.16
   7  -5   5    2.62    0.15
  10   4  -5    1.09    0.11
  10   4  -5    1.03    0.10
   9   4  -5    0.33    0.08
   8   4  -5    0.22    0.04
   8   4  -5    0.28    0.07
   7   4  -5    0.10    0.02
   7   4  -5    0.05    0.03
   7   4  -5    0.04    0.05
   7   4  -5    0.09    0.03
  -7  -4   5    0.08    0.04
  -7  -4   5    0.12    0.05
  -7  -4   5    0.06    0.03
  -7  -4   5    0.08    0.05
   6   4  -5    0.49    0.03
   6   4  -5    0.48    0.04
   6   4  -5    0.40    0.03
   6   4  -5    0.45    0.03
   6   4  -5    0.39    0.07
   6   4  -5    0.42    0.06
   6   4  -5    0.51    0.03
  -6  -4   5    0.42    0.06
  -6  -4   5    0.46    0.06
  -6  -4   5    0.49    0.04
  -6  -4   5    0.43    0.06
  -6  -4   5    0.41    0.06
  -6  -4   5    0.41    0.04
   5   4  -5    1.55    0.11
   5   4  -5    1.36    0.05
   5   4  -5    1.41    0.10
   5   4  -5    1.51    0.07
  -5  -4   5    1.36    0.11
  -5  -4   5    1.38    0.11
  -5  -4   5    1.39    0.08
  -5  -4   5    1.41    0.07
  -5  -4   5    1.42    0.10
  -5  -4   5    1.38    0.10
   4   4  -5    0.33    0.05
   4   4  -5    0.30    0.04
   4   4  -5    0.30    0.06
  -4  -4   5    0.40    0.04
  -4  -4   5    0.31    0.04
  -4  -4   5    0.27    0.04
  -4  -4   5    0.26    0.06
  -4  -4   5    0.25    0.06
  -4  -4   5    0.36    0.05
   3   4  -5    0.23    0.05
   3   4  -5    0.21    0.05
   3   4  -5    0.23    0.04
   3   4  -5    0.32    0.02
  -3  -4   5    0.26    0.04
  -3  -4   5    0.28    0.04
  -3  -4   5    0.27    0.04
  -3  -4   5    0.31    0.04
  -3  -4   5    0.20    0.06
  -3  -4   5    0.25    0.06
   2   4  -5    1.15    0.05
   2   4  -5    1.02    0.08
   2   4  -5    1.19    0.10
   2   4  -5    1.08    0.07
  -2  -4   5    1.12    0.07
  -2  -4   5    1.07    0.08
  -2  -4   5    1.20    0.10
  -2  -4   5    1.26    0.10
  -2  -4   5    1.14    0.04
  -2  -4   5    1.08    0.07
   1   4  -5    2.07    0.10
   1   4  -5    1.95    0.07
   1   4  -5    2.13    0.14
  -1  -4   5    2.37    0.14
  -1  -4   5    2.10    0.07
  -1  -4   5    1.99    0.10
  -1  -4   5    2.04    0.07
  -1  -4   5    2.13    0.14
  -1  -4   5    2.09    0.08
   0   4  -5    0.30    0.04
   0   4  -5    0.30    0.03
   0   4  -5    0.29    0.06
   0  -4   5    0.30    0.03
   0  -4   5    0.32    0.04
   0  -4   5    0.30    0.07
   0  -4   5    0.39    0.02
   0  -4   5    0.31    0.03
   0  -4   5    0.40    0.03
  -1   4  -5   11.81    0.57
  -1   4  -5   14.00    0.43
  -1   4  -5   13.49    0.38
  -1   4  -5   13.66    0.41
   1  -4   5   13.03    0.58
   1  -4   5   13.42    0.38
   1  -4   5   13.46    0.41
   1  -4   5   13.11    0.38
   1  -4   5   13.45    0.37
  -2   4  -5   47.46    2.09
  -2   4  -5   54.29    1.48
  -2   4  -5   53.90    1.42
  -2   4  -5   54.46    1.58
   2  -4   5   44.68    2.09
   2  -4   5   53.54    1.41
   2  -4   5   54.18    1.43
   2  -4   5   53.19    1.48
  -3   4  -5    0.44    0.08
  -3   4  -5    0.41    0.06
  -3   4  -5    0.52    0.05
  -3   4  -5    0.58    0.06
   3  -4   5    0.48    0.05
   3  -4   5    0.42    0.08
   3  -4   5    0.47    0.06
  -4   4  -5    4.02    0.18
  -4   4  -5    4.15    0.24
  -4   4  -5    4.12    0.16
  -4   4  -5    4.22    0.15
  -4   4  -5    3.92    0.17
   4  -4   5    4.27    0.15
   4  -4   5    4.27    0.17
   4  -4   5    4.03    0.24
  -5   4  -5    0.81    0.07
  -5   4  -5    0.78    0.08
  -5   4  -5    0.85    0.07
  -5   4  -5    0.60    0.09
   5  -4   5    0.78    0.07
   5  -4   5    0.78    0.11
   5  -4   5    0.82    0.07
  -6   4  -5    0.18    0.06
  -6   4  -5    0.08    0.05
  -6   4  -5    0.08    0.05
  -6   4  -5    0.04    0.07
   6  -4   5    0.12    0.08
   6  -4   5    0.16    0.06
   6  -4   5    0.05    0.05
  -7   4  -5    9.79    0.33
  -7   4  -5   10.17    0.47
  -7   4  -5    9.43    0.38
   7  -4   5    9.98    0.34
   7  -4   5    9.93    0.33
  -8   4  -5    0.83    0.10
  -8   4  -5    0.84    0.08
  -8   4  -5    0.79    0.11
   8  -4   5    0.74    0.08
   8  -4   5    0.79    0.09
  10   3  -5   -0.09    0.06
  10   3  -5   -0.07    0.05
  10   3  -5    0.00    0.05
   9   3  -5    0.03    0.06
   9   3  -5    0.08    0.04
   8   3  -5    1.61    0.09
   8   3  -5    1.70    0.13
   7   3  -5    7.87    0.25
   7   3  -5    7.87    0.24
   7   3  -5    8.17    0.30
   7   3  -5    7.86    0.24
  -7  -3   5    7.95    0.33
  -7  -3   5    7.86    0.33
  -7  -3   5    8.04    0.23
   6   3  -5    4.12    0.19
   6   3  -5    4.25    0.14
   6   3  -5    4.13    0.13
   6   3  -5    4.15    0.19
   6   3  -5    4.07    0.14
   6   3  -5    4.07    0.12
   6   3  -5    3.99    0.13
  -6  -3   5    4.07    0.19
  -6  -3   5    4.26    0.18
  -6  -3   5    3.79    0.19
  -6  -3   5    4.19    0.14
   5   3  -5   -0.01    0.02
   5   3  -5    0.03    0.01
   5   3  -5    0.00    0.04
   5   3  -5    0.03    0.03
   5   3  -5   -0.01    0.02
   5   3  -5   -0.01    0.03
  -5  -3   5   -0.06    0.04
  -5  -3   5    0.02    0.03
  -5  -3   5    0.01    0.04
  -5  -3   5   -0.04    0.03
  -5  -3   5    0.02    0.02
  -5  -3   5    0.01    0.04
   4   3  -5    7.03    0.22
   4   3  -5    7.08    0.31
   4   3  -5    7.01    0.20
   4   3  -5    6.88    0.25
  -4  -3   5    7.04    0.23
  -4  -3   5    7.06    0.31
  -4  -3   5    6.73    0.23
  -4  -3   5    6.94    0.22
  -4  -3   5    7.20    0.25
  -4  -3   5    6.84    0.31
   3   3  -5    4.13    0.15
   3   3  -5    4.23    0.15
   3   3  -5    4.25    0.21
   3   3  -5    3.97    0.17
  -3  -3   5    4.36    0.21
  -3  -3   5    4.42    0.15
  -3  -3   5    4.23    0.15
  -3  -3   5    4.47    0.15
  -3  -3   5    4.30    0.16
  -3  -3   5    4.53    0.21
   2   3  -5    3.21    0.13
   2   3  -5    3.54    0.18
   2   3  -5    3.31    0.14
  -2  -3   5    3.21    0.13
  -2  -3   5    3.44    0.13
  -2  -3   5    3.52    0.18
  -2  -3   5    3.64    0.18
  -2  -3   5    3.48    0.12
   1   3  -5   -0.08    0.03
   1   3  -5   -0.05    0.03
   1   3  -5    0.01    0.04
   1   3  -5    0.01    0.01
  -1  -3   5   -0.01    0.02
  -1  -3   5    0.04    0.01
  -1  -3   5   -0.01    0.04
  -1  -3   5   -0.07    0.03
  -1  -3   5    0.00    0.04
  -1  -3   5   -0.01    0.01
   0   3  -5    7.67    0.25
   0   3  -5    7.81    0.35
   0   3  -5    7.56    0.22
   0  -3   5    7.60    0.21
   0  -3   5    7.74    0.35
   0  -3   5    7.63    0.22
   0  -3   5    7.50    0.35
   0  -3   5    7.41    0.22
   0  -3   5    7.60    0.25
  -1   3  -5   -0.01    0.04
  -1   3  -5    0.05    0.03
  -1   3  -5    0.02    0.02
  -1   3  -5   -0.01    0.02
   1  -3   5   -0.03    0.04
   1  -3   5   -0.02    0.03
   1  -3   5    0.01    0.02
   1  -3   5    0.02    0.01
   1  -3   5    0.00    0.05
   1  -3   5   -0.03    0.02
  -2   3  -5    5.88    0.20
  -2   3  -5    5.86    0.20
  -2   3  -5    5.27    0.27
  -2   3  -5    5.67    0.18
   2  -3   5    5.75    0.17
   2  -3   5    5.04    0.27
   2  -3   5    5.78    0.20
   2  -3   5    5.62    0.18
  -3   3  -5   52.77    1.55
  -3   3  -5   52.27    1.40
  -3   3  -5   52.38    1.46
  -3   3  -5   48.96    2.07
   3  -3   5   47.90    2.06
   3  -3   5   52.57    1.40
   3  -3   5   52.45    1.46
  -4   3  -5   19.85    0.61
  -4   3  -5   20.50    0.56
  -4   3  -5   18.63    0.82
  -4   3  -5   19.83    0.58
  -4   3  -5   19.63    0.64
   4  -3   5   17.94    0.82
   4  -3   5   19.84    0.56
   4  -3   5   19.93    0.59
  -5   3  -5    0.49    0.06
  -5   3  -5    0.60    0.06
  -5   3  -5    0.55    0.05
  -5   3  -5    0.51    0.08
  -5   3  -5    0.56    0.06
   5  -3   5    0.49    0.06
   5  -3   5    0.44    0.06
   5  -3   5    0.46    0.08
  -6   3  -5    1.77    0.13
  -6   3  -5    1.78    0.11
  -6   3  -5    1.69    0.10
  -6   3  -5    1.70    0.14
   6  -3   5    1.59    0.11
   6  -3   5    1.65    0.11
   6  -3   5    1.74    0.15
  -7   3  -5    0.21    0.07
  -7   3  -5    0.25    0.05
  -7   3  -5    0.18    0.06
   7  -3   5    0.19    0.06
   7  -3   5    0.03    0.05
  -8   3  -5    0.05    0.05
  -8   3  -5    0.04    0.07
  -8   3  -5   -0.03    0.06
   8  -3   5    0.02    0.07
   8  -3   5    0.14    0.06
  10   2  -5    0.39    0.06
  10   2  -5    0.32    0.08
  10   2  -5    0.52    0.07
   9   2  -5    0.39    0.06
   9   2  -5    0.32    0.07
   8   2  -5    0.11    0.04
   8   2  -5    0.04    0.06
   8   2  -5    0.08    0.04
   7   2  -5    4.76    0.17
   7   2  -5    4.99    0.21
   7   2  -5    4.83    0.16
   7   2  -5    4.67    0.16
   6   2  -5    1.12    0.11
   6   2  -5    1.18    0.07
   6   2  -5    1.17    0.06
   6   2  -5    1.23    0.07
   6   2  -5    1.20    0.06
   6   2  -5    1.15    0.05
   6   2  -5    1.14    0.05
   6   2  -5    1.15    0.07
  -6  -2   5    1.07    0.07
  -6  -2   5    1.21    0.08
  -6  -2   5    0.88    0.08
  -6  -2   5    1.21    0.05
   5   2  -5   11.83    0.50
   5   2  -5   12.11    0.37
   5   2  -5   12.13    0.33
   5   2  -5   12.00    0.34
   5   2  -5   12.22    0.50
   5   2  -5   11.97    0.35
   5   2  -5   12.17    0.41
   5   2  -5   12.03    0.35
  -5  -2   5   12.34    0.36
  -5  -2   5   12.18    0.37
  -5  -2   5   11.76    0.39
  -5  -2   5   12.32    0.50
   4   2  -5    1.32    0.06
   4   2  -5    1.29    0.08
   4   2  -5    1.27    0.07
   4   2  -5    1.43    0.09
   4   2  -5    1.31    0.09
   4   2  -5    1.28    0.05
   4   2  -5    1.38    0.09
  -4  -2   5    1.29    0.07
  -4  -2   5    1.23    0.09
  -4  -2   5    1.50    0.09
  -4  -2   5    1.35    0.09
  -4  -2   5    1.41    0.07
   3   2  -5    0.72    0.06
   3   2  -5    0.68    0.05
   3   2  -5    0.52    0.05
   3   2  -5    0.75    0.07
   3   2  -5    0.71    0.06
   3   2  -5    0.67    0.07
   3   2  -5    0.69    0.05
  -3  -2   5    0.76    0.05
  -3  -2   5    0.81    0.07
  -3  -2   5    0.78    0.06
  -3  -2   5    0.81    0.07
  -3  -2   5    0.68    0.05
   2   2  -5    1.73    0.08
   2   2  -5    1.81    0.08
   2   2  -5    1.76    0.09
   2   2  -5    1.73    0.08
   2   2  -5    1.90    0.11
   2   2  -5    1.81    0.10
   2   2  -5    1.94    0.12
  -2  -2   5    2.08    0.12
  -2  -2   5    1.86    0.12
  -2  -2   5    1.96    0.09
  -2  -2   5    1.85    0.08
  -2  -2   5    1.66    0.08
   1   2  -5   11.96    0.37
   1   2  -5   12.10    0.36
   1   2  -5   12.38    0.37
   1   2  -5   13.09    0.53
   1   2  -5   12.04    0.40
   1   2  -5   13.44    0.53
  -1  -2   5   12.12    0.37
  -1  -2   5   12.12    0.53
  -1  -2   5   13.03    0.53
  -1  -2   5   12.44    0.34
  -1  -2   5   12.49    0.40
  -1  -2   5   12.51    0.39
   0   2  -5   26.23    0.80
   0   2  -5   26.63    0.75
   0   2  -5   26.38    0.75
   0   2  -5   23.64    1.06
   0   2  -5   23.31    1.06
   0  -2   5   26.79    0.71
   0  -2   5   27.22    0.80
   0  -2   5   26.97    0.78
   0  -2   5   27.18    0.75
   0  -2   5   26.61    1.07
   0  -2   5   26.67    1.07
  -1   2  -5   22.82    0.66
  -1   2  -5   21.01    0.93
  -1   2  -5   23.24    0.70
  -1   2  -5   22.51    0.62
  -1   2  -5   22.15    0.66
  -1   2  -5   24.17    0.94
   1  -2   5   22.47    0.62
   1  -2   5   23.93    0.94
   1  -2   5   22.39    0.66
   1  -2   5   22.49    0.68
   1  -2   5   22.61    0.70
   1  -2   5   22.64    0.93
  -2   2  -5    6.88    0.23
  -2   2  -5    6.99    0.21
  -2   2  -5    7.29    0.33
  -2   2  -5    6.96    0.23
  -2   2  -5    7.08    0.33
   2  -2   5    7.18    0.32
   2  -2   5    6.64    0.23
   2  -2   5    6.82    0.21
   2  -2   5    7.09    0.33
   2  -2   5    6.83    0.23
  -3   2  -5    0.32    0.04
  -3   2  -5    0.36    0.06
  -3   2  -5    0.37    0.04
  -3   2  -5    0.34    0.04
  -3   2  -5    0.32    0.06
   3  -2   5    0.31    0.04
   3  -2   5    0.37    0.04
   3  -2   5    0.32    0.04
   3  -2   5    0.28    0.06
  -4   2  -5  145.57    4.41
  -4   2  -5  145.59    3.88
  -4   2  -5  156.02    5.72
  -4   2  -5  147.21    4.33
  -4   2  -5  135.10    5.72
  -4   2  -5  146.80    4.05
   4  -2   5  137.02    5.72
   4  -2   5  145.76    4.04
   4  -2   5  143.48    3.88
  -5   2  -5    0.34    0.06
  -5   2  -5    0.35    0.04
  -5   2  -5    0.51    0.06
  -5   2  -5    0.50    0.08
  -5   2  -5    0.53    0.08
   5  -2   5    0.37    0.05
   5  -2   5    0.48    0.08
  -6   2  -5    2.67    0.17
  -6   2  -5    2.59    0.12
  -6   2  -5    2.58    0.17
  -6   2  -5    2.63    0.14
  -6   2  -5    2.52    0.11
   6  -2   5    2.66    0.17
   6  -2   5    2.58    0.13
  -7   2  -5    0.49    0.08
  -7   2  -5    0.54    0.07
  -7   2  -5    0.49    0.06
   7  -2   5    0.43    0.06
   7  -2   5    0.50    0.09
  -8   2  -5    0.26    0.07
  -8   2  -5    0.19    0.06
  -8   2  -5    0.30    0.05
   8  -2   5    0.16    0.05
   8  -2   5    0.23    0.07
  -9   2  -5    7.66    0.32
  -9   2  -5    7.46    0.37
   9  -2   5    7.94    0.29
   9  -2   5    8.08    0.30
  10   1  -5    2.38    0.14
  10   1  -5    2.59    0.19
   9   1  -5    1.64    0.11
   9   1  -5    1.83    0.11
   9   1  -5    1.92    0.16
   9   1  -5    1.59    0.11
   8   1  -5    0.20    0.04
   8   1  -5    0.15    0.04
   8   1  -5    0.12    0.06
   8   1  -5    0.10    0.04
   7   1  -5    0.18    0.03
   7   1  -5    0.24    0.04
   7   1  -5    0.11    0.06
   7   1  -5    0.22    0.04
   7   1  -5    0.23    0.04
   6   1  -5    4.35    0.16
   6   1  -5    4.28    0.13
   6   1  -5    4.21    0.15
   6   1  -5    4.34    0.15
   6   1  -5    4.30    0.13
   6   1  -5    4.35    0.18
   6   1  -5    4.27    0.19
   6   1  -5    4.33    0.18
  -6  -1   5    4.55    0.18
  -6  -1   5    4.35    0.18
   5   1  -5    4.26    0.18
   5   1  -5    4.52    0.14
   5   1  -5    4.30    0.16
   5   1  -5    4.26    0.14
   5   1  -5    4.58    0.15
   5   1  -5    4.46    0.20
   5   1  -5    4.36    0.13
   5   1  -5    4.33    0.14
   5   1  -5    4.43    0.20
  -5  -1   5    4.50    0.20
  -5  -1   5    4.42    0.20
  -5  -1   5    4.52    0.14
  -5  -1   5    4.65    0.18
   4   1  -5    5.56    0.17
   4   1  -5    5.64    0.21
   4   1  -5    5.59    0.16
   4   1  -5    5.43    0.19
   4   1  -5    5.88    0.20
   4   1  -5    5.85    0.25
   4   1  -5    5.65    0.25
   4   1  -5    5.50    0.17
   4   1  -5    5.46    0.16
   4   1  -5    5.29    0.17
  -4  -1   5    5.45    0.25
  -4  -1   5    5.62    0.19
  -4  -1   5    5.60    0.20
  -4  -1   5    5.74    0.25
  -4  -1   5    5.54    0.18
   3   1  -5    0.20    0.04
   3   1  -5    0.13    0.04
   3   1  -5    0.18    0.02
   3   1  -5    0.11    0.03
   3   1  -5    0.20    0.03
   3   1  -5    0.12    0.03
   3   1  -5    0.15    0.02
   3   1  -5    0.16    0.03
   3   1  -5    0.13    0.04
  -3  -1   5    0.24    0.04
  -3  -1   5    0.12    0.03
  -3  -1   5    0.15    0.03
  -3  -1   5    0.13    0.04
  -3  -1   5    0.11    0.03
   2   1  -5   63.48    1.94
   2   1  -5   70.67    2.56
   2   1  -5   64.08    1.88
   2   1  -5   60.72    2.55
   2   1  -5   65.19    1.80
   2   1  -5   63.67    1.81
   2   1  -5   65.37    1.80
  -2  -1   5   64.38    1.75
  -2  -1   5   67.23    1.88
  -2  -1   5   65.70    1.81
  -2  -1   5   64.21    2.56
  -2  -1   5   65.22    1.88
  -2  -1   5   58.27    2.55
   1   1  -5   29.72    0.88
   1   1  -5   28.82    0.91
   1   1  -5   30.41    1.20
   1   1  -5   29.41    0.85
   1   1  -5   30.07    0.84
   1   1  -5   27.14    1.20
   1   1  -5   29.63    0.84
  -1  -1   5   31.00    1.20
  -1  -1   5   29.91    0.85
  -1  -1   5   29.57    1.20
  -1  -1   5   30.35    0.91
  -1  -1   5   30.21    0.81
  -1  -1   5   30.07    0.88
   0   1  -5    2.20    0.13
   0   1  -5    2.13    0.09
   0   1  -5    2.04    0.07
   0   1  -5    2.11    0.09
   0   1  -5    1.84    0.09
   0   1  -5    2.17    0.09
   0   1  -5    2.17    0.13
   0  -1   5    2.00    0.09
   0  -1   5    2.13    0.09
   0  -1   5    2.14    0.09
   0  -1   5    2.44    0.13
   0  -1   5    2.29    0.13
   0  -1   5    2.12    0.07
   0  -1   5    2.03    0.07
  -1   1  -5   18.28    0.54
  -1   1  -5   15.04    0.71
  -1   1  -5   17.28    0.51
  -1   1  -5   17.63    0.50
  -1   1  -5   17.62    0.72
   1  -1   5   17.41    0.53
   1  -1   5   17.44    0.47
   1  -1   5   17.51    0.49
   1  -1   5   17.50    0.52
   1  -1   5   18.84    0.72
   1  -1   5   15.12    0.71
   1  -1   5   17.16    0.51
  -2   1  -5    0.07    0.04
  -2   1  -5   -0.09    0.02
  -2   1  -5    0.02    0.04
  -2   1  -5   -0.03    0.03
  -2   1  -5    0.01    0.02
   2  -1   5    0.01    0.03
   2  -1   5    0.04    0.02
   2  -1   5   -0.01    0.04
   2  -1   5   -0.02    0.02
   2  -1   5    0.01    0.04
   2  -1   5   -0.01    0.03
  -3   1  -5    1.64    0.12
  -3   1  -5    2.01    0.12
  -3   1  -5    1.53    0.09
  -3   1  -5    1.74    0.08
  -3   1  -5    1.69    0.08
  -3   1  -5    1.76    0.09
   3  -1   5    1.73    0.12
   3  -1   5    1.64    0.08
   3  -1   5    1.58    0.09
   3  -1   5    1.73    0.08
   3  -1   5    2.09    0.14
  -4   1  -5    8.03    0.39
  -4   1  -5    8.35    0.29
  -4   1  -5    8.62    0.27
  -4   1  -5    8.67    0.28
  -4   1  -5    9.10    0.39
   4  -1   5    8.64    0.26
   4  -1   5    8.37    0.27
   4  -1   5    8.64    0.28
   4  -1   5    8.14    0.38
  -5   1  -5    0.29    0.04
  -5   1  -5    0.38    0.05
  -5   1  -5    0.50    0.08
  -5   1  -5    0.31    0.05
  -5   1  -5    0.38    0.08
   5  -1   5    0.40    0.08
   5  -1   5    0.31    0.05
   5  -1   5    0.44    0.05
  -6   1  -5   25.41    0.99
  -6   1  -5   23.34    0.99
  -6   1  -5   23.02    0.74
  -6   1  -5   23.17    0.77
  -6   1  -5   23.56    0.70
   6  -1   5   23.38    0.74
   6  -1   5   23.36    0.70
   6  -1   5   25.08    0.99
  -7   1  -5    0.03    0.05
  -7   1  -5    0.06    0.04
  -7   1  -5   -0.01    0.05
   7  -1   5   -0.01    0.04
   7  -1   5   -0.04    0.04
   7  -1   5    0.07    0.05
   7  -1   5    0.03    0.06
  -8   1  -5    0.05    0.06
  -8   1  -5    0.09    0.04
  -8   1  -5    0.05    0.05
   8  -1   5    0.06    0.04
   8  -1   5    0.19    0.06
  -9   1  -5    0.20    0.07
  -9   1  -5    0.29    0.07
  -9   1  -5    0.41    0.05
   9  -1   5    0.35    0.08
 -10   1  -5    0.48    0.09
 -10   1  -5    0.43    0.08
  10  -1   5    0.72    0.10
  10  -1   5    0.55    0.09
  10   0  -5    0.46    0.09
  10   0  -5    0.55    0.08
   9   0  -5    1.75    0.15
   9   0  -5    1.44    0.11
   9   0  -5    1.35    0.11
   9   0  -5    1.40    0.11
   8   0  -5    2.55    0.13
   8   0  -5    2.98    0.17
   8   0  -5    2.71    0.13
   7   0  -5    0.09    0.03
   7   0  -5    0.02    0.04
   7   0  -5    0.08    0.06
   7   0  -5    0.06    0.04
   6   0  -5    3.26    0.11
   6   0  -5    3.12    0.10
   6   0  -5    3.25    0.16
   6   0  -5    3.32    0.14
   6   0  -5    3.10    0.13
   6   0  -5    3.47    0.14
   6   0  -5    3.29    0.13
  -6   0   5    3.36    0.14
  -6   0   5    3.13    0.14
   5   0  -5    0.54    0.04
   5   0  -5    0.43    0.05
   5   0  -5    0.44    0.04
   5   0  -5    0.51    0.05
   5   0  -5    0.39    0.06
   5   0  -5    0.55    0.04
   5   0  -5    0.42    0.03
   5   0  -5    0.50    0.06
  -5   0   5    0.49    0.05
  -5   0   5    0.53    0.06
   4   0  -5    6.69    0.19
   4   0  -5    6.58    0.23
   4   0  -5    6.63    0.28
   4   0  -5    6.63    0.20
   4   0  -5    6.49    0.20
   4   0  -5    6.40    0.24
   4   0  -5    6.84    0.29
   4   0  -5    6.27    0.20
   4   0  -5    6.38    0.22
  -4   0   5    6.52    0.23
  -4   0   5    6.80    0.22
  -4   0   5    6.60    0.19
  -4   0   5    6.75    0.20
  -4   0   5    6.70    0.28
  -4   0   5    6.50    0.28
   3   0  -5   15.48    0.52
   3   0  -5   16.43    0.44
   3   0  -5   15.72    0.47
   3   0  -5   16.19    0.49
   3   0  -5   16.57    0.52
   3   0  -5   16.39    0.46
   3   0  -5   16.12    0.46
   3   0  -5   17.24    0.67
   3   0  -5   16.69    0.67
   3   0  -5   16.35    0.48
  -3   0   5   16.52    0.46
  -3   0   5   16.22    0.44
  -3   0   5   16.41    0.47
  -3   0   5   16.38    0.50
  -3   0   5   16.68    0.49
  -3   0   5   15.86    0.66
  -3   0   5   15.26    0.66
   2   0  -5   63.74    1.95
   2   0  -5   60.35    2.57
   2   0  -5   64.00    1.89
   2   0  -5   63.90    1.79
   2   0  -5   65.71    1.82
   2   0  -5   66.15    1.98
   2   0  -5   66.36    2.57
   2   0  -5   66.42    1.81
  -2   0   5   66.45    1.77
  -2   0   5   65.04    2.57
  -2   0   5   66.70    1.89
  -2   0   5   65.22    1.73
  -2   0   5   65.18    1.82
  -2   0   5   63.59    2.57
  -2   0   5   64.87    1.89
   1   0  -5    0.03    0.03
   1   0  -5    0.12    0.04
   1   0  -5    0.00    0.02
   1   0  -5    0.02    0.01
   1   0  -5    0.02    0.03
   1   0  -5    0.06    0.02
   1   0  -5    0.03    0.02
   1   0  -5    0.05    0.03
   1   0  -5   -0.02    0.02
  -1   0   5    0.03    0.04
  -1   0   5    0.00    0.04
  -1   0   5    0.02    0.01
  -1   0   5    0.00    0.01
  -1   0   5    0.00    0.02
  -1   0   5    0.03    0.02
   0   0  -5   18.44    0.55
   0   0  -5   17.10    0.73
   0   0  -5   17.70    0.55
   0   0  -5   17.97    0.50
   0   0  -5   18.88    0.73
   0   0  -5   18.37    0.51
   0   0  -5   17.54    0.53
   0   0   5   17.59    0.49
   0   0   5   18.10    0.53
   0   0   5   17.65    0.51
   0   0   5   16.33    0.73
   0   0   5   16.57    0.73
   0   0   5   17.75    0.55
  -1   0  -5  244.84    7.12
  -1   0  -5  239.91    6.90
  -1   0  -5  212.08    9.40
  -1   0  -5  244.77    7.15
  -1   0  -5  230.44    9.40
  -1   0  -5  242.59    6.63
   1   0   5  244.43    6.90
   1   0   5  240.66    6.64
   1   0   5  244.83    6.37
   1   0   5  240.72    9.40
   1   0   5  241.89    7.11
   1   0   5  243.31    6.59
  -2   0  -5    0.64    0.05
  -2   0  -5    0.68    0.08
  -2   0  -5    0.49    0.04
  -2   0  -5    0.47    0.04
  -2   0  -5    0.44    0.04
  -2   0  -5    0.67    0.08
   2   0   5    0.66    0.05
   2   0   5    0.67    0.07
   2   0   5    0.46    0.04
   2   0   5    0.52    0.04
   2   0   5    0.32    0.04
   2   0   5    0.44    0.06
   2   0   5    0.49    0.04
   2   0   5    0.52    0.05
  -3   0  -5  196.50    5.83
  -3   0  -5  170.45    7.55
  -3   0  -5  204.78    5.73
  -3   0  -5  195.25    5.33
  -3   0  -5  170.85    7.55
  -3   0  -5  195.09    5.34
   3   0   5  197.65    5.13
   3   0   5  192.64    5.73
   3   0   5  201.34    5.55
   3   0   5  199.36    5.29
   3   0   5  194.08    7.56
   3   0   5  199.74    5.70
   3   0   5  198.29    5.34
   3   0   5  170.85    7.55
  -4   0  -5    0.63    0.06
  -4   0  -5    0.74    0.09
  -4   0  -5    0.60    0.05
  -4   0  -5    0.80    0.06
  -4   0  -5    0.66    0.05
  -4   0  -5    0.71    0.09
   4   0   5    0.54    0.05
   4   0   5    0.62    0.05
   4   0   5    0.65    0.06
   4   0   5    0.75    0.07
   4   0   5    0.63    0.08
   4   0   5    0.60    0.05
  -5   0  -5   31.32    0.95
  -5   0  -5   30.00    0.89
  -5   0  -5   29.32    1.26
  -5   0  -5   30.88    0.97
  -5   0  -5   32.58    0.93
  -5   0  -5   33.35    1.27
   5   0   5   30.41    0.89
   5   0   5   31.08    0.89
   5   0   5   31.26    0.86
   5   0   5   30.30    1.26
   5   0   5   31.08    0.95
  -6   0  -5   54.37    2.16
  -6   0  -5   53.38    1.64
  -6   0  -5   53.26    1.67
  -6   0  -5   53.20    2.16
  -6   0  -5   54.45    1.53
   6   0   5   56.25    2.17
   6   0   5   53.38    1.53
   6   0   5   53.89    1.63
   6   0   5   53.24    1.53
  -7   0  -5   -0.03    0.04
  -7   0  -5   -0.04    0.05
  -7   0  -5    0.04    0.05
  -7   0  -5   -0.01    0.05
   7   0   5   -0.02    0.04
   7   0   5    0.00    0.05
   7   0   5   -0.03    0.05
   7   0   5   -0.07    0.04
  -8   0  -5    0.36    0.06
  -8   0  -5    0.34    0.05
  -8   0  -5    0.31    0.07
   8   0   5    0.33    0.05
   8   0   5    0.28    0.06
   8   0   5    0.27    0.05
  -9   0  -5    0.23    0.07
  -9   0  -5    0.26    0.05
  -9   0  -5    0.23    0.06
   9   0   5    0.23    0.07
   9   0   5    0.26    0.05
 -10   0  -5    0.20    0.07
 -10   0  -5    0.30    0.07
  10   0   5    0.14    0.08
   9  -1  -5    5.45    0.25
   9  -1  -5    5.29    0.21
   8  -1  -5    9.54    0.32
   8  -1  -5    9.41    0.31
   7  -1  -5    1.83    0.11
   7  -1  -5    2.02    0.09
   7  -1  -5    2.13    0.11
  -7   1   5    2.13    0.10
  -7   1   5    1.80    0.13
   6  -1  -5    3.08    0.11
   6  -1  -5    2.79    0.14
   6  -1  -5    3.18    0.14
   6  -1  -5    3.23    0.14
   6  -1  -5    2.85    0.10
   6  -1  -5    3.16    0.13
   6  -1  -5    2.90    0.10
  -6   1   5    3.21    0.16
  -6   1   5    3.27    0.14
  -6   1   5    3.17    0.14
  -6   1   5    3.01    0.12
   5  -1  -5    2.54    0.09
   5  -1  -5    2.80    0.10
   5  -1  -5    2.76    0.11
   5  -1  -5    2.70    0.13
   5  -1  -5    2.76    0.14
   5  -1  -5    2.45    0.12
   5  -1  -5    2.56    0.10
  -5   1   5    2.81    0.13
  -5   1   5    2.65    0.13
  -5   1   5    2.72    0.14
  -5   1   5    2.87    0.11
   4  -1  -5   66.87    2.02
   4  -1  -5   65.33    2.60
   4  -1  -5   65.40    2.60
   4  -1  -5   65.33    1.84
   4  -1  -5   65.81    1.81
   4  -1  -5   66.33    1.77
   4  -1  -5   65.18    1.92
   4  -1  -5   66.80    1.83
  -4   1   5   65.58    1.93
  -4   1   5   65.65    2.60
  -4   1   5   67.76    2.02
  -4   1   5   64.08    2.60
  -4   1   5   65.78    1.77
   3  -1  -5    4.97    0.16
   3  -1  -5    4.68    0.16
   3  -1  -5    4.95    0.22
   3  -1  -5    4.88    0.15
   3  -1  -5    5.03    0.17
   3  -1  -5    4.75    0.14
   3  -1  -5    5.23    0.22
   3  -1  -5    4.88    0.17
   3  -1  -5    4.63    0.17
  -3   1   5    5.01    0.18
  -3   1   5    4.99    0.16
  -3   1   5    5.02    0.23
  -3   1   5    4.91    0.22
  -3   1   5    4.95    0.17
  -3   1   5    5.05    0.17
  -3   1   5    4.80    0.15
   2  -1  -5   13.00    0.40
   2  -1  -5   13.21    0.52
   2  -1  -5   12.08    0.36
   2  -1  -5   12.07    0.39
   2  -1  -5   12.47    0.37
   2  -1  -5   12.45    0.52
   2  -1  -5   12.52    0.39
   2  -1  -5   12.38    0.35
  -2   1   5   12.75    0.37
  -2   1   5   12.82    0.38
  -2   1   5   12.70    0.34
  -2   1   5   11.95    0.52
  -2   1   5   11.23    0.52
  -2   1   5   12.53    0.36
  -2   1   5   12.64    0.38
   1  -1  -5    5.53    0.28
   1  -1  -5    6.02    0.21
   1  -1  -5    6.26    0.21
   1  -1  -5    6.46    0.21
   1  -1  -5    6.21    0.18
   1  -1  -5    6.37    0.20
   1  -1  -5    6.31    0.20
   1  -1  -5    6.75    0.28
  -1   1   5    6.52    0.19
  -1   1   5    6.34    0.28
  -1   1   5    6.51    0.20
  -1   1   5    6.28    0.28
  -1   1   5    6.40    0.20
  -1   1   5    6.43    0.21
  -1   1   5    6.32    0.18
  -1   1   5    6.42    0.18
   0  -1  -5    0.22    0.04
   0  -1  -5    0.20    0.03
   0  -1  -5    0.19    0.03
   0  -1  -5    0.37    0.03
   0  -1  -5    0.26    0.04
   0  -1  -5    0.30    0.03
   0  -1  -5    0.19    0.03
   0   1   5    0.21    0.03
   0   1   5    0.23    0.02
   0   1   5    0.27    0.05
   0   1   5    0.20    0.04
   0   1   5    0.18    0.03
  -1  -1  -5   74.64    2.90
  -1  -1  -5   73.75    2.05
  -1  -1  -5   77.74    2.90
  -1  -1  -5   72.72    2.02
  -1  -1  -5   71.52    2.13
  -1  -1  -5   75.22    2.20
  -1  -1  -5   73.49    2.18
   1   1   5   72.34    2.20
   1   1   5   68.18    2.90
   1   1   5   75.33    2.90
   1   1   5   72.69    2.13
   1   1   5   71.86    2.02
   1   1   5   71.55    2.05
  -2  -1  -5   84.21    2.48
  -2  -1  -5   76.62    3.27
  -2  -1  -5   82.29    2.46
  -2  -1  -5   81.17    2.40
  -2  -1  -5   82.14    2.31
  -2  -1  -5   88.26    3.27
  -2  -1  -5   81.29    2.51
   2   1   5   84.79    3.27
   2   1   5   82.73    2.29
   2   1   5   80.38    2.48
   2   1   5   85.50    3.27
   2   1   5   82.45    2.31
   2   1   5   83.00    2.40
   2   1   5   82.45    2.46
  -3  -1  -5   19.07    0.59
  -3  -1  -5   18.70    0.55
  -3  -1  -5   20.24    0.78
  -3  -1  -5   18.57    0.58
  -3  -1  -5   18.61    0.78
  -3  -1  -5   18.47    0.57
   3   1   5   18.45    0.54
   3   1   5   18.29    0.78
   3   1   5   19.12    0.78
   3   1   5   19.03    0.57
   3   1   5   18.60    0.52
   3   1   5   18.40    0.55
   3   1   5   18.81    0.59
   3   1   5   18.61    0.57
  -4  -1  -5   29.40    0.92
  -4  -1  -5   29.51    0.85
  -4  -1  -5   27.69    1.20
  -4  -1  -5   29.83    0.83
  -4  -1  -5   32.48    1.21
  -4  -1  -5   30.72    0.91
   4   1   5   29.48    0.85
   4   1   5   29.61    0.91
   4   1   5   30.24    0.82
   4   1   5   30.71    1.20
   4   1   5   30.31    0.88
   4   1   5   29.86    0.84
   4   1   5   24.95    1.20
   4   1   5   29.40    0.89
  -5  -1  -5    0.70    0.08
  -5  -1  -5    0.77    0.05
  -5  -1  -5    1.11    0.07
  -5  -1  -5    0.57    0.05
  -5  -1  -5    0.88    0.06
  -5  -1  -5    0.85    0.09
  -5  -1  -5    0.82    0.06
  -5  -1  -5    0.77    0.05
   5   1   5    0.97    0.07
   5   1   5    0.56    0.08
   5   1   5    0.73    0.07
   5   1   5    0.87    0.07
   5   1   5    0.81    0.04
   5   1   5    0.87    0.07
   5   1   5    0.68    0.06
  -6  -1  -5   39.90    1.25
  -6  -1  -5   41.35    1.12
  -6  -1  -5   39.67    1.61
  -6  -1  -5   36.57    1.60
  -6  -1  -5   40.44    1.14
   6   1   5   41.26    1.14
   6   1   5   38.49    1.61
   6   1   5   40.14    1.14
   6   1   5   40.73    1.22
  -7  -1  -5    2.49    0.14
  -7  -1  -5    2.40    0.16
  -7  -1  -5    2.57    0.12
  -7  -1  -5    2.68    0.16
   7   1   5    2.43    0.13
   7   1   5    2.43    0.13
   7   1   5    2.53    0.12
   7   1   5    2.54    0.16
  -8  -1  -5    5.69    0.24
  -8  -1  -5    5.83    0.29
  -8  -1  -5    5.91    0.20
   8   1   5    5.84    0.23
   8   1   5    6.13    0.29
   8   1   5    5.45    0.22
   8   1   5    5.40    0.20
  -9  -1  -5    0.03    0.04
  -9  -1  -5    0.04    0.05
  -9  -1  -5    0.06    0.05
   9   1   5    0.05    0.04
   9   1   5    0.07    0.06
   9   1   5   -0.07    0.05
 -10  -1  -5    0.08    0.06
 -10  -1  -5    0.08    0.06
  10   1   5    0.09    0.06
 -11  -1  -5   -0.04    0.05
   9  -2  -5    0.17    0.06
   9  -2  -5    0.18    0.05
  -9   2   5    0.17    0.07
   8  -2  -5    2.41    0.13
   8  -2  -5    2.06    0.13
  -8   2   5    2.34    0.12
  -8   2   5    2.12    0.15
   7  -2  -5    7.78    0.27
   7  -2  -5    7.31    0.26
  -7   2   5    7.69    0.30
  -7   2   5    7.33    0.25
   6  -2  -5    6.45    0.22
   6  -2  -5    6.56    0.21
   6  -2  -5    6.61    0.23
   6  -2  -5    6.37    0.24
  -6   2   5    6.54    0.26
  -6   2   5    6.25    0.21
  -6   2   5    6.45    0.27
  -6   2   5    6.29    0.28
   5  -2  -5   30.47    0.88
   5  -2  -5   31.71    1.24
   5  -2  -5   30.50    0.85
   5  -2  -5   31.08    0.93
   5  -2  -5   30.74    0.88
   5  -2  -5   32.06    0.95
   5  -2  -5   31.07    0.88
  -5   2   5   30.79    1.24
  -5   2   5   30.58    0.85
  -5   2   5   31.43    0.98
   4  -2  -5    8.90    0.27
   4  -2  -5    8.93    0.26
   4  -2  -5    8.73    0.37
   4  -2  -5    8.41    0.27
   4  -2  -5    8.83    0.26
   4  -2  -5    8.64    0.38
   4  -2  -5    8.77    0.29
   4  -2  -5    9.28    0.29
   4  -2  -5    8.87    0.27
  -4   2   5    8.79    0.37
  -4   2   5    8.58    0.30
  -4   2   5    8.59    0.26
  -4   2   5    8.66    0.38
   3  -2  -5    3.09    0.12
   3  -2  -5    3.11    0.10
   3  -2  -5    2.97    0.11
   3  -2  -5    2.98    0.15
   3  -2  -5    2.83    0.12
   3  -2  -5    2.98    0.11
   3  -2  -5    3.09    0.10
   3  -2  -5    3.10    0.12
   3  -2  -5    2.99    0.15
  -3   2   5    3.09    0.11
  -3   2   5    3.03    0.12
  -3   2   5    2.85    0.15
  -3   2   5    2.91    0.10
  -3   2   5    3.07    0.15
   2  -2  -5   17.46    0.53
   2  -2  -5   17.24    0.49
   2  -2  -5   17.67    0.50
   2  -2  -5   17.42    0.71
   2  -2  -5   18.21    0.71
   2  -2  -5   17.16    0.49
   2  -2  -5   17.93    0.54
  -2   2   5   14.68    0.71
  -2   2   5   17.63    0.48
  -2   2   5   17.49    0.55
  -2   2   5   17.76    0.49
  -2   2   5   17.53    0.71
  -2   2   5   17.87    0.53
  -2   2   5   17.69    0.53
   1  -2  -5   10.87    0.51
   1  -2  -5   12.14    0.36
   1  -2  -5   12.00    0.38
   1  -2  -5   13.15    0.51
   1  -2  -5   12.46    0.39
   1  -2  -5   11.92    0.35
  -1   2   5   12.18    0.38
  -1   2   5   12.11    0.34
  -1   2   5   12.23    0.35
  -1   2   5   11.82    0.37
  -1   2   5   12.43    0.36
  -1   2   5   12.47    0.51
  -1   2   5   11.91    0.51
   0  -2  -5  110.45    3.20
   0  -2  -5  108.80    2.98
   0  -2  -5  112.03    4.22
   0  -2  -5  107.32    2.95
   0  -2  -5  104.62    3.10
   0  -2  -5   94.93    4.21
   0   2   5  109.06    2.91
   0   2   5  108.57    3.10
   0   2   5  106.84    3.24
   0   2   5  106.32    3.20
   0   2   5  107.13    2.98
   0   2   5  106.78    4.22
   0   2   5  110.07    2.86
   0   2   5  110.85    2.95
   0   2   5   99.05    4.21
  -1  -2  -5    1.18    0.05
  -1  -2  -5    1.26    0.09
  -1  -2  -5    1.18    0.06
  -1  -2  -5    1.10    0.09
  -1  -2  -5    1.29    0.06
   1   2   5    1.03    0.09
   1   2   5    1.17    0.09
   1   2   5    1.24    0.07
   1   2   5    1.27    0.05
   1   2   5    1.31    0.07
  -2  -2  -5    5.73    0.20
  -2  -2  -5    6.64    0.28
  -2  -2  -5    5.98    0.28
  -2  -2  -5    5.98    0.19
  -2  -2  -5    6.48    0.20
  -2  -2  -5    6.01    0.21
  -2  -2  -5    6.06    0.19
   2   2   5    6.17    0.20
   2   2   5    6.17    0.19
   2   2   5    5.46    0.27
   2   2   5    6.36    0.28
   2   2   5    5.73    0.21
   2   2   5    6.10    0.19
  -3  -2  -5   57.90    1.60
  -3  -2  -5   57.17    2.28
  -3  -2  -5   55.63    1.67
  -3  -2  -5   57.48    1.61
  -3  -2  -5   57.80    1.73
  -3  -2  -5   57.55    2.28
   3   2   5   57.31    2.28
   3   2   5   57.78    1.67
   3   2   5   56.72    1.61
   3   2   5   57.00    1.73
   3   2   5   57.11    1.75
   3   2   5   56.98    1.60
   3   2   5   58.25    2.28
  -4  -2  -5    4.63    0.16
  -4  -2  -5    4.64    0.22
  -4  -2  -5    4.54    0.16
  -4  -2  -5    4.43    0.22
   4   2   5    4.31    0.16
   4   2   5    4.60    0.16
   4   2   5    4.45    0.16
   4   2   5    4.53    0.17
   4   2   5    4.36    0.22
   4   2   5    4.75    0.23
   4   2   5    4.65    0.16
  -5  -2  -5    1.66    0.12
  -5  -2  -5    1.75    0.09
  -5  -2  -5    1.57    0.08
  -5  -2  -5    1.57    0.12
  -5  -2  -5    1.62    0.07
   5   2   5    1.68    0.09
   5   2   5    1.76    0.09
   5   2   5    1.80    0.09
   5   2   5    1.64    0.09
   5   2   5    1.77    0.12
   5   2   5    1.68    0.09
   5   2   5    1.71    0.08
  -6  -2  -5    0.87    0.10
  -6  -2  -5    0.92    0.07
  -6  -2  -5    0.76    0.08
  -6  -2  -5    0.89    0.06
  -6  -2  -5    0.60    0.06
   6   2   5    0.82    0.07
   6   2   5    0.90    0.07
   6   2   5    0.87    0.10
   6   2   5    0.95    0.07
   6   2   5    1.03    0.07
  -7  -2  -5    9.27    0.43
  -7  -2  -5    9.81    0.43
  -7  -2  -5    9.39    0.34
  -7  -2  -5    9.49    0.30
  -7  -2  -5    9.79    0.30
   7   2   5    9.55    0.30
   7   2   5    9.98    0.43
   7   2   5    9.62    0.33
   7   2   5    9.53    0.32
  -8  -2  -5   20.14    0.59
  -8  -2  -5   20.03    0.84
  -8  -2  -5   20.61    0.59
   8   2   5   19.44    0.83
   8   2   5   19.85    0.59
   8   2   5   20.14    0.64
   8   2   5   19.96    0.61
  -9  -2  -5   -0.02    0.04
  -9  -2  -5   -0.03    0.05
   9   2   5   -0.12    0.05
   9   2   5    0.00    0.03
   9   2   5   -0.08    0.06
 -10  -2  -5    0.66    0.08
  10   2   5    0.67    0.08
  10   2   5    0.61    0.09
 -11  -2  -5    0.05    0.05
  11   2   5   -0.01    0.07
   9  -3  -5    0.95    0.11
   9  -3  -5    0.92    0.09
   9  -3  -5    0.88    0.09
  -9   3   5    0.78    0.08
  -9   3   5    0.83    0.10
   8  -3  -5    0.09    0.05
   8  -3  -5    0.10    0.06
  -8   3   5    0.04    0.05
  -8   3   5    0.02    0.06
   7  -3  -5    9.30    0.32
   7  -3  -5    9.39    0.31
  -7   3   5    9.52    0.35
  -7   3   5    8.80    0.29
  -7   3   5    8.85    0.38
   6  -3  -5    7.70    0.26
   6  -3  -5    7.83    0.27
  -6   3   5    7.23    0.29
  -6   3   5    7.43    0.25
  -6   3   5    7.60    0.33
   5  -3  -5    7.21    0.23
   5  -3  -5    7.57    0.25
   5  -3  -5    7.56    0.25
   5  -3  -5    7.42    0.26
   5  -3  -5    7.48    0.33
   5  -3  -5    7.42    0.23
   5  -3  -5    7.39    0.23
  -5   3   5    7.59    0.33
  -5   3   5    7.84    0.33
  -5   3   5    7.49    0.28
  -5   3   5    7.21    0.24
   4  -3  -5    0.41    0.05
   4  -3  -5    0.41    0.04
   4  -3  -5    0.51    0.04
   4  -3  -5    0.49    0.04
   4  -3  -5    0.50    0.06
   4  -3  -5    0.43    0.05
   4  -3  -5    0.50    0.04
  -4   3   5    0.49    0.06
  -4   3   5    0.37    0.04
  -4   3   5    0.44    0.05
  -4   3   5    0.44    0.05
   3  -3  -5    0.11    0.02
   3  -3  -5    0.09    0.02
   3  -3  -5    0.11    0.02
   3  -3  -5    0.13    0.04
   3  -3  -5    0.12    0.04
   3  -3  -5    0.09    0.03
   3  -3  -5    0.09    0.04
   3  -3  -5    0.13    0.03
   3  -3  -5    0.08    0.03
   3  -3  -5    0.08    0.02
  -3   3   5    0.12    0.03
  -3   3   5    0.09    0.03
  -3   3   5    0.14    0.05
  -3   3   5    0.08    0.04
   2  -3  -5   -0.01    0.02
   2  -3  -5    0.00    0.02
   2  -3  -5    0.02    0.03
   2  -3  -5    0.15    0.04
   2  -3  -5    0.01    0.02
   2  -3  -5    0.00    0.04
   2  -3  -5    0.02    0.02
   2  -3  -5    0.04    0.02
  -2   3   5    0.03    0.04
  -2   3   5    0.01    0.02
  -2   3   5    0.02    0.02
  -2   3   5    0.00    0.04
   1  -3  -5   40.97    1.23
   1  -3  -5   43.08    1.62
   1  -3  -5   40.73    1.13
   1  -3  -5   39.50    1.19
   1  -3  -5   39.74    1.62
   1  -3  -5   40.25    1.15
  -1   3   5   37.69    1.62
  -1   3   5   40.78    1.19
  -1   3   5   39.57    1.18
  -1   3   5   42.30    1.63
  -1   3   5   40.63    1.12
  -1   3   5   41.15    1.24
  -1   3   5   40.46    1.10
   0  -3  -5   27.13    0.80
   0  -3  -5   24.80    1.06
   0  -3  -5   26.25    0.73
   0  -3  -5   26.06    1.06
   0  -3  -5   25.49    0.78
   0  -3  -5   26.41    0.75
   0   3   5   26.27    0.71
   0   3   5   26.73    0.78
   0   3   5   26.29    0.76
   0   3   5   26.92    0.73
   0   3   5   25.87    0.80
   0   3   5   23.23    1.05
   0   3   5   26.37    0.73
   0   3   5   27.01    1.06
  -1  -3  -5    3.07    0.11
  -1  -3  -5    2.99    0.17
  -1  -3  -5    3.25    0.17
  -1  -3  -5    3.10    0.12
   1   3   5    3.21    0.12
   1   3   5    3.23    0.16
   1   3   5    3.26    0.17
   1   3   5    3.08    0.11
   1   3   5    3.15    0.12
  -2  -3  -5   17.44    0.69
  -2  -3  -5   16.81    0.48
  -2  -3  -5   16.42    0.50
  -2  -3  -5   14.05    0.68
  -2  -3  -5   16.76    0.49
  -2  -3  -5   17.26    0.52
   2   3   5   16.59    0.49
   2   3   5   16.87    0.50
   2   3   5   16.12    0.69
   2   3   5   18.07    0.69
   2   3   5   16.50    0.52
   2   3   5   16.41    0.48
  -3  -3  -5   44.23    1.81
  -3  -3  -5   44.86    1.33
  -3  -3  -5   46.48    1.37
  -3  -3  -5   44.85    1.81
  -3  -3  -5   46.37    1.28
  -3  -3  -5   46.14    1.27
   3   3   5   39.46    1.81
   3   3   5   45.61    1.27
   3   3   5   45.79    1.38
   3   3   5   45.88    1.81
   3   3   5   45.94    1.37
   3   3   5   45.47    1.28
   3   3   5   46.58    1.32
  -4  -3  -5    0.72    0.06
  -4  -3  -5    0.40    0.06
  -4  -3  -5    0.49    0.04
  -4  -3  -5    0.53    0.07
  -4  -3  -5    0.50    0.05
  -4  -3  -5    0.47    0.04
   4   3   5    0.53    0.05
   4   3   5    0.48    0.04
   4   3   5    0.54    0.07
   4   3   5    0.59    0.07
   4   3   5    0.62    0.05
   4   3   5    0.52    0.05
   4   3   5    0.51    0.05
  -5  -3  -5    3.78    0.14
  -5  -3  -5    3.85    0.14
  -5  -3  -5    3.64    0.20
  -5  -3  -5    3.93    0.13
  -5  -3  -5    4.01    0.20
   5   3   5    3.97    0.15
   5   3   5    3.86    0.15
   5   3   5    3.72    0.14
   5   3   5    3.81    0.15
   5   3   5    3.72    0.20
   5   3   5    3.98    0.14
  -6  -3  -5    2.75    0.17
  -6  -3  -5    2.87    0.17
  -6  -3  -5    3.24    0.12
  -6  -3  -5    3.04    0.12
   6   3   5    3.25    0.17
   6   3   5    3.07    0.13
   6   3   5    2.99    0.13
   6   3   5    3.04    0.14
   6   3   5    3.13    0.12
   6   3   5    3.10    0.12
  -7  -3  -5    3.67    0.20
  -7  -3  -5    3.62    0.20
  -7  -3  -5    3.80    0.14
   7   3   5    3.64    0.16
   7   3   5    3.65    0.14
   7   3   5    3.78    0.14
   7   3   5    3.88    0.16
   7   3   5    3.68    0.21
  -8  -3  -5   -0.09    0.06
  -8  -3  -5   -0.04    0.04
   8   3   5    0.05    0.05
   8   3   5   -0.12    0.05
  -9  -3  -5    1.60    0.09
  -9  -3  -5    1.51    0.13
  -9  -3  -5    1.42    0.10
   9   3   5    1.52    0.12
   9   3   5    1.24    0.10
 -10  -3  -5    4.96    0.26
  10   3   5    5.15    0.22
  10   3   5    5.37    0.23
 -11  -3  -5    0.07    0.05
  11   3   5    0.06    0.06
  11   3   5    0.00    0.07
   8  -4  -5    2.08    0.14
   8  -4  -5    1.87    0.14
   8  -4  -5    1.93    0.15
  -8   4   5    1.84    0.12
  -8   4   5    2.20    0.16
   7  -4  -5    0.92    0.09
   7  -4  -5    0.93    0.08
  -7   4   5    0.84    0.09
  -7   4   5    1.00    0.10
  -7   4   5    1.08    0.08
   6  -4  -5    2.03    0.13
   6  -4  -5    2.11    0.12
  -6   4   5    1.87    0.14
  -6   4   5    1.99    0.13
  -6   4   5    2.12    0.11
   5  -4  -5   12.89    0.39
   5  -4  -5   12.95    0.55
   5  -4  -5   12.48    0.40
   5  -4  -5   12.70    0.39
   5  -4  -5   12.67    0.42
  -5   4   5   12.90    0.55
  -5   4   5   13.66    0.56
  -5   4   5   12.71    0.38
  -5   4   5   12.80    0.44
   4  -4  -5    0.23    0.04
   4  -4  -5    0.30    0.04
   4  -4  -5    0.19    0.05
   4  -4  -5    0.39    0.06
   4  -4  -5    0.26    0.04
   4  -4  -5    0.20    0.05
   4  -4  -5    0.31    0.04
  -4   4   5    0.23    0.05
  -4   4   5    0.26    0.04
  -4   4   5    0.30    0.06
  -4   4   5    0.35    0.05
   3  -4  -5    0.12    0.03
   3  -4  -5    0.10    0.05
   3  -4  -5    0.12    0.03
   3  -4  -5    0.07    0.03
   3  -4  -5    0.12    0.04
   3  -4  -5    0.05    0.04
   3  -4  -5    0.12    0.03
   3  -4  -5    0.09    0.03
  -3   4   5    0.15    0.04
  -3   4   5    0.08    0.05
  -3   4   5    0.11    0.03
  -3   4   5    0.10    0.04
   2  -4  -5    0.05    0.03
   2  -4  -5    0.09    0.03
   2  -4  -5    0.11    0.03
   2  -4  -5    0.08    0.03
   2  -4  -5    0.18    0.03
   2  -4  -5    0.08    0.02
   2  -4  -5    0.11    0.03
   2  -4  -5    0.16    0.02
   2  -4  -5    0.06    0.04
  -2   4   5    0.08    0.05
  -2   4   5    0.13    0.03
  -2   4   5    0.12    0.04
  -2   4   5    0.09    0.03
   1  -4  -5   -0.02    0.03
   1  -4  -5   -0.02    0.04
   1  -4  -5    0.03    0.03
   1  -4  -5   -0.04    0.02
   1  -4  -5    0.01    0.02
   1  -4  -5   -0.08    0.04
   1  -4  -5    0.02    0.02
  -1   4   5    0.02    0.04
  -1   4   5    0.02    0.02
  -1   4   5    0.00    0.02
  -1   4   5   -0.01    0.04
   0  -4  -5   14.93    0.44
   0  -4  -5   16.21    0.64
   0  -4  -5   14.89    0.47
   0  -4  -5   15.25    0.45
   0  -4  -5   15.59    0.63
   0  -4  -5   15.15    0.48
   0   4   5   15.36    0.48
   0   4   5   15.19    0.45
   0   4   5   14.85    0.44
   0   4   5   13.13    0.63
   0   4   5   15.15    0.47
   0   4   5   15.21    0.43
   0   4   5   15.50    0.44
   0   4   5   15.77    0.64
  -1  -4  -5    0.03    0.02
  -1  -4  -5   -0.01    0.04
  -1  -4  -5    0.03    0.04
  -1  -4  -5    0.01    0.02
  -1  -4  -5    0.09    0.03
  -1  -4  -5    0.03    0.03
   1   4   5    0.07    0.01
   1   4   5    0.04    0.04
   1   4   5    0.00    0.02
   1   4   5    0.00    0.03
   1   4   5    0.07    0.03
   1   4   5    0.04    0.04
   1   4   5    0.04    0.02
  -2  -4  -5    3.54    0.13
  -2  -4  -5    3.55    0.12
  -2  -4  -5    3.56    0.14
  -2  -4  -5    3.40    0.18
  -2  -4  -5    3.73    0.13
  -2  -4  -5    3.64    0.18
   2   4   5    3.67    0.13
   2   4   5    3.54    0.14
   2   4   5    3.17    0.18
   2   4   5    3.42    0.12
   2   4   5    3.53    0.18
  -3  -4  -5    0.21    0.05
  -3  -4  -5    0.14    0.03
  -3  -4  -5    0.17    0.03
  -3  -4  -5    0.16    0.05
  -3  -4  -5    0.21    0.03
  -3  -4  -5    0.18    0.03
   3   4   5    0.17    0.05
   3   4   5    0.13    0.04
   3   4   5    0.12    0.03
   3   4   5    0.20    0.03
   3   4   5    0.21    0.05
  -4  -4  -5   10.45    0.31
  -4  -4  -5    8.40    0.41
  -4  -4  -5    9.53    0.30
  -4  -4  -5    9.38    0.42
  -4  -4  -5    9.41    0.30
   4   4   5    9.81    0.30
   4   4   5    9.66    0.31
   4   4   5    9.39    0.29
   4   4   5    9.77    0.32
   4   4   5    9.49    0.42
   4   4   5    9.72    0.42
  -5  -4  -5    0.44    0.05
  -5  -4  -5    0.44    0.07
  -5  -4  -5    0.52    0.05
  -5  -4  -5    0.66    0.08
   5   4   5    0.43    0.07
   5   4   5    0.46    0.04
   5   4   5    0.45    0.04
   5   4   5    0.37    0.05
   5   4   5    0.39    0.05
  -6  -4  -5    0.59    0.05
  -6  -4  -5    0.60    0.05
  -6  -4  -5    0.62    0.08
  -6  -4  -5    0.54    0.07
   6   4   5    0.56    0.06
   6   4   5    0.74    0.09
   6   4   5    0.61    0.05
   6   4   5    0.53    0.06
   6   4   5    0.55    0.06
  -7  -4  -5    2.00    0.14
  -7  -4  -5    1.82    0.14
  -7  -4  -5    2.07    0.10
   7   4   5    2.02    0.12
   7   4   5    1.93    0.09
   7   4   5    1.87    0.14
   7   4   5    1.84    0.11
  -8  -4  -5    2.46    0.12
  -8  -4  -5    2.56    0.17
  -8  -4  -5    2.55    0.16
   8   4   5    2.70    0.11
   8   4   5    2.39    0.16
   8   4   5    2.59    0.14
   8   4   5    2.64    0.14
  -9  -4  -5    0.22    0.06
  -9  -4  -5    0.22    0.05
   9   4   5    0.07    0.06
   9   4   5    0.34    0.07
 -10  -4  -5    3.41    0.20
 -10  -4  -5    3.46    0.16
  10   4   5    3.41    0.18
  10   4   5    3.41    0.19
 -11  -4  -5    0.09    0.06
 -11  -4  -5    0.03    0.06
  11   4   5   -0.02    0.06
  11   4   5    0.02    0.08
   8  -5  -5    0.21    0.07
   8  -5  -5    0.15    0.07
  -8   5   5    0.23    0.08
   7  -5  -5   -0.04    0.05
   7  -5  -5   -0.01    0.05
   7  -5  -5    0.00    0.07
  -7   5   5    0.03    0.05
  -7   5   5    0.11    0.05
  -7   5   5    0.03    0.06
   6  -5  -5    0.21    0.06
   6  -5  -5    0.38    0.06
   6  -5  -5    0.24    0.07
  -6   5   5    0.10    0.06
  -6   5   5    0.14    0.05
  -6   5   5    0.29    0.06
   5  -5  -5    1.90    0.12
   5  -5  -5    1.74    0.11
  -5   5   5    1.76    0.13
  -5   5   5    1.66    0.10
  -5   5   5    1.92    0.14
   4  -5  -5    2.28    0.15
   4  -5  -5    1.97    0.13
   4  -5  -5    2.07    0.12
  -4   5   5    2.04    0.11
  -4   5   5    2.40    0.16
  -4   5   5    2.38    0.13
  -4   5   5    2.34    0.14
   3  -5  -5    6.07    0.29
   3  -5  -5    5.92    0.20
   3  -5  -5    5.68    0.22
   3  -5  -5    5.81    0.20
   3  -5  -5    5.82    0.20
  -3   5   5    6.43    0.29
  -3   5   5    5.68    0.29
  -3   5   5    5.87    0.22
  -3   5   5    5.78    0.20
   2  -5  -5    4.55    0.18
   2  -5  -5    4.35    0.24
   2  -5  -5    4.58    0.17
   2  -5  -5    4.66    0.16
   2  -5  -5    4.63    0.17
   2  -5  -5    4.65    0.16
  -2   5   5    4.71    0.24
  -2   5   5    4.86    0.18
  -2   5   5    5.02    0.24
  -2   5   5    4.87    0.16
   1  -5  -5    7.15    0.24
   1  -5  -5    7.10    0.24
   1  -5  -5    7.30    0.33
  -1   5   5    6.63    0.33
  -1   5   5    7.40    0.33
  -1   5   5    7.20    0.24
  -1   5   5    7.08    0.22
   0  -5  -5    0.04    0.03
   0  -5  -5    0.02    0.04
   0  -5  -5    0.01    0.03
   0  -5  -5   -0.01    0.02
   0   5   5    0.04    0.02
   0   5   5    0.00    0.02
   0   5   5    0.00    0.04
   0   5   5   -0.02    0.02
   0   5   5    0.03    0.05
  -1  -5  -5    4.62    0.24
  -1  -5  -5    5.15    0.17
  -1  -5  -5    4.87    0.18
  -1  -5  -5    4.95    0.25
  -1  -5  -5    5.20    0.18
   1   5   5    5.11    0.24
   1   5   5    5.08    0.16
   1   5   5    4.06    0.24
   1   5   5    5.04    0.18
   1   5   5    5.01    0.17
  -2  -5  -5    0.64    0.05
  -2  -5  -5    0.81    0.09
  -2  -5  -5    0.52    0.05
  -2  -5  -5    0.60    0.05
  -2  -5  -5    0.55    0.07
   2   5   5    0.75    0.06
   2   5   5    0.64    0.05
   2   5   5    0.50    0.07
   2   5   5    0.78    0.08
   2   5   5    0.64    0.06
  -3  -5  -5   31.17    1.26
  -3  -5  -5   30.63    0.91
  -3  -5  -5   31.74    1.25
   3   5   5   32.43    1.25
   3   5   5   30.04    0.95
   3   5   5   30.26    0.88
   3   5   5   28.71    1.25
   3   5   5   31.35    0.91
  -4  -5  -5   31.44    0.92
  -4  -5  -5   31.39    0.93
  -4  -5  -5   30.11    1.27
  -4  -5  -5   29.44    1.27
   4   5   5   32.99    0.92
   4   5   5   29.90    1.27
   4   5   5   31.87    0.96
   4   5   5   31.83    0.89
  -5  -5  -5   13.51    0.42
  -5  -5  -5   14.14    0.59
  -5  -5  -5   13.18    0.58
   5   5   5   13.33    0.44
   5   5   5   12.69    0.58
   5   5   5   13.97    0.42
   5   5   5   13.66    0.41
   5   5   5   13.64    0.44
  -6  -5  -5    0.48    0.04
  -6  -5  -5    0.42    0.07
  -6  -5  -5    0.45    0.07
  -6  -5  -5    0.48    0.05
   6   5   5    0.52    0.08
   6   5   5    0.39    0.05
   6   5   5    0.50    0.06
   6   5   5    0.46    0.04
  -7  -5  -5    0.06    0.06
  -7  -5  -5   -0.02    0.05
  -7  -5  -5    0.04    0.04
   7   5   5    0.06    0.05
   7   5   5   -0.02    0.05
   7   5   5    0.09    0.05
   7   5   5    0.08    0.03
  -8  -5  -5    0.08    0.04
  -8  -5  -5    0.03    0.06
   8   5   5    0.05    0.05
   8   5   5    0.02    0.05
   8   5   5    0.02    0.06
  -9  -5  -5   -0.04    0.05
  -9  -5  -5   -0.06    0.06
   9   5   5   -0.02    0.05
   9   5   5   -0.08    0.05
 -10  -5  -5    3.99    0.23
 -10  -5  -5    4.39    0.19
  10   5   5    4.39    0.21
  10   5   5    4.40    0.20
 -11  -5  -5    0.19    0.06
 -11  -5  -5    0.06    0.06
  11   5   5    0.12    0.07
  11   5   5    0.16    0.07
   7  -6  -5    0.38    0.08
   7  -6  -5    0.28    0.07
  -7   6   5    0.38    0.08
  -7   6   5    0.44    0.08
   6  -6  -5    0.09    0.06
   6  -6  -5    0.02    0.05
   6  -6  -5    0.13    0.07
  -6   6   5    0.15    0.05
  -6   6   5    0.14    0.07
  -6   6   5    0.09    0.06
   5  -6  -5    0.56    0.07
   5  -6  -5    0.55    0.08
   5  -6  -5    0.57    0.09
  -5   6   5    0.68    0.09
  -5   6   5    0.52    0.07
  -5   6   5    0.61    0.07
   4  -6  -5    0.08    0.06
   4  -6  -5    0.06    0.05
   4  -6  -5   -0.04    0.06
   4  -6  -5    0.01    0.05
  -4   6   5    0.02    0.04
  -4   6   5    0.01    0.06
  -4   6   5    0.08    0.05
   3  -6  -5   16.10    0.49
   3  -6  -5   15.76    0.52
   3  -6  -5   16.01    0.69
   3  -6  -5   16.22    0.52
   3  -6  -5   16.44    0.49
  -3   6   5   16.24    0.54
  -3   6   5   16.05    0.70
  -3   6   5   16.97    0.69
  -3   6   5   15.89    0.47
   2  -6  -5    0.04    0.04
   2  -6  -5    0.05    0.02
   2  -6  -5    0.06    0.05
   2  -6  -5    0.05    0.03
   2  -6  -5    0.03    0.05
  -2   6   5    0.07    0.05
  -2   6   5   -0.04    0.03
  -2   6   5    0.05    0.05
   1  -6  -5    2.40    0.11
   1  -6  -5    2.44    0.16
   1  -6  -5    2.42    0.10
   1  -6  -5    2.12    0.12
  -1   6   5    2.22    0.10
  -1   6   5    2.41    0.16
  -1   6   5    2.20    0.10
  -1   6   5    2.43    0.15
   0  -6  -5    1.19    0.07
   0  -6  -5    1.04    0.07
   0  -6  -5    1.24    0.08
   0  -6  -5    1.24    0.11
   0   6   5    1.12    0.07
   0   6   5    1.09    0.07
   0   6   5    1.08    0.11
   0   6   5    1.21    0.11
  -1  -6  -5    1.41    0.12
  -1  -6  -5    1.32    0.07
  -1  -6  -5    1.16    0.09
  -1  -6  -5    1.33    0.08
   1   6   5    1.41    0.12
   1   6   5    1.32    0.07
   1   6   5    1.39    0.11
   1   6   5    1.44    0.08
   1   6   5    1.17    0.08
  -2  -6  -5    0.20    0.04
  -2  -6  -5    0.25    0.06
   2   6   5    0.24    0.04
   2   6   5    0.27    0.04
   2   6   5    0.24    0.06
   2   6   5    0.22    0.04
  -3  -6  -5   -0.02    0.04
  -3  -6  -5    0.04    0.03
  -3  -6  -5   -0.08    0.05
   3   6   5    0.06    0.03
   3   6   5    0.07    0.03
   3   6   5    0.01    0.05
  -4  -6  -5   10.21    0.32
  -4  -6  -5   10.41    0.45
  -4  -6  -5    9.72    0.45
   4   6   5   10.15    0.30
   4   6   5   10.09    0.34
   4   6   5   10.34    0.32
   4   6   5   10.19    0.32
   4   6   5    9.04    0.45
  -5  -6  -5    9.31    0.29
  -5  -6  -5    9.68    0.44
  -5  -6  -5    9.07    0.43
  -5  -6  -5    9.48    0.30
   5   6   5    9.23    0.43
   5   6   5    9.67    0.30
   5   6   5    9.86    0.29
   5   6   5    9.63    0.30
   5   6   5    9.11    0.33
  -6  -6  -5    2.08    0.10
  -6  -6  -5    2.10    0.15
  -6  -6  -5    2.02    0.15
   6   6   5    2.09    0.09
   6   6   5    2.14    0.09
   6   6   5    2.11    0.12
   6   6   5    2.09    0.11
   6   6   5    2.04    0.16
  -7  -6  -5    6.31    0.31
  -7  -6  -5    6.33    0.21
  -7  -6  -5    6.73    0.32
  -7  -6  -5    6.65    0.23
   7   6   5    6.54    0.23
   7   6   5    6.33    0.25
   7   6   5    6.32    0.32
   7   6   5    6.50    0.21
  -8  -6  -5    1.09    0.12
  -8  -6  -5    1.15    0.10
   8   6   5    0.96    0.12
   8   6   5    0.74    0.08
   8   6   5    0.97    0.09
  -9  -6  -5    3.73    0.17
  -9  -6  -5    3.51    0.21
   9   6   5    3.45    0.18
   9   6   5    3.58    0.18
 -10  -6  -5    0.69    0.08
 -10  -6  -5    0.63    0.09
  10   6   5    0.52    0.08
  10   6   5    0.61    0.09
 -11  -6  -5   -0.02    0.06
 -11  -6  -5    0.09    0.06
  11   6   5    0.07    0.07
  11   6   5   -0.02    0.07
   6  -7  -5    0.04    0.06
   6  -7  -5   -0.05    0.06
  -6   7   5   -0.07    0.07
  -6   7   5    0.11    0.07
   5  -7  -5    0.04    0.05
   5  -7  -5   -0.09    0.05
  -5   7   5    0.05    0.07
  -5   7   5   -0.02    0.04
  -5   7   5    0.00    0.05
   4  -7  -5    1.58    0.13
   4  -7  -5    1.39    0.11
  -4   7   5    1.83    0.13
  -4   7   5    1.61    0.10
  -4   7   5    1.49    0.15
   3  -7  -5    0.17    0.05
   3  -7  -5    0.04    0.07
   3  -7  -5    0.04    0.05
  -3   7   5    0.08    0.05
  -3   7   5    0.09    0.07
  -3   7   5    0.11    0.04
   2  -7  -5    4.89    0.20
   2  -7  -5    4.94    0.27
  -2   7   5    4.92    0.26
  -2   7   5    4.75    0.18
  -2   7   5    4.86    0.27
   1  -7  -5    4.05    0.23
   1  -7  -5    4.01    0.17
   1  -7  -5    4.25    0.15
  -1   7   5    4.22    0.16
  -1   7   5    3.95    0.24
  -1   7   5    4.10    0.15
   0  -7  -5   -0.02    0.04
   0  -7  -5    0.03    0.04
   0  -7  -5    0.12    0.07
   0   7   5    0.02    0.03
   0   7   5    0.07    0.06
   0   7   5    0.00    0.03
  -1  -7  -5   15.67    0.70
  -1  -7  -5   15.93    0.51
  -1  -7  -5   16.39    0.53
   1   7   5   16.41    0.52
   1   7   5   17.35    0.71
   1   7   5   16.17    0.47
   1   7   5   16.48    0.49
  -2  -7  -5   30.46    0.89
  -2  -7  -5   27.12    1.22
   2   7   5   30.55    1.23
   2   7   5   30.08    0.83
   2   7   5   29.83    0.85
   2   7   5   29.80    0.92
  -3  -7  -5   -0.03    0.06
  -3  -7  -5    0.17    0.04
   3   7   5   -0.02    0.06
   3   7   5   -0.08    0.04
   3   7   5   -0.06    0.04
   3   7   5    0.06    0.04
  -4  -7  -5   11.58    0.37
  -4  -7  -5   10.99    0.52
   4   7   5   11.37    0.36
   4   7   5   11.80    0.39
   4   7   5   11.71    0.52
  -5  -7  -5    1.13    0.08
  -5  -7  -5    1.10    0.13
  -5  -7  -5    1.24    0.06
  -5  -7  -5    1.22    0.12
   5   7   5    1.29    0.09
   5   7   5    1.19    0.06
   5   7   5    1.20    0.13
   5   7   5    1.24    0.10
  -6  -7  -5   16.66    0.51
  -6  -7  -5   15.67    0.72
  -6  -7  -5   16.34    0.51
  -6  -7  -5   17.17    0.71
   6   7   5   16.79    0.50
   6   7   5   17.27    0.51
   6   7   5   15.78    0.72
   6   7   5   16.93    0.55
  -7  -7  -5    1.27    0.14
  -7  -7  -5    1.20    0.07
  -7  -7  -5    1.04    0.09
  -7  -7  -5    1.30    0.13
   7   7   5    1.17    0.08
   7   7   5    0.95    0.09
   7   7   5    1.19    0.10
   7   7   5    1.29    0.14
  -8  -7  -5    0.68    0.10
  -8  -7  -5    0.54    0.07
   8   7   5    0.58    0.08
   8   7   5    0.65    0.08
   8   7   5    0.69    0.10
  -9  -7  -5    2.37    0.15
  -9  -7  -5    2.60    0.19
   9   7   5    2.43    0.15
   9   7   5    2.39    0.16
 -10  -7  -5    2.11    0.14
 -10  -7  -5    1.77    0.16
  10   7   5    1.98    0.14
  10   7   5    1.61    0.14
 -11  -7  -5    3.33    0.18
 -11  -7  -5    3.17    0.21
  11   7   5    3.62    0.19
  11   7   5    3.66    0.20
   5  -8  -5    2.04    0.15
   5  -8  -5    2.13    0.14
  -5   8   5    1.69    0.17
  -5   8   5    2.01    0.15
   4  -8  -5    0.04    0.05
   4  -8  -5    0.01    0.06
  -4   8   5    0.01    0.07
  -4   8   5   -0.12    0.05
  -4   8   5   -0.01    0.04
   3  -8  -5    0.10    0.08
   3  -8  -5   -0.01    0.05
  -3   8   5    0.12    0.08
  -3   8   5    0.10    0.04
  -3   8   5    0.01    0.05
   2  -8  -5    0.35    0.07
   2  -8  -5    0.24    0.08
  -2   8   5    0.35    0.05
  -2   8   5    0.37    0.09
   1  -8  -5    0.05    0.07
   1  -8  -5    0.08    0.05
  -1   8   5    0.05    0.04
  -1   8   5    0.09    0.03
  -1   8   5    0.05    0.07
   0  -8  -5    5.84    0.23
   0  -8  -5    6.20    0.32
   0  -8  -5    6.00    0.22
   0   8   5    6.19    0.21
   0   8   5    6.01    0.32
   0   8   5    5.98    0.21
  -1  -8  -5   11.12    0.37
  -1  -8  -5   11.44    0.52
   1   8   5   11.00    0.35
   1   8   5   11.08    0.34
   1   8   5   10.53    0.51
   1   8   5   11.26    0.37
  -2  -8  -5   -0.08    0.07
  -2  -8  -5    0.04    0.04
   2   8   5    0.11    0.04
   2   8   5    0.02    0.04
   2   8   5    0.00    0.07
   2   8   5    0.03    0.04
  -3  -8  -5    0.30    0.08
  -3  -8  -5    0.31    0.05
   3   8   5    0.27    0.05
   3   8   5    0.28    0.05
   3   8   5    0.27    0.05
   3   8   5    0.21    0.08
  -4  -8  -5    3.31    0.14
  -4  -8  -5    3.41    0.21
   4   8   5    3.26    0.21
   4   8   5    3.35    0.14
   4   8   5    3.16    0.15
   4   8   5    3.30    0.14
  -5  -8  -5    0.00    0.03
  -5  -8  -5    0.07    0.03
  -5  -8  -5    0.04    0.08
   5   8   5    0.02    0.04
   5   8   5    0.04    0.04
   5   8   5   -0.03    0.07
  -6  -8  -5    0.61    0.10
  -6  -8  -5    0.78    0.07
   6   8   5    0.59    0.07
   6   8   5    0.56    0.10
   6   8   5    0.65    0.07
  -7  -8  -5    1.31    0.08
  -7  -8  -5    1.44    0.15
   7   8   5    0.98    0.09
   7   8   5    1.37    0.15
   7   8   5    1.05    0.09
  -8  -8  -5    4.36    0.25
  -8  -8  -5    4.17    0.19
   8   8   5    4.63    0.19
   8   8   5    4.26    0.25
   8   8   5    3.83    0.20
  -9  -8  -5    0.02    0.07
  -9  -8  -5   -0.09    0.05
   9   8   5    0.04    0.06
   9   8   5   -0.10    0.06
 -10  -8  -5    0.15    0.08
 -10  -8  -5    0.05    0.06
  10   8   5    0.09    0.07
  10   8   5    0.19    0.07
 -11  -8  -5    0.09    0.07
 -11  -8  -5    0.16    0.08
  11   8   5    0.17    0.07
  11   8   5    0.15    0.08
   4  -9  -5    1.39    0.12
  -4   9   5    1.33    0.12
  -4   9   5    1.55    0.18
   3  -9  -5    0.18    0.07
  -3   9   5    0.15    0.09
  -3   9   5    0.20    0.06
  -3   9   5    0.14    0.05
   2  -9  -5    1.22    0.16
   2  -9  -5    1.14    0.10
  -2   9   5    1.36    0.16
  -2   9   5    1.42    0.10
   1  -9  -5    0.84    0.12
   1  -9  -5    0.79    0.09
  -1   9   5    0.77    0.12
  -1   9   5    0.77    0.07
  -1   9   5    0.71    0.06
   0  -9  -5    0.32    0.06
   0  -9  -5    0.28    0.09
   0   9   5    0.23    0.05
   0   9   5    0.29    0.04
   0   9   5    0.19    0.08
  -1  -9  -5    1.06    0.13
  -1  -9  -5    1.29    0.11
   1   9   5    1.19    0.15
   1   9   5    1.31    0.09
   1   9   5    1.31    0.09
  -2  -9  -5    0.02    0.08
  -2  -9  -5    0.14    0.05
   2   9   5    0.01    0.07
   2   9   5    0.13    0.05
   2   9   5    0.07    0.04
   2   9   5    0.11    0.04
  -3  -9  -5    7.05    0.26
  -3  -9  -5    7.35    0.37
   3   9   5    7.05    0.37
   3   9   5    7.25    0.24
   3   9   5    6.99    0.25
   3   9   5    7.14    0.26
  -4  -9  -5    0.22    0.08
  -4  -9  -5    0.26    0.05
   4   9   5    0.24    0.05
   4   9   5    0.15    0.08
   4   9   5    0.11    0.05
   4   9   5    0.23    0.05
  -5  -9  -5    2.53    0.12
  -5  -9  -5    2.54    0.19
   5   9   5    2.59    0.14
   5   9   5    2.53    0.13
   5   9   5    2.39    0.19
   5   9   5    2.58    0.13
  -6  -9  -5    0.72    0.12
  -6  -9  -5    0.79    0.07
   6   9   5    0.77    0.08
   6   9   5    0.76    0.07
   6   9   5    0.60    0.11
  -7  -9  -5    3.39    0.13
  -7  -9  -5    3.06    0.22
   7   9   5    3.36    0.22
   7   9   5    3.45    0.17
   7   9   5    3.46    0.16
  -8  -9  -5   12.33    0.41
  -8  -9  -5   11.83    0.56
   8   9   5   12.29    0.40
   8   9   5   11.76    0.43
  -9  -9  -5    0.07    0.06
  -9  -9  -5    0.05    0.08
   9   9   5    0.03    0.07
   9   9   5    0.03    0.06
 -10  -9  -5    1.65    0.14
 -10  -9  -5    1.19    0.13
  10   9   5    1.21    0.11
  10   9   5    1.14    0.11
   3 -10  -5    0.07    0.07
  -3  10   5    0.00    0.06
   2 -10  -5    2.46    0.22
   2 -10  -5    2.25    0.16
  -2  10   5    2.56    0.22
   1 -10  -5    0.01    0.06
   1 -10  -5   -0.05    0.08
  -1  10   5    0.03    0.05
  -1  10   5    0.00    0.08
   0 -10  -5    3.53    0.26
   0 -10  -5    3.91    0.19
   0  10   5    3.78    0.26
   0  10   5    3.69    0.16
  -1 -10  -5   -0.04    0.05
  -1 -10  -5    0.01    0.08
   1  10   5    0.05    0.08
   1  10   5   -0.01    0.04
   1  10   5   -0.03    0.03
  -2 -10  -5    0.07    0.05
  -2 -10  -5    0.03    0.08
   2  10   5    0.05    0.04
   2  10   5    0.04    0.08
   2  10   5    0.03    0.04
  -3 -10  -5    0.02    0.04
  -3 -10  -5   -0.05    0.07
   3  10   5    0.03    0.07
   3  10   5   -0.01    0.04
   3  10   5   -0.02    0.04
   3  10   5    0.01    0.04
  -4 -10  -5    0.42    0.06
  -4 -10  -5    0.44    0.10
   4  10   5    0.37    0.06
   4  10   5    0.32    0.06
   4  10   5    0.32    0.06
   4  10   5    0.50    0.10
  -5 -10  -5    0.55    0.06
  -5 -10  -5    0.48    0.10
   5  10   5    0.49    0.10
   5  10   5    0.32    0.06
   5  10   5    0.47    0.06
   5  10   5    0.42    0.07
  -6 -10  -5    0.16    0.04
  -6 -10  -5    0.06    0.08
   6  10   5    0.05    0.05
   6  10   5    0.03    0.05
   6  10   5    0.09    0.05
   6  10   5    0.11    0.08
  -7 -10  -5    0.72    0.12
   7  10   5    0.72    0.12
   7  10   5    0.78    0.08
   7  10   5    0.73    0.09
  -8 -10  -5    4.81    0.30
  -8 -10  -5    5.40    0.23
   8  10   5    5.38    0.22
   8  10   5    5.10    0.24
  -9 -10  -5    0.54    0.09
  -9 -10  -5    0.59    0.11
   9  10   5    0.68    0.09
   9  10   5    0.49    0.09
 -10 -10  -5    4.08    0.26
 -10 -10  -5    4.03    0.20
  10  10   5    3.96    0.21
  10  10   5    3.44    0.21
   1 -11  -5    0.40    0.11
   1 -11  -5    0.17    0.07
  -1  11   5    0.34    0.11
   0 -11  -5    1.19    0.11
   0 -11  -5    1.22    0.16
   0  11   5    1.32    0.16
  -1 -11  -5    1.84    0.14
  -1 -11  -5    1.66    0.21
   1  11   5    1.69    0.20
  -2 -11  -5    0.12    0.06
  -2 -11  -5    0.17    0.10
   2  11   5    0.09    0.05
   2  11   5    0.18    0.05
   2  11   5    0.12    0.10
  -3 -11  -5    0.17    0.10
  -3 -11  -5    0.15    0.06
   3  11   5    0.06    0.05
   3  11   5    0.10    0.09
   3  11   5    0.08    0.05
  -4 -11  -5    0.34    0.11
  -4 -11  -5    0.59    0.07
   4  11   5    0.49    0.07
   4  11   5    0.43    0.11
   4  11   5    0.39    0.07
   4  11   5    0.42    0.06
  -5 -11  -5    3.58    0.25
  -5 -11  -5    3.23    0.16
   5  11   5    3.01    0.17
   5  11   5    3.48    0.17
   5  11   5    3.45    0.16
   5  11   5    3.17    0.24
  -6 -11  -5    1.41    0.11
  -6 -11  -5    1.57    0.20
   6  11   5    1.24    0.16
   6  11   5    1.60    0.12
   6  11   5    1.55    0.11
   6  11   5    1.15    0.11
  -7 -11  -5    0.43    0.11
   7  11   5    0.46    0.08
   7  11   5    0.48    0.07
   7  11   5    0.41    0.07
   7  11   5    0.48    0.11
  -8 -11  -5    1.10    0.11
  -8 -11  -5    1.24    0.15
   8  11   5    1.06    0.10
   8  11   5    0.96    0.11
  -9 -11  -5    5.07    0.24
  -9 -11  -5    4.73    0.31
   9  11   5    5.02    0.22
   9  11   5    5.13    0.25
  -1 -12  -5   -0.03    0.06
  -1 -12  -5   -0.03    0.10
  -2 -12  -5    3.33    0.18
  -2 -12  -5    3.37    0.27
   2  12   5    2.81    0.26
  -3 -12  -5    2.52    0.24
  -3 -12  -5    2.43    0.16
   3  12   5    2.25    0.14
   3  12   5    2.62    0.24
  -4 -12  -5    0.28    0.07
  -4 -12  -5    0.33    0.12
   4  12   5    0.37    0.07
   4  12   5    0.30    0.11
   4  12   5    0.25    0.06
  -5 -12  -5    0.46    0.07
  -5 -12  -5    0.42    0.12
   5  12   5    0.57    0.12
   5  12   5    0.42    0.08
   5  12   5    0.46    0.08
  -6 -12  -5   -0.03    0.10
   6  12   5   -0.11    0.08
   6  12   5    0.07    0.06
   6  12   5    0.01    0.06
   7  12   5    1.66    0.15
   7  12   5    1.86    0.14
   5   9  -6   -0.01    0.05
  -5  -9   6    0.08    0.06
  -5  -9   6    0.06    0.08
  -5  -9   6   -0.03    0.05
  -5  -9   6   -0.01    0.06
   4   9  -6    0.63    0.08
  -4  -9   6    0.62    0.11
  -4  -9   6    0.59    0.08
  -4  -9   6    0.54    0.08
   3   9  -6    1.02    0.10
   3   9  -6    0.82    0.13
  -3  -9   6    1.04    0.10
  -3  -9   6    0.87    0.13
  -3  -9   6    0.86    0.09
   2   9  -6    1.20    0.10
   2   9  -6    1.43    0.17
  -2  -9   6    1.11    0.15
  -2  -9   6    1.31    0.11
   1   9  -6    0.20    0.07
   1   9  -6    0.23    0.09
  -1  -9   6    0.33    0.07
  -1  -9   6    0.20    0.10
   0   9  -6    0.87    0.10
   0   9  -6    1.10    0.15
   0  -9   6    0.85    0.14
   0  -9   6    0.93    0.10
  -7  -8   6    0.30    0.07
  -7  -8   6    0.40    0.07
  -7  -8   6    0.33    0.08
   6   8  -6    0.24    0.05
  -6  -8   6    0.20    0.08
  -6  -8   6    0.25    0.06
  -6  -8   6    0.22    0.06
  -6  -8   6    0.28    0.06
   5   8  -6   -0.10    0.04
  -5  -8   6   -0.04    0.05
  -5  -8   6    0.01    0.05
  -5  -8   6   -0.02    0.05
  -5  -8   6    0.03    0.07
   4   8  -6    0.80    0.08
   4   8  -6    0.63    0.11
  -4  -8   6    0.51    0.10
  -4  -8   6    0.79    0.08
  -4  -8   6    0.65    0.08
  -4  -8   6    0.93    0.08
   3   8  -6    1.21    0.11
   3   8  -6    1.46    0.16
  -3  -8   6    1.41    0.16
  -3  -8   6    1.56    0.12
  -3  -8   6    1.66    0.12
  -3  -8   6    1.58    0.11
   2   8  -6    0.16    0.08
   2   8  -6    0.03    0.05
  -2  -8   6    0.15    0.09
  -2  -8   6    0.04    0.06
   1   8  -6    3.42    0.18
   1   8  -6    3.67    0.25
  -1  -8   6    3.49    0.25
  -1  -8   6    3.65    0.19
   0   8  -6    0.12    0.06
   0   8  -6    0.12    0.08
   0  -8   6    0.14    0.09
   0  -8   6    0.02    0.06
  -1   8  -6    0.71    0.12
  -1   8  -6    0.64    0.07
  -1   8  -6    0.62    0.09
   1  -8   6    0.60    0.08
   1  -8   6    0.72    0.13
  -2   8  -6    4.63    0.30
  -2   8  -6    4.72    0.19
  -2   8  -6    4.73    0.22
   2  -8   6    5.07    0.32
   2  -8   6    5.24    0.23
   8   7  -6    2.94    0.19
  -8  -7   6    2.94    0.18
  -8  -7   6    2.88    0.17
  -8  -7   6    2.78    0.18
   7   7  -6    7.88    0.31
  -7  -7   6    6.79    0.29
  -7  -7   6    6.84    0.35
  -7  -7   6    7.82    0.28
   6   7  -6   -0.04    0.03
  -6  -7   6   -0.08    0.06
  -6  -7   6    0.01    0.05
  -6  -7   6    0.03    0.05
  -6  -7   6   -0.03    0.04
   5   7  -6    0.15    0.04
  -5  -7   6    0.14    0.05
  -5  -7   6    0.09    0.05
  -5  -7   6    0.12    0.06
  -5  -7   6    0.16    0.07
   4   7  -6    3.32    0.21
   4   7  -6    3.22    0.15
  -4  -7   6    3.42    0.16
  -4  -7   6    3.25    0.15
  -4  -7   6    3.31    0.21
  -4  -7   6    3.03    0.16
   3   7  -6   -0.04    0.05
   3   7  -6    0.05    0.07
  -3  -7   6   -0.09    0.04
  -3  -7   6   -0.05    0.07
  -3  -7   6    0.05    0.04
  -3  -7   6    0.01    0.04
   2   7  -6    8.61    0.44
   2   7  -6    8.95    0.31
  -2  -7   6    9.10    0.29
  -2  -7   6    9.10    0.32
  -2  -7   6    8.85    0.44
   1   7  -6    1.06    0.09
   1   7  -6    1.23    0.15
   1   7  -6    1.12    0.07
  -1  -7   6    1.05    0.13
  -1  -7   6    1.15    0.09
  -1  -7   6    1.05    0.08
   0   7  -6    0.04    0.08
   0   7  -6    0.00    0.06
   0   7  -6    0.15    0.04
   0  -7   6    0.15    0.06
   0  -7   6   -0.04    0.08
  -1   7  -6    8.49    0.27
  -1   7  -6    8.66    0.31
  -1   7  -6    8.29    0.43
   1  -7   6    8.55    0.43
   1  -7   6    8.39    0.31
  -2   7  -6    0.08    0.05
  -2   7  -6   -0.05    0.05
  -2   7  -6    0.04    0.08
   2  -7   6    0.00    0.08
   2  -7   6    0.00    0.05
  -3   7  -6    4.67    0.30
  -3   7  -6    5.16    0.22
  -3   7  -6    4.81    0.19
   3  -7   6    4.86    0.22
   3  -7   6    4.73    0.30
  -4   7  -6    2.09    0.15
  -4   7  -6    2.07    0.15
  -4   7  -6    2.00    0.13
  -4   7  -6    2.06    0.20
   4  -7   6    2.00    0.15
   4  -7   6    1.99    0.21
   9   6  -6   -0.05    0.08
   8   6  -6    1.17    0.11
  -8  -6   6    1.31    0.11
  -8  -6   6    1.26    0.11
  -8  -6   6    1.38    0.12
   7   6  -6    0.29    0.07
  -7  -6   6    0.16    0.06
  -7  -6   6    0.17    0.06
  -7  -6   6    0.14    0.06
   6   6  -6    0.42    0.05
   6   6  -6    0.42    0.07
  -6  -6   6    0.40    0.07
  -6  -6   6    0.42    0.05
  -6  -6   6    0.45    0.08
  -6  -6   6    0.38    0.06
   5   6  -6    0.30    0.07
   5   6  -6    0.25    0.05
   5   6  -6    0.23    0.06
  -5  -6   6    0.36    0.06
  -5  -6   6    0.19    0.06
  -5  -6   6    0.28    0.05
  -5  -6   6    0.33    0.07
   4   6  -6    2.64    0.18
   4   6  -6    2.61    0.13
  -4  -6   6    2.59    0.18
  -4  -6   6    2.70    0.13
  -4  -6   6    2.61    0.13
  -4  -6   6    2.59    0.14
   3   6  -6   10.05    0.29
   3   6  -6   10.39    0.34
   3   6  -6   10.78    0.48
  -3  -6   6   10.08    0.33
  -3  -6   6   10.46    0.34
  -3  -6   6   10.14    0.35
  -3  -6   6   10.32    0.48
   2   6  -6    4.23    0.14
   2   6  -6    4.55    0.18
   2   6  -6    4.46    0.25
  -2  -6   6    4.46    0.19
  -2  -6   6    4.49    0.26
  -2  -6   6    4.06    0.16
   1   6  -6   33.42    0.92
   1   6  -6   33.69    0.99
   1   6  -6   32.97    1.39
  -1  -6   6   34.03    0.99
  -1  -6   6   33.84    0.96
  -1  -6   6   33.70    1.39
   0   6  -6    6.01    0.19
   0   6  -6    6.19    0.32
   0   6  -6    5.91    0.23
   0  -6   6    5.64    0.19
   0  -6   6    5.58    0.23
   0  -6   6    6.04    0.32
   0  -6   6    5.29    0.18
  -1   6  -6    2.50    0.20
  -1   6  -6    3.06    0.12
  -1   6  -6    3.15    0.15
   1  -6   6    2.56    0.21
   1  -6   6    2.85    0.10
   1  -6   6    2.95    0.15
  -2   6  -6    1.97    0.11
  -2   6  -6    1.86    0.12
  -2   6  -6    1.87    0.17
   2  -6   6    2.04    0.18
   2  -6   6    1.76    0.13
   2  -6   6    1.71    0.08
  -3   6  -6    0.11    0.08
  -3   6  -6    0.05    0.05
  -3   6  -6    0.05    0.04
   3  -6   6    0.03    0.04
   3  -6   6    0.01    0.05
   3  -6   6    0.04    0.08
  -4   6  -6    0.04    0.06
  -4   6  -6    0.10    0.08
  -4   6  -6    0.12    0.06
  -4   6  -6    0.14    0.06
   4  -6   6    0.12    0.06
   4  -6   6    0.13    0.05
   4  -6   6    0.19    0.09
  -5   6  -6    0.01    0.06
  -5   6  -6    0.02    0.06
  -5   6  -6    0.11    0.09
  -5   6  -6    0.01    0.06
   5  -6   6    0.15    0.10
   5  -6   6   -0.04    0.05
   5  -6   6    0.00    0.06
   9   5  -6    3.22    0.20
   8   5  -6    0.07    0.06
  -8  -5   6    0.01    0.04
  -8  -5   6    0.10    0.06
   7   5  -6    0.28    0.07
  -7  -5   6    0.10    0.06
  -7  -5   6    0.20    0.06
  -7  -5   6    0.15    0.05
   6   5  -6    0.07    0.06
   6   5  -6    0.11    0.03
  -6  -5   6    0.08    0.04
  -6  -5   6    0.08    0.05
  -6  -5   6    0.00    0.05
  -6  -5   6    0.12    0.05
   5   5  -6    3.58    0.18
   5   5  -6    3.45    0.20
   5   5  -6    3.49    0.14
  -5  -5   6    3.47    0.20
  -5  -5   6    3.54    0.15
  -5  -5   6    3.74    0.15
  -5  -5   6    3.55    0.17
   4   5  -6   10.26    0.36
   4   5  -6   10.36    0.32
   4   5  -6    9.66    0.45
  -4  -5   6   10.12    0.32
  -4  -5   6   10.24    0.35
  -4  -5   6    9.89    0.46
  -4  -5   6   10.56    0.33
  -4  -5   6   10.13    0.46
   3   5  -6    0.62    0.06
   3   5  -6    0.56    0.07
   3   5  -6    0.51    0.03
   3   5  -6    0.57    0.08
  -3  -5   6    0.55    0.06
  -3  -5   6    0.49    0.08
  -3  -5   6    0.44    0.06
  -3  -5   6    0.37    0.05
  -3  -5   6    0.50    0.09
   2   5  -6   44.29    1.18
   2   5  -6   43.90    1.26
   2   5  -6   41.79    1.78
  -2  -5   6   43.80    1.21
  -2  -5   6   43.55    1.24
  -2  -5   6   45.15    1.26
  -2  -5   6   44.23    1.78
   1   5  -6    0.78    0.05
   1   5  -6    0.78    0.10
   1   5  -6    0.74    0.07
  -1  -5   6    0.75    0.10
  -1  -5   6    0.79    0.05
  -1  -5   6    0.72    0.05
  -1  -5   6    0.73    0.06
  -1  -5   6    0.74    0.07
   0   5  -6   16.18    0.50
   0   5  -6   16.06    0.46
   0   5  -6   17.12    0.72
   0  -5   6   16.01    0.47
   0  -5   6   15.97    0.47
   0  -5   6   16.25    0.51
   0  -5   6   16.14    0.46
   0  -5   6   17.14    0.72
  -1   5  -6   20.76    0.57
  -1   5  -6   19.01    0.86
  -1   5  -6   20.56    0.61
   1  -5   6   19.30    0.87
   1  -5   6   21.12    0.62
   1  -5   6   20.42    0.57
   1  -5   6   20.44    0.56
   1  -5   6   20.13    0.57
  -2   5  -6    3.36    0.22
  -2   5  -6    3.58    0.16
  -2   5  -6    3.40    0.14
   2  -5   6    3.47    0.23
   2  -5   6    3.42    0.16
   2  -5   6    3.42    0.12
  -3   5  -6    3.73    0.17
  -3   5  -6    3.84    0.24
  -3   5  -6    3.59    0.15
   3  -5   6    3.81    0.14
   3  -5   6    3.67    0.24
   3  -5   6    3.75    0.17
  -4   5  -6    0.10    0.08
  -4   5  -6    0.20    0.05
  -4   5  -6    0.13    0.06
  -4   5  -6    0.07    0.05
   4  -5   6    0.07    0.08
   4  -5   6    0.11    0.05
   4  -5   6    0.21    0.05
  -5   5  -6    7.63    0.30
  -5   5  -6    7.63    0.39
  -5   5  -6    7.44    0.28
  -5   5  -6    7.44    0.27
   5  -5   6    7.60    0.26
   5  -5   6    7.54    0.40
   5  -5   6    7.82    0.29
  -6   5  -6    0.32    0.07
  -6   5  -6    0.50    0.10
  -6   5  -6    0.33    0.08
  -6   5  -6    0.40    0.07
   6  -5   6    0.37    0.07
   6  -5   6    0.26    0.07
   9   4  -6    0.27    0.08
   8   4  -6    0.50    0.08
   7   4  -6    0.77    0.09
  -7  -4   6    0.94    0.08
  -7  -4   6    0.88    0.09
   6   4  -6    2.33    0.15
   6   4  -6    1.99    0.09
  -6  -4   6    2.29    0.10
  -6  -4   6    2.07    0.13
  -6  -4   6    1.94    0.13
   5   4  -6    3.50    0.14
   5   4  -6    3.78    0.20
   5   4  -6    3.80    0.18
  -5  -4   6    3.71    0.17
  -5  -4   6    3.90    0.14
  -5  -4   6    3.72    0.14
  -5  -4   6    3.59    0.20
  -5  -4   6    3.53    0.15
  -5  -4   6    3.55    0.20
   4   4  -6    7.05    0.34
   4   4  -6    7.31    0.24
   4   4  -6    7.68    0.28
  -4  -4   6    7.50    0.27
  -4  -4   6    7.39    0.25
  -4  -4   6    7.45    0.25
  -4  -4   6    7.53    0.35
  -4  -4   6    7.43    0.25
  -4  -4   6    7.69    0.35
   3   4  -6    0.07    0.05
   3   4  -6    0.01    0.04
   3   4  -6    0.03    0.05
  -3  -4   6   -0.02    0.05
  -3  -4   6    0.06    0.06
  -3  -4   6    0.04    0.04
  -3  -4   6    0.08    0.04
  -3  -4   6    0.04    0.04
   2   4  -6    0.14    0.05
   2   4  -6    0.23    0.04
   2   4  -6    0.11    0.05
  -2  -4   6    0.13    0.06
  -2  -4   6    0.17    0.06
  -2  -4   6    0.35    0.04
  -2  -4   6    0.16    0.04
   1   4  -6    0.43    0.04
   1   4  -6    0.46    0.07
   1   4  -6    0.36    0.05
  -1  -4   6    0.49    0.08
  -1  -4   6    0.52    0.03
  -1  -4   6    0.51    0.04
  -1  -4   6    0.44    0.05
  -1  -4   6    0.52    0.03
   0   4  -6    0.59    0.06
   0   4  -6    0.69    0.05
   0   4  -6    0.61    0.08
   0  -4   6    0.71    0.04
   0  -4   6    0.67    0.04
   0  -4   6    0.57    0.06
   0  -4   6    0.67    0.09
   0  -4   6    0.67    0.04
  -1   4  -6    5.48    0.20
  -1   4  -6    5.26    0.28
  -1   4  -6    5.52    0.18
   1  -4   6    5.32    0.17
   1  -4   6    5.57    0.16
   1  -4   6    5.28    0.28
   1  -4   6    5.36    0.20
  -2   4  -6   19.71    0.89
  -2   4  -6   21.49    0.63
  -2   4  -6   21.79    0.59
   2  -4   6   20.98    0.59
   2  -4   6   18.92    0.88
   2  -4   6   21.87    0.63
   2  -4   6   21.66    0.59
  -3   4  -6    2.66    0.13
  -3   4  -6    2.75    0.12
  -3   4  -6    2.57    0.18
   3  -4   6    2.70    0.11
   3  -4   6    2.96    0.14
   3  -4   6    2.51    0.19
  -4   4  -6    0.44    0.06
  -4   4  -6    0.46    0.09
  -4   4  -6    0.47    0.06
  -4   4  -6    0.32    0.05
   4  -4   6    0.39    0.06
   4  -4   6    0.50    0.05
   4  -4   6    0.32    0.09
  -5   4  -6    3.98    0.17
  -5   4  -6    3.76    0.16
  -5   4  -6    3.86    0.24
  -5   4  -6    3.72    0.18
   5  -4   6    3.99    0.25
   5  -4   6    3.86    0.16
   5  -4   6    3.97    0.18
  -6   4  -6   -0.04    0.07
  -6   4  -6    0.16    0.06
  -6   4  -6    0.08    0.06
   6  -4   6    0.14    0.06
   6  -4   6    0.02    0.08
   6  -4   6    0.16    0.06
  -7   4  -6    7.67    0.32
  -7   4  -6    7.55    0.28
  -7   4  -6    7.55    0.40
   7  -4   6    7.74    0.29
   7  -4   6    7.84    0.28
  10   3  -6    0.11    0.07
  10   3  -6    0.13    0.08
   9   3  -6    0.54    0.09
   8   3  -6    0.64    0.09
   8   3  -6    0.56    0.05
   7   3  -6    0.36    0.07
   7   3  -6    0.48    0.04
   7   3  -6    0.46    0.04
  -7  -3   6    0.45    0.05
  -7  -3   6    0.33    0.06
   6   3  -6    0.69    0.08
   6   3  -6    0.90    0.07
   6   3  -6    0.84    0.05
   6   3  -6    0.81    0.05
  -6  -3   6    0.83    0.06
  -6  -3   6    0.62    0.08
  -6  -3   6    0.71    0.07
   5   3  -6    2.38    0.14
   5   3  -6    2.50    0.08
   5   3  -6    2.53    0.10
   5   3  -6    2.65    0.14
   5   3  -6    2.65    0.11
  -5  -3   6    2.59    0.15
  -5  -3   6    2.30    0.13
  -5  -3   6    2.54    0.11
  -5  -3   6    2.60    0.11
  -5  -3   6    2.51    0.15
   4   3  -6    0.06    0.05
   4   3  -6    0.02    0.04
   4   3  -6    0.04    0.03
  -4  -3   6   -0.02    0.04
  -4  -3   6    0.00    0.03
  -4  -3   6    0.05    0.05
  -4  -3   6   -0.07    0.04
  -4  -3   6    0.00    0.03
   3   3  -6   22.81    0.65
   3   3  -6   21.61    0.65
   3   3  -6   22.00    0.71
   3   3  -6   21.98    0.92
  -3  -3   6   22.74    0.65
  -3  -3   6   22.45    0.69
  -3  -3   6   22.67    0.92
  -3  -3   6   21.69    0.67
  -3  -3   6   22.86    0.92
   2   3  -6   14.30    0.60
   2   3  -6   13.70    0.42
   2   3  -6   13.99    0.46
  -2  -3   6   14.58    0.60
  -2  -3   6   13.99    0.60
  -2  -3   6   14.21    0.43
   1   3  -6    0.09    0.04
   1   3  -6    0.09    0.05
   1   3  -6    0.00    0.03
  -1  -3   6    0.10    0.02
  -1  -3   6    0.10    0.01
  -1  -3   6    0.09    0.01
  -1  -3   6    0.09    0.05
  -1  -3   6    0.13    0.05
  -1  -3   6    0.03    0.04
   0   3  -6    4.69    0.17
   0   3  -6    4.63    0.24
   0  -3   6    4.60    0.13
   0  -3   6    5.16    0.25
   0  -3   6    4.48    0.17
   0  -3   6    4.40    0.24
   0  -3   6    4.68    0.14
  -1   3  -6    0.13    0.03
  -1   3  -6    0.09    0.04
  -1   3  -6    0.09    0.05
   1  -3   6    0.04    0.05
   1  -3   6    0.07    0.02
   1  -3   6    0.15    0.03
   1  -3   6    0.06    0.04
  -2   3  -6   64.07    1.89
  -2   3  -6   65.87    1.80
  -2   3  -6   68.44    2.68
   2  -3   6   66.91    1.89
   2  -3   6   65.50    1.80
   2  -3   6   69.77    2.68
  -3   3  -6    1.75    0.11
  -3   3  -6    1.74    0.15
  -3   3  -6    1.62    0.09
   3  -3   6    1.74    0.16
   3  -3   6    1.51    0.09
   3  -3   6    1.60    0.11
  -4   3  -6   -0.04    0.06
  -4   3  -6   -0.01    0.04
  -4   3  -6    0.05    0.04
   4  -3   6   -0.04    0.04
   4  -3   6   -0.01    0.06
  -5   3  -6    0.14    0.05
  -5   3  -6    0.18    0.05
  -5   3  -6    0.12    0.07
   5  -3   6    0.18    0.05
   5  -3   6    0.22    0.05
   5  -3   6    0.12    0.07
  -6   3  -6    0.14    0.06
  -6   3  -6    0.11    0.05
  -6   3  -6    0.21    0.07
   6  -3   6    0.22    0.06
   6  -3   6    0.25    0.08
   6  -3   6    0.14    0.06
  -7   3  -6    4.41    0.26
  -7   3  -6    4.27    0.19
  -7   3  -6    4.59    0.22
   7  -3   6    4.43    0.19
   7  -3   6    4.27    0.18
  -8   3  -6    0.05    0.07
  -8   3  -6   -0.02    0.07
  -8   3  -6   -0.03    0.05
   8  -3   6   -0.11    0.06
   8  -3   6   -0.04    0.06
  10   2  -6    1.09    0.10
  10   2  -6    1.12    0.12
   9   2  -6    0.17    0.08
   9   2  -6    0.37    0.05
   8   2  -6    0.83    0.07
   8   2  -6    0.77    0.09
   7   2  -6    0.40    0.04
   7   2  -6    0.52    0.07
   7   2  -6    0.52    0.05
  -7  -2   6    0.45    0.04
  -7  -2   6    0.38    0.05
   6   2  -6    2.25    0.14
   6   2  -6    2.04    0.09
   6   2  -6    2.20    0.08
   6   2  -6    2.18    0.08
   6   2  -6    2.17    0.07
   6   2  -6    2.41    0.10
  -6  -2   6    1.99    0.13
  -6  -2   6    2.15    0.12
  -6  -2   6    2.14    0.09
  -6  -2   6    2.15    0.12
   5   2  -6    6.43    0.20
   5   2  -6    6.53    0.25
   5   2  -6    6.41    0.29
   5   2  -6    6.51    0.22
   5   2  -6    6.32    0.20
  -5  -2   6    6.64    0.22
  -5  -2   6    6.28    0.29
  -5  -2   6    6.26    0.24
  -5  -2   6    6.64    0.29
  -5  -2   6    6.82    0.21
   4   2  -6    1.48    0.09
   4   2  -6    1.57    0.08
   4   2  -6    1.52    0.11
   4   2  -6    1.59    0.08
   4   2  -6    1.51    0.09
   4   2  -6    1.68    0.11
  -4  -2   6    1.76    0.12
  -4  -2   6    1.56    0.10
  -4  -2   6    1.65    0.11
  -4  -2   6    1.50    0.08
  -4  -2   6    1.57    0.08
   3   2  -6    0.42    0.04
   3   2  -6    0.43    0.04
   3   2  -6    0.48    0.05
   3   2  -6    0.37    0.06
   3   2  -6    0.35    0.05
   3   2  -6    0.42    0.04
  -3  -2   6    0.41    0.06
  -3  -2   6    0.41    0.06
  -3  -2   6    0.43    0.04
  -3  -2   6    0.40    0.04
  -3  -2   6    0.40    0.05
   2   2  -6    5.24    0.18
   2   2  -6    5.45    0.18
   2   2  -6    5.52    0.19
   2   2  -6    5.20    0.26
   2   2  -6    5.43    0.18
   2   2  -6    5.44    0.20
  -2  -2   6    5.66    0.26
  -2  -2   6    5.42    0.19
  -2  -2   6    5.57    0.19
  -2  -2   6    5.35    0.26
   1   2  -6   66.78    2.01
   1   2  -6   67.68    2.66
   1   2  -6   67.25    1.86
   1   2  -6   66.82    1.88
  -1  -2   6   68.17    1.88
  -1  -2   6   60.40    2.65
  -1  -2   6   67.63    1.78
  -1  -2   6   70.09    1.95
  -1  -2   6   65.60    2.66
   0   2  -6    0.46    0.05
   0   2  -6    0.44    0.07
   0   2  -6    0.31    0.04
   0  -2   6    0.47    0.03
   0  -2   6    0.41    0.05
   0  -2   6    0.58    0.07
   0  -2   6    0.54    0.03
   0  -2   6    0.48    0.07
   0  -2   6    0.44    0.05
  -1   2  -6    0.78    0.07
  -1   2  -6    0.81    0.10
   1  -2   6    0.97    0.10
   1  -2   6    0.74    0.06
   1  -2   6    0.86    0.10
   1  -2   6    0.76    0.06
   1  -2   6    0.79    0.05
   1  -2   6    0.80    0.05
  -2   2  -6    0.12    0.04
  -2   2  -6    0.10    0.06
   2  -2   6    0.13    0.03
   2  -2   6    0.10    0.04
   2  -2   6    0.06    0.06
   2  -2   6    0.11    0.03
  -3   2  -6    0.77    0.06
  -3   2  -6    0.95    0.11
  -3   2  -6    1.01    0.09
  -3   2  -6    1.03    0.08
   3  -2   6    1.27    0.09
   3  -2   6    0.92    0.11
   3  -2   6    1.16    0.08
   3  -2   6    1.18    0.07
  -4   2  -6   64.98    1.94
  -4   2  -6   64.91    1.79
  -4   2  -6   61.31    2.53
   4  -2   6   64.61    1.79
   4  -2   6   58.96    2.52
  -5   2  -6    0.26    0.05
  -5   2  -6    0.05    0.05
  -5   2  -6    0.14    0.06
   5  -2   6    0.10    0.05
   5  -2   6    0.12    0.07
  -6   2  -6    1.97    0.16
  -6   2  -6    2.04    0.13
  -6   2  -6    1.93    0.11
   6  -2   6    1.90    0.17
   6  -2   6    1.90    0.12
  -7   2  -6    6.62    0.24
  -7   2  -6    6.70    0.34
  -7   2  -6    6.64    0.27
   7  -2   6    6.96    0.25
   7  -2   6    6.93    0.35
  -8   2  -6    0.73    0.10
  -8   2  -6    0.97    0.08
  -8   2  -6    0.98    0.10
   8  -2   6    0.80    0.09
   8  -2   6    0.73    0.08
   8  -2   6    0.86    0.09
  -9   2  -6    0.79    0.11
  -9   2  -6    1.05    0.11
   9  -2   6    0.92    0.11
   9  -2   6    0.99    0.10
   9   1  -6    0.55    0.09
   9   1  -6    0.47    0.06
   8   1  -6    0.12    0.04
   8   1  -6    0.08    0.07
   7   1  -6    0.49    0.04
   7   1  -6    0.52    0.05
   7   1  -6    0.44    0.05
   7   1  -6    0.33    0.07
   6   1  -6    0.01    0.02
   6   1  -6    0.00    0.05
   6   1  -6    0.13    0.02
   6   1  -6    0.02    0.04
   6   1  -6    0.03    0.02
   6   1  -6   -0.01    0.03
  -6  -1   6   -0.01    0.04
  -6  -1   6    0.02    0.03
  -6  -1   6    0.03    0.03
   5   1  -6    1.99    0.06
   5   1  -6    1.84    0.12
   5   1  -6    1.97    0.07
   5   1  -6    1.86    0.08
   5   1  -6    1.95    0.10
   5   1  -6    1.94    0.11
   5   1  -6    1.95    0.07
   5   1  -6    1.85    0.08
   5   1  -6    1.82    0.08
  -5  -1   6    1.94    0.11
  -5  -1   6    1.98    0.08
  -5  -1   6    1.90    0.11
  -5  -1   6    1.99    0.09
   4   1  -6   10.20    0.35
   4   1  -6    9.89    0.32
   4   1  -6    9.86    0.29
   4   1  -6    9.83    0.30
   4   1  -6   10.14    0.34
   4   1  -6    9.95    0.43
   4   1  -6    9.83    0.30
  -4  -1   6    9.94    0.43
  -4  -1   6   10.09    0.43
  -4  -1   6   10.22    0.32
  -4  -1   6   10.32    0.30
  -4  -1   6    9.98    0.33
   3   1  -6    5.66    0.19
   3   1  -6    5.86    0.21
   3   1  -6    6.14    0.27
   3   1  -6    5.78    0.20
   3   1  -6    5.87    0.20
   3   1  -6    5.91    0.19
   3   1  -6    5.89    0.22
  -3  -1   6    5.93    0.27
  -3  -1   6    6.08    0.20
  -3  -1   6    5.82    0.21
  -3  -1   6    5.97    0.27
  -3  -1   6    5.99    0.20
   2   1  -6   37.30    1.15
   2   1  -6   37.49    1.05
   2   1  -6   37.45    1.05
   2   1  -6   36.28    1.50
   2   1  -6   36.92    1.14
   2   1  -6   37.44    1.06
   2   1  -6   36.59    1.10
  -2  -1   6   35.21    1.50
  -2  -1   6   39.02    1.50
  -2  -1   6   37.38    1.06
  -2  -1   6   38.17    1.10
  -2  -1   6   36.86    1.10
  -2  -1   6   37.53    1.02
   1   1  -6  165.86    4.89
   1   1  -6  162.03    6.66
   1   1  -6  167.15    4.71
   1   1  -6  169.02    5.04
   1   1  -6  165.69    4.70
   1   1  -6  169.21    4.69
   1   1  -6  172.44    6.66
  -1  -1   6  169.88    4.89
  -1  -1   6  176.13    6.66
  -1  -1   6  168.07    4.60
  -1  -1   6  169.18    4.70
  -1  -1   6  169.81    5.04
  -1  -1   6  173.01    6.66
   0   1  -6   17.26    0.77
   0   1  -6   18.91    0.55
   0   1  -6   19.15    0.58
   0   1  -6   18.96    0.53
   0   1  -6   20.68    0.60
   0   1  -6   18.45    0.57
   0   1  -6   17.36    0.77
   0   1  -6   19.10    0.55
   0  -1   6   17.79    0.78
   0  -1   6   18.55    0.52
   0  -1   6   19.07    0.51
   0  -1   6   19.13    0.58
   0  -1   6   17.64    0.77
   0  -1   6   19.04    0.55
   0  -1   6   18.88    0.57
  -1   1  -6    0.38    0.04
  -1   1  -6    0.45    0.04
  -1   1  -6    0.41    0.06
  -1   1  -6    0.33    0.04
  -1   1  -6    0.43    0.07
   1  -1   6    0.45    0.07
   1  -1   6    0.46    0.05
   1  -1   6    0.38    0.06
   1  -1   6    0.42    0.03
   1  -1   6    0.44    0.04
   1  -1   6    0.45    0.04
  -2   1  -6    0.00    0.04
  -2   1  -6   -0.07    0.04
  -2   1  -6    0.02    0.03
  -2   1  -6    0.04    0.03
   2  -1   6    0.10    0.05
   2  -1   6   -0.01    0.03
   2  -1   6   -0.05    0.04
   2  -1   6    0.01    0.02
   2  -1   6    0.00    0.02
   2  -1   6    0.03    0.02
  -3   1  -6    3.23    0.13
  -3   1  -6    3.36    0.14
  -3   1  -6    3.22    0.19
  -3   1  -6    3.27    0.13
  -3   1  -6    3.55    0.20
   3  -1   6    3.36    0.12
   3  -1   6    3.47    0.13
   3  -1   6    3.24    0.14
   3  -1   6    3.17    0.19
   3  -1   6    3.33    0.13
  -4   1  -6   68.18    2.07
  -4   1  -6   70.01    2.04
  -4   1  -6   68.74    1.90
  -4   1  -6   62.69    2.69
  -4   1  -6   65.24    2.69
   4  -1   6   69.18    2.02
   4  -1   6   69.06    1.90
   4  -1   6   69.23    1.82
   4  -1   6   70.28    1.88
   4  -1   6   59.74    2.68
  -5   1  -6    1.14    0.10
  -5   1  -6    1.29    0.13
  -5   1  -6    1.28    0.09
  -5   1  -6    1.41    0.14
   5  -1   6    1.40    0.14
   5  -1   6    1.34    0.08
   5  -1   6    0.96    0.08
   5  -1   6    1.09    0.09
  -6   1  -6    0.39    0.06
  -6   1  -6    0.37    0.06
  -6   1  -6    0.40    0.08
  -6   1  -6    0.63    0.09
   6  -1   6    0.43    0.04
   6  -1   6    0.38    0.06
   6  -1   6    0.34    0.06
   6  -1   6    0.39    0.08
  -7   1  -6    5.00    0.28
  -7   1  -6    5.13    0.19
  -7   1  -6    5.35    0.22
   7  -1   6    5.64    0.22
   7  -1   6    4.98    0.20
   7  -1   6    5.02    0.28
  -8   1  -6    0.15    0.07
  -8   1  -6    0.23    0.05
  -8   1  -6    0.14    0.06
   8  -1   6    0.19    0.07
   8  -1   6    0.17    0.05
  -9   1  -6    0.35    0.08
  -9   1  -6    0.26    0.08
  -9   1  -6    0.46    0.06
   9  -1   6    0.33    0.06
   9  -1   6    0.29    0.08
   9   0  -6    0.25    0.08
   9   0  -6    0.17    0.06
   8   0  -6    3.33    0.15
   8   0  -6    3.54    0.14
   8   0  -6    3.50    0.15
   8   0  -6    3.42    0.19
   7   0  -6    0.33    0.05
   7   0  -6    0.41    0.07
   7   0  -6    0.48    0.05
   6   0  -6    2.94    0.10
   6   0  -6    2.96    0.12
   6   0  -6    2.96    0.13
   6   0  -6    3.04    0.10
   6   0  -6    3.04    0.16
  -6   0   6    2.99    0.14
  -6   0   6    3.18    0.14
   5   0  -6    2.25    0.09
   5   0  -6    2.05    0.08
   5   0  -6    2.21    0.08
   5   0  -6    1.81    0.08
   5   0  -6    1.88    0.11
   5   0  -6    2.26    0.12
   5   0  -6    2.27    0.07
   5   0  -6    2.16    0.13
  -5   0   6    2.21    0.12
  -5   0   6    2.17    0.12
   4   0  -6    0.40    0.03
   4   0  -6    0.43    0.04
   4   0  -6    0.30    0.05
   4   0  -6    0.27    0.05
   4   0  -6    0.23    0.03
   4   0  -6    0.31    0.04
   4   0  -6    0.29    0.03
   4   0  -6    0.22    0.04
  -4   0   6    0.32    0.05
  -4   0   6    0.28    0.03
  -4   0   6    0.36    0.04
  -4   0   6    0.30    0.05
  -4   0   6    0.37    0.05
   3   0  -6    4.63    0.14
   3   0  -6    4.66    0.17
   3   0  -6    4.65    0.17
   3   0  -6    4.71    0.22
   3   0  -6    4.69    0.18
   3   0  -6    4.70    0.15
   3   0  -6    4.71    0.22
  -3   0   6    4.67    0.16
  -3   0   6    4.58    0.13
  -3   0   6    4.65    0.22
  -3   0   6    4.68    0.17
  -3   0   6    4.66    0.22
  -3   0   6    4.42    0.17
  -3   0   6    4.67    0.15
   2   0  -6    9.03    0.30
   2   0  -6    9.17    0.28
   2   0  -6    9.12    0.31
   2   0  -6    9.36    0.26
   2   0  -6    9.36    0.28
   2   0  -6    9.62    0.40
   2   0  -6    8.90    0.30
   2   0  -6    8.65    0.40
  -2   0   6    9.66    0.40
  -2   0   6    9.65    0.40
  -2   0   6    9.26    0.30
  -2   0   6    9.32    0.27
  -2   0   6    9.19    0.30
  -2   0   6    9.25    0.28
   1   0  -6    0.88    0.09
   1   0  -6    0.97    0.07
   1   0  -6    0.82    0.04
   1   0  -6    1.02    0.07
   1   0  -6    0.90    0.06
   1   0  -6    0.91    0.06
   1   0  -6    0.85    0.09
   1   0  -6    1.00    0.07
  -1   0   6    1.00    0.07
  -1   0   6    0.90    0.03
  -1   0   6    0.85    0.09
  -1   0   6    0.78    0.09
  -1   0   6    0.96    0.07
  -1   0   6    0.84    0.04
   0   0  -6    1.02    0.07
   0   0  -6    1.10    0.07
   0   0  -6    0.90    0.05
   0   0  -6    1.06    0.07
   0   0  -6    1.05    0.09
   0   0  -6    1.02    0.06
   0   0  -6    1.05    0.10
   0   0   6    1.02    0.04
   0   0   6    1.00    0.09
   0   0   6    0.94    0.04
   0   0   6    1.12    0.07
   0   0   6    0.99    0.07
   0   0   6    1.06    0.10
  -1   0  -6   29.53    1.23
  -1   0  -6   30.28    0.85
  -1   0  -6   28.97    0.87
  -1   0  -6   29.80    0.92
  -1   0  -6   31.31    1.24
  -1   0  -6   29.87    0.91
  -1   0  -6   30.74    0.93
   1   0   6   29.96    0.90
   1   0   6   30.34    0.82
   1   0   6   29.85    0.87
   1   0   6   31.80    1.24
   1   0   6   30.44    0.92
   1   0   6   32.39    1.24
   1   0   6   30.40    0.85
  -2   0  -6   14.05    0.42
  -2   0  -6   13.95    0.44
  -2   0  -6   14.71    0.60
  -2   0  -6   14.66    0.60
  -2   0  -6   14.29    0.45
  -2   0  -6   14.07    0.44
   2   0   6   13.96    0.41
   2   0   6   13.97    0.44
   2   0   6   13.14    0.60
   2   0   6   14.25    0.43
   2   0   6   14.08    0.40
   2   0   6   13.83    0.60
  -3   0  -6    4.12    0.16
  -3   0  -6    3.92    0.15
  -3   0  -6    3.92    0.15
  -3   0  -6    4.16    0.22
  -3   0  -6    4.43    0.22
   3   0   6    4.12    0.14
   3   0   6    4.06    0.14
   3   0   6    4.06    0.22
   3   0   6    3.99    0.14
  -4   0  -6    6.35    0.31
  -4   0  -6    6.71    0.23
  -4   0  -6    6.41    0.22
  -4   0  -6    6.88    0.24
  -4   0  -6    6.73    0.32
   4   0   6    6.56    0.22
   4   0   6    6.32    0.23
   4   0   6    6.35    0.22
   4   0   6    6.54    0.22
   4   0   6    6.63    0.21
   4   0   6    7.10    0.32
  -5   0  -6   10.00    0.33
  -5   0  -6    9.66    0.31
  -5   0  -6    8.68    0.44
  -5   0  -6    9.86    0.44
   5   0   6   10.04    0.44
   5   0   6    9.47    0.31
   5   0   6    9.64    0.31
   5   0   6    9.71    0.31
   5   0   6    9.46    0.32
  -6   0  -6    4.81    0.24
  -6   0  -6    4.16    0.23
  -6   0  -6    4.27    0.18
  -6   0  -6    4.46    0.17
   6   0   6    4.30    0.24
   6   0   6    4.06    0.17
   6   0   6    4.46    0.18
   6   0   6    4.19    0.16
   6   0   6    4.34    0.17
  -7   0  -6    3.58    0.15
  -7   0  -6    3.28    0.21
  -7   0  -6    3.45    0.16
   7   0   6    3.29    0.15
   7   0   6    3.30    0.21
   7   0   6    3.51    0.16
   7   0   6    3.48    0.15
  -8   0  -6    0.11    0.05
  -8   0  -6    0.13    0.06
  -8   0  -6    0.10    0.06
   8   0   6    0.21    0.06
   8   0   6    0.15    0.05
   8   0   6    0.18    0.05
  -9   0  -6    0.99    0.08
  -9   0  -6    0.77    0.09
  -9   0  -6    0.92    0.11
   9   0   6    0.96    0.10
   9   0   6    0.88    0.08
 -10   0  -6    0.01    0.06
 -10   0  -6    0.00    0.06
  10   0   6    0.02    0.07
   9  -1  -6    0.64    0.10
   9  -1  -6    0.53    0.08
   8  -1  -6    2.78    0.14
   8  -1  -6    2.71    0.19
   8  -1  -6    2.60    0.14
   7  -1  -6    3.95    0.17
   7  -1  -6    4.32    0.20
   7  -1  -6    3.95    0.16
   6  -1  -6    0.13    0.04
   6  -1  -6    0.15    0.03
   6  -1  -6    0.14    0.02
   6  -1  -6    0.06    0.04
  -6   1   6    0.15    0.04
  -6   1   6    0.15    0.03
  -6   1   6    0.16    0.03
   5  -1  -6   12.68    0.51
   5  -1  -6   11.98    0.36
   5  -1  -6   12.42    0.36
   5  -1  -6   12.48    0.35
   5  -1  -6   11.99    0.40
   5  -1  -6   12.36    0.37
  -5   1   6   12.53    0.52
  -5   1   6   12.41    0.35
   4  -1  -6   36.94    1.06
   4  -1  -6   37.39    1.12
   4  -1  -6   38.66    1.51
   4  -1  -6   37.33    1.05
   4  -1  -6   38.07    1.07
   4  -1  -6   37.55    1.02
   4  -1  -6   38.27    1.17
   4  -1  -6   38.18    1.17
  -4   1   6   38.26    1.51
  -4   1   6   38.57    1.52
  -4   1   6   37.72    1.02
  -4   1   6   37.28    1.13
   3  -1  -6    0.28    0.05
   3  -1  -6    0.32    0.05
   3  -1  -6    0.29    0.03
   3  -1  -6    0.31    0.05
   3  -1  -6    0.27    0.03
   3  -1  -6    0.18    0.04
   3  -1  -6    0.29    0.02
   3  -1  -6    0.25    0.03
  -3   1   6    0.25    0.05
  -3   1   6    0.27    0.04
  -3   1   6    0.29    0.03
  -3   1   6    0.28    0.02
  -3   1   6    0.28    0.05
  -3   1   6    0.27    0.04
  -3   1   6    0.20    0.04
   2  -1  -6    0.01    0.04
   2  -1  -6    0.03    0.03
   2  -1  -6    0.03    0.01
   2  -1  -6    0.03    0.03
   2  -1  -6   -0.01    0.04
   2  -1  -6    0.02    0.02
   2  -1  -6    0.01    0.03
   2  -1  -6    0.03    0.02
  -2   1   6    0.04    0.03
  -2   1   6    0.07    0.04
  -2   1   6    0.06    0.03
  -2   1   6    0.03    0.03
  -2   1   6    0.02    0.04
  -2   1   6    0.07    0.01
  -2   1   6    0.06    0.02
   1  -1  -6    2.30    0.11
   1  -1  -6    2.40    0.14
   1  -1  -6    2.57    0.14
   1  -1  -6    2.35    0.10
   1  -1  -6    2.48    0.11
   1  -1  -6    2.42    0.08
   1  -1  -6    2.35    0.10
  -1   1   6    2.51    0.10
  -1   1   6    2.43    0.08
  -1   1   6    2.57    0.14
  -1   1   6    2.40    0.08
  -1   1   6    2.38    0.08
  -1   1   6    2.61    0.14
  -1   1   6    2.37    0.10
  -1   1   6    2.42    0.10
   0  -1  -6    4.62    0.16
   0  -1  -6    4.47    0.23
   0  -1  -6    4.97    0.23
   0  -1  -6    4.70    0.14
   0  -1  -6    4.61    0.17
   0  -1  -6    4.87    0.17
   0  -1  -6    4.61    0.17
   0   1   6    4.76    0.14
   0   1   6    4.88    0.23
   0   1   6    4.92    0.23
   0   1   6    4.71    0.17
   0   1   6    4.68    0.16
  -1  -1  -6   20.25    0.97
  -1  -1  -6   24.11    0.69
  -1  -1  -6   24.65    0.74
  -1  -1  -6   25.34    0.98
  -1  -1  -6   23.74    0.72
  -1  -1  -6   24.29    0.73
  -1  -1  -6   24.40    0.67
   1   1   6   25.19    0.98
   1   1   6   24.68    0.72
   1   1   6   22.57    0.98
   1   1   6   23.91    0.69
   1   1   6   24.20    0.67
  -2  -1  -6    0.61    0.03
  -2  -1  -6    0.66    0.08
  -2  -1  -6    0.49    0.05
  -2  -1  -6    0.51    0.05
  -2  -1  -6    0.45    0.06
  -2  -1  -6    0.73    0.06
  -2  -1  -6    0.64    0.04
   2   1   6    0.49    0.05
   2   1   6    0.56    0.05
   2   1   6    0.53    0.05
   2   1   6    0.61    0.06
   2   1   6    0.55    0.07
   2   1   6    0.62    0.08
  -3  -1  -6   25.76    0.79
  -3  -1  -6   24.11    1.04
  -3  -1  -6   26.12    0.79
  -3  -1  -6   25.40    0.77
  -3  -1  -6   23.52    1.04
   3   1   6   25.51    0.79
   3   1   6   25.77    0.77
   3   1   6   26.13    0.70
   3   1   6   26.34    1.05
   3   1   6   26.05    0.74
   3   1   6   26.15    0.73
   3   1   6   24.49    1.05
  -4  -1  -6   39.16    1.65
  -4  -1  -6   38.88    1.65
  -4  -1  -6   42.23    1.26
  -4  -1  -6   43.06    1.14
   4   1   6   42.31    1.16
   4   1   6   42.86    1.12
   4   1   6   36.05    1.65
   4   1   6   42.00    1.17
   4   1   6   41.83    1.23
   4   1   6   41.43    1.25
  -5  -1  -6    2.80    0.13
  -5  -1  -6    2.98    0.10
  -5  -1  -6    3.03    0.18
  -5  -1  -6    2.97    0.13
  -5  -1  -6    2.77    0.18
   5   1   6    3.02    0.18
   5   1   6    2.91    0.11
   5   1   6    3.21    0.13
   5   1   6    2.90    0.13
   5   1   6    3.02    0.13
  -6  -1  -6   -0.03    0.06
  -6  -1  -6    0.04    0.04
  -6  -1  -6    0.05    0.06
  -6  -1  -6    0.01    0.04
   6   1   6    0.04    0.04
   6   1   6    0.00    0.06
   6   1   6   -0.03    0.02
   6   1   6    0.07    0.04
   6   1   6    0.14    0.05
  -7  -1  -6    0.01    0.05
  -7  -1  -6    0.07    0.06
  -7  -1  -6    0.04    0.04
  -7  -1  -6   -0.06    0.04
   7   1   6    0.02    0.04
   7   1   6   -0.05    0.04
   7   1   6   -0.04    0.06
   7   1   6   -0.06    0.05
  -8  -1  -6    0.55    0.08
  -8  -1  -6    0.61    0.06
  -8  -1  -6    0.46    0.07
   8   1   6    0.52    0.09
   8   1   6    0.49    0.06
   8   1   6    0.42    0.06
   8   1   6    0.49    0.07
  -9  -1  -6    1.27    0.13
  -9  -1  -6    1.48    0.13
  -9  -1  -6    1.48    0.10
   9   1   6    1.36    0.11
   9   1   6    1.42    0.10
   9   1   6    1.54    0.13
 -10  -1  -6   -0.01    0.06
 -10  -1  -6   -0.03    0.06
  10   1   6   -0.08    0.06
   9  -2  -6    0.17    0.06
   8  -2  -6    0.60    0.07
   8  -2  -6    0.57    0.07
  -8   2   6    0.68    0.07
   7  -2  -6    4.15    0.17
   7  -2  -6    4.32    0.18
  -7   2   6    4.59    0.20
  -7   2   6    4.34    0.16
  -7   2   6    4.13    0.18
   6  -2  -6    2.21    0.09
   6  -2  -6    2.07    0.12
   6  -2  -6    1.97    0.11
  -6   2   6    2.10    0.10
  -6   2   6    1.93    0.12
  -6   2   6    2.24    0.13
   5  -2  -6   14.01    0.41
   5  -2  -6   13.76    0.40
   5  -2  -6   13.74    0.40
   5  -2  -6   13.51    0.44
   5  -2  -6   13.99    0.57
   5  -2  -6   13.99    0.39
  -5   2   6   14.48    0.57
  -5   2   6   13.73    0.40
  -5   2   6   14.16    0.46
  -5   2   6   12.02    0.56
   4  -2  -6    1.67    0.08
   4  -2  -6    1.69    0.07
   4  -2  -6    1.62    0.07
   4  -2  -6    1.36    0.10
   4  -2  -6    1.56    0.09
   4  -2  -6    1.42    0.11
  -4   2   6    1.35    0.11
  -4   2   6    1.55    0.11
  -4   2   6    1.66    0.07
  -4   2   6    1.62    0.10
   3  -2  -6    5.16    0.18
   3  -2  -6    5.49    0.25
   3  -2  -6    5.46    0.20
   3  -2  -6    5.42    0.18
   3  -2  -6    5.27    0.17
   3  -2  -6    5.50    0.19
  -3   2   6    5.60    0.19
  -3   2   6    5.57    0.19
  -3   2   6    5.26    0.25
  -3   2   6    5.37    0.25
  -3   2   6    5.24    0.16
   2  -2  -6    8.54    0.35
   2  -2  -6    8.40    0.27
   2  -2  -6    7.83    0.24
   2  -2  -6    7.82    0.27
   2  -2  -6    8.22    0.25
   2  -2  -6    8.47    0.36
  -2   2   6    8.02    0.24
  -2   2   6    7.05    0.35
  -2   2   6    8.17    0.35
  -2   2   6    7.92    0.23
  -2   2   6    8.02    0.26
  -2   2   6    8.04    0.26
   1  -2  -6    0.60    0.05
   1  -2  -6    0.56    0.04
   1  -2  -6    0.49    0.05
   1  -2  -6    0.39    0.06
   1  -2  -6    0.48    0.06
   1  -2  -6    0.49    0.04
  -1   2   6    0.60    0.04
  -1   2   6    0.55    0.07
  -1   2   6    0.41    0.06
  -1   2   6    0.55    0.05
  -1   2   6    0.46    0.04
  -1   2   6    0.59    0.03
  -1   2   6    0.53    0.05
   0  -2  -6    7.43    0.24
   0  -2  -6    7.57    0.25
   0  -2  -6    7.39    0.22
   0  -2  -6    7.16    0.25
   0  -2  -6    7.70    0.34
   0  -2  -6    6.91    0.33
   0  -2  -6    7.45    0.25
   0   2   6    7.65    0.22
   0   2   6    7.98    0.34
   0   2   6    7.50    0.24
   0   2   6    7.50    0.25
   0   2   6    7.51    0.22
   0   2   6    7.85    0.34
  -1  -2  -6   13.48    0.43
  -1  -2  -6   15.00    0.58
  -1  -2  -6   12.64    0.58
  -1  -2  -6   14.38    0.44
  -1  -2  -6   13.47    0.43
  -1  -2  -6   13.49    0.41
  -1  -2  -6   13.50    0.40
   1   2   6   14.07    0.58
   1   2   6   13.52    0.41
   1   2   6   13.61    0.39
   1   2   6   13.77    0.42
   1   2   6   13.39    0.44
  -2  -2  -6   21.61    0.67
  -2  -2  -6   22.09    0.63
  -2  -2  -6   22.47    0.65
  -2  -2  -6   22.95    0.92
  -2  -2  -6   22.46    0.92
  -2  -2  -6   22.57    0.69
  -2  -2  -6   22.07    0.67
   2   2   6   23.61    0.92
   2   2   6   22.69    0.67
   2   2   6   22.28    0.65
   2   2   6   21.87    0.69
   2   2   6   21.31    0.92
   2   2   6   21.97    0.63
  -3  -2  -6    0.76    0.10
  -3  -2  -6    0.82    0.10
  -3  -2  -6    1.04    0.06
  -3  -2  -6    0.89    0.07
  -3  -2  -6    0.99    0.06
  -3  -2  -6    0.98    0.07
   3   2   6    0.99    0.07
   3   2   6    0.95    0.06
   3   2   6    0.82    0.10
   3   2   6    0.90    0.07
   3   2   6    0.98    0.07
   3   2   6    0.90    0.09
  -4  -2  -6    0.01    0.05
  -4  -2  -6    0.00    0.05
   4   2   6    0.07    0.03
   4   2   6    0.05    0.03
   4   2   6    0.07    0.03
   4   2   6   -0.02    0.05
   4   2   6    0.07    0.04
  -5  -2  -6   -0.06    0.05
  -5  -2  -6    0.02    0.05
  -5  -2  -6    0.03    0.02
   5   2   6   -0.04    0.03
   5   2   6    0.00    0.03
   5   2   6   -0.04    0.05
   5   2   6   -0.14    0.04
   5   2   6    0.02    0.03
   5   2   6    0.01    0.03
  -6  -2  -6    0.38    0.08
  -6  -2  -6    0.18    0.03
  -6  -2  -6    0.26    0.07
   6   2   6    0.28    0.05
   6   2   6    0.25    0.04
   6   2   6    0.36    0.05
   6   2   6    0.19    0.07
  -7  -2  -6    0.14    0.03
  -7  -2  -6    0.13    0.04
  -7  -2  -6    0.18    0.07
  -7  -2  -6    0.16    0.07
   7   2   6    0.39    0.06
   7   2   6    0.11    0.04
   7   2   6    0.09    0.07
   7   2   6    0.14    0.05
  -8  -2  -6    0.01    0.04
  -8  -2  -6   -0.02    0.03
  -8  -2  -6    0.10    0.06
   8   2   6    0.09    0.04
   8   2   6    0.04    0.06
   8   2   6    0.01    0.05
   8   2   6    0.05    0.06
  -9  -2  -6   -0.01    0.05
  -9  -2  -6    0.05    0.04
   9   2   6    0.08    0.06
   9   2   6    0.02    0.04
   9   2   6    0.00    0.05
 -10  -2  -6    2.24    0.17
  10   2   6    2.63    0.16
  10   2   6    2.41    0.14
 -11  -2  -6   -0.04    0.05
   8  -3  -6   -0.02    0.05
   8  -3  -6    0.00    0.05
  -8   3   6    0.05    0.06
  -8   3   6    0.00    0.05
   7  -3  -6    0.15    0.06
   7  -3  -6    0.14    0.06
  -7   3   6    0.08    0.06
  -7   3   6    0.15    0.05
  -7   3   6    0.10    0.04
   6  -3  -6   -0.03    0.04
   6  -3  -6    0.00    0.05
  -6   3   6    0.08    0.05
  -6   3   6    0.07    0.04
  -6   3   6    0.06    0.05
   5  -3  -6    2.31    0.10
   5  -3  -6    2.30    0.14
   5  -3  -6    2.10    0.09
   5  -3  -6    2.09    0.11
   5  -3  -6    2.18    0.10
   5  -3  -6    2.14    0.13
  -5   3   6    2.15    0.12
  -5   3   6    2.23    0.14
  -5   3   6    2.20    0.10
  -5   3   6    2.37    0.13
   4  -3  -6    0.05    0.05
   4  -3  -6    0.16    0.03
   4  -3  -6    0.19    0.04
   4  -3  -6    0.06    0.03
   4  -3  -6    0.15    0.05
   4  -3  -6    0.19    0.03
   4  -3  -6    0.01    0.04
  -4   3   6    0.09    0.04
  -4   3   6    0.16    0.06
  -4   3   6    0.08    0.04
  -4   3   6    0.17    0.05
   3  -3  -6    0.12    0.05
   3  -3  -6    0.24    0.04
   3  -3  -6    0.19    0.04
   3  -3  -6    0.15    0.03
   3  -3  -6    0.18    0.03
   3  -3  -6    0.17    0.03
   3  -3  -6    0.25    0.03
  -3   3   6    0.17    0.03
  -3   3   6    0.23    0.05
  -3   3   6    0.17    0.05
  -3   3   6    0.11    0.03
   2  -3  -6    0.10    0.03
   2  -3  -6    0.08    0.02
   2  -3  -6    0.09    0.03
   2  -3  -6    0.07    0.03
   2  -3  -6    0.06    0.04
  -2   3   6    0.00    0.04
  -2   3   6    0.09    0.02
  -2   3   6    0.20    0.03
  -2   3   6    0.07    0.04
  -2   3   6    0.06    0.02
   1  -3  -6    8.07    0.38
   1  -3  -6    8.73    0.26
   1  -3  -6    8.87    0.28
   1  -3  -6    8.17    0.38
   1  -3  -6    8.24    0.28
   1  -3  -6    8.65    0.27
  -1   3   6    8.22    0.38
  -1   3   6    8.55    0.27
  -1   3   6    8.56    0.37
  -1   3   6    8.58    0.26
  -1   3   6    8.53    0.25
  -1   3   6    8.59    0.27
   0  -3  -6    4.95    0.18
   0  -3  -6    5.06    0.18
   0  -3  -6    5.47    0.25
   0  -3  -6    4.69    0.24
   0  -3  -6    5.05    0.16
   0  -3  -6    5.23    0.17
   0   3   6    5.02    0.16
   0   3   6    5.21    0.17
   0   3   6    5.15    0.25
   0   3   6    5.08    0.16
   0   3   6    5.04    0.24
   0   3   6    5.07    0.16
   0   3   6    5.06    0.18
   0   3   6    5.09    0.18
   0   3   6    5.10    0.16
  -1  -3  -6   36.95    1.50
  -1  -3  -6   38.04    1.50
  -1  -3  -6   37.91    1.06
  -1  -3  -6   36.47    1.10
  -1  -3  -6   36.79    1.04
   1   3   6   38.35    1.50
   1   3   6   37.98    1.10
   1   3   6   37.43    1.04
   1   3   6   37.70    1.06
   1   3   6   33.76    1.49
   1   3   6   36.90    1.13
  -2  -3  -6   10.24    0.32
  -2  -3  -6   10.98    0.45
  -2  -3  -6    9.70    0.45
  -2  -3  -6   10.31    0.32
  -2  -3  -6   10.28    0.31
  -2  -3  -6    9.84    0.33
  -2  -3  -6   10.04    0.34
   2   3   6   10.10    0.34
   2   3   6   10.56    0.33
   2   3   6    9.96    0.31
   2   3   6   10.86    0.45
   2   3   6   10.32    0.32
   2   3   6   10.43    0.45
  -3  -3  -6    5.97    0.28
  -3  -3  -6    5.57    0.20
  -3  -3  -6    5.63    0.19
  -3  -3  -6    5.45    0.27
  -3  -3  -6    6.05    0.20
  -3  -3  -6    5.64    0.18
   3   3   6    6.13    0.28
   3   3   6    5.71    0.19
   3   3   6    5.80    0.20
   3   3   6    5.74    0.19
   3   3   6    5.57    0.19
   3   3   6    5.68    0.27
   3   3   6    5.26    0.20
  -4  -3  -6    2.39    0.16
  -4  -3  -6    3.07    0.16
  -4  -3  -6    2.65    0.11
   4   3   6    2.65    0.11
   4   3   6    2.52    0.16
   4   3   6    2.50    0.12
   4   3   6    2.80    0.11
   4   3   6    2.61    0.10
   4   3   6    2.66    0.11
  -5  -3  -6    1.67    0.08
  -5  -3  -6    1.64    0.09
  -5  -3  -6    1.43    0.13
  -5  -3  -6    1.63    0.07
  -5  -3  -6    1.65    0.13
   5   3   6    1.78    0.13
   5   3   6    1.35    0.09
   5   3   6    1.63    0.09
   5   3   6    1.55    0.09
   5   3   6    1.70    0.09
   5   3   6    1.49    0.08
  -6  -3  -6    0.10    0.03
  -6  -3  -6    0.02    0.05
  -6  -3  -6    0.11    0.05
   6   3   6    0.02    0.06
   6   3   6    0.09    0.04
   6   3   6    0.13    0.04
   6   3   6    0.05    0.03
   6   3   6   -0.02    0.04
  -7  -3  -6    0.00    0.06
  -7  -3  -6    0.02    0.06
  -7  -3  -6   -0.02    0.03
   7   3   6    0.04    0.05
   7   3   6   -0.09    0.05
   7   3   6    0.07    0.05
   7   3   6    0.03    0.04
  -8  -3  -6   -0.11    0.04
  -8  -3  -6    0.09    0.06
  -8  -3  -6    0.09    0.04
   8   3   6    0.09    0.04
   8   3   6    0.00    0.06
   8   3   6    0.01    0.05
   8   3   6    0.00    0.05
  -9  -3  -6    0.12    0.04
  -9  -3  -6    0.12    0.05
  -9  -3  -6    0.17    0.07
   9   3   6    0.16    0.04
   9   3   6   -0.01    0.06
   9   3   6    0.06    0.06
 -10  -3  -6    0.91    0.11
  10   3   6    0.77    0.09
  10   3   6    0.98    0.10
 -11  -3  -6    0.22    0.07
  11   3   6    0.20    0.08
  11   3   6    0.26    0.07
   8  -4  -6    0.06    0.06
   8  -4  -6    0.02    0.06
  -8   4   6    0.08    0.07
  -8   4   6    0.09    0.06
   7  -4  -6    1.29    0.11
   7  -4  -6    1.29    0.12
  -7   4   6    1.20    0.10
  -7   4   6    1.15    0.10
  -7   4   6    1.21    0.10
   6  -4  -6    0.54    0.07
   6  -4  -6    0.51    0.07
  -6   4   6    0.65    0.07
  -6   4   6    0.55    0.06
  -6   4   6    0.67    0.08
   5  -4  -6    0.67    0.07
   5  -4  -6    0.81    0.07
  -5   4   6    0.84    0.06
  -5   4   6    0.75    0.07
  -5   4   6    0.86    0.10
   4  -4  -6    0.07    0.03
   4  -4  -6    0.10    0.03
   4  -4  -6    0.08    0.05
   4  -4  -6    0.03    0.04
   4  -4  -6    0.00    0.04
  -4   4   6    0.07    0.05
  -4   4   6   -0.03    0.03
  -4   4   6    0.07    0.05
  -4   4   6    0.06    0.04
   3  -4  -6    0.86    0.07
   3  -4  -6    1.01    0.10
   3  -4  -6    0.81    0.07
   3  -4  -6    0.96    0.07
   3  -4  -6    0.82    0.06
   3  -4  -6    1.01    0.06
  -3   4   6    1.10    0.09
  -3   4   6    0.93    0.06
  -3   4   6    1.09    0.08
  -3   4   6    0.90    0.10
   2  -4  -6   -0.01    0.04
   2  -4  -6   -0.02    0.03
   2  -4  -6    0.00    0.02
   2  -4  -6    0.01    0.03
  -2   4   6    0.03    0.02
  -2   4   6   -0.02    0.04
  -2   4   6    0.01    0.04
  -2   4   6    0.00    0.03
   1  -4  -6   11.54    0.37
   1  -4  -6   11.46    0.34
   1  -4  -6   11.33    0.49
   1  -4  -6   11.47    0.37
  -1   4   6   11.57    0.35
  -1   4   6   11.77    0.36
  -1   4   6   10.32    0.48
  -1   4   6   10.57    0.49
  -1   4   6   11.72    0.33
   0  -4  -6    6.32    0.22
   0  -4  -6    6.22    0.22
   0  -4  -6    6.19    0.20
   0  -4  -6    6.26    0.30
   0   4   6    6.22    0.20
   0   4   6    6.91    0.30
   0   4   6    6.02    0.22
   0   4   6    6.50    0.20
   0   4   6    6.46    0.30
   0   4   6    6.22    0.19
  -1  -4  -6   16.19    0.51
  -1  -4  -6   14.13    0.69
  -1  -4  -6   18.29    0.70
  -1  -4  -6   16.55    0.48
  -1  -4  -6   16.73    0.52
   1   4   6   16.25    0.52
   1   4   6   16.63    0.49
   1   4   6   17.20    0.69
   1   4   6   17.02    0.46
   1   4   6   16.78    0.48
   1   4   6   15.17    0.69
  -2  -4  -6    0.84    0.07
  -2  -4  -6    0.84    0.09
  -2  -4  -6    0.73    0.09
  -2  -4  -6    0.71    0.06
  -2  -4  -6    0.82    0.06
   2   4   6    0.57    0.08
   2   4   6    0.79    0.09
   2   4   6    0.92    0.06
   2   4   6    0.87    0.06
   2   4   6    0.79    0.07
  -3  -4  -6    7.44    0.23
  -3  -4  -6    7.22    0.25
  -3  -4  -6    7.71    0.35
  -3  -4  -6    7.08    0.34
  -3  -4  -6    7.51    0.24
   3   4   6    8.10    0.35
   3   4   6    7.64    0.25
   3   4   6    7.41    0.24
   3   4   6    7.29    0.23
   3   4   6    6.90    0.34
   3   4   6    7.22    0.26
  -4  -4  -6   12.91    0.53
  -4  -4  -6   12.14    0.38
  -4  -4  -6   11.29    0.52
   4   4   6   11.82    0.40
   4   4   6   12.05    0.38
   4   4   6   12.71    0.53
   4   4   6   12.10    0.37
   4   4   6   11.74    0.39
  -5  -4  -6    5.23    0.27
  -5  -4  -6    5.25    0.19
  -5  -4  -6    5.99    0.27
   5   4   6    5.33    0.21
   5   4   6    5.09    0.19
   5   4   6    5.35    0.19
   5   4   6    5.42    0.27
   5   4   6    5.37    0.19
  -6  -4  -6    0.92    0.11
  -6  -4  -6    0.86    0.11
  -6  -4  -6    1.04    0.07
   6   4   6    0.93    0.08
   6   4   6    0.78    0.09
   6   4   6    0.72    0.07
   6   4   6    0.84    0.06
   6   4   6    0.66    0.07
  -7  -4  -6    5.54    0.19
  -7  -4  -6    5.80    0.28
  -7  -4  -6    5.82    0.29
   7   4   6    5.66    0.29
   7   4   6    5.41    0.21
   7   4   6    5.54    0.22
  -8  -4  -6    4.84    0.18
  -8  -4  -6    5.04    0.26
   8   4   6    4.94    0.21
   8   4   6    5.13    0.21
   8   4   6    4.97    0.26
  -9  -4  -6    7.61    0.37
  -9  -4  -6    7.68    0.26
   9   4   6    7.76    0.29
   9   4   6    7.59    0.29
 -10  -4  -6    2.87    0.13
 -10  -4  -6    2.72    0.14
 -10  -4  -6    2.57    0.18
  10   4   6    2.55    0.16
  10   4   6    2.75    0.17
 -11  -4  -6    2.01    0.15
  11   4   6    2.19    0.16
  11   4   6    1.84    0.15
   7  -5  -6    0.07    0.06
   7  -5  -6   -0.01    0.06
   7  -5  -6    0.10    0.07
  -7   5   6   -0.05    0.05
  -7   5   6    0.06    0.05
  -7   5   6   -0.06    0.06
   6  -5  -6    0.10    0.05
   6  -5  -6    0.08    0.05
  -6   5   6    0.06    0.04
  -6   5   6    0.09    0.06
  -6   5   6    0.15    0.06
   5  -5  -6    0.07    0.05
   5  -5  -6    0.14    0.05
  -5   5   6    0.20    0.05
  -5   5   6    0.15    0.06
  -5   5   6    0.12    0.04
   4  -5  -6    0.19    0.05
   4  -5  -6    0.22    0.05
   4  -5  -6    0.27    0.07
  -4   5   6    0.23    0.04
  -4   5   6    0.28    0.07
  -4   5   6    0.22    0.05
   3  -5  -6    0.02    0.05
   3  -5  -6   -0.02    0.04
   3  -5  -6   -0.02    0.03
   3  -5  -6   -0.09    0.04
   3  -5  -6   -0.02    0.03
  -3   5   6   -0.01    0.03
  -3   5   6    0.03    0.05
  -3   5   6    0.07    0.06
  -3   5   6   -0.01    0.04
   2  -5  -6    0.64    0.08
   2  -5  -6    0.62    0.06
   2  -5  -6    0.64    0.06
  -2   5   6    0.74    0.09
  -2   5   6    0.57    0.08
  -2   5   6    0.75    0.07
  -2   5   6    0.64    0.05
   1  -5  -6    0.06    0.03
   1  -5  -6    0.19    0.04
   1  -5  -6    0.05    0.05
  -1   5   6    0.10    0.03
  -1   5   6    0.03    0.05
  -1   5   6    0.04    0.03
  -1   5   6    0.04    0.05
   0  -5  -6    9.70    0.32
   0  -5  -6   10.02    0.44
   0  -5  -6    9.37    0.32
   0   5   6    9.67    0.30
   0   5   6   10.03    0.43
   0   5   6    9.64    0.32
   0   5   6    9.52    0.29
   0   5   6    9.86    0.44
  -1  -5  -6    0.28    0.04
  -1  -5  -6    0.36    0.04
  -1  -5  -6    0.30    0.07
   1   5   6    0.30    0.06
   1   5   6    0.28    0.02
   1   5   6    0.23    0.04
   1   5   6    0.28    0.03
   1   5   6    0.28    0.04
   1   5   6    0.33    0.06
  -2  -5  -6    0.86    0.07
  -2  -5  -6    0.83    0.10
   2   5   6    0.93    0.07
   2   5   6    0.89    0.06
   2   5   6    0.85    0.10
   2   5   6    0.81    0.09
  -3  -5  -6   10.46    0.50
  -3  -5  -6   11.50    0.37
  -3  -5  -6   11.70    0.51
   3   5   6   12.06    0.37
   3   5   6   11.58    0.35
   3   5   6   11.88    0.51
   3   5   6   11.28    0.38
  -4  -5  -6   67.83    2.49
  -4  -5  -6   57.01    2.48
  -4  -5  -6   61.13    1.82
   4   5   6   62.87    1.82
   4   5   6   60.82    1.74
   4   5   6   62.92    2.49
   4   5   6   62.12    1.89
  -5  -5  -6    0.62    0.09
  -5  -5  -6    0.56    0.05
  -5  -5  -6    0.74    0.09
   5   5   6    0.53    0.05
   5   5   6    0.55    0.06
   5   5   6    0.63    0.09
   5   5   6    0.48    0.05
   5   5   6    0.62    0.07
  -6  -5  -6   28.03    0.83
  -6  -5  -6   29.35    1.14
  -6  -5  -6   26.10    1.14
   6   5   6   28.36    0.83
   6   5   6   27.06    1.14
   6   5   6   27.36    0.87
   6   5   6   27.26    0.80
  -7  -5  -6    0.16    0.06
  -7  -5  -6    0.13    0.07
  -7  -5  -6    0.25    0.05
   7   5   6    0.21    0.07
   7   5   6    0.28    0.04
   7   5   6    0.13    0.05
   7   5   6    0.16    0.05
  -8  -5  -6    0.15    0.05
  -8  -5  -6    0.11    0.07
   8   5   6    0.09    0.06
   8   5   6    0.10    0.06
   8   5   6    0.06    0.07
  -9  -5  -6    9.21    0.44
  -9  -5  -6    9.51    0.31
   9   5   6    9.43    0.35
   9   5   6    9.53    0.33
 -10  -5  -6    2.69    0.19
 -10  -5  -6    2.96    0.15
  10   5   6    2.95    0.17
  10   5   6    2.67    0.17
 -11  -5  -6    0.25    0.08
 -11  -5  -6    0.33    0.07
  11   5   6    0.16    0.08
  11   5   6    0.14    0.08
   7  -6  -6    0.07    0.06
  -7   6   6    0.06    0.06
   6  -6  -6    1.76    0.14
   6  -6  -6    1.75    0.13
   6  -6  -6    1.97    0.15
  -6   6   6    1.63    0.14
  -6   6   6    1.63    0.11
  -6   6   6    1.80    0.15
   5  -6  -6    2.09    0.14
   5  -6  -6    2.29    0.13
   5  -6  -6    2.17    0.14
  -5   6   6    2.16    0.12
  -5   6   6    2.00    0.14
  -5   6   6    2.20    0.16
   4  -6  -6    0.52    0.07
   4  -6  -6    0.78    0.08
   4  -6  -6    0.65    0.08
  -4   6   6    0.63    0.07
  -4   6   6    0.73    0.06
  -4   6   6    0.78    0.10
   3  -6  -6    5.25    0.22
   3  -6  -6    5.49    0.28
  -3   6   6    5.16    0.19
  -3   6   6    5.35    0.28
  -3   6   6    5.65    0.22
   2  -6  -6    7.20    0.27
   2  -6  -6    7.23    0.36
   2  -6  -6    7.58    0.25
  -2   6   6    7.34    0.24
  -2   6   6    7.44    0.27
  -2   6   6    7.41    0.35
  -2   6   6    7.61    0.36
   1  -6  -6    4.13    0.16
   1  -6  -6    4.03    0.18
   1  -6  -6    4.24    0.23
  -1   6   6    4.59    0.24
  -1   6   6    4.73    0.23
  -1   6   6    3.95    0.15
  -1   6   6    4.03    0.16
   0  -6  -6    2.34    0.11
   0  -6  -6    2.24    0.12
   0  -6  -6    2.25    0.16
   0   6   6    2.48    0.16
   0   6   6    2.20    0.11
   0   6   6    2.54    0.16
   0   6   6    2.23    0.11
   0   6   6    2.31    0.10
  -1  -6  -6    4.14    0.17
  -1  -6  -6    4.05    0.23
   1   6   6    4.13    0.16
   1   6   6    3.99    0.23
   1   6   6    4.21    0.15
   1   6   6    4.30    0.15
  -2  -6  -6   -0.06    0.03
  -2  -6  -6    0.03    0.06
  -2  -6  -6    0.02    0.02
   2   6   6    0.01    0.03
   2   6   6    0.03    0.03
   2   6   6    0.01    0.03
   2   6   6    0.00    0.06
  -3  -6  -6    4.90    0.18
  -3  -6  -6    4.81    0.26
   3   6   6    4.80    0.18
   3   6   6    5.14    0.27
   3   6   6    5.05    0.19
  -4  -6  -6   23.48    0.98
  -4  -6  -6   23.71    0.71
   4   6   6   24.06    0.68
   4   6   6   23.92    0.74
   4   6   6   21.77    0.98
  -5  -6  -6   17.44    0.74
  -5  -6  -6   17.35    0.53
  -5  -6  -6   16.38    0.73
   5   6   6   17.96    0.53
   5   6   6   17.24    0.51
   5   6   6   15.97    0.73
   5   6   6   17.24    0.56
  -6  -6  -6   17.03    0.70
  -6  -6  -6   15.97    0.70
  -6  -6  -6   16.00    0.50
   6   6   6   16.17    0.54
   6   6   6   16.01    0.50
   6   6   6   16.72    0.70
   6   6   6   15.60    0.49
  -7  -6  -6    0.75    0.07
  -7  -6  -6    0.76    0.10
  -7  -6  -6    0.85    0.10
  -7  -6  -6    0.75    0.06
   7   6   6    0.91    0.10
   7   6   6    0.74    0.06
   7   6   6    0.51    0.07
   7   6   6    0.69    0.08
  -8  -6  -6    0.67    0.07
  -8  -6  -6    0.56    0.09
   8   6   6    0.65    0.10
   8   6   6    0.50    0.07
   8   6   6    0.53    0.08
  -9  -6  -6    1.47    0.15
  -9  -6  -6    1.43    0.12
   9   6   6    1.32    0.13
   9   6   6    1.70    0.13
 -10  -6  -6    3.06    0.21
 -10  -6  -6    3.34    0.17
  10   6   6    3.48    0.18
  10   6   6    3.10    0.19
 -11  -6  -6    4.53    0.21
 -11  -6  -6    4.65    0.26
  11   6   6    4.70    0.23
  11   6   6    4.99    0.23
   6  -7  -6    0.22    0.08
   6  -7  -6    0.18    0.07
  -6   7   6    0.35    0.09
  -6   7   6    0.25    0.07
   5  -7  -6    0.95    0.09
   5  -7  -6    0.99    0.10
   5  -7  -6    0.99    0.11
  -5   7   6    1.22    0.10
  -5   7   6    1.20    0.14
  -5   7   6    1.18    0.10
   4  -7  -6    0.14    0.06
   4  -7  -6    0.13    0.05
   4  -7  -6    0.10    0.07
  -4   7   6    0.13    0.06
  -4   7   6    0.11    0.07
  -4   7   6    0.21    0.05
   3  -7  -6    7.37    0.37
   3  -7  -6    7.69    0.29
   3  -7  -6    7.72    0.28
  -3   7   6    7.37    0.25
  -3   7   6    7.83    0.38
  -3   7   6    7.51    0.29
   2  -7  -6    0.73    0.07
   2  -7  -6    0.65    0.07
   2  -7  -6    0.69    0.10
  -2   7   6    0.57    0.06
  -2   7   6    0.61    0.10
  -2   7   6    0.60    0.06
   1  -7  -6    1.93    0.11
   1  -7  -6    1.79    0.12
   1  -7  -6    1.78    0.16
   1  -7  -6    1.88    0.10
  -1   7   6    1.91    0.09
  -1   7   6    1.90    0.10
  -1   7   6    1.84    0.16
   0  -7  -6    2.66    0.12
   0  -7  -6    2.82    0.14
   0  -7  -6    2.62    0.18
   0   7   6    2.56    0.12
   0   7   6    2.66    0.11
   0   7   6    2.66    0.19
  -1  -7  -6   22.38    0.69
  -1  -7  -6   21.66    0.95
   1   7   6   22.19    0.70
   1   7   6   22.80    0.95
   1   7   6   22.67    0.66
   1   7   6   22.54    0.63
  -2  -7  -6   16.35    0.52
  -2  -7  -6   16.95    0.72
   2   7   6   16.19    0.53
   2   7   6   17.32    0.72
   2   7   6   16.34    0.50
   2   7   6   16.03    0.48
  -3  -7  -6   11.48    0.38
  -3  -7  -6   11.43    0.53
   3   7   6   11.99    0.37
   3   7   6   11.66    0.39
   3   7   6   11.56    0.35
   3   7   6   11.49    0.53
  -4  -7  -6    3.27    0.21
  -4  -7  -6    3.30    0.14
   4   7   6    3.09    0.21
   4   7   6    3.50    0.16
   4   7   6    2.95    0.14
  -5  -7  -6    0.03    0.02
  -5  -7  -6    0.10    0.04
  -5  -7  -6   -0.01    0.07
   5   7   6    0.09    0.05
   5   7   6    0.08    0.05
   5   7   6    0.07    0.08
  -6  -7  -6   53.93    1.53
  -6  -7  -6   51.03    2.11
   6   7   6   53.30    1.52
   6   7   6   52.97    1.61
   6   7   6   47.05    2.10
   6   7   6   54.16    1.48
  -7  -7  -6    0.67    0.06
  -7  -7  -6    0.56    0.10
   7   7   6    0.65    0.10
   7   7   6    0.42    0.07
   7   7   6    0.60    0.08
  -8  -7  -6    0.00    0.07
  -8  -7  -6   -0.10    0.05
   8   7   6   -0.05    0.05
   8   7   6   -0.03    0.07
   8   7   6   -0.11    0.05
  -9  -7  -6    3.21    0.22
  -9  -7  -6    3.30    0.16
   9   7   6    3.14    0.18
   9   7   6    3.10    0.17
 -10  -7  -6    0.17    0.06
 -10  -7  -6    0.10    0.08
  10   7   6    0.30    0.08
  10   7   6    0.19    0.07
 -11  -7  -6    0.26    0.09
 -11  -7  -6    0.21    0.07
  11   7   6    0.13    0.08
  11   7   6    0.31    0.08
   5  -8  -6    1.22    0.12
  -5   8   6    1.83    0.15
  -5   8   6    1.62    0.17
   4  -8  -6    0.72    0.09
  -4   8   6    0.71    0.08
  -4   8   6    0.92    0.12
  -4   8   6    0.70    0.09
   3  -8  -6    1.08    0.10
  -3   8   6    0.91    0.09
  -3   8   6    1.24    0.10
  -3   8   6    1.07    0.13
   2  -8  -6    2.63    0.15
   2  -8  -6    2.91    0.21
  -2   8   6    2.61    0.13
  -2   8   6    2.53    0.20
   1  -8  -6    0.12    0.05
   1  -8  -6    0.14    0.08
  -1   8   6    0.10    0.04
  -1   8   6    0.04    0.08
  -1   8   6    0.17    0.03
   0  -8  -6   -0.08    0.06
   0  -8  -6    0.02    0.05
   0   8   6   -0.04    0.07
   0   8   6    0.03    0.03
   0   8   6   -0.02    0.04
  -1  -8  -6   18.56    0.58
  -1  -8  -6   19.17    0.80
   1   8   6   18.18    0.53
   1   8   6   18.56    0.56
   1   8   6   18.59    0.59
   1   8   6   17.27    0.80
  -2  -8  -6   11.86    0.39
  -2  -8  -6   12.38    0.55
   2   8   6   11.93    0.38
   2   8   6   11.55    0.55
   2   8   6   11.86    0.40
   2   8   6   11.62    0.36
  -3  -8  -6    8.34    0.41
  -3  -8  -6    7.99    0.28
   3   8   6    7.84    0.26
   3   8   6    8.67    0.41
   3   8   6    8.40    0.29
   3   8   6    7.70    0.27
  -4  -8  -6    0.53    0.06
  -4  -8  -6    0.52    0.10
   4   8   6    0.54    0.10
   4   8   6    0.55    0.06
   4   8   6    0.39    0.05
   4   8   6    0.47    0.06
  -5  -8  -6    0.08    0.03
  -5  -8  -6    0.06    0.04
  -5  -8  -6    0.03    0.08
   5   8   6    0.03    0.05
   5   8   6    0.03    0.05
   5   8   6   -0.07    0.07
  -6  -8  -6   16.37    0.52
  -6  -8  -6   16.65    0.74
   6   8   6   17.25    0.52
   6   8   6   16.76    0.56
   6   8   6   17.13    0.74
  -7  -8  -6    0.17    0.09
  -7  -8  -6    0.18    0.04
   7   8   6    0.16    0.06
   7   8   6    0.14    0.06
  -8  -8  -6    9.30    0.45
  -8  -8  -6    8.91    0.30
  -8  -8  -6    9.47    0.32
   8   8   6    9.07    0.35
   8   8   6    9.43    0.32
   8   8   6    9.10    0.44
  -9  -8  -6    0.01    0.07
  -9  -8  -6   -0.05    0.05
   9   8   6   -0.02    0.06
   9   8   6   -0.11    0.06
 -10  -8  -6    0.23    0.07
 -10  -8  -6    0.13    0.08
  10   8   6    0.16    0.07
  10   8   6    0.14    0.07
 -11  -8  -6    0.38    0.09
  11   8   6    0.36    0.09
   4  -9  -6    0.32    0.08
  -4   9   6    0.33    0.10
  -4   9   6    0.33    0.08
   3  -9  -6    0.28    0.07
  -3   9   6    0.45    0.07
  -3   9   6    0.46    0.10
   2  -9  -6    0.36    0.08
   2  -9  -6    0.48    0.10
  -2   9   6    0.39    0.10
  -2   9   6    0.47    0.06
   1  -9  -6    7.61    0.29
   1  -9  -6    7.85    0.40
  -1   9   6    7.44    0.26
  -1   9   6    7.66    0.26
  -1   9   6    7.88    0.40
   0  -9  -6    0.26    0.09
   0  -9  -6    0.24    0.06
   0   9   6    0.34    0.09
   0   9   6    0.23    0.05
   0   9   6    0.24    0.04
  -1  -9  -6    0.00    0.05
  -1  -9  -6   -0.03    0.07
   1   9   6   -0.09    0.07
   1   9   6    0.04    0.04
   1   9   6   -0.04    0.03
  -2  -9  -6    0.11    0.08
  -2  -9  -6    0.10    0.05
   2   9   6    0.05    0.05
   2   9   6    0.18    0.05
   2   9   6    0.18    0.05
   2   9   6    0.02    0.07
  -3  -9  -6    5.32    0.31
  -3  -9  -6    5.81    0.22
   3   9   6    5.42    0.22
   3   9   6    5.40    0.21
   3   9   6    5.50    0.20
   3   9   6    5.56    0.31
  -4  -9  -6    0.54    0.11
  -4  -9  -6    0.61    0.06
   4   9   6    0.64    0.11
   4   9   6    0.43    0.06
   4   9   6    0.40    0.06
   4   9   6    0.39    0.06
  -5  -9  -6    0.07    0.08
  -5  -9  -6    0.07    0.04
   5   9   6   -0.04    0.07
   5   9   6   -0.06    0.04
   5   9   6   -0.03    0.05
   5   9   6    0.02    0.04
  -6  -9  -6    0.13    0.04
  -6  -9  -6    0.03    0.08
   6   9   6    0.02    0.05
   6   9   6    0.10    0.05
   6   9   6    0.06    0.08
  -7  -9  -6    0.79    0.06
  -7  -9  -6    0.77    0.12
   7   9   6    0.94    0.09
   7   9   6    0.96    0.13
   7   9   6    0.72    0.09
  -8  -9  -6   13.30    0.43
  -8  -9  -6   12.73    0.60
   8   9   6   13.00    0.47
   8   9   6   13.10    0.43
  -9  -9  -6    0.40    0.10
  -9  -9  -6    0.42    0.08
   9   9   6    0.39    0.08
   9   9   6    0.21    0.07
 -10  -9  -6    0.05    0.06
 -10  -9  -6   -0.05    0.07
  10   9   6    0.02    0.07
  10   9   6   -0.12    0.06
   2 -10  -6    0.05    0.07
  -2  10   6   -0.07    0.08
   1 -10  -6    0.09    0.06
   1 -10  -6    0.01    0.08
  -1  10   6   -0.09    0.04
  -1  10   6    0.02    0.08
   0 -10  -6    0.82    0.09
   0 -10  -6    0.60    0.12
   0  10   6    0.68    0.12
   0  10   6    0.62    0.07
  -1 -10  -6    0.04    0.05
  -1 -10  -6   -0.06    0.08
   1  10   6    0.00    0.04
   1  10   6    0.00    0.08
   1  10   6   -0.05    0.04
  -2 -10  -6   -0.04    0.08
  -2 -10  -6    0.02    0.05
   2  10   6    0.00    0.04
   2  10   6    0.00    0.04
   2  10   6    0.00    0.08
  -3 -10  -6    3.93    0.18
  -3 -10  -6    3.90    0.26
   3  10   6    4.33    0.27
   3  10   6    3.94    0.18
   3  10   6    3.83    0.16
   3  10   6    4.07    0.18
  -4 -10  -6    0.21    0.05
  -4 -10  -6    0.13    0.09
   4  10   6    0.17    0.05
   4  10   6    0.16    0.05
   4  10   6    0.17    0.09
   4  10   6    0.13    0.05
  -5 -10  -6    1.63    0.18
  -5 -10  -6    1.34    0.10
   5  10   6    1.59    0.12
   5  10   6    1.58    0.12
   5  10   6    1.47    0.10
   5  10   6    1.45    0.17
  -6 -10  -6    0.32    0.11
  -6 -10  -6    0.40    0.06
   6  10   6    0.33    0.06
   6  10   6    0.40    0.06
   6  10   6    0.35    0.10
   6  10   6    0.35    0.07
  -7 -10  -6    2.31    0.22
   7  10   6    2.33    0.22
   7  10   6    2.34    0.14
   7  10   6    2.52    0.16
  -8 -10  -6    2.16    0.21
  -8 -10  -6    1.96    0.16
   8  10   6    2.13    0.15
   8  10   6    2.33    0.15
  -9 -10  -6    1.21    0.15
  -9 -10  -6    1.28    0.11
   9  10   6    1.04    0.11
   9  10   6    1.29    0.11
   1 -11  -6    0.10    0.07
   1 -11  -6    0.12    0.10
   0 -11  -6    1.77    0.20
   0 -11  -6    1.84    0.15
   0  11   6    1.65    0.20
  -1 -11  -6    0.02    0.05
  -1 -11  -6    0.00    0.09
   1  11   6   -0.08    0.08
  -2 -11  -6   -0.03    0.09
  -2 -11  -6    0.04    0.06
   2  11   6   -0.01    0.04
   2  11   6    0.02    0.09
  -3 -11  -6    0.93    0.14
  -3 -11  -6    0.84    0.08
   3  11   6    0.80    0.09
   3  11   6    0.93    0.08
   3  11   6    0.99    0.14
   3  11   6    0.73    0.08
  -4 -11  -6    1.87    0.13
  -4 -11  -6    2.15    0.21
   4  11   6    1.75    0.13
   4  11   6    1.80    0.20
   4  11   6    1.79    0.12
   4  11   6    1.79    0.13
  -5 -11  -6    6.24    0.24
  -5 -11  -6    6.02    0.36
   5  11   6    5.97    0.23
   5  11   6    5.94    0.26
   5  11   6    6.09    0.36
   5  11   6    6.24    0.24
  -6 -11  -6    0.05    0.05
  -6 -11  -6    0.05    0.10
   6  11   6    0.04    0.06
   6  11   6    0.02    0.06
   6  11   6    0.02    0.09
  -7 -11  -6    0.29    0.11
   7  11   6    0.15    0.07
   7  11   6    0.09    0.06
   7  11   6    0.21    0.10
  -8 -11  -6   -0.09    0.06
  -8 -11  -6   -0.09    0.09
   8  11   6   -0.04    0.06
   8  11   6   -0.06    0.06
  -2 -12  -6   -0.01    0.10
  -2 -12  -6    0.02    0.06
   2  12   6    0.03    0.10
  -3 -12  -6    1.40    0.12
  -3 -12  -6    1.43    0.18
   3  12   6    1.48    0.12
   3  12   6    1.60    0.18
  -4 -12  -6    0.27    0.12
  -4 -12  -6    0.25    0.07
   4  12   6    0.41    0.08
   4  12   6    0.36    0.12
   4  12   6    0.31    0.07
  -5 -12  -6    1.92    0.21
  -5 -12  -6    1.74    0.13
   5  12   6    1.97    0.14
   5  12   6    1.70    0.21
   5  12   6    1.70    0.14
  -6 -12  -6    0.20    0.11
   6  12   6    0.22    0.10
   6  12   6    0.27    0.07
   6  12   6    0.21    0.07
   7  12   6    0.00    0.07
   6   8  -7    2.10    0.13
  -6  -8   7    1.95    0.14
  -6  -8   7    2.07    0.18
  -6  -8   7    1.96    0.15
   5   8  -7    0.08    0.05
  -5  -8   7    0.09    0.08
  -5  -8   7    0.02    0.05
  -5  -8   7   -0.02    0.05
  -5  -8   7    0.08    0.06
   4   8  -7    2.72    0.15
  -4  -8   7    2.89    0.16
  -4  -8   7    2.70    0.22
  -4  -8   7    2.62    0.16
   3   8  -7    0.14    0.08
   3   8  -7    0.13    0.06
  -3  -8   7    0.08    0.06
  -3  -8   7    0.05    0.06
  -3  -8   7    0.10    0.09
   2   8  -7    1.02    0.10
   2   8  -7    1.04    0.14
  -2  -8   7    0.80    0.09
  -2  -8   7    0.80    0.13
   1   8  -7    3.79    0.19
   1   8  -7    3.88    0.27
  -1  -8   7    3.70    0.27
  -1  -8   7    3.66    0.20
   0   8  -7    0.29    0.10
   0   8  -7    0.35    0.07
   0  -8   7    0.31    0.11
   0  -8   7    0.40    0.08
  -1   8  -7    8.51    0.33
  -1   8  -7    8.77    0.46
   1  -8   7    8.77    0.33
   1  -8   7    8.69    0.46
   7   7  -7    0.02    0.07
  -7  -7   7    0.13    0.06
  -7  -7   7   -0.09    0.06
  -7  -7   7    0.13    0.07
   6   7  -7    0.03    0.04
  -6  -7   7    0.07    0.05
  -6  -7   7    0.03    0.06
  -6  -7   7    0.08    0.05
  -6  -7   7    0.06    0.07
   5   7  -7    0.80    0.08
  -5  -7   7    0.92    0.08
  -5  -7   7    0.70    0.09
  -5  -7   7    0.80    0.08
  -5  -7   7    0.72    0.11
   4   7  -7    0.23    0.05
  -4  -7   7    0.22    0.06
  -4  -7   7    0.28    0.06
  -4  -7   7    0.20    0.05
  -4  -7   7    0.18    0.08
   3   7  -7    0.40    0.10
   3   7  -7    0.53    0.07
  -3  -7   7    0.38    0.07
  -3  -7   7    0.55    0.07
  -3  -7   7    0.35    0.10
  -3  -7   7    0.42    0.06
   2   7  -7    5.04    0.22
   2   7  -7    5.10    0.30
  -2  -7   7    5.34    0.22
  -2  -7   7    5.12    0.30
   1   7  -7    2.77    0.22
   1   7  -7    3.16    0.16
  -1  -7   7    3.15    0.17
  -1  -7   7    2.97    0.23
   0   7  -7    2.23    0.15
   0   7  -7    2.17    0.20
   0  -7   7    2.46    0.21
   0  -7   7    2.08    0.15
  -1   7  -7    0.85    0.09
  -1   7  -7    1.02    0.14
   1  -7   7    0.70    0.09
   1  -7   7    0.95    0.14
  -2   7  -7   -0.01    0.05
  -2   7  -7    0.04    0.06
  -2   7  -7   -0.02    0.08
   2  -7   7    0.08    0.06
   2  -7   7    0.07    0.09
  -3   7  -7    4.41    0.21
  -3   7  -7    4.62    0.30
  -3   7  -7    4.51    0.19
   3  -7   7    5.12    0.23
   3  -7   7    4.52    0.31
   8   6  -7   -0.09    0.07
  -8  -6   7    0.14    0.07
  -8  -6   7    0.11    0.06
   7   6  -7    3.34    0.20
  -7  -6   7    3.00    0.20
  -7  -6   7    3.47    0.19
   6   6  -7    0.14    0.04
   6   6  -7    0.15    0.07
  -6  -6   7    0.04    0.06
  -6  -6   7    0.12    0.05
  -6  -6   7    0.16    0.06
  -6  -6   7    0.17    0.06
   5   6  -7    0.31    0.07
   5   6  -7    0.37    0.06
  -5  -6   7    0.28    0.07
  -5  -6   7    0.40    0.06
  -5  -6   7    0.32    0.06
  -5  -6   7    0.38    0.08
   4   6  -7    1.94    0.11
   4   6  -7    1.83    0.15
  -4  -6   7    1.71    0.16
  -4  -6   7    1.88    0.12
  -4  -6   7    1.77    0.11
  -4  -6   7    1.69    0.13
   3   6  -7    2.58    0.19
   3   6  -7    2.66    0.14
  -3  -6   7    2.70    0.15
  -3  -6   7    2.52    0.14
  -3  -6   7    2.45    0.19
  -3  -6   7    2.46    0.12
   2   6  -7   28.70    0.86
   2   6  -7   29.08    1.22
  -2  -6   7   28.88    1.21
  -2  -6   7   28.63    0.83
  -2  -6   7   29.43    0.86
   1   6  -7    4.56    0.19
   1   6  -7    4.20    0.26
  -1  -6   7    4.26    0.19
  -1  -6   7    4.06    0.26
   0   6  -7   11.96    0.40
   0   6  -7   11.79    0.36
   0   6  -7   12.56    0.57
   0  -6   7   11.97    0.40
   0  -6   7   12.28    0.57
  -1   6  -7    0.08    0.08
  -1   6  -7    0.12    0.04
  -1   6  -7    0.19    0.06
   1  -6   7    0.11    0.06
   1  -6   7    0.10    0.09
  -2   6  -7    0.11    0.06
  -2   6  -7    0.00    0.08
  -2   6  -7    0.05    0.04
   2  -6   7    0.09    0.06
   2  -6   7    0.04    0.09
  -3   6  -7    0.14    0.05
  -3   6  -7    0.24    0.07
  -3   6  -7    0.22    0.09
   3  -6   7    0.24    0.10
   3  -6   7    0.12    0.07
  -4   6  -7    0.25    0.07
  -4   6  -7    0.35    0.10
  -4   6  -7    0.24    0.06
  -4   6  -7    0.26    0.07
   4  -6   7    0.51    0.12
   4  -6   7    0.28    0.07
   8   5  -7    1.73    0.16
  -8  -5   7    1.88    0.15
  -8  -5   7    1.63    0.12
   7   5  -7    0.47    0.08
  -7  -5   7    0.36    0.07
  -7  -5   7    0.41    0.07
   6   5  -7    0.32    0.07
   6   5  -7    0.30    0.04
  -6  -5   7    0.33    0.07
  -6  -5   7    0.38    0.05
  -6  -5   7    0.28    0.07
   5   5  -7    2.55    0.16
   5   5  -7    2.42    0.12
  -5  -5   7    2.53    0.14
  -5  -5   7    2.15    0.16
  -5  -5   7    2.59    0.13
   4   5  -7    0.13    0.06
   4   5  -7    0.18    0.04
   4   5  -7    0.09    0.06
  -4  -5   7    0.18    0.05
  -4  -5   7    0.12    0.05
  -4  -5   7    0.17    0.05
  -4  -5   7    0.11    0.06
   3   5  -7    4.46    0.25
   3   5  -7    4.34    0.17
  -3  -5   7    4.23    0.25
  -3  -5   7    4.70    0.18
  -3  -5   7    4.37    0.19
  -3  -5   7    4.15    0.16
   2   5  -7   15.28    0.70
   2   5  -7   16.53    0.50
  -2  -5   7   16.24    0.47
  -2  -5   7   15.36    0.70
  -2  -5   7   16.55    0.50
   1   5  -7    0.29    0.06
   1   5  -7    0.17    0.08
   1   5  -7    0.17    0.03
  -1  -5   7    0.03    0.04
  -1  -5   7    0.30    0.06
  -1  -5   7    0.21    0.09
   0   5  -7   64.81    1.73
   0   5  -7   64.33    2.59
   0   5  -7   64.38    1.83
   0  -5   7   64.35    2.59
   0  -5   7   62.42    1.73
   0  -5   7   64.79    1.83
  -1   5  -7    0.50    0.10
  -1   5  -7    0.41    0.05
  -1   5  -7    0.38    0.06
   1  -5   7    0.52    0.10
   1  -5   7    0.48    0.04
   1  -5   7    0.44    0.07
  -2   5  -7    0.73    0.06
  -2   5  -7    0.59    0.10
  -2   5  -7    0.62    0.07
   2  -5   7    0.58    0.10
   2  -5   7    0.74    0.08
   2  -5   7    0.75    0.05
  -3   5  -7    0.33    0.09
  -3   5  -7    0.40    0.06
  -3   5  -7    0.36    0.06
   3  -5   7    0.38    0.04
   3  -5   7    0.23    0.09
   3  -5   7    0.23    0.06
  -4   5  -7    0.46    0.06
  -4   5  -7    0.48    0.07
  -4   5  -7    0.32    0.06
  -4   5  -7    0.45    0.10
   4  -5   7    0.45    0.06
   4  -5   7    0.39    0.07
   4  -5   7    0.55    0.11
  -5   5  -7    9.05    0.36
  -5   5  -7    9.70    0.34
  -5   5  -7    9.38    0.48
   5  -5   7   10.11    0.35
   5  -5   7    9.75    0.49
   5  -5   7    9.64    0.31
  -6   5  -7    0.04    0.06
  -6   5  -7    0.27    0.07
   6  -5   7    0.15    0.07
   6  -5   7    0.28    0.07
   9   4  -7    5.74    0.28
   8   4  -7    0.47    0.09
   7   4  -7   -0.04    0.06
  -7  -4   7    0.00    0.04
  -7  -4   7   -0.03    0.05
   6   4  -7    0.82    0.09
   6   4  -7    0.89    0.07
  -6  -4   7    0.83    0.06
  -6  -4   7    0.83    0.08
  -6  -4   7    0.77    0.09
   5   4  -7    4.39    0.17
   5   4  -7    5.02    0.22
  -5  -4   7    4.61    0.24
  -5  -4   7    4.92    0.20
  -5  -4   7    4.84    0.18
   4   4  -7    0.09    0.05
   4   4  -7    0.06    0.05
   4   4  -7    0.05    0.04
  -4  -4   7   -0.02    0.04
  -4  -4   7    0.02    0.04
  -4  -4   7    0.03    0.06
   3   4  -7    2.07    0.13
   3   4  -7    2.03    0.15
   3   4  -7    2.06    0.11
  -3  -4   7    2.07    0.12
  -3  -4   7    2.09    0.12
  -3  -4   7    1.93    0.16
  -3  -4   7    1.86    0.16
   2   4  -7    0.08    0.07
   2   4  -7    0.31    0.05
   2   4  -7    0.30    0.06
  -2  -4   7    0.28    0.05
  -2  -4   7    0.02    0.07
   1   4  -7    0.06    0.06
   1   4  -7    0.15    0.05
  -1  -4   7    0.04    0.05
  -1  -4   7    0.05    0.01
  -1  -4   7    0.08    0.07
  -1  -4   7    0.10    0.02
   0   4  -7   10.22    0.49
   0   4  -7   10.89    0.35
   0  -4   7   10.88    0.31
   0  -4   7   10.48    0.49
   0  -4   7   11.03    0.35
   0  -4   7   10.70    0.31
  -1   4  -7    0.08    0.05
  -1   4  -7    0.10    0.08
   1  -4   7    0.11    0.02
   1  -4   7    0.08    0.03
   1  -4   7    0.10    0.08
   1  -4   7    0.10    0.05
  -2   4  -7   23.27    0.96
  -2   4  -7   22.32    0.67
   2  -4   7   21.54    0.62
   2  -4   7   23.49    0.96
   2  -4   7   22.19    0.68
   2  -4   7   21.31    0.62
  -3   4  -7    0.99    0.08
  -3   4  -7    1.21    0.14
   3  -4   7    1.11    0.07
   3  -4   7    1.00    0.13
   3  -4   7    1.08    0.09
  -4   4  -7    7.51    0.28
  -4   4  -7    7.78    0.39
  -4   4  -7    7.41    0.29
   4  -4   7    7.99    0.39
   4  -4   7    7.63    0.28
   4  -4   7    7.50    0.25
  -5   4  -7    0.01    0.05
  -5   4  -7    0.15    0.08
  -5   4  -7    0.03    0.05
   5  -4   7   -0.05    0.05
   5  -4   7   -0.01    0.05
   5  -4   7   -0.03    0.08
  -6   4  -7    0.20    0.09
  -6   4  -7    0.22    0.06
  -6   4  -7    0.19    0.07
   6  -4   7    0.16    0.10
   6  -4   7    0.34    0.07
   6  -4   7    0.15    0.06
  -7   4  -7    0.13    0.06
  -7   4  -7    0.24    0.07
   7  -4   7    0.24    0.07
   7  -4   7    0.17    0.07
   9   3  -7   -0.21    0.07
   8   3  -7    0.73    0.10
   7   3  -7    2.12    0.15
  -7  -3   7    1.97    0.14
  -7  -3   7    1.99    0.12
   6   3  -7    2.49    0.16
   6   3  -7    2.31    0.10
   6   3  -7    2.48    0.11
  -6  -3   7    2.56    0.15
  -6  -3   7    2.42    0.11
  -6  -3   7    2.36    0.14
   5   3  -7    2.62    0.15
   5   3  -7    2.51    0.11
   5   3  -7    2.53    0.15
  -5  -3   7    2.67    0.14
  -5  -3   7    2.42    0.15
  -5  -3   7    2.68    0.12
   4   3  -7    0.66    0.06
   4   3  -7    0.77    0.09
   4   3  -7    0.77    0.08
  -4  -3   7    0.68    0.06
  -4  -3   7    0.79    0.09
  -4  -3   7    0.65    0.07
  -4  -3   7    0.55    0.08
   3   3  -7   31.27    1.41
   3   3  -7   36.37    1.08
   3   3  -7   35.76    1.00
  -3  -3   7   33.63    1.42
  -3  -3   7   34.41    1.42
  -3  -3   7   36.45    1.01
  -3  -3   7   36.07    1.05
   2   3  -7    0.94    0.10
   2   3  -7    0.75    0.07
   2   3  -7    0.88    0.08
  -2  -3   7    0.74    0.07
  -2  -3   7    0.95    0.11
  -2  -3   7    0.86    0.10
   1   3  -7   -0.03    0.04
   1   3  -7    0.06    0.05
   1   3  -7   -0.03    0.04
  -1  -3   7    0.04    0.01
  -1  -3   7   -0.05    0.04
  -1  -3   7    0.06    0.06
  -1  -3   7    0.04    0.06
   0   3  -7    0.01    0.05
   0   3  -7   -0.01    0.04
   0  -3   7    0.03    0.02
   0  -3   7    0.01    0.06
   0  -3   7    0.03    0.04
   0  -3   7    0.03    0.02
  -1   3  -7    0.06    0.06
  -1   3  -7    0.00    0.04
   1  -3   7    0.01    0.02
   1  -3   7    0.01    0.07
   1  -3   7   -0.08    0.04
   1  -3   7   -0.04    0.02
  -2   3  -7   58.04    1.69
  -2   3  -7   61.20    2.39
   2  -3   7   59.97    2.39
   2  -3   7   57.83    1.60
   2  -3   7   58.83    1.69
  -3   3  -7    0.29    0.05
  -3   3  -7    0.34    0.08
   3  -3   7    0.31    0.06
   3  -3   7    0.29    0.08
  -4   3  -7    6.51    0.34
  -4   3  -7    6.22    0.24
  -4   3  -7    6.21    0.24
   4  -3   7    6.52    0.24
   4  -3   7    6.86    0.34
  -5   3  -7    1.18    0.11
  -5   3  -7    1.17    0.14
  -5   3  -7    1.39    0.11
   5  -3   7    1.10    0.13
   5  -3   7    1.35    0.11
   5  -3   7    1.35    0.09
  -6   3  -7    0.45    0.07
  -6   3  -7    0.41    0.07
  -6   3  -7    0.36    0.09
   6  -3   7    0.40    0.06
   6  -3   7    0.42    0.10
   6  -3   7    0.36    0.07
  -7   3  -7    2.30    0.14
  -7   3  -7    2.09    0.19
  -7   3  -7    2.35    0.16
   7  -3   7    2.42    0.16
   7  -3   7    2.42    0.15
   7  -3   7    2.29    0.14
  -8   3  -7    0.31    0.08
  -8   3  -7    0.23    0.06
   9   2  -7   -0.01    0.07
   8   2  -7    0.00    0.07
   7   2  -7    0.84    0.06
   7   2  -7    0.88    0.08
   7   2  -7    0.71    0.09
  -7  -2   7    0.89    0.07
  -7  -2   7    0.77    0.09
   6   2  -7    2.12    0.09
   6   2  -7    2.23    0.09
   6   2  -7    2.15    0.14
   6   2  -7    2.31    0.11
  -6  -2   7    2.34    0.10
  -6  -2   7    2.09    0.13
  -6  -2   7    2.30    0.14
   5   2  -7    0.18    0.06
   5   2  -7    0.10    0.04
   5   2  -7    0.07    0.03
   5   2  -7    0.07    0.04
  -5  -2   7    0.07    0.05
  -5  -2   7    0.13    0.05
  -5  -2   7    0.08    0.03
  -5  -2   7    0.08    0.05
   4   2  -7    4.55    0.17
   4   2  -7    4.54    0.16
   4   2  -7    4.37    0.23
   4   2  -7    4.40    0.18
   4   2  -7    4.68    0.20
  -4  -2   7    4.36    0.19
  -4  -2   7    4.50    0.23
  -4  -2   7    4.72    0.23
  -4  -2   7    4.68    0.17
   3   2  -7   15.41    0.63
   3   2  -7   14.64    0.47
   3   2  -7   14.29    0.45
   3   2  -7   14.69    0.49
   3   2  -7   14.44    0.48
  -3  -2   7   14.74    0.47
  -3  -2   7   15.17    0.63
  -3  -2   7   15.68    0.64
  -3  -2   7   14.65    0.45
   2   2  -7    0.12    0.03
   2   2  -7    0.11    0.05
   2   2  -7    0.10    0.06
   2   2  -7    0.10    0.04
   2   2  -7    0.07    0.04
  -2  -2   7    0.11    0.04
  -2  -2   7    0.11    0.06
  -2  -2   7    0.14    0.06
   1   2  -7    1.05    0.11
   1   2  -7    1.03    0.09
   1   2  -7    1.07    0.06
   1   2  -7    1.07    0.08
  -1  -2   7    1.12    0.11
  -1  -2   7    1.21    0.12
  -1  -2   7    1.08    0.09
   0   2  -7    0.14    0.04
   0   2  -7    0.05    0.04
   0   2  -7    0.14    0.06
   0  -2   7    0.06    0.04
   0  -2   7    0.10    0.02
   0  -2   7    0.26    0.07
   0  -2   7    0.13    0.02
   0  -2   7    0.16    0.06
  -1   2  -7    0.00    0.04
  -1   2  -7    0.00    0.05
   1  -2   7    0.03    0.02
   1  -2   7   -0.01    0.06
   1  -2   7    0.00    0.02
   1  -2   7    0.11    0.04
  -2   2  -7    5.88    0.30
  -2   2  -7    5.66    0.21
   2  -2   7    5.87    0.18
   2  -2   7    5.82    0.30
   2  -2   7    5.78    0.19
  -3   2  -7   26.29    1.09
  -3   2  -7   26.10    0.82
  -3   2  -7   26.03    0.77
   3  -2   7   25.37    1.09
   3  -2   7   25.79    0.72
   3  -2   7   26.41    0.75
   3  -2   7   26.36    0.77
  -4   2  -7    1.42    0.15
  -4   2  -7    1.47    0.10
  -4   2  -7    1.44    0.10
   4  -2   7    1.60    0.10
   4  -2   7    1.39    0.14
   4  -2   7    1.46    0.11
  -5   2  -7    3.31    0.15
  -5   2  -7    3.24    0.15
  -5   2  -7    3.29    0.21
   5  -2   7    3.43    0.16
   5  -2   7    3.14    0.22
   5  -2   7    3.33    0.15
  -6   2  -7    7.64    0.27
  -6   2  -7    7.60    0.39
  -6   2  -7    7.71    0.30
   6  -2   7    8.02    0.40
   6  -2   7    8.10    0.28
   6  -2   7    7.57    0.28
  -7   2  -7    2.11    0.18
  -7   2  -7    2.40    0.13
  -7   2  -7    2.25    0.15
   7  -2   7    2.35    0.14
   7  -2   7    2.23    0.14
   7  -2   7    2.16    0.20
  -8   2  -7    1.14    0.09
  -8   2  -7    1.09    0.10
  -8   2  -7    0.86    0.12
   8  -2   7    1.06    0.11
   8  -2   7    0.90    0.09
   9   1  -7    0.69    0.11
   9   1  -7    0.89    0.08
   8   1  -7    2.56    0.12
   8   1  -7    2.69    0.18
   7   1  -7    0.29    0.04
   7   1  -7    0.20    0.05
   7   1  -7    0.26    0.07
  -7  -1   7    0.27    0.03
   6   1  -7    1.52    0.13
   6   1  -7    1.39    0.07
   6   1  -7    1.24    0.09
   6   1  -7    1.55    0.08
  -6  -1   7    1.38    0.09
  -6  -1   7    1.43    0.11
   5   1  -7    0.33    0.05
   5   1  -7    0.28    0.06
   5   1  -7    0.32    0.03
   5   1  -7    0.39    0.04
   5   1  -7    0.29    0.05
   5   1  -7    0.36    0.04
  -5  -1   7    0.31    0.06
  -5  -1   7    0.32    0.05
  -5  -1   7    0.32    0.04
  -5  -1   7    0.27    0.06
   4   1  -7    1.83    0.09
   4   1  -7    2.05    0.13
   4   1  -7    1.94    0.11
   4   1  -7    1.82    0.12
   4   1  -7    2.01    0.10
   4   1  -7    1.67    0.09
  -4  -1   7    1.95    0.10
  -4  -1   7    1.84    0.11
  -4  -1   7    2.05    0.13
  -4  -1   7    2.11    0.13
   3   1  -7    0.01    0.03
   3   1  -7    0.07    0.03
   3   1  -7   -0.01    0.05
   3   1  -7   -0.04    0.04
   3   1  -7    0.04    0.03
   3   1  -7    0.02    0.04
  -3  -1   7    0.03    0.04
  -3  -1   7    0.04    0.05
  -3  -1   7    0.01    0.05
  -3  -1   7   -0.03    0.03
   2   1  -7    5.56    0.19
   2   1  -7    5.74    0.21
   2   1  -7    5.62    0.20
   2   1  -7    6.07    0.19
   2   1  -7    5.87    0.28
   2   1  -7    5.45    0.22
  -2  -1   7    5.69    0.28
  -2  -1   7    5.61    0.17
  -2  -1   7    5.77    0.28
  -2  -1   7    5.66    0.20
  -2  -1   7    5.72    0.21
   1   1  -7   33.08    0.98
   1   1  -7   35.32    1.39
   1   1  -7   33.98    0.97
   1   1  -7   33.69    1.02
   1   1  -7   33.09    1.05
  -1  -1   7   33.43    0.98
  -1  -1   7   35.78    1.39
  -1  -1   7   36.31    1.39
  -1  -1   7   32.80    0.93
   0   1  -7   32.85    0.96
   0   1  -7   34.39    1.36
   0   1  -7   32.88    0.99
   0   1  -7   33.03    0.93
   0   1  -7   32.54    1.02
   0  -1   7   33.34    1.36
   0  -1   7   32.66    0.89
   0  -1   7   33.05    0.92
   0  -1   7   35.43    1.36
   0  -1   7   32.52    0.96
  -1   1  -7   13.05    0.43
  -1   1  -7   14.05    0.58
  -1   1  -7   13.33    0.38
  -1   1  -7   13.21    0.41
   1  -1   7   13.24    0.39
   1  -1   7   13.34    0.41
   1  -1   7   13.87    0.58
   1  -1   7   13.10    0.37
   1  -1   7   13.15    0.43
  -2   1  -7    8.79    0.40
  -2   1  -7    8.48    0.28
  -2   1  -7    8.43    0.28
   2  -1   7    8.27    0.25
   2  -1   7    9.23    0.40
   2  -1   7    8.78    0.28
   2  -1   7    8.60    0.29
   2  -1   7    8.28    0.26
  -3   1  -7    1.00    0.09
  -3   1  -7    0.98    0.07
  -3   1  -7    0.72    0.10
   3  -1   7    1.01    0.09
   3  -1   7    1.08    0.07
   3  -1   7    0.69    0.10
   3  -1   7    0.98    0.07
   3  -1   7    1.19    0.07
  -4   1  -7   -0.02    0.07
  -4   1  -7    0.15    0.05
  -4   1  -7    0.10    0.04
   4  -1   7    0.21    0.04
   4  -1   7    0.04    0.08
   4  -1   7    0.26    0.05
   4  -1   7    0.21    0.04
   4  -1   7    0.21    0.05
  -5   1  -7    0.79    0.07
  -5   1  -7    0.87    0.07
  -5   1  -7    0.73    0.10
   5  -1   7    0.87    0.07
   5  -1   7    0.87    0.07
   5  -1   7    0.84    0.07
   5  -1   7    0.76    0.11
  -6   1  -7    0.78    0.07
  -6   1  -7    0.69    0.10
  -6   1  -7    0.77    0.07
   6  -1   7    0.61    0.07
   6  -1   7    0.89    0.08
   6  -1   7    0.77    0.10
  -7   1  -7    2.53    0.15
  -7   1  -7    2.63    0.14
  -7   1  -7    2.43    0.19
   7  -1   7    2.48    0.15
   7  -1   7    2.44    0.19
   7  -1   7    2.49    0.14
  -8   1  -7    0.87    0.09
  -8   1  -7    0.76    0.11
  -8   1  -7    0.82    0.08
   8  -1   7    0.76    0.08
   8  -1   7    0.88    0.09
  -9   1  -7    0.07    0.05
  -9   1  -7    0.02    0.07
  -9   1  -7    0.13    0.07
   9  -1   7    0.00    0.07
   9  -1   7   -0.04    0.05
   9   0  -7    8.21    0.29
   9   0  -7    9.32    0.36
   8   0  -7    2.66    0.18
   8   0  -7    2.38    0.12
   7   0  -7   -0.09    0.06
   7   0  -7    0.01    0.05
   7   0  -7    0.07    0.04
   6   0  -7    0.35    0.05
   6   0  -7    0.26    0.06
   6   0  -7    0.40    0.03
   6   0  -7    0.27    0.04
  -6   0   7    0.37    0.05
   5   0  -7    1.10    0.09
   5   0  -7    1.17    0.07
   5   0  -7    1.26    0.10
   5   0  -7    1.21    0.09
   5   0  -7    1.28    0.07
   5   0  -7    1.19    0.07
  -5   0   7    1.18    0.10
  -5   0   7    1.20    0.10
  -5   0   7    1.40    0.10
   4   0  -7    9.87    0.33
   4   0  -7    9.77    0.33
   4   0  -7    9.78    0.35
   4   0  -7    9.81    0.28
   4   0  -7    9.71    0.30
   4   0  -7    9.78    0.43
   4   0  -7    9.55    0.30
  -4   0   7   10.09    0.43
  -4   0   7    9.95    0.30
  -4   0   7   10.07    0.43
  -4   0   7    9.66    0.33
   3   0  -7    0.58    0.05
   3   0  -7    0.58    0.07
   3   0  -7    0.56    0.05
   3   0  -7    0.50    0.06
   3   0  -7    0.64    0.06
   3   0  -7    0.48    0.06
  -3   0   7    0.73    0.09
  -3   0   7    0.54    0.04
  -3   0   7    0.60    0.07
  -3   0   7    0.46    0.05
  -3   0   7    0.45    0.06
   2   0  -7    6.21    0.31
   2   0  -7    6.44    0.23
   2   0  -7    6.64    0.21
   2   0  -7    6.31    0.22
   2   0  -7    6.22    0.24
   2   0  -7    6.96    0.22
  -2   0   7    6.52    0.31
  -2   0   7    6.74    0.22
  -2   0   7    6.61    0.23
  -2   0   7    6.90    0.31
  -2   0   7    6.69    0.20
   1   0  -7   19.55    0.79
   1   0  -7   19.13    0.55
   1   0  -7   19.06    0.60
   1   0  -7   18.89    0.58
   1   0  -7   18.28    0.58
  -1   0   7   18.74    0.79
  -1   0   7   18.67    0.79
  -1   0   7   19.00    0.51
  -1   0   7   18.93    0.56
  -1   0   7   19.14    0.53
  -1   0   7   18.78    0.51
   0   0  -7   25.57    1.09
   0   0  -7   27.39    0.81
   0   0  -7   27.11    0.76
   0   0  -7   27.79    0.82
   0   0   7   27.43    0.72
   0   0   7   27.47    0.78
   0   0   7   25.99    1.09
   0   0   7   23.55    1.09
   0   0   7   27.65    0.74
  -1   0  -7    0.74    0.06
  -1   0  -7    0.53    0.05
  -1   0  -7    0.70    0.04
  -1   0  -7    0.70    0.04
  -1   0  -7    0.63    0.08
  -1   0  -7    0.56    0.05
   1   0   7    0.62    0.05
   1   0   7    0.74    0.05
   1   0   7    0.64    0.08
   1   0   7    0.67    0.04
   1   0   7    0.71    0.06
   1   0   7    0.85    0.10
  -2   0  -7    3.44    0.20
  -2   0  -7    3.37    0.12
  -2   0  -7    3.39    0.14
   2   0   7    3.46    0.13
   2   0   7    3.25    0.14
   2   0   7    3.40    0.12
   2   0   7    3.26    0.19
   2   0   7    3.50    0.12
  -3   0  -7    3.59    0.20
  -3   0  -7    3.19    0.14
  -3   0  -7    3.23    0.12
   3   0   7    3.24    0.13
   3   0   7    3.15    0.12
   3   0   7    3.31    0.20
   3   0   7    3.24    0.14
   3   0   7    3.44    0.12
  -4   0  -7   11.07    0.49
  -4   0  -7   10.64    0.35
  -4   0  -7   10.11    0.34
   4   0   7   11.13    0.49
   4   0   7   10.75    0.32
   4   0   7   10.90    0.34
   4   0   7   10.43    0.33
   4   0   7   10.78    0.35
  -5   0  -7   25.43    0.81
  -5   0  -7   25.94    1.07
  -5   0  -7   25.64    0.76
   5   0   7   26.01    0.76
   5   0   7   25.68    0.79
   5   0   7   25.85    1.07
   5   0   7   25.17    0.80
   5   0   7   25.98    0.75
  -6   0  -7   18.84    0.82
  -6   0  -7   19.13    0.58
  -6   0  -7   19.21    0.62
   6   0   7   19.47    0.82
   6   0   7   18.89    0.61
   6   0   7   19.16    0.58
   6   0   7   19.15    0.58
  -7   0  -7    1.40    0.15
  -7   0  -7    1.41    0.11
  -7   0  -7    1.47    0.12
   7   0   7    1.59    0.11
   7   0   7    1.38    0.11
   7   0   7    1.46    0.16
   7   0   7    1.58    0.12
  -8   0  -7    0.08    0.05
  -8   0  -7   -0.06    0.05
  -8   0  -7    0.02    0.07
   8   0   7    0.08    0.05
   8   0   7    0.17    0.05
   8   0   7    0.08    0.06
  -9   0  -7   -0.03    0.06
  -9   0  -7    0.07    0.07
  -9   0  -7    0.03    0.05
   9   0   7   -0.01    0.07
   9   0   7   -0.06    0.05
   9  -1  -7    2.48    0.19
   9  -1  -7    2.29    0.14
   8  -1  -7    0.19    0.05
   8  -1  -7    0.39    0.06
   8  -1  -7    0.22    0.08
   7  -1  -7    0.15    0.07
   7  -1  -7    0.13    0.04
   7  -1  -7    0.12    0.05
  -7   1   7    0.10    0.02
   6  -1  -7    0.00    0.03
   6  -1  -7    0.01    0.02
   6  -1  -7   -0.08    0.05
   6  -1  -7   -0.04    0.04
  -6   1   7   -0.06    0.03
  -6   1   7    0.01    0.04
   5  -1  -7    1.45    0.08
   5  -1  -7    1.56    0.10
   5  -1  -7    1.56    0.07
   5  -1  -7    1.60    0.11
   5  -1  -7    1.64    0.13
   5  -1  -7    1.57    0.08
  -5   1   7    1.54    0.11
  -5   1   7    1.53    0.11
  -5   1   7    1.43    0.07
   4  -1  -7    7.98    0.28
   4  -1  -7    8.14    0.30
   4  -1  -7    7.60    0.28
   4  -1  -7    8.01    0.25
   4  -1  -7    8.37    0.36
   4  -1  -7    8.03    0.25
   4  -1  -7    7.76    0.24
  -4   1   7    7.74    0.28
  -4   1   7    8.38    0.36
  -4   1   7    8.26    0.36
  -4   1   7    8.03    0.23
   3  -1  -7   10.01    0.34
   3  -1  -7    9.72    0.30
   3  -1  -7   10.25    0.43
   3  -1  -7   10.03    0.32
   3  -1  -7    9.68    0.33
   3  -1  -7    9.72    0.29
  -3   1   7    9.72    0.28
  -3   1   7   10.61    0.44
  -3   1   7    9.67    0.43
  -3   1   7   10.03    0.31
  -3   1   7    9.61    0.33
  -3   1   7    9.81    0.29
   2  -1  -7   18.12    0.52
   2  -1  -7   18.44    0.54
   2  -1  -7   18.12    0.57
   2  -1  -7   17.84    0.58
   2  -1  -7   17.99    0.76
  -2   1   7   18.49    0.52
  -2   1   7   18.27    0.50
  -2   1   7   18.80    0.76
  -2   1   7   18.31    0.56
  -2   1   7   18.76    0.77
  -2   1   7   18.57    0.54
   1  -1  -7    5.82    0.21
   1  -1  -7    5.98    0.21
   1  -1  -7    5.84    0.28
   1  -1  -7    5.91    0.18
   1  -1  -7    6.30    0.20
  -1   1   7    5.95    0.18
  -1   1   7    5.90    0.28
  -1   1   7    5.99    0.17
  -1   1   7    5.95    0.20
  -1   1   7    5.85    0.20
  -1   1   7    5.08    0.28
   0  -1  -7    1.45    0.06
   0  -1  -7    1.35    0.08
   0  -1  -7    1.23    0.11
   0  -1  -7    1.31    0.08
   0   1   7    1.37    0.05
   0   1   7    1.47    0.09
   0   1   7    1.20    0.11
   0   1   7    1.38    0.11
   0   1   7    1.39    0.06
  -1  -1  -7    4.98    0.19
  -1  -1  -7    5.39    0.26
  -1  -1  -7    5.03    0.18
   1   1   7    5.27    0.25
   1   1   7    4.96    0.18
   1   1   7    5.09    0.16
   1   1   7    5.00    0.25
  -2  -1  -7    0.22    0.03
  -2  -1  -7    0.27    0.06
  -2  -1  -7    0.13    0.06
  -2  -1  -7    0.24    0.04
   2   1   7    0.24    0.06
   2   1   7    0.22    0.06
   2   1   7    0.23    0.03
   2   1   7    0.13    0.04
  -3  -1  -7   11.67    0.37
  -3  -1  -7   12.38    0.52
  -3  -1  -7   11.45    0.38
  -3  -1  -7   11.39    0.52
   3   1   7   13.06    0.53
   3   1   7   11.73    0.34
   3   1   7   11.76    0.35
   3   1   7   11.56    0.37
   3   1   7   11.66    0.37
   3   1   7   11.51    0.39
  -4  -1  -7   29.76    1.15
  -4  -1  -7   27.42    0.86
  -4  -1  -7   24.91    1.13
  -4  -1  -7   27.61    0.77
   4   1   7   27.90    0.81
   4   1   7   27.15    0.83
   4   1   7   27.72    0.79
   4   1   7   29.22    1.14
   4   1   7   27.73    0.77
   4   1   7   26.91    0.86
  -5  -1  -7   49.68    1.38
  -5  -1  -7   49.14    1.53
  -5  -1  -7   52.42    2.00
  -5  -1  -7   49.39    2.00
  -5  -1  -7   49.69    1.41
   5   1   7   47.79    1.51
   5   1   7   49.80    1.41
   5   1   7   48.66    1.48
   5   1   7   49.23    1.40
   5   1   7   49.36    2.00
  -6  -1  -7    4.74    0.26
  -6  -1  -7    4.70    0.19
  -6  -1  -7    5.05    0.26
  -6  -1  -7    4.57    0.18
   6   1   7    4.74    0.16
   6   1   7    4.60    0.19
   6   1   7    4.67    0.19
   6   1   7    4.74    0.26
   6   1   7    4.53    0.19
  -7  -1  -7    1.19    0.14
  -7  -1  -7    1.22    0.10
  -7  -1  -7    1.19    0.10
   7   1   7    1.04    0.09
   7   1   7    1.38    0.15
   7   1   7    1.33    0.11
   7   1   7    1.34    0.10
  -8  -1  -7    0.13    0.05
  -8  -1  -7    0.12    0.05
  -8  -1  -7    0.10    0.07
   8   1   7    0.08    0.05
   8   1   7    0.20    0.05
   8   1   7    0.17    0.06
  -9  -1  -7    0.62    0.07
  -9  -1  -7    0.58    0.09
  -9  -1  -7    0.56    0.08
   9   1   7    0.60    0.09
   9   1   7    0.46    0.07
   9   1   7    0.58    0.07
 -10  -1  -7   -0.02    0.06
  10   1   7   -0.13    0.07
   8  -2  -7   -0.09    0.07
   8  -2  -7   -0.08    0.05
   8  -2  -7    0.14    0.05
   7  -2  -7    1.93    0.13
   7  -2  -7    1.75    0.11
  -7   2   7    1.81    0.10
  -7   2   7    1.85    0.10
   6  -2  -7    0.43    0.06
   6  -2  -7    0.41    0.06
  -6   2   7    0.46    0.05
  -6   2   7    0.56    0.06
   5  -2  -7    0.12    0.05
   5  -2  -7    0.11    0.03
   5  -2  -7    0.11    0.04
  -5   2   7    0.10    0.05
  -5   2   7    0.14    0.03
   4  -2  -7    7.95    0.24
   4  -2  -7    7.88    0.25
   4  -2  -7    7.62    0.25
   4  -2  -7    7.98    0.28
   4  -2  -7    8.03    0.36
  -4   2   7    7.97    0.28
  -4   2   7    7.64    0.36
  -4   2   7    8.31    0.35
  -4   2   7    7.71    0.23
   3  -2  -7   23.10    0.97
   3  -2  -7   23.48    0.69
   3  -2  -7   23.73    0.67
   3  -2  -7   23.96    0.73
  -3   2   7   24.09    0.97
  -3   2   7   23.49    0.65
  -3   2   7   24.55    0.98
  -3   2   7   23.49    0.72
   2  -2  -7    0.14    0.05
   2  -2  -7    0.21    0.02
   2  -2  -7    0.17    0.03
   2  -2  -7    0.18    0.06
   2  -2  -7    0.20    0.04
  -2   2   7    0.18    0.06
  -2   2   7    0.17    0.04
  -2   2   7    0.22    0.04
  -2   2   7    0.23    0.03
  -2   2   7    0.22    0.02
  -2   2   7    0.17    0.06
   1  -2  -7    4.03    0.16
   1  -2  -7    3.97    0.21
   1  -2  -7    3.86    0.16
   1  -2  -7    4.32    0.16
   1  -2  -7    4.01    0.13
  -1   2   7    3.75    0.21
  -1   2   7    4.17    0.15
  -1   2   7    4.15    0.15
  -1   2   7    4.09    0.21
  -1   2   7    3.99    0.12
  -1   2   7    4.12    0.13
   0  -2  -7    7.39    0.25
   0  -2  -7    7.18    0.25
   0  -2  -7    6.59    0.33
   0  -2  -7    7.33    0.22
   0   2   7    7.25    0.24
   0   2   7    7.44    0.22
   0   2   7    7.39    0.21
   0   2   7    7.71    0.34
   0   2   7    7.27    0.22
   0   2   7    6.88    0.33
  -1  -2  -7    0.00    0.05
  -1  -2  -7    0.00    0.02
  -1  -2  -7    0.02    0.03
  -1  -2  -7    0.02    0.03
   1   2   7    0.03    0.04
   1   2   7    0.00    0.03
   1   2   7   -0.01    0.02
   1   2   7    0.00    0.05
  -2  -2  -7    2.20    0.14
  -2  -2  -7    2.12    0.11
  -2  -2  -7    2.07    0.09
  -2  -2  -7    2.30    0.15
  -2  -2  -7    1.95    0.09
   2   2   7    1.87    0.10
   2   2   7    2.31    0.14
   2   2   7    2.11    0.11
   2   2   7    2.10    0.09
   2   2   7    2.05    0.14
  -3  -2  -7    8.22    0.37
  -3  -2  -7    7.92    0.37
  -3  -2  -7    7.77    0.27
   3   2   7    7.76    0.37
   3   2   7    7.62    0.27
   3   2   7    8.16    0.25
   3   2   7    7.97    0.26
  -4  -2  -7   -0.09    0.05
  -4  -2  -7    0.12    0.04
  -4  -2  -7   -0.08    0.06
   4   2   7    0.05    0.04
   4   2   7   -0.05    0.03
   4   2   7   -0.12    0.05
   4   2   7    0.02    0.04
  -5  -2  -7    3.30    0.11
  -5  -2  -7    2.63    0.19
  -5  -2  -7    3.06    0.20
   5   2   7    2.94    0.20
   5   2   7    3.27    0.14
   5   2   7    3.32    0.14
   5   2   7    3.38    0.15
  -6  -2  -7    6.01    0.30
  -6  -2  -7    5.71    0.30
  -6  -2  -7    5.47    0.20
  -6  -2  -7    5.87    0.18
   6   2   7    5.77    0.21
   6   2   7    5.83    0.21
   6   2   7    5.84    0.30
   6   2   7    5.78    0.22
  -7  -2  -7    2.42    0.12
  -7  -2  -7    2.78    0.19
  -7  -2  -7    2.45    0.18
  -7  -2  -7    2.45    0.10
   7   2   7    2.13    0.13
   7   2   7    2.39    0.13
   7   2   7    2.16    0.13
   7   2   7    2.59    0.18
  -8  -2  -7    3.74    0.23
  -8  -2  -7    3.84    0.16
   8   2   7    3.73    0.16
   8   2   7    4.15    0.23
   8   2   7    3.72    0.17
   8   2   7    3.95    0.18
  -9  -2  -7    0.07    0.07
  -9  -2  -7    0.04    0.05
   9   2   7    0.06    0.04
   9   2   7   -0.02    0.06
   9   2   7   -0.05    0.05
 -10  -2  -7    0.03    0.06
  10   2   7    0.00    0.07
  10   2   7   -0.01    0.06
   8  -3  -7    0.19    0.06
   8  -3  -7    0.07    0.06
  -8   3   7    0.20    0.07
   7  -3  -7    2.37    0.14
   7  -3  -7    2.26    0.13
  -7   3   7    2.32    0.15
  -7   3   7    2.20    0.13
  -7   3   7    2.22    0.12
   6  -3  -7    0.01    0.05
   6  -3  -7   -0.02    0.04
  -6   3   7   -0.05    0.04
  -6   3   7    0.05    0.05
  -6   3   7    0.03    0.05
   5  -3  -7    0.14    0.04
   5  -3  -7    0.21    0.05
   5  -3  -7    0.14    0.03
  -5   3   7    0.12    0.05
  -5   3   7    0.07    0.03
  -5   3   7    0.19    0.05
   4  -3  -7    1.27    0.07
   4  -3  -7    1.47    0.11
   4  -3  -7    1.37    0.08
   4  -3  -7    1.42    0.12
   4  -3  -7    1.40    0.09
  -4   3   7    1.35    0.07
  -4   3   7    1.33    0.09
  -4   3   7    1.45    0.11
  -4   3   7    1.27    0.12
   3  -3  -7    3.45    0.19
   3  -3  -7    3.59    0.15
   3  -3  -7    3.26    0.12
  -3   3   7    3.31    0.19
  -3   3   7    3.44    0.14
  -3   3   7    3.37    0.18
  -3   3   7    3.32    0.12
   2  -3  -7   -0.03    0.02
   2  -3  -7   -0.03    0.04
   2  -3  -7   -0.01    0.04
  -2   3   7    0.00    0.05
  -2   3   7   -0.07    0.04
  -2   3   7   -0.03    0.02
  -2   3   7   -0.01    0.03
  -2   3   7   -0.05    0.02
   1  -3  -7    2.51    0.09
   1  -3  -7    2.48    0.12
   1  -3  -7    2.43    0.15
  -1   3   7    2.57    0.09
  -1   3   7    2.57    0.16
  -1   3   7    2.54    0.15
  -1   3   7    2.48    0.10
  -1   3   7    2.40    0.09
   0  -3  -7    3.89    0.21
   0  -3  -7    3.96    0.13
   0  -3  -7    3.81    0.16
   0   3   7    4.13    0.21
   0   3   7    4.04    0.21
   0   3   7    3.94    0.14
   0   3   7    4.00    0.14
   0   3   7    4.05    0.13
   0   3   7    3.93    0.15
   0   3   7    4.07    0.13
  -1  -3  -7    7.96    0.24
  -1  -3  -7    7.81    0.25
  -1  -3  -7    7.44    0.26
  -1  -3  -7    7.24    0.35
   1   3   7    7.87    0.24
   1   3   7    7.75    0.36
   1   3   7    7.54    0.25
   1   3   7    8.14    0.36
   1   3   7    7.30    0.26
  -2  -3  -7   48.21    1.43
  -2  -3  -7   49.64    1.36
  -2  -3  -7   50.81    1.45
  -2  -3  -7   45.91    1.95
   2   3   7   52.71    1.95
   2   3   7   41.13    1.94
   2   3   7   49.30    1.36
   2   3   7   48.31    1.48
   2   3   7   49.89    1.38
  -3  -3  -7    2.25    0.11
  -3  -3  -7    2.34    0.08
  -3  -3  -7    2.66    0.16
  -3  -3  -7    2.30    0.10
  -3  -3  -7    2.54    0.16
   3   3   7    2.50    0.16
   3   3   7    2.29    0.11
   3   3   7    2.18    0.11
   3   3   7    2.19    0.10
  -4  -3  -7    4.85    0.24
  -4  -3  -7    4.49    0.24
  -4  -3  -7    4.28    0.17
   4   3   7    4.39    0.15
   4   3   7    4.43    0.18
   4   3   7    4.40    0.24
   4   3   7    4.17    0.16
   4   3   7    4.45    0.17
  -5  -3  -7    0.37    0.05
  -5  -3  -7    0.36    0.08
  -5  -3  -7    0.31    0.08
   5   3   7    0.37    0.06
   5   3   7    0.38    0.05
   5   3   7    0.42    0.05
   5   3   7    0.36    0.04
   5   3   7    0.20    0.07
  -6  -3  -7    0.08    0.07
  -6  -3  -7    0.18    0.07
  -6  -3  -7    0.27    0.04
   6   3   7    0.20    0.05
   6   3   7    0.26    0.04
   6   3   7    0.12    0.07
   6   3   7    0.20    0.05
   6   3   7    0.19    0.05
  -7  -3  -7   27.18    0.78
  -7  -3  -7   26.73    1.14
  -7  -3  -7   27.05    1.14
   7   3   7   28.58    0.81
   7   3   7   27.86    0.86
   7   3   7   27.53    0.80
   7   3   7   26.41    1.14
  -8  -3  -7    2.69    0.19
  -8  -3  -7    2.86    0.12
  -8  -3  -7    2.83    0.14
   8   3   7    2.77    0.15
   8   3   7    2.87    0.15
   8   3   7    2.81    0.19
   8   3   7    2.86    0.14
  -9  -3  -7    0.78    0.10
  -9  -3  -7    0.87    0.08
  -9  -3  -7    0.81    0.07
   9   3   7    0.82    0.09
   9   3   7    0.71    0.08
   9   3   7    0.78    0.07
 -10  -3  -7    2.22    0.17
 -10  -3  -7    2.14    0.13
  10   3   7    2.21    0.14
  10   3   7    2.37    0.16
   7  -4  -7    1.38    0.11
   7  -4  -7    1.57    0.13
  -7   4   7    1.31    0.10
  -7   4   7    1.49    0.14
  -7   4   7    1.63    0.12
   6  -4  -7    0.94    0.08
   6  -4  -7    0.98    0.09
  -6   4   7    1.04    0.09
  -6   4   7    1.18    0.11
  -6   4   7    0.84    0.09
   5  -4  -7    0.13    0.05
   5  -4  -7    0.16    0.05
  -5   4   7    0.23    0.05
  -5   4   7    0.23    0.04
  -5   4   7    0.17    0.06
   4  -4  -7   -0.02    0.04
   4  -4  -7   -0.01    0.05
   4  -4  -7   -0.05    0.04
   4  -4  -7   -0.02    0.03
  -4   4   7   -0.02    0.03
  -4   4   7   -0.02    0.05
  -4   4   7    0.04    0.04
   3  -4  -7    0.48    0.06
   3  -4  -7    0.50    0.08
  -3   4   7    0.72    0.08
  -3   4   7    0.56    0.05
  -3   4   7    0.53    0.05
  -3   4   7    0.56    0.08
   2  -4  -7    0.21    0.05
   2  -4  -7    0.24    0.06
  -2   4   7    0.32    0.06
  -2   4   7    0.29    0.03
  -2   4   7    0.27    0.06
  -2   4   7    0.29    0.04
   1  -4  -7    0.00    0.02
   1  -4  -7   -0.03    0.05
   1  -4  -7    0.11    0.04
  -1   4   7   -0.05    0.02
  -1   4   7   -0.03    0.04
  -1   4   7    0.03    0.02
  -1   4   7   -0.03    0.05
  -1   4   7    0.05    0.02
   0  -4  -7    0.10    0.03
   0  -4  -7    0.04    0.05
   0  -4  -7    0.08    0.04
   0   4   7    0.07    0.03
   0   4   7    0.06    0.02
   0   4   7    0.06    0.05
   0   4   7    0.08    0.03
   0   4   7    0.05    0.03
   0   4   7   -0.01    0.05
   0   4   7    0.06    0.02
  -1  -4  -7    1.59    0.08
  -1  -4  -7    1.48    0.13
  -1  -4  -7    1.44    0.09
   1   4   7    1.62    0.07
   1   4   7    1.49    0.09
   1   4   7    1.73    0.13
   1   4   7    1.68    0.13
   1   4   7    1.59    0.08
   1   4   7    1.67    0.07
  -2  -4  -7   40.35    1.69
  -2  -4  -7   42.41    1.18
  -2  -4  -7   41.35    1.24
   2   4   7   42.29    1.28
   2   4   7   42.26    1.27
   2   4   7   41.86    1.18
   2   4   7   42.45    1.70
  -3  -4  -7    2.32    0.11
  -3  -4  -7    2.11    0.08
  -3  -4  -7    2.51    0.16
   3   4   7    2.25    0.16
   3   4   7    2.48    0.11
   3   4   7    2.04    0.10
   3   4   7    2.00    0.11
   3   4   7    2.18    0.08
  -4  -4  -7   11.75    0.54
  -4  -4  -7   13.66    0.55
  -4  -4  -7   11.91    0.39
   4   4   7   12.09    0.39
   4   4   7   11.84    0.37
   4   4   7   12.40    0.38
   4   4   7   12.44    0.54
   4   4   7   12.02    0.41
  -5  -4  -7   -0.06    0.06
  -5  -4  -7    0.00    0.06
  -5  -4  -7   -0.14    0.04
  -5  -4  -7    0.01    0.02
   5   4   7   -0.10    0.04
   5   4   7    0.00    0.04
   5   4   7   -0.02    0.04
   5   4   7   -0.07    0.03
   5   4   7    0.00    0.06
  -6  -4  -7    0.48    0.09
  -6  -4  -7    0.46    0.06
  -6  -4  -7    0.68    0.09
  -6  -4  -7    0.63    0.05
   6   4   7    0.47    0.06
   6   4   7    0.62    0.09
   6   4   7    0.46    0.05
   6   4   7    0.44    0.06
   6   4   7    0.52    0.07
  -7  -4  -7    6.26    0.21
  -7  -4  -7    5.74    0.31
  -7  -4  -7    6.21    0.31
   7   4   7    5.79    0.22
   7   4   7    6.17    0.24
   7   4   7    6.19    0.23
   7   4   7    5.89    0.31
  -8  -4  -7    0.86    0.11
  -8  -4  -7    1.11    0.08
   8   4   7    1.04    0.09
   8   4   7    1.03    0.12
   8   4   7    0.86    0.09
  -9  -4  -7    0.74    0.10
  -9  -4  -7    0.73    0.06
   9   4   7    0.69    0.09
   9   4   7    0.60    0.08
 -10  -4  -7    0.44    0.09
 -10  -4  -7    0.46    0.06
  10   4   7    0.34    0.08
  10   4   7    0.50    0.08
 -11  -4  -7    1.30    0.14
  11   4   7    1.14    0.11
   7  -5  -7    0.43    0.08
   7  -5  -7    0.44    0.07
  -7   5   7    0.42    0.07
  -7   5   7    0.33    0.08
  -7   5   7    0.58    0.08
   6  -5  -7    0.18    0.06
   6  -5  -7    0.04    0.05
  -6   5   7    0.12    0.06
  -6   5   7    0.13    0.06
  -6   5   7    0.11    0.05
   5  -5  -7    0.52    0.07
   5  -5  -7    0.50    0.07
  -5   5   7    0.48    0.06
  -5   5   7    0.45    0.06
  -5   5   7    0.55    0.08
   4  -5  -7    0.53    0.06
   4  -5  -7    0.61    0.07
  -4   5   7    0.63    0.06
  -4   5   7    0.61    0.06
  -4   5   7    0.71    0.09
   3  -5  -7    0.36    0.06
   3  -5  -7    0.47    0.08
  -3   5   7    0.34    0.08
  -3   5   7    0.40    0.04
  -3   5   7    0.41    0.07
  -3   5   7    0.38    0.05
   2  -5  -7    2.47    0.13
   2  -5  -7    2.57    0.17
  -2   5   7    2.41    0.17
  -2   5   7    2.64    0.11
  -2   5   7    2.67    0.12
  -2   5   7    2.51    0.16
   1  -5  -7    1.07    0.12
   1  -5  -7    0.84    0.07
  -1   5   7    1.10    0.11
  -1   5   7    1.01    0.06
  -1   5   7    0.93    0.06
  -1   5   7    1.01    0.12
   0  -5  -7    0.09    0.04
   0  -5  -7    0.14    0.06
   0   5   7    0.07    0.03
   0   5   7    0.06    0.03
   0   5   7    0.03    0.05
   0   5   7    0.05    0.06
   0   5   7    0.13    0.03
   0   5   7    0.08    0.02
  -1  -5  -7   10.22    0.35
  -1  -5  -7   10.40    0.47
   1   5   7    9.93    0.35
   1   5   7   10.45    0.31
   1   5   7   10.26    0.32
   1   5   7   11.69    0.49
   1   5   7   10.32    0.32
   1   5   7   11.11    0.48
  -2  -5  -7    4.15    0.23
  -2  -5  -7    4.35    0.17
   2   5   7    4.51    0.15
   2   5   7    3.68    0.23
   2   5   7    4.24    0.17
  -3  -5  -7    1.91    0.11
  -3  -5  -7    1.92    0.15
   3   5   7    1.77    0.11
   3   5   7    1.81    0.10
   3   5   7    1.73    0.14
  -4  -5  -7   74.97    3.01
  -4  -5  -7   75.70    2.20
   4   5   7   75.41    2.10
   4   5   7   73.29    3.01
   4   5   7   76.18    2.30
   4   5   7   75.76    2.28
  -5  -5  -7   13.04    0.57
  -5  -5  -7   12.50    0.41
   5   5   7   12.80    0.40
   5   5   7   13.01    0.43
   5   5   7   12.89    0.42
   5   5   7   12.89    0.57
  -6  -5  -7   19.69    0.79
  -6  -5  -7   17.94    0.57
  -6  -5  -7   17.92    0.79
   6   5   7   18.49    0.79
   6   5   7   18.12    0.55
   6   5   7   18.35    0.60
   6   5   7   17.89    0.59
  -7  -5  -7   -0.06    0.06
  -7  -5  -7   -0.11    0.06
  -7  -5  -7    0.03    0.04
   7   5   7    0.03    0.05
   7   5   7   -0.04    0.07
   7   5   7   -0.01    0.05
  -8  -5  -7    3.74    0.23
  -8  -5  -7    4.01    0.16
   8   5   7    3.80    0.24
   8   5   7    3.74    0.19
   8   5   7    3.85    0.18
  -9  -5  -7    3.49    0.16
  -9  -5  -7    3.70    0.23
   9   5   7    3.90    0.18
   9   5   7    3.70    0.19
 -10  -5  -7    0.00    0.05
 -10  -5  -7   -0.05    0.06
  10   5   7   -0.12    0.06
  10   5   7    0.03    0.07
 -11  -5  -7    0.30    0.08
  11   5   7    0.38    0.09
  11   5   7    0.14    0.08
   6  -6  -7    1.10    0.10
   6  -6  -7    1.04    0.10
   6  -6  -7    1.23    0.12
  -6   6   7    1.18    0.11
  -6   6   7    1.09    0.09
  -6   6   7    1.15    0.13
   5  -6  -7    2.54    0.14
   5  -6  -7    2.45    0.16
  -5   6   7    2.70    0.15
  -5   6   7    2.53    0.13
  -5   6   7    2.25    0.18
   4  -6  -7    2.84    0.16
  -4   6   7    2.59    0.12
  -4   6   7    2.50    0.18
  -4   6   7    2.84    0.15
   3  -6  -7    4.14    0.19
   3  -6  -7    4.34    0.25
  -3   6   7    4.01    0.24
  -3   6   7    4.40    0.18
  -3   6   7    4.17    0.16
   2  -6  -7    0.31    0.06
   2  -6  -7    0.45    0.09
  -2   6   7    0.35    0.05
  -2   6   7    0.44    0.08
  -2   6   7    0.36    0.05
  -2   6   7    0.31    0.08
   1  -6  -7    2.81    0.14
   1  -6  -7    2.86    0.19
  -1   6   7    2.87    0.19
  -1   6   7    2.93    0.12
  -1   6   7    2.77    0.13
  -1   6   7    3.15    0.18
   0  -6  -7    0.00    0.04
   0  -6  -7   -0.01    0.06
   0   6   7    0.01    0.03
   0   6   7   -0.04    0.03
   0   6   7   -0.07    0.03
   0   6   7    0.02    0.06
  -1  -6  -7    0.15    0.07
  -1  -6  -7    0.13    0.05
   1   6   7    0.13    0.06
   1   6   7    0.17    0.04
   1   6   7    0.17    0.04
   1   6   7    0.15    0.04
  -2  -6  -7    4.22    0.24
  -2  -6  -7    4.53    0.18
   2   6   7    4.41    0.18
   2   6   7    4.29    0.25
   2   6   7    4.56    0.16
   2   6   7    4.58    0.16
  -3  -6  -7    0.33    0.06
  -3  -6  -7    0.33    0.09
   3   6   7    0.35    0.05
   3   6   7    0.44    0.09
   3   6   7    0.42    0.06
  -4  -6  -7   56.52    1.62
  -4  -6  -7   55.67    2.22
   4   6   7   49.26    2.21
   4   6   7   56.27    1.68
   4   6   7   56.74    1.55
  -5  -6  -7    9.52    0.44
  -5  -6  -7    9.00    0.31
   5   6   7    9.06    0.30
   5   6   7    9.40    0.33
   5   6   7    9.04    0.44
   5   6   7    9.22    0.31
  -6  -6  -7    0.54    0.06
  -6  -6  -7    0.59    0.10
   6   6   7    0.53    0.07
   6   6   7    0.67    0.08
   6   6   7    0.65    0.10
  -7  -6  -7    0.07    0.07
  -7  -6  -7    0.07    0.04
  -7  -6  -7    0.10    0.05
   7   6   7    0.00    0.05
   7   6   7    0.05    0.05
   7   6   7    0.00    0.07
  -8  -6  -7   -0.02    0.07
  -8  -6  -7   -0.05    0.04
   8   6   7   -0.05    0.05
   8   6   7   -0.06    0.07
   8   6   7   -0.11    0.05
  -9  -6  -7    5.62    0.31
  -9  -6  -7    5.88    0.22
   9   6   7    5.90    0.23
   9   6   7    5.60    0.25
 -10  -6  -7    2.73    0.15
 -10  -6  -7    3.01    0.21
  10   6   7    2.90    0.17
  10   6   7    2.74    0.18
 -11  -6  -7    0.07    0.06
 -11  -6  -7    0.07    0.07
  11   6   7   -0.09    0.07
  11   6   7    0.00    0.07
   5  -7  -7    0.14    0.08
   5  -7  -7    0.13    0.07
  -5   7   7    0.12    0.08
  -5   7   7    0.21    0.06
  -5   7   7    0.13    0.05
   4  -7  -7    2.11    0.14
   4  -7  -7    1.99    0.13
  -4   7   7    2.02    0.14
  -4   7   7    1.75    0.11
  -4   7   7    2.03    0.17
   3  -7  -7    0.04    0.06
   3  -7  -7   -0.01    0.07
   3  -7  -7   -0.05    0.06
  -3   7   7    0.09    0.05
  -3   7   7    0.05    0.04
  -3   7   7    0.13    0.08
   2  -7  -7    2.12    0.14
   2  -7  -7    2.10    0.12
   2  -7  -7    1.90    0.17
  -2   7   7    1.77    0.17
  -2   7   7    2.05    0.11
  -2   7   7    2.04    0.12
   1  -7  -7    0.12    0.05
   1  -7  -7    0.12    0.05
   1  -7  -7    0.10    0.08
  -1   7   7    0.09    0.04
  -1   7   7    0.01    0.07
   0  -7  -7    0.29    0.08
   0  -7  -7    0.24    0.05
   0  -7  -7    0.24    0.06
   0   7   7    0.17    0.04
   0   7   7    0.12    0.04
   0   7   7    0.23    0.08
  -1  -7  -7    0.27    0.06
  -1  -7  -7    0.44    0.05
  -1  -7  -7    0.40    0.09
   1   7   7    0.36    0.05
   1   7   7    0.49    0.09
   1   7   7    0.42    0.05
   1   7   7    0.39    0.06
  -2  -7  -7    1.55    0.16
  -2  -7  -7    1.35    0.11
   2   7   7    1.46    0.10
   2   7   7    1.73    0.16
   2   7   7    1.51    0.09
   2   7   7    1.53    0.11
  -3  -7  -7   32.38    0.97
  -3  -7  -7   32.88    1.34
   3   7   7   31.70    0.93
   3   7   7   31.88    1.01
   3   7   7   32.97    1.34
   3   7   7   31.81    0.90
  -4  -7  -7    0.42    0.10
  -4  -7  -7    0.39    0.06
   4   7   7    0.21    0.05
   4   7   7    0.33    0.10
   4   7   7    0.37    0.06
  -5  -7  -7   21.79    0.68
  -5  -7  -7   22.54    0.69
  -5  -7  -7   22.38    0.96
   5   7   7   22.04    0.72
   5   7   7   22.83    0.67
   5   7   7   23.56    0.96
  -6  -7  -7   15.23    0.67
  -6  -7  -7   14.77    0.48
   6   7   7   15.57    0.67
   6   7   7   15.14    0.47
   6   7   7   14.58    0.51
  -7  -7  -7    0.29    0.09
  -7  -7  -7    0.22    0.05
   7   7   7    0.31    0.06
   7   7   7    0.22    0.06
   7   7   7    0.28    0.09
  -8  -7  -7    0.08    0.05
  -8  -7  -7    0.18    0.08
   8   7   7    0.12    0.06
   8   7   7    0.12    0.08
   8   7   7    0.07    0.06
  -9  -7  -7    0.25    0.06
  -9  -7  -7    0.21    0.09
   9   7   7    0.29    0.07
   9   7   7    0.31    0.08
 -10  -7  -7    0.80    0.09
 -10  -7  -7    0.64    0.11
  10   7   7    0.63    0.09
  10   7   7    0.67    0.10
   4  -8  -7    3.90    0.19
  -4   8   7    3.49    0.18
  -4   8   7    3.05    0.15
  -4   8   7    3.19    0.23
   3  -8  -7    0.02    0.06
  -3   8   7    0.04    0.04
  -3   8   7   -0.02    0.07
  -3   8   7   -0.08    0.04
   2  -8  -7    2.80    0.21
   2  -8  -7    2.78    0.16
  -2   8   7    2.80    0.15
  -2   8   7    2.69    0.21
  -2   8   7    2.85    0.13
   1  -8  -7    0.44    0.10
   1  -8  -7    0.56    0.08
  -1   8   7    0.51    0.06
  -1   8   7    0.35    0.10
   0  -8  -7    0.92    0.12
   0  -8  -7    0.77    0.08
   0   8   7    0.81    0.08
   0   8   7    0.63    0.06
   0   8   7    0.79    0.11
  -1  -8  -7   22.07    0.67
  -1  -8  -7   20.21    0.92
   1   8   7   20.99    0.68
   1   8   7   21.52    0.92
   1   8   7   21.54    0.64
   1   8   7   21.82    0.62
  -2  -8  -7   10.13    0.48
  -2  -8  -7    9.76    0.35
   2   8   7    9.76    0.33
   2   8   7    9.84    0.31
   2   8   7   10.56    0.48
   2   8   7   10.14    0.35
  -3  -8  -7    3.75    0.25
  -3  -8  -7    4.25    0.18
   3   8   7    3.65    0.17
   3   8   7    4.10    0.25
   3   8   7    4.03    0.18
   3   8   7    3.74    0.16
  -4  -8  -7    3.97    0.17
  -4  -8  -7    3.81    0.25
   4   8   7    3.96    0.17
   4   8   7    4.08    0.18
   4   8   7    3.89    0.25
   4   8   7    3.76    0.16
  -5  -8  -7    4.58    0.28
  -5  -8  -7    4.92    0.19
   5   8   7    4.54    0.19
   5   8   7    5.15    0.29
   5   8   7    4.72    0.21
  -6  -8  -7   14.89    0.47
  -6  -8  -7   14.55    0.66
   6   8   7   14.12    0.46
   6   8   7   15.38    0.67
   6   8   7   14.68    0.51
  -7  -8  -7    1.99    0.18
  -7  -8  -7    1.88    0.11
   7   8   7    2.16    0.18
   7   8   7    2.14    0.14
   7   8   7    1.91    0.14
  -8  -8  -7   -0.03    0.05
  -8  -8  -7   -0.04    0.04
  -8  -8  -7    0.09    0.09
   8   8   7    0.10    0.09
   8   8   7    0.03    0.06
   8   8   7    0.03    0.06
  -9  -8  -7    0.72    0.11
  -9  -8  -7    0.80    0.09
   9   8   7    0.58    0.09
   9   8   7    0.63    0.09
 -10  -8  -7    0.57    0.08
 -10  -8  -7    0.34    0.10
  10   8   7    0.55    0.09
  10   8   7    0.46    0.08
   3  -9  -7    0.05    0.06
  -3   9   7   -0.09    0.07
  -3   9   7   -0.10    0.05
   2  -9  -7    3.28    0.18
  -2   9   7    3.26    0.17
  -2   9   7    3.31    0.15
  -2   9   7    3.46    0.24
   1  -9  -7    0.00    0.08
   1  -9  -7    0.02    0.06
  -1   9   7    0.11    0.05
  -1   9   7    0.03    0.08
   0  -9  -7    0.14    0.09
   0  -9  -7    0.12    0.06
   0   9   7    0.13    0.05
   0   9   7    0.15    0.04
   0   9   7    0.26    0.09
  -1  -9  -7   -0.02    0.08
  -1  -9  -7    0.01    0.05
   1   9   7    0.01    0.04
   1   9   7   -0.02    0.08
   1   9   7    0.02    0.04
  -2  -9  -7    1.36    0.12
  -2  -9  -7    1.51    0.17
   2   9   7    1.41    0.11
   2   9   7    1.27    0.10
   2   9   7    1.28    0.10
   2   9   7    1.53    0.17
  -3  -9  -7    3.48    0.16
  -3  -9  -7    3.15    0.23
   3   9   7    3.19    0.16
   3   9   7    2.99    0.15
   3   9   7    2.80    0.22
   3   9   7    3.51    0.15
  -4  -9  -7    0.00    0.08
  -4  -9  -7    0.01    0.05
   4   9   7    0.00    0.05
   4   9   7   -0.02    0.04
   4   9   7   -0.05    0.08
   4   9   7   -0.01    0.04
  -5  -9  -7    0.76    0.07
  -5  -9  -7    0.66    0.12
   5   9   7    0.69    0.07
   5   9   7    0.58    0.07
   5   9   7    0.75    0.12
   5   9   7    0.70    0.07
  -6  -9  -7    1.36    0.10
  -6  -9  -7    1.39    0.17
   6   9   7    1.27    0.12
   6   9   7    1.45    0.17
   6   9   7    1.13    0.10
  -7  -9  -7   11.16    0.55
  -7  -9  -7   11.80    0.38
   7   9   7   11.86    0.56
   7   9   7   11.36    0.42
   7   9   7   11.80    0.39
  -8  -9  -7    7.98    0.42
  -8  -9  -7    8.04    0.30
   8   9   7    8.47    0.45
   8   9   7    8.01    0.33
   8   9   7    8.17    0.30
  -9  -9  -7    0.64    0.11
  -9  -9  -7    0.73    0.09
   9   9   7    0.69    0.10
   9   9   7    0.39    0.08
 -10  -9  -7   -0.01    0.08
 -10  -9  -7    0.00    0.06
  10   9   7   -0.05    0.07
  10   9   7    0.01    0.07
   2 -10  -7    0.20    0.07
  -2  10   7    0.20    0.11
  -2  10   7    0.12    0.06
   1 -10  -7    0.08    0.06
   1 -10  -7    0.03    0.09
  -1  10   7   -0.04    0.08
   0 -10  -7    5.60    0.34
   0 -10  -7    6.09    0.25
   0  10   7    5.73    0.34
   0  10   7    5.64    0.22
  -1 -10  -7    0.12    0.09
  -1 -10  -7    0.07    0.06
   1  10   7    0.04    0.04
   1  10   7    0.03    0.04
   1  10   7    0.11    0.09
  -2 -10  -7    2.41    0.15
  -2 -10  -7    2.48    0.21
   2  10   7    2.30    0.14
   2  10   7    2.50    0.21
   2  10   7    2.41    0.13
   2  10   7    2.39    0.13
  -3 -10  -7    3.77    0.26
  -3 -10  -7    3.84    0.18
   3  10   7    3.27    0.17
   3  10   7    3.54    0.17
   3  10   7    3.43    0.16
   3  10   7    3.40    0.25
  -4 -10  -7    0.44    0.11
  -4 -10  -7    0.36    0.06
   4  10   7    0.24    0.06
   4  10   7    0.30    0.06
   4  10   7    0.29    0.10
   4  10   7    0.32    0.06
  -5 -10  -7    0.00    0.09
  -5 -10  -7    0.00    0.05
   5  10   7    0.03    0.05
   5  10   7   -0.02    0.08
   5  10   7   -0.08    0.05
   5  10   7    0.04    0.05
  -6 -10  -7    1.34    0.10
  -6 -10  -7    1.23    0.15
   6  10   7    1.26    0.15
   6  10   7    1.06    0.10
   6  10   7    1.08    0.10
   6  10   7    1.28    0.10
  -7 -10  -7    1.00    0.08
  -7 -10  -7    0.91    0.14
   7  10   7    0.85    0.14
   7  10   7    0.95    0.09
   7  10   7    0.85    0.10
  -8 -10  -7    0.06    0.09
   8  10   7   -0.02    0.07
   8  10   7   -0.12    0.06
  -9 -10  -7    0.06    0.09
  -9 -10  -7    0.26    0.07
   9  10   7    0.00    0.07
   9  10   7    0.18    0.07
   0 -11  -7    0.03    0.10
   0 -11  -7    0.19    0.07
   0  11   7    0.07    0.10
  -1 -11  -7    0.32    0.12
  -1 -11  -7    0.45    0.08
   1  11   7    0.35    0.11
  -2 -11  -7    0.00    0.09
  -2 -11  -7   -0.02    0.06
   2  11   7   -0.04    0.04
   2  11   7    0.08    0.09
  -3 -11  -7   -0.07    0.05
  -3 -11  -7   -0.06    0.09
   3  11   7   -0.01    0.05
   3  11   7   -0.01    0.05
   3  11   7   -0.02    0.09
  -4 -11  -7    0.10    0.06
  -4 -11  -7    0.20    0.11
   4  11   7    0.11    0.09
   4  11   7    0.08    0.06
   4  11   7    0.09    0.06
  -5 -11  -7    0.49    0.13
  -5 -11  -7    0.48    0.07
   5  11   7    0.21    0.11
   5  11   7    0.39    0.07
   5  11   7    0.32    0.07
  -6 -11  -7    0.04    0.10
  -6 -11  -7    0.04    0.05
   6  11   7    0.01    0.06
   6  11   7    0.10    0.10
   6  11   7    0.12    0.06
  -7 -11  -7    1.96    0.22
   7  11   7    2.14    0.14
   7  11   7    1.56    0.15
   7  11   7    2.02    0.22
  -8 -11  -7    1.30    0.18
   8  11   7    1.90    0.15
   8  11   7    1.15    0.12
  -3 -12  -7    0.06    0.07
  -3 -12  -7    0.09    0.11
   3  12   7    0.05    0.06
   3  12   7    0.08    0.11
  -4 -12  -7    0.95    0.16
  -4 -12  -7    0.82    0.09
   4  12   7    0.90    0.10
   4  12   7    0.89    0.09
   4  12   7    0.84    0.15
  -5 -12  -7    0.83    0.09
  -5 -12  -7    1.00    0.16
   5  12   7    0.89    0.10
   5  12   7    0.78    0.09
   5  12   7    0.98    0.15
   6  12   7    0.03    0.06
   6  12   7    0.17    0.11
   2   8  -8    3.60    0.18
   2   8  -8    3.51    0.26
  -6  -7   8    6.00    0.33
   5   7  -8    1.04    0.09
  -5  -7   8    0.96    0.12
  -5  -7   8    1.09    0.09
  -5  -7   8    0.86    0.10
   4   7  -8    0.67    0.08
  -4  -7   8    0.65    0.09
  -4  -7   8    0.60    0.08
  -4  -7   8    0.58    0.11
   3   7  -8    0.07    0.06
   3   7  -8    0.11    0.09
  -3  -7   8    0.13    0.08
  -3  -7   8    0.18    0.06
  -3  -7   8    0.08    0.06
   2   7  -8    9.95    0.34
   2   7  -8    9.75    0.49
  -2  -7   8   10.02    0.35
  -2  -7   8    9.44    0.49
   1   7  -8    0.08    0.06
   1   7  -8    0.06    0.08
  -1  -7   8   -0.05    0.06
  -1  -7   8   -0.04    0.09
   0   7  -8    0.22    0.09
   0   7  -8    0.14    0.07
   0  -7   8    0.19    0.07
   0  -7   8    0.19    0.10
  -1   7  -8    0.18    0.07
  -1   7  -8    0.08    0.09
   1  -7   8    0.05    0.07
   1  -7   8    0.04    0.10
  -2   7  -8    0.38    0.08
  -2   7  -8    0.37    0.11
   2  -7   8    0.50    0.13
   7   6  -8    0.20    0.09
  -7  -6   8    0.25    0.08
  -7  -6   8    0.31    0.08
   6   6  -8    1.54    0.13
  -6  -6   8    1.91    0.15
  -6  -6   8    1.75    0.16
  -6  -6   8    1.92    0.13
   5   6  -8    0.02    0.05
   5   6  -8    0.01    0.07
  -5  -6   8   -0.01    0.06
  -5  -6   8   -0.03    0.05
  -5  -6   8    0.08    0.06
   4   6  -8    0.07    0.05
  -4  -6   8    0.11    0.06
  -4  -6   8    0.09    0.05
  -4  -6   8    0.05    0.07
   3   6  -8    0.16    0.08
   3   6  -8    0.26    0.06
  -3  -6   8    0.37    0.06
  -3  -6   8    0.29    0.06
  -3  -6   8    0.29    0.09
   2   6  -8    3.48    0.17
   2   6  -8    3.29    0.23
  -2  -6   8    3.35    0.18
  -2  -6   8    3.10    0.23
   1   6  -8    5.24    0.22
   1   6  -8    5.09    0.30
  -1  -6   8    5.02    0.22
  -1  -6   8    5.31    0.31
   0   6  -8   -0.02    0.05
   0   6  -8   -0.01    0.08
   0  -6   8    0.12    0.09
   0  -6   8   -0.01    0.06
  -1   6  -8    3.32    0.17
  -1   6  -8    2.80    0.23
   1  -6   8    3.08    0.24
   1  -6   8    3.21    0.18
  -2   6  -8    0.56    0.11
  -2   6  -8    0.42    0.08
   2  -6   8    0.46    0.08
   2  -6   8    0.57    0.12
  -3   6  -8    0.55    0.12
  -3   6  -8    0.64    0.09
   3  -6   8    0.62    0.13
   3  -6   8    0.57    0.09
   7   5  -8    0.14    0.08
  -7  -5   8    0.09    0.06
  -7  -5   8    0.23    0.07
   6   5  -8   -0.07    0.04
   6   5  -8    0.02    0.06
  -6  -5   8    0.09    0.05
  -6  -5   8    0.03    0.06
  -6  -5   8   -0.04    0.05
   5   5  -8    3.20    0.14
   5   5  -8    3.37    0.19
  -5  -5   8    3.21    0.17
  -5  -5   8    2.94    0.20
  -5  -5   8    3.35    0.15
   4   5  -8    0.05    0.04
   4   5  -8    0.00    0.06
  -4  -5   8    0.05    0.05
  -4  -5   8    0.03    0.05
  -4  -5   8    0.08    0.07
   3   5  -8    0.59    0.07
   3   5  -8    0.65    0.09
  -3  -5   8    0.53    0.07
  -3  -5   8    0.57    0.07
  -3  -5   8    0.49    0.09
   2   5  -8    1.58    0.11
   2   5  -8    1.30    0.16
  -2  -5   8    1.35    0.17
  -2  -5   8    1.53    0.12
   1   5  -8   10.31    0.34
   1   5  -8    9.48    0.48
  -1  -5   8    9.66    0.48
  -1  -5   8   10.60    0.35
   0   5  -8    0.04    0.05
   0   5  -8   -0.06    0.07
   0  -5   8   -0.05    0.08
   0  -5   8    0.06    0.06
  -1   5  -8    3.83    0.25
  -1   5  -8    4.04    0.18
   1  -5   8    3.88    0.19
   1  -5   8    3.89    0.26
  -2   5  -8    0.18    0.09
  -2   5  -8    0.20    0.06
   2  -5   8    0.19    0.09
   2  -5   8    0.27    0.06
  -3   5  -8    0.80    0.09
  -3   5  -8    0.87    0.12
   3  -5   8    0.96    0.09
   3  -5   8    0.89    0.13
  -4   5  -8    0.29    0.07
  -4   5  -8    0.12    0.09
  -4   5  -8    0.16    0.06
   4  -5   8    0.22    0.07
   4  -5   8    0.26    0.11
  -5   5  -8    0.15    0.07
  -5   5  -8    0.24    0.06
  -5   5  -8    0.21    0.10
   5  -5   8    0.26    0.11
   5  -5   8    0.09    0.07
   8   4  -8    1.79    0.17
  -8  -4   8    1.86    0.16
   7   4  -8    0.48    0.09
  -7  -4   8    0.40    0.07
  -7  -4   8    0.48    0.08
   6   4  -8    0.33    0.07
   6   4  -8    0.23    0.04
  -6  -4   8    0.26    0.05
  -6  -4   8    0.33    0.07
  -6  -4   8    0.21    0.06
   5   4  -8    3.95    0.15
   5   4  -8    3.76    0.20
  -5  -4   8    3.69    0.22
  -5  -4   8    3.98    0.19
  -5  -4   8    3.92    0.16
   4   4  -8    0.85    0.07
   4   4  -8    0.68    0.08
   4   4  -8    0.71    0.09
  -4  -4   8    0.74    0.08
  -4  -4   8    0.71    0.07
  -4  -4   8    0.71    0.09
   3   4  -8    0.98    0.09
   3   4  -8    1.10    0.09
   3   4  -8    1.07    0.12
  -3  -4   8    1.05    0.09
  -3  -4   8    1.12    0.10
  -3  -4   8    1.13    0.13
   2   4  -8   -0.12    0.06
   2   4  -8   -0.01    0.04
   2   4  -8    0.02    0.05
  -2  -4   8   -0.09    0.07
  -2  -4   8    0.01    0.05
   1   4  -8    0.17    0.08
   1   4  -8    0.24    0.06
  -1  -4   8    0.12    0.08
  -1  -4   8    0.20    0.06
   0   4  -8   22.35    0.96
   0   4  -8   22.27    0.68
   0  -4   8   22.44    0.68
   0  -4   8   22.81    0.97
   0  -4   8   22.58    0.64
  -1   4  -8    2.02    0.12
  -1   4  -8    1.83    0.17
   1  -4   8    1.81    0.18
   1  -4   8    1.78    0.09
   1  -4   8    2.03    0.13
  -2   4  -8    1.82    0.12
  -2   4  -8    1.67    0.16
   2  -4   8    1.92    0.13
   2  -4   8    1.51    0.17
   2  -4   8    1.76    0.08
  -3   4  -8    0.04    0.05
  -3   4  -8   -0.03    0.07
   3  -4   8   -0.01    0.03
   3  -4   8    0.00    0.05
   3  -4   8    0.05    0.08
  -4   4  -8    0.22    0.06
  -4   4  -8    0.17    0.09
  -4   4  -8    0.17    0.05
   4  -4   8    0.21    0.05
   4  -4   8    0.18    0.06
   4  -4   8    0.18    0.09
  -5   4  -8    0.05    0.06
  -5   4  -8    0.02    0.08
  -5   4  -8    0.12    0.05
   5  -4   8   -0.06    0.06
   5  -4   8   -0.05    0.05
   5  -4   8    0.00    0.09
  -6   4  -8    1.61    0.13
  -6   4  -8    1.72    0.14
  -6   4  -8    1.51    0.19
   6  -4   8    1.60    0.14
   6  -4   8    1.73    0.15
   6  -4   8    1.73    0.12
   8   3  -8    1.41    0.13
   7   3  -8    0.02    0.07
  -7  -3   8   -0.01    0.06
  -7  -3   8    0.05    0.04
   6   3  -8    0.36    0.04
   6   3  -8    0.34    0.08
  -6  -3   8    0.40    0.07
  -6  -3   8    0.28    0.07
  -6  -3   8    0.35    0.05
   5   3  -8    0.83    0.09
   5   3  -8    0.93    0.08
  -5  -3   8    0.85    0.07
  -5  -3   8    0.77    0.08
  -5  -3   8    0.78    0.09
   4   3  -8    0.24    0.06
   4   3  -8    0.17    0.04
   4   3  -8    0.22    0.06
  -4  -3   8    0.23    0.05
  -4  -3   8    0.23    0.07
  -4  -3   8    0.20    0.05
   3   3  -8    0.59    0.09
   3   3  -8    0.61    0.07
   3   3  -8    0.56    0.06
  -3  -3   8    0.61    0.09
  -3  -3   8    0.63    0.06
  -3  -3   8    0.81    0.08
  -3  -3   8    0.51    0.08
   2   3  -8   -0.04    0.04
   2   3  -8   -0.03    0.06
   2   3  -8    0.05    0.04
  -2  -3   8   -0.01    0.04
  -2  -3   8   -0.01    0.06
  -2  -3   8   -0.12    0.06
   1   3  -8    1.28    0.11
   1   3  -8    1.26    0.13
   1   3  -8    1.29    0.10
  -1  -3   8    1.19    0.10
  -1  -3   8    1.10    0.13
   0   3  -8    0.19    0.08
   0   3  -8    0.23    0.05
   0  -3   8    0.13    0.08
   0  -3   8    0.30    0.02
   0  -3   8    0.25    0.06
   0  -3   8    0.32    0.03
   0  -3   8    0.30    0.03
  -1   3  -8    7.02    0.25
  -1   3  -8    6.36    0.35
   1  -3   8    6.60    0.35
   1  -3   8    6.76    0.25
   1  -3   8    7.01    0.21
   1  -3   8    7.12    0.20
   1  -3   8    6.99    0.22
  -2   3  -8    0.10    0.08
  -2   3  -8    0.36    0.06
   2  -3   8    0.31    0.04
   2  -3   8    0.24    0.04
   2  -3   8    0.19    0.05
   2  -3   8    0.12    0.08
  -3   3  -8    0.05    0.07
  -3   3  -8    0.15    0.05
  -3   3  -8    0.15    0.04
   3  -3   8    0.09    0.05
   3  -3   8    0.11    0.08
   3  -3   8    0.11    0.04
  -4   3  -8    0.65    0.07
  -4   3  -8    0.45    0.06
  -4   3  -8    0.43    0.10
   4  -3   8    0.42    0.11
   4  -3   8    0.51    0.07
   4  -3   8    0.64    0.07
  -5   3  -8    2.53    0.21
  -5   3  -8    2.31    0.14
  -5   3  -8    2.04    0.14
   5  -3   8    2.20    0.12
   5  -3   8    2.21    0.13
   5  -3   8    2.33    0.15
   5  -3   8    2.36    0.21
  -6   3  -8    0.46    0.07
  -6   3  -8    0.40    0.07
  -6   3  -8    0.30    0.10
   6  -3   8    0.33    0.11
   6  -3   8    0.46    0.07
   6  -3   8    0.31    0.07
   6  -3   8    0.41    0.07
  -7   3  -8    0.64    0.08
  -7   3  -8    0.46    0.11
  -7   3  -8    0.49    0.08
   7  -3   8    0.31    0.08
   7  -3   8    0.48    0.08
   7  -3   8    0.48    0.08
   8   2  -8    0.03    0.07
   7   2  -8   -0.04    0.07
  -7  -2   8    0.03    0.06
  -7  -2   8    0.10    0.04
   6   2  -8    2.17    0.10
   6   2  -8    2.45    0.16
   6   2  -8    2.26    0.12
  -6  -2   8    2.32    0.11
  -6  -2   8    2.32    0.14
  -6  -2   8    2.29    0.15
   5   2  -8    0.46    0.06
   5   2  -8    0.42    0.07
   5   2  -8    0.40    0.05
  -5  -2   8    0.35    0.05
  -5  -2   8    0.40    0.07
  -5  -2   8    0.36    0.06
   4   2  -8    2.03    0.12
   4   2  -8    2.00    0.14
   4   2  -8    1.89    0.10
   4   2  -8    2.02    0.13
  -4  -2   8    2.00    0.15
  -4  -2   8    1.96    0.12
  -4  -2   8    1.94    0.11
   3   2  -8    4.81    0.21
   3   2  -8    5.16    0.20
   3   2  -8    4.76    0.26
   3   2  -8    4.79    0.19
   3   2  -8    4.98    0.18
  -3  -2   8    4.92    0.26
  -3  -2   8    4.91    0.19
  -3  -2   8    4.97    0.20
  -3  -2   8    5.21    0.26
   2   2  -8    2.59    0.13
   2   2  -8    2.55    0.14
   2   2  -8    2.74    0.18
   2   2  -8    2.99    0.13
   2   2  -8    2.71    0.11
  -2  -2   8    2.73    0.18
  -2  -2   8    2.74    0.13
  -2  -2   8    2.51    0.13
  -2  -2   8    2.66    0.18
   1   2  -8    6.13    0.22
   1   2  -8    6.71    0.32
   1   2  -8    6.55    0.21
   1   2  -8    6.40    0.24
  -1  -2   8    6.83    0.33
  -1  -2   8    6.35    0.23
   0   2  -8    0.39    0.08
   0   2  -8    0.27    0.05
   0   2  -8    0.19    0.05
   0  -2   8    0.19    0.02
   0  -2   8    0.19    0.02
   0  -2   8    0.18    0.05
   0  -2   8    0.24    0.02
   0  -2   8    0.48    0.09
  -1   2  -8   13.39    0.42
  -1   2  -8   13.94    0.59
   1  -2   8   13.02    0.42
   1  -2   8   13.06    0.39
   1  -2   8   12.91    0.37
   1  -2   8   13.28    0.59
  -2   2  -8    0.53    0.07
  -2   2  -8    0.29    0.09
   2  -2   8    0.27    0.10
   2  -2   8    0.47    0.04
   2  -2   8    0.41    0.06
   2  -2   8    0.39    0.04
  -3   2  -8    0.10    0.07
  -3   2  -8    0.20    0.04
  -3   2  -8    0.14    0.05
   3  -2   8    0.13    0.04
   3  -2   8    0.14    0.05
   3  -2   8    0.04    0.08
   3  -2   8    0.22    0.04
  -4   2  -8    0.10    0.04
  -4   2  -8    0.09    0.08
  -4   2  -8    0.08    0.05
   4  -2   8    0.20    0.05
   4  -2   8    0.08    0.08
   4  -2   8    0.08    0.05
  -5   2  -8    0.59    0.07
  -5   2  -8    0.47    0.10
  -5   2  -8    0.50    0.06
   5  -2   8    0.40    0.10
   5  -2   8    0.44    0.06
   5  -2   8    0.57    0.07
  -6   2  -8    0.45    0.10
  -6   2  -8    0.43    0.07
  -6   2  -8    0.45    0.07
   6  -2   8    0.55    0.08
   6  -2   8    0.56    0.11
   6  -2   8    0.47    0.07
  -7   2  -8    0.49    0.07
  -7   2  -8    0.40    0.07
  -7   2  -8    0.50    0.10
   7  -2   8    0.32    0.07
   7  -2   8    0.42    0.08
  -8   2  -8    2.53    0.15
  -8   2  -8    2.37    0.22
  -8   2  -8    2.85    0.17
   8  -2   8    2.30    0.16
   8  -2   8    2.63    0.17
   8   1  -8    0.37    0.09
   7   1  -8    0.06    0.03
   7   1  -8   -0.06    0.07
   7   1  -8    0.03    0.05
  -7  -1   8    0.06    0.03
   6   1  -8    0.50    0.08
   6   1  -8    0.69    0.07
  -6  -1   8    0.57    0.06
  -6  -1   8    0.62    0.08
   5   1  -8    0.61    0.05
   5   1  -8    0.49    0.07
   5   1  -8    0.63    0.06
  -5  -1   8    0.61    0.05
  -5  -1   8    0.53    0.07
  -5  -1   8    0.54    0.07
   4   1  -8    9.43    0.42
   4   1  -8    9.50    0.34
   4   1  -8    9.59    0.32
   4   1  -8    9.39    0.30
   4   1  -8    9.06    0.32
  -4  -1   8    9.57    0.43
  -4  -1   8    9.82    0.44
  -4  -1   8    9.57    0.33
  -4  -1   8    9.76    0.30
   3   1  -8    0.07    0.04
   3   1  -8    0.13    0.03
   3   1  -8    0.07    0.04
   3   1  -8    0.05    0.05
   3   1  -8    0.04    0.06
  -3  -1   8    0.04    0.04
  -3  -1   8    0.12    0.06
  -3  -1   8    0.14    0.05
  -3  -1   8    0.07    0.06
   2   1  -8    4.15    0.18
   2   1  -8    4.16    0.17
   2   1  -8    4.15    0.23
   2   1  -8    4.15    0.15
   2   1  -8    3.92    0.16
  -2  -1   8    4.29    0.13
  -2  -1   8    4.34    0.23
  -2  -1   8    4.45    0.17
  -2  -1   8    4.08    0.23
  -2  -1   8    3.72    0.17
   1   1  -8    6.39    0.24
   1   1  -8    6.60    0.21
   1   1  -8    6.20    0.24
   1   1  -8    6.56    0.23
   1   1  -8    6.85    0.32
  -1  -1   8    6.42    0.32
  -1  -1   8    6.84    0.32
  -1  -1   8    6.65    0.23
  -1  -1   8    6.40    0.19
   0   1  -8   30.02    0.89
   0   1  -8   29.73    0.85
   0   1  -8   29.71    0.82
   0   1  -8   30.02    0.90
   0   1  -8   27.12    1.20
   0  -1   8   27.25    1.20
   0  -1   8   29.44    0.81
   0  -1   8   29.15    0.80
   0  -1   8   29.55    0.79
   0  -1   8   29.81    0.85
  -1   1  -8    3.50    0.20
  -1   1  -8    3.18    0.14
   1  -1   8    3.32    0.15
   1  -1   8    3.15    0.11
   1  -1   8    3.40    0.21
   1  -1   8    3.17    0.11
  -2   1  -8    5.85    0.22
  -2   1  -8    6.02    0.20
  -2   1  -8    5.91    0.30
   2  -1   8    6.09    0.19
   2  -1   8    5.57    0.30
   2  -1   8    5.93    0.22
   2  -1   8    6.09    0.19
  -3   1  -8    0.39    0.06
  -3   1  -8    0.27    0.04
  -3   1  -8    0.18    0.08
   3  -1   8    0.17    0.08
   3  -1   8    0.38    0.04
   3  -1   8    0.27    0.04
   3  -1   8    0.24    0.05
  -4   1  -8    0.60    0.09
  -4   1  -8    0.71    0.06
  -4   1  -8    0.56    0.07
   4  -1   8    0.61    0.10
   4  -1   8    0.59    0.06
   4  -1   8    0.55    0.07
  -5   1  -8    2.87    0.15
  -5   1  -8    2.97    0.21
  -5   1  -8    3.03    0.14
   5  -1   8    2.96    0.21
   5  -1   8    2.83    0.14
   5  -1   8    3.18    0.15
  -6   1  -8    0.01    0.05
  -6   1  -8    0.02    0.08
  -6   1  -8   -0.03    0.05
   6  -1   8    0.04    0.08
   6  -1   8    0.04    0.06
   6  -1   8   -0.07    0.05
  -7   1  -8    0.70    0.11
  -7   1  -8    0.95    0.09
  -7   1  -8    0.88    0.08
   7  -1   8    0.99    0.13
   7  -1   8    0.82    0.09
   7  -1   8    0.95    0.09
  -8   1  -8    2.09    0.20
  -8   1  -8    2.27    0.14
  -8   1  -8    2.35    0.16
   8  -1   8    2.05    0.15
   8  -1   8    2.16    0.16
   8   0  -8    0.61    0.10
   8   0  -8    0.50    0.06
   7   0  -8    4.90    0.23
   7   0  -8    4.56    0.19
   7   0  -8    4.27    0.17
  -7   0   8    4.30    0.20
   6   0  -8    0.05    0.03
   6   0  -8    0.15    0.06
   6   0  -8    0.03    0.05
  -6   0   8    0.11    0.04
  -6   0   8   -0.02    0.05
   5   0  -8    0.01    0.05
   5   0  -8    0.02    0.04
   5   0  -8    0.08    0.03
  -5   0   8   -0.05    0.04
  -5   0   8    0.01    0.05
   4   0  -8    0.47    0.07
   4   0  -8    0.38    0.07
   4   0  -8    0.42    0.05
   4   0  -8    0.37    0.04
   4   0  -8    0.50    0.06
  -4   0   8    0.36    0.07
  -4   0   8    0.40    0.07
  -4   0   8    0.25    0.06
  -4   0   8    0.40    0.05
   3   0  -8    1.56    0.11
   3   0  -8    2.08    0.14
   3   0  -8    1.76    0.13
   3   0  -8    1.91    0.09
   3   0  -8    1.79    0.10
  -3   0   8    2.05    0.14
  -3   0   8    1.70    0.11
  -3   0   8    1.70    0.11
  -3   0   8    2.07    0.14
  -3   0   8    1.80    0.08
   2   0  -8   25.96    0.76
   2   0  -8   25.96    0.80
   2   0  -8   26.21    0.81
   2   0  -8   24.71    1.07
   2   0  -8   26.08    0.79
  -2   0   8   25.59    1.07
  -2   0   8   26.34    0.76
  -2   0   8   25.90    1.07
  -2   0   8   25.87    0.72
  -2   0   8   26.62    0.79
   1   0  -8   16.74    0.53
   1   0  -8   16.86    0.52
   1   0  -8   17.49    0.72
   1   0  -8   16.52    0.49
   1   0  -8   16.61    0.54
   1   0  -8   17.32    0.51
  -1   0   8   16.86    0.51
  -1   0   8   16.07    0.71
  -1   0   8   16.80    0.72
  -1   0   8   16.95    0.47
  -1   0   8   16.46    0.45
  -1   0   8   16.73    0.45
   0   0  -8    3.52    0.12
   0   0  -8    3.39    0.15
   0   0  -8    3.42    0.20
   0   0  -8    3.46    0.15
   0   0  -8    3.39    0.15
   0   0   8    3.55    0.11
   0   0   8    3.64    0.21
   0   0   8    3.71    0.21
   0   0   8    3.32    0.15
   0   0   8    3.47    0.11
   0   0   8    3.52    0.11
  -1   0  -8    4.11    0.17
  -1   0  -8    4.04    0.16
  -1   0  -8    4.22    0.14
  -1   0  -8    4.32    0.16
  -1   0  -8    4.17    0.13
  -1   0  -8    4.48    0.24
   1   0   8    4.23    0.17
   1   0   8    4.15    0.14
   1   0   8    4.26    0.14
   1   0   8    4.39    0.24
  -2   0  -8    2.14    0.12
  -2   0  -8    2.38    0.09
  -2   0  -8    2.85    0.18
   2   0   8    2.42    0.10
   2   0   8    2.65    0.13
   2   0   8    2.44    0.17
   2   0   8    2.37    0.10
   2   0   8    2.38    0.11
  -3   0  -8    8.76    0.43
  -3   0  -8    9.47    0.30
  -3   0  -8    9.18    0.30
   3   0   8    9.14    0.31
   3   0   8    9.55    0.28
   3   0   8    9.31    0.30
   3   0   8    9.02    0.29
   3   0   8    8.84    0.43
  -4   0  -8   15.54    0.66
  -4   0  -8   14.70    0.46
  -4   0  -8   14.52    0.48
   4   0   8   15.07    0.66
   4   0   8   14.68    0.45
   4   0   8   14.49    0.47
   4   0   8   14.58    0.46
   4   0   8   15.58    0.45
  -5   0  -8    0.01    0.05
  -5   0  -8    0.01    0.04
  -5   0  -8   -0.05    0.07
   5   0   8   -0.01    0.04
   5   0   8    0.01    0.07
   5   0   8    0.03    0.05
  -6   0  -8    3.57    0.16
  -6   0  -8    3.59    0.17
  -6   0  -8    3.56    0.23
   6   0   8    3.70    0.24
   6   0   8    3.56    0.17
   6   0   8    3.58    0.16
  -7   0  -8    0.88    0.08
  -7   0  -8    0.71    0.11
  -7   0  -8    0.75    0.08
   7   0   8    0.82    0.09
   7   0   8    0.75    0.12
   7   0   8    0.76    0.08
  -8   0  -8    2.96    0.15
  -8   0  -8    2.96    0.21
  -8   0  -8    2.81    0.17
   8   0   8    2.94    0.17
   8   0   8    2.95    0.16
  -9   0  -8    1.09    0.10
  -9   0  -8    1.05    0.13
  -9   0  -8    1.23    0.10
   9   0   8    0.95    0.09
   9   0   8    1.23    0.12
   8  -1  -8    2.30    0.19
   8  -1  -8    1.85    0.12
   7  -1  -8    3.40    0.17
   7  -1  -8    3.52    0.20
   7  -1  -8    3.11    0.14
   6  -1  -8   -0.07    0.05
   6  -1  -8    0.00    0.03
   6  -1  -8   -0.03    0.05
  -6   1   8    0.01    0.04
   5  -1  -8    0.12    0.06
   5  -1  -8    0.01    0.05
   5  -1  -8    0.03    0.03
  -5   1   8    0.01    0.05
  -5   1   8    0.00    0.02
  -5   1   8    0.05    0.05
   4  -1  -8    0.57    0.07
   4  -1  -8    0.96    0.10
   4  -1  -8    0.60    0.08
  -4   1   8    0.85    0.09
  -4   1   8    0.74    0.04
  -4   1   8    0.58    0.07
  -4   1   8    0.68    0.08
   3  -1  -8   24.86    0.71
   3  -1  -8   26.53    1.05
   3  -1  -8   25.57    0.78
   3  -1  -8   25.59    0.81
  -3   1   8   26.47    1.05
  -3   1   8   26.15    0.74
  -3   1   8   24.79    0.69
  -3   1   8   24.32    1.05
  -3   1   8   24.61    0.78
   2  -1  -8   30.24    0.85
   2  -1  -8   29.50    1.24
   2  -1  -8   30.34    0.95
   2  -1  -8   29.96    0.92
  -2   1   8   30.15    1.25
  -2   1   8   30.97    0.88
  -2   1   8   30.12    0.85
  -2   1   8   30.36    0.91
  -2   1   8   30.18    0.82
  -2   1   8   32.00    1.25
   1  -1  -8   16.96    0.55
   1  -1  -8   17.57    0.54
   1  -1  -8   16.85    0.50
   1  -1  -8   17.05    0.48
   1  -1  -8   16.06    0.72
  -1   1   8   17.34    0.51
  -1   1   8   17.08    0.73
  -1   1   8   17.13    0.53
  -1   1   8   16.88    0.48
  -1   1   8   16.92    0.46
  -1   1   8   17.75    0.73
   0  -1  -8   12.11    0.40
   0  -1  -8   12.01    0.40
   0  -1  -8   12.93    0.55
   0   1   8   12.10    0.39
   0   1   8   12.04    0.36
   0   1   8   11.94    0.36
   0   1   8   12.84    0.55
   0   1   8   13.20    0.55
  -1  -1  -8   -0.07    0.03
  -1  -1  -8   -0.08    0.04
  -1  -1  -8   -0.04    0.05
   1   1   8    0.02    0.06
   1   1   8   -0.01    0.02
   1   1   8   -0.05    0.04
  -2  -1  -8    0.30    0.05
  -2  -1  -8    0.37    0.08
  -2  -1  -8    0.40    0.04
   2   1   8    0.35    0.04
   2   1   8    0.39    0.04
   2   1   8    0.26    0.05
   2   1   8    0.36    0.08
  -3  -1  -8    0.16    0.05
  -3  -1  -8    0.05    0.06
   3   1   8    0.17    0.05
   3   1   8    0.18    0.04
   3   1   8    0.14    0.06
   3   1   8    0.13    0.03
  -4  -1  -8    0.12    0.03
  -4  -1  -8    0.11    0.07
  -4  -1  -8    0.05    0.05
   4   1   8    0.12    0.04
   4   1   8    0.12    0.05
   4   1   8    0.06    0.05
   4   1   8    0.09    0.04
   4   1   8    0.05    0.07
   4   1   8    0.11    0.03
  -5  -1  -8    0.81    0.07
  -5  -1  -8    0.70    0.07
  -5  -1  -8    0.66    0.10
   5   1   8    0.86    0.06
   5   1   8    0.71    0.07
   5   1   8    0.71    0.07
   5   1   8    0.58    0.07
   5   1   8    0.68    0.10
  -6  -1  -8    1.00    0.08
  -6  -1  -8    1.11    0.14
  -6  -1  -8    0.91    0.08
   6   1   8    0.89    0.08
   6   1   8    0.86    0.08
   6   1   8    1.06    0.08
   6   1   8    0.89    0.12
  -7  -1  -8    4.95    0.21
  -7  -1  -8    5.28    0.21
  -7  -1  -8    5.07    0.29
   7   1   8    5.38    0.29
   7   1   8    5.24    0.21
   7   1   8    5.26    0.21
   7   1   8    5.05    0.21
  -8  -1  -8    3.67    0.17
  -8  -1  -8    3.67    0.24
  -8  -1  -8    3.90    0.19
   8   1   8    3.90    0.18
   8   1   8    3.84    0.18
   8   1   8    3.94    0.19
  -9  -1  -8    0.76    0.09
  -9  -1  -8    0.92    0.12
  -9  -1  -8    0.96    0.09
   9   1   8    0.70    0.08
   9   1   8    0.75    0.08
   9   1   8    0.81    0.10
   8  -2  -8    0.17    0.06
   8  -2  -8   -0.01    0.08
   8  -2  -8    0.26    0.06
   7  -2  -8   -0.02    0.04
   7  -2  -8   -0.06    0.07
   7  -2  -8    0.02    0.05
   6  -2  -8   -0.03    0.06
   6  -2  -8    0.03    0.04
   6  -2  -8    0.06    0.05
  -6   2   8    0.04    0.04
   5  -2  -8    2.16    0.13
   5  -2  -8    2.14    0.15
   5  -2  -8    2.17    0.10
  -5   2   8    2.21    0.14
  -5   2   8    2.12    0.09
   4  -2  -8   14.71    0.61
   4  -2  -8   14.57    0.49
   4  -2  -8   14.19    0.46
  -4   2   8   14.31    0.61
  -4   2   8   13.98    0.40
  -4   2   8   14.10    0.46
   3  -2  -8    2.68    0.17
   3  -2  -8    2.68    0.15
   3  -2  -8    2.79    0.14
   3  -2  -8    2.54    0.09
  -3   2   8    2.52    0.16
  -3   2   8    2.14    0.13
  -3   2   8    2.26    0.17
  -3   2   8    2.55    0.09
   2  -2  -8    6.93    0.26
   2  -2  -8    6.98    0.25
   2  -2  -8    7.02    0.21
   2  -2  -8    7.20    0.34
  -2   2   8    6.43    0.33
  -2   2   8    6.94    0.33
  -2   2   8    7.03    0.24
  -2   2   8    7.09    0.24
  -2   2   8    7.06    0.20
   1  -2  -8    0.02    0.04
   1  -2  -8    0.14    0.05
   1  -2  -8    0.05    0.02
   1  -2  -8   -0.02    0.06
  -1   2   8   -0.04    0.04
  -1   2   8   -0.06    0.06
  -1   2   8   -0.08    0.03
  -1   2   8    0.01    0.03
  -1   2   8    0.05    0.02
  -1   2   8    0.04    0.06
   0  -2  -8   49.66    1.47
   0  -2  -8   51.08    2.00
   0  -2  -8   49.71    1.50
   0  -2  -8   49.28    1.38
   0   2   8   50.19    1.34
   0   2   8   50.48    1.38
   0   2   8   48.89    2.00
   0   2   8   49.08    1.37
   0   2   8   49.65    1.41
   0   2   8   47.32    1.99
  -1  -2  -8    8.84    0.29
  -1  -2  -8    8.80    0.27
  -1  -2  -8    8.84    0.30
  -1  -2  -8    8.05    0.40
   1   2   8    8.38    0.41
   1   2   8   10.21    0.42
   1   2   8    8.89    0.29
   1   2   8    8.69    0.27
  -2  -2  -8    3.04    0.14
  -2  -2  -8    2.90    0.19
  -2  -2  -8    2.87    0.12
  -2  -2  -8    2.84    0.11
   2   2   8    2.94    0.14
   2   2   8    3.16    0.19
   2   2   8    2.90    0.11
   2   2   8    2.87    0.14
  -3  -2  -8   -0.06    0.04
  -3  -2  -8   -0.06    0.05
   3   2   8   -0.01    0.04
   3   2   8   -0.04    0.05
   3   2   8   -0.04    0.03
   3   2   8   -0.10    0.04
  -4  -2  -8    0.93    0.07
  -4  -2  -8    0.79    0.10
   4   2   8    0.73    0.07
   4   2   8    0.80    0.06
   4   2   8    0.85    0.11
   4   2   8    0.79    0.06
   4   2   8    0.98    0.09
  -5  -2  -8   10.13    0.47
  -5  -2  -8    9.70    0.30
   5   2   8   10.05    0.33
   5   2   8   10.29    0.32
   5   2   8   10.21    0.35
   5   2   8   10.50    0.48
  -6  -2  -8    2.13    0.08
  -6  -2  -8    2.03    0.17
  -6  -2  -8    1.93    0.12
   6   2   8    2.06    0.18
   6   2   8    2.07    0.12
   6   2   8    1.96    0.13
   6   2   8    2.10    0.12
  -7  -2  -8    1.86    0.17
  -7  -2  -8    2.02    0.12
   7   2   8    2.04    0.12
   7   2   8    1.86    0.13
   7   2   8    1.96    0.18
   7   2   8    1.95    0.13
  -8  -2  -8   -0.10    0.07
  -8  -2  -8   -0.04    0.05
   8   2   8   -0.01    0.07
   8   2   8    0.11    0.05
   8   2   8    0.01    0.06
   8   2   8    0.08    0.06
  -9  -2  -8    0.71    0.11
  -9  -2  -8    0.69    0.08
   9   2   8    0.74    0.09
   9   2   8    0.71    0.08
   9   2   8    0.67    0.07
 -10  -2  -8    1.75    0.17
  10   2   8    1.82    0.16
  10   2   8    1.57    0.14
   7  -3  -8    0.02    0.06
   7  -3  -8   -0.07    0.04
   6  -3  -8    0.30    0.07
   6  -3  -8    0.30    0.06
  -6   3   8    0.27    0.05
  -6   3   8    0.33    0.06
   5  -3  -8    4.49    0.19
   5  -3  -8    4.30    0.17
  -5   3   8    4.08    0.15
  -5   3   8    4.35    0.23
   4  -3  -8    0.51    0.08
   4  -3  -8    0.49    0.06
  -4   3   8    0.47    0.08
  -4   3   8    0.46    0.05
  -4   3   8    0.67    0.06
   3  -3  -8    0.01    0.03
   3  -3  -8    0.06    0.06
   3  -3  -8    0.16    0.05
  -3   3   8    0.01    0.04
  -3   3   8   -0.04    0.06
  -3   3   8    0.04    0.03
  -3   3   8    0.07    0.06
   2  -3  -8   -0.10    0.05
   2  -3  -8   -0.01    0.04
   2  -3  -8   -0.05    0.02
  -2   3   8   -0.04    0.03
  -2   3   8   -0.05    0.02
  -2   3   8   -0.12    0.05
  -2   3   8   -0.11    0.06
   1  -3  -8    1.05    0.10
   1  -3  -8    1.63    0.07
   1  -3  -8    1.29    0.14
   1  -3  -8    1.51    0.10
  -1   3   8    1.40    0.09
  -1   3   8    1.47    0.13
  -1   3   8    1.67    0.13
  -1   3   8    1.56    0.07
   0  -3  -8   12.59    0.40
   0  -3  -8   12.38    0.36
   0  -3  -8   11.83    0.54
   0  -3  -8   12.09    0.40
   0   3   8   12.48    0.35
   0   3   8   12.77    0.38
   0   3   8   11.29    0.54
   0   3   8   11.96    0.38
   0   3   8   11.50    0.53
   0   3   8   12.39    0.36
  -1  -3  -8    9.06    0.28
  -1  -3  -8    8.91    0.31
  -1  -3  -8    8.92    0.30
  -1  -3  -8    8.54    0.42
   1   3   8    9.06    0.30
   1   3   8    9.46    0.42
   1   3   8    8.91    0.28
   1   3   8    9.83    0.44
  -2  -3  -8   17.08    0.53
  -2  -3  -8   16.95    0.50
  -2  -3  -8   17.16    0.54
  -2  -3  -8   17.29    0.74
   2   3   8   17.29    0.50
   2   3   8   17.44    0.52
   2   3   8   16.74    0.55
   2   3   8   17.53    0.74
  -3  -3  -8   11.53    0.36
  -3  -3  -8   11.13    0.38
  -3  -3  -8   11.90    0.52
   3   3   8   11.19    0.52
   3   3   8   11.86    0.37
   3   3   8   11.28    0.35
   3   3   8   11.57    0.39
  -4  -3  -8    4.00    0.24
  -4  -3  -8    4.06    0.17
   4   3   8    4.24    0.17
   4   3   8    4.46    0.24
   4   3   8    4.22    0.18
   4   3   8    4.05    0.16
  -5  -3  -8    0.62    0.06
  -5  -3  -8    0.58    0.10
   5   3   8    0.73    0.07
   5   3   8    0.62    0.06
   5   3   8    0.56    0.06
   5   3   8    0.65    0.10
  -6  -3  -8    2.59    0.19
  -6  -3  -8    2.61    0.10
  -6  -3  -8    2.42    0.10
   6   3   8    2.44    0.13
   6   3   8    2.71    0.13
   6   3   8    2.48    0.20
   6   3   8    2.59    0.14
  -7  -3  -8    0.91    0.11
  -7  -3  -8    1.04    0.07
   7   3   8    0.83    0.08
   7   3   8    1.02    0.09
   7   3   8    0.94    0.08
   7   3   8    1.18    0.14
  -8  -3  -8   -0.06    0.07
  -8  -3  -8   -0.04    0.05
   8   3   8    0.04    0.08
   8   3   8    0.09    0.05
   8   3   8    0.05    0.06
   8   3   8   -0.02    0.05
  -9  -3  -8    0.02    0.05
  -9  -3  -8    0.02    0.07
   9   3   8   -0.13    0.06
   9   3   8    0.01    0.06
   9   3   8   -0.05    0.05
 -10  -3  -8   -0.12    0.05
 -10  -3  -8    0.09    0.08
  10   3   8   -0.06    0.07
  10   3   8   -0.03    0.06
   7  -4  -8    0.12    0.06
   7  -4  -8    0.15    0.06
  -7   4   8    0.26    0.07
   6  -4  -8    0.34    0.07
   6  -4  -8    0.26    0.06
  -6   4   8    0.33    0.05
  -6   4   8    0.29    0.06
  -6   4   8    0.35    0.07
   5  -4  -8    0.06    0.05
   5  -4  -8    0.01    0.05
  -5   4   8   -0.05    0.03
  -5   4   8   -0.08    0.06
  -5   4   8   -0.09    0.04
   4  -4  -8    1.83    0.13
  -4   4   8    1.96    0.15
  -4   4   8    1.85    0.11
  -4   4   8    1.90    0.09
   3  -4  -8   10.72    0.37
   3  -4  -8   11.07    0.48
  -3   4   8   10.56    0.48
  -3   4   8   10.63    0.32
  -3   4   8   10.61    0.36
   2  -4  -8    0.25    0.05
   2  -4  -8    0.28    0.07
  -2   4   8    0.25    0.04
  -2   4   8    0.19    0.07
  -2   4   8    0.16    0.06
  -2   4   8    0.27    0.03
  -2   4   8    0.23    0.03
   1  -4  -8    1.96    0.15
   1  -4  -8    2.09    0.09
   1  -4  -8    1.81    0.11
  -1   4   8    1.71    0.15
  -1   4   8    1.82    0.14
  -1   4   8    2.00    0.08
  -1   4   8    1.90    0.08
  -1   4   8    1.93    0.09
   0  -4  -8    0.65    0.06
   0  -4  -8    0.53    0.09
   0  -4  -8    0.64    0.05
   0   4   8    0.51    0.09
   0   4   8    0.53    0.05
   0   4   8    0.49    0.04
   0   4   8    0.48    0.08
   0   4   8    0.69    0.05
   0   4   8    0.60    0.03
  -1  -4  -8    0.17    0.07
  -1  -4  -8    0.09    0.04
  -1  -4  -8    0.25    0.04
  -1  -4  -8    0.31    0.05
   1   4   8    0.11    0.06
   1   4   8    0.23    0.03
   1   4   8    0.15    0.05
   1   4   8    0.22    0.03
  -2  -4  -8   63.59    1.81
  -2  -4  -8   60.72    2.46
  -2  -4  -8   64.47    1.84
   2   4   8   52.65    2.45
   2   4   8   63.10    1.86
   2   4   8   62.92    1.71
  -3  -4  -8   13.77    0.59
  -3  -4  -8   12.40    0.42
  -3  -4  -8   12.72    0.40
   3   4   8   13.54    0.41
   3   4   8   12.46    0.43
   3   4   8   12.61    0.39
   3   4   8   13.96    0.59
  -4  -4  -8    2.08    0.12
  -4  -4  -8    2.24    0.17
   4   4   8    2.45    0.12
   4   4   8    2.27    0.09
   4   4   8    2.16    0.11
   4   4   8    2.42    0.13
   4   4   8    2.40    0.17
  -5  -4  -8    0.02    0.04
  -5  -4  -8    0.09    0.07
   5   4   8    0.10    0.03
   5   4   8    0.08    0.07
   5   4   8    0.08    0.05
   5   4   8    0.14    0.05
   5   4   8    0.06    0.04
  -6  -4  -8    0.01    0.07
  -6  -4  -8    0.15    0.05
  -6  -4  -8    0.04    0.04
   6   4   8    0.05    0.03
   6   4   8    0.11    0.05
   6   4   8    0.04    0.05
   6   4   8    0.04    0.05
   6   4   8    0.01    0.07
  -7  -4  -8    8.07    0.40
  -7  -4  -8    7.81    0.26
   7   4   8    8.02    0.28
   7   4   8    8.06    0.28
   7   4   8    7.70    0.40
   7   4   8    8.16    0.30
  -8  -4  -8   -0.01    0.04
  -8  -4  -8   -0.02    0.07
   8   4   8    0.02    0.06
   8   4   8    0.02    0.05
   8   4   8   -0.05    0.06
   8   4   8    0.03    0.08
  -9  -4  -8   -0.02    0.05
  -9  -4  -8    0.08    0.08
   9   4   8   -0.09    0.06
   9   4   8   -0.08    0.06
 -10  -4  -8    0.18    0.06
 -10  -4  -8    0.19    0.08
  10   4   8    0.13    0.07
  10   4   8    0.24    0.08
   6  -5  -8    1.77    0.13
   6  -5  -8    1.87    0.14
  -6   5   8    1.69    0.14
  -6   5   8    1.66    0.11
  -6   5   8    1.87    0.15
   5  -5  -8    0.53    0.08
  -5   5   8    0.67    0.06
  -5   5   8    0.63    0.09
  -5   5   8    0.67    0.07
   4  -5  -8    0.09    0.06
  -4   5   8    0.05    0.07
  -4   5   8    0.11    0.04
  -4   5   8    0.13    0.05
   3  -5  -8    4.46    0.20
   3  -5  -8    4.54    0.25
  -3   5   8    4.64    0.18
  -3   5   8    4.28    0.25
  -3   5   8    4.34    0.16
   2  -5  -8    0.09    0.05
   2  -5  -8    0.24    0.08
  -2   5   8    0.26    0.08
  -2   5   8    0.18    0.04
  -2   5   8    0.23    0.07
  -2   5   8    0.23    0.04
   1  -5  -8    3.93    0.24
   1  -5  -8    4.05    0.18
  -1   5   8    4.27    0.24
  -1   5   8    4.18    0.15
  -1   5   8    4.16    0.15
  -1   5   8    4.08    0.23
   0  -5  -8    0.00    0.04
   0  -5  -8   -0.13    0.06
   0   5   8   -0.04    0.06
   0   5   8   -0.03    0.04
   0   5   8   -0.04    0.03
   0   5   8   -0.01    0.02
   0   5   8   -0.03    0.03
   0   5   8    0.04    0.03
  -1  -5  -8   -0.01    0.07
  -1  -5  -8    0.02    0.04
   1   5   8   -0.05    0.03
   1   5   8   -0.04    0.06
   1   5   8    0.00    0.03
   1   5   8    0.02    0.02
   1   5   8    0.00    0.04
  -2  -5  -8   47.38    1.91
  -2  -5  -8   47.08    1.40
   2   5   8   43.20    1.90
   2   5   8   49.42    1.33
   2   5   8   47.84    1.44
  -3  -5  -8    7.02    0.23
  -3  -5  -8    7.45    0.36
  -3  -5  -8    7.07    0.26
   3   5   8    6.76    0.23
   3   5   8    6.80    0.26
   3   5   8    6.78    0.23
   3   5   8    7.55    0.36
  -4  -5  -8    1.82    0.16
  -4  -5  -8    1.45    0.11
   4   5   8    1.92    0.16
   4   5   8    1.74    0.08
   4   5   8    1.50    0.12
   4   5   8    1.67    0.10
  -5  -5  -8    6.08    0.32
  -5  -5  -8    5.99    0.22
  -5  -5  -8    5.80    0.18
   5   5   8    5.93    0.31
   5   5   8    5.83    0.21
   5   5   8    5.98    0.23
   5   5   8    5.94    0.21
  -6  -5  -8    0.44    0.06
  -6  -5  -8    0.45    0.09
   6   5   8    0.43    0.05
   6   5   8    0.49    0.09
   6   5   8    0.54    0.06
   6   5   8    0.81    0.08
  -7  -5  -8    0.57    0.06
  -7  -5  -8    0.52    0.10
   7   5   8    0.40    0.07
   7   5   8    0.54    0.10
   7   5   8    0.52    0.07
  -8  -5  -8    0.15    0.05
  -8  -5  -8    0.18    0.08
   8   5   8    0.15    0.09
   8   5   8    0.06    0.06
   8   5   8    0.12    0.06
  -9  -5  -8    0.01    0.04
  -9  -5  -8    0.02    0.08
   9   5   8   -0.06    0.06
   9   5   8   -0.06    0.06
 -10  -5  -8    0.09    0.08
  10   5   8    0.04    0.07
  10   5   8    0.07    0.07
   6  -6  -8    0.71    0.09
  -6   6   8    0.89    0.11
  -6   6   8    0.92    0.09
  -6   6   8    0.82    0.08
   5  -6  -8    0.88    0.10
  -5   6   8    0.76    0.08
  -5   6   8    0.85    0.08
  -5   6   8    0.91    0.11
   4  -6  -8    0.88    0.09
  -4   6   8    0.83    0.07
  -4   6   8    0.83    0.11
  -4   6   8    0.90    0.08
   3  -6  -8    0.18    0.08
   3  -6  -8    0.16    0.06
  -3   6   8    0.23    0.04
  -3   6   8    0.26    0.08
  -3   6   8    0.19    0.05
   2  -6  -8    3.65    0.18
   2  -6  -8    3.73    0.23
  -2   6   8    3.75    0.16
  -2   6   8    3.64    0.24
  -2   6   8    3.48    0.14
   1  -6  -8   34.49    1.04
   1  -6  -8   35.56    1.41
  -1   6   8   31.11    1.40
  -1   6   8   34.51    1.06
  -1   6   8   34.56    0.94
   0  -6  -8    0.14    0.05
   0  -6  -8    0.10    0.07
   0   6   8    0.12    0.04
   0   6   8    0.08    0.03
   0   6   8    0.09    0.04
   0   6   8    0.06    0.07
   0   6   8    0.07    0.04
  -1  -6  -8    0.18    0.05
  -1  -6  -8    0.15    0.07
   1   6   8    0.08    0.04
   1   6   8    0.15    0.04
   1   6   8    0.07    0.07
   1   6   8    0.17    0.04
  -2  -6  -8   -0.20    0.07
  -2  -6  -8   -0.06    0.04
   2   6   8   -0.02    0.02
   2   6   8   -0.10    0.07
   2   6   8    0.05    0.04
   2   6   8    0.00    0.03
   2   6   8   -0.06    0.04
  -3  -6  -8   10.50    0.35
  -3  -6  -8   10.74    0.49
   3   6   8   10.50    0.36
   3   6   8   10.98    0.33
   3   6   8    9.68    0.49
  -4  -6  -8   21.76    0.64
  -4  -6  -8   21.50    0.66
  -4  -6  -8   21.15    0.90
   4   6   8   19.33    0.90
   4   6   8   21.19    0.68
   4   6   8   21.44    0.66
   4   6   8   21.40    0.63
  -5  -6  -8    0.42    0.10
  -5  -6  -8    0.34    0.06
   5   6   8    0.36    0.09
   5   6   8    0.41    0.06
   5   6   8    0.42    0.04
   5   6   8    0.28    0.07
  -6  -6  -8    0.15    0.05
  -6  -6  -8    0.16    0.08
   6   6   8    0.14    0.06
   6   6   8    0.22    0.09
   6   6   8    0.11    0.05
  -7  -6  -8    1.26    0.10
  -7  -6  -8    1.30    0.15
  -7  -6  -8    1.13    0.09
   7   6   8    1.01    0.13
   7   6   8    0.99    0.09
   7   6   8    1.02    0.10
  -8  -6  -8    0.09    0.05
  -8  -6  -8    0.08    0.07
   8   6   8    0.02    0.05
   8   6   8    0.00    0.06
   8   6   8    0.09    0.08
  -9  -6  -8    0.41    0.10
  -9  -6  -8    0.35    0.06
   9   6   8    0.48    0.08
   9   6   8    0.33    0.08
 -10  -6  -8   -0.03    0.07
 -10  -6  -8    0.01    0.05
  10   6   8    0.00    0.07
  10   6   8   -0.06    0.07
   5  -7  -8    0.16    0.08
   5  -7  -8    0.11    0.07
  -5   7   8    0.16    0.09
  -5   7   8    0.20    0.06
  -5   7   8    0.23    0.07
   4  -7  -8    1.64    0.14
   4  -7  -8    1.69    0.14
  -4   7   8    1.67    0.16
  -4   7   8    1.49    0.10
  -4   7   8    1.53    0.12
   3  -7  -8    0.44    0.08
  -3   7   8    0.55    0.06
  -3   7   8    0.58    0.10
  -3   7   8    0.53    0.06
   2  -7  -8    2.41    0.20
   2  -7  -8    2.40    0.15
  -2   7   8    2.35    0.20
  -2   7   8    2.17    0.11
  -2   7   8    2.33    0.13
   1  -7  -8    7.91    0.29
   1  -7  -8    7.71    0.39
  -1   7   8    7.35    0.39
  -1   7   8    7.57    0.27
  -1   7   8    7.66    0.25
   0  -7  -8    0.64    0.07
   0  -7  -8    0.69    0.11
   0   7   8    0.56    0.06
   0   7   8    0.52    0.10
   0   7   8    0.47    0.05
  -1  -7  -8    0.48    0.09
  -1  -7  -8    0.44    0.07
   1   7   8    0.42    0.05
   1   7   8    0.38    0.09
   1   7   8    0.42    0.05
   1   7   8    0.37    0.06
  -2  -7  -8    0.62    0.10
  -2  -7  -8    0.44    0.07
   2   7   8    0.48    0.10
   2   7   8    0.65    0.06
   2   7   8    0.54    0.07
   2   7   8    0.60    0.06
  -3  -7  -8    4.29    0.19
  -3  -7  -8    4.94    0.28
   3   7   8    4.58    0.19
   3   7   8    4.75    0.18
   3   7   8    4.08    0.26
   3   7   8    4.57    0.17
  -4  -7  -8    4.66    0.20
  -4  -7  -8    4.87    0.28
   4   7   8    5.31    0.29
   4   7   8    4.52    0.19
   4   7   8    4.77    0.21
  -5  -7  -8    0.91    0.12
  -5  -7  -8    0.75    0.07
   5   7   8    0.69    0.07
   5   7   8    0.58    0.08
   5   7   8    0.81    0.12
  -6  -7  -8    2.99    0.21
  -6  -7  -8    2.76    0.14
   6   7   8    2.88    0.15
   6   7   8    2.79    0.16
   6   7   8    2.87    0.21
  -7  -7  -8    0.22    0.08
  -7  -7  -8    0.19    0.05
   7   7   8    0.24    0.06
   7   7   8    0.22    0.09
   7   7   8    0.14    0.06
  -8  -7  -8    0.18    0.09
  -8  -7  -8    0.16    0.06
   8   7   8    0.12    0.06
   8   7   8    0.05    0.09
   8   7   8    0.08    0.07
  -9  -7  -8    0.11    0.09
  -9  -7  -8   -0.08    0.05
   9   7   8    0.00    0.06
   9   7   8    0.02    0.07
 -10  -7  -8    0.91    0.09
 -10  -7  -8    0.88    0.12
  10   7   8    0.81    0.11
  10   7   8    1.10    0.10
   4  -8  -8    0.41    0.09
   4  -8  -8    0.35    0.09
  -4   8   8    0.47    0.08
  -4   8   8    0.46    0.11
   3  -8  -8    0.26    0.07
   3  -8  -8    0.29    0.07
  -3   8   8    0.25    0.05
  -3   8   8    0.14    0.06
  -3   8   8    0.37    0.10
   2  -8  -8   -0.04    0.06
   2  -8  -8    0.01    0.06
   2  -8  -8   -0.10    0.08
  -2   8   8   -0.05    0.04
  -2   8   8    0.08    0.08
  -2   8   8   -0.01    0.04
   1  -8  -8    0.19    0.06
   1  -8  -8    0.08    0.06
   1  -8  -8    0.14    0.08
  -1   8   8    0.16    0.04
  -1   8   8    0.12    0.08
  -1   8   8    0.11    0.04
   0  -8  -8    2.74    0.13
   0  -8  -8    2.82    0.15
   0  -8  -8    2.77    0.21
   0   8   8    2.44    0.13
   0   8   8    2.63    0.21
   0   8   8    2.51    0.12
  -1  -8  -8    3.69    0.18
  -1  -8  -8    3.75    0.25
   1   8   8    3.48    0.16
   1   8   8    3.61    0.16
   1   8   8    3.93    0.25
   1   8   8    3.68    0.15
  -2  -8  -8    3.35    0.23
  -2  -8  -8    2.90    0.16
   2   8   8    3.39    0.23
   2   8   8    3.14    0.15
   2   8   8    2.99    0.14
   2   8   8    2.86    0.14
  -3  -8  -8    0.36    0.10
  -3  -8  -8    0.36    0.07
   3   8   8    0.37    0.10
   3   8   8    0.30    0.06
   3   8   8    0.33    0.06
   3   8   8    0.36    0.06
  -4  -8  -8   10.53    0.35
  -4  -8  -8    9.92    0.49
   4   8   8   10.23    0.37
   4   8   8    9.96    0.34
   4   8   8   10.40    0.32
   4   8   8    9.97    0.49
  -5  -8  -8    1.08    0.13
  -5  -8  -8    1.21    0.11
   5   8   8    0.94    0.13
   5   8   8    1.03    0.09
   5   8   8    1.05    0.09
  -6  -8  -8    0.10    0.09
  -6  -8  -8    0.31    0.06
   6   8   8    0.10    0.07
   6   8   8    0.16    0.06
   6   8   8    0.22    0.09
  -7  -8  -8    0.02    0.08
  -7  -8  -8    0.00    0.04
   7   8   8   -0.05    0.08
   7   8   8   -0.15    0.06
   7   8   8   -0.04    0.05
  -8  -8  -8    0.04    0.09
  -8  -8  -8   -0.10    0.05
  -8  -8  -8   -0.05    0.04
   8   8   8    0.10    0.09
   8   8   8   -0.11    0.06
   8   8   8   -0.05    0.06
  -9  -8  -8    0.03    0.09
  -9  -8  -8    0.10    0.06
   9   8   8    0.10    0.07
   9   8   8    0.05    0.07
 -10  -8  -8    0.02    0.06
 -10  -8  -8   -0.02    0.08
  10   8   8    0.05    0.08
  10   8   8    0.00    0.07
   3  -9  -8    0.47    0.09
  -3   9   8    0.30    0.07
  -3   9   8    0.45    0.12
   2  -9  -8    0.39    0.08
  -2   9   8    0.36    0.11
  -2   9   8    0.23    0.06
  -2   9   8    0.36    0.06
   1  -9  -8    0.01    0.06
   1  -9  -8   -0.02    0.08
  -1   9   8   -0.05    0.04
  -1   9   8   -0.05    0.04
  -1   9   8    0.03    0.08
   0  -9  -8    2.23    0.20
   0  -9  -8    2.40    0.16
   0   9   8    2.39    0.12
   0   9   8    2.45    0.12
   0   9   8    2.20    0.20
  -1  -9  -8    0.56    0.08
  -1  -9  -8    0.47    0.11
   1   9   8    0.66    0.12
   1   9   8    0.61    0.07
   1   9   8    0.60    0.06
  -2  -9  -8    0.10    0.05
  -2  -9  -8   -0.03    0.08
   2   9   8    0.07    0.04
   2   9   8   -0.08    0.08
   2   9   8   -0.05    0.04
   2   9   8    0.03    0.05
  -3  -9  -8    0.10    0.09
  -3  -9  -8    0.10    0.05
   3   9   8    0.09    0.05
   3   9   8    0.07    0.04
   3   9   8    0.03    0.08
   3   9   8    0.09    0.05
  -4  -9  -8    0.69    0.12
  -4  -9  -8    0.71    0.08
   4   9   8    0.67    0.07
   4   9   8    0.75    0.13
   4   9   8    0.74    0.08
   4   9   8    0.69    0.07
  -5  -9  -8    0.50    0.07
  -5  -9  -8    0.48    0.11
   5   9   8    0.53    0.12
   5   9   8    0.45    0.06
   5   9   8    0.39    0.07
   5   9   8    0.46    0.07
  -6  -9  -8    1.00    0.13
  -6  -9  -8    0.76    0.08
   6   9   8    0.74    0.13
   6   9   8    0.57    0.08
   6   9   8    0.77    0.08
  -7  -9  -8    0.12    0.10
  -7  -9  -8    0.15    0.05
   7   9   8    0.07    0.10
   7   9   8    0.13    0.06
   7   9   8    0.18    0.07
  -8  -9  -8    0.22    0.10
   8   9   8    0.19    0.07
   8   9   8    0.01    0.07
  -9  -9  -8    0.11    0.09
  -9  -9  -8    0.12    0.06
   9   9   8    0.11    0.07
   9   9   8    0.07    0.07
   1 -10  -8    0.83    0.10
  -1  10   8    0.68    0.13
  -1  10   8    0.71    0.08
   0 -10  -8    0.05    0.10
   0 -10  -8    0.06    0.07
   0  10   8    0.05    0.09
  -1 -10  -8    0.86    0.10
  -1 -10  -8    0.95    0.14
   1  10   8    0.90    0.08
   1  10   8    0.91    0.14
   1  10   8    0.81    0.08
  -2 -10  -8    0.21    0.07
  -2 -10  -8    0.35    0.11
   2  10   8    0.31    0.07
   2  10   8    0.22    0.06
   2  10   8    0.29    0.10
   2  10   8    0.26    0.06
  -3 -10  -8    0.91    0.09
  -3 -10  -8    1.01    0.14
   3  10   8    0.90    0.09
   3  10   8    0.88    0.08
   3  10   8    0.86    0.09
   3  10   8    0.95    0.14
  -4 -10  -8    0.04    0.05
  -4 -10  -8    0.12    0.10
   4  10   8   -0.03    0.09
   4  10   8    0.08    0.05
   4  10   8    0.04    0.05
   4  10   8   -0.03    0.05
  -5 -10  -8    0.67    0.13
  -5 -10  -8    0.66    0.08
   5  10   8    0.47    0.08
   5  10   8    0.48    0.13
   5  10   8    0.56    0.07
   5  10   8    0.61    0.07
  -6 -10  -8    0.92    0.14
  -6 -10  -8    0.98    0.09
   6  10   8    0.89    0.09
   6  10   8    0.81    0.09
   6  10   8    0.90    0.09
   6  10   8    1.03    0.15
  -7 -10  -8    1.51    0.11
  -7 -10  -8    1.66    0.20
   7  10   8    1.26    0.12
   7  10   8    1.52    0.13
   7  10   8    1.16    0.16
  -8 -10  -8    0.59    0.13
   8  10   8    0.48    0.08
   8  10   8    0.57    0.09
   9  10   8    0.50    0.10
  -1 -11  -8    0.21    0.07
  -1 -11  -8    0.21    0.12
   1  11   8    0.25    0.12
  -2 -11  -8    1.06    0.10
  -2 -11  -8    0.78    0.14
   2  11   8    0.83    0.09
   2  11   8    0.80    0.14
  -3 -11  -8    0.78    0.09
  -3 -11  -8    0.78    0.14
   3  11   8    0.87    0.14
   3  11   8    0.61    0.08
   3  11   8    0.64    0.08
  -4 -11  -8   -0.02    0.10
  -4 -11  -8   -0.02    0.05
   4  11   8    0.01    0.06
   4  11   8   -0.02    0.06
   4  11   8    0.04    0.10
  -5 -11  -8    0.35    0.07
  -5 -11  -8    0.26    0.11
   5  11   8    0.34    0.07
   5  11   8    0.26    0.07
   5  11   8    0.42    0.12
  -6 -11  -8   -0.12    0.09
  -6 -11  -8   -0.05    0.05
   6  11   8    0.06    0.06
   6  11   8   -0.02    0.06
   6  11   8   -0.08    0.10
  -7 -11  -8    2.59    0.24
   7  11   8    2.21    0.17
   7  11   8    2.48    0.23
   7  11   8    2.77    0.16
   3   7  -9    0.45    0.08
  -3  -7   9    0.32    0.08
   2   7  -9    3.02    0.17
   2   7  -9    3.13    0.24
  -2  -7   9    2.91    0.18
   1   7  -9    0.03    0.06
   1   7  -9    0.05    0.08
   5   6  -9    1.52    0.12
  -5  -6   9    1.32    0.16
  -5  -6   9    1.24    0.11
  -5  -6   9    1.59    0.13
   4   6  -9    0.33    0.06
  -4  -6   9    0.25    0.07
  -4  -6   9    0.24    0.06
  -4  -6   9    0.23    0.09
   3   6  -9   -0.05    0.05
  -3  -6   9    0.16    0.09
  -3  -6   9    0.06    0.06
  -3  -6   9    0.03    0.06
   2   6  -9    3.24    0.23
   2   6  -9    2.87    0.16
  -2  -6   9    3.04    0.18
  -2  -6   9    3.10    0.23
   1   6  -9    2.78    0.16
   1   6  -9    2.63    0.22
  -1  -6   9    2.90    0.23
  -1  -6   9    2.69    0.17
   0   6  -9    5.61    0.34
   0   6  -9    6.00    0.25
   0  -6   9    6.24    0.26
   0  -6   9    5.78    0.35
  -1   6  -9    0.51    0.11
  -1   6  -9    0.45    0.08
   1  -6   9    0.36    0.08
   1  -6   9    0.45    0.12
  -2   6  -9    0.93    0.10
  -2   6  -9    0.84    0.14
   2  -6   9    0.74    0.10
   2  -6   9    0.72    0.14
   6   5  -9    0.47    0.09
  -6  -5   9    0.24    0.08
  -6  -5   9    0.43    0.08
   5   5  -9   -0.15    0.06
   5   5  -9    0.05    0.05
  -5  -5   9    0.10    0.06
  -5  -5   9   -0.05    0.05
  -5  -5   9   -0.04    0.06
   4   5  -9   -0.04    0.04
   4   5  -9   -0.09    0.06
  -4  -5   9   -0.07    0.05
  -4  -5   9   -0.02    0.05
  -4  -5   9    0.06    0.07
   3   5  -9    0.25    0.06
   3   5  -9    0.30    0.08
  -3  -5   9    0.25    0.06
  -3  -5   9    0.12    0.06
  -3  -5   9    0.17    0.08
   2   5  -9    0.94    0.09
   2   5  -9    1.07    0.13
  -2  -5   9    0.88    0.13
  -2  -5   9    1.02    0.09
   1   5  -9    4.06    0.26
   1   5  -9    4.09    0.19
  -1  -5   9    3.98    0.27
  -1  -5   9    4.29    0.20
   0   5  -9    3.17    0.23
   0   5  -9    3.28    0.17
   0  -5   9    3.21    0.17
   0  -5   9    3.21    0.24
  -1   5  -9    3.34    0.17
  -1   5  -9    2.85    0.23
   1  -5   9    3.11    0.17
   1  -5   9    2.78    0.23
  -2   5  -9    1.94    0.19
  -2   5  -9    2.11    0.15
   2  -5   9    2.13    0.21
   2  -5   9    2.09    0.15
  -3   5  -9    0.02    0.06
  -3   5  -9   -0.01    0.05
  -3   5  -9    0.03    0.08
   3  -5   9    0.02    0.06
   3  -5   9   -0.02    0.09
  -4   5  -9   -0.03    0.06
  -4   5  -9    0.02    0.09
   4  -5   9    0.01    0.07
   4  -5   9   -0.11    0.09
   7   4  -9    0.62    0.10
  -7  -4   9    0.49    0.09
  -7  -4   9    0.48    0.08
   6   4  -9    0.50    0.09
  -6  -4   9    0.55    0.09
  -6  -4   9    0.59    0.09
   5   4  -9    0.00    0.04
   5   4  -9   -0.09    0.06
  -5  -4   9    0.04    0.06
  -5  -4   9   -0.04    0.05
  -5  -4   9    0.07    0.06
   4   4  -9    2.53    0.13
   4   4  -9    2.70    0.17
  -4  -4   9    2.65    0.16
  -4  -4   9    2.97    0.20
  -4  -4   9    2.81    0.15
   3   4  -9    0.81    0.11
   3   4  -9    0.89    0.08
   3   4  -9    0.60    0.08
  -3  -4   9    0.69    0.07
  -3  -4   9    0.82    0.08
  -3  -4   9    0.69    0.10
   2   4  -9    0.06    0.05
   2   4  -9   -0.03    0.06
  -2  -4   9    0.05    0.07
  -2  -4   9    0.01    0.05
   1   4  -9    0.89    0.08
   1   4  -9    0.85    0.12
  -1  -4   9    0.89    0.09
  -1  -4   9    0.83    0.12
   0   4  -9    0.82    0.12
   0   4  -9    0.72    0.08
   0  -4   9    0.67    0.08
   0  -4   9    0.66    0.12
  -1   4  -9   -0.02    0.08
  -1   4  -9    0.14    0.06
   1  -4   9    0.17    0.09
   1  -4   9    0.17    0.06
  -2   4  -9    0.01    0.08
  -2   4  -9    0.06    0.05
   2  -4   9    0.07    0.04
   2  -4   9    0.04    0.06
   2  -4   9    0.06    0.09
  -3   4  -9    0.06    0.06
  -3   4  -9    0.09    0.05
  -3   4  -9    0.05    0.08
   3  -4   9    0.16    0.05
   3  -4   9    0.26    0.10
   3  -4   9    0.11    0.06
  -4   4  -9    0.49    0.11
  -4   4  -9    0.40    0.08
  -4   4  -9    0.47    0.07
   4  -4   9    0.59    0.12
   4  -4   9    0.43    0.08
   4  -4   9    0.50    0.07
  -5   4  -9    0.39    0.11
  -5   4  -9    0.38    0.08
  -5   4  -9    0.30    0.07
   5  -4   9    0.34    0.07
   5  -4   9    0.39    0.08
   5  -4   9    0.32    0.11
   7   3  -9    0.43    0.09
  -7  -3   9    0.34    0.06
  -7  -3   9    0.42    0.08
   6   3  -9    3.50    0.20
  -6  -3   9    3.37    0.20
  -6  -3   9    3.29    0.19
   5   3  -9    1.86    0.15
   5   3  -9    1.42    0.10
  -5  -3   9    1.48    0.14
  -5  -3   9    1.53    0.11
  -5  -3   9    1.82    0.14
   4   3  -9   -0.01    0.05
   4   3  -9   -0.03    0.04
  -4  -3   9    0.00    0.06
  -4  -3   9   -0.02    0.05
  -4  -3   9   -0.16    0.04
   3   3  -9    0.10    0.06
   3   3  -9    0.36    0.06
   3   3  -9    0.38    0.08
  -3  -3   9    0.30    0.06
  -3  -3   9    0.24    0.06
  -3  -3   9    0.29    0.08
   2   3  -9    0.04    0.05
   2   3  -9   -0.01    0.04
   2   3  -9   -0.06    0.06
  -2  -3   9   -0.06    0.06
  -2  -3   9   -0.02    0.05
   1   3  -9   11.81    0.55
   1   3  -9   11.79    0.41
   1   3  -9   11.84    0.38
  -1  -3   9   12.42    0.39
  -1  -3   9   11.46    0.54
   0   3  -9    0.21    0.06
   0   3  -9   -0.03    0.08
   0  -3   9    0.01    0.08
   0  -3   9    0.11    0.06
  -1   3  -9   -0.11    0.07
  -1   3  -9    0.01    0.05
   1  -3   9    0.01    0.05
   1  -3   9   -0.12    0.08
   1  -3   9   -0.01    0.03
  -2   3  -9    0.06    0.06
  -2   3  -9    0.00    0.06
   2  -3   9   -0.06    0.05
   2  -3   9    0.00    0.07
   2  -3   9    0.00    0.03
  -3   3  -9    0.57    0.10
  -3   3  -9    0.53    0.06
  -3   3  -9    0.55    0.07
   3  -3   9    0.44    0.10
   3  -3   9    0.53    0.08
   3  -3   9    0.49    0.06
  -4   3  -9   -0.08    0.05
  -4   3  -9    0.01    0.04
  -4   3  -9    0.06    0.08
   4  -3   9    0.05    0.09
   4  -3   9   -0.09    0.05
   4  -3   9   -0.08    0.04
   4  -3   9    0.10    0.04
  -5   3  -9    0.23    0.10
  -5   3  -9    0.28    0.07
  -5   3  -9    0.28    0.06
   5  -3   9    0.36    0.06
   5  -3   9    0.28    0.11
   5  -3   9    0.23    0.07
   5  -3   9    0.24    0.06
  -6   3  -9    2.89    0.24
  -6   3  -9    2.92    0.17
  -6   3  -9    2.68    0.16
   6  -3   9    2.74    0.16
   6  -3   9    2.79    0.25
   6  -3   9    2.84    0.15
   6  -3   9    2.81    0.18
   7   2  -9   -0.14    0.07
  -7  -2   9   -0.05    0.06
  -7  -2   9   -0.04    0.04
   6   2  -9    2.77    0.18
   6   2  -9    2.54    0.14
  -6  -2   9    2.94    0.17
  -6  -2   9    2.78    0.17
   5   2  -9    0.24    0.06
   5   2  -9    0.10    0.04
   5   2  -9    0.09    0.06
  -5  -2   9    0.15    0.05
  -5  -2   9    0.19    0.06
  -5  -2   9    0.09    0.06
   4   2  -9    2.96    0.15
   4   2  -9    2.97    0.17
   4   2  -9    2.79    0.13
  -4  -2   9    2.97    0.14
  -4  -2   9    3.02    0.16
  -4  -2   9    2.96    0.19
   3   2  -9    4.62    0.21
   3   2  -9    4.63    0.19
   3   2  -9    4.57    0.18
   3   2  -9    4.74    0.25
  -3  -2   9    4.72    0.20
  -3  -2   9    4.41    0.25
  -3  -2   9    4.88    0.19
   2   2  -9    2.83    0.15
   2   2  -9    2.99    0.19
   2   2  -9    2.96    0.14
  -2  -2   9    2.83    0.14
  -2  -2   9    2.78    0.19
  -2  -2   9    2.67    0.15
   1   2  -9    0.29    0.06
   1   2  -9    0.27    0.08
   1   2  -9    0.25    0.05
  -1  -2   9    0.36    0.06
  -1  -2   9    0.24    0.08
   0   2  -9    1.53    0.11
   0   2  -9    1.68    0.12
   0   2  -9    1.35    0.15
   0  -2   9    1.45    0.05
   0  -2   9    1.42    0.06
   0  -2   9    1.27    0.15
   0  -2   9    1.44    0.12
  -1   2  -9    2.37    0.19
  -1   2  -9    2.45    0.14
   1  -2   9    2.40    0.14
   1  -2   9    2.58    0.09
   1  -2   9    2.19    0.19
   1  -2   9    2.40    0.09
  -2   2  -9   -0.08    0.07
  -2   2  -9    0.02    0.05
  -2   2  -9   -0.01    0.03
   2  -2   9   -0.07    0.05
   2  -2   9   -0.02    0.03
   2  -2   9   -0.09    0.08
   2  -2   9    0.03    0.03
  -3   2  -9    0.06    0.03
  -3   2  -9    0.09    0.05
  -3   2  -9    0.14    0.08
   3  -2   9    0.08    0.09
   3  -2   9    0.05    0.04
   3  -2   9    0.15    0.06
  -4   2  -9    0.99    0.09
  -4   2  -9    0.93    0.12
  -4   2  -9    0.96    0.09
   4  -2   9    1.00    0.08
   4  -2   9    1.07    0.13
   4  -2   9    1.03    0.09
  -5   2  -9    2.03    0.19
  -5   2  -9    1.84    0.14
  -5   2  -9    1.92    0.12
   5  -2   9    1.74    0.19
   5  -2   9    2.16    0.15
   5  -2   9    1.92    0.12
  -6   2  -9    1.69    0.18
  -6   2  -9    1.94    0.13
  -6   2  -9    1.71    0.13
   6  -2   9    1.60    0.14
   6  -2   9    1.47    0.13
   6  -2   9    1.85    0.19
  -7   2  -9    3.39    0.18
  -7   2  -9    3.01    0.24
   7  -2   9    3.20    0.19
   7  -2   9    3.43    0.18
   8   1  -9    0.00    0.08
   7   1  -9    0.62    0.10
  -7  -1   9    0.60    0.06
   6   1  -9    1.70    0.12
   6   1  -9    1.81    0.15
  -6  -1   9    1.64    0.14
  -6  -1   9    1.75    0.13
   5   1  -9    0.94    0.08
   5   1  -9    0.72    0.09
   5   1  -9    0.86    0.08
  -5  -1   9    0.78    0.08
  -5  -1   9    0.90    0.07
  -5  -1   9    0.72    0.09
   4   1  -9    9.71    0.32
   4   1  -9    9.11    0.34
   4   1  -9    8.82    0.30
  -4  -1   9    8.84    0.42
  -4  -1   9    9.60    0.31
  -4  -1   9    9.29    0.33
   3   1  -9    0.91    0.07
   3   1  -9    0.93    0.09
   3   1  -9    1.18    0.12
   3   1  -9    1.00    0.08
  -3  -1   9    1.06    0.13
  -3  -1   9    1.13    0.10
  -3  -1   9    1.05    0.09
   2   1  -9    0.92    0.08
   2   1  -9    0.94    0.07
   2   1  -9    1.06    0.13
   2   1  -9    0.84    0.08
  -2  -1   9    1.21    0.13
  -2  -1   9    0.86    0.11
  -2  -1   9    0.98    0.08
  -2  -1   9    0.98    0.08
   1   1  -9    1.30    0.10
   1   1  -9    1.37    0.13
   1   1  -9    1.38    0.07
   1   1  -9    1.12    0.09
   1   1  -9    1.04    0.08
  -1  -1   9    1.08    0.13
  -1  -1   9    1.22    0.05
  -1  -1   9    1.23    0.10
   0   1  -9    3.31    0.15
   0   1  -9    3.21    0.11
   0   1  -9    3.39    0.15
   0   1  -9    3.14    0.21
   0  -1   9    3.38    0.16
   0  -1   9    3.23    0.21
   0  -1   9    3.28    0.10
   0  -1   9    3.22    0.10
   0  -1   9    3.26    0.11
  -1   1  -9   27.57    0.83
  -1   1  -9   28.37    0.80
  -1   1  -9   25.07    1.13
   1  -1   9   27.47    0.76
   1  -1   9   25.79    1.13
   1  -1   9   27.11    0.74
   1  -1   9   27.55    0.80
  -2   1  -9    3.08    0.12
  -2   1  -9    3.21    0.15
  -2   1  -9    3.28    0.22
   2  -1   9    3.22    0.22
   2  -1   9    2.88    0.11
   2  -1   9    3.35    0.16
   2  -1   9    3.05    0.12
  -3   1  -9    1.55    0.16
  -3   1  -9    1.33    0.11
  -3   1  -9    1.51    0.08
   3  -1   9    1.58    0.16
   3  -1   9    1.47    0.09
   3  -1   9    1.41    0.12
   3  -1   9    1.50    0.09
  -4   1  -9    5.01    0.21
  -4   1  -9    5.15    0.29
  -4   1  -9    5.25    0.19
   4  -1   9    5.15    0.21
   4  -1   9    4.97    0.19
   4  -1   9    4.92    0.29
  -5   1  -9    0.01    0.08
  -5   1  -9   -0.06    0.04
  -5   1  -9   -0.02    0.05
   5  -1   9   -0.08    0.04
   5  -1   9    0.02    0.05
   5  -1   9   -0.12    0.08
  -6   1  -9    9.40    0.33
  -6   1  -9    8.74    0.33
  -6   1  -9    9.35    0.46
   6  -1   9    9.12    0.46
   6  -1   9    9.24    0.33
   6  -1   9    9.45    0.32
  -7   1  -9    1.52    0.13
  -7   1  -9    1.13    0.14
  -7   1  -9    1.26    0.12
   7  -1   9    1.18    0.15
   7  -1   9    1.11    0.10
   7  -1   9    1.30    0.11
  -8   1  -9    0.07    0.06
   8  -1   9   -0.02    0.06
   8  -1   9    0.01    0.07
   7   0  -9    2.33    0.18
   7   0  -9    2.07    0.14
   6   0  -9    0.36    0.07
   6   0  -9    0.41    0.08
  -6   0   9    0.33    0.06
  -6   0   9    0.22    0.07
   5   0  -9    0.26    0.04
   5   0  -9    0.20    0.06
   5   0  -9    0.28    0.07
  -5   0   9    0.11    0.06
  -5   0   9    0.16    0.06
   4   0  -9    5.89    0.24
   4   0  -9    5.72    0.20
   4   0  -9    5.99    0.23
  -4   0   9    5.72    0.29
  -4   0   9    5.67    0.23
  -4   0   9    5.77    0.21
   3   0  -9    0.63    0.06
   3   0  -9    0.68    0.07
   3   0  -9    0.66    0.08
   3   0  -9    0.72    0.09
  -3   0   9    0.65    0.07
  -3   0   9    0.54    0.06
  -3   0   9    0.68    0.09
   2   0  -9   16.19    0.50
   2   0  -9   16.48    0.52
   2   0  -9   16.53    0.54
   2   0  -9   15.85    0.70
  -2   0   9   16.83    0.71
  -2   0   9   15.53    0.70
  -2   0   9   16.11    0.46
  -2   0   9   16.53    0.50
  -2   0   9   16.46    0.52
   1   0  -9    0.90    0.07
   1   0  -9    1.00    0.12
   1   0  -9    0.68    0.07
   1   0  -9    0.60    0.08
   1   0  -9    0.82    0.07
  -1   0   9    0.71    0.05
  -1   0   9    0.82    0.10
  -1   0   9    0.71    0.07
  -1   0   9    0.85    0.10
   0   0  -9    1.01    0.09
   0   0  -9    1.45    0.14
   0   0  -9    1.20    0.07
   0   0  -9    1.09    0.09
   0   0  -9    1.05    0.09
   0   0   9    1.19    0.05
   0   0   9    1.32    0.14
   0   0   9    1.19    0.05
   0   0   9    0.89    0.08
   0   0   9    1.18    0.06
  -1   0  -9   12.25    0.41
  -1   0  -9   12.09    0.39
  -1   0  -9   12.38    0.41
  -1   0  -9   12.84    0.56
  -1   0  -9   12.40    0.36
   1   0   9   12.79    0.56
   1   0   9   12.21    0.36
   1   0   9   12.16    0.35
   1   0   9   12.31    0.40
  -2   0  -9    3.31    0.11
  -2   0  -9    3.48    0.16
  -2   0  -9    3.26    0.22
   2   0   9    3.22    0.22
   2   0   9    3.42    0.12
   2   0   9    3.30    0.12
   2   0   9    3.18    0.16
  -3   0  -9   15.65    0.48
  -3   0  -9   15.54    0.49
  -3   0  -9   15.00    0.68
   3   0   9   15.41    0.46
   3   0   9   15.55    0.44
   3   0   9   14.83    0.68
   3   0   9   15.65    0.49
   3   0   9   15.47    0.49
  -4   0  -9    0.02    0.03
  -4   0  -9    0.04    0.05
  -4   0  -9   -0.02    0.07
   4   0   9    0.09    0.08
   4   0   9    0.06    0.04
   4   0   9    0.07    0.05
  -5   0  -9    0.42    0.07
  -5   0  -9    0.45    0.05
  -5   0  -9    0.39    0.09
   5   0   9    0.32    0.07
   5   0   9    0.32    0.10
   5   0   9    0.41    0.06
  -6   0  -9    8.05    0.29
  -6   0  -9    7.57    0.29
  -6   0  -9    8.14    0.41
   6   0   9    7.92    0.41
   6   0   9    7.80    0.28
   6   0   9    8.04    0.29
  -7   0  -9    2.00    0.14
  -7   0  -9    2.06    0.15
  -7   0  -9    2.25    0.20
   7   0   9    2.03    0.15
   7   0   9    2.33    0.15
   7   0   9    2.45    0.21
  -8   0  -9    1.15    0.10
  -8   0  -9    0.91    0.09
  -8   0  -9    0.88    0.13
   8   0   9    0.97    0.10
   8   0   9    0.75    0.09
   7  -1  -9    2.19    0.15
   7  -1  -9    2.42    0.18
   6  -1  -9    0.04    0.07
   6  -1  -9    0.08    0.06
  -6   1   9   -0.08    0.05
   5  -1  -9   -0.01    0.05
   5  -1  -9   -0.06    0.05
   5  -1  -9   -0.02    0.03
  -5   1   9   -0.01    0.05
  -5   1   9    0.04    0.05
   4  -1  -9    0.03    0.06
   4  -1  -9    0.06    0.04
   4  -1  -9    0.17    0.06
  -4   1   9    0.01    0.06
  -4   1   9    0.08    0.05
   3  -1  -9   10.86    0.39
   3  -1  -9   11.31    0.37
   3  -1  -9   10.54    0.49
  -3   1   9   10.85    0.37
  -3   1   9   10.92    0.49
  -3   1   9   11.33    0.35
   2  -1  -9   24.47    0.76
   2  -1  -9   24.03    0.68
   2  -1  -9   24.12    0.78
   2  -1  -9   25.37    1.02
  -2   1   9   24.65    0.69
  -2   1   9   23.83    0.66
  -2   1   9   24.24    0.72
  -2   1   9   25.55    1.03
  -2   1   9   24.61    0.75
  -2   1   9   24.49    1.03
   1  -1  -9   11.22    0.53
   1  -1  -9   11.97    0.40
   1  -1  -9   12.34    0.40
  -1   1   9   11.73    0.39
  -1   1   9   11.81    0.35
  -1   1   9   12.34    0.54
  -1   1   9   12.13    0.38
  -1   1   9   11.50    0.33
  -1   1   9   12.09    0.54
   0  -1  -9    2.03    0.09
   0  -1  -9    1.47    0.12
   0  -1  -9    2.07    0.16
   0   1   9    1.79    0.08
   0   1   9    1.88    0.17
   0   1   9    1.84    0.07
   0   1   9    1.28    0.12
   0   1   9    2.01    0.08
  -1  -1  -9    9.95    0.30
  -1  -1  -9    9.75    0.35
  -1  -1  -9   10.28    0.47
  -1  -1  -9   10.14    0.34
   1   1   9   10.06    0.30
   1   1   9   10.89    0.48
   1   1   9   10.03    0.33
   1   1   9   10.22    0.29
  -2  -1  -9    0.19    0.08
  -2  -1  -9    0.27    0.04
  -2  -1  -9    0.25    0.03
  -2  -1  -9    0.22    0.06
   2   1   9    0.26    0.08
   2   1   9    0.31    0.04
   2   1   9    0.27    0.04
   2   1   9    0.24    0.05
  -3  -1  -9    0.25    0.06
  -3  -1  -9    0.29    0.09
  -3  -1  -9    0.34    0.06
  -3  -1  -9    0.40    0.03
   3   1   9    0.41    0.05
   3   1   9    0.37    0.06
   3   1   9    0.38    0.04
   3   1   9    0.29    0.09
  -4  -1  -9    0.05    0.05
  -4  -1  -9   -0.04    0.07
   4   1   9    0.08    0.04
   4   1   9    0.06    0.08
   4   1   9    0.03    0.05
  -5  -1  -9   15.72    0.50
  -5  -1  -9   15.51    0.49
  -5  -1  -9   14.66    0.69
   5   1   9   16.29    0.48
   5   1   9   16.09    0.49
   5   1   9   14.86    0.69
  -6  -1  -9    0.40    0.05
  -6  -1  -9    0.25    0.09
  -6  -1  -9    0.38    0.07
   6   1   9    0.37    0.07
   6   1   9    0.31    0.06
   6   1   9    0.48    0.11
  -7  -1  -9   18.96    0.64
  -7  -1  -9   19.40    0.60
  -7  -1  -9   19.53    0.86
   7   1   9   19.26    0.60
   7   1   9   19.95    0.86
   7   1   9   20.00    0.61
   7   1   9   20.06    0.64
  -8  -1  -9    0.96    0.13
  -8  -1  -9    1.03    0.09
  -8  -1  -9    1.20    0.12
   8   1   9    1.16    0.10
   8   1   9    0.90    0.09
   8   1   9    1.02    0.10
  -9  -1  -9    2.13    0.19
  -9  -1  -9    2.19    0.15
   9   1   9    2.43    0.17
   9   1   9    2.55    0.16
   7  -2  -9    0.64    0.10
   7  -2  -9    0.99    0.09
   6  -2  -9    0.08    0.06
   6  -2  -9    0.06    0.07
  -6   2   9    0.00    0.05
   5  -2  -9    1.11    0.10
   5  -2  -9    1.08    0.09
  -5   2   9    1.30    0.12
   4  -2  -9    0.73    0.08
   4  -2  -9    0.75    0.08
  -4   2   9    0.63    0.07
  -4   2   9    0.69    0.09
  -4   2   9    0.89    0.05
   3  -2  -9    1.66    0.14
   3  -2  -9    1.56    0.13
   3  -2  -9    1.56    0.12
  -3   2   9    1.47    0.14
  -3   2   9    1.64    0.07
  -3   2   9    1.34    0.11
   2  -2  -9   42.93    1.21
   2  -2  -9   43.51    1.34
   2  -2  -9   41.25    1.76
   2  -2  -9   43.37    1.30
  -2   2   9   43.94    1.77
  -2   2   9   46.30    1.77
  -2   2   9   43.82    1.30
  -2   2   9   42.45    1.17
  -2   2   9   44.19    1.25
   1  -2  -9   10.47    0.32
   1  -2  -9   11.17    0.37
   1  -2  -9   11.48    0.38
   1  -2  -9   11.33    0.50
  -1   2   9   10.41    0.36
  -1   2   9   10.53    0.35
  -1   2   9   10.43    0.31
  -1   2   9   11.17    0.50
  -1   2   9   11.53    0.50
   0  -2  -9   79.45    2.21
   0  -2  -9   73.51    3.18
   0  -2  -9   82.18    2.34
   0  -2  -9   80.80    2.40
   0   2   9   76.63    3.18
   0   2   9   81.49    2.25
   0   2   9   81.92    2.14
   0   2   9   80.83    2.20
  -1  -2  -9    0.52    0.05
  -1  -2  -9    0.34    0.06
  -1  -2  -9    0.54    0.09
  -1  -2  -9    0.46    0.04
   1   2   9    0.26    0.06
   1   2   9    0.47    0.09
   1   2   9    0.42    0.04
  -2  -2  -9    3.14    0.13
  -2  -2  -9    3.01    0.20
  -2  -2  -9    2.99    0.15
   2   2   9    3.20    0.12
   2   2   9    3.41    0.21
   2   2   9    3.33    0.15
  -3  -2  -9    5.61    0.30
  -3  -2  -9    5.20    0.21
   3   2   9    5.57    0.18
   3   2   9    5.69    0.30
   3   2   9    5.49    0.19
   3   2   9    5.43    0.21
  -4  -2  -9    0.00    0.07
  -4  -2  -9    0.04    0.05
   4   2   9    0.05    0.08
   4   2   9    0.07    0.05
   4   2   9    0.09    0.04
   4   2   9    0.18    0.05
  -5  -2  -9    6.64    0.34
  -5  -2  -9    6.53    0.19
   5   2   9    6.64    0.23
   5   2   9    6.01    0.34
   5   2   9    6.22    0.25
   5   2   9    6.78    0.25
  -6  -2  -9    0.70    0.11
  -6  -2  -9    0.56    0.07
   6   2   9    0.62    0.08
   6   2   9    0.65    0.11
   6   2   9    0.62    0.07
   6   2   9    0.72    0.07
  -7  -2  -9    1.58    0.17
  -7  -2  -9    1.49    0.12
   7   2   9    1.60    0.13
   7   2   9    1.66    0.13
   7   2   9    1.97    0.13
   7   2   9    1.52    0.17
  -8  -2  -9   -0.04    0.08
  -8  -2  -9    0.15    0.06
   8   2   9    0.06    0.06
   8   2   9    0.03    0.06
   8   2   9    0.02    0.05
  -9  -2  -9    6.70    0.26
  -9  -2  -9    6.92    0.37
   9   2   9    7.05    0.28
   9   2   9    7.10    0.27
   9   2   9    6.63    0.28
   7  -3  -9   -0.04    0.06
   7  -3  -9   -0.15    0.07
   6  -3  -9    0.52    0.09
   6  -3  -9    0.47    0.08
  -6   3   9    0.52    0.08
   5  -3  -9    3.93    0.20
   5  -3  -9    3.91    0.19
  -5   3   9    3.76    0.22
   4  -3  -9    1.33    0.11
   4  -3  -9    1.51    0.12
  -4   3   9    1.54    0.08
  -4   3   9    1.46    0.14
   3  -3  -9    0.21    0.06
   3  -3  -9   -0.02    0.05
   3  -3  -9    0.14    0.07
  -3   3   9    0.16    0.07
  -3   3   9    0.14    0.05
  -3   3   9    0.19    0.03
   2  -3  -9    0.12    0.08
   2  -3  -9    0.26    0.06
   2  -3  -9    0.09    0.06
  -2   3   9    0.35    0.05
  -2   3   9    0.01    0.08
  -2   3   9    0.11    0.07
   1  -3  -9    0.55    0.07
   1  -3  -9    0.67    0.05
   1  -3  -9    0.56    0.07
   1  -3  -9    0.52    0.09
  -1   3   9    0.57    0.10
  -1   3   9    0.51    0.06
  -1   3   9    0.68    0.05
  -1   3   9    0.51    0.10
   0  -3  -9   27.74    0.80
   0  -3  -9   27.76    0.86
   0  -3  -9   27.56    0.87
   0  -3  -9   29.05    1.17
   0   3   9   28.51    0.77
   0   3   9   28.82    0.85
   0   3   9   28.69    0.80
   0   3   9   27.45    1.17
   0   3   9   27.90    0.83
  -1  -3  -9   12.40    0.41
  -1  -3  -9   12.48    0.41
  -1  -3  -9   13.24    0.57
  -1  -3  -9   12.01    0.37
   1   3   9   12.24    0.40
   1   3   9   12.69    0.56
   1   3   9   12.32    0.37
  -2  -3  -9    7.78    0.28
  -2  -3  -9    7.75    0.27
  -2  -3  -9    8.29    0.39
   2   3   9    7.87    0.28
   2   3   9    8.75    0.40
   2   3   9    7.87    0.29
   2   3   9    7.73    0.25
  -3  -3  -9    4.54    0.15
  -3  -3  -9    4.41    0.26
  -3  -3  -9    4.17    0.18
   3   3   9    4.28    0.26
   3   3   9    4.49    0.19
   3   3   9    4.73    0.18
   3   3   9    4.30    0.16
  -4  -3  -9    3.34    0.16
  -4  -3  -9    3.37    0.22
   4   3   9    3.03    0.16
   4   3   9    3.26    0.15
   4   3   9    3.46    0.22
   4   3   9    3.23    0.14
  -5  -3  -9    4.01    0.18
  -5  -3  -9    3.91    0.25
   5   3   9    3.97    0.17
   5   3   9    4.08    0.16
   5   3   9    3.80    0.18
   5   3   9    4.18    0.25
  -6  -3  -9    3.18    0.12
  -6  -3  -9    3.19    0.22
   6   3   9    3.09    0.16
   6   3   9    3.30    0.15
   6   3   9    3.04    0.16
   6   3   9    3.19    0.23
  -7  -3  -9    0.08    0.08
   7   3   9    0.09    0.05
   7   3   9    0.04    0.08
   7   3   9    0.10    0.06
   7   3   9    0.19    0.05
  -8  -3  -9    0.38    0.10
  -8  -3  -9    0.45    0.07
   8   3   9    0.47    0.08
   8   3   9    0.45    0.11
   8   3   9    0.35    0.07
   8   3   9    0.40    0.07
  -9  -3  -9    5.84    0.34
  -9  -3  -9    5.80    0.23
   9   3   9    6.07    0.25
   9   3   9    6.03    0.24
   9   3   9    5.80    0.25
   6  -4  -9    0.38    0.08
  -6   4   9    0.48    0.08
   5  -4  -9    3.27    0.18
  -5   4   9    3.19    0.20
   4  -4  -9    1.98    0.14
  -4   4   9    1.75    0.09
  -4   4   9    1.88    0.16
  -4   4   9    1.89    0.11
   3  -4  -9    3.92    0.23
   3  -4  -9    4.10    0.19
  -3   4   9    4.21    0.16
  -3   4   9    3.92    0.23
  -3   4   9    3.91    0.14
   2  -4  -9   -0.04    0.05
   2  -4  -9   -0.05    0.06
  -2   4   9   -0.05    0.03
  -2   4   9   -0.03    0.03
  -2   4   9   -0.01    0.07
   1  -4  -9    2.68    0.19
   1  -4  -9    2.72    0.15
  -1   4   9    2.96    0.19
  -1   4   9    2.72    0.19
  -1   4   9    2.93    0.13
  -1   4   9    2.92    0.11
   0  -4  -9    9.35    0.46
   0  -4  -9    9.26    0.34
   0  -4  -9   10.08    0.34
   0   4   9   10.58    0.29
   0   4   9   10.26    0.31
   0   4   9    9.65    0.46
   0   4   9   10.09    0.32
  -1  -4  -9   10.10    0.34
  -1  -4  -9   10.31    0.35
  -1  -4  -9   10.00    0.48
   1   4   9   10.28    0.31
   1   4   9   10.61    0.33
   1   4   9   10.25    0.30
   1   4   9    9.86    0.48
  -2  -4  -9   16.52    0.53
  -2  -4  -9   16.58    0.52
  -2  -4  -9   17.79    0.73
   2   4   9   15.47    0.72
   2   4   9   15.92    0.54
   2   4   9   17.09    0.51
   2   4   9   16.73    0.49
  -3  -4  -9   -0.05    0.07
  -3  -4  -9   -0.04    0.02
  -3  -4  -9   -0.07    0.05
   3   4   9   -0.06    0.04
   3   4   9    0.00    0.05
   3   4   9   -0.04    0.07
   3   4   9    0.05    0.05
  -4  -4  -9    0.07    0.07
  -4  -4  -9    0.09    0.05
   4   4   9    0.04    0.04
   4   4   9   -0.02    0.05
   4   4   9    0.04    0.05
   4   4   9    0.01    0.07
  -5  -4  -9    0.00    0.05
  -5  -4  -9    0.04    0.08
   5   4   9    0.00    0.04
   5   4   9   -0.03    0.05
   5   4   9   -0.03    0.07
   5   4   9    0.00    0.05
  -6  -4  -9    0.08    0.04
  -6  -4  -9    0.03    0.08
   6   4   9    0.00    0.05
   6   4   9    0.10    0.05
   6   4   9    0.13    0.06
   6   4   9    0.06    0.08
  -7  -4  -9    0.01    0.08
  -7  -4  -9    0.08    0.04
   7   4   9    0.06    0.05
   7   4   9    0.07    0.08
   7   4   9    0.04    0.06
   7   4   9    0.00    0.05
  -8  -4  -9   -0.07    0.08
   8   4   9   -0.07    0.05
   8   4   9    0.05    0.06
   8   4   9   -0.13    0.09
   8   4   9   -0.02    0.05
  -9  -4  -9   -0.01    0.09
  -9  -4  -9    0.02    0.06
   9   4   9    0.08    0.07
   9   4   9    0.05    0.07
 -10  -4  -9    4.32    0.28
 -10  -4  -9    4.27    0.20
  10   4   9    4.57    0.22
  10   4   9    4.23    0.22
   6  -5  -9    1.50    0.14
  -6   5   9    1.36    0.14
   5  -5  -9    0.09    0.06
  -5   5   9    0.02    0.05
  -5   5   9   -0.03    0.07
   4  -5  -9    0.30    0.07
  -4   5   9    0.22    0.05
  -4   5   9    0.37    0.05
  -4   5   9    0.43    0.09
   3  -5  -9    8.32    0.30
  -3   5   9    7.86    0.25
  -3   5   9    8.03    0.39
  -3   5   9    7.87    0.28
   2  -5  -9    4.74    0.26
   2  -5  -9    4.30    0.20
  -2   5   9    4.34    0.16
  -2   5   9    4.47    0.17
  -2   5   9    4.61    0.26
   1  -5  -9    1.24    0.10
   1  -5  -9    1.22    0.14
  -1   5   9    1.27    0.15
  -1   5   9    1.64    0.07
  -1   5   9    1.42    0.08
  -1   5   9    1.59    0.09
   0  -5  -9   -0.01    0.05
   0  -5  -9   -0.06    0.07
   0   5   9    0.03    0.02
   0   5   9    0.01    0.03
   0   5   9    0.04    0.03
   0   5   9   -0.02    0.07
   0   5   9    0.05    0.03
  -1  -5  -9    2.01    0.13
  -1  -5  -9    2.23    0.18
   1   5   9    2.49    0.10
   1   5   9    2.27    0.10
   1   5   9    2.30    0.10
   1   5   9    2.17    0.18
   1   5   9    2.24    0.13
  -2  -5  -9    6.92    0.24
  -2  -5  -9    7.30    0.36
  -2  -5  -9    7.14    0.26
   2   5   9    7.09    0.23
   2   5   9    6.94    0.36
   2   5   9    6.57    0.26
  -3  -5  -9    9.51    0.34
  -3  -5  -9   10.17    0.47
  -3  -5  -9    9.87    0.32
   3   5   9    9.66    0.35
   3   5   9   10.60    0.48
   3   5   9    9.77    0.31
  -4  -5  -9    0.01    0.05
  -4  -5  -9    0.00    0.06
  -4  -5  -9    0.01    0.02
   4   5   9    0.00    0.04
   4   5   9    0.05    0.02
   4   5   9    0.00    0.05
   4   5   9    0.06    0.07
  -5  -5  -9    0.72    0.11
  -5  -5  -9    0.81    0.07
   5   5   9    0.79    0.07
   5   5   9    0.90    0.12
   5   5   9    0.68    0.08
  -6  -5  -9    1.55    0.12
  -6  -5  -9    1.73    0.17
   6   5   9    1.57    0.17
   6   5   9    1.59    0.12
   6   5   9    1.52    0.11
  -7  -5  -9    5.11    0.18
  -7  -5  -9    4.39    0.28
   7   5   9    4.98    0.20
   7   5   9    4.84    0.22
   7   5   9    4.63    0.29
  -8  -5  -9    3.86    0.15
  -8  -5  -9    3.72    0.24
   8   5   9    4.04    0.25
   8   5   9    3.62    0.18
   8   5   9    3.64    0.20
  -9  -5  -9    1.73    0.19
   9   5   9    2.14    0.15
   9   5   9    1.96    0.15
 -10  -5  -9    2.16    0.19
 -10  -5  -9    1.69    0.14
  10   5   9    2.01    0.16
  10   5   9    2.38    0.16
   5  -6  -9    0.14    0.07
  -5   6   9    0.12    0.08
  -5   6   9    0.18    0.05
   4  -6  -9    0.17    0.07
  -4   6   9    0.23    0.05
  -4   6   9    0.16    0.08
  -4   6   9    0.22    0.06
   3  -6  -9    3.34    0.18
  -3   6   9    2.90    0.13
  -3   6   9    2.93    0.15
  -3   6   9    3.18    0.21
   2  -6  -9    6.28    0.26
   2  -6  -9    6.36    0.33
  -2   6   9    6.31    0.23
  -2   6   9    5.91    0.33
  -2   6   9    6.20    0.21
   1  -6  -9    0.32    0.07
   1  -6  -9    0.23    0.09
  -1   6   9    0.38    0.10
  -1   6   9    0.31    0.04
  -1   6   9    0.23    0.04
   0  -6  -9    1.51    0.15
   0  -6  -9    1.20    0.10
   0   6   9    1.30    0.08
   0   6   9    1.44    0.15
   0   6   9    1.39    0.07
  -1  -6  -9    1.17    0.09
  -1  -6  -9    1.42    0.15
   1   6   9    1.22    0.14
   1   6   9    1.20    0.09
   1   6   9    1.23    0.06
   1   6   9    1.36    0.07
   1   6   9    1.32    0.09
   1   6   9    1.21    0.08
  -2  -6  -9    0.65    0.11
  -2  -6  -9    0.78    0.08
   2   6   9    0.87    0.07
   2   6   9    0.62    0.11
   2   6   9    0.79    0.05
   2   6   9    0.81    0.06
   2   6   9    0.63    0.07
  -3  -6  -9    3.38    0.22
  -3  -6  -9    3.80    0.14
  -3  -6  -9    3.72    0.17
   3   6   9    3.51    0.17
   3   6   9    3.44    0.23
   3   6   9    3.73    0.15
  -4  -6  -9   -0.02    0.02
  -4  -6  -9   -0.01    0.05
  -4  -6  -9    0.14    0.08
   4   6   9    0.01    0.04
   4   6   9   -0.08    0.05
   4   6   9    0.10    0.08
  -5  -6  -9   -0.01    0.05
  -5  -6  -9    0.11    0.08
   5   6   9    0.07    0.09
   5   6   9    0.01    0.05
   5   6   9   -0.02    0.05
  -6  -6  -9    1.43    0.11
  -6  -6  -9    1.76    0.18
   6   6   9    1.56    0.12
   6   6   9    1.47    0.11
   6   6   9    1.56    0.17
  -7  -6  -9    4.81    0.20
  -7  -6  -9    4.74    0.29
   7   6   9    4.51    0.21
   7   6   9    4.80    0.29
   7   6   9    4.71    0.20
  -8  -6  -9    0.02    0.08
  -8  -6  -9    0.02    0.04
   8   6   9   -0.10    0.06
   8   6   9    0.00    0.06
   8   6   9   -0.06    0.09
  -9  -6  -9   -0.07    0.08
  -9  -6  -9    0.05    0.05
   9   6   9    0.06    0.06
   9   6   9    0.03    0.07
 -10  -6  -9   -0.08    0.08
  10   6   9   -0.08    0.07
  10   6   9   -0.05    0.07
   4  -7  -9    0.92    0.10
  -4   7   9    0.76    0.07
  -4   7   9    0.79    0.12
   3  -7  -9    0.11    0.06
  -3   7   9    0.24    0.09
  -3   7   9    0.16    0.05
  -3   7   9    0.11    0.05
   2  -7  -9    0.31    0.07
   2  -7  -9    0.22    0.09
  -2   7   9    0.34    0.05
  -2   7   9    0.29    0.10
  -2   7   9    0.38    0.05
   1  -7  -9    1.79    0.14
   1  -7  -9    1.88    0.17
  -1   7   9    1.48    0.10
  -1   7   9    1.77    0.18
  -1   7   9    1.51    0.10
   0  -7  -9    4.29    0.20
   0  -7  -9    4.66    0.27
   0   7   9    4.57    0.27
   0   7   9    4.24    0.17
   0   7   9    4.30    0.16
  -1  -7  -9    0.18    0.06
  -1  -7  -9    0.20    0.08
   1   7   9    0.22    0.06
   1   7   9    0.10    0.08
   1   7   9    0.14    0.04
   1   7   9    0.30    0.05
  -2  -7  -9    0.65    0.08
  -2  -7  -9    0.91    0.12
   2   7   9    0.79    0.07
   2   7   9    0.85    0.12
   2   7   9    0.54    0.07
   2   7   9    0.66    0.06
  -3  -7  -9    0.26    0.09
  -3  -7  -9    0.18    0.06
   3   7   9    0.22    0.08
   3   7   9    0.21    0.05
   3   7   9    0.25    0.05
   3   7   9    0.10    0.06
  -4  -7  -9    3.96    0.14
  -4  -7  -9    3.97    0.18
  -4  -7  -9    4.01    0.26
   4   7   9    3.76    0.18
   4   7   9    3.70    0.25
   4   7   9    3.72    0.16
  -5  -7  -9   11.06    0.37
  -5  -7  -9   11.02    0.52
   5   7   9   10.88    0.36
   5   7   9   10.76    0.52
   5   7   9   10.70    0.39
  -6  -7  -9    2.34    0.14
  -6  -7  -9    2.31    0.20
   6   7   9    2.21    0.14
   6   7   9    2.22    0.20
   6   7   9    2.14    0.14
  -7  -7  -9    2.38    0.14
  -7  -7  -9    2.27    0.21
   7   7   9    2.34    0.22
   7   7   9    2.23    0.15
   7   7   9    2.38    0.14
  -8  -7  -9    0.17    0.05
  -8  -7  -9    0.10    0.09
   8   7   9    0.08    0.07
   8   7   9    0.03    0.09
   8   7   9    0.10    0.06
  -9  -7  -9    0.98    0.09
  -9  -7  -9    1.15    0.14
   9   7   9    0.92    0.10
   9   7   9    0.89    0.10
 -10  -7  -9    0.02    0.09
  10   7   9   -0.02    0.08
   3  -8  -9    0.09    0.08
   3  -8  -9    0.16    0.08
  -3   8   9    0.16    0.05
  -3   8   9    0.05    0.09
   2  -8  -9    0.03    0.06
   2  -8  -9    0.06    0.06
  -2   8   9    0.03    0.09
  -2   8   9    0.11    0.04
   1  -8  -9    0.13    0.05
   1  -8  -9    0.16    0.06
   1  -8  -9   -0.03    0.08
  -1   8   9    0.04    0.04
  -1   8   9    0.10    0.08
  -1   8   9    0.09    0.04
   0  -8  -9    0.18    0.06
   0  -8  -9    0.17    0.05
   0  -8  -9    0.11    0.09
   0   8   9    0.11    0.04
   0   8   9    0.21    0.09
   0   8   9    0.14    0.04
   0   8   9    0.13    0.05
  -1  -8  -9    0.03    0.08
  -1  -8  -9    0.02    0.05
  -1  -8  -9    0.13    0.04
   1   8   9    0.09    0.04
   1   8   9    0.12    0.05
   1   8   9    0.09    0.09
   1   8   9    0.07    0.05
  -2  -8  -9    0.19    0.09
  -2  -8  -9    0.39    0.05
  -2  -8  -9    0.36    0.07
   2   8   9    0.11    0.09
   2   8   9    0.16    0.05
   2   8   9    0.18    0.05
   2   8   9    0.29    0.06
  -3  -8  -9    4.29    0.28
  -3  -8  -9    4.21    0.20
   3   8   9    4.55    0.20
   3   8   9    4.56    0.18
   3   8   9    4.28    0.28
   3   8   9    4.31    0.17
  -4  -8  -9    4.95    0.30
  -4  -8  -9    4.69    0.21
   4   8   9    4.81    0.21
   4   8   9    4.68    0.18
   4   8   9    4.75    0.19
   4   8   9    4.83    0.30
  -5  -8  -9    0.76    0.08
  -5  -8  -9    0.54    0.12
   5   8   9    0.61    0.12
   5   8   9    0.79    0.09
   5   8   9    0.63    0.08
  -6  -8  -9    4.23    0.19
  -6  -8  -9    4.37    0.28
   6   8   9    4.24    0.19
   6   8   9    3.83    0.21
   6   8   9    4.65    0.28
  -7  -8  -9    0.22    0.06
  -7  -8  -9    0.19    0.10
   7   8   9    0.06    0.10
   7   8   9    0.20    0.07
   7   8   9    0.26    0.07
  -8  -8  -9    0.10    0.09
  -8  -8  -9    0.14    0.05
  -8  -8  -9   -0.01    0.05
   8   8   9    0.02    0.07
   8   8   9    0.09    0.10
   8   8   9    0.07    0.06
  -9  -8  -9    0.13    0.06
  -9  -8  -9    0.02    0.09
   9   8   9    0.13    0.07
   9   8   9    0.15    0.08
   2  -9  -9    0.23    0.08
  -2   9   9    0.06    0.10
   1  -9  -9    0.21    0.07
   1  -9  -9    0.16    0.10
  -1   9   9    0.14    0.05
  -1   9   9    0.22    0.10
   0  -9  -9    1.07    0.11
   0  -9  -9    1.04    0.14
   0   9   9    0.92    0.09
   0   9   9    1.36    0.10
   0   9   9    0.88    0.14
  -1  -9  -9    0.05    0.08
  -1  -9  -9    0.00    0.06
   1   9   9    0.09    0.09
   1   9   9   -0.06    0.04
   1   9   9    0.01    0.04
  -2  -9  -9    0.97    0.14
  -2  -9  -9    0.89    0.09
   2   9   9    1.01    0.09
   2   9   9    1.13    0.09
   2   9   9    1.04    0.09
   2   9   9    1.10    0.15
  -3  -9  -9    0.11    0.06
  -3  -9  -9   -0.05    0.09
   3   9   9    0.01    0.04
   3   9   9    0.04    0.09
   3   9   9    0.13    0.05
   3   9   9   -0.03    0.05
  -4  -9  -9    0.30    0.07
  -4  -9  -9    0.26    0.11
   4   9   9    0.18    0.06
   4   9   9    0.21    0.10
   4   9   9    0.28    0.06
   4   9   9    0.33    0.06
  -5  -9  -9    5.28    0.33
  -5  -9  -9    5.48    0.22
   5   9   9    5.23    0.24
   5   9   9    5.19    0.22
   5   9   9    5.52    0.21
   5   9   9    5.55    0.33
  -6  -9  -9   -0.08    0.09
  -6  -9  -9    0.03    0.05
   6   9   9    0.00    0.06
   6   9   9    0.03    0.06
   6   9   9   -0.01    0.09
  -7  -9  -9    0.10    0.05
  -7  -9  -9    0.01    0.10
   7   9   9    0.13    0.06
   7   9   9    0.08    0.10
   7   9   9    0.11    0.07
  -8  -9  -9    1.68    0.19
   8   9   9    1.39    0.12
   8   9   9    1.69    0.15
  -9  -9  -9   -0.06    0.06
   9   9   9   -0.06    0.07
   9   9   9   -0.07    0.07
   0 -10  -9    0.88    0.15
   0 -10  -9    0.81    0.10
   0  10   9    0.97    0.15
  -1 -10  -9    0.55    0.13
  -1 -10  -9    0.49    0.09
   1  10   9    0.70    0.13
   1  10   9    0.54    0.07
  -2 -10  -9    0.14    0.10
  -2 -10  -9    0.07    0.06
   2  10   9    0.09    0.05
   2  10   9    0.08    0.05
   2  10   9   -0.02    0.05
   2  10   9    0.10    0.10
  -3 -10  -9    1.46    0.13
  -3 -10  -9    1.39    0.17
   3  10   9    1.47    0.17
   3  10   9    1.07    0.10
   3  10   9    1.01    0.09
   3  10   9    1.20    0.10
  -4 -10  -9    0.48    0.08
  -4 -10  -9    0.35    0.12
   4  10   9    0.34    0.07
   4  10   9    0.30    0.06
   4  10   9    0.43    0.13
   4  10   9    0.30    0.07
  -5 -10  -9    1.45    0.13
  -5 -10  -9    1.27    0.16
   5  10   9    1.40    0.12
   5  10   9    1.52    0.18
   5  10   9    1.14    0.11
  -6 -10  -9    0.41    0.13
  -6 -10  -9    0.38    0.07
   6  10   9    0.42    0.08
   6  10   9    0.25    0.07
   6  10   9    0.40    0.12
  -7 -10  -9    2.00    0.22
  -7 -10  -9    2.45    0.15
   7  10   9    2.23    0.23
   7  10   9    2.38    0.17
   7  10   9    2.34    0.15
   8  10   9    0.56    0.09
   8  10   9    0.46    0.09
  -2 -11  -9   10.87    0.40
  -2 -11  -9   11.63    0.58
   2  11   9   10.18    0.39
   2  11   9   11.47    0.57
  -3 -11  -9    0.18    0.12
  -3 -11  -9    0.13    0.07
   3  11   9    0.03    0.06
   3  11   9    0.04    0.11
   3  11   9    0.06    0.06
  -4 -11  -9   -0.01    0.11
  -4 -11  -9    0.07    0.06
   4  11   9    0.05    0.11
   4  11   9    0.09    0.06
   4  11   9    0.17    0.06
  -5 -11  -9   -0.09    0.11
  -5 -11  -9   -0.10    0.05
   5  11   9   -0.02    0.06
   5  11   9   -0.03    0.11
   5  11   9   -0.04    0.06
  -6 -11  -9    0.38    0.08
  -6 -11  -9    0.52    0.14
   6  11   9    0.45    0.13
   6  11   9    0.49    0.08
   6  11   9    0.40    0.08
   2   6 -10   -0.07    0.06
  -2  -6  10   -0.08    0.06
   1   6 -10    0.24    0.10
   1   6 -10    0.16    0.07
   4   5 -10   -0.05    0.07
   4   5 -10    0.06    0.05
  -4  -5  10    0.03    0.08
  -4  -5  10   -0.01    0.06
  -4  -5  10    0.00    0.06
   3   5 -10    2.71    0.15
  -3  -5  10    2.80    0.17
  -3  -5  10    2.55    0.21
  -3  -5  10    2.72    0.16
   2   5 -10    0.00    0.07
   2   5 -10   -0.01    0.05
  -2  -5  10    0.01    0.06
  -2  -5  10   -0.05    0.05
  -2  -5  10    0.04    0.09
   1   5 -10    3.17    0.17
   1   5 -10    3.42    0.24
  -1  -5  10    2.98    0.24
  -1  -5  10    3.08    0.18
   0   5 -10   -0.02    0.06
   0   5 -10    0.04    0.09
   0  -5  10    0.03    0.06
   0  -5  10    0.10    0.10
  -1   5 -10    5.60    0.24
  -1   5 -10    5.65    0.35
   1  -5  10    5.58    0.26
   1  -5  10    6.07    0.36
  -2   5 -10    1.10    0.15
  -2   5 -10    1.11    0.11
   2  -5  10    1.15    0.11
   2  -5  10    1.36    0.17
   6   4 -10    0.16    0.09
   5   4 -10    0.96    0.11
   5   4 -10    1.13    0.10
  -5  -4  10    1.21    0.09
  -5  -4  10    0.95    0.10
  -5  -4  10    1.16    0.14
   4   4 -10    0.05    0.05
   4   4 -10   -0.12    0.06
  -4  -4  10    0.07    0.06
  -4  -4  10    0.04    0.07
  -4  -4  10   -0.04    0.05
   3   4 -10    0.51    0.07
   3   4 -10    0.53    0.08
  -3  -4  10    0.37    0.07
  -3  -4  10    0.51    0.10
  -3  -4  10    0.35    0.07
   2   4 -10    0.00    0.08
   2   4 -10   -0.06    0.05
  -2  -4  10    0.00    0.05
  -2  -4  10   -0.04    0.08
  -2  -4  10   -0.06    0.05
   1   4 -10    0.13    0.06
   1   4 -10    0.07    0.08
  -1  -4  10    0.12    0.06
  -1  -4  10    0.08    0.09
   0   4 -10    0.97    0.13
   0   4 -10    0.84    0.09
   0  -4  10    0.91    0.09
   0  -4  10    0.86    0.13
  -1   4 -10    0.31    0.07
  -1   4 -10    0.09    0.09
   1  -4  10    0.20    0.07
   1  -4  10    0.04    0.10
  -2   4 -10    1.20    0.10
  -2   4 -10    1.11    0.14
   2  -4  10    1.04    0.15
   2  -4  10    1.25    0.11
  -3   4 -10    0.03    0.06
  -3   4 -10    0.07    0.09
   3  -4  10    0.00    0.06
   3  -4  10    0.06    0.11
  -4   4 -10    3.06    0.18
  -4   4 -10    3.13    0.25
   4  -4  10    3.12    0.20
   4  -4  10    3.42    0.27
   6   3 -10    3.70    0.22
  -6  -3  10    3.94    0.23
  -6  -3  10    4.19    0.21
   5   3 -10    1.12    0.11
   5   3 -10    1.10    0.08
  -5  -3  10    1.22    0.09
  -5  -3  10    1.09    0.14
  -5  -3  10    1.11    0.11
   4   3 -10   -0.03    0.06
   4   3 -10   -0.03    0.04
  -4  -3  10    0.04    0.06
  -4  -3  10   -0.06    0.05
  -4  -3  10   -0.02    0.07
   3   3 -10    1.03    0.08
   3   3 -10    0.91    0.10
  -3  -3  10    0.96    0.12
  -3  -3  10    0.93    0.09
  -3  -3  10    0.97    0.09
   2   3 -10    3.16    0.15
   2   3 -10    2.99    0.17
   2   3 -10    2.95    0.20
  -2  -3  10    2.85    0.16
  -2  -3  10    2.97    0.16
  -2  -3  10    2.63    0.20
   1   3 -10    1.25    0.11
   1   3 -10    1.13    0.13
  -1  -3  10    1.27    0.16
  -1  -3  10    1.42    0.12
   0   3 -10    0.20    0.09
   0   3 -10    0.23    0.06
   0  -3  10    0.26    0.06
   0  -3  10    0.22    0.09
  -1   3 -10    0.43    0.07
  -1   3 -10    0.40    0.10
   1  -3  10    0.41    0.07
   1  -3  10    0.49    0.11
  -2   3 -10    0.67    0.11
  -2   3 -10    0.66    0.08
   2  -3  10    0.61    0.12
   2  -3  10    0.58    0.08
  -3   3 -10    0.98    0.10
  -3   3 -10    0.91    0.14
   3  -3  10    0.94    0.14
   3  -3  10    0.89    0.10
  -4   3 -10    2.01    0.22
  -4   3 -10    1.94    0.15
   4  -3  10    1.82    0.16
   4  -3  10    2.15    0.21
   4  -3  10    2.11    0.13
  -5   3 -10    1.75    0.20
  -5   3 -10    1.64    0.15
   5  -3  10    1.56    0.13
   5  -3  10    1.72    0.21
   5  -3  10    1.54    0.13
   6   2 -10    5.13    0.25
  -6  -2  10    5.25    0.24
  -6  -2  10    4.81    0.26
   5   2 -10    0.07    0.06
   5   2 -10    0.00    0.04
   5   2 -10   -0.05    0.07
  -5  -2  10    0.07    0.05
  -5  -2  10    0.09    0.07
  -5  -2  10    0.05    0.06
   4   2 -10    1.22    0.10
   4   2 -10    1.41    0.13
   4   2 -10    1.29    0.11
  -4  -2  10    1.44    0.12
  -4  -2  10    1.52    0.13
  -4  -2  10    1.52    0.15
   3   2 -10   -0.08    0.04
   3   2 -10   -0.04    0.05
   3   2 -10   -0.04    0.06
  -3  -2  10   -0.03    0.05
  -3  -2  10   -0.09    0.05
  -3  -2  10    0.09    0.07
   2   2 -10    0.17    0.08
   2   2 -10    0.07    0.05
   2   2 -10    0.10    0.06
  -2  -2  10    0.08    0.05
  -2  -2  10    0.15    0.06
  -2  -2  10    0.19    0.08
   1   2 -10    4.70    0.28
   1   2 -10    4.84    0.20
   1   2 -10    4.93    0.21
  -1  -2  10    5.16    0.21
  -1  -2  10    4.99    0.29
   0   2 -10    0.93    0.08
   0   2 -10    0.86    0.12
   0  -2  10    1.09    0.09
   0  -2  10    0.86    0.12
  -1   2 -10    2.36    0.19
  -1   2 -10    2.12    0.14
   1  -2  10    2.33    0.20
   1  -2  10    2.20    0.14
  -2   2 -10    1.35    0.16
  -2   2 -10    1.16    0.10
   2  -2  10    1.24    0.07
   2  -2  10    1.19    0.10
   2  -2  10    1.06    0.14
  -3   2 -10    0.14    0.08
  -3   2 -10    0.10    0.06
   3  -2  10    0.15    0.04
   3  -2  10    0.12    0.06
   3  -2  10    0.08    0.09
  -4   2 -10    4.88    0.22
  -4   2 -10    5.09    0.31
   4  -2  10    5.09    0.19
   4  -2  10    4.72    0.22
   4  -2  10    5.04    0.31
  -5   2 -10    7.26    0.40
  -5   2 -10    7.25    0.29
   5  -2  10    7.55    0.40
   5  -2  10    7.16    0.27
   5  -2  10    7.57    0.30
  -6   2 -10    0.04    0.09
  -6   2 -10    0.04    0.07
   6  -2  10    0.18    0.08
   6  -2  10    0.04    0.06
   6  -2  10    0.16    0.11
   7   1 -10    0.33    0.09
   6   1 -10    0.91    0.09
   6   1 -10    0.91    0.11
  -6  -1  10    0.82    0.09
  -6  -1  10    0.89    0.10
   5   1 -10    0.59    0.09
   5   1 -10    0.58    0.06
   5   1 -10    0.49    0.08
  -5  -1  10    0.47    0.08
  -5  -1  10    0.60    0.07
  -5  -1  10    0.57    0.09
   4   1 -10   13.08    0.42
   4   1 -10   13.73    0.47
   4   1 -10   13.87    0.45
  -4  -1  10   13.43    0.46
  -4  -1  10   13.17    0.60
  -4  -1  10   13.50    0.43
   3   1 -10    1.33    0.14
   3   1 -10    1.46    0.13
   3   1 -10    1.19    0.11
   3   1 -10    1.40    0.12
  -3  -1  10    1.37    0.12
  -3  -1  10    1.59    0.15
  -3  -1  10    1.45    0.11
   2   1 -10    2.32    0.15
   2   1 -10    2.16    0.13
   2   1 -10    2.17    0.14
   2   1 -10    2.28    0.18
  -2  -1  10    2.12    0.14
  -2  -1  10    2.43    0.18
  -2  -1  10    2.16    0.14
   1   1 -10    2.18    0.13
   1   1 -10    2.07    0.17
   1   1 -10    1.83    0.13
   1   1 -10    1.99    0.14
  -1  -1  10    2.08    0.17
  -1  -1  10    2.04    0.13
   0   1 -10    4.46    0.19
   0   1 -10    4.49    0.26
   0   1 -10    4.22    0.19
   0  -1  10    4.37    0.26
   0  -1  10    4.51    0.19
  -1   1 -10   -0.07    0.07
  -1   1 -10    0.02    0.05
   1  -1  10    0.03    0.05
   1  -1  10   -0.02    0.02
   1  -1  10   -0.05    0.08
  -2   1 -10    5.18    0.21
  -2   1 -10    4.78    0.29
   2  -1  10    5.12    0.21
   2  -1  10    4.77    0.28
   2  -1  10    4.91    0.17
  -3   1 -10    3.02    0.22
  -3   1 -10    3.09    0.16
   3  -1  10    3.04    0.22
   3  -1  10    3.33    0.17
   3  -1  10    2.91    0.13
  -4   1 -10   -0.08    0.07
  -4   1 -10    0.01    0.06
   4  -1  10    0.00    0.06
   4  -1  10    0.06    0.04
   4  -1  10    0.02    0.09
  -5   1 -10    3.72    0.18
  -5   1 -10    3.63    0.26
   5  -1  10    3.66    0.17
   5  -1  10    3.67    0.19
   5  -1  10    3.60    0.26
  -6   1 -10    1.41    0.11
  -6   1 -10    1.20    0.16
   6  -1  10    1.36    0.12
   6  -1  10    1.53    0.19
   6  -1  10    1.34    0.10
  -7   1 -10    2.81    0.17
   7  -1  10    2.74    0.18
   7  -1  10    2.80    0.17
   7   0 -10    0.74    0.11
   6   0 -10    0.77    0.10
   6   0 -10    0.84    0.09
  -6   0  10    0.78    0.09
  -6   0  10    0.77    0.09
   5   0 -10    0.29    0.07
   5   0 -10    0.27    0.07
   5   0 -10    0.24    0.05
  -5   0  10    0.15    0.07
  -5   0  10    0.12    0.07
   4   0 -10    5.22    0.23
   4   0 -10    5.41    0.22
   4   0 -10    5.11    0.20
  -4   0  10    5.28    0.20
  -4   0  10    4.98    0.28
  -4   0  10    5.29    0.22
   3   0 -10    1.20    0.10
   3   0 -10    1.08    0.09
   3   0 -10    0.96    0.09
   3   0 -10    1.16    0.14
  -3   0  10    1.35    0.11
  -3   0  10    1.20    0.14
  -3   0  10    1.11    0.09
   2   0 -10   13.80    0.61
   2   0 -10   13.58    0.43
   2   0 -10   13.17    0.46
   2   0 -10   13.59    0.45
  -2   0  10   13.61    0.43
  -2   0  10   13.48    0.45
  -2   0  10   12.95    0.60
   1   0 -10    2.17    0.14
   1   0 -10    1.90    0.13
   1   0 -10    2.05    0.12
   1   0 -10    2.34    0.18
  -1   0  10    2.06    0.17
  -1   0  10    1.89    0.13
  -1   0  10    2.07    0.13
   0   0 -10    1.03    0.13
   0   0 -10    0.94    0.08
   0   0 -10    1.04    0.08
   0   0 -10    0.98    0.09
   0   0  10    0.92    0.08
   0   0  10    1.09    0.04
   0   0  10    0.85    0.12
  -1   0 -10    6.27    0.23
  -1   0 -10    6.09    0.23
  -1   0 -10    6.57    0.34
  -1   0 -10    6.15    0.25
   1   0  10    6.39    0.24
   1   0  10    6.07    0.34
   1   0  10    5.99    0.19
  -2   0 -10    2.59    0.14
  -2   0 -10    2.63    0.20
   2   0  10    2.33    0.20
   2   0  10    2.35    0.15
   2   0  10    2.56    0.10
   2   0  10    2.45    0.10
  -3   0 -10    0.48    0.07
  -3   0 -10    0.53    0.11
   3   0  10    0.56    0.05
   3   0  10    0.51    0.07
   3   0  10    0.41    0.10
   3   0  10    0.53    0.05
  -4   0 -10    2.18    0.14
  -4   0 -10    2.13    0.19
   4   0  10    2.32    0.20
   4   0  10    2.10    0.15
   4   0  10    2.26    0.11
  -5   0 -10    0.14    0.06
  -5   0 -10    0.18    0.09
   5   0  10    0.12    0.05
   5   0  10    0.11    0.09
   5   0  10    0.09    0.06
  -6   0 -10    3.25    0.25
  -6   0 -10    3.53    0.18
   6   0  10    3.35    0.19
   6   0  10    3.36    0.17
   6   0  10    3.21    0.25
  -7   0 -10    1.86    0.20
  -7   0 -10    2.31    0.15
   7   0  10    2.09    0.21
   7   0  10    2.14    0.15
   7   0  10    2.18    0.16
   6  -1 -10    1.38    0.12
   6  -1 -10    1.95    0.14
  -6   1  10    1.50    0.14
   5  -1 -10    0.04    0.06
   5  -1 -10    0.05    0.06
  -5   1  10   -0.03    0.06
  -5   1  10    0.04    0.06
   4  -1 -10    0.70    0.07
   4  -1 -10    0.77    0.08
   4  -1 -10    0.70    0.08
  -4   1  10    0.89    0.08
  -4   1  10    0.58    0.09
   3  -1 -10    0.90    0.09
   3  -1 -10    0.90    0.09
   3  -1 -10    0.82    0.11
   3  -1 -10    0.90    0.07
  -3   1  10    0.71    0.08
  -3   1  10    0.79    0.10
  -3   1  10    0.90    0.08
   2  -1 -10    9.09    0.32
   2  -1 -10    8.97    0.43
   2  -1 -10    8.89    0.30
   2  -1 -10    8.93    0.33
  -2   1  10    8.71    0.43
  -2   1  10    9.17    0.31
  -2   1  10    9.03    0.32
   1  -1 -10    6.11    0.31
   1  -1 -10    5.89    0.24
   1  -1 -10    5.90    0.24
  -1   1  10    5.88    0.17
  -1   1  10    5.84    0.23
  -1   1  10    5.87    0.23
  -1   1  10    6.27    0.32
   0  -1 -10    3.22    0.15
   0  -1 -10    3.49    0.13
   0  -1 -10    2.95    0.16
   0  -1 -10    3.31    0.21
   0   1  10    3.14    0.16
   0   1  10    3.19    0.11
   0   1  10    3.27    0.21
   0   1  10    3.13    0.10
   0   1  10    3.06    0.11
  -1  -1 -10    0.60    0.10
  -1  -1 -10    0.55    0.06
  -1  -1 -10    0.49    0.07
   1   1  10    0.53    0.10
   1   1  10    0.40    0.07
   1   1  10    0.49    0.04
   1   1  10    0.54    0.04
  -2  -1 -10    0.10    0.06
  -2  -1 -10    0.10    0.04
  -2  -1 -10    0.11    0.05
  -2  -1 -10    0.02    0.08
   2   1  10    0.09    0.08
   2   1  10    0.11    0.05
   2   1  10    0.10    0.03
   2   1  10    0.07    0.04
  -3  -1 -10    2.76    0.15
  -3  -1 -10    3.10    0.21
   3   1  10    2.83    0.15
   3   1  10    2.69    0.12
   3   1  10    2.67    0.12
   3   1  10    3.15    0.22
  -4  -1 -10    1.46    0.17
  -4  -1 -10    1.67    0.12
   4   1  10    1.63    0.12
   4   1  10    1.58    0.17
   4   1  10    1.54    0.10
  -5  -1 -10    1.63    0.13
  -5  -1 -10    1.92    0.18
   5   1  10    1.67    0.19
   5   1  10    1.75    0.11
   5   1  10    1.99    0.14
  -6  -1 -10    3.63    0.25
  -6  -1 -10    3.48    0.18
   6   1  10    3.79    0.17
   6   1  10    3.72    0.19
   6   1  10    3.84    0.26
  -7  -1 -10    0.04    0.06
  -7  -1 -10    0.03    0.09
   7   1  10    0.03    0.06
   7   1  10    0.08    0.06
   7   1  10    0.01    0.10
  -8  -1 -10   -0.09    0.09
  -8  -1 -10    0.02    0.06
   8   1  10    0.06    0.06
   8   1  10    0.10    0.07
   6  -2 -10    0.21    0.08
   6  -2 -10    0.36    0.07
  -6   2  10    0.20    0.07
   5  -2 -10    0.24    0.07
   5  -2 -10    0.15    0.07
  -5   2  10    0.23    0.07
   4  -2 -10    0.13    0.06
   4  -2 -10    0.03    0.06
  -4   2  10    0.06    0.07
  -4   2  10   -0.03    0.05
   3  -2 -10    1.49    0.14
   3  -2 -10    1.46    0.13
   3  -2 -10    1.41    0.12
  -3   2  10    1.36    0.11
  -3   2  10    1.62    0.15
   2  -2 -10    2.12    0.14
   2  -2 -10    2.22    0.14
   2  -2 -10    2.02    0.17
  -2   2  10    2.10    0.07
  -2   2  10    1.91    0.18
  -2   2  10    1.79    0.13
  -2   2  10    2.21    0.13
   1  -2 -10   13.34    0.44
   1  -2 -10   12.16    0.58
   1  -2 -10   12.92    0.44
  -1   2  10   13.03    0.42
  -1   2  10   13.18    0.42
  -1   2  10   12.72    0.36
  -1   2  10   13.15    0.58
   0  -2 -10    0.20    0.05
   0  -2 -10    0.15    0.06
   0  -2 -10    0.17    0.08
   0   2  10    0.21    0.03
   0   2  10    0.21    0.06
   0   2  10    0.16    0.08
   0   2  10    0.21    0.03
  -1  -2 -10    0.06    0.07
  -1  -2 -10    0.01    0.05
  -1  -2 -10    0.05    0.04
   1   2  10    0.03    0.03
   1   2  10    0.03    0.08
   1   2  10    0.11    0.05
  -2  -2 -10    0.08    0.05
  -2  -2 -10    0.06    0.03
  -2  -2 -10   -0.06    0.07
   2   2  10    0.02    0.03
   2   2  10    0.04    0.08
   2   2  10    0.04    0.05
  -3  -2 -10    1.28    0.11
  -3  -2 -10    1.14    0.13
   3   2  10    1.18    0.08
   3   2  10    1.25    0.16
   3   2  10    1.14    0.09
   3   2  10    1.37    0.09
  -4  -2 -10    0.92    0.12
   4   2  10    1.02    0.08
   4   2  10    0.91    0.08
   4   2  10    0.75    0.11
  -5  -2 -10    0.06    0.06
  -5  -2 -10    0.10    0.08
   5   2  10    0.05    0.05
   5   2  10    0.05    0.04
   5   2  10    0.09    0.09
  -6  -2 -10    0.08    0.09
  -6  -2 -10    0.04    0.06
   6   2  10    0.09    0.06
   6   2  10    0.19    0.06
   6   2  10    0.08    0.06
   6   2  10    0.06    0.09
  -7  -2 -10    0.56    0.08
  -7  -2 -10    0.68    0.12
   7   2  10    0.75    0.13
   7   2  10    0.75    0.09
   7   2  10    0.71    0.09
   7   2  10    0.84    0.09
  -8  -2 -10    4.44    0.20
  -8  -2 -10    4.11    0.29
   8   2  10    4.61    0.21
   8   2  10    4.36    0.21
   8   2  10    4.27    0.21
   6  -3 -10    0.00    0.06
   6  -3 -10    0.04    0.07
  -6   3  10   -0.01    0.06
   5  -3 -10    3.06    0.19
   5  -3 -10    3.14    0.17
  -5   3  10    2.84    0.20
   4  -3 -10   -0.06    0.05
   4  -3 -10    0.06    0.06
  -4   3  10   -0.04    0.07
   3  -3 -10    1.08    0.10
   3  -3 -10    1.17    0.10
  -3   3  10    1.37    0.10
  -3   3  10    0.95    0.12
   2  -3 -10    0.49    0.07
   2  -3 -10    0.59    0.08
   2  -3 -10    0.39    0.09
  -2   3  10    0.56    0.06
  -2   3  10    0.69    0.05
  -2   3  10    0.46    0.10
   1  -3 -10    3.82    0.23
   1  -3 -10    3.64    0.18
   1  -3 -10    3.59    0.17
  -1   3  10    3.55    0.16
  -1   3  10    3.70    0.23
  -1   3  10    3.52    0.12
   0  -3 -10    4.66    0.20
   0  -3 -10    4.53    0.26
   0  -3 -10    4.39    0.18
   0   3  10    4.34    0.18
   0   3  10    4.47    0.26
   0   3  10    4.08    0.14
   0   3  10    4.36    0.19
   0   3  10    4.26    0.15
  -1  -3 -10    4.39    0.16
  -1  -3 -10    4.37    0.18
  -1  -3 -10    4.53    0.26
  -1  -3 -10    4.45    0.20
   1   3  10    4.22    0.15
   1   3  10    4.55    0.15
   1   3  10    4.10    0.26
   1   3  10    4.69    0.19
  -2  -3 -10    4.42    0.17
  -2  -3 -10    4.64    0.27
  -2  -3 -10    4.10    0.19
   2   3  10    4.28    0.19
   2   3  10    4.38    0.16
   2   3  10    4.49    0.26
  -3  -3 -10    0.09    0.03
  -3  -3 -10    0.14    0.05
  -3  -3 -10    0.05    0.08
   3   3  10   -0.01    0.08
   3   3  10    0.08    0.04
   3   3  10    0.08    0.05
  -4  -3 -10    1.95    0.13
  -4  -3 -10    2.10    0.18
   4   3  10    2.05    0.18
   4   3  10    1.81    0.10
   4   3  10    1.89    0.13
   4   3  10    1.80    0.13
  -5  -3 -10    1.80    0.18
   5   3  10    1.71    0.11
   5   3  10    1.74    0.18
   5   3  10    1.96    0.13
   5   3  10    2.09    0.14
  -6  -3 -10    1.67    0.18
   6   3  10    1.75    0.13
   6   3  10    1.91    0.12
   6   3  10    1.58    0.18
   6   3  10    1.87    0.13
  -7  -3 -10    1.00    0.10
  -7  -3 -10    0.98    0.14
   7   3  10    1.15    0.09
   7   3  10    1.00    0.14
   7   3  10    1.01    0.09
   7   3  10    0.92    0.09
  -8  -3 -10    2.29    0.15
  -8  -3 -10    2.36    0.22
   8   3  10    2.47    0.16
   8   3  10    2.35    0.16
   8   3  10    2.35    0.16
  -9  -3 -10    0.02    0.09
  -9  -3 -10   -0.02    0.06
   9   3  10    0.12    0.07
   9   3  10    0.03    0.06
   9   3  10    0.04    0.07
   5  -4 -10   -0.07    0.07
   5  -4 -10    0.07    0.07
  -5   4  10   -0.02    0.07
   4  -4 -10    0.56    0.08
   4  -4 -10    0.49    0.08
  -4   4  10    0.60    0.10
   3  -4 -10    1.07    0.10
   3  -4 -10    1.02    0.10
  -3   4  10    1.07    0.07
  -3   4  10    1.35    0.15
   2  -4 -10    0.34    0.07
   2  -4 -10    0.21    0.06
   2  -4 -10    0.25    0.08
  -2   4  10    0.43    0.06
  -2   4  10    0.29    0.09
  -2   4  10    0.36    0.04
   1  -4 -10   -0.04    0.05
   1  -4 -10    0.02    0.05
   1  -4 -10   -0.01    0.07
  -1   4  10    0.06    0.04
  -1   4  10   -0.01    0.08
  -1   4  10    0.02    0.03
   0  -4 -10    0.50    0.06
   0  -4 -10    0.60    0.10
   0  -4 -10    0.48    0.07
   0   4  10    0.44    0.10
   0   4  10    0.59    0.05
   0   4  10    0.61    0.06
   0   4  10    0.60    0.05
  -1  -4 -10   10.81    0.36
  -1  -4 -10   10.86    0.37
  -1  -4 -10    9.98    0.50
   1   4  10   10.78    0.32
   1   4  10   11.09    0.51
   1   4  10   10.69    0.35
   1   4  10   10.97    0.33
  -2  -4 -10    0.15    0.04
  -2  -4 -10    0.16    0.08
  -2  -4 -10    0.18    0.06
   2   4  10    0.17    0.04
   2   4  10    0.13    0.09
   2   4  10    0.01    0.05
  -3  -4 -10   -0.06    0.07
  -3  -4 -10    0.05    0.05
  -3  -4 -10   -0.02    0.03
   3   4  10   -0.02    0.03
   3   4  10    0.07    0.08
   3   4  10    0.03    0.05
   3   4  10    0.05    0.05
  -4  -4 -10    0.66    0.11
  -4  -4 -10    0.85    0.08
   4   4  10    0.75    0.07
   4   4  10    0.77    0.08
   4   4  10    0.57    0.11
   4   4  10    0.68    0.08
  -5  -4 -10    2.48    0.20
  -5  -4 -10    2.58    0.15
   5   4  10    2.65    0.15
   5   4  10    2.70    0.13
   5   4  10    2.47    0.15
   5   4  10    2.34    0.20
  -6  -4 -10    0.20    0.04
  -6  -4 -10    0.14    0.09
   6   4  10    0.15    0.05
   6   4  10    0.14    0.06
   6   4  10    0.13    0.06
   6   4  10    0.07    0.09
  -7  -4 -10    0.07    0.09
   7   4  10    0.25    0.06
   7   4  10    0.14    0.07
   7   4  10    0.20    0.06
   7   4  10    0.06    0.10
  -8  -4 -10    0.06    0.10
   8   4  10   -0.05    0.06
   8   4  10   -0.04    0.06
   8   4  10    0.07    0.10
   8   4  10    0.00    0.06
  -9  -4 -10    0.66    0.08
  -9  -4 -10    0.70    0.13
   9   4  10    0.77    0.09
   9   4  10    0.62    0.08
   9   4  10    0.66    0.10
   5  -5 -10    0.02    0.06
  -5   5  10    0.04    0.07
   4  -5 -10    0.63    0.09
  -4   5  10    0.53    0.10
   3  -5 -10   -0.01    0.06
  -3   5  10   -0.01    0.03
  -3   5  10   -0.01    0.07
   2  -5 -10    0.87    0.09
   2  -5 -10    0.97    0.12
  -2   5  10    0.89    0.07
  -2   5  10    0.76    0.11
   1  -5 -10    0.08    0.08
   1  -5 -10    0.01    0.06
  -1   5  10    0.06    0.04
  -1   5  10    0.01    0.07
  -1   5  10    0.01    0.03
   0  -5 -10    0.35    0.06
   0  -5 -10    0.27    0.07
   0  -5 -10    0.37    0.10
   0   5  10    0.41    0.05
   0   5  10    0.34    0.09
   0   5  10    0.39    0.04
   0   5  10    0.30    0.05
  -1  -5 -10    0.94    0.09
  -1  -5 -10    0.89    0.12
  -1  -5 -10    1.05    0.09
   1   5  10    1.10    0.08
   1   5  10    1.09    0.13
   1   5  10    0.95    0.07
   1   5  10    1.00    0.08
  -2  -5 -10    1.41    0.12
  -2  -5 -10    1.44    0.17
  -2  -5 -10    1.53    0.09
   2   5  10    1.44    0.09
   2   5  10    1.63    0.17
   2   5  10    1.51    0.09
   2   5  10    1.40    0.11
  -3  -5 -10    0.53    0.10
  -3  -5 -10    0.53    0.07
  -3  -5 -10    0.64    0.06
   3   5  10    0.43    0.05
   3   5  10    0.51    0.10
   3   5  10    0.59    0.07
  -4  -5 -10    2.94    0.15
  -4  -5 -10    3.09    0.22
   4   5  10    2.77    0.22
   4   5  10    3.00    0.14
   4   5  10    2.87    0.16
  -5  -5 -10    1.14    0.09
  -5  -5 -10    1.05    0.14
   5   5  10    1.32    0.12
   5   5  10    1.15    0.14
   5   5  10    1.17    0.10
  -6  -5 -10    1.95    0.13
  -6  -5 -10    2.06    0.19
   6   5  10    2.07    0.19
   6   5  10    2.20    0.13
   6   5  10    1.69    0.14
  -7  -5 -10    3.40    0.14
  -7  -5 -10    2.86    0.24
   7   5  10    3.31    0.25
   7   5  10    3.22    0.16
   7   5  10    3.09    0.17
  -8  -5 -10    0.70    0.12
   8   5  10    0.69    0.09
   8   5  10    0.74    0.14
   8   5  10    0.58    0.09
  -9  -5 -10    0.95    0.13
   9   5  10    0.78    0.10
   9   5  10    1.00    0.10
   4  -6 -10    1.94    0.16
  -4   6  10    1.72    0.17
   3  -6 -10    0.27    0.07
  -3   6  10    0.29    0.09
  -3   6  10    0.27    0.05
   2  -6 -10    0.10    0.06
  -2   6  10    0.08    0.09
  -2   6  10    0.14    0.04
   1  -6 -10    0.75    0.09
   1  -6 -10    0.90    0.13
  -1   6  10    0.72    0.12
  -1   6  10    0.71    0.06
   0  -6 -10    4.58    0.28
   0  -6 -10    4.67    0.21
   0   6  10    4.35    0.28
   0   6  10    4.57    0.17
   0   6  10    4.53    0.16
  -1  -6 -10    3.48    0.24
  -1  -6 -10    3.53    0.18
   1   6  10    3.72    0.25
   1   6  10    3.47    0.14
   1   6  10    3.84    0.15
   1   6  10    3.74    0.17
   1   6  10    3.76    0.14
  -2  -6 -10    0.72    0.08
  -2  -6 -10    0.76    0.06
  -2  -6 -10    0.89    0.12
   2   6  10    0.85    0.12
   2   6  10    0.84    0.07
   2   6  10    0.78    0.08
   2   6  10    0.85    0.06
   2   6  10    0.76    0.06
  -3  -6 -10    0.02    0.03
  -3  -6 -10    0.01    0.08
  -3  -6 -10    0.02    0.05
   3   6  10   -0.06    0.05
   3   6  10    0.00    0.08
   3   6  10    0.05    0.04
  -4  -6 -10    1.76    0.13
  -4  -6 -10    1.89    0.19
   4   6  10    1.76    0.11
   4   6  10    1.82    0.13
   4   6  10    1.87    0.19
  -5  -6 -10    1.91    0.13
  -5  -6 -10    1.78    0.19
   5   6  10    1.90    0.19
   5   6  10    1.79    0.12
   5   6  10    1.73    0.14
  -6  -6 -10    0.19    0.10
  -6  -6 -10    0.20    0.06
   6   6  10    0.17    0.07
   6   6  10    0.35    0.11
   6   6  10    0.31    0.06
  -7  -6 -10    0.79    0.07
  -7  -6 -10    0.62    0.12
  -7  -6 -10    0.73    0.08
   7   6  10    0.54    0.09
   7   6  10    0.96    0.14
   7   6  10    0.75    0.08
  -8  -6 -10    0.61    0.12
   8   6  10    0.50    0.08
   8   6  10    0.69    0.13
   8   6  10    0.68    0.09
  -9  -6 -10   -0.02    0.09
   9   6  10    0.14    0.07
   9   6  10    0.08    0.07
   3  -7 -10    0.17    0.07
  -3   7  10    0.18    0.05
  -3   7  10    0.25    0.10
   2  -7 -10    0.80    0.10
  -2   7  10    0.76    0.12
  -2   7  10    0.90    0.07
   1  -7 -10    2.67    0.21
   1  -7 -10    2.81    0.17
  -1   7  10    2.53    0.21
  -1   7  10    2.63    0.12
   0  -7 -10    0.21    0.10
   0  -7 -10    0.30    0.07
   0   7  10    0.36    0.05
   0   7  10    0.20    0.10
  -1  -7 -10    0.15    0.06
  -1  -7 -10    0.08    0.09
   1   7  10    0.16    0.04
   1   7  10    0.22    0.05
   1   7  10    0.16    0.05
   1   7  10    0.22    0.10
  -2  -7 -10    0.67    0.08
  -2  -7 -10    0.65    0.12
   2   7  10    0.49    0.11
   2   7  10    0.61    0.08
   2   7  10    0.65    0.06
   2   7  10    0.63    0.06
  -3  -7 -10    2.75    0.22
  -3  -7 -10    2.48    0.15
  -3  -7 -10    2.53    0.12
   3   7  10    2.59    0.15
   3   7  10    2.73    0.12
   3   7  10    2.72    0.22
   3   7  10    2.49    0.13
  -4  -7 -10    1.40    0.13
  -4  -7 -10    1.51    0.18
   4   7  10    1.56    0.18
   4   7  10    1.51    0.11
   4   7  10    1.32    0.13
  -5  -7 -10    0.95    0.09
  -5  -7 -10    1.02    0.14
   5   7  10    0.78    0.13
   5   7  10    0.90    0.08
   5   7  10    0.96    0.10
  -6  -7 -10    1.82    0.13
  -6  -7 -10    2.10    0.21
   6   7  10    1.82    0.15
   6   7  10    2.03    0.13
   6   7  10    1.61    0.20
  -7  -7 -10    4.18    0.27
  -7  -7 -10    3.81    0.18
   7   7  10    3.68    0.18
   7   7  10    3.77    0.20
   7   7  10    3.65    0.27
  -8  -7 -10    0.36    0.11
  -8  -7 -10    0.53    0.07
   8   7  10    0.35    0.08
   8   7  10    0.47    0.09
   8   7  10    0.32    0.12
  -9  -7 -10    0.25    0.10
   9   7  10    0.37    0.09
   9   7  10    0.43    0.08
   2  -8 -10    9.03    0.34
  -2   8  10    8.04    0.28
  -2   8  10    7.86    0.44
   1  -8 -10    0.05    0.07
   1  -8 -10    0.16    0.10
  -1   8  10    0.08    0.09
  -1   8  10    0.22    0.05
   0  -8 -10    0.65    0.13
   0  -8 -10    0.60    0.09
   0   8  10    0.67    0.06
   0   8  10    0.46    0.12
  -1  -8 -10    0.18    0.07
  -1  -8 -10    0.16    0.10
   1   8  10    0.09    0.05
   1   8  10    0.12    0.04
   1   8  10    0.12    0.05
   1   8  10    0.15    0.10
  -2  -8 -10    1.44    0.18
  -2  -8 -10    1.31    0.11
   2   8  10    1.53    0.18
   2   8  10    1.26    0.09
   2   8  10    1.28    0.10
   2   8  10    1.27    0.11
  -3  -8 -10    0.41    0.11
  -3  -8 -10    0.48    0.08
   3   8  10    0.43    0.06
   3   8  10    0.29    0.06
   3   8  10    0.36    0.11
   3   8  10    0.50    0.07
  -4  -8 -10    1.69    0.14
  -4  -8 -10    1.96    0.20
   4   8  10    1.70    0.19
   4   8  10    1.69    0.11
   4   8  10    1.71    0.12
   4   8  10    1.59    0.13
  -5  -8 -10    1.50    0.13
  -5  -8 -10    1.74    0.20
   5   8  10    1.50    0.14
   5   8  10    1.29    0.16
   5   8  10    1.51    0.12
  -6  -8 -10    1.47    0.13
  -6  -8 -10    1.24    0.16
   6   8  10    1.32    0.16
   6   8  10    1.19    0.11
   6   8  10    1.20    0.10
  -7  -8 -10    0.18    0.06
  -7  -8 -10    0.27    0.12
   7   8  10    0.25    0.12
   7   8  10    0.27    0.07
   7   8  10    0.24    0.08
  -8  -8 -10    1.11    0.09
  -8  -8 -10    1.05    0.09
  -8  -8 -10    1.01    0.15
   8   8  10    0.97    0.10
   8   8  10    0.84    0.11
   1  -9 -10    0.21    0.08
  -1   9  10    0.09    0.11
   0  -9 -10    5.79    0.26
   0  -9 -10    6.15    0.35
   0   9  10    5.71    0.35
   0   9  10    5.36    0.21
  -1  -9 -10    0.15    0.07
  -1  -9 -10    0.07    0.09
   1   9  10    0.17    0.10
   1   9  10    0.04    0.04
   1   9  10    0.08    0.05
  -2  -9 -10    0.01    0.09
  -2  -9 -10    0.11    0.06
   2   9  10   -0.02    0.05
   2   9  10    0.05    0.05
   2   9  10   -0.05    0.09
   2   9  10    0.03    0.04
  -3  -9 -10   -0.02    0.06
  -3  -9 -10   -0.05    0.09
   3   9  10    0.06    0.10
   3   9  10   -0.04    0.04
   3   9  10   -0.05    0.05
   3   9  10    0.05    0.06
  -4  -9 -10    1.10    0.16
  -4  -9 -10    1.11    0.10
   4   9  10    1.00    0.10
   4   9  10    0.97    0.15
   4   9  10    1.01    0.09
   4   9  10    1.13    0.09
  -5  -9 -10    2.70    0.24
  -5  -9 -10    2.29    0.15
   5   9  10    2.61    0.14
   5   9  10    2.20    0.14
   5   9  10    2.71    0.17
   5   9  10    2.65    0.24
  -6  -9 -10    1.69    0.20
  -6  -9 -10    1.80    0.14
   6   9  10    1.40    0.12
   6   9  10    1.78    0.21
   6   9  10    1.66    0.13
  -7  -9 -10    0.84    0.15
  -7  -9 -10    1.04    0.09
   7   9  10    0.91    0.11
   7   9  10    0.82    0.09
   7   9  10    0.90    0.16
   8   9  10    0.14    0.07
   8   9  10    0.09    0.08
  -1 -10 -10   -0.09    0.10
  -1 -10 -10    0.08    0.07
   1  10  10   -0.06    0.05
   1  10  10    0.03    0.11
  -2 -10 -10    0.07    0.07
  -2 -10 -10    0.06    0.10
   2  10  10    0.21    0.11
   2  10  10    0.04    0.06
  -3 -10 -10    0.13    0.11
  -3 -10 -10    0.11    0.07
   3  10  10    0.21    0.06
   3  10  10    0.25    0.11
   3  10  10    0.12    0.06
  -4 -10 -10    0.05    0.10
  -4 -10 -10    0.11    0.07
   4  10  10    0.02    0.10
   4  10  10    0.05    0.06
   4  10  10    0.16    0.06
  -5 -10 -10    1.48    0.13
  -5 -10 -10    1.20    0.17
   5  10  10    1.28    0.17
   5  10  10    1.21    0.10
   5  10  10    1.22    0.12
  -6 -10 -10    1.24    0.16
  -6 -10 -10    1.27    0.11
   6  10  10    1.22    0.17
   6  10  10    1.14    0.10
   6  10  10    1.19    0.12
  -7 -10 -10    0.54    0.08
   7  10  10    0.52    0.09
   7  10  10    0.49    0.09
   7  10  10    0.51    0.14
   3   4 -11    2.59    0.18
   3   4 -11    2.37    0.15
  -3  -4  11    2.57    0.17
  -3  -4  11    2.51    0.16
  -3  -4  11    2.33    0.20
   2   4 -11    0.43    0.08
  -2  -4  11    0.31    0.08
  -2  -4  11    0.36    0.11
  -2  -4  11    0.34    0.08
   1   4 -11    2.37    0.21
   1   4 -11    2.38    0.15
  -1  -4  11    2.50    0.17
  -1  -4  11    2.44    0.22
   0   4 -11   -0.05    0.06
   0   4 -11    0.00    0.09
   0  -4  11   -0.01    0.07
   0  -4  11   -0.12    0.09
  -1   4 -11    0.08    0.09
  -1   4 -11    0.04    0.06
   1  -4  11    0.03    0.07
   1  -4  11    0.06    0.10
  -2   4 -11    4.87    0.23
  -2   4 -11    5.00    0.34
   2  -4  11    5.25    0.27
   2  -4  11    5.01    0.34
   5   3 -11    0.11    0.08
  -5  -3  11    0.11    0.07
   4   3 -11    0.52    0.07
   4   3 -11    0.60    0.09
  -4  -3  11    0.46    0.08
  -4  -3  11    0.53    0.10
  -4  -3  11    0.53    0.08
   3   3 -11    2.46    0.14
   3   3 -11    2.22    0.16
  -3  -3  11    2.40    0.16
  -3  -3  11    2.29    0.20
  -3  -3  11    2.47    0.15
   2   3 -11    0.46    0.08
   2   3 -11    0.61    0.08
  -2  -3  11    0.48    0.11
  -2  -3  11    0.56    0.08
  -2  -3  11    0.42    0.08
   1   3 -11    3.00    0.23
   1   3 -11    3.17    0.16
  -1  -3  11    2.89    0.23
  -1  -3  11    3.41    0.18
   0   3 -11    0.16    0.06
   0   3 -11    0.10    0.09
   0  -3  11   -0.06    0.06
   0  -3  11    0.15    0.10
  -1   3 -11   -0.08    0.06
  -1   3 -11    0.03    0.09
   1  -3  11   -0.07    0.06
   1  -3  11   -0.01    0.09
  -2   3 -11    0.28    0.07
  -2   3 -11    0.17    0.10
   2  -3  11    0.10    0.11
   2  -3  11    0.14    0.07
  -3   3 -11    4.45    0.22
  -3   3 -11    4.36    0.30
   3  -3  11    4.72    0.31
   3  -3  11    4.53    0.23
  -4   3 -11    0.82    0.15
   5   2 -11    0.16    0.08
  -5  -2  11    0.15    0.07
  -5  -2  11    0.19    0.07
   4   2 -11    4.31    0.19
   4   2 -11    4.48    0.23
  -4  -2  11    4.77    0.22
  -4  -2  11    4.40    0.27
  -4  -2  11    4.68    0.20
   3   2 -11    0.27    0.06
   3   2 -11    0.18    0.07
  -3  -2  11    0.26    0.09
  -3  -2  11    0.19    0.06
  -3  -2  11    0.11    0.06
   2   2 -11    0.57    0.08
   2   2 -11    0.67    0.08
   2   2 -11    0.72    0.11
  -2  -2  11    0.86    0.09
  -2  -2  11    0.68    0.11
  -2  -2  11    0.73    0.09
   1   2 -11    0.12    0.06
   1   2 -11    0.14    0.06
   1   2 -11    0.28    0.09
  -1  -2  11    0.19    0.09
  -1  -2  11    0.21    0.06
   0   2 -11   -0.02    0.06
   0   2 -11   -0.06    0.08
   0  -2  11   -0.10    0.05
   0  -2  11   -0.03    0.09
  -1   2 -11    0.08    0.09
  -1   2 -11    0.03    0.06
   1  -2  11    0.02    0.06
   1  -2  11    0.08    0.10
  -2   2 -11    1.77    0.19
  -2   2 -11    2.01    0.14
   2  -2  11    1.44    0.12
   2  -2  11    1.78    0.20
  -3   2 -11    0.58    0.13
  -3   2 -11    0.46    0.08
   3  -2  11    0.79    0.14
   3  -2  11    0.51    0.08
  -4   2 -11    0.28    0.08
  -4   2 -11    0.22    0.11
   4  -2  11    0.23    0.12
   4  -2  11    0.32    0.08
  -5   2 -11    3.60    0.29
  -5   2 -11    3.81    0.20
   5  -2  11    3.59    0.21
   5  -2  11    3.57    0.27
   5   1 -11    2.88    0.19
   5   1 -11    2.55    0.16
  -5  -1  11    2.48    0.19
  -5  -1  11    2.51    0.17
   4   1 -11    5.78    0.24
   4   1 -11    5.15    0.21
   4   1 -11    5.21    0.25
  -4  -1  11    5.39    0.22
  -4  -1  11    5.29    0.24
  -4  -1  11    5.05    0.29
   3   1 -11    4.80    0.21
   3   1 -11    4.17    0.21
   3   1 -11    4.21    0.19
  -3  -1  11    4.31    0.27
  -3  -1  11    4.65    0.20
  -3  -1  11    4.73    0.21
   2   1 -11    0.70    0.08
   2   1 -11    0.64    0.07
   2   1 -11    0.70    0.08
   2   1 -11    0.65    0.10
  -2  -1  11    0.56    0.07
  -2  -1  11    0.66    0.11
  -2  -1  11    0.51    0.08
   1   1 -11    0.02    0.05
   1   1 -11    0.19    0.08
   1   1 -11    0.01    0.06
  -1  -1  11    0.04    0.06
  -1  -1  11    0.05    0.08
   0   1 -11    0.09    0.05
   0   1 -11    0.10    0.08
   0   1 -11    0.05    0.06
   0  -1  11    0.07    0.06
   0  -1  11   -0.08    0.08
  -1   1 -11    5.35    0.31
  -1   1 -11    5.57    0.23
   1  -1  11    5.65    0.32
   1  -1  11    5.24    0.23
  -2   1 -11    0.83    0.09
  -2   1 -11    0.77    0.12
   2  -1  11    0.76    0.13
   2  -1  11    0.75    0.09
  -3   1 -11    2.10    0.20
  -3   1 -11    2.49    0.15
   3  -1  11    2.51    0.16
   3  -1  11    2.16    0.21
  -4   1 -11    0.34    0.07
  -4   1 -11    0.32    0.11
   4  -1  11    0.29    0.05
   4  -1  11    0.33    0.11
   4  -1  11    0.20    0.07
  -5   1 -11    8.07    0.31
  -5   1 -11    8.31    0.44
   5  -1  11    7.88    0.28
   5  -1  11    8.07    0.44
   5  -1  11    8.38    0.32
  -6   1 -11    0.23    0.08
   6  -1  11    0.17    0.07
   6  -1  11    0.20    0.08
   6  -1  11    0.27    0.12
   6   0 -11    3.80    0.22
   5   0 -11    2.14    0.16
   5   0 -11    2.47    0.18
  -5   0  11    2.05    0.18
  -5   0  11    2.44    0.16
   4   0 -11    6.65    0.28
   4   0 -11    6.21    0.23
   4   0 -11    6.28    0.26
  -4   0  11    6.09    0.24
  -4   0  11    6.22    0.33
  -4   0  11    6.33    0.26
   3   0 -11    2.70    0.17
   3   0 -11    2.91    0.17
   3   0 -11    2.68    0.15
  -3   0  11    2.75    0.16
  -3   0  11    2.72    0.15
  -3   0  11    2.99    0.21
   2   0 -11    0.08    0.06
   2   0 -11    0.12    0.08
   2   0 -11    0.13    0.06
   2   0 -11    0.16    0.06
  -2   0  11    0.04    0.08
  -2   0  11    0.03    0.05
  -2   0  11    0.04    0.05
   1   0 -11    0.18    0.07
   1   0 -11    0.29    0.09
   1   0 -11    0.15    0.06
   1   0 -11    0.15    0.06
  -1   0  11    0.17    0.09
  -1   0  11    0.11    0.06
  -1   0  11    0.22    0.06
   0   0 -11    0.08    0.08
   0   0 -11    0.04    0.05
   0   0 -11    0.13    0.06
   0   0 -11    0.05    0.06
   0   0  11    0.00    0.08
   0   0  11   -0.01    0.05
  -1   0 -11   -0.02    0.04
  -1   0 -11    0.04    0.06
  -1   0 -11    0.06    0.09
   1   0  11   -0.02    0.05
   1   0  11    0.13    0.09
  -2   0 -11    0.27    0.07
  -2   0 -11    0.03    0.09
   2   0  11    0.13    0.09
   2   0  11    0.23    0.07
  -3   0 -11    2.49    0.21
  -3   0 -11    2.73    0.15
   3   0  11    2.37    0.21
   3   0  11    2.63    0.16
   3   0  11    2.36    0.11
  -4   0 -11    0.02    0.06
  -4   0 -11    0.02    0.09
   4   0  11    0.04    0.04
   4   0  11   -0.07    0.09
   4   0  11   -0.01    0.06
  -5   0 -11    1.45    0.12
  -5   0 -11    1.51    0.19
   5   0  11    1.73    0.15
   5   0  11    1.89    0.12
   5   0  11    1.47    0.18
  -6   0 -11    0.13    0.07
  -6   0 -11   -0.03    0.10
   6   0  11    0.15    0.12
   6   0  11    0.02    0.06
   6   0  11    0.13    0.07
   5  -1 -11    0.11    0.07
   5  -1 -11    0.11    0.07
  -5   1  11    0.02    0.07
  -5   1  11    0.13    0.06
   4  -1 -11    0.40    0.08
   4  -1 -11    0.38    0.06
   4  -1 -11    0.36    0.08
  -4   1  11    0.35    0.07
  -4   1  11    0.29    0.09
   3  -1 -11    1.79    0.14
   3  -1 -11    1.71    0.14
   3  -1 -11    1.55    0.12
  -3   1  11    1.92    0.13
  -3   1  11    1.56    0.16
  -3   1  11    1.63    0.13
   2  -1 -11    5.05    0.22
   2  -1 -11    5.36    0.21
   2  -1 -11    4.87    0.29
   2  -1 -11    5.14    0.22
  -2   1  11    5.14    0.21
  -2   1  11    5.25    0.29
  -2   1  11    4.74    0.21
   1  -1 -11    8.83    0.44
   1  -1 -11    9.16    0.33
   1  -1 -11    9.42    0.33
   1  -1 -11    9.21    0.32
  -1   1  11    9.26    0.32
  -1   1  11    8.71    0.44
  -1   1  11    8.71    0.32
   0  -1 -11    1.14    0.09
   0  -1 -11    1.10    0.09
   0  -1 -11    1.01    0.13
   0  -1 -11    1.07    0.10
   0   1  11    0.95    0.09
   0   1  11    0.98    0.13
  -1  -1 -11    3.82    0.19
  -1  -1 -11    3.86    0.18
  -1  -1 -11    3.83    0.25
  -1  -1 -11    3.67    0.16
   1   1  11    3.39    0.24
   1   1  11    4.02    0.18
   1   1  11    3.52    0.13
  -2  -1 -11    1.25    0.10
  -2  -1 -11    1.28    0.10
  -2  -1 -11    1.41    0.17
   2   1  11    1.06    0.10
   2   1  11    0.86    0.13
   2   1  11    1.31    0.07
  -3  -1 -11    0.45    0.07
  -3  -1 -11    0.45    0.11
   3   1  11    0.49    0.11
   3   1  11    0.46    0.05
   3   1  11    0.52    0.08
  -4  -1 -11    0.28    0.07
  -4  -1 -11    0.33    0.10
   4   1  11    0.27    0.07
   4   1  11    0.35    0.05
   4   1  11    0.43    0.11
  -5  -1 -11    0.11    0.09
  -5  -1 -11    0.23    0.07
   5   1  11    0.17    0.05
   5   1  11   -0.01    0.06
   5   1  11    0.11    0.11
  -6  -1 -11    0.30    0.11
  -6  -1 -11    0.38    0.08
   6   1  11    0.29    0.12
   6   1  11    0.26    0.06
   6   1  11    0.39    0.08
  -7  -1 -11    3.57    0.20
  -7  -1 -11    3.47    0.26
   7   1  11    3.61    0.28
   7   1  11    3.60    0.18
   7   1  11    3.62    0.20
   5  -2 -11    0.13    0.07
   5  -2 -11    0.07    0.07
  -5   2  11    0.03    0.07
   4  -2 -11    0.01    0.05
   4  -2 -11    0.11    0.07
   4  -2 -11    0.13    0.07
  -4   2  11    0.14    0.06
  -4   2  11    0.13    0.08
   3  -2 -11    0.64    0.08
   3  -2 -11    0.40    0.07
  -3   2  11    0.42    0.07
  -3   2  11    0.51    0.10
   2  -2 -11    4.76    0.22
   2  -2 -11    4.96    0.21
   2  -2 -11    4.92    0.28
  -2   2  11    4.50    0.28
  -2   2  11    4.47    0.20
  -2   2  11    4.53    0.20
   1  -2 -11    0.03    0.08
   1  -2 -11    0.14    0.06
   1  -2 -11    0.10    0.06
  -1   2  11    0.17    0.06
  -1   2  11    0.02    0.05
  -1   2  11    0.05    0.09
   0  -2 -11   11.52    0.40
   0  -2 -11   11.44    0.39
   0  -2 -11   12.29    0.55
   0   2  11   11.73    0.38
   0   2  11   11.20    0.32
   0   2  11   10.88    0.33
   0   2  11   11.30    0.38
   0   2  11   11.04    0.54
  -1  -2 -11    1.08    0.14
  -1  -2 -11    1.19    0.10
  -1  -2 -11    1.12    0.10
   1   2  11    0.98    0.09
   1   2  11    1.10    0.06
   1   2  11    0.95    0.13
  -2  -2 -11    3.39    0.15
  -2  -2 -11    3.50    0.24
  -2  -2 -11    3.78    0.19
   2   2  11    3.11    0.23
   2   2  11    3.32    0.13
   2   2  11    3.81    0.18
  -3  -2 -11    0.14    0.06
  -3  -2 -11    0.14    0.09
   3   2  11    0.15    0.04
   3   2  11    0.09    0.06
   3   2  11    0.23    0.10
  -4  -2 -11    1.34    0.15
  -4  -2 -11    1.41    0.13
   4   2  11    1.27    0.10
   4   2  11    1.42    0.09
   4   2  11    1.55    0.18
  -5  -2 -11    2.80    0.22
  -5  -2 -11    2.44    0.15
   5   2  11    2.65    0.13
   5   2  11    2.68    0.16
   5   2  11    3.00    0.23
  -6  -2 -11    0.03    0.09
  -6  -2 -11    0.12    0.07
   6   2  11    0.11    0.11
   6   2  11    0.05    0.06
   6   2  11    0.10    0.05
  -7  -2 -11    2.32    0.16
  -7  -2 -11    2.55    0.24
   7   2  11    2.78    0.17
   7   2  11    2.73    0.16
   7   2  11    2.29    0.24
  -8  -2 -11    1.24    0.11
   5  -3 -11    0.05    0.07
   5  -3 -11   -0.07    0.07
  -5   3  11    0.00    0.07
   4  -3 -11    0.98    0.10
   4  -3 -11    0.97    0.10
  -4   3  11    0.93    0.09
  -4   3  11    0.98    0.12
   3  -3 -11    0.70    0.09
   3  -3 -11    0.76    0.09
  -3   3  11    0.67    0.08
  -3   3  11    0.76    0.11
   2  -3 -11    0.49    0.10
   2  -3 -11    0.51    0.07
   2  -3 -11    0.47    0.08
  -2   3  11    0.47    0.06
  -2   3  11    0.31    0.10
   1  -3 -11    0.40    0.10
   1  -3 -11    0.36    0.07
   1  -3 -11    0.44    0.07
  -1   3  11    0.40    0.10
  -1   3  11    0.45    0.06
   0  -3 -11    1.69    0.11
   0  -3 -11    1.26    0.11
   0  -3 -11    1.46    0.17
   0   3  11    1.39    0.08
   0   3  11    1.09    0.14
   0   3  11    1.54    0.11
   0   3  11    1.41    0.12
   0   3  11    1.58    0.07
  -1  -3 -11    0.50    0.11
  -1  -3 -11    0.69    0.06
  -1  -3 -11    0.57    0.08
   1   3  11    0.69    0.06
   1   3  11    0.54    0.11
   1   3  11    0.44    0.07
   1   3  11    0.52    0.05
  -2  -3 -11    0.13    0.06
  -2  -3 -11    0.10    0.04
  -2  -3 -11    0.19    0.09
   2   3  11    0.11    0.04
   2   3  11    0.16    0.06
   2   3  11    0.06    0.09
  -3  -3 -11    0.45    0.11
  -3  -3 -11    0.35    0.07
  -3  -3 -11    0.37    0.04
   3   3  11    0.34    0.07
   3   3  11    0.30    0.11
   3   3  11    0.39    0.05
  -4  -3 -11    3.12    0.24
  -4  -3 -11    3.16    0.17
   4   3  11    3.31    0.24
   4   3  11    3.28    0.14
   4   3  11    3.25    0.17
  -5  -3 -11    0.07    0.09
   5   3  11    0.00    0.06
   5   3  11    0.08    0.09
   5   3  11    0.08    0.06
   5   3  11    0.00    0.04
  -6  -3 -11   -0.04    0.06
  -6  -3 -11    0.05    0.09
   6   3  11    0.11    0.07
   6   3  11   -0.06    0.05
   6   3  11    0.07    0.06
   6   3  11    0.04    0.09
  -7  -3 -11   -0.09    0.09
  -7  -3 -11   -0.13    0.06
   7   3  11   -0.06    0.10
   7   3  11    0.10    0.07
   7   3  11   -0.01    0.05
   7   3  11    0.05    0.06
  -8  -3 -11    0.41    0.12
  -8  -3 -11    0.62    0.09
   8   3  11    0.63    0.09
   8   3  11    0.39    0.08
   8   3  11    0.61    0.09
   5  -4 -11    0.13    0.07
   5  -4 -11    0.21    0.08
   4  -4 -11    0.64    0.09
   4  -4 -11    0.83    0.10
  -4   4  11    0.61    0.11
   3  -4 -11    0.78    0.09
   3  -4 -11    0.76    0.09
  -3   4  11    0.85    0.12
   2  -4 -11    0.72    0.08
   2  -4 -11    0.70    0.09
  -2   4  11    0.82    0.12
  -2   4  11    0.79    0.07
   1  -4 -11    1.67    0.12
   1  -4 -11    1.44    0.17
   1  -4 -11    1.43    0.13
  -1   4  11    1.69    0.08
  -1   4  11    1.65    0.18
  -1   4  11    1.67    0.11
   0  -4 -11    0.35    0.07
   0  -4 -11    0.31    0.10
   0  -4 -11    0.41    0.06
   0   4  11    0.32    0.04
   0   4  11    0.43    0.04
   0   4  11    0.30    0.10
   0   4  11    0.35    0.05
  -1  -4 -11    0.01    0.08
  -1  -4 -11    0.16    0.05
  -1  -4 -11    0.12    0.06
   1   4  11    0.06    0.09
   1   4  11    0.11    0.03
   1   4  11    0.13    0.04
   1   4  11    0.14    0.03
  -2  -4 -11    5.27    0.31
  -2  -4 -11    5.34    0.20
  -2  -4 -11    5.39    0.23
   2   4  11    5.26    0.19
   2   4  11    5.11    0.31
   2   4  11    5.29    0.22
  -3  -4 -11    0.23    0.07
  -3  -4 -11    0.31    0.04
  -3  -4 -11    0.35    0.10
   3   4  11    0.33    0.07
   3   4  11    0.27    0.05
   3   4  11    0.19    0.10
  -4  -4 -11    0.84    0.13
  -4  -4 -11    0.56    0.08
   4   4  11    0.67    0.08
   4   4  11    0.65    0.08
   4   4  11    0.76    0.07
   4   4  11    0.92    0.14
  -5  -4 -11    2.88    0.17
  -5  -4 -11    3.20    0.24
   5   4  11    3.34    0.24
   5   4  11    2.96    0.14
   5   4  11    3.19    0.17
   5   4  11    2.87    0.17
  -6  -4 -11    0.56    0.12
   6   4  11    0.62    0.13
   6   4  11    0.61    0.09
   6   4  11    0.59    0.08
   6   4  11    0.61    0.07
  -7  -4 -11    0.06    0.09
   7   4  11   -0.04    0.06
   7   4  11    0.02    0.07
   7   4  11   -0.09    0.09
   7   4  11    0.03    0.06
  -8  -4 -11    0.43    0.12
  -8  -4 -11    0.45    0.09
   8   4  11    0.53    0.08
   8   4  11    0.38    0.09
   8   4  11    0.37    0.08
   4  -5 -11   -0.05    0.07
   4  -5 -11    0.11    0.07
  -4   5  11    0.10    0.08
   3  -5 -11    0.32    0.08
   3  -5 -11    0.30    0.08
  -3   5  11    0.33    0.10
   2  -5 -11   -0.02    0.06
   2  -5 -11    0.01    0.06
  -2   5  11    0.01    0.08
   1  -5 -11    2.11    0.15
   1  -5 -11    2.10    0.14
   1  -5 -11    2.16    0.20
  -1   5  11    2.35    0.20
  -1   5  11    2.03    0.10
  -1   5  11    2.12    0.12
   0  -5 -11    1.09    0.10
   0  -5 -11    1.18    0.11
   0  -5 -11    1.13    0.14
   0   5  11    1.47    0.09
   0   5  11    1.08    0.14
   0   5  11    1.24    0.08
  -1  -5 -11    2.09    0.12
  -1  -5 -11    1.99    0.15
  -1  -5 -11    2.27    0.20
   1   5  11    2.16    0.20
   1   5  11    2.15    0.11
   1   5  11    2.24    0.11
   1   5  11    2.18    0.10
  -2  -5 -11    0.25    0.10
  -2  -5 -11    0.15    0.07
  -2  -5 -11    0.18    0.04
   2   5  11    0.20    0.04
   2   5  11    0.15    0.04
   2   5  11    0.19    0.10
   2   5  11    0.18    0.04
  -3  -5 -11    2.24    0.15
  -3  -5 -11    2.11    0.11
  -3  -5 -11    2.40    0.20
   3   5  11    2.14    0.11
   3   5  11    2.18    0.15
   3   5  11    2.25    0.21
  -4  -5 -11   -0.01    0.09
  -4  -5 -11    0.13    0.06
   4   5  11    0.10    0.10
   4   5  11    0.09    0.05
   4   5  11    0.19    0.06
  -5  -5 -11    0.35    0.11
  -5  -5 -11    0.36    0.07
   5   5  11    0.34    0.06
   5   5  11    0.42    0.11
   5   5  11    0.37    0.07
  -6  -5 -11    0.30    0.07
  -6  -5 -11    0.19    0.10
   6   5  11    0.28    0.11
   6   5  11    0.31    0.06
   6   5  11    0.18    0.07
  -7  -5 -11    0.33    0.12
   7   5  11    0.29    0.07
   7   5  11    0.40    0.12
   7   5  11    0.27    0.07
  -8  -5 -11    0.05    0.11
   8   5  11    0.11    0.06
   8   5  11    0.08    0.07
   3  -6 -11    0.55    0.09
  -3   6  11    0.44    0.11
   2  -6 -11    0.04    0.07
  -2   6  11    0.05    0.09
   1  -6 -11    2.01    0.15
   1  -6 -11    1.87    0.20
  -1   6  11    1.80    0.10
  -1   6  11    1.77    0.20
   0  -6 -11    5.33    0.32
   0  -6 -11    5.34    0.22
   0  -6 -11    5.68    0.24
   0   6  11    5.47    0.32
   0   6  11    4.93    0.18
  -1  -6 -11    2.40    0.14
  -1  -6 -11    2.55    0.16
  -1  -6 -11    2.76    0.22
   1   6  11    2.55    0.12
   1   6  11    2.35    0.22
   1   6  11    2.26    0.11
  -2  -6 -11    2.57    0.22
  -2  -6 -11    2.72    0.13
  -2  -6 -11    2.62    0.16
   2   6  11    2.75    0.15
   2   6  11    2.66    0.12
   2   6  11    2.41    0.22
   2   6  11    2.78    0.13
   2   6  11    2.53    0.12
  -3  -6 -11    0.18    0.07
  -3  -6 -11    0.27    0.11
   3   6  11    0.17    0.05
   3   6  11    0.30    0.11
   3   6  11    0.12    0.06
   3   6  11    0.14    0.05
  -4  -6 -11    0.88    0.09
  -4  -6 -11    0.83    0.13
   4   6  11    0.95    0.14
   4   6  11    0.65    0.09
   4   6  11    0.73    0.07
  -5  -6 -11    0.47    0.12
  -5  -6 -11    0.39    0.07
   5   6  11    0.28    0.12
   5   6  11    0.31    0.08
   5   6  11    0.41    0.07
  -6  -6 -11    2.99    0.17
  -6  -6 -11    3.02    0.24
   6   6  11    3.29    0.19
   6   6  11    3.00    0.25
   6   6  11    3.09    0.16
  -7  -6 -11    2.09    0.21
  -7  -6 -11    2.20    0.15
   7   6  11    2.21    0.16
   7   6  11    1.98    0.14
   7   6  11    2.22    0.22
  -8  -6 -11    0.43    0.12
   8   6  11    0.61    0.10
   8   6  11    0.52    0.08
   2  -7 -11    1.32    0.12
  -2   7  11    1.16    0.15
  -2   7  11    1.31    0.09
   1  -7 -11    0.47    0.09
  -1   7  11    0.31    0.11
  -1   7  11    0.34    0.05
   0  -7 -11    3.16    0.25
   0  -7 -11    2.91    0.18
   0   7  11    3.03    0.24
   0   7  11    2.65    0.13
  -1  -7 -11    4.13    0.21
  -1  -7 -11    4.20    0.28
   1   7  11    3.83    0.16
   1   7  11    4.41    0.17
   1   7  11    4.07    0.28
  -2  -7 -11    2.29    0.16
  -2  -7 -11    2.29    0.21
  -2  -7 -11    2.21    0.12
   2   7  11    2.05    0.21
   2   7  11    2.13    0.11
   2   7  11    2.01    0.12
   2   7  11    2.13    0.14
  -3  -7 -11    3.37    0.25
  -3  -7 -11    3.26    0.18
   3   7  11    3.11    0.25
   3   7  11    3.27    0.14
   3   7  11    3.27    0.15
   3   7  11    2.96    0.17
  -4  -7 -11    1.34    0.11
  -4  -7 -11    1.25    0.16
   4   7  11    1.52    0.11
   4   7  11    1.46    0.13
   4   7  11    1.17    0.16
  -5  -7 -11    0.16    0.11
  -5  -7 -11    0.36    0.07
   5   7  11    0.32    0.08
   5   7  11    0.15    0.12
   5   7  11    0.27    0.06
  -6  -7 -11    1.62    0.14
  -6  -7 -11    1.49    0.18
   6   7  11    1.66    0.18
   6   7  11    1.63    0.13
   6   7  11    1.36    0.12
  -7  -7 -11    1.76    0.22
  -7  -7 -11    1.56    0.14
   7   7  11    1.33    0.11
   7   7  11    1.88    0.23
   7   7  11    1.33    0.12
  -8  -7 -11    0.46    0.13
   8   7  11    0.24    0.07
   8   7  11    0.24    0.08
   1  -8 -11    2.72    0.19
  -1   8  11    2.78    0.23
  -1   8  11    2.45    0.13
   0  -8 -11    0.04    0.09
   0  -8 -11    0.18    0.08
   0   8  11    0.11    0.10
   0   8  11    0.08    0.04
  -1  -8 -11    0.08    0.07
  -1  -8 -11    0.28    0.11
   1   8  11    0.22    0.05
   1   8  11    0.32    0.12
  -2  -8 -11    0.29    0.08
  -2  -8 -11    0.33    0.11
   2   8  11    0.40    0.06
   2   8  11    0.39    0.06
   2   8  11    0.36    0.12
   2   8  11    0.30    0.07
  -3  -8 -11    2.12    0.16
  -3  -8 -11    2.05    0.22
   3   8  11    2.09    0.15
   3   8  11    2.04    0.12
   3   8  11    1.95    0.21
   3   8  11    2.13    0.13
  -4  -8 -11    0.96    0.10
  -4  -8 -11    1.10    0.15
   4   8  11    0.80    0.08
   4   8  11    0.75    0.08
   4   8  11    0.98    0.15
   4   8  11    0.69    0.09
  -5  -8 -11    2.31    0.23
  -5  -8 -11    2.49    0.16
   5   8  11    2.21    0.14
   5   8  11    1.89    0.22
   5   8  11    2.08    0.16
  -6  -8 -11    2.14    0.23
  -6  -8 -11    1.99    0.15
   6   8  11    1.96    0.15
   6   8  11    1.84    0.14
   6   8  11    1.81    0.22
  -7  -8 -11    7.82    0.44
  -7  -8 -11    7.63    0.29
   7   8  11    7.68    0.43
   7   8  11    7.62    0.29
   7   8  11    6.81    0.31
   0  -9 -11    2.19    0.17
  -1  -9 -11    0.46    0.13
  -1  -9 -11    0.20    0.08
   1   9  11    0.28    0.06
   1   9  11    0.43    0.13
  -2  -9 -11    1.59    0.20
  -2  -9 -11    1.26    0.12
   2   9  11    1.25    0.11
   2   9  11    1.20    0.10
   2   9  11    1.37    0.12
   2   9  11    1.37    0.17
  -3  -9 -11    0.64    0.09
  -3  -9 -11    0.61    0.13
   3   9  11    0.60    0.08
   3   9  11    0.51    0.07
   3   9  11    0.66    0.09
   3   9  11    0.54    0.13
  -4  -9 -11    2.07    0.16
  -4  -9 -11    2.26    0.23
   4   9  11    2.49    0.14
   4   9  11    2.10    0.16
   4   9  11    2.53    0.24
   4   9  11    2.13    0.13
  -5  -9 -11    0.19    0.12
  -5  -9 -11    0.19    0.07
   5   9  11    0.26    0.07
   5   9  11    0.28    0.07
   5   9  11    0.26    0.12
  -6  -9 -11   -0.03    0.06
  -6  -9 -11    0.16    0.11
   6   9  11   -0.10    0.11
   6   9  11   -0.04    0.07
   6   9  11    0.03    0.06
  -7  -9 -11    0.52    0.08
   7   9  11    0.76    0.11
   7   9  11    0.68    0.09
   7   9  11    0.58    0.15
  -3 -10 -11    0.95    0.11
  -3 -10 -11    1.01    0.16
   3  10  11    0.90    0.09
   3  10  11    1.02    0.17
   3  10  11    0.91    0.10
  -4 -10 -11    0.19    0.08
  -4 -10 -11    0.16    0.11
   4  10  11    0.35    0.07
   4  10  11    0.30    0.07
   4  10  11    0.34    0.12
  -5 -10 -11    0.21    0.12
   2   3 -12    1.44    0.13
  -2  -3  12    1.22    0.11
   1   3 -12    0.08    0.06
  -1  -3  12    0.11    0.07
   0   3 -12    3.51    0.19
   0   3 -12    4.12    0.27
   0  -3  12    3.25    0.20
  -1   3 -12   -0.04    0.09
  -1   3 -12    0.04    0.07
   1  -3  12    0.08    0.07
   3   2 -12    0.08    0.07
   3   2 -12    0.09    0.06
  -3  -2  12    0.08    0.06
  -3  -2  12    0.13    0.09
  -3  -2  12    0.06    0.06
   2   2 -12    0.22    0.06
   2   2 -12   -0.02    0.06
  -2  -2  12    0.12    0.07
  -2  -2  12   -0.08    0.08
  -2  -2  12    0.14    0.06
   1   2 -12    1.50    0.13
   1   2 -12    1.22    0.11
   1   2 -12    1.52    0.17
  -1  -2  12    1.51    0.14
  -1  -2  12    1.53    0.12
  -1  -2  12    1.30    0.16
   0   2 -12    0.97    0.10
   0   2 -12    0.79    0.13
   0  -2  12    0.90    0.14
   0  -2  12    1.02    0.10
  -1   2 -12    0.23    0.11
  -1   2 -12    0.25    0.07
   1  -2  12    0.10    0.07
   1  -2  12    0.27    0.12
  -2   2 -12    0.02    0.09
  -2   2 -12    0.05    0.07
   2  -2  12   -0.02    0.10
   2  -2  12   -0.06    0.07
  -3   2 -12    1.51    0.18
  -3   2 -12    1.43    0.13
   3  -2  12    1.21    0.12
   3  -2  12    1.42    0.18
   4   1 -12    0.09    0.07
   4   1 -12    0.21    0.07
   4   1 -12    0.15    0.06
  -4  -1  12    0.18    0.06
  -4  -1  12    0.24    0.07
  -4  -1  12    0.22    0.09
   3   1 -12    0.27    0.07
   3   1 -12    0.20    0.06
   3   1 -12    0.21    0.07
  -3  -1  12    0.23    0.10
  -3  -1  12    0.34    0.07
  -3  -1  12    0.11    0.07
   2   1 -12    0.03    0.06
   2   1 -12    0.11    0.06
  -2  -1  12    0.05    0.06
  -2  -1  12    0.12    0.09
  -2  -1  12    0.00    0.06
   1   1 -12    0.81    0.13
   1   1 -12    0.83    0.09
   1   1 -12    0.87    0.09
  -1  -1  12    0.88    0.09
  -1  -1  12    0.80    0.13
  -1  -1  12    1.06    0.10
   0   1 -12   -0.04    0.06
   0   1 -12    0.08    0.09
   0   1 -12    0.02    0.05
   0  -1  12    0.06    0.09
   0  -1  12   -0.02    0.06
  -1   1 -12    0.52    0.11
  -1   1 -12    0.48    0.08
   1  -1  12    0.42    0.08
   1  -1  12    0.62    0.13
  -2   1 -12    1.63    0.14
  -2   1 -12    1.60    0.19
   2  -1  12    1.37    0.12
   2  -1  12    1.90    0.21
  -3   1 -12    2.69    0.24
  -3   1 -12    2.61    0.17
   3  -1  12    2.55    0.18
   3  -1  12    2.83    0.24
  -4   1 -12    0.05    0.10
  -4   1 -12    0.08    0.08
   4  -1  12    0.02    0.11
   4  -1  12   -0.01    0.07
   4   0 -12    0.45    0.08
   4   0 -12    0.35    0.07
   4   0 -12    0.32    0.08
  -4   0  12    0.32    0.07
  -4   0  12    0.36    0.10
  -4   0  12    0.35    0.07
   3   0 -12    1.11    0.10
   3   0 -12    1.55    0.14
   3   0 -12    1.33    0.11
  -3   0  12    1.21    0.10
  -3   0  12    1.30    0.16
  -3   0  12    1.48    0.13
   2   0 -12    0.64    0.09
   2   0 -12    0.69    0.08
   2   0 -12    0.72    0.08
  -2   0  12    0.55    0.08
  -2   0  12    0.55    0.08
  -2   0  12    0.64    0.11
   1   0 -12    0.35    0.07
   1   0 -12    0.33    0.07
   1   0 -12    0.28    0.07
   1   0 -12    0.34    0.10
  -1   0  12    0.23    0.07
  -1   0  12    0.30    0.07
  -1   0  12    0.31    0.10
   0   0 -12    1.06    0.10
   0   0 -12    0.96    0.13
   0   0 -12    1.00    0.10
   0   0 -12    0.95    0.09
   0   0  12    1.09    0.14
   0   0  12    0.97    0.10
  -1   0 -12    0.30    0.08
  -1   0 -12    0.44    0.12
   1   0  12    0.24    0.07
   1   0  12    0.32    0.12
  -2   0 -12    5.75    0.25
  -2   0 -12    6.08    0.35
   2   0  12    6.25    0.36
   2   0  12    5.97    0.26
  -3   0 -12    0.55    0.13
  -3   0 -12    0.58    0.09
   3   0  12    0.77    0.14
   3   0  12    0.62    0.09
  -4   0 -12    0.26    0.08
  -4   0 -12    0.42    0.12
   4   0  12    0.33    0.13
   4   0  12    0.38    0.08
  -5   0 -12    0.20    0.08
  -5   0 -12    0.10    0.11
   5   0  12    0.26    0.08
   5   0  12    0.20    0.12
   4  -1 -12    0.27    0.08
   4  -1 -12    0.31    0.07
   4  -1 -12    0.13    0.07
  -4   1  12    0.19    0.07
  -4   1  12    0.15    0.09
   3  -1 -12    1.27    0.11
   3  -1 -12    0.97    0.10
   3  -1 -12    1.25    0.10
  -3   1  12    1.29    0.14
  -3   1  12    1.59    0.13
  -3   1  12    1.15    0.10
   2  -1 -12   -0.09    0.05
   2  -1 -12   -0.03    0.05
   2  -1 -12    0.07    0.06
  -2   1  12    0.04    0.05
  -2   1  12    0.00    0.09
  -2   1  12    0.00    0.06
   1  -1 -12    0.12    0.07
   1  -1 -12    0.21    0.10
   1  -1 -12    0.14    0.06
   1  -1 -12    0.13    0.06
  -1   1  12    0.17    0.10
  -1   1  12    0.15    0.06
  -1   1  12    0.14    0.06
   0  -1 -12    2.94    0.18
   0  -1 -12    2.69    0.15
   0  -1 -12    2.65    0.22
   0  -1 -12    2.59    0.16
   0   1  12    2.68    0.22
   0   1  12    2.87    0.17
  -1  -1 -12    2.31    0.16
  -1  -1 -12    1.86    0.12
  -1  -1 -12    1.89    0.20
  -1  -1 -12    2.10    0.14
   1   1  12    1.90    0.15
   1   1  12    2.00    0.20
  -2  -1 -12    5.84    0.25
  -2  -1 -12    5.93    0.35
   2   1  12    5.89    0.25
   2   1  12    6.22    0.36
  -3  -1 -12    0.09    0.10
  -3  -1 -12    0.05    0.06
   3   1  12    0.07    0.10
   3   1  12    0.30    0.07
  -4  -1 -12    0.15    0.11
  -4  -1 -12    0.12    0.07
   4   1  12    0.18    0.07
   4   1  12    0.34    0.12
  -5  -1 -12    0.40    0.12
  -5  -1 -12    0.43    0.08
   5   1  12    0.44    0.13
   5   1  12    0.46    0.06
   5   1  12    0.44    0.08
  -6  -1 -12    0.57    0.09
  -6  -1 -12    0.50    0.15
   6   1  12    0.60    0.10
   6   1  12    0.49    0.08
   6   1  12    0.36    0.13
   4  -2 -12    0.33    0.08
   4  -2 -12    0.38    0.08
  -4   2  12    0.37    0.09
  -4   2  12    0.40    0.07
   3  -2 -12    0.66    0.09
   3  -2 -12    0.66    0.08
   3  -2 -12    0.81    0.10
  -3   2  12    0.93    0.09
  -3   2  12    0.81    0.12
   2  -2 -12    0.17    0.07
   2  -2 -12    0.19    0.07
   2  -2 -12    0.07    0.06
  -2   2  12    0.25    0.09
  -2   2  12    0.07    0.06
  -2   2  12    0.01    0.06
   1  -2 -12    5.94    0.24
   1  -2 -12    5.92    0.25
   1  -2 -12    5.45    0.32
  -1   2  12    5.97    0.24
  -1   2  12    6.03    0.33
  -1   2  12    5.57    0.23
   0  -2 -12    3.01    0.24
   0  -2 -12    3.41    0.19
   0  -2 -12    2.99    0.16
   0   2  12    2.80    0.16
   0   2  12    3.14    0.17
   0   2  12    3.02    0.24
  -1  -2 -12    3.47    0.24
  -1  -2 -12    3.41    0.19
  -1  -2 -12    3.20    0.16
   1   2  12    3.21    0.24
   1   2  12    3.25    0.18
  -2  -2 -12    2.03    0.20
  -2  -2 -12    2.32    0.16
  -2  -2 -12    2.15    0.15
  -2  -2 -12    2.02    0.12
   2   2  12    1.96    0.21
   2   2  12    2.18    0.16
  -3  -2 -12    0.29    0.07
  -3  -2 -12    0.24    0.07
  -3  -2 -12    0.29    0.10
   3   2  12    0.27    0.05
   3   2  12    0.17    0.07
   3   2  12    0.26    0.10
  -4  -2 -12    2.16    0.20
  -4  -2 -12    1.73    0.15
   4   2  12    1.72    0.15
   4   2  12    1.82    0.21
   4   2  12    1.74    0.11
  -5  -2 -12    0.03    0.07
  -5  -2 -12   -0.09    0.09
   5   2  12   -0.11    0.06
   5   2  12    0.01    0.10
   5   2  12    0.01    0.05
  -6  -2 -12    1.46    0.18
  -6  -2 -12    1.84    0.16
   6   2  12    1.87    0.16
   6   2  12    1.95    0.22
   6   2  12    1.93    0.13
   4  -3 -12    0.06    0.07
   4  -3 -12    0.01    0.07
  -4   3  12   -0.05    0.08
  -4   3  12    0.03    0.06
   3  -3 -12    0.56    0.08
   3  -3 -12    0.65    0.09
  -3   3  12    0.50    0.11
  -3   3  12    0.47    0.07
   2  -3 -12    0.01    0.06
   2  -3 -12    0.10    0.07
  -2   3  12   -0.04    0.09
  -2   3  12    0.02    0.05
   1  -3 -12    0.28    0.10
   1  -3 -12    0.38    0.07
   1  -3 -12    0.28    0.08
  -1   3  12    0.28    0.06
  -1   3  12    0.31    0.11
   0  -3 -12    2.74    0.23
   0  -3 -12    2.92    0.16
   0  -3 -12    3.21    0.18
   0   3  12    2.79    0.24
   0   3  12    3.05    0.15
   0   3  12    2.94    0.17
  -1  -3 -12    0.24    0.10
  -1  -3 -12    0.19    0.05
  -1  -3 -12    0.08    0.07
   1   3  12    0.21    0.11
   1   3  12    0.22    0.07
  -2  -3 -12    0.28    0.05
  -2  -3 -12    0.23    0.07
  -2  -3 -12    0.22    0.10
   2   3  12    0.29    0.04
   2   3  12    0.14    0.11
   2   3  12    0.22    0.07
  -3  -3 -12    0.07    0.09
  -3  -3 -12    0.05    0.07
   3   3  12    0.03    0.04
   3   3  12    0.04    0.06
   3   3  12    0.03    0.10
  -4  -3 -12    2.47    0.22
  -4  -3 -12    2.52    0.17
   4   3  12    2.47    0.23
   4   3  12    2.36    0.17
   4   3  12    2.36    0.12
  -5  -3 -12    1.30    0.16
   5   3  12    1.17    0.16
   5   3  12    1.08    0.09
   5   3  12    0.92    0.10
  -6  -3 -12    0.20    0.08
  -6  -3 -12    0.18    0.11
   6   3  12    0.43    0.08
   6   3  12    0.27    0.06
   6   3  12    0.26    0.11
  -7  -3 -12    1.72    0.15
   7   3  12    1.46    0.13
   7   3  12    2.06    0.14
   7   3  12    1.94    0.22
   3  -4 -12    0.26    0.08
   3  -4 -12    0.19    0.07
  -3   4  12    0.35    0.10
  -3   4  12    0.19    0.06
   2  -4 -12    1.51    0.14
   2  -4 -12    1.70    0.15
  -2   4  12    1.70    0.12
  -2   4  12    1.72    0.19
   1  -4 -12    0.86    0.13
   1  -4 -12    0.71    0.08
   1  -4 -12    0.78    0.10
  -1   4  12    0.69    0.12
  -1   4  12    0.77    0.07
   0  -4 -12    0.00    0.05
   0  -4 -12   -0.07    0.08
   0  -4 -12    0.14    0.07
   0   4  12    0.05    0.09
   0   4  12    0.04    0.04
  -1  -4 -12    0.41    0.11
  -1  -4 -12    0.39    0.06
  -1  -4 -12    0.38    0.08
   1   4  12    0.41    0.05
   1   4  12    0.35    0.06
   1   4  12    0.33    0.11
   1   4  12    0.46    0.05
  -2  -4 -12    0.44    0.05
  -2  -4 -12    0.35    0.11
  -2  -4 -12    0.45    0.08
   2   4  12    0.46    0.05
   2   4  12    0.54    0.05
   2   4  12    0.52    0.13
   2   4  12    0.49    0.08
  -3  -4 -12    0.47    0.08
  -3  -4 -12    0.45    0.11
   3   4  12    0.50    0.12
   3   4  12    0.46    0.06
   3   4  12    0.46    0.08
  -4  -4 -12    1.12    0.11
  -4  -4 -12    1.30    0.16
   4   4  12    1.37    0.17
   4   4  12    1.29    0.10
   4   4  12    1.70    0.15
  -5  -4 -12    0.26    0.08
  -5  -4 -12    0.27    0.11
   5   4  12    0.11    0.06
   5   4  12    0.29    0.07
   5   4  12    0.25    0.12
  -6  -4 -12   -0.02    0.10
   6   4  12    0.02    0.07
   6   4  12   -0.01    0.10
   6   4  12    0.00    0.05
   6   4  12   -0.02    0.06
  -7  -4 -12    0.72    0.10
  -7  -4 -12    0.79    0.14
   7   4  12    0.81    0.10
   7   4  12    0.63    0.09
   7   4  12    0.84    0.16
   7   4  12    0.69    0.09
   3  -5 -12    0.42    0.09
   3  -5 -12    0.42    0.08
  -3   5  12    0.45    0.11
   2  -5 -12    1.90    0.15
   2  -5 -12    2.08    0.17
  -2   5  12    2.07    0.20
   1  -5 -12    0.52    0.09
   1  -5 -12    0.58    0.08
  -1   5  12    0.65    0.13
  -1   5  12    0.69    0.07
   0  -5 -12    0.96    0.09
   0  -5 -12    0.81    0.10
   0  -5 -12    1.02    0.14
   0   5  12    0.89    0.14
   0   5  12    1.12    0.09
  -1  -5 -12    0.77    0.13
  -1  -5 -12    0.70    0.09
  -1  -5 -12    0.77    0.07
   1   5  12    0.76    0.06
   1   5  12    0.98    0.09
   1   5  12    0.70    0.06
   1   5  12    0.81    0.14
  -2  -5 -12    0.37    0.08
  -2  -5 -12    0.34    0.11
   2   5  12    0.26    0.05
   2   5  12    0.27    0.11
   2   5  12    0.40    0.05
   2   5  12    0.41    0.06
  -3  -5 -12    0.31    0.11
  -3  -5 -12    0.15    0.07
   3   5  12    0.21    0.05
   3   5  12    0.35    0.11
  -4  -5 -12    4.52    0.30
  -4  -5 -12    4.34    0.21
   4   5  12    4.32    0.18
   4   5  12    4.49    0.30
   4   5  12    4.09    0.21
  -5  -5 -12    7.94    0.30
  -5  -5 -12    7.53    0.42
   5   5  12    7.32    0.27
   5   5  12    7.03    0.31
   5   5  12    7.63    0.42
  -6  -5 -12    0.29    0.11
  -6  -5 -12    0.24    0.08
   6   5  12    0.34    0.08
   6   5  12    0.26    0.07
   6   5  12    0.39    0.12
  -7  -5 -12    0.83    0.16
   7   5  12    0.96    0.09
   7   5  12    0.80    0.16
   7   5  12    0.84    0.10
   2  -6 -12    0.17    0.07
   2  -6 -12    0.27    0.08
  -2   6  12    0.36    0.11
   1  -6 -12    0.06    0.07
   1  -6 -12    0.11    0.06
  -1   6  12    0.16    0.10
   0  -6 -12    0.34    0.08
   0  -6 -12    0.42    0.11
   0  -6 -12    0.34    0.07
   0   6  12    0.42    0.11
   0   6  12    0.44    0.06
  -1  -6 -12   -0.07    0.07
  -1  -6 -12   -0.07    0.05
  -1  -6 -12   -0.06    0.10
   1   6  12    0.02    0.04
   1   6  12    0.01    0.04
   1   6  12   -0.06    0.10
  -2  -6 -12    0.00    0.09
  -2  -6 -12    0.10    0.07
   2   6  12    0.09    0.10
   2   6  12    0.10    0.04
   2   6  12    0.14    0.04
  -3  -6 -12    0.88    0.14
  -3  -6 -12    0.82    0.10
   3   6  12    0.91    0.08
   3   6  12    0.75    0.14
   3   6  12    0.84    0.07
   3   6  12    0.75    0.09
  -4  -6 -12    0.13    0.07
  -4  -6 -12    0.12    0.11
   4   6  12    0.10    0.07
   4   6  12   -0.06    0.11
   4   6  12    0.10    0.05
  -5  -6 -12    9.41    0.35
  -5  -6 -12    9.54    0.49
   5   6  12    9.29    0.49
   5   6  12    9.51    0.32
   5   6  12    9.06    0.36
  -6  -6 -12    0.24    0.12
  -6  -6 -12    0.22    0.07
   6   6  12    0.15    0.08
   6   6  12    0.24    0.07
   6   6  12    0.25    0.12
  -7  -6 -12    0.02    0.11
   7   6  12    0.08    0.06
   7   6  12    0.12    0.08
   7   6  12    0.16    0.12
   1  -7 -12   -0.03    0.08
   1  -7 -12    0.07    0.06
  -1   7  12    0.05    0.11
   0  -7 -12    1.28    0.16
   0  -7 -12    1.28    0.12
   0  -7 -12    1.38    0.13
   0   7  12    1.39    0.17
   0   7  12    1.40    0.09
  -1  -7 -12    0.82    0.08
  -1  -7 -12    0.86    0.10
  -1  -7 -12    1.01    0.15
   1   7  12    0.84    0.07
   1   7  12    0.81    0.15
  -2  -7 -12    0.73    0.14
  -2  -7 -12    0.88    0.10
   2   7  12    0.72    0.07
   2   7  12    0.71    0.14
   2   7  12    0.81    0.07
  -3  -7 -12    0.05    0.07
  -3  -7 -12   -0.17    0.10
   3   7  12   -0.07    0.06
   3   7  12   -0.10    0.10
   3   7  12   -0.03    0.04
   3   7  12    0.06    0.05
  -4  -7 -12    0.10    0.11
  -4  -7 -12    0.05    0.07
   4   7  12    0.18    0.05
   4   7  12    0.06    0.07
   4   7  12   -0.01    0.10
   4   7  12    0.13    0.05
  -5  -7 -12    0.83    0.15
  -5  -7 -12    0.85    0.10
   5   7  12    0.72    0.10
   5   7  12    0.89    0.08
   5   7  12    0.70    0.15
  -6  -7 -12    1.27    0.11
  -6  -7 -12    1.15    0.16
   6   7  12    0.90    0.09
   6   7  12    0.88    0.11
   6   7  12    1.03    0.16
  -7  -7 -12    2.22    0.16
   7   7  12    2.17    0.15
   7   7  12    1.97    0.18
   7   7  12    1.84    0.23
   0  -8 -12    0.23    0.08
   0   8  12    0.13    0.05
  -1  -8 -12    0.28    0.11
  -1  -8 -12    0.18    0.08
   1   8  12    0.19    0.05
   1   8  12    0.17    0.11
  -2  -8 -12   -0.03    0.07
  -2  -8 -12    0.13    0.11
   2   8  12    0.15    0.05
   2   8  12    0.18    0.11
   2   8  12    0.05    0.05
  -3  -8 -12    0.01    0.07
  -3  -8 -12    0.09    0.11
   3   8  12    0.10    0.05
   3   8  12    0.08    0.05
   3   8  12    0.01    0.06
   3   8  12    0.09    0.11
  -4  -8 -12    1.65    0.13
  -4  -8 -12    1.60    0.19
   4   8  12    1.55    0.15
   4   8  12    1.65    0.11
   4   8  12    1.65    0.12
   4   8  12    1.55    0.19
  -5  -8 -12    1.31    0.18
  -5  -8 -12    1.18    0.11
   5   8  12    1.16    0.12
   5   8  12    1.27    0.18
   5   8  12    1.20    0.10
  -6  -8 -12    0.27    0.13
  -6  -8 -12    0.23    0.07
   6   8  12    0.15    0.12
   6   8  12    0.34    0.07
   6   8  12    0.17    0.08
  -3  -9 -12    0.17    0.11
  -3  -9 -12    0.19    0.08
   3   9  12    0.30    0.06
   3   9  12    0.24    0.07
   3   9  12    0.30    0.12
  -4  -9 -12    0.66    0.14
  -4  -9 -12    0.63    0.10
   4   9  12    0.57    0.14
   4   9  12    0.60    0.08
   4   9  12    0.63    0.09
   1   1 -13    0.79    0.09
   1   1 -13    1.06    0.10
   0   1 -13    1.46    0.12
   0   1 -13    1.78    0.21
   0  -1  13    1.58    0.13
  -1   1 -13   -0.02    0.07
  -1   1 -13    0.10    0.10
   1  -1  13    0.05    0.07
   2   0 -13    0.44    0.08
   2   0 -13    0.23    0.07
   2   0 -13    0.39    0.08
  -2   0  13    0.45    0.07
  -2   0  13    0.30    0.07
   1   0 -13    0.31    0.07
   1   0 -13    0.54    0.09
   1   0 -13    0.43    0.08
  -1   0  13    0.53    0.12
  -1   0  13    0.44    0.08
  -1   0  13    0.30    0.07
   0   0 -13    0.91    0.14
   0   0 -13    0.92    0.10
   0   0 -13    1.01    0.09
   0   0  13    0.94    0.15
   0   0  13    1.00    0.11
  -1   0 -13    0.10    0.10
  -1   0 -13    0.01    0.07
   1   0  13   -0.10    0.10
   1   0  13   -0.05    0.07
  -2   0 -13   -0.07    0.10
  -2   0 -13   -0.08    0.07
   2   0  13   -0.12    0.07
   2   0  13   -0.02    0.11
  -3   0 -13    0.30    0.09
  -3   0 -13    0.24    0.11
   3   0  13    0.38    0.14
   3   0  13    0.14    0.08
   2  -1 -13   -0.10    0.06
   2  -1 -13    0.01    0.06
   2  -1 -13   -0.14    0.06
  -2   1  13   -0.04    0.09
  -2   1  13   -0.01    0.06
  -2   1  13   -0.01    0.06
   1  -1 -13    0.54    0.09
   1  -1 -13    0.47    0.07
   1  -1 -13    0.29    0.07
  -1   1  13    0.47    0.08
  -1   1  13    0.41    0.12
  -1   1  13    0.57    0.08
   0  -1 -13    0.66    0.08
   0  -1 -13    0.63    0.09
   0  -1 -13    0.49    0.08
   0  -1 -13    0.60    0.13
   0   1  13    0.64    0.14
   0   1  13    0.63    0.08
   0   1  13    0.71    0.09
  -1  -1 -13   -0.05    0.07
  -1  -1 -13   -0.08    0.05
  -1  -1 -13    0.07    0.11
  -1  -1 -13   -0.01    0.07
   1   1  13    0.09    0.12
   1   1  13    0.02    0.07
  -2  -1 -13    0.53    0.09
  -2  -1 -13    0.58    0.13
   2   1  13    0.50    0.09
   2   1  13    0.64    0.14
  -3  -1 -13    0.32    0.08
  -3  -1 -13    0.35    0.12
   3   1  13    0.31    0.08
   3   1  13    0.40    0.13
  -4  -1 -13    5.57    0.36
  -4  -1 -13    5.68    0.25
   4   1  13    5.53    0.37
   4   1  13    5.58    0.27
   2  -2 -13    0.27    0.08
   2  -2 -13    0.15    0.07
   2  -2 -13    0.22    0.06
  -2   2  13    0.21    0.10
  -2   2  13    0.17    0.06
  -2   2  13    0.19    0.07
   1  -2 -13    1.40    0.11
   1  -2 -13    1.30    0.11
   1  -2 -13    1.37    0.12
  -1   2  13    1.32    0.11
  -1   2  13    1.15    0.15
  -1   2  13    1.73    0.14
   0  -2 -13    0.08    0.07
   0  -2 -13    0.07    0.09
   0  -2 -13    0.13    0.07
   0  -2 -13    0.13    0.06
   0   2  13    0.07    0.07
   0   2  13    0.18    0.10
   0   2  13    0.06    0.06
  -1  -2 -13   15.64    0.51
  -1  -2 -13   15.68    0.52
  -1  -2 -13   15.47    0.73
  -1  -2 -13   15.94    0.54
   1   2  13   15.78    0.52
   1   2  13   15.32    0.73
  -2  -2 -13    0.07    0.10
  -2  -2 -13   -0.13    0.07
  -2  -2 -13    0.24    0.08
   2   2  13   -0.04    0.07
   2   2  13    0.10    0.11
  -3  -2 -13    1.13    0.11
  -3  -2 -13    1.12    0.15
   3   2  13    1.03    0.11
   3   2  13    1.15    0.16
  -4  -2 -13    0.20    0.11
  -4  -2 -13    0.11    0.07
   4   2  13    0.15    0.12
   4   2  13    0.25    0.08
  -5  -2 -13    0.07    0.12
  -5  -2 -13   -0.02    0.07
   5   2  13    0.15    0.13
   5   2  13    0.11    0.08
   2  -3 -13    0.74    0.09
   2  -3 -13    0.60    0.09
  -2   3  13    0.65    0.08
  -2   3  13    0.67    0.13
   1  -3 -13    0.27    0.08
   1  -3 -13    0.25    0.07
  -1   3  13    0.35    0.11
  -1   3  13    0.28    0.07
   0  -3 -13   -0.03    0.09
   0  -3 -13   -0.07    0.07
   0  -3 -13   -0.01    0.05
   0   3  13   -0.11    0.05
   0   3  13   -0.01    0.06
   0   3  13    0.00    0.10
  -1  -3 -13    2.55    0.25
  -1  -3 -13    2.70    0.15
  -1  -3 -13    3.14    0.19
   1   3  13    2.73    0.18
   1   3  13    2.22    0.26
   1   3  13    2.77    0.16
  -2  -3 -13    5.52    0.34
  -2  -3 -13    5.31    0.25
   2   3  13    5.20    0.24
   2   3  13    5.06    0.34
  -3  -3 -13    1.98    0.22
  -3  -3 -13    2.22    0.18
   3   3  13    2.38    0.18
   3   3  13    2.51    0.23
  -4  -3 -13    0.02    0.07
  -4  -3 -13    0.07    0.10
   4   3  13   -0.03    0.07
   4   3  13   -0.10    0.10
  -5  -3 -13   -0.18    0.10
  -5  -3 -13   -0.05    0.07
   5   3  13   -0.01    0.12
   5   3  13   -0.06    0.07
   2  -4 -13    0.05    0.08
   2  -4 -13    0.12    0.07
  -2   4  13    0.14    0.06
   1  -4 -13    2.47    0.18
   1  -4 -13    2.51    0.16
  -1   4  13    2.54    0.23
  -1   4  13    2.51    0.15
   0  -4 -13    0.94    0.11
   0  -4 -13    0.89    0.15
   0  -4 -13    0.97    0.09
   0   4  13    0.86    0.08
   0   4  13    0.67    0.14
  -1  -4 -13   -0.02    0.10
  -1  -4 -13   -0.04    0.07
   1   4  13    0.06    0.05
   1   4  13   -0.11    0.10
  -2  -4 -13    0.48    0.13
  -2  -4 -13    0.46    0.09
   2   4  13    0.32    0.13
   2   4  13    0.42    0.09
  -3  -4 -13   11.42    0.58
  -3  -4 -13   11.09    0.42
   3   4  13   11.45    0.41
   3   4  13   12.02    0.59
  -4  -4 -13    0.10    0.07
  -4  -4 -13    0.25    0.12
   4   4  13    0.20    0.08
   4   4  13    0.04    0.05
   4   4  13    0.13    0.12
  -5  -4 -13   -0.07    0.10
  -5  -4 -13   -0.08    0.06
   5   4  13   -0.09    0.11
   5   4  13   -0.05    0.05
   5   4  13   -0.08    0.07
   1  -5 -13    0.00    0.06
   1  -5 -13   -0.16    0.07
  -1   5  13   -0.08    0.10
   0  -5 -13    0.70    0.10
   0  -5 -13    0.47    0.13
   0  -5 -13    0.62    0.08
   0   5  13    0.63    0.14
  -1  -5 -13   -0.11    0.10
  -1  -5 -13   -0.08    0.07
   1   5  13   -0.06    0.10
  -2  -5 -13    0.11    0.08
  -2  -5 -13   -0.07    0.10
   2   5  13   -0.05    0.11
  -3  -5 -13    5.81    0.36
  -3  -5 -13    6.32    0.27
   3   5  13    5.78    0.21
   3   5  13    5.44    0.36
  -4  -5 -13    0.43    0.09
  -4  -5 -13    0.28    0.12
   4   5  13    0.28    0.06
   4   5  13    0.19    0.12
  -5  -5 -13    0.04    0.11
  -5  -5 -13    0.15    0.08
   5   5  13    0.00    0.05
   5   5  13    0.03    0.12
   0  -6 -13    0.06    0.06
   0  -6 -13    0.11    0.08
  -1  -6 -13    1.45    0.18
  -1  -6 -13    1.39    0.13
   1   6  13    1.35    0.17
  -2  -6 -13    2.15    0.17
  -2  -6 -13    2.19    0.23
   2   6  13    2.03    0.12
   2   6  13    2.05    0.23
  -3  -6 -13    0.81    0.10
  -3  -6 -13    0.81    0.15
   3   6  13    0.80    0.08
   3   6  13    0.82    0.07
   3   6  13    0.75    0.16
  -4  -6 -13    2.08    0.23
  -4  -6 -13    1.97    0.17
   4   6  13    2.25    0.13
   4   6  13    1.99    0.23
  -5  -6 -13    3.39    0.20
  -5  -6 -13    3.55    0.28
   5   6  13    3.28    0.20
   5   6  13    3.54    0.29
   5   6  13    3.21    0.16
  -1  -7 -13    0.43    0.10
  -1  -7 -13    0.58    0.14
  -2  -7 -13    1.02    0.16
  -2  -7 -13    0.77    0.10
   2   7  13    0.79    0.08
   2   7  13    0.67    0.16
  -3  -7 -13    0.99    0.11
  -3  -7 -13    0.85    0.16
   3   7  13    0.88    0.08
   3   7  13    0.88    0.07
   3   7  13    0.64    0.15
  -4  -7 -13    0.05    0.07
  -4  -7 -13   -0.02    0.12
   4   7  13    0.06    0.07
   4   7  13    0.07    0.05
   4   7  13   -0.05    0.04
   4   7  13   -0.04    0.12
   0   0   0    0.00    0.00
;
_shelx_hkl_checksum              19734
loop_
_space_group_symop_operation_xyz
'x, y, z'
'-x, -y, -z'
loop_
_atom_site_label
_atom_site_type_symbol
_atom_site_fract_x
_atom_site_fract_y
_atom_site_fract_z
_atom_site_U_iso_or_equiv
_atom_site_adp_type
_atom_site_occupancy
_atom_site_site_symmetry_order
_atom_site_calc_flag
_atom_site_refinement_flags_posn
_atom_site_refinement_flags_adp
_atom_site_refinement_flags_occupancy
_atom_site_disorder_assembly
_atom_site_disorder_group
O1 O 0.56515(18) -0.44176(13) 0.64704(13) 0.0736(4) Uani 1 1 d . . . . .
N1 N 0.23112(11) 0.04305(11) 0.53705(9) 0.0317(2) Uani 1 1 d . . . . .
C2 C 0.35327(13) -0.09444(13) 0.57777(11) 0.0309(2) Uani 1 1 d . . . . .
C3 C 0.41916(13) -0.20367(12) 0.49395(11) 0.0312(2) Uani 1 1 d . . . . .
C4A C 0.21383(12) -0.03470(12) 0.33302(10) 0.0279(2) Uani 1 1 d . . . . .
C4 C 0.34845(13) -0.17132(12) 0.37043(11) 0.0304(2) Uani 1 1 d . . . . .
H4 H 0.391369 -0.241236 0.312881 0.037 Uiso 1 1 calc R U . . .
C5 C 0.12502(14) -0.00194(13) 0.20387(11) 0.0332(2) Uani 1 1 d . . . . .
O6 O 0.22895(11) 0.03672(10) 0.08579(8) 0.0384(2) Uani 1 1 d . . . . .
C6A C 0.24253(14) 0.18623(14) 0.06501(11) 0.0350(2) Uani 1 1 d . . . . .
C7 C 0.36445(17) 0.22076(17) -0.02831(13) 0.0455(3) Uani 1 1 d . . . . .
H7 H 0.432400 0.145222 -0.074945 0.055 Uiso 1 1 calc R U . . .
C8 C 0.38324(19) 0.3685(2) -0.05079(14) 0.0517(3) Uani 1 1 d . . . . .
H8 H 0.464555 0.392086 -0.112858 0.062 Uiso 1 1 calc R U . . .
C9 C 0.28263(19) 0.48185(18) 0.01787(14) 0.0508(3) Uani 1 1 d . . . . .
H9 H 0.297310 0.580361 0.003077 0.061 Uiso 1 1 calc R U . . .
C10A C 0.13774(14) 0.29993(13) 0.13282(11) 0.0347(2) Uani 1 1 d . . . . .
C10 C 0.15999(17) 0.44770(15) 0.10873(13) 0.0434(3) Uani 1 1 d . . . . .
H10 H 0.091654 0.524244 0.154211 0.052 Uiso 1 1 calc R U . . .
C11 C -0.00019(14) 0.26320(13) 0.22639(12) 0.0358(2) Uani 1 1 d . . . . .
H11 H -0.100337 0.355222 0.205404 0.043 Uiso 1 1 calc R U . . .
C12A C 0.16346(12) 0.07208(12) 0.41792(10) 0.0285(2) Uani 1 1 d . . . . .
C12 C 0.02831(14) 0.22875(13) 0.37714(12) 0.0353(2) Uani 1 1 d . . . . .
H12A H 0.057222 0.314056 0.394619 0.042 Uiso 1 1 calc R U . . .
H12B H -0.070995 0.224123 0.430991 0.042 Uiso 1 1 calc R U . . .
O13 O -0.02324(10) 0.12616(10) 0.20036(9) 0.0390(2) Uani 1 1 d . . . . .
C14 C 0.41476(17) -0.11971(17) 0.71558(13) 0.0437(3) Uani 1 1 d . . . . .
H14A H 0.378795 -0.019501 0.741868 0.066 Uiso 1 1 calc R U . . .
H14B H 0.531907 -0.161433 0.711192 0.066 Uiso 1 1 calc R U . . .
H14C H 0.372845 -0.194337 0.781699 0.066 Uiso 1 1 calc R U . . .
C15 C 0.56231(16) -0.35402(14) 0.53430(14) 0.0429(3) Uani 1 1 d . . . . .
C16 C 0.69972(18) -0.39023(19) 0.4303(2) 0.0615(4) Uani 1 1 d . . . . .
H16A H 0.789083 -0.480147 0.471836 0.092 Uiso 1 1 calc R U . . .
H16B H 0.734726 -0.298753 0.395436 0.092 Uiso 1 1 calc R U . . .
H16C H 0.663744 -0.415067 0.356700 0.092 Uiso 1 1 calc R U . . .
C17 C 0.08558(19) -0.14406(17) 0.18987(14) 0.0474(3) Uani 1 1 d . . . . .
H17A H 0.015400 -0.172957 0.266002 0.071 Uiso 1 1 calc R U . . .
H17B H 0.184776 -0.232823 0.188236 0.071 Uiso 1 1 calc R U . . .
H17C H 0.031507 -0.116651 0.106475 0.071 Uiso 1 1 calc R U . . .
loop_
_atom_site_aniso_label
_atom_site_aniso_U_11
_atom_site_aniso_U_22
_atom_site_aniso_U_33
_atom_site_aniso_U_23
_atom_site_aniso_U_13
_atom_site_aniso_U_12
O1 0.1001(10) 0.0401(6) 0.0593(7) 0.0080(5) -0.0281(7) -0.0035(6)
N1 0.0333(4) 0.0327(4) 0.0290(4) -0.0085(3) -0.0011(3) -0.0100(4)
C2 0.0318(5) 0.0332(5) 0.0284(5) -0.0033(4) -0.0036(4) -0.0138(4)
C3 0.0309(5) 0.0264(5) 0.0334(5) -0.0020(4) -0.0058(4) -0.0083(4)
C4A 0.0294(5) 0.0269(4) 0.0266(4) -0.0039(3) -0.0029(4) -0.0097(4)
C4 0.0337(5) 0.0254(5) 0.0305(5) -0.0067(4) -0.0026(4) -0.0073(4)
C5 0.0362(5) 0.0321(5) 0.0308(5) -0.0048(4) -0.0064(4) -0.0111(4)
O6 0.0474(5) 0.0369(4) 0.0292(4) -0.0069(3) -0.0011(3) -0.0131(4)
C6A 0.0382(6) 0.0370(5) 0.0268(5) -0.0008(4) -0.0077(4) -0.0117(4)
C7 0.0467(7) 0.0542(7) 0.0308(5) -0.0029(5) -0.0006(5) -0.0169(6)
C8 0.0547(8) 0.0661(9) 0.0359(6) 0.0036(6) -0.0042(5) -0.0327(7)
C9 0.0642(9) 0.0496(7) 0.0437(7) 0.0047(5) -0.0147(6) -0.0320(7)
C10A 0.0344(5) 0.0327(5) 0.0320(5) 0.0006(4) -0.0099(4) -0.0082(4)
C10 0.0504(7) 0.0362(6) 0.0415(6) -0.0018(5) -0.0121(5) -0.0138(5)
C11 0.0291(5) 0.0311(5) 0.0402(6) -0.0035(4) -0.0073(4) -0.0031(4)
C12A 0.0271(5) 0.0277(5) 0.0283(5) -0.0050(4) -0.0001(4) -0.0079(4)
C12 0.0312(5) 0.0314(5) 0.0363(5) -0.0084(4) 0.0003(4) -0.0025(4)
O13 0.0315(4) 0.0400(4) 0.0444(5) -0.0043(3) -0.0107(3) -0.0113(3)
C14 0.0478(7) 0.0504(7) 0.0341(6) -0.0072(5) -0.0119(5) -0.0161(6)
C15 0.0459(7) 0.0273(5) 0.0526(7) -0.0060(5) -0.0199(5) -0.0048(5)
C16 0.0405(7) 0.0455(8) 0.0890(12) -0.0231(8) -0.0103(7) 0.0049(6)
C17 0.0602(8) 0.0445(7) 0.0463(7) -0.0094(5) -0.0140(6) -0.0249(6)
loop_
_atom_type_symbol
_atom_type_description
_atom_type_scat_dispersion_real
_atom_type_scat_dispersion_imag
_atom_type_scat_source
C C 0.0033 0.0016 'International Tables Vol C Tables 4.2.6.8 and 6.1.1.4'
H H 0.0000 0.0000 'International Tables Vol C Tables 4.2.6.8 and 6.1.1.4'
N N 0.0061 0.0033 'International Tables Vol C Tables 4.2.6.8 and 6.1.1.4'
O O 0.0106 0.0060 'International Tables Vol C Tables 4.2.6.8 and 6.1.1.4'
loop_
_geom_angle_atom_site_label_1
_geom_angle_atom_site_label_2
_geom_angle_atom_site_label_3
_geom_angle
_geom_angle_site_symmetry_1
_geom_angle_site_symmetry_3
_geom_angle_publ_flag
C2 N1 C12A 119.35(9) . . ?
N1 C2 C3 121.16(9) . . ?
N1 C2 C14 115.37(10) . . ?
C3 C2 C14 123.46(10) . . ?
C4 C3 C2 118.65(9) . . ?
C4 C3 C15 119.38(10) . . ?
C2 C3 C15 121.96(10) . . ?
C4 C4A C12A 117.25(9) . . ?
C4 C4A C5 121.55(9) . . ?
C12A C4A C5 121.19(9) . . ?
C4A C4 C3 120.11(9) . . ?
C4A C4 H4 119.9 . . ?
C3 C4 H4 119.9 . . ?
O13 C5 O6 109.33(9) . . ?
O13 C5 C17 107.18(10) . . ?
O6 C5 C17 106.77(10) . . ?
O13 C5 C4A 111.17(9) . . ?
O6 C5 C4A 108.84(9) . . ?
C17 C5 C4A 113.40(9) . . ?
C6A O6 C5 113.73(8) . . ?
O6 C6A C10A 121.74(10) . . ?
O6 C6A C7 117.48(11) . . ?
C10A C6A C7 120.77(12) . . ?
C8 C7 C6A 119.24(13) . . ?
C8 C7 H7 120.4 . . ?
C6A C7 H7 120.4 . . ?
C7 C8 C9 120.85(13) . . ?
C7 C8 H8 119.6 . . ?
C9 C8 H8 119.6 . . ?
C8 C9 C10 119.59(13) . . ?
C8 C9 H9 120.2 . . ?
C10 C9 H9 120.2 . . ?
C6A C10A C10 118.75(11) . . ?
C6A C10A C11 119.64(10) . . ?
C10 C10A C11 121.57(11) . . ?
C9 C10 C10A 120.77(13) . . ?
C9 C10 H10 119.6 . . ?
C10A C10 H10 119.6 . . ?
O13 C11 C10A 108.98(9) . . ?
O13 C11 C12 108.52(9) . . ?
C10A C11 C12 113.72(9) . . ?
O13 C11 H11 108.5 . . ?
C10A C11 H11 108.5 . . ?
C12 C11 H11 108.5 . . ?
N1 C12A C4A 123.15(9) . . ?
N1 C12A C12 116.90(9) . . ?
C4A C12A C12 119.96(9) . . ?
C12A C12 C11 109.75(9) . . ?
C12A C12 H12A 109.7 . . ?
C11 C12 H12A 109.7 . . ?
C12A C12 H12B 109.7 . . ?
C11 C12 H12B 109.7 . . ?
H12A C12 H12B 108.2 . . ?
C5 O13 C11 111.26(8) . . ?
C2 C14 H14A 109.5 . . ?
C2 C14 H14B 109.5 . . ?
H14A C14 H14B 109.5 . . ?
C2 C14 H14C 109.5 . . ?
H14A C14 H14C 109.5 . . ?
H14B C14 H14C 109.5 . . ?
O1 C15 C16 121.60(13) . . ?
O1 C15 C3 120.91(13) . . ?
C16 C15 C3 117.49(11) . . ?
C15 C16 H16A 109.5 . . ?
C15 C16 H16B 109.5 . . ?
H16A C16 H16B 109.5 . . ?
C15 C16 H16C 109.5 . . ?
H16A C16 H16C 109.5 . . ?
H16B C16 H16C 109.5 . . ?
C5 C17 H17A 109.5 . . ?
C5 C17 H17B 109.5 . . ?
H17A C17 H17B 109.5 . . ?
C5 C17 H17C 109.5 . . ?
H17A C17 H17C 109.5 . . ?
H17B C17 H17C 109.5 . . ?
loop_
_geom_bond_atom_site_label_1
_geom_bond_atom_site_label_2
_geom_bond_distance
_geom_bond_site_symmetry_2
_geom_bond_publ_flag
O1 C15 1.2101(18) . ?
N1 C2 1.3411(14) . ?
N1 C12A 1.3447(13) . ?
C2 C3 1.4058(15) . ?
C2 C14 1.5028(15) . ?
C3 C4 1.3926(14) . ?
C3 C15 1.5042(15) . ?
C4A C4 1.3902(14) . ?
C4A C12A 1.3939(14) . ?
C4A C5 1.5272(14) . ?
C4 H4 0.9300 . ?
C5 O13 1.4075(14) . ?
C5 O6 1.4472(14) . ?
C5 C17 1.5115(16) . ?
O6 C6A 1.3798(14) . ?
C6A C10A 1.3920(17) . ?
C6A C7 1.3933(17) . ?
C7 C8 1.382(2) . ?
C7 H7 0.9300 . ?
C8 C9 1.384(2) . ?
C8 H8 0.9300 . ?
C9 C10 1.384(2) . ?
C9 H9 0.9300 . ?
C10A C10 1.3938(17) . ?
C10A C11 1.5099(16) . ?
C10 H10 0.9300 . ?
C11 O13 1.4406(15) . ?
C11 C12 1.5181(16) . ?
C11 H11 0.9800 . ?
C12A C12 1.5020(14) . ?
C12 H12A 0.9700 . ?
C12 H12B 0.9700 . ?
C14 H14A 0.9600 . ?
C14 H14B 0.9600 . ?
C14 H14C 0.9600 . ?
C15 C16 1.493(2) . ?
C16 H16A 0.9600 . ?
C16 H16B 0.9600 . ?
C16 H16C 0.9600 . ?
C17 H17A 0.9600 . ?
C17 H17B 0.9600 . ?
C17 H17C 0.9600 . ?
loop_
_geom_torsion_atom_site_label_1
_geom_torsion_atom_site_label_2
_geom_torsion_atom_site_label_3
_geom_torsion_atom_site_label_4
_geom_torsion
_geom_torsion_site_symmetry_1
_geom_torsion_site_symmetry_2
_geom_torsion_site_symmetry_3
_geom_torsion_site_symmetry_4
_geom_torsion_publ_flag
C12A N1 C2 C3 4.37(15) . . . . ?
C12A N1 C2 C14 -176.88(10) . . . . ?
N1 C2 C3 C4 -3.91(16) . . . . ?
C14 C2 C3 C4 177.45(10) . . . . ?
N1 C2 C3 C15 176.49(10) . . . . ?
C14 C2 C3 C15 -2.15(17) . . . . ?
C12A C4A C4 C3 5.18(15) . . . . ?
C5 C4A C4 C3 -175.19(9) . . . . ?
C2 C3 C4 C4A -1.04(16) . . . . ?
C15 C3 C4 C4A 178.57(10) . . . . ?
C4 C4A C5 O13 169.15(9) . . . . ?
C12A C4A C5 O13 -11.23(14) . . . . ?
C4 C4A C5 O6 -70.38(12) . . . . ?
C12A C4A C5 O6 109.24(11) . . . . ?
C4 C4A C5 C17 48.30(14) . . . . ?
C12A C4A C5 C17 -132.08(11) . . . . ?
O13 C5 O6 C6A 48.93(11) . . . . ?
C17 C5 O6 C6A 164.56(9) . . . . ?
C4A C5 O6 C6A -72.68(11) . . . . ?
C5 O6 C6A C10A -13.50(14) . . . . ?
C5 O6 C6A C7 167.31(10) . . . . ?
O6 C6A C7 C8 -179.25(11) . . . . ?
C10A C6A C7 C8 1.56(18) . . . . ?
C6A C7 C8 C9 -0.1(2) . . . . ?
C7 C8 C9 C10 -1.0(2) . . . . ?
O6 C6A C10A C10 178.96(10) . . . . ?
C7 C6A C10A C10 -1.88(16) . . . . ?
O6 C6A C10A C11 -3.16(16) . . . . ?
C7 C6A C10A C11 176.00(10) . . . . ?
C8 C9 C10 C10A 0.6(2) . . . . ?
C6A C10A C10 C9 0.77(18) . . . . ?
C11 C10A C10 C9 -177.06(11) . . . . ?
C6A C10A C11 O13 -15.00(13) . . . . ?
C10 C10A C11 O13 162.82(10) . . . . ?
C6A C10A C11 C12 106.20(12) . . . . ?
C10 C10A C11 C12 -75.99(13) . . . . ?
C2 N1 C12A C4A 0.12(16) . . . . ?
C2 N1 C12A C12 -179.42(9) . . . . ?
C4 C4A C12A N1 -4.89(15) . . . . ?
C5 C4A C12A N1 175.47(9) . . . . ?
C4 C4A C12A C12 174.63(9) . . . . ?
C5 C4A C12A C12 -5.00(15) . . . . ?
N1 C12A C12 C11 163.88(10) . . . . ?
C4A C12A C12 C11 -15.68(14) . . . . ?
O13 C11 C12 C12A 52.47(12) . . . . ?
C10A C11 C12 C12A -68.98(12) . . . . ?
O6 C5 O13 C11 -70.24(11) . . . . ?
C17 C5 O13 C11 174.39(9) . . . . ?
C4A C5 O13 C11 49.94(12) . . . . ?
C10A C11 O13 C5 51.03(11) . . . . ?
C12 C11 O13 C5 -73.29(11) . . . . ?
C4 C3 C15 O1 -131.31(14) . . . . ?
C2 C3 C15 O1 48.29(18) . . . . ?
C4 C3 C15 C16 48.71(16) . . . . ?
C2 C3 C15 C16 -131.70(13) . . . . ?
