#------------------------------------------------------------------------------
#$Date: 2022-05-05 23:50:32 +0300 (Thu, 05 May 2022) $
#$Revision: 275047 $
#$URL: file:///home/coder/svn-repositories/cod/cif/7/06/12/7061270.cif $
#------------------------------------------------------------------------------
#
# This file is available in the Crystallography Open Database (COD),
# http://www.crystallography.net/
#
# All data on this site have been placed in the public domain by the
# contributors.
#
data_7061270
loop_
_publ_author_name
'Ibrahim, Mukaila A.'
'Boer\'e, Ren\'e T.'
_publ_section_title
;
 The copper sulfate hydration cycle. Crystal structures of CuSO4
 (Chalcocyanite), CuSO4&#x00B7;H2O (Poitevinite), CuSO4&#x00B7;3H2O
 (Bonattite) and CuSO4&#x00B7;5H2O (Chalcanthite) at low temperature using
 non-spherical atomic scattering factors
;
_journal_issue                   12
_journal_name_full               'New Journal of Chemistry'
_journal_page_first              5479
_journal_page_last               5488
_journal_paper_doi               10.1039/D2NJ00169A
_journal_volume                  46
_journal_year                    2022
_chemical_formula_moiety         'Cu H8 O8 S, H2 O'
_chemical_formula_sum            'Cu H10 O9 S'
_chemical_formula_weight         249.686
_space_group_crystal_system      triclinic
_space_group_IT_number           2
_space_group_name_Hall           '-P 1'
_space_group_name_H-M_alt        'P -1'
_symmetry_Int_Tables_number      2
_atom_sites_solution_primary     dual
_audit_creation_date             2022-01-08
_audit_creation_method
;
Olex2 1.5
(compiled 2021.12.09 svn.r5202d8cf for OlexSys, GUI svn.r6439)
;
_audit_update_record
;
2022-01-10 deposited with the CCDC.	2022-02-02 downloaded from the CCDC.
;
_cell_angle_alpha                77.224(3)
_cell_angle_beta                 82.387(2)
_cell_angle_gamma                72.434(3)
_cell_formula_units_Z            2
_cell_length_a                   5.9676(2)
_cell_length_b                   6.0957(2)
_cell_length_c                   10.6366(3)
_cell_measurement_reflns_used    10138
_cell_measurement_temperature    100.00(10)
_cell_measurement_theta_max      38.2480
_cell_measurement_theta_min      3.5350
_cell_volume                     358.85(2)
_computing_cell_refinement       'CrysAlisPro 1.171.41.116a (Rigaku OD, 2021)'
_computing_data_collection       'CrysAlisPro 1.171.41.116a (Rigaku OD, 2021)'
_computing_data_reduction        'CrysAlisPro 1.171.41.116a (Rigaku OD, 2021)'
_computing_molecular_graphics    'Olex2 1.5 (Dolomanov et al., 2009)'
_computing_publication_material  'Olex2 1.5 (Dolomanov et al., 2009)'
_computing_structure_refinement  'olex2.refine 1.5 (Bourhis et al., 2015)'
_computing_structure_solution    'SHELXT 2018/2 (Sheldrick, 2018)'
_diffrn_ambient_environment      N~2~
_diffrn_ambient_temperature      100.00(10)
_diffrn_detector                 'Hybrid Pixel Array Detector'
_diffrn_detector_area_resol_mean 5.8140
_diffrn_detector_type            'Pilatus 200K'
_diffrn_measured_fraction_theta_full 0.9992
_diffrn_measured_fraction_theta_max 0.9344
_diffrn_measurement_details
;
List of Runs (angles in degrees, time in seconds):

  # Type    Start    End  Width  t~exp~   \w     \q     \k     \f   Frames
#--------------------------------------------------------------------------
  1  \w     37.00  91.00   0.50    0.66    --   22.41-178.00   0.00  108
  2  \w     39.00  91.00   0.50    0.66    --   22.41 178.00  60.00  104
  3  \w    -29.00  41.00   0.50    0.66    --  -25.54  38.00  90.00  140
  4  \w    -77.00 -27.00   0.50    0.66    --  -25.54 125.00 -92.32  100
  5  \w    -36.00  -6.00   0.50    0.66    --  -25.54 -73.00  21.11   60
  6  \w    -95.00  44.00   0.50    0.66    --  -25.54   0.00 -90.00  278
  7  \w    -89.00 -37.00   0.50    0.66    --  -25.54 145.00  66.26  104
  8  \w    -37.00  38.00   0.50    0.66    --  -25.54  57.00  30.00  150
  9  \w    -23.00   7.00   0.50    0.66    --  -25.54 -92.00 -52.16   60
 10  \w    -14.00  13.00   0.50    0.66    --  -25.54-104.00-178.69   54
 11  \w    -81.00 -30.00   0.50    0.66    --  -25.54 132.00 107.74  102
 12  \w    -24.00   6.00   0.50    0.66    --  -25.54 -91.00-168.86   60
 13  \w    -95.00  44.00   0.50    0.66    --  -25.54   0.00 -90.00  278
 14  \w    -89.00 -14.00   0.50    0.66    --  -25.54 -57.00 120.00  150
 15  \w    -92.00 -22.00   0.50    0.66    --  -25.54 -38.00 -90.00  140
 16  \w    -14.00  13.00   0.50    0.66    --  -25.54-104.00 -16.30   54
 17  \w    -89.00 -14.00   0.50    0.66    --  -25.54 -57.00  60.00  150
 18  \w    -89.00 -14.00   0.50    0.66    --  -25.54 -57.00-180.00  150
 19  \w    -49.00  21.00   0.50    0.66    --  -25.54  77.00-150.00  140
 20  \w    -90.00 -37.00   0.50    0.66    --  -25.54 146.00 -14.46  106
 21  \w    -92.00 -37.00   0.50    0.66    --  -25.54 -38.00-120.00  110
 22  \w    -36.00  -6.00   0.50    0.66    --  -25.54 -72.00-131.33   60
;
_diffrn_measurement_device       'four-circle diffractometer'
_diffrn_measurement_device_type
'SuperNova, Dual, Cu at home/near, Pilatus 200K'
_diffrn_measurement_method       '\w scans'
_diffrn_orient_matrix_type
'CrysAlisPro convention (1999,Acta A55,543-557)'
_diffrn_orient_matrix_UB_11      0.0261332000
_diffrn_orient_matrix_UB_12      -0.1084481000
_diffrn_orient_matrix_UB_13      -0.0207348000
_diffrn_orient_matrix_UB_21      0.0956846000
_diffrn_orient_matrix_UB_22      -0.0469526000
_diffrn_orient_matrix_UB_23      0.0402417000
_diffrn_orient_matrix_UB_31      -0.0760451000
_diffrn_orient_matrix_UB_32      -0.0387255000
_diffrn_orient_matrix_UB_33      0.0514748000
_diffrn_radiation_monochromator  mirror
_diffrn_radiation_probe          x-ray
_diffrn_radiation_type           'Mo K\a'
_diffrn_radiation_wavelength     0.71073
_diffrn_reflns_av_R_equivalents  0.0463
_diffrn_reflns_av_unetI/netI     0.0349
_diffrn_reflns_Laue_measured_fraction_full 0.9992
_diffrn_reflns_Laue_measured_fraction_max 0.9344
_diffrn_reflns_limit_h_max       10
_diffrn_reflns_limit_h_min       -10
_diffrn_reflns_limit_k_max       10
_diffrn_reflns_limit_k_min       -10
_diffrn_reflns_limit_l_max       18
_diffrn_reflns_limit_l_min       -17
_diffrn_reflns_number            18712
_diffrn_reflns_point_group_measured_fraction_full 0.9992
_diffrn_reflns_point_group_measured_fraction_max 0.9344
_diffrn_reflns_theta_full        25.2417
_diffrn_reflns_theta_max         38.30
_diffrn_reflns_theta_min         3.57
_diffrn_source                   'micro-focus sealed X-ray tube'
_diffrn_source_type              'SuperNova (Mo) X-ray Source'
_exptl_absorpt_coefficient_mu    3.350
_exptl_absorpt_correction_T_max  1.00000
_exptl_absorpt_correction_T_min  0.91744
_exptl_absorpt_correction_type   multi-scan
_exptl_absorpt_process_details
;
CrysAlisPro 1.171.41.116a (Rigaku Oxford Diffraction, 2021)
Empirical absorption correction using spherical harmonics,
implemented in SCALE3 ABSPACK scaling algorithm.
;
_exptl_crystal_colour            'clear blue'
_exptl_crystal_colour_lustre     clear
_exptl_crystal_colour_primary    blue
_exptl_crystal_density_diffrn    2.311
_exptl_crystal_description       irregular
_exptl_crystal_F_000             255.197
_exptl_crystal_size_max          0.222
_exptl_crystal_size_mid          0.173
_exptl_crystal_size_min          0.135
_refine_diff_density_max         0.5598
_refine_diff_density_min         -0.6281
_refine_diff_density_rms         0.1423
_refine_ls_d_res_high            0.5734
_refine_ls_d_res_low             5.7037
_refine_ls_goodness_of_fit_ref   1.0757
_refine_ls_hydrogen_treatment    refall
_refine_ls_matrix_type           full
_refine_ls_number_constraints    0
_refine_ls_number_parameters     193
_refine_ls_number_reflns         3729
_refine_ls_number_restraints     70
_refine_ls_restrained_S_all      1.0652
_refine_ls_R_factor_all          0.0290
_refine_ls_R_factor_gt           0.0249
_refine_ls_shift/su_max          -0.0001
_refine_ls_shift/su_mean         0.0000
_refine_ls_structure_factor_coef Fsqd
_refine_ls_weighting_details
'w=1/[\s^2^(Fo^2^)+(0.0178P)^2^] where P=(Fo^2^+2Fc^2^)/3'
_refine_ls_weighting_scheme      calc
_refine_ls_wR_factor_gt          0.0494
_refine_ls_wR_factor_ref         0.0513
_reflns_Friedel_coverage         0.0
_reflns_limit_h_max              10
_reflns_limit_h_min              -9
_reflns_limit_k_max              10
_reflns_limit_k_min              -10
_reflns_limit_l_max              18
_reflns_limit_l_min              0
_reflns_number_gt                3369
_reflns_number_total             3729
_reflns_threshold_expression     I>=2u(I)
_iucr_refine_instructions_details
;
TITL rb21086i_a.res in P-1
REM Old TITL rb21086i_a.res in P-1
REM SHELXT solution in P-1: R1 0.040, Rweak 0.005, Alpha 0.037
REM <I/s> 0.000 for 0 systematic absences, Orientation as input
REM Formula found by SHELXT: Cu O9 S
CELL 0.71073 5.9676 6.0957 10.6366 77.224 82.387 72.434
ZERR 2 0.0002 0.0002 0.0003 0.003 0.002 0.003
LATT 1
SFAC Cu H O S
UNIT 2 20 18 2
EQIV $1 -1+X,+Y,+Z
EQIV $2 1-X,1-Y,1-Z
EQIV $3 1+X,+Y,+Z
EQIV $4 2-X,1-Y,-Z
EQIV $5 2-X,2-Y,-Z
EQIV $6 1-X,1-Y,-Z
EQIV $7 1-X,-Y,1-Z
EQIV $8 +X,-1+Y,1+Z
RIGU 
ISOR 0.01 0.01 H1a H1b H3a H3b H4a H4b H5a H5b
ISOR 0.005 0.005 H2a H2b
DFIX 0.989 O5 H5a O5 H5b O2 H2a O2 H2b O1 H1b O1 H1a O4 H4a O4 H4b O3 H3b =
 O3 H3a

L.S. 30
PLAN  4
SIZE 0.135 0.173 0.222
TEMP -173
CONF
HTAB O1 O8_$1
HTAB O1 O5
HTAB O2 O3_$8
HTAB O2 O9_$2
HTAB O2 O5_$3
HTAB O3 O7_$4
HTAB O3 O8_$5
HTAB O4 O7_$6
HTAB O4 O8_$4
HTAB O5 O6_$7
HTAB O5 O9_$2
HTAB O1 O6_$1
BOND 
list 4
fmap 2 53
ACTA 
MORE -1
BOND $H
WGHT 0.017804 0
FVAR 1.008954
REM <olex2.extras>
REM <HklSrc "%.\\RB21086i.hkl">
REM </olex2.extras>

Cu1   1     0.50000  0.50000  0.50000  10.50000  0.00553  0.00520  0.00553 =
 -0.00123 -0.00063 -0.00173 
S1    4     0.87394  0.51417  0.21429  11.00000  0.00437  0.00418  0.00522 =
 -0.00137  0.00030 -0.00119 
O1    3     0.35103  0.31497  0.42559  11.00000  0.00987  0.00945  0.00894 =
 -0.00184 -0.00147 -0.00455 
H1a   2     0.24365  0.39467  0.35916  11.00000  0.02418  0.02741  0.02380 =
 -0.00932 -0.00128 -0.00607 
H1b   2     0.26883  0.22119  0.48593  11.00000  0.02003  0.01778  0.02473 =
 -0.00295  0.00480 -0.00784 
Cu2   1     0.50000  1.00000  0.00000  10.50000  0.00487  0.00474  0.00626 =
 -0.00229  0.00139 -0.00219 
O2    3     0.65298  0.20875  0.61817  11.00000  0.00897  0.00829  0.00796 =
 -0.00051 -0.00078 -0.00216 
H2a   2     0.57380  0.19846  0.70418  11.00000  0.01953  0.01861  0.01882 =
 -0.00331  0.00092 -0.00646 
H2b   2     0.81833  0.16121  0.62407  11.00000  0.02254  0.02044  0.01536 =
 -0.00397 -0.00121 -0.00601 
O3    3     0.79729  1.03431 -0.09523  11.00000  0.00816  0.00801  0.01833 =
 -0.00227  0.00493 -0.00229 
H3a   2     0.93497  0.90455 -0.10403  11.00000  0.03304  0.02623  0.01603 =
 -0.00858 -0.00071 -0.01219 
H3b   2     0.84491  1.17719 -0.12212  11.00000  0.02973  0.02504  0.02568 =
 -0.00843 -0.00316 -0.00491 
O4    3     0.52005  0.74121 -0.08269  11.00000  0.00739  0.01253  0.02334 =
 -0.01231  0.00089 -0.00271 
H4a   2     0.38886  0.69677 -0.09838  11.00000  0.03225  0.02714  0.02685 =
 -0.00232 -0.00385 -0.00776 
H4b   2     0.66591  0.64778 -0.11696  11.00000  0.02638  0.02726  0.03420 =
 -0.00395 -0.00196 -0.01014 
O6    3     0.82533  0.40490  0.34940  11.00000  0.00968  0.00683  0.00698 =
 -0.00030  0.00128 -0.00216 
O7    3     0.86238  0.36289  0.12590  11.00000  0.00789  0.00917  0.01044 =
 -0.00520 -0.00114 -0.00218 
O8    3     1.11579  0.54340  0.19998  11.00000  0.00614  0.00806  0.00946 =
 -0.00280  0.00041 -0.00316 
O9    3     0.70303  0.74810  0.18336  11.00000  0.00883  0.00631  0.00792 =
 -0.00082 -0.00051  0.00113 

O5    3     0.13125  0.06638  0.62509  11.00000  0.01010  0.00748  0.01170 =
 -0.00226  0.00006 -0.00225 
H5a   2     0.16869 -0.10009  0.62844  11.00000  0.04212  0.04479  0.03841 =
 -0.00677 -0.00092 -0.01198 
H5b   2     0.20320  0.08861  0.69546  11.00000  0.03436  0.02832  0.03573 =
 -0.00624 -0.00301 -0.01560 
HKLF 4

END
Q1 1 0.2963 0.25926 0.58333 11 0.05 0.56
Q2 1 1.25926 0.59259 0.125 11 0.05 0.48
Q3 1 0.555556 0.925926 0.0625 11 0.05 0.47

  REM The information below was added by Olex2.
  REM
  REM R1 = 0.0249 for 3369 Fo > 4sig(Fo) and 0.0290 for all 3729 data
  REM 193 parameters refined using 70 restraints
  REM Highest difference peak 0.5598, deepest hole -0.6281
  REM Mean Shift 0.0000, Max Shift -0.0001.

  REM +++ Tabular Listing of Refinement Information +++
  REM R1_all = 0.0290
  REM R1_gt = 0.0249
  REM wR_ref = 0.0513
  REM GOOF = 1.0757
  REM Shift_max = -0.0001
  REM Shift_mean = 0.0000
  REM Reflections_all = 3729
  REM Reflections_gt = 3369
  REM Parameters = 193
  REM Hole = -0.6281
  REM Peak = 0.5598
  REM Flack = n/a

  
;
_cod_data_source_file            d2nj00169a2.cif
_cod_data_source_block           RB21086i
_cod_depositor_comments
'Adding full bibliography for 7061267--7061270.cif.'
_cod_database_code               7061270
_chemical_oxdiff_formula         'Cu C O9 H10'
_chemical_oxdiff_usercomment     Mo
_olex2_refinement_description
;
1. Restrained distances
 O5-H5a = O5-H5b = O2-H2a = O2-H2b = O1-H1b = O1-H1a = O4-H4a = O4-H4b = O3-
 H3b = O3-H3a
 0.989 with sigma of 0.02
2. Uiso/Uaniso restraints and constraints
Uanis(H1a) \\sim Ueq, Uanis(H1b) \\sim Ueq, Uanis(H3a) \\sim Ueq, Uanis(H3b)
\\sim Ueq, Uanis(H4a) \\sim Ueq, Uanis(H4b) \\sim Ueq, Uanis(H5a) \\sim Ueq,
Uanis(H5b) \\sim Ueq: with sigma of 0.01 and sigma for terminal atoms of 0.01
Uanis(H2a) \\sim Ueq, Uanis(H2b) \\sim Ueq: with sigma of 0.005 and sigma for
terminal atoms of 0.005
3. Rigid body (RIGU) restrains
 All non-hydrogen atoms
 with sigma for 1-2 distances of 0.004 and sigma for 1-3 distances of 0.004
;
_iucr_refine_fcf_details
;
data_RB21086i_CCDC1
_computing_structure_refinement   'olex2.refine 1.5 (Bourhis et al., 2015)'
_shelx_refln_list_code            4
loop_
  _space_group_symop_id
  _space_group_symop_operation_xyz
  1  x,y,z
  2  -x,-y,-z

_space_group_crystal_system       triclinic
_space_group_IT_number            2
_space_group_name_H-M_alt         'P -1'
_space_group_name_Hall            '-P 1'
_symmetry_space_group_name_H-M    'P -1'
_symmetry_space_group_name_Hall   '-P 1'
_symmetry_Int_Tables_number       2
_cell_length_a                    5.9676(2)
_cell_length_b                    6.0957(2)
_cell_length_c                    10.6366(3)
_cell_angle_alpha                 77.224(3)
_cell_angle_beta                  82.387(2)
_cell_angle_gamma                 72.434(3)
_cell_volume                      358.85(2)
loop_
  _refln_index_h
  _refln_index_k
  _refln_index_l
  _refln_F_squared_calc
  _refln_F_squared_meas
  _refln_F_squared_sigma
  _refln_F_squared_weight
  _refln_observed_status
-9 -6 1 22.831 28.399 11.454 9.233 o
-9 -5 1 336.811 298.364 25.389 1.790 o
-9 -5 2 0.636 1.061 3.964 77.213 o
-9 -5 3 288.019 268.670 24.422 1.952 o
-9 -4 1 23.292 15.786 8.490 16.796 o
-9 -4 2 560.546 558.871 34.074 0.962 o
-9 -4 3 0.013 -0.390 4.184 69.281 o
-9 -4 4 91.357 99.154 22.323 2.421 o
-9 -3 1 240.681 238.730 20.166 2.855 o
-9 -3 2 76.321 86.165 10.610 10.587 o
-9 -3 3 266.993 259.792 18.649 3.279 o
-9 -3 4 32.096 29.938 8.376 17.214 o
-9 -3 5 325.912 361.844 22.975 2.151 o
-9 -2 1 49.126 52.547 7.871 19.330 o
-9 -2 2 582.471 597.649 28.513 1.315 o
-9 -2 3 115.016 124.898 12.618 7.413 o
-9 -2 4 14.254 5.294 5.308 42.994 o
-9 -2 5 9.495 5.411 2.862 147.764 o
-9 -2 6 363.131 329.316 36.405 0.889 o
-9 -1 1 231.532 244.666 13.275 6.257 o
-9 -1 2 71.256 64.496 7.479 21.118 o
-9 -1 3 311.536 314.147 17.390 3.639 o
-9 -1 4 227.981 272.833 17.357 3.791 o
-9 -1 5 224.643 209.480 14.222 5.576 o
-9 -1 6 20.167 32.613 10.688 10.603 o
-9 0 1 16.305 14.236 3.771 84.830 o
-9 0 2 548.348 558.581 45.502 0.560 o
-9 0 3 1.942 -1.497 1.942 321.481 o
-9 0 4 93.706 94.937 9.448 13.177 o
-9 0 5 42.399 45.661 9.976 12.117 o
-9 0 6 309.189 328.805 35.079 0.961 o
-9 1 1 120.355 124.841 9.699 12.281 o
-9 1 2 113.680 98.891 8.378 16.408 o
-9 1 3 86.950 92.655 10.678 10.410 o
-9 1 4 80.645 75.278 11.255 9.430 o
-9 2 2 475.012 475.791 41.582 0.674 o
-8 -7 1 37.304 54.893 15.698 4.911 o
-8 -7 2 0.226 7.780 6.719 26.869 o
-8 -7 3 469.915 567.138 51.140 0.450 o
-8 -6 1 134.618 119.599 22.299 2.414 o
-8 -6 2 175.342 194.020 28.664 1.458 o
-8 -6 3 129.553 145.687 17.401 3.932 o
-8 -6 4 360.899 353.148 27.892 1.482 o
-8 -6 5 45.401 59.620 11.767 8.711 o
-8 -5 1 77.954 78.665 11.626 8.849 o
-8 -5 2 135.873 140.237 23.566 2.161 o
-8 -5 3 563.274 572.757 50.010 0.466 o
-8 -5 4 10.017 0.005 3.703 88.359 o
-8 -5 5 86.866 66.338 12.032 8.263 o
-8 -5 6 23.370 28.874 6.778 26.291 o
-8 -4 1 2.663 0.420 2.286 232.165 o
-8 -4 2 119.136 90.837 10.353 10.929 o
-8 -4 3 35.241 41.531 17.225 4.082 o
-8 -4 4 358.771 326.978 25.373 1.778 o
-8 -4 5 173.736 171.339 18.302 3.522 o
-8 -4 6 120.921 149.134 13.978 6.043 o
-8 -4 7 35.874 36.694 6.187 31.355 o
-8 -4 8 31.005 21.444 10.088 11.890 o
-8 -3 1 8.403 6.078 1.991 304.496 o
-8 -3 2 57.170 51.416 5.280 42.053 o
-8 -3 3 451.181 459.393 19.049 2.833 o
-8 -3 4 20.203 19.835 7.256 22.985 o
-8 -3 5 109.322 66.538 11.385 9.157 o
-8 -3 6 8.814 4.802 3.229 116.145 o
-8 -3 7 582.871 582.352 29.072 1.273 o
-8 -3 8 111.609 117.282 17.672 3.834 o
-8 -2 1 44.024 30.545 3.519 94.191 o
-8 -2 2 6.737 8.850 2.569 183.368 o
-8 -2 3 91.971 99.011 10.158 11.445 o
-8 -2 4 756.752 743.560 26.151 1.405 o
-8 -2 5 268.338 277.173 15.408 4.653 o
-8 -2 6 539.551 572.546 23.385 1.887 o
-8 -2 7 35.295 36.113 5.615 37.991 o
-8 -2 8 52.216 58.771 8.953 14.958 o
-8 -1 1 186.079 189.780 8.960 13.272 o
-8 -1 2 309.239 308.560 10.758 8.309 o
-8 -1 3 869.212 850.445 32.048 0.960 o
-8 -1 4 90.349 99.111 9.038 14.365 o
-8 -1 5 29.484 27.259 4.500 59.139 o
-8 -1 6 1.968 -1.892 1.945 320.649 o
-8 -1 7 658.508 668.785 26.136 1.476 o
-8 -1 8 21.878 12.017 4.426 61.591 o
-8 -1 9 35.737 45.452 13.006 7.151 o
-8 0 1 71.771 72.310 5.820 34.163 o
-8 0 2 53.701 53.235 4.853 49.590 o
-8 0 3 216.049 192.672 18.049 3.573 o
-8 0 4 447.521 443.095 20.366 2.539 o
-8 0 5 163.860 172.784 12.594 7.245 o
-8 0 6 56.200 46.173 7.600 20.686 o
-8 0 7 13.447 12.031 3.816 82.998 o
-8 0 8 274.950 269.980 16.443 4.126 o
-8 0 9 93.539 118.832 21.169 2.687 o
-8 1 1 70.439 70.483 5.701 35.601 o
-8 1 2 0.362 -0.283 1.213 824.643 o
-8 1 3 476.595 473.675 14.850 4.151 o
-8 1 4 57.222 57.717 6.388 28.983 o
-8 1 5 137.558 141.359 10.224 10.965 o
-8 1 6 141.166 123.701 10.773 9.954 o
-8 1 7 444.117 436.600 25.099 1.754 o
-8 1 8 24.104 45.696 16.277 4.573 o
-8 2 1 0.174 -0.856 1.970 312.463 o
-8 2 2 11.890 8.688 2.141 262.410 o
-8 2 3 1.210 1.082 1.768 388.045 o
-8 2 4 229.166 238.666 13.244 6.301 o
-8 2 5 151.974 151.575 13.852 6.091 o
-8 2 6 152.341 149.091 12.029 7.984 o
-8 2 7 95.690 116.357 20.423 2.885 o
-8 3 1 357.887 377.821 17.039 3.649 o
-8 3 2 58.857 59.340 6.581 27.313 o
-8 3 3 154.281 146.973 11.456 8.755 o
-8 3 4 67.958 77.536 12.716 7.428 o
-7 -8 1 55.804 56.547 7.362 21.980 o
-7 -8 2 76.648 44.637 13.419 6.686 o
-7 -8 3 123.362 108.970 21.081 2.703 o
-7 -7 1 615.023 657.000 36.193 0.845 o
-7 -7 2 43.687 71.633 11.773 8.697 o
-7 -7 3 57.886 58.822 10.963 10.004 o
-7 -7 4 83.611 71.585 12.022 8.279 o
-7 -7 5 314.724 316.662 25.952 1.721 o
-7 -6 1 401.071 395.346 22.915 2.108 o
-7 -6 2 224.227 229.250 14.088 5.651 o
-7 -6 3 16.419 6.949 4.240 67.273 o
-7 -6 4 553.876 577.109 48.969 0.486 o
-7 -6 5 0.283 7.309 6.307 30.499 o
-7 -6 6 77.599 90.524 13.787 6.311 o
-7 -6 7 57.840 67.613 9.811 12.450 o
-7 -5 1 1410.390 1489.540 39.783 0.542 o
-7 -5 2 5.063 3.092 3.562 95.589 o
-7 -5 3 48.802 44.058 12.176 8.144 o
-7 -5 4 12.003 8.082 6.493 28.748 o
-7 -5 5 440.962 458.316 24.508 1.827 o
-7 -5 6 148.769 144.778 13.586 6.335 o
-7 -5 7 76.842 95.798 11.210 9.488 o
-7 -5 8 90.735 97.684 11.484 9.011 o
-7 -4 1 76.143 67.745 6.910 24.530 o
-7 -4 2 281.900 293.259 14.674 5.030 o
-7 -4 3 247.054 250.165 26.336 1.701 o
-7 -4 4 41.037 36.806 10.476 11.003 o
-7 -4 5 194.718 205.250 15.361 4.883 o
-7 -4 6 92.695 104.626 9.572 12.825 o
-7 -4 7 34.161 42.739 6.212 31.083 o
-7 -4 8 1176.800 1141.330 36.304 0.694 o
-7 -4 9 6.274 6.541 2.682 168.321 o
-7 -4 10 8.527 8.796 5.283 43.434 o
-7 -3 1 677.558 654.894 17.324 2.742 o
-7 -3 2 168.635 170.529 8.194 15.915 o
-7 -3 3 4.182 6.043 2.108 272.423 o
-7 -3 4 26.223 23.470 4.045 73.224 o
-7 -3 5 674.509 672.747 20.997 2.074 o
-7 -3 6 74.276 77.069 7.851 19.123 o
-7 -3 7 177.520 190.777 12.888 6.869 o
-7 -3 8 101.203 100.560 8.461 16.214 o
-7 -3 9 572.790 556.569 27.749 1.391 o
-7 -3 10 94.090 91.693 11.155 9.538 o
-7 -2 1 3.794 4.319 1.584 482.466 o
-7 -2 2 487.987 458.025 12.161 5.507 o
-7 -2 3 109.194 106.918 7.351 20.999 o
-7 -2 4 678.759 685.004 23.556 1.728 o
-7 -2 5 325.782 382.464 19.612 2.873 o
-7 -2 6 323.693 327.966 14.425 5.021 o
-7 -2 7 40.252 47.389 4.934 48.675 o
-7 -2 8 395.561 409.276 22.132 2.244 o
-7 -2 9 28.294 31.165 8.215 17.904 o
-7 -2 10 18.687 22.578 7.523 21.386 o
-7 -1 1 1296.170 1323.470 23.235 1.123 o
-7 -1 2 1.767 1.168 1.138 936.701 o
-7 -1 3 4.295 6.238 1.354 659.002 o
-7 -1 4 19.814 13.528 4.907 50.168 o
-7 -1 5 853.952 890.071 37.317 0.744 o
-7 -1 6 0.044 -0.233 2.098 275.571 o
-7 -1 7 188.845 188.886 13.262 6.481 o
-7 -1 8 38.122 42.575 5.445 40.247 o
-7 -1 9 235.289 223.838 16.893 4.012 o
-7 -1 10 194.213 186.729 15.688 4.706 o
-7 -1 11 108.099 70.924 18.104 3.669 o
-7 0 1 74.497 71.060 4.897 47.223 o
-7 0 2 835.947 835.707 18.163 2.200 o
-7 0 3 45.887 46.297 3.693 84.783 o
-7 0 4 189.557 185.636 7.838 16.693 o
-7 0 5 230.745 228.911 13.723 5.914 o
-7 0 6 51.667 55.676 5.464 39.452 o
-7 0 7 219.197 233.112 12.674 6.872 o
-7 0 8 383.927 356.289 21.586 2.377 o
-7 0 9 1.708 1.343 2.274 234.470 o
-7 0 10 91.937 108.081 11.880 8.416 o
-7 0 11 0.024 0.637 3.698 88.685 o
-7 1 1 403.657 374.703 14.600 4.624 o
-7 1 2 29.540 28.983 3.356 105.168 o
-7 1 3 81.793 79.083 5.122 42.857 o
-7 1 4 0.727 1.205 1.333 682.238 o
-7 1 5 521.706 530.352 13.846 4.349 o
-7 1 6 0.263 0.077 1.894 338.282 o
-7 1 7 11.065 12.639 3.504 98.453 o
-7 1 8 8.089 6.847 2.624 175.681 o
-7 1 9 726.489 737.390 25.081 1.520 o
-7 1 10 128.163 140.562 10.588 10.311 o
-7 1 11 227.701 200.543 28.271 1.490 o
-7 2 1 3.137 2.985 1.462 566.678 o
-7 2 2 348.131 343.429 11.416 7.203 o
-7 2 3 11.715 10.793 2.185 251.832 o
-7 2 4 250.640 254.399 9.480 11.030 o
-7 2 5 33.718 37.522 3.597 91.040 o
-7 2 6 264.960 232.961 12.566 6.800 o
-7 2 7 108.558 109.370 9.919 11.876 o
-7 2 8 259.532 301.931 18.949 3.169 o
-7 2 9 74.440 75.564 8.499 16.393 o
-7 2 10 100.916 109.048 11.727 8.608 o
-7 3 1 481.256 471.347 16.440 3.540 o
-7 3 2 3.324 0.652 1.470 560.714 o
-7 3 3 99.159 100.509 6.992 23.314 o
-7 3 4 5.137 5.646 1.888 339.332 o
-7 3 5 419.036 424.301 16.436 3.718 o
-7 3 6 19.881 17.600 5.913 34.578 o
-7 3 7 30.194 34.106 12.554 7.682 o
-7 3 8 96.998 95.767 20.383 2.899 o
-7 3 9 339.905 294.954 31.160 1.208 o
-7 4 1 7.031 12.415 3.672 89.801 o
-7 4 2 879.384 887.549 29.903 1.063 o
-7 4 3 0.153 3.730 2.369 216.075 o
-7 4 4 28.641 26.531 5.308 42.679 o
-7 4 5 112.955 123.054 11.810 8.438 o
-7 4 6 23.018 15.678 8.743 15.843 o
-7 5 1 114.224 139.457 35.550 0.956 o
-7 5 2 80.497 92.405 13.331 6.740 o
-7 5 3 148.117 147.712 27.181 1.627 o
-6 -9 1 72.534 44.455 9.392 13.559 o
-6 -9 2 5.754 12.992 5.391 41.708 o
-6 -9 3 170.414 130.296 21.896 2.490 o
-6 -8 1 286.916 266.320 15.743 4.448 o
-6 -8 2 486.436 492.801 19.838 2.585 o
-6 -8 3 78.211 84.389 10.645 10.517 o
-6 -8 4 25.782 16.994 8.311 17.523 o
-6 -8 5 92.961 82.643 17.652 3.862 o
-6 -7 1 38.619 40.566 6.734 26.468 o
-6 -7 2 12.762 12.917 3.803 83.564 o
-6 -7 3 302.741 293.893 18.598 3.240 o
-6 -7 4 13.248 16.884 5.864 35.213 o
-6 -7 5 220.277 204.056 16.455 4.250 o
-6 -7 6 145.265 146.193 12.080 7.947 o
-6 -7 7 192.498 196.691 15.350 4.901 o
-6 -6 1 8.046 8.328 3.180 119.734 o
-6 -6 2 981.651 978.126 35.100 0.789 o
-6 -6 3 23.378 31.986 5.023 47.665 o
-6 -6 4 165.157 151.351 11.262 8.986 o
-6 -6 5 36.667 38.303 7.212 23.128 o
-6 -6 6 170.811 159.830 15.290 4.999 o
-6 -6 7 19.243 14.808 4.152 69.979 o
-6 -6 8 14.782 14.076 4.666 55.538 o
-6 -5 1 198.057 206.761 12.104 7.615 o
-6 -5 2 0.087 1.268 2.736 161.996 o
-6 -5 3 703.342 695.569 37.772 0.767 o
-6 -5 4 2.061 -0.509 2.100 275.110 o
-6 -5 5 238.237 249.568 16.843 4.014 o
-6 -5 6 63.508 50.786 9.564 13.102 o
-6 -5 7 61.437 54.993 19.902 3.054 o
-6 -5 8 110.381 98.488 21.253 2.665 o
-6 -5 9 300.429 326.421 26.411 1.667 o
-6 -5 10 26.003 22.048 12.844 7.345 o
-6 -4 1 295.181 305.460 14.552 5.054 o
-6 -4 2 642.871 644.105 19.448 2.381 o
-6 -4 3 25.584 26.655 4.209 67.677 o
-6 -4 4 35.261 41.194 6.392 29.374 o
-6 -4 5 12.806 12.447 4.791 52.738 o
-6 -4 6 668.028 649.091 28.133 1.304 o
-6 -4 7 14.494 18.811 4.777 52.962 o
-6 -4 8 122.863 120.481 12.264 7.820 o
-6 -4 9 125.596 125.956 10.542 10.444 o
-6 -4 10 499.058 502.222 26.084 1.597 o
-6 -4 11 136.322 107.632 12.618 7.383 o
-6 -3 1 302.090 332.875 12.934 6.120 o
-6 -3 2 2.362 1.580 1.256 768.808 o
-6 -3 3 1443.260 1368.190 62.489 0.267 o
-6 -3 4 15.764 12.054 2.768 156.928 o
-6 -3 5 80.278 81.735 8.698 15.610 o
-6 -3 6 152.213 146.485 10.345 10.624 o
-6 -3 7 304.528 302.046 15.450 4.527 o
-6 -3 8 66.530 50.649 6.279 29.871 o
-6 -3 9 704.736 754.264 27.214 1.340 o
-6 -3 10 31.655 25.512 7.777 19.966 o
-6 -3 11 77.686 85.170 10.416 10.975 o
-6 -3 12 76.218 65.154 11.653 8.826 o
-6 -2 1 2.154 2.105 1.156 907.225 o
-6 -2 2 1230.180 1225.030 24.641 1.118 o
-6 -2 3 68.439 70.550 3.996 69.374 o
-6 -2 4 396.363 416.784 16.436 3.772 o
-6 -2 5 73.066 72.883 5.960 32.599 o
-6 -2 6 670.675 669.578 20.142 2.213 o
-6 -2 7 6.930 5.319 1.791 376.783 o
-6 -2 8 115.761 126.897 8.697 15.132 o
-6 -2 9 2.333 4.313 2.390 212.263 o
-6 -2 10 379.623 383.139 24.742 1.843 o
-6 -2 11 48.896 62.242 10.796 10.329 o
-6 -2 12 20.683 26.815 7.780 19.986 o
-6 -1 1 589.085 584.233 15.458 3.483 o
-6 -1 2 20.788 23.090 2.287 225.538 o
-6 -1 3 1472.660 1464.770 28.015 0.825 o
-6 -1 4 130.376 127.007 4.982 40.285 o
-6 -1 5 419.363 397.224 13.277 5.272 o
-6 -1 6 53.245 59.253 4.370 60.466 o
-6 -1 7 111.938 108.599 6.003 30.378 o
-6 -1 8 1.702 3.166 1.440 584.968 o
-6 -1 9 99.202 98.799 8.039 17.907 o
-6 -1 10 3.552 2.674 4.079 72.889 o
-6 -1 11 180.995 190.225 38.817 0.799 o
-6 -1 12 70.364 67.751 11.812 8.600 o
-6 0 1 257.277 278.198 8.006 14.069 o
-6 0 2 887.096 898.826 17.272 2.206 o
-6 0 3 18.098 17.192 2.071 276.462 o
-6 0 4 4.273 3.723 1.000 1205.770 o
-6 0 5 2.096 1.070 1.274 746.946 o
-6 0 6 652.103 654.183 20.547 2.177 o
-6 0 7 69.200 77.996 6.693 26.118 o
-6 0 8 180.309 189.656 11.039 9.154 o
-6 0 9 0.927 3.022 2.342 221.162 o
-6 0 10 416.667 413.958 21.292 2.387 o
-6 0 11 139.635 147.263 12.200 7.814 o
-6 0 12 171.393 179.289 20.844 2.732 o
-6 1 1 214.686 210.844 11.858 7.824 o
-6 1 2 29.287 29.197 2.876 141.990 o
-6 1 3 710.959 735.357 16.720 2.735 o
-6 1 4 127.242 121.503 5.742 31.970 o
-6 1 5 110.252 115.918 5.993 30.401 o
-6 1 6 4.506 3.905 1.293 723.008 o
-6 1 7 522.967 520.149 24.125 1.815 o
-6 1 8 78.199 70.073 6.712 25.892 o
-6 1 9 426.886 421.473 19.664 2.733 o
-6 1 10 168.371 173.768 13.608 6.242 o
-6 1 11 122.749 110.794 14.805 5.424 o
-6 1 12 5.339 -0.316 2.690 167.590 o
-6 2 1 169.851 180.846 9.413 12.359 o
-6 2 2 359.415 361.239 10.395 8.134 o
-6 2 3 28.589 24.965 2.684 163.051 o
-6 2 4 882.033 869.294 18.020 2.132 o
-6 2 5 5.366 5.690 1.618 461.874 o
-6 2 6 923.465 915.842 21.773 1.633 o
-6 2 7 86.478 82.747 6.148 30.249 o
-6 2 8 4.395 4.975 2.266 235.925 o
-6 2 9 5.695 5.154 2.280 233.014 o
-6 2 10 269.060 275.041 18.426 3.344 o
-6 2 11 9.143 6.817 4.159 70.027 o
-6 2 12 158.622 117.918 15.434 4.954 o
-6 3 1 236.615 237.779 8.946 12.400 o
-6 3 2 15.916 12.441 2.398 208.406 o
-6 3 3 565.131 579.290 14.340 3.931 o
-6 3 4 41.769 47.033 3.864 78.095 o
-6 3 5 284.519 280.425 9.931 9.780 o
-6 3 6 128.991 127.757 7.647 19.040 o
-6 3 7 269.296 282.663 11.698 7.554 o
-6 3 8 1.473 3.208 2.735 162.168 o
-6 3 9 143.182 158.485 17.081 4.061 o
-6 3 10 3.898 3.469 2.775 157.426 o
-6 3 11 102.158 107.683 12.102 8.094 o
-6 4 1 78.983 73.460 6.857 24.805 o
-6 4 2 388.169 418.241 16.803 3.647 o
-6 4 3 148.148 145.700 10.526 10.308 o
-6 4 4 166.662 159.155 11.010 9.349 o
-6 4 5 12.241 6.845 2.501 192.837 o
-6 4 6 517.945 531.278 18.742 2.771 o
-6 4 7 31.038 34.660 4.775 52.447 o
-6 4 8 9.319 17.381 4.912 50.187 o
-6 4 9 5.392 5.290 3.042 130.947 o
-6 4 10 256.380 252.891 29.951 1.322 o
-6 5 1 18.969 29.411 4.697 54.596 o
-6 5 2 0.115 -1.641 1.694 422.592 o
-6 5 3 766.873 793.535 29.001 1.176 o
-6 5 4 50.455 48.495 6.777 25.970 o
-6 5 5 86.861 81.945 9.984 11.896 o
-6 5 6 5.840 3.308 3.191 119.021 o
-6 5 7 148.113 140.552 11.200 9.179 o
-6 6 1 73.096 67.895 9.404 13.472 o
-6 6 2 164.111 155.471 14.288 5.711 o
-6 6 3 23.785 28.310 5.433 40.813 o
-6 6 4 239.298 231.436 21.068 2.628 o
-5 -9 1 403.875 389.541 23.038 2.087 o
-5 -9 2 8.137 5.662 3.590 93.980 o
-5 -9 3 524.848 511.513 26.154 1.576 o
-5 -9 4 0.056 -2.918 5.030 47.956 o
-5 -8 1 8.503 5.941 2.932 140.841 o
-5 -8 2 133.487 117.146 13.787 6.212 o
-5 -8 3 40.272 47.252 9.160 14.359 o
-5 -8 4 489.745 435.836 28.700 1.357 o
-5 -8 5 20.715 11.678 3.659 89.925 o
-5 -8 6 206.878 212.480 14.175 5.649 o
-5 -8 7 52.697 45.315 13.507 6.620 o
-5 -7 1 623.609 635.694 23.558 1.784 o
-5 -7 2 98.248 104.589 10.023 11.704 o
-5 -7 3 427.169 410.922 18.448 3.058 o
-5 -7 4 0.025 1.237 2.099 275.326 o
-5 -7 5 51.793 37.617 5.839 34.868 o
-5 -7 6 2.887 0.326 2.450 202.041 o
-5 -7 7 445.916 444.254 20.889 2.430 o
-5 -7 8 6.616 5.644 4.241 67.387 o
-5 -6 1 0.118 3.457 2.002 302.739 o
-5 -6 2 161.919 158.615 9.332 12.730 o
-5 -6 3 35.951 38.431 4.441 60.187 o
-5 -6 4 485.720 468.858 17.665 3.150 o
-5 -6 5 57.592 54.570 5.927 33.568 o
-5 -6 6 199.053 196.338 11.494 8.392 o
-5 -6 7 27.273 37.431 5.775 36.056 o
-5 -6 8 288.372 286.756 16.634 4.004 o
-5 -6 9 43.779 46.323 8.414 16.985 o
-5 -6 10 136.009 92.363 13.963 6.076 o
-5 -5 1 328.522 344.180 12.051 6.719 o
-5 -5 2 198.039 185.582 9.711 11.421 o
-5 -5 3 779.770 783.971 22.272 1.760 o
-5 -5 4 51.358 47.156 7.597 20.735 o
-5 -5 5 372.636 390.557 17.093 3.593 o
-5 -5 6 5.726 3.529 1.619 461.489 o
-5 -5 7 442.762 439.507 17.487 3.300 o
-5 -5 8 49.609 61.498 6.572 27.504 o
-5 -5 9 43.708 47.079 5.827 35.067 o
-5 -5 10 24.156 24.835 6.782 26.266 o
-5 -5 11 391.920 408.034 24.579 1.854 o
-5 -4 1 334.187 332.199 8.641 11.035 o
-5 -4 2 140.245 137.874 5.270 35.741 o
-5 -4 3 26.709 21.901 2.004 287.824 o
-5 -4 4 1623.650 1640.240 31.016 0.673 o
-5 -4 5 3.672 4.040 1.902 334.741 o
-5 -4 6 445.201 453.554 16.380 3.655 o
-5 -4 7 123.582 128.143 9.875 11.837 o
-5 -4 8 90.298 87.713 8.748 15.343 o
-5 -4 9 91.701 87.330 6.808 24.795 o
-5 -4 10 317.123 328.590 17.532 3.568 o
-5 -4 11 12.049 7.075 3.550 96.019 o
-5 -4 12 218.275 196.600 20.061 2.912 o
-5 -3 1 538.868 560.460 11.084 5.581 o
-5 -3 2 235.880 240.263 6.613 19.695 o
-5 -3 3 532.418 506.626 16.744 3.303 o
-5 -3 4 214.321 217.509 10.445 9.799 o
-5 -3 5 503.387 542.003 18.505 2.842 o
-5 -3 6 33.488 33.471 4.472 59.589 o
-5 -3 7 1562.650 1565.590 38.480 0.538 o
-5 -3 8 3.953 1.703 1.572 490.123 o
-5 -3 9 35.141 34.626 4.548 57.559 o
-5 -3 10 9.304 10.879 3.246 114.780 o
-5 -3 11 207.123 216.253 13.671 6.039 o
-5 -3 12 49.905 53.379 8.251 17.604 o
-5 -3 13 69.417 82.987 20.187 2.964 o
-5 -2 1 359.701 363.957 9.245 9.567 o
-5 -2 2 863.572 891.308 14.956 2.608 o
-5 -2 3 30.591 27.556 1.487 487.481 o
-5 -2 4 2774.290 2737.310 36.585 0.323 o
-5 -2 5 370.161 367.897 12.081 6.411 o
-5 -2 6 95.358 98.402 8.352 16.688 o
-5 -2 7 10.544 9.881 2.477 196.675 o
-5 -2 8 230.474 235.843 14.478 5.351 o
-5 -2 9 11.935 12.916 3.121 123.947 o
-5 -2 10 368.497 388.923 14.852 4.574 o
-5 -2 11 236.314 253.519 15.182 4.870 o
-5 -2 12 135.014 140.452 14.324 5.746 o
-5 -2 13 96.674 93.660 11.495 8.983 o
-5 -1 1 782.315 817.881 14.533 2.951 o
-5 -1 2 376.369 394.995 9.001 9.522 o
-5 -1 3 1807.710 1790.550 19.572 0.859 o
-5 -1 4 65.924 61.510 2.225 193.568 o
-5 -1 5 450.196 426.889 12.089 5.827 o
-5 -1 6 49.172 49.726 4.280 63.553 o
-5 -1 7 406.461 431.473 12.591 5.694 o
-5 -1 8 1.342 -0.184 1.309 708.048 o
-5 -1 9 75.218 74.393 4.679 51.242 o
-5 -1 10 0.613 2.914 1.820 366.013 o
-5 -1 11 587.048 613.374 27.572 1.390 o
-5 -1 12 6.474 8.392 2.799 154.489 o
-5 -1 13 113.582 117.602 10.845 9.960 o
-5 -1 14 25.746 53.242 15.874 4.807 o
-5 0 1 36.503 33.027 3.230 112.047 o
-5 0 2 20.834 23.375 2.570 179.647 o
-5 0 3 85.939 83.122 3.432 86.219 o
-5 0 4 845.401 854.382 13.835 2.891 o
-5 0 5 386.651 393.397 7.137 12.269 o
-5 0 6 331.247 325.529 7.528 13.324 o
-5 0 7 55.038 44.694 3.414 97.063 o
-5 0 8 786.747 790.475 22.659 1.708 o
-5 0 9 0.367 0.097 1.412 608.340 o
-5 0 10 443.219 486.224 18.100 3.079 o
-5 0 11 39.750 40.571 5.903 34.316 o
-5 0 12 71.945 65.217 7.705 19.919 o
-5 0 13 70.012 54.949 24.224 2.063 o
-5 0 14 313.126 293.245 36.611 0.885 o
-5 1 1 644.166 646.657 14.072 3.677 o
-5 1 2 159.874 173.512 5.949 27.593 o
-5 1 3 605.022 627.412 15.551 3.363 o
-5 1 4 102.746 107.593 4.954 43.337 o
-5 1 5 323.474 318.015 9.448 9.939 o
-5 1 6 255.033 258.039 9.807 10.371 o
-5 1 7 1528.740 1528.640 28.130 0.792 o
-5 1 8 49.676 45.157 5.604 37.738 o
-5 1 9 142.302 154.095 9.854 11.677 o
-5 1 10 18.240 13.531 4.159 69.787 o
-5 1 11 493.865 511.103 17.656 3.104 o
-5 1 12 71.870 68.636 9.259 13.892 o
-5 1 13 41.643 49.917 9.889 12.325 o
-5 1 14 24.406 17.732 6.377 29.716 o
-5 2 1 309.361 294.630 8.336 12.269 o
-5 2 2 331.649 330.915 8.864 10.700 o
-5 2 3 5.541 5.039 1.148 914.338 o
-5 2 4 1369.320 1359.020 21.830 1.136 o
-5 2 5 69.480 74.019 4.727 50.670 o
-5 2 6 152.243 153.996 7.508 19.020 o
-5 2 7 28.332 29.350 3.161 118.305 o
-5 2 8 1133.440 1117.350 21.257 1.418 o
-5 2 9 111.382 114.207 7.696 19.188 o
-5 2 10 135.037 129.265 10.351 10.758 o
-5 2 11 129.958 101.811 9.355 13.168 o
-5 2 12 7.486 6.033 2.274 233.822 o
-5 2 13 35.299 35.634 5.996 33.374 o
-5 2 14 361.188 323.373 36.356 0.892 o
-5 3 1 621.874 589.051 14.409 3.722 o
-5 3 2 25.210 21.230 2.384 206.786 o
-5 3 3 434.814 434.017 11.505 6.311 o
-5 3 4 122.960 121.026 5.941 30.302 o
-5 3 5 691.207 676.139 15.607 3.088 o
-5 3 6 107.886 113.074 6.560 25.900 o
-5 3 7 635.520 630.085 19.537 2.383 o
-5 3 8 19.967 17.506 4.173 69.204 o
-5 3 9 3.748 3.974 1.601 472.451 o
-5 3 10 31.629 31.953 5.291 42.839 o
-5 3 11 316.920 292.553 16.375 4.066 o
-5 3 12 0.188 -1.071 1.973 311.485 o
-5 3 13 142.760 117.005 10.886 9.766 o
-5 4 1 213.739 211.958 10.929 9.063 o
-5 4 2 8.741 6.536 1.763 387.714 o
-5 4 3 54.354 62.578 6.119 31.534 o
-5 4 4 442.308 407.405 13.711 4.916 o
-5 4 5 32.147 31.772 3.657 88.535 o
-5 4 6 106.559 115.203 8.041 17.723 o
-5 4 7 124.239 129.567 11.530 8.792 o
-5 4 8 602.291 611.703 22.445 1.957 o
-5 4 9 121.453 128.349 8.844 14.604 o
-5 4 10 174.573 159.413 19.868 3.004 o
-5 4 11 0.926 -1.978 1.881 343.008 o
-5 4 12 147.754 159.260 12.756 7.136 o
-5 5 1 804.576 741.096 22.812 1.697 o
-5 5 2 24.455 19.509 3.513 96.986 o
-5 5 3 28.814 33.188 5.045 47.130 o
-5 5 4 243.748 252.319 12.550 6.862 o
-5 5 5 123.625 115.450 12.253 7.838 o
-5 5 6 369.574 363.547 17.441 3.496 o
-5 5 7 689.298 721.193 23.033 1.769 o
-5 5 8 8.108 5.231 2.329 222.966 o
-5 5 9 97.707 99.594 8.134 17.524 o
-5 5 10 3.304 1.515 2.594 180.173 o
-5 5 11 506.410 433.463 41.759 0.667 o
-5 6 1 67.535 82.126 12.235 8.015 o
-5 6 2 4.177 3.119 2.670 170.070 o
-5 6 3 129.209 138.810 10.146 11.181 o
-5 6 4 838.073 791.593 25.967 1.365 o
-5 6 5 10.655 10.262 3.959 77.236 o
-5 6 6 138.419 138.760 15.410 4.981 o
-5 6 7 5.419 5.243 3.171 120.514 o
-5 6 8 430.103 481.106 21.876 2.238 o
-5 6 9 91.373 74.142 10.962 9.903 o
-5 7 1 368.048 384.700 37.397 0.841 o
-5 7 2 53.156 59.873 14.922 5.425 o
-5 7 3 51.079 45.305 13.507 6.622 o
-4 -10 1 8.895 18.183 8.006 18.913 o
-4 -9 1 298.057 301.259 18.301 3.339 o
-4 -9 2 0.910 -2.707 3.031 132.055 o
-4 -9 3 137.004 130.293 16.015 4.626 o
-4 -9 4 5.028 7.626 8.094 18.512 o
-4 -8 1 269.522 257.044 16.622 4.062 o
-4 -8 2 581.235 558.823 30.188 1.194 o
-4 -8 3 40.102 36.859 6.296 30.237 o
-4 -8 4 481.352 464.259 18.271 2.991 o
-4 -8 5 0.598 -1.612 1.961 315.314 o
-4 -8 6 5.734 2.523 3.346 108.276 o
-4 -8 7 36.353 36.682 7.106 23.823 o
-4 -8 8 232.635 189.265 26.444 1.698 o
-4 -7 1 707.226 672.956 20.297 2.145 o
-4 -7 2 93.293 85.387 6.811 24.763 o
-4 -7 3 16.343 14.548 2.814 151.638 o
-4 -7 4 64.719 73.902 7.382 21.679 o
-4 -7 5 712.943 766.924 35.183 0.862 o
-4 -7 6 187.957 190.809 12.633 7.098 o
-4 -7 7 95.826 102.943 11.182 9.470 o
-4 -7 8 4.447 12.155 5.016 48.187 o
-4 -7 9 202.282 189.105 15.606 4.739 o
-4 -6 1 367.226 339.198 14.579 4.792 o
-4 -6 2 419.739 412.817 18.782 2.973 o
-4 -6 3 391.850 365.184 16.311 3.882 o
-4 -6 4 177.532 158.856 12.129 7.756 o
-4 -6 5 0.232 3.258 2.380 214.067 o
-4 -6 6 384.320 364.389 18.147 3.239 o
-4 -6 7 45.043 32.789 5.096 45.777 o
-4 -6 8 1086.390 1036.560 37.426 0.688 o
-4 -6 9 129.699 104.798 10.897 9.830 o
-4 -6 10 6.890 5.377 4.019 75.037 o
-4 -6 11 0.206 7.367 7.348 22.468 o
-4 -5 1 1676.740 1706.410 27.673 0.727 o
-4 -5 2 81.129 76.791 4.444 55.735 o
-4 -5 3 380.113 385.514 12.778 5.790 o
-4 -5 4 26.276 33.818 5.234 43.869 o
-4 -5 5 819.193 819.067 25.200 1.431 o
-4 -5 6 27.505 27.426 3.968 75.900 o
-4 -5 7 109.217 103.066 7.701 19.272 o
-4 -5 8 92.706 82.810 6.875 24.357 o
-4 -5 9 769.057 793.563 32.888 0.953 o
-4 -5 10 28.539 29.285 6.491 28.610 o
-4 -5 11 134.244 152.895 14.252 5.794 o
-4 -5 12 55.157 66.495 9.760 12.588 o
-4 -4 1 254.752 262.512 6.191 20.449 o
-4 -4 2 766.989 786.433 12.567 3.490 o
-4 -4 3 44.938 43.724 2.419 187.238 o
-4 -4 4 528.957 494.147 17.241 3.175 o
-4 -4 5 395.242 393.337 15.599 4.145 o
-4 -4 6 702.483 714.794 22.633 1.809 o
-4 -4 7 63.420 55.141 5.808 34.765 o
-4 -4 8 900.744 948.996 33.005 0.895 o
-4 -4 9 9.022 11.105 3.667 90.006 o
-4 -4 10 5.991 1.699 3.017 133.172 o
-4 -4 11 17.254 11.465 5.315 42.828 o
-4 -4 12 309.907 318.212 25.348 1.801 o
-4 -4 13 8.934 7.320 4.915 50.167 o
-4 -3 1 1825.990 1849.650 20.526 0.816 o
-4 -3 2 896.997 875.729 10.517 3.355 o
-4 -3 3 6.894 7.369 1.194 841.352 o
-4 -3 4 24.808 26.748 2.513 186.107 o
-4 -3 5 2334.450 2292.520 55.493 0.253 o
-4 -3 6 86.909 89.673 5.882 32.749 o
-4 -3 7 251.121 260.339 14.839 5.040 o
-4 -3 8 58.283 61.735 5.591 37.462 o
-4 -3 9 468.616 487.210 17.309 3.269 o
-4 -3 10 284.872 296.042 14.474 5.143 o
-4 -3 11 183.762 204.287 13.085 6.638 o
-4 -3 12 54.812 56.961 9.374 13.655 o
-4 -3 13 145.053 128.178 12.599 7.356 o
-4 -3 14 0.072 -0.373 4.018 75.126 o
-4 -2 1 82.578 82.742 3.588 80.665 o
-4 -2 2 2323.130 2321.880 26.278 0.505 o
-4 -2 3 597.361 583.876 11.604 4.930 o
-4 -2 4 126.150 133.387 5.342 35.913 o
-4 -2 5 443.712 460.775 12.759 5.348 o
-4 -2 6 818.706 815.260 22.792 1.659 o
-4 -2 7 519.824 519.454 17.623 3.062 o
-4 -2 8 1197.930 1240.650 24.035 1.163 o
-4 -2 9 6.140 7.136 2.048 288.274 o
-4 -2 10 27.973 23.953 3.704 86.985 o
-4 -2 11 0.017 -0.410 1.855 352.614 o
-4 -2 12 751.498 768.740 27.432 1.298 o
-4 -2 13 23.405 30.461 6.270 30.690 o
-4 -2 14 26.994 20.816 11.960 8.469 o
-4 -1 1 1628.810 1635.230 24.833 0.831 o
-4 -1 2 431.133 442.179 7.164 10.903 o
-4 -1 3 165.633 165.414 3.674 54.673 o
-4 -1 4 224.169 218.687 5.456 26.695 o
-4 -1 5 1703.890 1730.180 23.456 0.820 o
-4 -1 6 11.582 11.362 1.956 313.603 o
-4 -1 7 85.968 85.780 4.648 50.663 o
-4 -1 8 0.081 0.683 0.975 1277.050 o
-4 -1 9 1286.980 1317.410 24.059 1.091 o
-4 -1 10 5.761 7.151 1.981 308.067 o
-4 -1 11 208.025 214.906 11.604 8.159 o
-4 -1 12 325.330 347.324 17.624 3.509 o
-4 -1 13 274.032 257.743 18.428 3.347 o
-4 -1 14 229.540 258.509 23.355 2.152 o
-4 -1 15 210.330 216.294 21.773 2.484 o
-4 0 1 206.783 214.068 4.929 31.783 o
-4 0 2 948.197 953.580 13.309 2.619 o
-4 0 3 116.541 120.464 3.438 74.767 o
-4 0 4 925.166 929.506 13.356 2.693 o
-4 0 5 994.548 969.324 14.460 2.345 o
-4 0 6 1043.950 1030.820 15.646 2.065 o
-4 0 7 110.004 85.492 5.740 33.474 o
-4 0 8 422.854 429.011 21.361 2.362 o
-4 0 9 6.504 5.124 1.693 421.374 o
-4 0 10 302.304 319.859 15.202 4.644 o
-4 0 11 73.811 68.678 6.406 28.422 o
-4 0 12 1077.840 1138.090 30.737 0.914 o
-4 0 13 19.016 15.132 4.741 53.728 o
-4 0 14 4.679 5.258 3.321 109.925 o
-4 0 15 0.369 -0.002 4.062 73.524 o
-4 1 1 1113.260 1102.980 15.599 1.914 o
-4 1 2 417.555 421.486 7.995 10.148 o
-4 1 3 5.110 6.043 1.099 997.263 o
-4 1 4 0.485 0.802 0.600 3368.150 o
-4 1 5 1698.990 1703.120 23.435 0.828 o
-4 1 6 39.696 40.092 3.103 119.749 o
-4 1 7 393.350 399.856 15.293 4.280 o
-4 1 8 0.484 0.394 1.224 810.187 o
-4 1 9 1865.400 1840.850 29.531 0.617 o
-4 1 10 208.073 219.892 10.382 9.940 o
-4 1 11 93.712 98.231 6.454 27.247 o
-4 1 12 33.870 37.592 5.773 35.975 o
-4 1 13 31.206 27.501 6.004 33.388 o
-4 1 14 48.433 56.146 8.604 16.206 o
-4 1 15 202.023 182.733 22.531 2.334 o
-4 2 1 7.648 5.919 1.078 1029.890 o
-4 2 2 3304.850 3200.470 39.543 0.245 o
-4 2 3 125.349 118.412 4.308 51.937 o
-4 2 4 341.301 340.110 8.277 11.515 o
-4 2 5 148.395 147.636 5.018 37.743 o
-4 2 6 887.130 869.585 15.110 2.557 o
-4 2 7 1182.500 1173.280 22.180 1.300 o
-4 2 8 434.277 456.955 14.790 4.323 o
-4 2 9 269.555 272.175 9.394 10.887 o
-4 2 10 135.473 128.996 6.687 24.096 o
-4 2 11 3.887 6.830 2.780 156.772 o
-4 2 12 723.115 727.955 26.067 1.434 o
-4 2 13 6.811 5.714 3.109 125.305 o
-4 2 14 3.389 7.442 3.299 111.396 o
-4 2 15 0.479 5.953 3.985 76.382 o
-4 3 1 621.518 617.606 20.204 2.288 o
-4 3 2 119.359 117.805 4.365 51.555 o
-4 3 3 1138.260 1121.310 16.861 1.756 o
-4 3 4 181.063 177.033 6.750 21.739 o
-4 3 5 813.366 807.768 16.512 2.520 o
-4 3 6 246.818 242.607 9.344 11.402 o
-4 3 7 17.271 18.930 2.533 186.210 o
-4 3 8 19.260 19.736 3.303 109.996 o
-4 3 9 1107.130 1110.490 24.568 1.222 o
-4 3 10 108.732 110.925 6.753 24.557 o
-4 3 11 74.683 83.623 5.870 33.356 o
-4 3 12 52.326 48.319 5.873 34.344 o
-4 3 13 503.652 490.663 19.743 2.588 o
-4 3 14 47.949 51.797 8.496 16.627 o
-4 4 1 33.395 31.468 4.130 69.738 o
-4 4 2 1287.780 1246.540 29.201 0.887 o
-4 4 3 15.269 16.145 2.686 166.339 o
-4 4 4 12.762 12.157 2.183 251.992 o
-4 4 5 59.483 60.976 4.877 48.667 o
-4 4 6 337.884 324.105 13.331 5.697 o
-4 4 7 121.748 122.820 7.083 22.100 o
-4 4 8 462.034 468.399 15.544 3.915 o
-4 4 9 88.151 89.935 7.600 20.132 o
-4 4 10 552.778 544.950 19.862 2.473 o
-4 4 11 181.863 186.905 12.652 7.104 o
-4 4 12 358.764 350.988 16.346 3.946 o
-4 4 13 41.901 42.609 6.085 32.271 o
-4 4 14 16.551 19.332 8.507 16.740 o
-4 5 1 180.306 179.593 7.529 18.117 o
-4 5 2 252.855 252.082 11.589 7.850 o
-4 5 3 71.245 72.235 5.261 41.407 o
-4 5 4 215.525 200.669 9.869 10.885 o
-4 5 5 547.801 554.928 18.780 2.704 o
-4 5 6 17.101 15.573 3.106 124.622 o
-4 5 7 170.995 157.162 9.744 11.695 o
-4 5 8 2.613 3.958 2.084 279.168 o
-4 5 9 903.003 857.355 25.432 1.353 o
-4 5 10 8.464 10.203 2.756 159.174 o
-4 5 11 52.565 52.955 5.271 42.316 o
-4 5 12 0.220 -1.714 1.982 308.727 o
-4 6 1 55.027 58.051 6.301 29.804 o
-4 6 2 1411.980 1393.650 45.080 0.456 o
-4 6 3 4.833 4.979 2.965 137.889 o
-4 6 4 10.382 11.662 2.589 180.011 o
-4 6 5 26.781 22.249 3.550 94.760 o
-4 6 6 464.465 444.821 19.517 2.712 o
-4 6 7 45.218 46.568 5.592 37.990 o
-4 6 8 199.353 219.701 12.317 7.344 o
-4 6 9 146.544 158.078 10.567 10.208 o
-4 6 10 194.382 206.096 12.181 7.542 o
-4 6 11 130.520 114.474 8.972 14.195 o
-4 7 1 87.239 86.779 8.142 17.657 o
-4 7 2 10.654 8.692 3.172 120.219 o
-4 7 3 337.844 332.201 23.289 2.098 o
-4 7 4 32.561 28.752 4.992 48.073 o
-4 7 5 296.890 270.162 16.301 4.154 o
-4 7 6 317.946 324.542 18.075 3.377 o
-4 7 7 58.023 69.067 8.113 18.100 o
-4 7 8 67.945 72.156 9.784 12.475 o
-4 7 9 313.085 304.175 19.222 3.033 o
-4 8 2 276.851 330.652 34.441 1.000 o
-3 -10 2 145.901 207.193 26.425 1.716 o
-3 -9 1 87.396 70.779 17.790 3.808 o
-3 -9 2 0.167 -2.957 4.155 70.259 o
-3 -9 3 365.625 404.672 28.314 1.432 o
-3 -9 4 92.620 95.945 13.755 6.318 o
-3 -9 5 59.745 31.346 12.377 7.877 o
-3 -8 1 151.009 141.093 11.370 8.907 o
-3 -8 2 456.680 465.050 18.885 2.864 o
-3 -8 3 136.159 128.717 10.649 10.189 o
-3 -8 4 21.920 24.468 4.419 61.604 o
-3 -8 5 2.618 3.232 2.253 238.925 o
-3 -8 6 300.017 279.414 18.821 3.180 o
-3 -8 7 24.380 30.100 6.220 31.184 o
-3 -8 8 22.186 18.867 10.128 11.810 o
-3 -7 1 23.171 25.855 2.926 138.734 o
-3 -7 2 21.039 22.105 3.340 107.345 o
-3 -7 3 507.863 516.634 31.140 1.153 o
-3 -7 4 48.623 50.394 6.671 26.796 o
-3 -7 5 197.377 219.876 19.219 3.170 o
-3 -7 6 125.735 116.497 10.203 11.143 o
-3 -7 7 222.195 207.671 15.692 4.644 o
-3 -7 8 139.681 142.163 13.665 6.285 o
-3 -7 9 306.866 315.514 25.449 1.789 o
-3 -6 1 825.113 822.709 17.353 2.349 o
-3 -6 2 468.300 462.761 12.246 5.541 o
-3 -6 3 346.645 349.734 14.506 4.877 o
-3 -6 4 191.920 200.324 13.210 6.503 o
-3 -6 5 18.240 21.025 4.142 70.239 o
-3 -6 6 1017.770 971.888 32.166 0.896 o
-3 -6 7 3.806 -0.002 1.699 420.148 o
-3 -6 8 27.664 20.026 4.328 64.092 o
-3 -6 9 7.049 9.668 3.289 111.902 o
-3 -6 10 807.279 781.032 28.260 1.212 o
-3 -6 11 54.163 36.056 7.217 22.969 o
-3 -5 1 261.398 260.767 7.614 15.241 o
-3 -5 2 64.045 68.335 3.216 103.662 o
-3 -5 3 1829.330 1838.410 28.141 0.654 o
-3 -5 4 10.980 10.084 2.535 187.719 o
-3 -5 5 68.759 71.338 5.405 39.444 o
-3 -5 6 210.506 219.523 10.643 9.497 o
-3 -5 7 913.506 927.087 27.667 1.175 o
-3 -5 8 215.481 205.931 14.056 5.726 o
-3 -5 9 394.239 380.645 19.994 2.708 o
-3 -5 10 166.252 161.765 12.827 7.006 o
-3 -5 11 25.188 32.608 8.291 17.584 o
-3 -5 12 128.765 114.154 15.589 4.894 o
-3 -4 1 20.803 20.672 1.553 476.104 o
-3 -4 2 2370.070 2300.990 24.074 0.522 o
-3 -4 3 829.419 805.080 14.454 2.870 o
-3 -4 4 789.908 772.367 23.408 1.633 o
-3 -4 5 219.947 214.755 9.028 12.559 o
-3 -4 6 267.641 297.898 11.235 8.051 o
-3 -4 7 28.345 23.908 3.789 83.173 o
-3 -4 8 19.546 15.681 2.776 155.283 o
-3 -4 9 0.208 -0.760 1.413 607.554 o
-3 -4 10 1337.520 1338.360 35.461 0.665 o
-3 -4 11 32.900 26.154 5.645 37.712 o
-3 -4 12 44.022 38.914 7.091 23.858 o
-3 -4 13 3.510 -0.661 3.811 83.496 o
-3 -4 14 229.531 247.311 31.572 1.196 o
-3 -3 1 451.631 455.380 5.568 12.635 o
-3 -3 2 1.224 2.397 0.599 3375.870 o
-3 -3 3 2807.350 2707.140 36.459 0.322 o
-3 -3 4 49.316 51.422 2.694 150.706 o
-3 -3 5 57.545 59.424 3.386 96.782 o
-3 -3 6 215.769 229.433 7.823 15.838 o
-3 -3 7 650.135 673.110 17.946 2.642 o
-3 -3 8 406.635 402.341 12.657 5.715 o
-3 -3 9 472.261 470.342 15.729 3.816 o
-3 -3 10 2.223 2.516 1.366 649.361 o
-3 -3 11 305.471 322.868 15.734 4.360 o
-3 -3 12 41.243 37.361 6.567 27.804 o
-3 -3 13 500.766 524.694 32.619 1.059 o
-3 -3 14 186.582 159.866 14.616 5.425 o
-3 -2 1 57.466 58.499 1.499 366.936 o
-3 -2 2 485.877 483.387 5.677 11.358 o
-3 -2 3 222.780 222.535 6.169 22.556 o
-3 -2 4 32.813 35.335 3.072 123.799 o
-3 -2 5 1488.950 1473.040 30.917 0.734 o
-3 -2 6 1865.810 1868.750 34.915 0.522 o
-3 -2 7 221.861 239.857 8.462 13.775 o
-3 -2 8 493.688 507.995 13.043 4.874 o
-3 -2 9 62.917 68.223 4.671 52.417 o
-3 -2 10 1151.520 1176.300 33.624 0.779 o
-3 -2 11 63.106 62.160 5.423 39.571 o
-3 -2 12 10.579 12.854 3.777 84.784 o
-3 -2 13 23.009 33.156 5.547 39.147 o
-3 -2 14 463.730 455.670 24.428 1.827 o
-3 -2 15 12.969 11.521 5.413 41.330 o
-3 -1 1 2205.030 2238.880 20.537 0.613 o
-3 -1 2 1121.590 1156.600 12.561 2.148 o
-3 -1 3 5475.600 5119.540 84.340 0.075 o
-3 -1 4 27.805 30.252 1.832 335.460 o
-3 -1 5 7.680 7.235 1.025 1134.720 o
-3 -1 6 132.507 136.130 6.155 27.856 o
-3 -1 7 1395.190 1379.070 23.743 1.032 o
-3 -1 8 16.614 17.157 2.017 291.891 o
-3 -1 9 327.983 358.643 10.332 8.483 o
-3 -1 10 376.944 357.301 13.863 5.148 o
-3 -1 11 563.696 583.233 18.947 2.625 o
-3 -1 12 295.904 323.117 16.032 4.234 o
-3 -1 13 742.360 771.397 31.905 1.013 o
-3 -1 14 17.954 21.493 5.646 37.919 o
-3 -1 15 5.660 4.659 3.089 126.999 o
-3 0 1 791.970 824.719 11.108 3.702 o
-3 0 2 894.917 892.312 12.089 3.036 o
-3 0 3 4.697 5.217 0.568 3677.700 o
-3 0 4 1044.450 1033.570 12.624 2.413 o
-3 0 5 41.452 42.961 1.824 312.218 o
-3 0 6 973.752 986.028 12.950 2.577 o
-3 0 7 1067.160 1051.340 15.503 2.029 o
-3 0 8 456.906 425.985 11.631 6.111 o
-3 0 9 424.296 446.075 11.460 6.373 o
-3 0 10 1147.800 1182.210 23.551 1.237 o
-3 0 11 41.070 39.365 7.952 19.029 o
-3 0 12 21.421 32.326 5.725 36.786 o
-3 0 13 36.233 41.038 6.796 26.012 o
-3 0 14 794.272 811.568 33.408 0.920 o
-3 0 15 74.915 83.297 13.326 6.758 o
-3 0 16 35.662 28.978 9.514 13.349 o
-3 1 1 514.740 521.405 8.385 7.826 o
-3 1 2 0.026 0.626 0.445 6128.350 o
-3 1 3 1874.240 1897.650 20.095 0.795 o
-3 1 4 87.963 88.305 3.120 99.467 o
-3 1 5 876.701 850.772 13.094 2.957 o
-3 1 6 45.221 44.685 2.793 143.665 o
-3 1 7 1844.850 1840.010 34.388 0.537 o
-3 1 8 90.472 97.710 6.555 26.547 o
-3 1 9 74.956 78.083 6.042 31.644 o
-3 1 10 6.246 6.752 1.957 315.770 o
-3 1 11 475.471 489.154 14.710 4.191 o
-3 1 12 173.764 163.367 13.085 6.725 o
-3 1 13 487.549 526.051 31.063 1.162 o
-3 1 14 94.703 113.316 28.163 1.523 o
-3 1 15 78.428 73.438 9.597 12.910 o
-3 1 16 21.722 20.400 7.563 21.157 o
-3 2 1 88.258 89.327 3.081 101.248 o
-3 2 2 736.354 757.949 11.041 4.083 o
-3 2 3 11.245 10.665 1.037 1088.110 o
-3 2 4 1725.700 1659.200 20.341 0.910 o
-3 2 5 324.754 313.184 7.194 14.374 o
-3 2 6 1195.510 1172.200 26.370 1.062 o
-3 2 7 317.065 325.805 12.762 6.211 o
-3 2 8 51.462 48.052 3.864 77.086 o
-3 2 9 87.548 89.415 5.007 44.060 o
-3 2 10 820.214 806.441 17.653 2.322 o
-3 2 11 4.818 3.223 1.476 555.601 o
-3 2 12 153.245 139.075 9.324 12.915 o
-3 2 13 17.052 13.178 3.652 90.445 o
-3 2 14 550.467 527.233 26.727 1.502 o
-3 2 15 6.699 5.601 3.252 114.559 o
-3 2 16 67.775 76.495 10.270 11.332 o
-3 3 1 1811.790 1795.520 36.425 0.514 o
-3 3 2 487.610 475.965 10.801 6.357 o
-3 3 3 2513.950 2426.630 33.390 0.395 o
-3 3 4 77.585 71.701 3.569 83.376 o
-3 3 5 18.513 17.811 1.840 347.310 o
-3 3 6 19.079 18.962 2.078 273.562 o
-3 3 7 761.189 738.563 15.488 2.889 o
-3 3 8 128.242 133.457 6.908 22.853 o
-3 3 9 77.229 72.726 5.602 36.540 o
-3 3 10 406.814 415.901 16.519 3.720 o
-3 3 11 842.735 847.516 20.834 1.838 o
-3 3 12 49.435 52.775 4.470 58.343 o
-3 3 13 501.088 539.432 37.447 0.816 o
-3 3 14 2.498 2.933 2.396 211.293 o
-3 3 15 41.946 38.363 7.352 22.224 o
-3 4 1 235.693 236.614 9.563 11.118 o
-3 4 2 41.570 45.046 4.055 71.261 o
-3 4 3 0.135 -0.086 0.626 3090.720 o
-3 4 4 1725.920 1697.020 28.866 0.687 o
-3 4 5 6.808 9.792 2.465 198.973 o
-3 4 6 425.846 430.881 14.127 4.711 o
-3 4 7 264.065 241.644 15.829 4.469 o
-3 4 8 90.660 89.944 7.121 22.760 o
-3 4 9 158.129 152.245 8.068 16.659 o
-3 4 10 699.631 694.994 19.044 2.346 o
-3 4 11 45.438 41.089 4.476 58.742 o
-3 4 12 206.645 212.903 10.212 10.272 o
-3 4 13 14.887 15.339 3.887 79.897 o
-3 4 14 801.609 824.225 41.750 0.622 o
-3 4 15 49.445 60.118 11.797 8.661 o
-3 5 1 247.786 248.629 10.460 9.410 o
-3 5 2 94.585 94.123 5.768 33.606 o
-3 5 3 773.420 712.576 23.489 1.658 o
-3 5 4 1.725 0.282 1.880 343.156 o
-3 5 5 167.251 163.801 9.264 12.828 o
-3 5 6 0.098 0.102 1.193 852.729 o
-3 5 7 805.896 811.138 23.893 1.560 o
-3 5 8 25.864 27.531 3.755 84.686 o
-3 5 9 324.514 321.315 12.455 6.443 o
-3 5 10 15.004 14.112 2.903 142.769 o
-3 5 11 555.347 566.961 16.775 3.188 o
-3 5 12 178.319 182.599 10.488 10.089 o
-3 5 13 9.067 12.255 2.599 178.785 o
-3 5 14 36.965 33.648 5.283 42.845 o
-3 6 1 39.180 42.605 3.798 81.190 o
-3 6 2 327.618 358.194 13.164 5.792 o
-3 6 3 214.840 232.481 11.713 7.947 o
-3 6 4 952.076 981.675 34.657 0.812 o
-3 6 5 133.518 149.665 10.624 10.195 o
-3 6 6 368.596 378.211 17.320 3.529 o
-3 6 7 0.236 2.738 2.238 242.277 o
-3 6 8 109.012 111.928 9.605 12.625 o
-3 6 9 2.132 3.769 2.600 179.340 o
-3 6 10 299.333 268.382 13.066 6.152 o
-3 6 11 92.346 84.637 7.040 23.277 o
-3 6 12 36.222 28.275 4.680 54.489 o
-3 6 13 30.655 31.395 11.758 8.755 o
-3 7 1 278.533 299.285 13.196 6.066 o
-3 7 2 79.722 78.659 8.454 16.513 o
-3 7 3 893.786 877.788 26.643 1.264 o
-3 7 4 3.134 3.762 2.375 214.944 o
-3 7 5 99.380 90.836 10.087 11.586 o
-3 7 6 7.527 8.878 3.040 130.940 o
-3 7 7 364.527 340.427 28.195 1.452 o
-3 7 8 6.978 6.196 2.852 148.908 o
-3 7 9 3.651 4.772 2.409 208.790 o
-3 7 10 38.563 33.005 4.612 55.912 o
-3 7 11 229.801 243.372 13.701 5.914 o
-3 8 1 1.160 1.117 2.179 255.420 o
-3 8 2 172.878 175.119 12.032 7.860 o
-3 8 3 1.095 1.797 2.428 205.786 o
-3 8 4 307.103 291.978 15.144 4.697 o
-3 8 5 32.049 22.662 5.535 39.252 o
-3 8 6 16.849 8.942 4.687 55.059 o
-3 8 7 49.383 43.724 7.449 21.584 o
-3 8 8 210.279 282.007 31.513 1.201 o
-3 8 9 78.734 83.891 17.476 3.946 o
-2 -9 1 878.770 893.106 47.211 0.490 o
-2 -9 2 65.682 72.535 17.132 4.113 o
-2 -9 4 100.143 95.689 13.948 6.138 o
-2 -9 5 71.382 74.093 22.201 2.453 o
-2 -8 1 49.434 40.803 4.584 55.893 o
-2 -8 2 113.927 104.015 10.620 10.399 o
-2 -8 3 228.284 240.034 42.604 0.662 o
-2 -8 4 281.412 283.917 17.800 3.546 o
-2 -8 5 2.627 1.679 3.406 104.549 o
-2 -8 6 23.457 25.699 5.629 38.065 o
-2 -8 7 105.105 109.222 11.515 8.908 o
-2 -8 8 513.282 551.628 32.810 1.042 o
-2 -7 1 1176.380 1192.590 27.341 1.019 o
-2 -7 2 73.388 72.461 5.190 42.379 o
-2 -7 3 314.355 299.912 15.452 4.508 o
-2 -7 4 30.111 32.939 4.569 57.283 o
-2 -7 5 132.577 143.002 9.788 11.932 o
-2 -7 6 17.944 19.513 4.704 54.562 o
-2 -7 7 229.546 234.468 20.865 2.682 o
-2 -7 8 96.659 100.880 11.011 9.761 o
-2 -7 9 176.152 155.619 12.121 7.775 o
-2 -7 10 21.759 17.512 5.686 37.374 o
-2 -6 1 4.332 4.238 0.968 1287.780 o
-2 -6 2 33.285 39.586 3.540 93.844 o
-2 -6 3 46.406 45.935 3.449 96.489 o
-2 -6 4 1525.230 1469.430 31.282 0.714 o
-2 -6 5 77.470 74.514 5.079 43.876 o
-2 -6 6 421.081 452.465 15.074 4.238 o
-2 -6 7 63.958 67.235 8.531 16.366 o
-2 -6 8 414.257 418.766 18.912 2.941 o
-2 -6 9 160.960 151.499 11.206 9.089 o
-2 -6 10 12.917 7.109 3.784 84.502 o
-2 -6 11 27.857 27.019 8.186 18.038 o
-2 -5 1 2608.570 2586.670 30.015 0.398 o
-2 -5 2 223.776 214.724 6.650 20.330 o
-2 -5 3 439.602 427.156 10.015 7.562 o
-2 -5 4 5.616 5.615 1.217 814.044 o
-2 -5 5 1150.860 1143.140 23.792 1.233 o
-2 -5 6 100.165 107.292 6.355 27.745 o
-2 -5 7 508.241 496.147 16.692 3.377 o
-2 -5 8 328.591 353.180 14.158 5.131 o
-2 -5 9 5.092 4.382 1.819 365.792 o
-2 -5 10 47.996 46.005 5.210 43.558 o
-2 -5 11 501.156 548.813 26.350 1.557 o
-2 -5 12 25.210 28.474 8.429 17.022 o
-2 -5 13 49.432 34.056 9.169 14.323 o
-2 -4 1 3.365 4.517 0.641 2922.850 o
-2 -4 2 2363.890 2314.010 24.149 0.521 o
-2 -4 3 228.097 224.219 5.699 24.869 o
-2 -4 4 1749.570 1717.990 24.470 0.779 o
-2 -4 5 258.880 237.468 6.751 18.474 o
-2 -4 6 4.510 3.851 1.413 606.020 o
-2 -4 7 26.753 27.457 2.802 150.136 o
-2 -4 8 572.530 570.153 14.357 3.917 o
-2 -4 9 86.615 86.754 7.958 18.461 o
-2 -4 10 139.682 139.607 8.191 16.556 o
-2 -4 11 194.887 196.282 9.376 12.131 o
-2 -4 12 666.364 699.604 22.408 1.873 o
-2 -4 13 85.687 104.044 13.955 6.145 o
-2 -4 14 186.317 151.589 18.320 3.513 o
-2 -3 1 1026.640 1003.450 10.240 2.796 o
-2 -3 2 0.330 0.767 0.382 8323.600 o
-2 -3 3 554.643 563.299 7.671 7.708 o
-2 -3 4 24.785 25.126 1.468 515.881 o
-2 -3 5 1560.450 1486.780 19.333 1.082 o
-2 -3 6 208.717 204.815 7.072 19.058 o
-2 -3 7 415.736 403.353 10.109 7.782 o
-2 -3 8 29.654 28.464 2.651 166.177 o
-2 -3 9 328.089 328.508 10.847 7.991 o
-2 -3 10 10.412 11.999 2.103 271.969 o
-2 -3 11 793.728 795.074 24.804 1.488 o
-2 -3 12 113.192 122.654 11.507 8.874 o
-2 -3 13 95.544 96.381 10.610 10.505 o
-2 -3 14 24.113 34.315 5.869 34.975 o
-2 -3 15 483.011 466.129 26.031 1.618 o
-2 -2 1 1.423 1.809 0.292 14109.500 o
-2 -2 2 592.320 586.833 6.310 8.069 o
-2 -2 3 393.233 395.274 5.663 14.930 o
-2 -2 4 5553.190 5357.500 66.465 0.087 o
-2 -2 5 47.332 50.594 2.458 178.780 o
-2 -2 6 641.058 638.854 10.817 4.912 o
-2 -2 7 8.772 9.387 1.289 719.293 o
-2 -2 8 772.758 803.800 15.159 2.860 o
-2 -2 9 18.287 19.315 2.104 267.356 o
-2 -2 10 332.601 352.085 10.642 8.104 o
-2 -2 11 79.291 85.050 6.134 30.544 o
-2 -2 12 602.949 575.963 18.368 2.701 o
-2 -2 13 90.414 96.686 9.076 14.258 o
-2 -2 14 109.531 133.655 10.927 9.801 o
-2 -2 15 24.351 31.459 5.640 37.866 o
-2 -2 16 114.292 92.175 13.455 6.569 o
-2 -1 1 6457.480 5999.560 59.660 0.075 o
-2 -1 2 1244.860 1259.620 13.457 1.794 o
-2 -1 3 1280.250 1311.510 18.467 1.396 o
-2 -1 4 12.245 11.922 1.196 821.478 o
-2 -1 5 2000.660 1985.370 25.082 0.641 o
-2 -1 6 126.831 132.083 4.046 56.139 o
-2 -1 7 1305.580 1336.020 18.693 1.351 o
-2 -1 8 629.688 638.979 13.787 3.827 o
-2 -1 9 553.659 583.564 14.261 3.990 o
-2 -1 10 6.626 4.514 2.672 169.589 o
-2 -1 11 521.871 545.721 17.262 3.135 o
-2 -1 12 11.049 12.044 2.783 155.833 o
-2 -1 13 6.085 5.004 1.943 320.328 o
-2 -1 14 24.030 25.372 4.723 53.919 o
-2 -1 15 621.305 615.259 28.982 1.262 o
-2 -1 16 1.887 -0.615 3.566 95.401 o
-2 0 1 859.697 943.796 10.792 3.312 o
-2 0 2 7760.900 6908.500 92.425 0.046 o
-2 0 3 343.778 354.736 5.255 18.415 o
-2 0 4 3861.760 3747.370 40.814 0.193 o
-2 0 5 4.198 4.628 0.657 2772.430 o
-2 0 6 152.196 148.647 4.267 47.686 o
-2 0 7 264.791 266.148 5.599 22.611 o
-2 0 8 1324.620 1330.860 25.182 1.018 o
-2 0 9 62.546 57.855 2.510 162.253 o
-2 0 10 133.089 132.011 4.893 41.092 o
-2 0 11 116.223 99.256 10.565 10.503 o
-2 0 12 701.176 721.697 28.372 1.259 o
-2 0 13 394.705 383.733 20.613 2.563 o
-2 0 14 257.329 276.839 17.875 3.551 o
-2 0 15 35.176 25.650 4.997 47.964 o
-2 0 16 141.840 159.385 14.625 5.494 o
-2 1 1 945.785 933.596 10.484 3.102 o
-2 1 2 9.202 10.845 0.772 1938.520 o
-2 1 3 2871.850 2797.200 23.801 0.387 o
-2 1 4 1.768 2.410 0.385 8110.530 o
-2 1 5 2771.860 2777.380 44.665 0.274 o
-2 1 6 0.174 1.443 0.529 4331.230 o
-2 1 7 594.025 615.112 11.908 4.733 o
-2 1 8 26.942 27.774 2.991 132.146 o
-2 1 9 505.551 528.767 13.546 4.543 o
-2 1 10 484.323 512.261 20.157 2.509 o
-2 1 11 423.815 427.097 16.809 3.570 o
-2 1 12 63.578 67.282 4.822 49.338 o
-2 1 13 218.340 236.010 18.983 3.224 o
-2 1 14 25.580 30.644 7.765 20.043 o
-2 1 15 853.510 870.458 38.689 0.701 o
-2 1 16 5.349 0.001 3.630 92.049 o
-2 1 17 7.635 3.389 4.774 53.196 o
-2 2 1 1725.460 1677.160 23.888 0.810 o
-2 2 2 965.294 939.845 14.954 2.361 o
-2 2 3 163.283 162.264 4.295 45.157 o
-2 2 4 843.590 828.741 10.995 3.528 o
-2 2 5 838.545 821.021 15.987 2.552 o
-2 2 6 823.068 799.571 19.275 2.084 o
-2 2 7 20.873 22.802 1.687 405.125 o
-2 2 8 2215.330 2240.970 34.433 0.441 o
-2 2 9 46.725 47.700 3.799 80.168 o
-2 2 10 180.889 196.092 12.605 7.142 o
-2 2 11 30.800 31.863 3.709 86.242 o
-2 2 12 219.490 233.097 9.454 11.523 o
-2 2 13 4.609 2.896 1.750 395.409 o
-2 2 14 242.682 216.046 19.718 2.987 o
-2 2 15 37.953 34.008 13.016 7.143 o
-2 2 16 540.956 538.468 33.953 0.974 o
-2 3 1 2271.560 2215.840 29.614 0.488 o
-2 3 2 43.871 44.701 2.553 170.037 o
-2 3 3 435.847 421.652 10.762 6.943 o
-2 3 4 45.207 43.765 2.822 141.104 o
-2 3 5 1880.410 1872.390 29.832 0.604 o
-2 3 6 493.926 503.863 14.961 4.014 o
-2 3 7 814.750 785.192 13.569 3.115 o
-2 3 8 328.293 303.767 9.366 10.091 o
-2 3 9 140.995 150.044 8.230 16.324 o
-2 3 10 5.138 2.771 1.275 743.314 o
-2 3 11 680.664 673.311 20.151 2.198 o
-2 3 12 31.281 38.231 3.812 81.494 o
-2 3 13 360.703 374.137 16.352 3.918 o
-2 3 14 32.870 28.302 8.659 16.111 o
-2 3 15 365.894 322.604 20.868 2.556 o
-2 3 16 38.923 26.092 6.157 31.683 o
-2 4 1 54.559 51.657 3.919 74.575 o
-2 4 2 694.742 693.736 15.381 3.115 o
-2 4 3 458.773 465.349 8.333 8.868 o
-2 4 4 782.059 811.821 21.320 1.857 o
-2 4 5 265.763 264.422 12.525 6.770 o
-2 4 6 379.090 394.605 10.798 7.424 o
-2 4 7 20.754 18.267 2.413 203.963 o
-2 4 8 1549.320 1574.530 34.160 0.627 o
-2 4 9 22.529 24.226 3.454 100.241 o
-2 4 10 111.430 129.931 7.340 20.823 o
-2 4 11 0.450 0.937 1.449 578.031 o
-2 4 12 619.867 609.257 16.870 2.995 o
-2 4 13 33.992 34.176 3.820 81.094 o
-2 4 14 148.204 161.430 8.554 15.061 o
-2 4 15 37.916 50.516 8.202 17.882 o
-2 4 16 81.520 52.320 22.441 2.401 o
-2 5 1 418.703 430.913 13.242 5.229 o
-2 5 2 7.368 7.108 1.553 499.619 o
-2 5 3 94.462 89.440 4.232 58.772 o
-2 5 4 143.665 134.162 6.826 22.953 o
-2 5 5 1617.970 1697.950 45.142 0.419 o
-2 5 6 20.771 17.920 2.646 170.224 o
-2 5 7 840.864 864.159 20.014 1.929 o
-2 5 8 10.099 8.243 2.380 213.088 o
-2 5 9 400.998 406.544 22.273 2.216 o
-2 5 10 148.350 157.192 9.310 12.915 o
-2 5 11 155.837 149.550 8.557 15.028 o
-2 5 12 179.455 183.302 9.671 11.678 o
-2 5 13 71.225 77.566 6.275 29.526 o
-2 5 14 23.036 18.297 3.213 115.871 o
-2 5 15 419.342 407.734 18.541 3.044 o
-2 6 1 427.311 441.211 14.839 4.343 o
-2 6 2 107.724 102.360 5.234 39.197 o
-2 6 3 140.670 155.965 9.161 13.380 o
-2 6 4 1080.980 1119.670 28.153 1.035 o
-2 6 5 12.806 15.060 4.633 56.375 o
-2 6 6 525.193 538.986 23.227 1.930 o
-2 6 7 7.058 3.941 1.660 438.584 o
-2 6 8 457.070 455.183 16.047 3.749 o
-2 6 9 0.621 0.678 1.471 560.767 o
-2 6 10 30.381 26.727 3.721 85.957 o
-2 6 11 1.953 3.626 1.800 374.148 o
-2 6 12 292.263 289.358 12.708 6.439 o
-2 6 13 7.805 6.596 2.593 180.002 o
-2 6 14 92.218 91.856 7.317 21.576 o
-2 7 1 1107.360 1097.160 26.611 1.108 o
-2 7 2 0.005 -0.222 1.871 346.700 o
-2 7 3 189.085 193.460 11.115 8.982 o
-2 7 4 119.743 126.270 8.902 14.450 o
-2 7 5 476.356 470.136 17.880 3.102 o
-2 7 6 183.521 190.777 17.187 3.960 o
-2 7 7 42.781 41.078 6.713 26.585 o
-2 7 8 0.560 2.240 2.035 292.880 o
-2 7 9 158.116 145.297 9.919 11.455 o
-2 7 10 4.620 4.472 1.856 351.552 o
-2 7 11 573.246 581.114 21.549 2.130 o
-2 7 12 73.903 61.104 6.759 25.689 o
-2 7 13 88.790 78.286 13.139 6.935 o
-2 8 1 13.551 17.355 3.637 91.236 o
-2 8 2 57.644 58.778 6.271 30.035 o
-2 8 3 44.187 27.700 4.528 57.828 o
-2 8 4 241.488 252.575 13.468 6.052 o
-2 8 5 155.064 177.028 12.790 7.056 o
-2 8 6 143.068 128.831 14.385 5.696 o
-2 8 7 87.274 95.811 12.756 7.339 o
-2 8 8 568.485 590.697 24.358 1.737 o
-2 8 9 15.745 14.389 4.542 58.597 o
-2 8 10 27.691 26.930 6.073 32.676 o
-2 9 2 22.213 23.075 9.548 13.283 o
-2 9 3 29.511 46.425 12.780 7.409 o
-2 9 4 5.495 0.002 4.189 69.117 o
-2 9 5 306.293 311.241 34.784 0.978 o
-1 -9 1 66.985 71.664 9.230 13.996 o
-1 -9 2 14.569 8.343 4.595 57.321 o
-1 -9 3 134.810 149.795 23.379 2.194 o
-1 -9 4 46.022 57.279 10.784 10.362 o
-1 -8 1 24.023 13.382 5.135 45.779 o
-1 -8 2 762.364 811.478 27.059 1.312 o
-1 -8 3 43.850 40.250 8.301 17.460 o
-1 -8 4 65.535 52.642 7.518 21.021 o
-1 -8 5 5.843 3.103 2.438 203.816 o
-1 -8 6 231.437 206.235 18.581 3.360 o
-1 -8 7 15.212 16.417 5.819 35.745 o
-1 -8 8 217.321 229.368 20.035 2.910 o
-1 -7 1 333.783 320.169 15.098 4.625 o
-1 -7 2 114.218 122.090 6.991 22.803 o
-1 -7 3 309.767 298.051 9.993 9.366 o
-1 -7 4 2.372 4.674 2.119 269.980 o
-1 -7 5 442.359 428.471 18.434 3.029 o
-1 -7 6 1.400 -0.393 2.337 222.115 o
-1 -7 7 182.969 195.823 12.508 7.239 o
-1 -7 8 3.461 6.676 2.782 156.640 o
-1 -7 9 492.212 517.423 24.915 1.733 o
-1 -7 10 10.565 5.916 5.093 46.715 o
-1 -6 1 478.260 464.316 10.159 6.960 o
-1 -6 2 1252.790 1249.560 22.769 1.195 o
-1 -6 3 5.979 5.616 1.461 565.081 o
-1 -6 4 602.146 590.765 14.345 3.800 o
-1 -6 5 10.998 13.345 2.205 247.307 o
-1 -6 6 505.633 488.737 15.914 3.649 o
-1 -6 7 37.604 36.137 6.206 31.147 o
-1 -6 8 259.655 279.226 13.573 5.869 o
-1 -6 9 56.284 49.568 8.909 15.109 o
-1 -6 10 101.714 104.753 8.543 15.893 o
-1 -6 11 34.309 35.515 6.990 24.635 o
-1 -6 12 113.045 119.972 21.022 2.719 o
-1 -5 1 1176.300 1165.350 16.976 1.675 o
-1 -5 2 158.798 159.111 5.012 36.626 o
-1 -5 3 649.559 667.470 12.143 4.277 o
-1 -5 4 102.409 100.597 5.978 31.088 o
-1 -5 5 1357.350 1360.680 23.960 1.047 o
-1 -5 6 2.510 3.817 1.194 849.956 o
-1 -5 7 124.752 116.598 7.774 18.617 o
-1 -5 8 0.416 -1.377 1.635 453.951 o
-1 -5 9 368.417 373.154 15.229 4.406 o
-1 -5 10 52.871 53.639 6.531 27.855 o
-1 -5 11 42.045 38.768 4.907 49.284 o
-1 -5 12 52.413 46.669 6.564 27.636 o
-1 -5 13 291.707 306.446 24.143 1.986 o
-1 -4 1 134.019 138.638 3.515 66.737 o
-1 -4 2 1371.490 1376.790 16.884 1.374 o
-1 -4 3 188.599 194.133 6.117 24.802 o
-1 -4 4 13.998 12.673 1.587 471.007 o
-1 -4 5 14.089 12.539 1.461 552.987 o
-1 -4 6 1475.470 1443.780 21.004 1.082 o
-1 -4 7 65.115 70.950 4.892 47.841 o
-1 -4 8 792.596 821.001 22.020 1.761 o
-1 -4 9 259.582 245.833 10.164 9.789 o
-1 -4 10 92.466 88.004 7.162 22.496 o
-1 -4 11 58.043 53.221 4.918 48.154 o
-1 -4 12 347.813 382.799 20.736 2.576 o
-1 -4 13 17.358 16.173 3.947 77.414 o
-1 -4 14 147.498 152.879 14.307 5.729 o
-1 -3 1 1052.270 1057.470 11.508 2.503 o
-1 -3 2 435.842 438.605 5.998 12.579 o
-1 -3 3 988.916 983.174 10.976 2.826 o
-1 -3 4 156.456 160.350 4.545 42.503 o
-1 -3 5 1137.450 1136.040 15.184 1.895 o
-1 -3 6 2.059 1.575 0.625 3093.730 o
-1 -3 7 365.853 358.182 7.367 12.623 o
-1 -3 8 43.973 41.603 3.120 117.476 o
-1 -3 9 1251.390 1262.930 24.791 1.089 o
-1 -3 10 20.202 19.019 3.049 128.767 o
-1 -3 11 266.648 259.564 11.871 7.440 o
-1 -3 12 89.762 82.407 10.077 11.669 o
-1 -3 13 536.540 511.127 20.760 2.336 o
-1 -3 14 58.365 40.206 7.232 22.813 o
-1 -3 15 8.298 8.120 3.948 77.720 o
-1 -2 1 67.271 70.199 1.838 249.881 o
-1 -2 2 158.444 152.702 3.294 65.152 o
-1 -2 3 469.440 466.819 7.566 9.564 o
-1 -2 4 1766.640 1733.760 17.276 0.951 o
-1 -2 5 806.265 814.076 9.001 4.206 o
-1 -2 6 3956.290 3863.990 35.303 0.198 o
-1 -2 7 28.594 29.127 1.805 344.648 o
-1 -2 8 1096.230 1098.990 18.259 1.697 o
-1 -2 9 46.895 46.860 3.183 112.034 o
-1 -2 10 198.867 212.860 9.484 11.770 o
-1 -2 11 19.632 19.381 2.196 245.443 o
-1 -2 12 259.676 260.722 13.795 5.729 o
-1 -2 13 230.656 223.949 11.335 8.365 o
-1 -2 14 135.053 148.450 11.170 9.265 o
-1 -2 15 44.807 33.266 9.149 14.401 o
-1 -2 16 287.431 271.523 19.101 3.110 o
-1 -1 1 1577.650 1565.040 14.761 1.210 o
-1 -1 2 1878.920 1901.140 17.532 0.845 o
-1 -1 3 441.061 433.950 7.216 10.728 o
-1 -1 4 465.050 461.301 7.250 10.047 o
-1 -1 5 6523.050 6274.180 64.491 0.070 o
-1 -1 6 7.726 7.658 0.618 3027.300 o
-1 -1 7 805.361 784.517 10.425 3.904 o
-1 -1 8 31.339 32.581 1.928 300.440 o
-1 -1 9 886.615 898.480 18.689 2.020 o
-1 -1 10 0.022 -0.366 1.143 928.208 o
-1 -1 11 88.767 78.088 5.261 40.465 o
-1 -1 12 6.658 9.259 2.130 266.427 o
-1 -1 13 313.900 311.346 11.847 7.077 o
-1 -1 14 85.763 74.082 7.829 19.130 o
-1 -1 15 196.716 202.005 14.956 5.137 o
-1 -1 16 22.410 25.683 5.850 35.263 o
-1 0 1 343.835 360.058 3.761 22.972 o
-1 0 2 8646.110 7561.170 97.861 0.039 o
-1 0 3 244.886 250.334 3.910 35.079 o
-1 0 4 1160.760 1123.210 16.878 1.726 o
-1 0 5 1057.500 1077.700 19.468 1.644 o
-1 0 6 1735.220 1712.570 17.776 0.961 o
-1 0 7 698.142 688.163 8.445 5.407 o
-1 0 8 223.058 216.104 5.531 26.352 o
-1 0 9 35.572 38.293 2.994 129.215 o
-1 0 10 676.647 677.540 17.664 2.653 o
-1 0 11 97.067 111.409 8.147 17.416 o
-1 0 12 1133.170 1132.740 34.853 0.748 o
-1 0 13 46.247 36.762 5.292 42.427 o
-1 0 14 33.096 28.701 4.407 61.468 o
-1 0 15 0.007 2.679 2.217 246.738 o
-1 0 16 343.438 353.418 23.176 2.109 o
-1 0 17 0.907 1.853 2.717 164.312 o
-1 1 1 1658.150 1701.940 14.967 1.092 o
-1 1 2 3183.480 3110.040 31.308 0.293 o
-1 1 3 998.746 979.690 10.510 2.870 o
-1 1 4 147.725 155.730 3.010 74.750 o
-1 1 5 910.157 882.834 18.087 2.075 o
-1 1 6 26.459 26.544 1.266 664.622 o
-1 1 7 591.852 590.476 11.784 4.858 o
-1 1 8 1044.080 1027.160 22.257 1.449 o
-1 1 9 2693.540 2811.400 42.487 0.291 o
-1 1 10 18.469 18.034 1.898 327.185 o
-1 1 11 190.885 193.375 6.699 21.459 o
-1 1 12 185.063 181.213 8.622 14.265 o
-1 1 13 561.691 566.771 19.429 2.537 o
-1 1 14 33.088 35.922 6.532 28.190 o
-1 1 15 129.228 129.671 16.274 4.491 o
-1 1 16 58.108 67.535 9.373 13.625 o
-1 1 17 243.996 273.130 16.851 3.986 o
-1 2 1 0.120 0.949 0.370 8873.150 o
-1 2 2 945.825 945.768 12.786 2.714 o
-1 2 3 2.426 1.815 0.403 7387.070 o
-1 2 4 1600.180 1600.560 17.727 1.077 o
-1 2 5 13.839 13.781 1.018 1106.460 o
-1 2 6 2825.620 2841.360 36.051 0.316 o
-1 2 7 445.079 448.578 7.040 10.766 o
-1 2 8 687.597 646.529 19.904 2.246 o
-1 2 9 133.273 117.985 5.596 33.212 o
-1 2 10 775.186 753.023 17.382 2.481 o
-1 2 11 5.435 6.050 1.504 533.696 o
-1 2 12 467.484 460.951 11.647 5.938 o
-1 2 13 96.528 98.434 6.907 23.925 o
-1 2 14 163.270 162.569 9.017 13.519 o
-1 2 15 30.130 21.257 8.359 17.305 o
-1 2 16 390.666 353.625 21.959 2.299 o
-1 2 17 1.460 3.887 2.881 146.114 o
-1 3 1 1633.350 1624.970 18.235 1.032 o
-1 3 2 218.886 228.229 4.249 36.020 o
-1 3 3 874.261 882.560 10.702 3.385 o
-1 3 4 1129.030 1116.830 18.638 1.621 o
-1 3 5 1024.950 1053.600 18.044 1.825 o
-1 3 6 201.097 206.070 8.213 15.072 o
-1 3 7 375.470 371.802 12.544 6.013 o
-1 3 8 148.735 139.862 6.830 22.726 o
-1 3 9 2724.520 2688.880 56.763 0.218 o
-1 3 10 0.335 0.244 0.712 2395.340 o
-1 3 11 180.444 193.765 8.747 13.890 o
-1 3 12 28.016 28.329 3.168 117.929 o
-1 3 13 182.535 176.826 9.526 12.001 o
-1 3 14 24.817 25.877 4.108 71.031 o
-1 3 15 143.403 131.392 9.497 12.590 o
-1 3 16 45.435 49.764 14.357 5.866 o
-1 3 17 402.622 376.792 39.745 0.745 o
-1 4 1 419.390 419.066 8.584 9.374 o
-1 4 2 4133.980 4055.760 70.541 0.117 o
-1 4 3 1256.640 1288.460 19.285 1.377 o
-1 4 4 10.733 10.328 1.767 384.250 o
-1 4 5 200.263 199.294 8.186 15.225 o
-1 4 6 1465.520 1533.130 31.546 0.715 o
-1 4 7 463.444 457.693 11.066 6.386 o
-1 4 8 506.977 501.107 15.321 3.844 o
-1 4 9 163.083 163.226 7.805 17.492 o
-1 4 10 807.104 839.189 17.553 2.332 o
-1 4 11 132.734 137.950 8.025 17.295 o
-1 4 12 497.974 494.783 15.668 3.747 o
-1 4 13 14.899 12.914 2.510 190.575 o
-1 4 14 43.334 46.835 4.781 51.659 o
-1 4 15 30.587 30.058 4.365 62.715 o
-1 4 16 340.792 352.211 23.130 2.118 o
-1 5 1 57.493 57.059 4.869 49.014 o
-1 5 2 298.240 285.941 10.692 8.558 o
-1 5 3 1013.920 1025.620 21.399 1.543 o
-1 5 4 128.922 135.631 6.514 25.333 o
-1 5 5 791.950 806.851 20.571 1.943 o
-1 5 6 461.595 462.548 15.460 3.956 o
-1 5 7 629.950 643.557 37.195 0.803 o
-1 5 8 227.649 234.349 16.010 4.442 o
-1 5 9 965.664 950.805 30.798 0.977 o
-1 5 10 57.892 58.741 4.630 53.899 o
-1 5 11 3.972 1.537 1.546 506.560 o
-1 5 12 13.136 7.732 2.642 172.738 o
-1 5 13 864.054 865.167 28.163 1.178 o
-1 5 14 9.551 9.224 2.452 200.882 o
-1 5 15 113.667 107.839 7.851 18.492 o
-1 5 16 188.857 189.117 16.213 4.424 o
-1 6 1 3.160 2.190 0.705 2427.770 o
-1 6 2 1607.080 1644.570 31.582 0.663 o
-1 6 3 8.222 9.362 2.504 192.762 o
-1 6 4 13.004 14.366 2.173 253.792 o
-1 6 5 41.357 34.963 6.146 31.701 o
-1 6 6 737.426 732.281 17.993 2.449 o
-1 6 7 12.267 11.658 2.197 248.903 o
-1 6 8 273.222 261.087 12.597 6.679 o
-1 6 9 15.703 14.400 2.638 172.523 o
-1 6 10 705.959 708.887 19.788 2.206 o
-1 6 11 136.711 136.338 8.279 16.293 o
-1 6 12 85.591 74.200 6.347 28.606 o
-1 6 13 187.047 175.078 11.593 8.365 o
-1 6 14 101.115 94.968 7.516 20.356 o
-1 6 15 12.777 10.618 3.125 123.646 o
-1 7 1 159.484 160.008 8.688 14.517 o
-1 7 2 86.257 92.140 7.146 22.659 o
-1 7 3 363.779 354.994 14.582 4.778 o
-1 7 4 199.709 191.212 12.887 6.801 o
-1 7 5 269.852 274.135 12.754 6.523 o
-1 7 6 115.749 113.014 7.772 18.781 o
-1 7 7 175.329 192.044 11.282 8.812 o
-1 7 8 54.528 50.654 7.083 23.752 o
-1 7 9 435.341 436.891 17.272 3.383 o
-1 7 10 17.973 21.660 4.024 74.380 o
-1 7 11 87.031 66.616 7.672 19.919 o
-1 7 12 4.250 5.281 2.699 166.438 o
-1 7 13 709.721 720.473 27.538 1.319 o
-1 7 14 7.858 11.511 5.451 40.783 o
-1 8 1 257.432 280.191 15.394 4.679 o
-1 8 2 517.541 475.998 20.755 2.373 o
-1 8 3 33.946 33.392 4.455 60.025 o
-1 8 4 3.792 3.469 1.582 483.712 o
-1 8 5 1.011 3.125 1.930 325.682 o
-1 8 6 672.385 698.438 22.526 1.854 o
-1 8 7 1.985 3.144 2.315 226.205 o
-1 8 8 30.041 36.051 10.315 11.368 o
-1 8 9 45.206 29.120 6.111 32.051 o
-1 8 10 553.573 541.515 23.307 1.899 o
-1 8 11 193.893 176.027 13.066 6.668 o
-1 8 12 425.773 420.531 28.098 1.433 o
-1 9 1 3.228 1.544 2.620 176.602 o
-1 9 2 12.970 5.441 3.395 104.963 o
-1 9 3 384.536 391.788 19.541 2.826 o
-1 9 4 1.376 1.807 2.430 205.336 o
-1 9 5 98.856 106.311 10.061 11.611 o
-1 9 6 332.965 361.472 22.476 2.237 o
-1 9 7 312.065 312.318 20.909 2.592 o
-1 9 8 279.639 267.881 33.684 1.047 o
0 -9 1 15.900 9.229 3.854 81.348 o
0 -9 2 0.703 4.375 2.733 162.420 o
0 -9 3 391.695 466.675 43.684 0.618 o
0 -8 1 354.678 362.923 20.563 2.618 o
0 -8 2 20.719 19.204 5.965 33.975 o
0 -8 3 194.257 180.383 12.510 7.225 o
0 -8 4 215.429 224.634 22.898 2.249 o
0 -8 5 0.025 2.215 2.465 199.579 o
0 -8 6 720.122 724.855 28.203 1.263 o
0 -8 7 11.803 5.412 5.156 45.589 o
0 -7 1 78.800 70.534 7.067 23.427 o
0 -7 2 3.563 5.102 1.952 317.863 o
0 -7 3 523.546 528.210 16.195 3.469 o
0 -7 4 4.647 0.981 1.698 420.405 o
0 -7 5 73.281 77.394 5.671 35.755 o
0 -7 6 26.005 19.822 4.232 67.053 o
0 -7 7 613.337 646.916 24.363 1.691 o
0 -7 8 37.008 43.914 5.698 36.805 o
0 -7 9 115.601 111.049 8.985 14.296 o
0 -7 10 41.837 42.873 9.946 12.193 o
0 -6 1 61.341 56.423 3.506 90.398 o
0 -6 2 722.089 722.925 18.995 2.305 o
0 -6 3 552.319 563.900 15.812 3.485 o
0 -6 4 540.527 534.089 19.626 2.543 o
0 -6 5 25.323 22.828 3.147 120.146 o
0 -6 6 202.842 221.615 10.191 10.306 o
0 -6 7 38.325 39.713 5.721 36.538 o
0 -6 8 70.377 84.145 7.566 20.554 o
0 -6 9 76.886 91.466 7.995 18.370 o
0 -6 10 684.595 717.533 28.627 1.247 o
0 -6 11 52.494 59.752 7.247 22.688 o
0 -6 12 45.828 39.804 13.045 7.103 o
0 -5 1 25.958 30.115 1.994 287.988 o
0 -5 2 3.683 4.239 0.864 1613.920 o
0 -5 3 1513.470 1481.350 29.687 0.760 o
0 -5 4 0.201 -0.761 0.728 2291.440 o
0 -5 5 184.144 185.963 8.457 14.732 o
0 -5 6 7.975 11.312 2.423 205.769 o
0 -5 7 661.696 660.377 17.798 2.664 o
0 -5 8 156.542 165.073 10.291 10.645 o
0 -5 9 199.411 200.054 11.147 8.861 o
0 -5 10 71.370 80.045 7.146 22.968 o
0 -5 11 168.020 167.965 10.639 9.933 o
0 -5 12 1.724 4.728 3.007 134.085 o
0 -5 13 249.191 238.733 15.630 4.605 o
0 -4 1 438.711 408.781 7.563 10.507 o
0 -4 2 552.362 536.012 8.365 7.362 o
0 -4 3 399.857 403.080 8.152 10.332 o
0 -4 4 553.138 556.721 12.916 4.591 o
0 -4 5 570.765 561.990 11.463 5.193 o
0 -4 6 516.661 524.825 11.942 5.318 o
0 -4 7 277.886 285.947 9.185 11.097 o
0 -4 8 155.105 162.225 6.600 23.594 o
0 -4 9 15.155 16.717 3.031 130.939 o
0 -4 10 1468.850 1422.140 33.102 0.687 o
0 -4 11 19.139 10.319 2.920 140.904 o
0 -4 12 53.383 52.828 7.880 19.258 o
0 -4 13 0.551 0.746 2.043 290.772 o
0 -4 14 172.922 156.603 12.179 7.716 o
0 -3 1 1622.030 1585.430 31.792 0.662 o
0 -3 2 278.971 275.066 4.593 26.640 o
0 -3 3 1558.550 1483.540 23.411 0.938 o
0 -3 4 478.836 478.194 7.105 9.855 o
0 -3 5 55.413 55.420 2.181 211.731 o
0 -3 6 58.026 60.940 2.956 123.246 o
0 -3 7 2716.470 2655.800 31.516 0.368 o
0 -3 8 92.594 95.994 4.329 56.349 o
0 -3 9 706.675 682.650 15.031 3.187 o
0 -3 10 120.989 121.184 8.054 17.453 o
0 -3 11 401.254 410.179 17.423 3.414 o
0 -3 12 209.432 195.563 14.318 5.557 o
0 -3 13 163.273 156.908 11.261 8.984 o
0 -3 14 86.649 88.926 8.746 15.371 o
0 -3 15 22.105 20.903 5.497 39.955 o
0 -2 1 392.532 405.138 5.653 14.822 o
0 -2 2 1361.790 1326.110 13.346 1.605 o
0 -2 3 1738.170 1693.770 17.758 0.965 o
0 -2 4 2042.000 2016.060 22.027 0.676 o
0 -2 5 601.616 610.523 7.735 6.904 o
0 -2 6 1445.560 1474.960 14.681 1.368 o
0 -2 7 124.300 125.701 5.042 39.960 o
0 -2 8 839.348 841.952 19.582 1.998 o
0 -2 9 89.293 96.374 6.013 31.249 o
0 -2 10 912.828 941.523 29.587 1.059 o
0 -2 11 16.064 18.468 2.678 167.023 o
0 -2 12 8.387 9.226 2.137 264.191 o
0 -2 13 3.716 2.981 2.607 178.326 o
0 -2 14 633.318 639.371 23.874 1.738 o
0 -2 15 9.666 6.358 2.780 156.446 o
0 -2 16 33.330 38.767 6.997 24.580 o
0 -1 1 1521.830 1457.400 11.999 1.415 o
0 -1 2 2116.440 2124.870 19.769 0.669 o
0 -1 3 10190.800 9453.530 81.988 0.032 o
0 -1 4 13.516 13.012 0.756 1929.450 o
0 -1 5 725.319 735.582 9.691 4.626 o
0 -1 6 870.080 878.065 10.296 3.492 o
0 -1 7 1792.650 1851.880 30.115 0.623 o
0 -1 8 46.470 45.280 3.066 120.414 o
0 -1 9 72.166 71.439 3.757 76.994 o
0 -1 10 43.149 41.342 3.003 126.486 o
0 -1 11 522.290 524.492 14.060 4.265 o
0 -1 12 129.748 125.073 7.331 20.579 o
0 -1 13 546.807 597.066 20.470 2.334 o
0 -1 14 324.625 329.518 13.217 5.820 o
0 -1 15 227.542 253.201 14.230 5.510 o
0 -1 16 16.367 18.071 5.032 47.728 o
0 -1 17 207.004 209.182 19.958 2.944 o
0 0 2 636.916 651.568 5.565 7.510 o
0 0 3 482.849 502.242 5.085 11.922 o
0 0 4 13.535 16.820 0.782 1787.600 o
0 0 5 1004.470 1011.050 11.511 2.674 o
0 0 6 764.381 760.877 11.749 3.760 o
0 0 7 1230.950 1246.230 15.421 1.680 o
0 0 8 941.246 938.690 14.686 2.446 o
0 0 9 212.028 215.279 8.694 13.480 o
0 0 10 1852.500 1809.900 31.265 0.592 o
0 0 11 13.476 12.995 2.381 211.843 o
0 0 12 56.029 58.978 4.772 50.963 o
0 0 13 11.617 14.330 3.345 107.963 o
0 0 14 795.542 790.535 21.146 1.875 o
0 0 15 0.624 -0.453 1.811 369.799 o
0 0 16 149.785 165.392 12.029 7.965 o
0 0 17 37.726 18.020 7.220 23.134 o
0 1 0 1333.180 1383.370 15.850 1.464 o
0 1 1 3050.720 2993.850 37.704 0.280 o
0 1 2 912.693 933.524 11.621 3.009 o
0 1 3 2782.580 2894.230 26.515 0.376 o
0 1 4 1717.940 1811.450 19.729 0.893 o
0 1 5 25.168 23.565 1.267 674.438 o
0 1 6 281.375 284.990 4.808 25.051 o
0 1 7 3035.220 3002.020 38.602 0.276 o
0 1 8 296.430 291.749 5.977 19.168 o
0 1 9 57.317 53.618 3.196 108.191 o
0 1 10 289.572 285.901 7.913 13.635 o
0 1 11 2267.460 2242.190 43.914 0.342 o
0 1 12 82.501 84.031 4.902 46.275 o
0 1 13 799.249 804.151 17.783 2.335 o
0 1 14 125.484 131.175 9.263 13.339 o
0 1 15 4.206 0.947 3.219 117.069 o
0 1 16 103.584 129.022 10.981 9.739 o
0 1 17 168.668 180.672 13.373 6.442 o
0 2 0 3431.340 3386.940 34.173 0.249 o
0 2 1 1346.540 1406.910 16.472 1.405 o
0 2 2 13.563 17.499 1.384 611.166 o
0 2 3 1346.400 1409.090 17.842 1.332 o
0 2 4 5101.410 5171.080 55.654 0.106 o
0 2 5 38.934 40.976 2.026 263.638 o
0 2 6 1261.520 1264.260 18.425 1.436 o
0 2 7 1459.530 1456.110 25.886 0.902 o
0 2 8 1256.740 1263.220 22.469 1.204 o
0 2 9 850.722 853.318 23.568 1.545 o
0 2 10 1170.580 1119.640 34.581 0.750 o
0 2 11 93.092 99.111 5.756 33.696 o
0 2 12 115.415 109.389 6.354 27.295 o
0 2 13 0.782 1.640 1.249 777.200 o
0 2 14 869.429 848.532 22.309 1.654 o
0 2 15 1.702 3.523 1.782 381.920 o
0 2 16 3.195 0.918 2.301 229.130 o
0 2 17 7.062 6.003 3.573 94.914 o
0 3 0 2.356 1.745 0.567 3759.150 o
0 3 1 2131.240 2072.960 26.200 0.578 o
0 3 2 1627.540 1633.140 22.575 0.898 o
0 3 3 2960.120 2951.840 36.966 0.293 o
0 3 4 520.182 525.056 9.116 7.160 o
0 3 5 858.606 882.587 12.299 3.116 o
0 3 6 5.354 4.857 0.865 1603.710 o
0 3 7 2269.560 2328.260 48.380 0.303 o
0 3 8 21.876 20.446 1.605 445.952 o
0 3 9 145.559 146.674 5.579 32.031 o
0 3 10 88.308 84.398 5.668 35.141 o
0 3 11 1095.240 1097.830 24.817 1.217 o
0 3 12 119.342 110.711 7.756 18.822 o
0 3 13 92.728 94.500 6.440 27.427 o
0 3 14 1.183 -1.357 1.740 400.452 o
0 3 15 292.594 286.163 14.093 5.383 o
0 3 16 125.413 125.602 8.886 14.451 o
0 3 17 433.251 464.869 26.310 1.608 o
0 4 0 3688.790 3642.130 54.837 0.167 o
0 4 1 15.003 13.646 1.267 724.911 o
0 4 2 274.099 305.263 11.085 8.168 o
0 4 3 194.022 193.962 5.503 28.737 o
0 4 4 4427.040 4519.900 56.794 0.127 o
0 4 5 61.539 63.764 3.296 100.322 o
0 4 6 281.722 305.517 10.184 9.310 o
0 4 7 553.753 577.574 18.965 2.639 o
0 4 8 132.745 151.232 8.609 15.119 o
0 4 9 212.830 223.826 9.870 10.804 o
0 4 10 1036.560 1069.660 26.768 1.140 o
0 4 11 7.755 8.897 2.258 236.934 o
0 4 12 337.340 355.247 14.705 4.784 o
0 4 13 149.586 151.507 11.751 8.352 o
0 4 14 651.856 656.056 19.436 2.365 o
0 4 15 1.551 0.872 2.144 263.849 o
0 4 16 21.917 18.370 3.693 88.046 o
0 4 17 100.546 110.817 12.606 7.473 o
0 5 0 73.475 67.472 4.437 56.931 o
0 5 1 2522.920 2547.860 42.402 0.317 o
0 5 2 280.624 294.791 12.085 7.059 o
0 5 3 1795.500 1858.110 33.006 0.568 o
0 5 4 1081.800 1072.430 19.920 1.584 o
0 5 5 52.393 59.337 4.175 66.004 o
0 5 6 352.646 372.059 11.371 7.128 o
0 5 7 981.415 1021.320 21.527 1.561 o
0 5 8 40.197 41.867 4.373 61.726 o
0 5 9 95.436 105.524 9.032 14.326 o
0 5 10 12.505 14.955 2.592 179.014 o
0 5 11 1616.370 1644.770 34.380 0.601 o
0 5 12 93.680 81.115 7.633 19.951 o
0 5 13 81.620 80.620 6.460 27.679 o
0 5 14 177.158 171.289 10.482 10.142 o
0 5 15 140.611 154.926 10.426 10.512 o
0 5 16 31.854 33.295 4.856 50.722 o
0 6 0 710.216 652.501 20.775 2.081 o
0 6 1 14.418 12.339 2.331 220.922 o
0 6 2 80.970 77.461 4.214 61.345 o
0 6 3 31.219 35.584 3.913 77.519 o
0 6 4 2004.480 1974.230 32.460 0.524 o
0 6 5 64.834 73.703 5.515 38.057 o
0 6 6 136.112 139.385 7.179 21.098 o
0 6 7 35.505 35.875 3.678 87.093 o
0 6 8 781.375 773.690 23.029 1.679 o
0 6 9 176.986 176.422 12.363 7.454 o
0 6 10 202.815 201.807 9.401 11.967 o
0 6 11 372.831 379.974 12.436 6.088 o
0 6 12 83.196 84.353 6.536 27.001 o
0 6 13 70.480 74.994 8.330 17.076 o
0 6 14 1036.030 1034.440 29.394 1.008 o
0 6 15 3.990 -3.297 3.821 83.064 o
0 6 16 27.190 11.813 7.918 19.304 o
0 7 0 171.994 178.732 10.856 9.516 o
0 7 1 1043.670 1096.870 25.494 1.205 o
0 7 2 206.743 216.502 13.215 6.432 o
0 7 3 610.255 610.268 16.546 3.096 o
0 7 4 33.075 34.164 2.893 139.029 o
0 7 5 122.362 118.067 6.943 22.956 o
0 7 6 126.973 137.002 10.014 11.480 o
0 7 7 452.058 440.860 16.187 3.724 o
0 7 8 566.481 540.688 21.069 2.236 o
0 7 9 140.895 147.033 15.590 4.862 o
0 7 10 15.392 17.275 3.660 90.031 o
0 7 11 853.929 811.886 24.861 1.441 o
0 7 12 165.401 161.473 10.494 10.223 o
0 7 13 20.242 18.780 3.828 82.071 o
0 7 14 2.909 4.695 2.689 167.666 o
0 7 15 384.706 381.818 21.956 2.294 o
0 8 0 526.122 550.807 25.844 1.599 o
0 8 1 0.081 -0.812 2.001 302.900 o
0 8 2 192.650 183.250 15.841 4.625 o
0 8 3 9.567 10.466 3.183 119.363 o
0 8 4 832.186 847.753 23.833 1.535 o
0 8 5 0.134 -1.089 1.527 520.461 o
0 8 6 12.890 14.354 3.158 120.987 o
0 8 7 78.225 70.271 7.148 22.928 o
0 8 8 414.829 420.927 21.881 2.272 o
0 8 9 82.778 85.043 13.401 6.673 o
0 8 10 351.749 381.655 26.020 1.688 o
0 8 11 42.914 53.369 6.988 24.503 o
0 8 12 177.606 184.886 13.447 6.348 o
0 8 13 62.730 71.125 9.480 13.296 o
0 9 0 43.450 54.092 8.453 16.811 o
0 9 1 431.581 444.150 24.492 1.838 o
0 9 2 63.508 64.989 9.196 14.127 o
0 9 3 71.629 66.149 9.396 13.505 o
0 9 4 84.938 74.626 12.148 8.104 o
0 9 5 299.988 311.304 17.209 3.728 o
0 9 6 80.482 81.465 8.742 15.456 o
0 9 7 852.941 845.909 35.710 0.806 o
0 9 8 62.223 56.654 8.924 15.014 o
0 9 9 4.206 -1.613 3.306 110.985 o
0 9 11 205.630 187.487 24.136 2.038 o
1 -9 0 7.800 1.933 4.036 74.414 o
1 -9 1 547.303 529.020 27.729 1.408 o
1 -9 2 10.608 7.185 4.687 55.157 o
1 -8 0 339.218 346.714 19.497 2.908 o
1 -8 1 136.306 121.748 10.554 10.380 o
1 -8 2 108.129 97.711 9.457 13.057 o
1 -8 3 124.480 126.576 10.834 9.917 o
1 -8 4 602.286 606.762 28.638 1.296 o
1 -8 5 31.753 27.099 7.729 20.210 o
1 -8 6 26.775 24.831 5.991 33.592 o
1 -7 0 52.664 48.306 5.272 42.379 o
1 -7 1 1753.460 1815.610 39.273 0.478 o
1 -7 2 12.862 19.915 3.362 106.614 o
1 -7 3 10.935 14.213 4.032 74.410 o
1 -7 4 153.156 134.496 10.445 10.462 o
1 -7 5 349.548 372.929 16.335 3.947 o
1 -7 6 40.229 46.896 5.716 36.497 o
1 -7 7 148.234 165.054 15.280 5.034 o
1 -7 8 97.077 74.577 9.841 12.205 o
1 -7 9 53.725 71.149 8.639 16.012 o
1 -6 0 740.843 718.042 16.621 2.716 o
1 -6 1 262.553 254.737 9.224 11.391 o
1 -6 2 288.443 280.515 9.405 10.608 o
1 -6 3 259.560 285.590 9.634 10.492 o
1 -6 4 326.677 305.000 12.592 6.354 o
1 -6 5 84.165 88.049 6.209 29.685 o
1 -6 6 89.624 80.582 7.788 19.248 o
1 -6 7 29.221 30.281 4.375 62.468 o
1 -6 8 737.871 743.706 29.394 1.169 o
1 -6 9 7.431 8.392 2.506 192.567 o
1 -6 10 3.643 2.598 2.341 221.156 o
1 -6 11 57.074 52.516 6.778 25.855 o
1 -5 0 1.394 0.982 1.123 961.810 o
1 -5 1 1847.970 1823.590 28.930 0.635 o
1 -5 2 78.371 79.035 4.435 56.102 o
1 -5 3 428.656 423.720 12.455 5.697 o
1 -5 4 0.122 0.002 1.625 459.466 o
1 -5 5 912.076 941.221 25.362 1.329 o
1 -5 6 78.101 79.716 7.635 20.135 o
1 -5 7 32.581 32.364 5.741 36.434 o
1 -5 8 137.656 148.184 9.077 13.676 o
1 -5 9 213.516 224.698 13.476 6.172 o
1 -5 10 24.491 36.307 4.982 48.381 o
1 -5 11 692.302 714.096 34.440 0.904 o
1 -5 12 104.827 105.539 10.255 11.163 o
1 -5 13 82.918 101.946 20.079 2.990 o
1 -4 0 524.530 528.760 9.002 7.190 o
1 -4 1 186.400 168.424 5.359 31.081 o
1 -4 2 469.691 482.325 12.331 5.434 o
1 -4 3 773.590 778.641 14.844 2.953 o
1 -4 4 1739.450 1758.200 26.524 0.727 o
1 -4 5 932.070 942.700 17.851 2.035 o
1 -4 6 170.645 173.846 9.636 11.870 o
1 -4 7 26.196 30.965 3.739 85.279 o
1 -4 8 847.634 878.823 26.010 1.333 o
1 -4 9 50.574 53.534 4.723 52.405 o
1 -4 10 63.748 63.731 10.791 10.303 o
1 -4 11 25.221 13.858 4.002 75.062 o
1 -4 12 547.650 573.153 29.105 1.284 o
1 -4 13 17.997 13.235 3.919 78.555 o
1 -4 14 101.975 106.747 10.350 10.977 o
1 -3 0 688.783 680.051 10.569 4.651 o
1 -3 1 3750.000 3596.750 42.181 0.198 o
1 -3 2 173.693 180.440 7.174 19.798 o
1 -3 3 4.722 3.999 0.705 2412.230 o
1 -3 4 65.396 67.947 2.857 126.959 o
1 -3 5 2628.300 2554.650 43.274 0.302 o
1 -3 6 231.908 233.207 6.306 21.328 o
1 -3 7 363.560 368.155 10.040 8.480 o
1 -3 8 649.191 653.228 17.729 2.705 o
1 -3 9 552.359 573.350 15.350 3.623 o
1 -3 10 102.273 100.449 5.686 34.069 o
1 -3 11 619.229 616.046 21.335 2.105 o
1 -3 12 0.104 0.188 1.509 533.014 o
1 -3 13 3.479 2.980 3.286 112.310 o
1 -3 14 81.169 71.332 11.479 9.073 o
1 -3 15 410.792 431.347 20.892 2.467 o
1 -2 0 281.642 298.423 6.296 18.440 o
1 -2 1 228.580 233.945 5.401 26.378 o
1 -2 2 8744.280 7671.090 103.137 0.037 o
1 -2 3 59.270 61.741 2.525 161.279 o
1 -2 4 4068.060 4008.590 40.351 0.178 o
1 -2 5 721.188 731.942 9.153 4.847 o
1 -2 6 149.985 149.023 4.896 39.038 o
1 -2 7 692.657 665.423 13.857 3.567 o
1 -2 8 921.896 941.240 20.553 1.744 o
1 -2 9 22.950 27.869 2.654 167.673 o
1 -2 10 67.602 64.293 5.070 44.749 o
1 -2 11 49.091 45.003 3.960 73.960 o
1 -2 12 1243.360 1252.290 26.026 1.037 o
1 -2 13 124.522 123.710 9.712 12.228 o
1 -2 14 23.431 27.453 5.117 45.987 o
1 -2 15 130.187 118.176 11.496 8.841 o
1 -2 16 132.152 143.297 15.693 4.812 o
1 -1 0 485.488 504.169 7.108 9.539 o
1 -1 1 7153.860 6604.510 90.048 0.052 o
1 -1 2 1.539 1.069 0.602 3340.030 o
1 -1 3 2924.970 2961.920 33.441 0.315 o
1 -1 4 65.727 67.474 2.573 151.415 o
1 -1 5 3170.690 3163.980 44.950 0.233 o
1 -1 6 50.980 56.794 1.876 275.355 o
1 -1 7 94.475 92.220 3.951 65.936 o
1 -1 8 115.027 111.145 5.280 37.930 o
1 -1 9 956.154 955.770 19.981 1.761 o
1 -1 10 153.909 153.335 7.235 20.273 o
1 -1 11 230.458 228.853 7.872 15.410 o
1 -1 12 236.334 227.419 9.798 10.711 o
1 -1 13 202.180 203.667 10.710 9.498 o
1 -1 14 56.877 58.424 5.816 34.794 o
1 -1 15 1112.210 1132.980 34.209 0.774 o
1 -1 16 30.566 41.482 5.826 35.349 o
1 -1 17 12.077 9.740 5.212 44.582 o
1 0 0 834.655 853.176 8.281 4.145 o
1 0 1 984.270 1054.010 12.554 2.531 o
1 0 2 6398.630 6493.940 76.450 0.064 o
1 0 3 1738.930 1827.870 19.615 0.881 o
1 0 4 2452.770 2522.190 26.481 0.459 o
1 0 5 26.006 29.352 1.389 561.136 o
1 0 6 160.377 155.391 3.665 56.640 o
1 0 7 29.613 31.356 1.772 353.908 o
1 0 8 1282.860 1279.710 23.986 1.107 o
1 0 9 493.380 487.664 8.577 8.080 o
1 0 10 255.794 242.171 6.054 21.409 o
1 0 11 0.336 0.301 1.129 951.644 o
1 0 12 1320.550 1348.040 36.315 0.646 o
1 0 13 112.649 96.196 6.434 26.938 o
1 0 14 185.970 181.940 9.262 12.559 o
1 0 15 66.917 74.737 6.735 25.868 o
1 0 16 363.575 370.988 15.776 4.164 o
1 0 17 25.817 27.927 9.312 13.952 o
1 1 0 532.050 546.266 5.637 9.854 o
1 1 1 7128.630 6595.770 64.412 0.062 o
1 1 2 201.727 202.987 4.223 39.403 o
1 1 3 12.695 13.283 1.134 906.013 o
1 1 4 1268.550 1317.650 17.813 1.443 o
1 1 5 2674.560 2670.900 43.314 0.293 o
1 1 6 25.602 22.502 1.405 560.199 o
1 1 7 525.378 530.207 8.569 7.513 o
1 1 8 1135.720 1091.020 21.406 1.416 o
1 1 9 2505.350 2421.080 45.042 0.305 o
1 1 10 298.378 280.679 8.464 12.283 o
1 1 11 753.062 736.020 15.800 2.843 o
1 1 12 47.004 37.722 3.601 89.364 o
1 1 13 96.767 98.116 9.864 12.095 o
1 1 14 27.494 28.171 3.661 88.913 o
1 1 15 499.017 481.262 15.970 3.653 o
1 1 16 13.208 12.008 4.296 65.547 o
1 1 17 22.474 18.792 6.427 29.263 o
1 2 0 45.686 52.248 1.819 300.744 o
1 2 1 211.947 217.613 3.671 43.366 o
1 2 2 8534.480 8127.290 89.249 0.040 o
1 2 3 6.904 9.219 1.379 632.145 o
1 2 4 1302.040 1261.560 13.949 1.683 o
1 2 5 190.723 191.801 4.107 42.652 o
1 2 6 2968.210 2938.730 47.369 0.242 o
1 2 7 1087.570 1086.650 20.086 1.559 o
1 2 8 2662.970 2577.650 104.586 0.092 o
1 2 9 457.896 443.579 23.492 1.966 o
1 2 10 9.190 11.475 2.876 146.062 o
1 2 11 17.041 24.086 2.859 146.300 o
1 2 12 1082.900 1054.260 26.415 1.141 o
1 2 13 34.771 36.887 4.732 53.223 o
1 2 14 58.228 62.635 5.171 43.524 o
1 2 15 13.242 12.663 2.616 175.813 o
1 2 16 371.913 386.391 19.446 2.867 o
1 2 17 157.790 174.067 15.613 4.810 o
1 3 0 40.988 43.264 1.662 365.829 o
1 3 1 761.799 737.113 11.135 3.991 o
1 3 2 65.800 66.668 2.011 223.413 o
1 3 3 2688.970 2679.740 36.953 0.332 o
1 3 4 1005.320 999.465 15.445 2.175 o
1 3 5 7218.340 7130.650 89.569 0.050 o
1 3 6 613.348 627.667 9.355 5.815 o
1 3 7 461.894 463.594 8.383 8.786 o
1 3 8 211.300 244.242 13.671 5.989 o
1 3 9 449.316 502.803 23.402 1.967 o
1 3 10 375.497 376.183 10.387 7.947 o
1 3 11 12.861 19.874 3.050 129.353 o
1 3 12 100.404 91.414 6.640 25.759 o
1 3 13 845.795 833.698 25.929 1.353 o
1 3 14 112.335 118.822 9.195 13.675 o
1 3 15 872.082 847.983 25.212 1.391 o
1 3 16 78.091 92.365 7.895 18.807 o
1 3 17 3.072 3.345 2.363 217.132 o
1 3 18 10.388 3.654 6.307 30.485 o
1 4 0 2856.670 2754.900 26.131 0.378 o
1 4 1 456.909 450.050 9.214 8.065 o
1 4 2 3672.030 3606.130 45.057 0.194 o
1 4 3 488.822 492.114 8.708 7.986 o
1 4 4 295.277 306.398 9.415 10.370 o
1 4 5 39.330 38.161 2.398 194.636 o
1 4 6 540.896 558.475 13.059 4.573 o
1 4 7 11.477 9.263 1.847 351.932 o
1 4 8 1010.360 1029.900 20.121 1.656 o
1 4 9 74.173 84.728 6.925 24.323 o
1 4 10 343.688 354.613 11.406 7.207 o
1 4 11 143.169 142.861 7.784 18.083 o
1 4 12 822.150 819.299 24.129 1.524 o
1 4 13 2.736 2.338 1.863 349.179 o
1 4 14 49.873 53.562 11.048 9.872 o
1 4 15 14.655 12.410 3.436 102.203 o
1 4 16 750.860 730.346 33.273 0.946 o
1 4 17 21.229 17.703 3.930 77.913 o
1 5 0 154.214 150.363 4.025 51.371 o
1 5 1 816.498 820.431 16.292 2.541 o
1 5 2 533.351 522.045 12.435 4.981 o
1 5 3 166.688 178.683 11.207 8.997 o
1 5 4 0.324 0.774 0.763 2083.440 o
1 5 5 2529.410 2567.630 39.997 0.333 o
1 5 6 166.600 171.908 7.085 20.500 o
1 5 7 186.293 185.800 8.074 15.925 o
1 5 8 73.572 77.032 4.879 47.431 o
1 5 9 668.343 687.935 21.133 2.053 o
1 5 10 23.735 18.249 4.066 72.717 o
1 5 11 432.222 445.927 16.163 3.771 o
1 5 12 461.627 505.445 18.497 2.930 o
1 5 13 600.003 592.367 22.905 1.902 o
1 5 14 76.719 88.821 9.800 12.364 o
1 5 15 237.353 231.445 14.166 5.559 o
1 5 16 0.143 -1.372 1.891 339.419 o
1 5 17 19.931 13.638 3.835 81.906 o
1 6 0 21.124 20.421 1.565 468.706 o
1 6 1 0.131 -0.961 0.695 2508.020 o
1 6 2 718.200 745.740 22.202 1.836 o
1 6 3 429.262 423.372 14.654 4.450 o
1 6 4 482.149 499.485 14.362 4.306 o
1 6 5 40.644 40.364 3.861 78.644 o
1 6 6 1514.130 1578.240 29.231 0.757 o
1 6 7 172.378 176.080 7.986 16.544 o
1 6 8 588.662 612.891 16.370 3.185 o
1 6 9 213.852 227.497 10.801 9.206 o
1 6 10 55.212 53.813 6.708 26.402 o
1 6 11 8.452 7.725 2.374 214.517 o
1 6 12 903.547 920.267 25.308 1.344 o
1 6 13 6.026 4.975 2.624 175.874 o
1 6 14 32.201 28.843 6.948 24.971 o
1 6 15 12.842 8.215 3.207 117.459 o
1 6 16 315.993 283.375 24.247 1.965 o
1 7 0 105.138 104.630 7.320 21.256 o
1 7 1 295.587 284.234 9.720 9.986 o
1 7 2 0.367 1.069 1.458 570.480 o
1 7 3 466.483 461.340 12.023 5.695 o
1 7 4 42.819 44.469 4.328 62.773 o
1 7 5 993.299 1003.360 27.146 1.153 o
1 7 6 52.155 50.762 5.455 39.645 o
1 7 7 115.746 117.927 8.189 17.001 o
1 7 8 2.510 3.221 1.716 411.770 o
1 7 9 946.111 981.258 37.684 0.709 o
1 7 10 0.384 -2.680 2.188 253.361 o
1 7 11 57.167 69.364 9.289 13.868 o
1 7 12 137.178 130.304 11.367 8.988 o
1 7 13 196.876 187.860 15.078 5.070 o
1 7 14 270.860 266.234 15.778 4.461 o
1 7 15 221.196 188.805 13.437 6.235 o
1 8 0 81.654 90.158 9.651 12.716 o
1 8 1 25.952 25.417 4.172 68.856 o
1 8 2 347.806 331.252 12.812 6.027 o
1 8 3 0.368 0.813 2.294 230.493 o
1 8 4 306.463 302.030 13.752 5.549 o
1 8 5 21.763 20.264 4.099 71.588 o
1 8 6 553.327 562.375 20.645 2.314 o
1 8 7 56.867 49.477 5.311 41.616 o
1 8 8 265.304 270.306 20.609 2.712 o
1 8 9 77.308 89.319 13.393 6.684 o
1 8 10 164.348 177.003 14.187 5.769 o
1 8 11 47.029 50.602 8.536 16.482 o
1 8 12 298.660 291.146 19.085 3.094 o
1 8 13 4.377 0.190 2.477 197.623 o
1 8 14 42.093 43.527 13.812 6.340 o
1 9 0 72.110 73.602 9.343 13.636 o
1 9 1 237.566 250.256 17.432 3.763 o
1 9 2 217.723 227.011 17.577 3.739 o
1 9 3 288.039 278.537 18.686 3.236 o
1 9 4 1.425 1.494 3.248 114.969 o
1 9 5 574.617 566.771 27.663 1.396 o
1 9 6 30.632 26.930 6.067 32.715 o
1 9 7 21.871 12.549 5.620 38.267 o
1 9 8 20.782 15.774 6.052 33.013 o
1 9 9 436.772 426.283 45.944 0.559 o
1 9 10 15.170 3.621 9.651 13.018 o
1 9 11 179.043 174.580 22.800 2.290 o
1 9 12 17.124 14.421 7.053 24.345 o
1 10 1 0.089 5.132 3.865 81.221 o
1 10 2 306.858 303.878 24.843 1.875 o
1 10 3 3.537 5.473 4.484 60.328 o
1 10 4 52.093 37.002 8.689 15.920 o
1 10 5 18.263 25.433 10.265 11.497 o
1 10 6 392.967 369.267 38.448 0.795 o
2 -8 0 50.525 36.379 4.753 52.171 o
2 -8 1 33.326 43.657 6.451 28.853 o
2 -8 2 1113.640 1111.070 40.803 0.590 o
2 -8 3 26.614 31.545 5.996 33.501 o
2 -8 4 130.884 135.822 13.501 6.458 o
2 -8 5 2.406 1.395 5.344 42.478 o
2 -7 0 45.072 38.677 5.094 45.711 o
2 -7 1 27.468 29.364 6.194 31.411 o
2 -7 2 119.231 118.799 8.419 16.093 o
2 -7 3 350.791 329.378 17.423 3.557 o
2 -7 4 109.353 118.220 14.634 5.561 o
2 -7 5 319.564 328.805 15.919 4.236 o
2 -7 6 64.024 58.758 8.000 18.599 o
2 -7 7 62.616 61.792 9.278 13.893 o
2 -7 8 24.544 28.252 5.389 41.472 o
2 -6 0 384.242 368.090 17.994 3.285 o
2 -6 1 0.027 -0.669 1.169 888.148 o
2 -6 2 817.089 838.982 25.699 1.385 o
2 -6 3 4.010 2.619 1.472 558.809 o
2 -6 4 7.612 8.941 1.963 313.232 o
2 -6 5 248.035 242.994 13.821 5.770 o
2 -6 6 672.333 704.076 23.129 1.777 o
2 -6 7 0.198 1.466 2.480 197.290 o
2 -6 8 83.776 95.553 9.027 14.455 o
2 -6 9 292.864 310.887 20.159 2.791 o
2 -6 10 356.545 383.233 22.786 2.160 o
2 -6 11 107.634 106.494 18.939 3.348 o
2 -5 0 0.507 -0.194 1.106 991.890 o
2 -5 1 292.462 312.837 12.229 6.817 o
2 -5 2 0.528 0.215 0.877 1576.540 o
2 -5 3 1159.620 1196.020 25.387 1.124 o
2 -5 4 133.814 139.814 7.849 17.983 o
2 -5 5 210.103 214.732 12.403 7.220 o
2 -5 6 97.338 91.576 6.495 26.915 o
2 -5 7 423.169 433.454 16.654 3.621 o
2 -5 8 76.607 76.472 6.336 28.878 o
2 -5 9 451.313 413.090 16.717 3.563 o
2 -5 10 134.393 130.881 12.416 7.592 o
2 -5 11 12.612 13.578 3.294 111.280 o
2 -5 12 1.171 5.973 3.695 88.828 o
2 -4 0 596.703 574.978 15.146 3.573 o
2 -4 1 30.991 35.719 3.144 118.708 o
2 -4 2 896.907 911.345 21.577 1.677 o
2 -4 3 0.097 0.047 0.879 1568.800 o
2 -4 4 393.940 384.655 11.038 7.125 o
2 -4 5 13.629 11.844 1.782 375.693 o
2 -4 6 1616.830 1644.720 34.885 0.590 o
2 -4 7 57.100 53.619 4.630 54.081 o
2 -4 8 136.741 143.998 8.703 14.817 o
2 -4 9 38.847 23.651 4.267 65.319 o
2 -4 10 207.801 212.810 10.389 9.956 o
2 -4 11 62.405 73.162 7.608 20.468 o
2 -4 12 69.243 61.835 6.423 28.428 o
2 -4 13 43.614 32.975 5.981 33.432 o
2 -4 14 296.069 308.781 43.350 0.636 o
2 -3 0 63.568 68.435 3.765 78.170 o
2 -3 1 162.607 160.337 6.901 21.691 o
2 -3 2 64.871 66.367 5.247 41.993 o
2 -3 3 1782.600 1780.990 28.940 0.658 o
2 -3 4 135.896 125.662 4.206 52.162 o
2 -3 5 1184.450 1159.830 19.710 1.467 o
2 -3 6 475.979 471.327 13.233 4.922 o
2 -3 7 469.345 456.390 21.943 2.205 o
2 -3 8 94.579 112.508 8.232 17.094 o
2 -3 9 418.952 449.703 20.203 2.600 o
2 -3 10 6.340 6.932 2.242 240.751 o
2 -3 11 71.148 67.517 6.246 29.907 o
2 -3 12 4.836 5.785 3.038 131.360 o
2 -3 13 501.896 521.283 22.488 2.064 o
2 -3 14 12.357 16.104 4.340 64.201 o
2 -3 15 38.081 39.266 7.109 23.785 o
2 -2 0 4322.570 4031.400 56.755 0.137 o
2 -2 1 4.776 6.029 0.572 3616.760 o
2 -2 2 879.246 819.851 23.874 1.509 o
2 -2 3 308.963 306.997 9.359 10.305 o
2 -2 4 204.760 193.705 9.952 10.845 o
2 -2 5 224.367 225.436 7.555 16.597 o
2 -2 6 3133.730 2964.330 53.739 0.206 o
2 -2 7 62.744 61.820 2.612 150.590 o
2 -2 8 207.969 213.748 8.132 15.145 o
2 -2 9 7.748 7.473 1.750 393.549 o
2 -2 10 610.803 631.234 24.746 1.654 o
2 -2 11 28.321 32.110 4.192 67.967 o
2 -2 12 119.252 119.161 7.053 22.359 o
2 -2 13 225.800 231.549 16.060 4.421 o
2 -2 14 179.640 169.999 16.793 4.156 o
2 -2 15 55.002 69.609 9.298 13.851 o
2 -2 16 395.981 339.079 20.637 2.576 o
2 -1 0 581.204 583.511 8.129 6.995 o
2 -1 1 351.185 362.431 7.439 12.734 o
2 -1 2 26.212 28.297 1.413 544.782 o
2 -1 3 5029.490 5132.430 94.976 0.071 o
2 -1 4 77.099 81.259 3.634 80.027 o
2 -1 5 1411.980 1473.350 21.317 1.098 o
2 -1 6 118.287 110.217 3.941 61.365 o
2 -1 7 707.245 697.546 12.802 3.779 o
2 -1 8 491.336 490.134 10.908 6.209 o
2 -1 9 254.585 259.680 7.726 15.067 o
2 -1 10 741.778 766.931 19.072 2.238 o
2 -1 11 368.846 349.269 11.584 6.901 o
2 -1 12 8.462 5.703 1.716 409.507 o
2 -1 13 1188.740 1238.340 30.764 0.862 o
2 -1 14 10.211 8.978 2.666 169.911 o
2 -1 15 3.049 1.963 2.417 207.595 o
2 -1 16 0.116 1.331 2.731 162.590 o
2 0 0 402.413 417.716 6.703 12.432 o
2 0 1 2627.010 2718.360 32.112 0.371 o
2 0 2 316.549 338.323 6.601 15.794 o
2 0 3 585.770 653.379 11.003 5.089 o
2 0 4 2271.620 2336.740 38.523 0.385 o
2 0 5 247.687 276.466 8.225 13.686 o
2 0 6 2015.170 2110.770 37.744 0.441 o
2 0 7 239.317 235.458 6.648 19.515 o
2 0 8 372.573 354.580 11.469 6.967 o
2 0 9 45.194 43.315 2.746 148.515 o
2 0 10 1336.520 1310.910 20.218 1.253 o
2 0 11 9.521 8.843 1.465 558.463 o
2 0 12 197.530 198.714 10.181 10.451 o
2 0 13 144.211 142.473 9.733 11.978 o
2 0 14 431.083 473.631 17.416 3.313 o
2 0 15 83.580 87.156 7.402 21.257 o
2 0 16 181.149 186.579 11.162 8.972 o
2 0 17 29.376 28.351 7.161 23.533 o
2 1 0 324.341 349.036 4.959 20.337 o
2 1 1 295.111 310.709 4.620 24.294 o
2 1 2 2015.440 2169.070 27.712 0.572 o
2 1 3 582.427 597.245 12.125 4.732 o
2 1 4 6.837 7.221 1.209 821.178 o
2 1 5 1001.650 1070.460 19.630 1.689 o
2 1 6 23.633 23.494 1.659 414.382 o
2 1 7 2387.840 2349.240 39.920 0.359 o
2 1 8 82.592 79.900 4.695 50.208 o
2 1 9 2436.790 2462.490 51.724 0.265 o
2 1 10 291.820 294.354 7.758 13.890 o
2 1 11 300.407 287.651 11.129 7.999 o
2 1 12 43.351 43.542 4.244 65.202 o
2 1 13 127.616 144.544 8.405 15.906 o
2 1 14 21.392 31.754 4.588 57.099 o
2 1 15 66.020 72.264 6.535 27.461 o
2 1 16 0.867 -3.217 1.812 369.472 o
2 1 17 678.152 685.529 31.829 1.046 o
2 2 0 6.434 8.149 0.628 2959.640 o
2 2 1 10.729 12.185 0.726 2140.240 o
2 2 2 1910.030 1902.550 22.897 0.723 o
2 2 3 2720.510 2731.840 32.741 0.354 o
2 2 4 4328.050 4311.050 48.883 0.146 o
2 2 5 319.232 331.948 8.593 11.336 o
2 2 6 4145.660 4179.900 51.347 0.150 o
2 2 7 219.183 216.911 6.211 22.592 o
2 2 8 169.938 162.714 5.609 30.057 o
2 2 9 27.894 30.317 2.696 161.170 o
2 2 10 1125.220 1118.330 24.912 1.189 o
2 2 11 12.417 10.255 1.792 372.871 o
2 2 12 218.513 222.084 9.080 12.410 o
2 2 13 49.073 54.651 5.113 44.987 o
2 2 14 212.919 229.094 14.851 5.148 o
2 2 15 40.022 46.153 5.132 45.100 o
2 2 16 237.528 222.300 16.124 4.378 o
2 2 17 46.725 61.645 14.725 5.573 o
2 3 0 14.439 15.452 0.815 1653.420 o
2 3 1 2451.480 2459.060 22.012 0.507 o
2 3 2 9.565 9.463 0.791 1852.000 o
2 3 3 4943.390 4811.210 48.576 0.122 o
2 3 4 13.000 13.283 1.115 935.308 o
2 3 5 354.782 366.154 7.979 11.618 o
2 3 6 7.626 8.158 1.213 813.802 o
2 3 7 1410.470 1419.570 22.010 1.085 o
2 3 8 284.899 275.447 9.312 10.844 o
2 3 9 807.891 762.352 25.160 1.458 o
2 3 10 104.023 88.296 9.131 14.030 o
2 3 11 120.674 117.660 7.836 18.396 o
2 3 12 84.060 84.955 6.942 24.045 o
2 3 13 572.771 556.532 18.106 2.822 o
2 3 14 84.108 101.934 7.227 22.135 o
2 3 15 183.371 180.254 11.968 7.889 o
2 3 16 15.514 13.286 2.770 156.733 o
2 3 17 677.504 652.155 22.963 1.813 o
2 4 0 1766.950 1760.460 19.760 0.881 o
2 4 1 6.011 5.083 0.707 2380.180 o
2 4 2 1359.530 1391.060 18.614 1.289 o
2 4 3 214.734 227.425 4.730 32.288 o
2 4 4 318.928 323.152 7.157 14.486 o
2 4 5 96.013 94.178 4.190 59.352 o
2 4 6 959.419 978.401 22.181 1.540 o
2 4 7 2.797 2.735 1.603 471.856 o
2 4 8 665.646 648.985 16.011 3.075 o
2 4 9 11.396 10.478 2.144 261.570 o
2 4 10 1005.240 957.840 48.586 0.454 o
2 4 11 0.199 -0.001 1.999 303.565 o
2 4 12 113.229 113.377 8.255 16.798 o
2 4 13 36.605 37.110 4.964 48.381 o
2 4 14 898.878 896.742 27.102 1.225 o
2 4 15 37.877 40.032 7.531 21.210 o
2 4 16 230.781 257.196 15.084 4.937 o
2 4 17 74.010 76.660 7.585 20.454 o
2 4 18 26.923 33.224 7.637 20.704 o
2 5 0 188.165 189.453 5.547 28.855 o
2 5 1 344.694 334.130 10.138 8.685 o
2 5 2 308.066 306.678 7.266 14.653 o
2 5 3 574.492 597.095 11.634 4.998 o
2 5 4 566.020 575.330 16.878 3.130 o
2 5 5 186.651 191.917 7.618 17.509 o
2 5 6 11.057 9.338 1.781 378.370 o
2 5 7 1123.070 1160.790 24.378 1.209 o
2 5 8 2.206 3.886 1.222 810.853 o
2 5 9 1364.710 1387.760 29.436 0.829 o
2 5 10 11.175 9.301 2.629 174.644 o
2 5 11 491.464 452.154 24.059 1.862 o
2 5 12 82.036 86.494 10.090 11.662 o
2 5 13 336.407 335.680 17.556 3.526 o
2 5 14 84.599 55.020 8.215 17.515 o
2 5 15 53.825 45.926 7.529 21.094 o
2 5 16 0.469 1.111 2.696 166.883 o
2 5 17 247.099 259.647 15.835 4.480 o
2 6 0 704.111 709.387 16.573 2.804 o
2 6 1 233.794 248.867 10.188 9.954 o
2 6 2 761.874 728.945 15.689 2.855 o
2 6 3 375.523 384.434 14.292 4.859 o
2 6 4 203.389 210.552 10.117 10.478 o
2 6 5 39.529 44.476 4.597 55.983 o
2 6 6 1489.820 1470.210 34.424 0.644 o
2 6 7 12.698 13.350 2.896 143.708 o
2 6 8 404.004 443.677 18.862 2.952 o
2 6 9 5.340 3.759 1.689 424.363 o
2 6 10 937.656 953.731 28.162 1.128 o
2 6 11 0.034 2.295 2.275 234.455 o
2 6 12 107.998 100.351 14.406 5.748 o
2 6 13 157.640 164.092 10.993 9.407 o
2 6 14 144.842 149.921 13.267 6.635 o
2 6 15 66.637 82.928 10.207 11.464 o
2 6 16 111.252 103.715 11.487 8.939 o
2 7 0 15.771 17.306 2.534 186.466 o
2 7 1 56.092 61.463 4.299 62.068 o
2 7 2 65.348 48.817 3.452 92.947 o
2 7 3 562.093 566.352 23.584 1.847 o
2 7 4 10.684 10.914 1.886 337.680 o
2 7 5 465.910 479.413 25.709 1.659 o
2 7 6 259.811 284.512 13.130 6.215 o
2 7 7 1450.000 1494.320 36.827 0.596 o
2 7 8 49.861 51.117 5.738 35.968 o
2 7 9 96.308 92.450 8.525 16.059 o
2 7 10 19.337 12.019 3.210 116.688 o
2 7 11 16.198 20.330 4.138 70.433 o
2 7 12 92.974 91.012 13.424 6.633 o
2 7 13 664.143 667.216 24.550 1.633 o
2 7 14 12.131 11.998 4.325 64.691 o
2 7 15 144.596 133.332 15.328 5.029 o
2 8 0 792.628 787.370 19.919 2.039 o
2 8 1 12.090 17.451 3.109 124.729 o
2 8 2 580.371 567.199 17.845 2.864 o
2 8 3 41.302 51.393 6.460 28.637 o
2 8 4 159.987 177.245 9.383 12.539 o
2 8 5 9.186 6.872 3.791 84.265 o
2 8 6 257.804 265.344 13.277 6.134 o
2 8 7 78.786 103.075 9.194 13.957 o
2 8 8 109.735 129.063 11.557 8.800 o
2 8 9 34.489 43.702 6.700 26.756 o
2 8 10 788.124 801.505 35.852 0.817 o
2 8 11 50.737 45.886 6.313 29.867 o
2 8 12 107.381 82.983 11.165 9.493 o
2 8 13 0.359 3.075 4.342 64.347 o
2 8 14 203.655 196.515 26.523 1.694 o
2 9 0 0.365 -1.058 1.863 349.438 o
2 9 1 43.828 38.346 6.724 26.506 o
2 9 2 11.362 10.908 2.977 136.252 o
2 9 3 394.540 389.666 22.004 2.275 o
2 9 4 24.206 24.788 5.505 39.786 o
2 9 5 104.474 92.106 10.493 10.707 o
2 9 6 34.605 35.733 6.755 26.361 o
2 9 7 279.740 324.916 20.066 2.820 o
2 9 8 328.247 325.384 25.855 1.727 o
2 9 9 226.625 254.485 22.885 2.241 o
2 9 10 0.872 -2.003 2.408 209.216 o
2 9 11 273.555 275.027 18.936 3.173 o
2 10 1 81.132 44.568 14.607 5.646 o
2 10 2 62.175 62.242 9.115 14.387 o
2 10 3 65.312 57.965 8.987 14.791 o
2 10 4 106.146 89.216 11.012 9.746 o
2 10 5 94.590 102.398 11.826 8.492 o
2 10 6 507.939 521.293 27.367 1.458 o
2 10 7 0.015 3.890 5.481 40.374 o
3 -8 0 340.489 353.956 17.011 3.709 o
3 -8 1 0.679 1.984 1.883 341.996 o
3 -8 2 62.897 62.349 8.029 18.460 o
3 -7 0 105.646 104.686 7.611 19.742 o
3 -7 1 62.756 81.929 9.795 12.447 o
3 -7 2 23.632 23.272 4.159 69.422 o
3 -7 3 359.488 362.807 19.144 2.975 o
3 -7 4 10.605 9.900 3.666 90.017 o
3 -7 5 71.830 76.382 10.218 11.431 o
3 -7 6 4.634 1.672 3.750 86.227 o
3 -7 7 173.119 171.015 32.373 1.147 o
3 -6 0 473.395 477.195 17.083 3.340 o
3 -6 1 23.822 23.280 3.147 120.313 o
3 -6 2 4.969 4.422 1.537 512.048 o
3 -6 3 63.403 58.532 5.041 45.563 o
3 -6 4 513.951 579.855 21.175 2.249 o
3 -6 5 15.346 16.042 5.239 44.077 o
3 -6 6 215.918 215.725 12.755 6.836 o
3 -6 7 20.838 17.587 3.863 80.639 o
3 -6 8 248.526 243.672 13.842 5.751 o
3 -6 9 53.529 47.170 11.808 8.649 o
3 -6 10 322.656 374.877 37.849 0.826 o
3 -5 0 85.872 90.859 6.239 29.334 o
3 -5 1 408.926 430.559 23.264 2.035 o
3 -5 2 7.159 6.443 1.886 339.505 o
3 -5 3 315.518 328.153 13.420 5.709 o
3 -5 4 37.023 41.740 4.625 55.487 o
3 -5 5 208.537 219.801 10.661 9.481 o
3 -5 6 152.611 156.360 10.117 11.042 o
3 -5 7 904.313 944.655 27.681 1.174 o
3 -5 8 53.908 51.475 8.727 15.744 o
3 -5 9 98.611 91.214 7.299 21.583 o
3 -5 10 67.477 70.959 6.598 26.938 o
3 -5 11 236.952 257.354 23.235 2.171 o
3 -4 0 547.113 529.847 15.437 3.663 o
3 -4 1 2.952 1.174 1.532 516.512 o
3 -4 2 1023.800 981.721 24.702 1.300 o
3 -4 3 181.743 169.948 10.374 10.312 o
3 -4 4 1328.610 1356.240 30.000 0.827 o
3 -4 5 0.550 2.780 1.635 453.941 o
3 -4 6 51.272 58.201 5.621 37.319 o
3 -4 7 2.323 1.501 1.800 374.342 o
3 -4 8 298.421 316.694 13.312 5.872 o
3 -4 9 52.148 50.764 5.233 42.975 o
3 -4 10 308.174 308.640 13.287 5.869 o
3 -4 11 54.017 58.128 5.618 37.283 o
3 -4 12 124.439 138.377 9.948 11.637 o
3 -4 13 37.352 43.574 6.616 27.405 o
3 -3 0 105.798 98.386 5.215 39.675 o
3 -3 1 734.395 729.025 16.837 2.674 o
3 -3 2 9.228 9.713 1.793 373.966 o
3 -3 3 597.067 572.827 18.052 2.783 o
3 -3 4 233.528 237.804 8.289 14.072 o
3 -3 5 149.329 164.992 8.644 14.740 o
3 -3 6 5.409 4.104 2.122 268.843 o
3 -3 7 1170.970 1157.000 28.079 0.995 o
3 -3 8 24.784 24.009 2.796 151.434 o
3 -3 9 243.724 260.018 17.137 3.871 o
3 -3 10 64.382 56.731 7.333 22.062 o
3 -3 11 173.427 162.886 11.098 9.168 o
3 -3 12 0.350 3.107 2.038 292.123 o
3 -3 13 92.886 99.006 9.548 12.904 o
3 -3 14 122.994 117.369 16.792 4.232 o
3 -2 0 3766.700 3557.890 37.306 0.212 o
3 -2 1 1128.180 1109.890 14.859 1.957 o
3 -2 2 132.600 140.261 5.274 36.093 o
3 -2 3 144.531 141.843 6.508 24.812 o
3 -2 4 794.437 830.896 31.462 1.014 o
3 -2 5 976.362 868.974 29.765 1.040 o
3 -2 6 382.901 358.976 13.760 5.186 o
3 -2 7 52.538 63.737 5.787 35.175 o
3 -2 8 848.686 863.749 21.021 1.803 o
3 -2 9 5.774 9.031 1.684 425.406 o
3 -2 10 655.265 630.659 31.475 1.080 o
3 -2 11 32.666 26.779 4.315 64.131 o
3 -2 12 95.153 91.212 12.697 7.396 o
3 -2 13 4.671 5.116 2.486 196.063 o
3 -2 14 311.111 343.633 17.828 3.459 o
3 -2 15 26.512 21.382 5.342 42.218 o
3 -2 16 83.160 94.549 18.350 3.577 o
3 -1 0 122.569 128.674 2.843 93.270 o
3 -1 1 2658.920 2675.050 40.613 0.311 o
3 -1 2 720.258 733.620 17.775 2.515 o
3 -1 3 1068.230 1068.010 19.363 1.647 o
3 -1 4 57.162 58.408 3.189 108.100 o
3 -1 5 288.038 263.722 10.142 9.499 o
3 -1 6 48.520 42.606 6.273 30.299 o
3 -1 7 1609.150 1587.820 33.707 0.622 o
3 -1 8 40.998 44.855 4.561 56.761 o
3 -1 9 191.652 198.439 10.659 9.663 o
3 -1 10 0.441 1.715 2.085 279.091 o
3 -1 11 1062.510 1085.600 26.731 1.126 o
3 -1 12 0.411 2.185 1.208 830.441 o
3 -1 13 154.905 162.287 9.950 11.352 o
3 -1 14 140.645 154.066 11.173 9.224 o
3 -1 15 113.222 114.093 11.469 8.945 o
3 -1 16 99.996 91.806 13.675 6.385 o
3 0 0 5824.680 5728.110 49.594 0.093 o
3 0 1 349.810 358.026 9.889 8.843 o
3 0 2 504.337 501.648 11.067 5.981 o
3 0 3 7.729 8.354 0.917 1410.330 o
3 0 4 741.459 710.340 18.682 2.340 o
3 0 5 120.613 120.681 8.405 16.120 o
3 0 6 828.446 804.296 21.413 1.806 o
3 0 7 209.615 202.351 9.205 12.336 o
3 0 8 1841.310 1850.250 49.305 0.346 o
3 0 9 115.900 110.333 6.256 28.045 o
3 0 10 374.712 378.356 21.074 2.481 o
3 0 11 98.503 99.970 7.246 21.813 o
3 0 12 245.673 254.703 14.031 5.604 o
3 0 13 52.556 53.412 5.573 37.975 o
3 0 14 521.777 508.473 20.342 2.433 o
3 0 15 2.865 1.089 2.142 264.292 o
3 0 16 14.958 16.208 4.885 50.668 o
3 0 17 3.615 3.416 4.166 69.867 o
3 1 0 385.045 386.135 5.596 15.474 o
3 1 1 403.921 392.646 5.546 14.881 o
3 1 2 649.224 670.259 10.565 4.889 o
3 1 3 1536.830 1557.460 38.989 0.533 o
3 1 4 582.137 587.098 12.342 4.659 o
3 1 5 1523.990 1489.210 26.989 0.835 o
3 1 6 428.922 407.917 10.327 7.439 o
3 1 7 2073.650 2034.940 34.624 0.477 o
3 1 8 0.045 -0.929 1.098 1005.680 o
3 1 9 209.297 222.383 14.441 5.440 o
3 1 10 180.907 193.264 7.148 19.583 o
3 1 11 873.976 882.831 20.717 1.803 o
3 1 12 22.729 17.674 3.355 106.470 o
3 1 13 220.222 204.448 10.506 9.704 o
3 1 14 35.219 40.214 5.897 34.456 o
3 1 15 256.158 242.306 25.413 1.822 o
3 1 16 1.301 1.292 2.861 148.235 o
3 1 17 57.384 79.371 10.107 11.722 o
3 2 0 8420.110 8117.480 71.189 0.045 o
3 2 1 307.965 307.787 4.632 23.553 o
3 2 2 419.316 416.183 5.955 13.343 o
3 2 3 78.043 78.878 3.969 68.557 o
3 2 4 2253.660 2331.820 33.443 0.439 o
3 2 5 88.471 86.353 5.172 41.555 o
3 2 6 416.257 436.242 10.743 7.049 o
3 2 7 197.858 204.927 6.268 23.333 o
3 2 8 1225.420 1275.260 22.349 1.227 o
3 2 9 445.268 448.173 10.599 6.914 o
3 2 10 1073.240 1071.010 20.262 1.565 o
3 2 11 20.697 25.221 3.625 91.223 o
3 2 12 137.682 132.620 7.145 21.314 o
3 2 13 0.272 0.589 0.847 1691.030 o
3 2 14 219.347 219.812 10.655 9.419 o
3 2 15 29.755 29.098 5.961 33.872 o
3 2 16 186.631 190.414 15.072 5.090 o
3 2 17 2.829 2.137 2.443 203.135 o
3 3 0 17.984 19.712 0.976 1143.290 o
3 3 1 3116.460 3129.530 30.324 0.303 o
3 3 2 302.537 309.006 5.640 19.811 o
3 3 3 2062.780 2060.800 24.146 0.628 o
3 3 4 1540.340 1585.440 24.431 0.890 o
3 3 5 1147.650 1187.610 22.335 1.310 o
3 3 6 828.547 848.777 18.072 2.215 o
3 3 7 855.598 888.526 21.077 1.778 o
3 3 8 60.654 55.969 3.773 79.073 o
3 3 9 4.480 5.898 1.601 471.976 o
3 3 10 69.974 64.923 6.702 26.143 o
3 3 11 1750.570 1473.590 112.118 0.090 o
3 3 12 27.560 22.989 3.163 118.703 o
3 3 13 346.215 328.428 12.971 5.919 o
3 3 14 17.941 26.785 3.891 79.396 o
3 3 15 283.929 272.010 17.874 3.523 o
3 3 16 104.615 101.049 9.983 11.773 o
3 3 17 155.087 165.846 14.302 5.708 o
3 4 0 2190.470 2169.410 22.895 0.596 o
3 4 1 132.573 125.483 3.404 71.516 o
3 4 2 215.269 215.505 4.913 31.234 o
3 4 3 499.620 476.230 9.630 7.161 o
3 4 4 2141.090 2166.870 36.185 0.437 o
3 4 5 87.682 93.239 5.492 37.097 o
3 4 6 82.633 85.780 4.819 47.680 o
3 4 7 400.657 392.088 12.981 5.547 o
3 4 8 975.735 943.828 23.898 1.400 o
3 4 9 109.748 102.781 8.779 15.028 o
3 4 10 531.720 546.990 24.807 1.716 o
3 4 11 37.867 48.674 10.177 11.652 o
3 4 12 705.933 747.202 42.628 0.612 o
3 4 13 155.306 158.292 10.606 10.090 o
3 4 14 641.881 620.049 19.229 2.439 o
3 4 15 122.956 122.933 9.688 12.298 o
3 4 16 16.657 15.955 4.163 69.662 o
3 4 17 0.830 -0.001 2.005 301.796 o
3 5 0 0.632 0.359 0.596 3410.850 o
3 5 1 1971.950 1966.840 29.088 0.584 o
3 5 2 223.473 227.584 6.077 22.907 o
3 5 3 589.305 568.880 9.899 5.902 o
3 5 4 437.716 417.740 12.335 5.748 o
3 5 5 64.635 70.624 5.678 36.049 o
3 5 6 89.466 91.738 6.486 27.171 o
3 5 7 938.477 944.979 25.106 1.332 o
3 5 8 48.626 46.442 5.471 39.563 o
3 5 9 1165.240 1197.650 31.359 0.853 o
3 5 10 1.805 3.414 2.366 216.559 o
3 5 11 1338.080 1365.740 35.564 0.659 o
3 5 12 2.738 2.406 2.379 214.341 o
3 5 13 6.195 10.135 4.682 55.285 o
3 5 14 1.427 -1.165 2.380 214.175 o
3 5 15 258.247 219.363 19.974 2.902 o
3 5 16 13.688 6.743 4.601 57.185 o
3 5 17 168.905 151.075 15.339 4.978 o
3 6 0 619.713 603.505 12.823 4.271 o
3 6 1 118.855 113.107 5.193 38.761 o
3 6 2 73.708 72.501 4.102 65.480 o
3 6 3 10.637 11.290 1.847 351.685 o
3 6 4 2484.320 2593.660 46.575 0.290 o
3 6 5 23.850 30.891 4.536 58.348 o
3 6 6 271.340 278.006 12.395 6.840 o
3 6 7 28.812 28.931 3.595 91.999 o
3 6 8 881.733 958.685 26.105 1.287 o
3 6 9 51.138 63.643 5.537 38.362 o
3 6 10 250.192 259.226 13.636 5.882 o
3 6 11 99.191 102.649 8.586 15.774 o
3 6 12 176.399 174.233 11.492 8.553 o
3 6 13 97.382 70.852 10.140 11.519 o
3 6 14 326.021 331.122 23.392 2.087 o
3 6 15 7.011 2.661 3.341 108.610 o
3 6 16 80.169 76.712 13.504 6.581 o
3 7 0 0.073 0.572 1.149 918.236 o
3 7 1 2029.240 1984.820 35.403 0.478 o
3 7 2 158.033 169.514 8.959 13.696 o
3 7 3 678.094 732.308 19.510 2.271 o
3 7 4 179.350 183.599 9.443 12.189 o
3 7 5 496.720 473.764 15.432 3.864 o
3 7 6 174.777 196.017 10.660 9.774 o
3 7 7 367.365 367.191 22.173 2.270 o
3 7 8 314.744 321.800 13.405 5.734 o
3 7 9 25.468 19.424 3.911 78.432 o
3 7 10 41.015 37.648 5.335 41.873 o
3 7 11 765.821 784.911 26.912 1.328 o
3 7 12 92.768 89.170 8.586 15.884 o
3 7 13 53.106 55.490 9.336 13.771 o
3 7 14 36.306 41.037 5.987 33.419 o
3 7 15 412.077 376.762 22.892 2.110 o
3 8 0 687.707 696.301 20.643 2.101 o
3 8 1 52.721 53.853 4.840 49.878 o
3 8 2 383.896 399.201 13.681 5.159 o
3 8 3 97.546 96.106 7.129 22.543 o
3 8 4 580.198 585.607 18.825 2.627 o
3 8 5 85.480 90.586 8.283 17.081 o
3 8 6 3.899 2.411 1.930 325.390 o
3 8 7 17.291 12.972 6.463 28.985 o
3 8 8 829.521 821.608 26.314 1.334 o
3 8 9 124.736 115.856 9.502 12.772 o
3 8 10 50.944 52.469 6.996 24.369 o
3 8 11 31.616 27.412 4.942 49.088 o
3 8 12 284.899 264.453 22.435 2.298 o
3 8 13 85.671 95.001 9.127 14.138 o
3 8 14 535.373 512.756 44.008 0.599 o
3 9 0 77.945 86.769 19.008 3.338 o
3 9 1 897.163 836.847 54.200 0.381 o
3 9 2 0.727 -1.528 1.816 367.918 o
3 9 3 38.639 41.956 4.839 50.712 o
3 9 4 1.190 3.227 2.263 236.743 o
3 9 5 174.318 164.545 14.009 5.902 o
3 9 6 187.399 203.596 16.067 4.494 o
3 9 7 275.594 272.941 15.789 4.440 o
3 9 8 179.655 194.653 15.675 4.729 o
3 9 9 195.588 206.930 14.041 5.784 o
3 9 10 30.887 29.654 6.323 30.119 o
3 9 11 491.495 490.159 26.070 1.604 o
3 9 12 0.048 -3.094 4.362 63.770 o
3 10 1 43.986 53.291 15.354 5.131 o
3 10 2 115.076 108.685 21.817 2.527 o
3 10 3 127.469 98.449 20.953 2.736 o
3 10 4 655.474 696.577 31.667 1.060 o
3 10 5 3.889 0.446 2.656 171.958 o
3 10 6 25.170 30.924 6.644 27.340 o
3 10 7 5.738 11.361 5.342 42.489 o
4 -7 0 100.172 99.120 10.363 10.973 o
4 -7 1 578.171 586.195 19.794 2.432 o
4 -7 2 3.602 5.426 2.874 146.788 o
4 -7 3 28.389 27.233 5.578 38.679 o
4 -7 4 57.378 52.974 7.702 20.113 o
4 -6 0 69.476 62.667 5.870 33.806 o
4 -6 1 72.224 62.287 7.864 19.149 o
4 -6 2 45.906 51.576 4.949 48.109 o
4 -6 3 165.718 175.967 9.371 12.521 o
4 -6 4 262.132 263.487 13.494 5.948 o
4 -6 5 157.700 178.703 15.464 4.897 o
4 -6 6 236.687 241.429 14.085 5.606 o
4 -6 7 2.616 4.907 2.317 225.839 o
4 -6 8 406.644 390.116 23.606 1.994 o
4 -5 0 121.612 126.821 7.932 17.908 o
4 -5 1 911.533 981.441 25.366 1.318 o
4 -5 2 13.368 11.306 2.647 171.916 o
4 -5 3 83.940 83.025 6.599 26.504 o
4 -5 4 0.067 0.407 1.886 341.006 o
4 -5 5 899.695 916.092 25.755 1.314 o
4 -5 6 1.040 3.919 2.136 265.739 o
4 -5 7 20.889 23.894 4.438 61.107 o
4 -5 8 103.675 109.997 9.242 13.636 o
4 -5 9 222.215 208.567 12.959 6.630 o
4 -5 10 90.533 94.319 8.776 15.223 o
4 -5 11 238.816 237.478 29.617 1.355 o
4 -4 0 463.376 469.170 12.658 5.301 o
4 -4 1 6.566 4.222 1.231 794.808 o
4 -4 2 1219.040 1186.640 27.972 0.974 o
4 -4 3 34.989 37.468 4.504 58.617 o
4 -4 4 269.340 280.437 12.518 6.727 o
4 -4 5 403.594 403.644 15.255 4.266 o
4 -4 6 147.464 139.918 10.438 10.493 o
4 -4 7 153.788 149.242 11.448 8.765 o
4 -4 8 298.548 268.602 15.863 4.363 o
4 -4 9 5.629 5.651 2.255 238.046 o
4 -4 10 30.351 36.524 4.703 54.044 o
4 -4 11 0.605 -1.271 1.767 388.736 o
4 -4 12 509.347 504.102 25.520 1.655 o
4 -3 0 259.916 271.610 8.475 12.921 o
4 -3 1 1240.590 1248.760 20.263 1.347 o
4 -3 2 106.553 104.789 6.053 30.181 o
4 -3 3 274.045 279.356 11.626 7.617 o
4 -3 4 24.189 21.003 4.484 59.822 o
4 -3 5 829.466 840.390 22.531 1.667 o
4 -3 6 29.726 31.117 3.864 79.718 o
4 -3 7 4.623 3.977 1.292 724.439 o
4 -3 8 2.706 2.660 1.269 752.203 o
4 -3 9 444.186 428.153 29.426 1.309 o
4 -3 10 9.987 5.576 2.837 150.272 o
4 -3 11 338.333 365.218 14.783 4.724 o
4 -3 12 64.020 67.788 6.130 31.166 o
4 -3 13 256.186 252.621 15.640 4.574 o
4 -3 14 49.571 72.027 11.305 9.416 o
4 -2 0 12.176 13.279 2.089 274.863 o
4 -2 1 4.438 5.269 1.325 688.710 o
4 -2 2 1214.150 1270.960 42.985 0.521 o
4 -2 3 612.371 568.505 18.894 2.580 o
4 -2 4 638.186 646.066 19.908 2.304 o
4 -2 5 369.181 362.448 15.973 4.073 o
4 -2 6 167.531 140.043 6.856 22.073 o
4 -2 7 35.874 18.389 4.739 53.335 o
4 -2 8 842.714 853.295 29.464 1.108 o
4 -2 9 11.275 6.811 1.977 308.021 o
4 -2 10 237.145 270.464 19.499 3.035 o
4 -2 11 1.804 4.042 2.810 153.566 o
4 -2 12 494.022 560.597 30.074 1.227 o
4 -2 13 1.573 0.891 2.640 174.006 o
4 -2 14 40.414 20.565 5.119 45.661 o
4 -2 15 34.749 42.564 8.723 15.850 o
4 -1 0 976.041 962.505 15.023 2.311 o
4 -1 1 2821.960 2769.450 34.345 0.330 o
4 -1 2 404.885 410.633 14.325 4.708 o
4 -1 3 134.565 129.994 6.650 24.340 o
4 -1 4 271.695 264.066 11.480 7.839 o
4 -1 5 1550.510 1498.120 43.429 0.461 o
4 -1 6 103.929 93.861 6.039 30.572 o
4 -1 7 135.177 131.927 6.553 24.941 o
4 -1 8 485.435 477.738 16.800 3.406 o
4 -1 9 1532.060 1468.250 37.804 0.564 o
4 -1 10 1.921 0.751 1.297 720.500 o
4 -1 11 203.069 202.694 22.397 2.357 o
4 -1 12 34.459 24.055 5.522 39.385 o
4 -1 13 20.985 17.580 4.216 67.758 o
4 -1 14 151.695 142.127 15.060 5.188 o
4 -1 15 362.011 377.578 40.276 0.729 o
4 -1 16 15.366 16.405 8.016 18.857 o
4 0 0 10.169 11.510 0.996 1180.770 o
4 0 1 61.115 53.739 2.358 182.369 o
4 0 2 5635.930 5607.780 73.237 0.079 o
4 0 3 28.263 28.927 1.766 359.206 o
4 0 4 1414.650 1317.130 24.724 0.997 o
4 0 5 525.384 523.656 19.006 2.704 o
4 0 6 705.225 672.642 20.823 2.069 o
4 0 7 180.247 179.528 8.697 14.121 o
4 0 8 362.431 315.617 18.622 3.152 o
4 0 9 420.840 387.667 21.569 2.340 o
4 0 10 70.025 77.549 7.905 18.909 o
4 0 11 76.552 80.430 8.770 15.390 o
4 0 12 1305.260 1319.680 30.901 0.809 o
4 0 13 40.176 49.289 5.216 43.644 o
4 0 14 34.662 41.620 5.362 41.571 o
4 0 15 28.760 27.626 10.251 11.517 o
4 0 16 191.095 215.976 22.309 2.377 o
4 1 0 284.157 302.482 5.738 20.345 o
4 1 1 3259.550 3342.950 47.668 0.213 o
4 1 2 51.625 54.138 2.256 203.487 o
4 1 3 619.345 606.837 16.770 3.024 o
4 1 4 79.198 72.810 5.043 44.411 o
4 1 5 1396.700 1390.070 58.625 0.299 o
4 1 6 491.754 494.994 21.941 2.172 o
4 1 7 261.532 244.668 12.663 6.698 o
4 1 8 35.102 32.515 4.636 55.482 o
4 1 9 1494.520 1447.730 39.682 0.535 o
4 1 10 474.548 473.032 14.793 4.182 o
4 1 11 21.244 24.152 3.277 111.353 o
4 1 12 16.906 18.675 3.037 130.132 o
4 1 13 404.167 417.050 16.178 3.856 o
4 1 14 4.980 2.782 2.569 183.709 o
4 1 15 529.144 525.187 28.078 1.384 o
4 1 16 196.353 210.940 16.666 4.175 o
4 1 17 43.686 26.430 8.689 15.972 o
4 2 0 434.472 440.175 7.311 10.659 o
4 2 1 996.944 1028.720 13.574 2.397 o
4 2 2 3663.010 3683.220 44.148 0.195 o
4 2 3 158.729 162.067 6.078 26.932 o
4 2 4 281.910 305.519 10.390 9.014 o
4 2 5 0.040 0.292 0.907 1473.560 o
4 2 6 1036.710 1002.630 25.503 1.233 o
4 2 7 513.865 487.706 14.443 4.191 o
4 2 8 1100.310 1068.380 31.712 0.878 o
4 2 9 204.349 214.698 7.156 18.695 o
4 2 10 123.518 121.249 4.811 43.445 o
4 2 11 8.522 6.063 2.147 262.210 o
4 2 12 659.883 624.552 21.338 2.062 o
4 2 13 15.844 13.233 3.107 124.735 o
4 2 14 140.684 135.000 9.577 12.402 o
4 2 15 1.648 6.510 4.568 58.131 o
4 2 16 535.189 525.676 42.679 0.635 o
4 2 17 2.049 -0.141 4.234 67.670 o
4 3 0 46.525 47.752 2.169 224.496 o
4 3 1 1330.440 1339.810 16.792 1.434 o
4 3 2 191.610 198.675 4.871 34.027 o
4 3 3 751.144 727.347 16.557 2.700 o
4 3 4 1943.810 1922.260 23.620 0.695 o
4 3 5 3198.230 3098.100 60.297 0.178 o
4 3 6 23.380 26.516 2.982 133.555 o
4 3 7 10.854 11.130 1.868 343.905 o
4 3 8 257.727 231.440 19.480 3.040 o
4 3 9 890.502 892.078 22.537 1.597 o
4 3 10 52.760 54.462 5.118 44.775 o
4 3 11 267.907 265.998 15.738 4.488 o
4 3 12 174.602 165.202 10.188 10.724 o
4 3 13 755.310 739.520 20.113 2.081 o
4 3 14 48.370 51.128 4.920 48.568 o
4 3 15 285.803 310.000 14.471 5.123 o
4 3 16 11.211 5.651 3.934 78.234 o
4 3 17 17.346 19.101 5.208 44.560 o
4 4 0 409.857 410.289 8.141 10.147 o
4 4 1 622.353 645.603 13.235 4.030 o
4 4 2 3378.440 3389.310 42.700 0.223 o
4 4 3 203.549 185.228 8.702 13.774 o
4 4 4 42.949 44.324 3.387 100.497 o
4 4 5 479.452 486.168 12.806 5.107 o
4 4 6 1429.940 1419.250 50.137 0.384 o
4 4 7 149.540 150.162 7.701 18.265 o
4 4 8 473.497 462.250 15.139 4.056 o
4 4 9 374.531 393.556 21.200 2.449 o
4 4 10 268.105 237.872 14.636 5.155 o
4 4 11 93.799 86.819 8.942 14.684 o
4 4 12 1273.850 1318.680 41.442 0.541 o
4 4 13 29.960 30.634 4.655 55.244 o
4 4 14 20.170 16.463 2.980 134.907 o
4 4 15 9.746 14.028 3.399 104.626 o
4 4 16 383.342 417.066 20.266 2.637 o
4 4 17 91.351 80.660 11.766 8.611 o
4 5 0 142.346 141.385 6.918 22.361 o
4 5 1 47.735 56.942 4.266 63.797 o
4 5 2 36.133 33.795 2.333 207.678 o
4 5 3 309.754 318.002 11.242 7.710 o
4 5 4 182.399 191.174 5.962 26.128 o
4 5 5 2197.490 2126.310 29.920 0.507 o
4 5 6 494.386 514.947 17.662 3.098 o
4 5 7 479.183 489.320 26.363 1.578 o
4 5 8 31.988 31.063 6.097 32.359 o
4 5 9 996.179 1034.950 35.043 0.782 o
4 5 10 26.168 24.141 4.250 66.410 o
4 5 11 6.217 6.983 2.419 206.779 o
4 5 12 45.626 40.721 5.567 38.388 o
4 5 13 795.260 814.581 38.009 0.736 o
4 5 14 207.747 223.614 18.867 3.276 o
4 5 15 164.345 178.172 12.132 7.765 o
4 5 16 120.973 119.508 16.075 4.612 o
4 5 17 28.289 42.721 13.153 6.998 o
4 6 0 45.677 47.131 3.685 85.123 o
4 6 1 21.139 17.086 2.777 154.846 o
4 6 2 1828.000 1871.010 43.698 0.406 o
4 6 3 39.775 37.624 4.066 71.307 o
4 6 4 424.045 473.374 17.602 3.267 o
4 6 5 0.888 0.980 1.253 772.924 o
4 6 6 1086.380 1107.300 24.109 1.263 o
4 6 7 112.609 112.444 8.128 17.310 o
4 6 8 221.833 225.832 12.211 7.357 o
4 6 9 194.295 187.309 11.458 8.485 o
4 6 10 390.692 371.899 16.895 3.651 o
4 6 11 118.342 108.516 10.304 10.991 o
4 6 12 359.190 382.856 23.604 2.022 o
4 6 13 22.409 22.907 4.522 58.860 o
4 6 14 3.408 2.927 2.896 144.581 o
4 6 15 10.933 12.237 3.805 83.546 o
4 6 16 581.742 591.321 29.432 1.245 o
4 7 0 277.675 293.331 16.118 4.254 o
4 7 1 163.162 174.296 10.191 10.766 o
4 7 2 207.511 203.797 10.113 10.479 o
4 7 3 1014.700 1041.730 26.062 1.199 o
4 7 4 52.349 50.513 5.820 34.940 o
4 7 5 1336.370 1305.230 44.786 0.473 o
4 7 6 25.257 23.070 3.146 120.236 o
4 7 7 4.158 8.514 2.312 226.485 o
4 7 8 186.169 205.280 10.652 9.688 o
4 7 9 446.002 442.290 26.648 1.570 o
4 7 10 3.844 4.216 2.422 206.694 o
4 7 11 55.430 49.211 6.401 28.973 o
4 7 12 216.637 196.420 13.636 6.068 o
4 7 13 566.302 538.147 22.681 1.980 o
4 7 14 82.341 87.005 11.950 8.364 o
4 7 15 200.755 208.382 28.330 1.487 o
4 8 0 143.805 136.300 10.085 11.229 o
4 8 1 82.533 80.703 7.641 20.046 o
4 8 2 678.078 641.127 18.461 2.520 o
4 8 3 0.020 -1.636 1.583 484.071 o
4 8 4 25.907 23.505 4.260 66.104 o
4 8 5 0.961 3.330 2.788 156.087 o
4 8 6 938.079 940.327 30.024 1.027 o
4 8 7 83.848 77.496 12.658 7.472 o
4 8 8 48.416 49.031 5.736 36.054 o
4 8 9 308.672 323.652 16.255 4.106 o
4 8 10 172.053 177.450 12.160 7.705 o
4 8 11 150.870 141.762 11.078 9.356 o
4 8 12 532.909 483.585 23.259 1.939 o
4 8 13 6.528 2.583 2.507 192.786 o
4 8 14 118.819 134.276 14.900 5.347 o
4 9 0 3.864 5.985 2.680 168.738 o
4 9 1 49.340 51.018 7.353 22.116 o
4 9 2 60.359 50.983 7.247 22.648 o
4 9 3 498.272 475.524 17.765 3.095 o
4 9 4 134.380 146.448 11.661 8.540 o
4 9 5 114.886 122.664 10.345 10.890 o
4 9 6 37.617 26.905 7.485 21.510 o
4 9 7 64.657 71.976 7.712 19.918 o
4 9 8 73.763 70.017 7.156 22.940 o
4 9 9 1056.510 1026.260 34.449 0.791 o
4 9 10 39.563 47.300 8.794 15.574 o
4 9 11 70.235 75.796 8.784 15.395 o
4 9 12 5.275 -3.350 5.776 36.356 o
4 10 0 28.506 28.586 9.479 13.461 o
4 10 1 11.533 8.035 5.973 33.975 o
4 10 2 265.283 351.006 39.696 0.757 o
4 10 3 19.644 24.018 11.297 9.495 o
4 10 4 64.225 101.828 20.482 2.879 o
4 10 5 16.116 9.946 3.488 99.218 o
4 10 6 671.478 727.476 32.541 1.003 o
4 10 7 42.939 45.463 6.687 26.768 o
5 -7 0 1.431 2.957 5.108 46.489 o
5 -6 0 80.218 78.643 12.986 7.108 o
5 -6 1 52.725 59.887 7.508 21.158 o
5 -6 2 558.912 585.193 21.510 2.148 o
5 -6 3 62.273 74.255 9.026 14.640 o
5 -6 4 115.561 120.467 12.655 7.374 o
5 -6 5 9.475 6.787 3.172 120.318 o
5 -5 0 55.241 45.842 8.466 16.723 o
5 -5 1 17.685 16.766 3.885 79.875 o
5 -5 2 0.320 0.377 1.820 366.104 o
5 -5 3 716.031 751.528 23.187 1.719 o
5 -5 4 106.477 118.052 9.458 13.001 o
5 -5 5 137.625 146.061 11.366 8.956 o
5 -5 6 202.348 197.029 13.579 6.153 o
5 -5 7 313.578 322.731 18.485 3.248 o
5 -5 8 67.085 71.533 8.667 15.837 o
5 -4 0 1387.560 1458.960 36.678 0.614 o
5 -4 1 13.393 16.704 3.984 76.114 o
5 -4 2 458.607 453.730 16.588 3.554 o
5 -4 3 76.177 80.709 6.745 25.588 o
5 -4 4 90.440 100.230 7.587 20.102 o
5 -4 5 467.804 489.643 20.084 2.554 o
5 -4 6 593.272 570.145 21.844 2.071 o
5 -4 7 62.659 65.943 9.287 13.859 o
5 -4 8 3.242 4.719 2.870 147.242 o
5 -4 9 80.195 106.300 12.254 7.947 o
5 -4 10 412.718 430.676 21.464 2.350 o
5 -4 11 35.585 39.185 11.778 8.718 o
5 -3 0 59.257 58.409 3.710 81.589 o
5 -3 1 118.915 112.693 8.638 15.368 o
5 -3 2 114.795 117.708 5.681 33.215 o
5 -3 3 1228.120 1269.150 25.606 1.060 o
5 -3 4 0.080 -1.048 1.478 555.392 o
5 -3 5 38.984 29.171 3.698 86.141 o
5 -3 6 118.467 111.658 7.994 17.792 o
5 -3 7 388.587 393.803 14.404 4.743 o
5 -3 8 194.163 198.534 11.812 7.999 o
5 -3 9 94.723 104.229 8.294 16.890 o
5 -3 10 127.932 138.017 9.881 11.766 o
5 -3 11 260.158 263.714 14.175 5.450 o
5 -3 12 4.958 6.467 2.405 209.433 o
5 -3 13 574.844 598.867 47.938 0.504 o
5 -2 0 829.671 798.764 17.356 2.360 o
5 -2 1 213.112 227.805 12.534 7.046 o
5 -2 2 42.617 40.294 5.765 35.898 o
5 -2 3 33.198 36.136 3.739 84.534 o
5 -2 4 266.430 326.821 27.520 1.549 o
5 -2 5 67.636 65.075 4.994 46.039 o
5 -2 6 1475.470 1477.780 54.009 0.336 o
5 -2 7 81.270 76.906 6.820 24.996 o
5 -2 8 206.286 208.992 11.846 7.880 o
5 -2 9 10.396 10.087 2.603 178.113 o
5 -2 10 437.012 434.741 18.840 2.921 o
5 -2 11 4.464 2.918 2.172 256.963 o
5 -2 12 9.301 5.278 3.166 120.780 o
5 -2 13 49.966 41.071 6.911 25.029 o
5 -2 14 347.640 404.140 36.523 0.881 o
5 -1 0 418.598 400.975 15.049 4.325 o
5 -1 1 7.777 7.170 1.595 473.335 o
5 -1 2 51.481 52.533 3.603 87.693 o
5 -1 3 2544.700 2540.810 51.305 0.259 o
5 -1 4 119.603 111.852 9.045 14.080 o
5 -1 5 631.012 645.923 36.384 0.835 o
5 -1 6 88.907 81.093 8.312 16.976 o
5 -1 7 812.913 782.677 19.507 2.074 o
5 -1 8 41.770 42.144 4.981 47.820 o
5 -1 9 145.160 141.781 9.556 12.393 o
5 -1 10 259.117 242.766 13.098 6.320 o
5 -1 11 160.469 150.021 10.675 9.962 o
5 -1 12 64.959 59.865 6.046 32.070 o
5 -1 13 288.187 272.251 14.386 5.222 o
5 -1 14 0.886 0.248 2.741 161.417 o
5 0 0 2244.650 2281.560 36.837 0.408 o
5 0 1 360.556 368.519 12.091 6.452 o
5 0 2 671.150 660.884 14.997 3.312 o
5 0 3 421.916 427.938 12.346 5.794 o
5 0 4 1372.100 1324.420 26.866 0.930 o
5 0 5 174.743 164.560 6.819 21.739 o
5 0 6 926.087 903.678 23.588 1.472 o
5 0 7 181.357 159.823 9.450 12.263 o
5 0 8 6.218 7.570 2.205 248.831 o
5 0 9 27.522 24.992 3.927 77.529 o
5 0 10 1069.600 1013.590 27.607 1.091 o
5 0 11 6.919 5.704 2.570 183.343 o
5 0 12 20.685 18.861 4.663 55.464 o
5 0 13 49.214 48.081 6.606 27.323 o
5 0 14 269.681 292.527 18.356 3.357 o
5 0 15 71.486 61.683 11.489 9.088 o
5 1 0 54.393 54.013 3.554 89.432 o
5 1 1 362.610 359.696 9.822 8.795 o
5 1 2 6.940 6.689 1.652 442.322 o
5 1 3 2184.310 2143.400 43.453 0.359 o
5 1 4 495.069 514.621 24.797 1.746 o
5 1 5 142.285 139.856 6.931 22.304 o
5 1 6 101.783 103.054 5.992 30.936 o
5 1 7 1192.290 1152.050 32.169 0.822 o
5 1 8 492.975 489.784 16.732 3.401 o
5 1 9 67.056 60.215 6.905 24.754 o
5 1 10 414.246 404.178 22.742 2.126 o
5 1 11 449.100 461.453 17.038 3.413 o
5 1 12 81.977 76.149 7.432 21.182 o
5 1 13 556.574 548.149 37.354 0.813 o
5 1 14 62.015 57.796 7.922 18.977 o
5 1 15 38.204 42.862 9.173 14.332 o
5 1 16 1.947 2.480 7.289 22.833 o
5 2 0 688.712 713.931 16.508 2.844 o
5 2 1 1.478 1.622 1.397 621.009 o
5 2 2 100.372 110.725 11.783 8.528 o
5 2 3 9.090 11.647 1.667 431.602 o
5 2 4 1306.630 1292.010 23.613 1.108 o
5 2 5 448.603 465.383 16.014 3.769 o
5 2 6 950.508 914.687 18.121 1.997 o
5 2 7 124.518 124.349 6.238 27.686 o
5 2 8 389.741 388.406 11.204 6.989 o
5 2 9 71.998 69.663 4.951 46.448 o
5 2 10 924.091 929.801 27.314 1.192 o
5 2 11 24.297 24.226 4.148 69.749 o
5 2 12 19.511 22.122 4.094 71.820 o
5 2 13 22.179 23.295 4.269 65.985 o
5 2 14 741.560 784.950 26.520 1.371 o
5 2 15 0.007 0.594 3.419 103.806 o
5 2 16 63.627 67.959 12.059 8.266 o
5 3 0 305.111 312.895 6.797 15.917 o
5 3 1 704.597 710.546 13.869 3.460 o
5 3 2 5.843 5.906 1.091 1009.900 o
5 3 3 1967.870 1944.800 27.659 0.612 o
5 3 4 77.576 80.193 3.075 106.374 o
5 3 5 13.481 17.081 1.873 339.259 o
5 3 6 110.838 96.652 8.659 15.444 o
5 3 7 1477.280 1485.780 39.066 0.546 o
5 3 8 0.095 -1.908 1.627 458.300 o
5 3 9 809.828 817.348 22.984 1.645 o
5 3 10 456.518 444.360 12.680 5.375 o
5 3 11 427.597 414.172 14.345 4.621 o
5 3 12 54.271 49.251 4.927 48.227 o
5 3 13 54.810 61.550 6.665 26.691 o
5 3 14 22.283 13.853 3.565 94.534 o
5 3 15 117.399 127.540 16.320 4.477 o
5 3 16 73.654 57.645 10.759 10.347 o
5 4 0 1014.360 1003.790 16.013 2.090 o
5 4 1 69.807 68.615 4.405 57.953 o
5 4 2 115.661 125.752 5.927 30.618 o
5 4 3 428.482 436.776 10.432 7.231 o
5 4 4 1591.630 1602.620 28.397 0.752 o
5 4 5 245.174 234.827 7.753 15.428 o
5 4 6 1076.970 1079.740 21.714 1.445 o
5 4 7 190.434 179.553 7.579 17.708 o
5 4 8 168.513 181.268 8.891 13.706 o
5 4 9 22.302 23.068 5.611 38.342 o
5 4 10 712.934 702.986 30.579 1.108 o
5 4 11 20.147 25.426 4.354 63.487 o
5 4 12 68.748 68.327 7.301 22.140 o
5 4 13 0.028 0.991 1.933 324.754 o
5 4 14 707.928 740.708 25.481 1.492 o
5 4 15 77.996 76.410 6.970 24.032 o
5 4 16 30.996 17.780 4.183 68.459 o
5 4 17 18.168 22.417 9.588 13.180 o
5 5 0 248.492 246.376 7.954 14.663 o
5 5 1 576.390 585.015 13.230 4.311 o
5 5 2 79.578 84.000 6.057 31.290 o
5 5 3 722.668 775.043 29.597 1.156 o
5 5 4 84.868 87.668 5.941 32.243 o
5 5 5 110.762 93.270 4.651 48.288 o
5 5 6 10.000 8.495 1.545 501.982 o
5 5 7 2047.190 2052.650 36.757 0.452 o
5 5 8 0.089 -0.770 1.206 834.514 o
5 5 9 126.126 132.452 8.751 14.830 o
5 5 10 0.675 2.883 1.456 571.747 o
5 5 11 369.085 387.147 15.357 4.326 o
5 5 12 398.060 400.909 16.135 3.903 o
5 5 13 186.015 201.056 11.420 8.544 o
5 5 14 303.747 297.866 12.936 6.183 o
5 5 15 89.577 84.591 8.126 17.714 o
5 5 16 0.007 3.283 1.927 326.551 o
5 6 0 1027.210 1051.460 41.348 0.592 o
5 6 1 76.195 82.259 6.657 26.230 o
5 6 2 212.727 212.963 9.291 12.049 o
5 6 3 112.977 114.694 6.822 23.965 o
5 6 4 587.299 598.050 18.711 2.633 o
5 6 5 88.339 77.333 5.793 33.853 o
5 6 6 443.211 439.332 15.540 3.999 o
5 6 7 1.873 -0.413 1.557 500.442 o
5 6 8 712.561 726.133 24.266 1.614 o
5 6 9 325.304 337.475 16.150 4.109 o
5 6 10 396.940 401.459 18.175 3.187 o
5 6 11 128.675 128.066 10.253 10.992 o
5 6 12 3.553 3.287 2.088 278.089 o
5 6 13 14.765 9.378 2.815 152.037 o
5 6 14 611.408 615.179 21.643 2.065 o
5 6 15 2.929 6.875 3.336 108.953 o
5 7 0 310.505 310.039 15.546 4.456 o
5 7 1 263.617 249.042 13.808 5.725 o
5 7 2 8.644 12.616 2.538 187.459 o
5 7 3 494.400 526.381 17.718 3.073 o
5 7 4 21.662 23.114 3.700 87.612 o
5 7 5 237.116 238.750 11.970 7.526 o
5 7 6 55.478 65.386 6.256 30.155 o
5 7 7 756.032 751.422 22.247 1.796 o
5 7 8 0.009 1.870 1.937 323.224 o
5 7 9 21.893 22.256 3.829 81.865 o
5 7 10 40.346 35.910 5.352 41.654 o
5 7 11 392.116 377.126 18.331 3.163 o
5 7 12 6.340 4.569 2.358 217.782 o
5 7 13 268.976 259.809 15.758 4.481 o
5 7 14 63.136 69.339 8.103 18.105 o
5 7 15 236.180 239.458 30.781 1.257 o
5 8 0 708.546 684.694 25.293 1.525 o
5 8 1 51.119 56.323 6.748 26.134 o
5 8 2 66.810 72.507 7.614 20.397 o
5 8 3 13.172 9.593 2.444 201.481 o
5 8 4 440.871 448.290 17.576 3.268 o
5 8 5 15.176 16.859 3.366 106.325 o
5 8 6 136.292 149.279 11.243 9.143 o
5 8 7 90.616 95.099 8.883 14.866 o
5 8 8 123.140 125.423 12.176 7.923 o
5 8 9 111.549 131.898 10.002 11.611 o
5 8 10 642.296 687.728 23.126 1.806 o
5 8 11 23.294 23.137 4.342 63.753 o
5 8 12 230.322 219.429 12.945 6.598 o
5 8 13 3.557 4.212 2.523 190.412 o
5 8 14 265.975 288.089 22.890 2.215 o
5 9 0 5.638 4.346 3.223 116.689 o
5 9 1 93.592 93.397 10.384 10.969 o
5 9 2 128.315 105.069 9.519 12.741 o
5 9 3 33.873 33.063 6.416 29.212 o
5 9 4 126.602 133.594 12.751 7.227 o
5 9 5 107.923 117.641 9.200 13.699 o
5 9 6 0.606 0.987 1.756 393.404 o
5 9 7 1080.680 1053.370 34.164 0.792 o
5 9 8 17.608 17.874 4.544 58.464 o
5 9 9 98.997 81.125 8.937 14.685 o
5 9 10 0.072 -1.738 2.841 150.246 o
5 9 11 286.239 293.088 34.715 0.985 o
5 10 0 183.257 178.774 24.951 1.916 o
5 10 1 14.085 26.877 9.892 12.384 o
5 10 2 76.527 79.857 11.135 9.635 o
5 10 3 15.491 6.120 5.285 43.357 o
5 10 4 427.860 399.062 37.800 0.817 o
5 10 5 30.967 25.326 11.601 8.995 o
5 10 6 125.417 117.575 22.289 2.419 o
6 -6 0 97.277 82.525 16.896 4.210 o
6 -6 1 19.681 14.961 7.898 19.415 o
6 -5 0 89.959 88.905 7.790 19.184 o
6 -5 1 251.129 258.060 20.301 2.805 o
6 -5 2 1.151 5.718 3.074 128.354 o
6 -5 3 152.498 157.681 11.535 8.629 o
6 -5 4 16.051 16.471 4.076 72.664 o
6 -5 5 236.545 244.470 15.510 4.689 o
6 -5 6 123.782 115.337 14.515 5.634 o
6 -4 0 291.647 298.220 14.079 5.378 o
6 -4 1 96.681 90.015 7.622 19.912 o
6 -4 2 143.120 153.670 12.250 7.733 o
6 -4 3 73.291 86.861 7.444 21.157 o
6 -4 4 540.370 545.344 26.948 1.481 o
6 -4 5 4.014 4.714 2.838 150.531 o
6 -4 6 2.904 0.526 2.268 235.689 o
6 -4 7 18.297 22.446 4.412 61.943 o
6 -4 8 402.305 440.527 22.277 2.202 o
6 -3 0 16.244 15.950 2.401 207.511 o
6 -3 1 926.896 959.293 23.819 1.434 o
6 -3 2 10.022 11.094 3.039 130.864 o
6 -3 3 4.459 3.669 1.909 332.391 o
6 -3 4 57.838 61.862 5.752 35.477 o
6 -3 5 211.552 235.308 10.527 9.622 o
6 -3 6 195.793 188.921 10.324 10.242 o
6 -3 7 432.552 439.297 17.724 3.243 o
6 -3 8 173.375 179.480 11.863 8.061 o
6 -3 9 215.767 214.332 14.877 5.140 o
6 -3 10 9.015 6.810 2.963 137.852 o
6 -2 0 69.716 68.912 6.464 28.004 o
6 -2 1 167.940 162.448 7.659 17.995 o
6 -2 2 202.031 195.539 8.452 14.425 o
6 -2 3 0.137 3.261 1.480 553.409 o
6 -2 4 694.825 711.318 20.135 2.163 o
6 -2 5 36.246 43.793 7.974 18.938 o
6 -2 6 217.571 217.589 15.318 4.859 o
6 -2 7 17.904 16.072 6.464 28.970 o
6 -2 8 716.348 717.222 25.060 1.534 o
6 -2 9 2.764 6.183 3.235 115.848 o
6 -2 10 19.899 13.940 4.570 57.797 o
6 -2 11 37.827 45.609 8.034 18.644 o
6 -2 12 312.177 288.747 25.312 1.810 o
6 -1 0 65.272 63.772 4.803 49.718 o
6 -1 1 860.109 866.437 20.474 1.852 o
6 -1 2 96.928 101.890 8.658 15.544 o
6 -1 3 140.382 153.260 14.211 5.816 o
6 -1 4 20.375 17.807 3.566 94.487 o
6 -1 5 717.947 691.438 24.275 1.620 o
6 -1 6 8.641 10.803 2.593 179.731 o
6 -1 7 705.983 684.659 34.368 0.908 o
6 -1 8 49.921 46.368 7.009 24.320 o
6 -1 9 189.346 203.105 15.172 5.011 o
6 -1 10 228.421 258.520 17.569 3.713 o
6 -1 11 78.516 85.664 10.119 11.612 o
6 -1 12 29.811 24.334 5.731 36.655 o
6 -1 13 26.917 45.029 8.539 16.560 o
6 0 0 1536.990 1552.380 33.028 0.658 o
6 0 1 481.659 483.405 14.261 4.378 o
6 0 2 487.492 500.640 17.459 3.180 o
6 0 3 10.675 8.967 2.139 263.334 o
6 0 4 608.414 596.412 14.256 3.803 o
6 0 5 0.920 1.006 1.128 952.416 o
6 0 6 73.567 67.903 5.826 34.108 o
6 0 7 7.475 9.455 2.560 184.548 o
6 0 8 735.269 697.736 19.319 2.251 o
6 0 9 4.318 5.404 1.951 318.253 o
6 0 10 88.323 93.101 7.767 19.291 o
6 0 11 62.905 40.703 9.185 14.215 o
6 0 12 280.879 279.996 14.886 4.920 o
6 0 13 29.504 35.324 6.530 28.240 o
6 0 14 158.541 174.846 17.287 3.947 o
6 1 0 20.234 22.151 2.734 159.327 o
6 1 1 966.296 974.085 19.591 1.780 o
6 1 2 2.166 2.915 1.277 743.409 o
6 1 3 88.215 99.061 7.561 20.270 o
6 1 4 156.821 158.121 10.468 10.331 o
6 1 5 1014.550 991.782 28.072 1.093 o
6 1 6 50.149 35.306 2.614 162.186 o
6 1 7 138.851 125.797 6.141 27.922 o
6 1 8 22.713 26.238 4.327 64.184 o
6 1 9 126.025 134.392 8.937 14.250 o
6 1 10 178.374 175.185 12.801 6.979 o
6 1 11 1028.610 1011.560 29.091 1.030 o
6 1 12 105.924 121.945 13.521 6.496 o
6 1 13 186.150 184.009 17.028 4.032 o
6 1 14 24.942 29.361 7.003 24.622 o
6 1 15 181.085 210.738 20.801 2.731 o
6 2 0 759.883 749.545 16.544 2.666 o
6 2 1 0.487 0.983 0.966 1298.840 o
6 2 2 196.916 203.876 10.674 9.588 o
6 2 3 79.118 87.126 5.766 34.306 o
6 2 4 251.976 274.251 11.408 8.009 o
6 2 5 193.529 192.223 9.543 11.791 o
6 2 6 373.779 345.401 19.996 2.745 o
6 2 7 59.998 60.501 5.017 46.102 o
6 2 8 1519.590 1493.910 34.747 0.628 o
6 2 9 16.346 16.172 2.759 157.664 o
6 2 10 159.516 152.080 8.895 13.953 o
6 2 11 54.017 52.908 6.725 26.294 o
6 2 12 464.773 445.542 18.390 2.997 o
6 2 13 2.621 6.595 2.391 211.937 o
6 2 14 41.787 48.879 8.741 15.750 o
6 2 15 80.772 70.826 13.802 6.305 o
6 3 0 9.032 9.543 2.896 144.174 o
6 3 1 447.464 463.290 16.711 3.524 o
6 3 2 51.625 50.951 5.657 36.937 o
6 3 3 280.416 279.634 11.033 8.274 o
6 3 4 32.390 34.698 3.148 118.223 o
6 3 5 1251.980 1206.980 25.021 1.092 o
6 3 6 29.254 32.324 5.320 42.429 o
6 3 7 540.063 494.907 14.127 4.228 o
6 3 8 41.241 50.536 5.825 35.104 o
6 3 9 408.045 411.690 15.457 4.154 o
6 3 10 0.054 0.683 1.369 647.156 o
6 3 11 301.073 288.546 14.272 5.237 o
6 3 12 70.428 71.007 7.078 23.471 o
6 3 13 78.454 71.152 7.188 22.677 o
6 3 14 121.595 123.119 9.723 12.220 o
6 3 15 302.816 287.442 17.616 3.585 o
6 3 16 0.747 3.055 4.312 65.228 o
6 4 0 584.247 596.024 18.304 2.728 o
6 4 1 29.363 33.831 3.410 101.715 o
6 4 2 726.142 725.812 19.247 2.257 o
6 4 3 51.830 48.429 5.338 41.390 o
6 4 4 1248.420 1278.700 31.785 0.802 o
6 4 5 85.603 97.946 8.509 16.186 o
6 4 6 43.203 34.650 4.812 51.246 o
6 4 7 31.141 33.173 4.284 64.962 o
6 4 8 541.166 543.747 21.240 2.229 o
6 4 9 0.072 -0.092 1.517 526.908 o
6 4 10 348.489 354.016 13.487 5.494 o
6 4 11 7.008 4.925 1.608 466.806 o
6 4 12 425.841 424.191 14.219 4.675 o
6 4 13 78.425 68.344 5.997 32.139 o
6 4 14 35.479 37.569 5.038 47.029 o
6 4 15 33.622 41.704 7.834 19.632 o
6 4 16 205.348 222.299 19.247 3.154 o
6 5 0 376.741 375.779 14.432 4.791 o
6 5 1 1267.580 1304.940 30.424 0.840 o
6 5 2 32.266 35.522 3.671 87.714 o
6 5 3 234.875 246.354 10.675 9.188 o
6 5 4 627.025 628.692 18.526 2.592 o
6 5 5 608.317 616.497 18.641 2.604 o
6 5 6 72.206 79.483 8.919 14.918 o
6 5 7 132.914 125.700 9.068 13.844 o
6 5 8 10.087 11.987 3.914 79.016 o
6 5 9 380.151 398.087 18.753 3.041 o
6 5 10 148.703 163.642 9.265 12.999 o
6 5 11 589.539 573.800 17.814 2.851 o
6 5 12 52.462 49.072 5.118 44.887 o
6 5 13 70.145 69.344 6.248 29.888 o
6 5 14 0.616 -0.104 1.855 352.395 o
6 5 15 321.766 346.884 16.419 3.989 o
6 5 16 2.806 6.454 6.424 29.388 o
6 6 0 377.937 368.167 17.230 3.554 o
6 6 1 127.171 146.186 12.181 7.876 o
6 6 2 265.854 294.403 17.633 3.622 o
6 6 3 56.759 63.623 6.280 29.920 o
6 6 4 347.381 374.156 19.725 2.826 o
6 6 5 4.137 6.173 2.490 195.394 o
6 6 6 268.692 293.282 14.915 4.916 o
6 6 7 48.342 50.642 6.138 31.561 o
6 6 8 838.076 861.720 28.579 1.162 o
6 6 9 5.186 4.492 4.000 75.778 o
6 6 10 34.803 23.652 5.187 44.588 o
6 6 11 0.578 2.425 1.803 373.163 o
6 6 12 398.525 412.666 17.819 3.287 o
6 6 13 22.309 12.865 3.527 96.590 o
6 6 14 187.985 181.777 12.025 7.798 o
6 6 15 189.203 184.285 38.276 0.822 o
6 7 0 0.123 -3.089 2.282 232.979 o
6 7 1 1208.890 1165.300 34.852 0.728 o
6 7 2 5.983 14.037 4.225 67.865 o
6 7 3 350.812 385.085 26.229 1.663 o
6 7 4 18.549 20.099 3.943 77.468 o
6 7 5 133.375 137.749 10.347 10.753 o
6 7 6 73.300 83.264 8.129 17.857 o
6 7 7 60.279 58.984 7.041 23.919 o
6 7 8 104.216 112.869 9.945 11.832 o
6 7 9 649.855 608.234 28.188 1.315 o
6 7 10 0.288 0.987 1.901 335.664 o
6 7 11 398.132 395.655 17.443 3.424 o
6 7 12 24.990 25.564 5.133 45.695 o
6 7 13 61.734 61.557 6.994 24.203 o
6 7 14 30.672 17.522 15.182 5.258 o
6 8 0 255.831 234.531 13.191 6.266 o
6 8 1 0.773 -0.256 2.189 253.246 o
6 8 2 207.145 204.983 12.215 7.456 o
6 8 3 57.482 60.491 7.378 21.852 o
6 8 4 328.610 331.848 25.444 1.779 o
6 8 5 80.883 93.486 8.867 14.991 o
6 8 6 82.855 94.009 9.058 14.370 o
6 8 7 5.498 5.621 2.835 150.782 o
6 8 8 478.262 456.142 26.195 1.604 o
6 8 9 1.140 1.739 2.580 182.183 o
6 8 10 105.974 107.351 10.119 11.445 o
6 8 11 0.190 1.739 1.737 402.144 o
6 8 12 346.278 345.091 18.464 3.202 o
6 8 13 3.143 2.996 5.167 45.432 o
6 9 0 27.359 22.040 4.572 57.472 o
6 9 1 550.245 504.867 23.110 1.941 o
6 9 2 0.110 -0.003 2.137 265.703 o
6 9 3 13.894 7.139 3.800 83.761 o
6 9 4 2.974 3.705 3.431 103.005 o
6 9 5 424.862 402.175 27.636 1.481 o
6 9 6 3.397 2.123 7.559 21.230 o
6 9 7 219.319 218.570 18.880 3.264 o
6 9 8 151.145 145.373 13.774 6.165 o
6 9 9 204.357 214.272 14.870 5.167 o
7 -5 0 36.974 34.047 11.788 8.704 o
7 -5 1 148.364 146.259 22.829 2.297 o
7 -5 2 0.646 3.075 5.314 42.951 o
7 -4 0 103.760 74.933 10.481 10.768 o
7 -4 1 42.029 42.657 6.296 30.175 o
7 -4 2 199.635 214.321 13.889 5.885 o
7 -4 3 58.779 68.219 7.811 19.496 o
7 -4 4 36.456 45.822 8.493 16.705 o
7 -4 5 81.526 94.092 11.259 9.396 o
7 -4 6 239.028 257.056 30.835 1.251 o
7 -3 0 163.055 172.337 9.881 11.404 o
7 -3 1 186.790 188.748 10.483 10.022 o
7 -3 2 121.154 119.833 8.385 16.192 o
7 -3 3 187.479 186.627 13.095 6.644 o
7 -3 4 24.623 26.685 5.849 35.254 o
7 -3 5 287.955 283.333 16.874 3.904 o
7 -3 6 16.698 15.518 3.187 118.425 o
7 -3 7 7.904 9.525 3.501 98.784 o
7 -3 8 14.198 17.471 4.602 57.087 o
7 -2 0 70.004 74.459 5.094 44.009 o
7 -2 1 62.837 68.197 4.856 48.719 o
7 -2 2 697.364 709.887 16.878 2.752 o
7 -2 3 57.690 62.071 5.024 46.047 o
7 -2 4 121.465 136.642 8.771 14.794 o
7 -2 5 123.805 109.139 9.642 12.448 o
7 -2 6 348.762 384.343 14.272 4.953 o
7 -2 7 55.504 56.996 5.791 35.131 o
7 -2 8 102.832 104.589 9.049 14.225 o
7 -2 9 7.207 14.485 4.926 49.935 o
7 -2 10 220.485 225.186 17.522 3.760 o
7 -1 0 92.880 90.337 6.875 24.289 o
7 -1 1 484.422 498.641 17.422 3.198 o
7 -1 2 124.605 113.671 9.379 13.101 o
7 -1 3 382.731 397.649 19.248 2.901 o
7 -1 4 7.288 4.718 2.622 176.173 o
7 -1 5 375.698 372.257 16.483 3.837 o
7 -1 6 0.055 -0.873 2.608 178.388 o
7 -1 7 142.607 147.202 15.004 5.236 o
7 -1 8 16.833 11.128 5.004 48.317 o
7 -1 9 313.594 331.995 20.546 2.669 o
7 -1 10 11.892 5.963 3.827 82.641 o
7 -1 11 10.321 3.543 2.546 186.517 o
7 -1 12 0.049 -0.002 4.188 69.153 o
7 0 0 147.586 142.595 7.856 17.720 o
7 0 1 2.046 4.258 1.786 380.167 o
7 0 2 1409.440 1431.970 32.773 0.709 o
7 0 3 125.251 117.134 7.392 20.420 o
7 0 4 149.410 162.006 11.004 9.435 o
7 0 5 12.274 4.343 2.170 256.137 o
7 0 6 173.990 213.137 14.499 5.481 o
7 0 7 0.132 -2.920 1.831 361.656 o
7 0 8 133.155 125.461 13.859 6.143 o
7 0 9 66.659 43.492 9.142 14.328 o
7 0 10 219.772 238.590 16.829 4.052 o
7 0 11 49.621 66.916 9.061 14.602 o
7 0 12 280.568 305.449 19.970 2.853 o
7 0 13 8.311 8.087 4.287 65.935 o
7 1 0 190.927 190.531 8.931 13.286 o
7 1 1 875.605 870.709 21.203 1.754 o
7 1 2 179.030 192.610 10.874 9.410 o
7 1 3 202.038 211.404 8.684 13.667 o
7 1 4 186.162 182.364 8.744 13.896 o
7 1 5 114.165 105.345 6.427 26.821 o
7 1 6 58.879 63.945 5.035 45.751 o
7 1 7 55.068 51.097 4.593 55.104 o
7 1 8 10.977 16.971 3.722 87.242 o
7 1 9 1161.160 1213.840 39.947 0.596 o
7 1 10 2.583 -1.188 3.082 127.738 o
7 1 11 161.456 178.389 16.749 4.192 o
7 1 12 9.634 0.302 4.401 62.593 o
7 1 13 178.497 160.904 14.119 5.810 o
7 1 14 4.122 1.048 6.267 30.882 o
7 2 0 53.215 52.958 4.527 56.708 o
7 2 1 69.847 66.497 4.742 50.588 o
7 2 2 686.454 705.280 18.218 2.506 o
7 2 3 23.466 24.929 2.918 139.489 o
7 2 4 112.470 121.956 6.482 26.225 o
7 2 5 26.236 26.251 3.901 78.582 o
7 2 6 1247.400 1190.530 25.592 1.070 o
7 2 7 67.315 63.159 5.003 45.943 o
7 2 8 168.230 179.766 10.252 10.595 o
7 2 9 93.299 94.152 6.776 24.917 o
7 2 10 188.678 198.190 11.668 8.207 o
7 2 11 38.422 30.761 8.728 15.840 o
7 2 12 428.282 421.416 30.078 1.261 o
7 2 13 51.117 42.330 6.922 24.935 o
7 2 14 76.301 69.617 10.933 10.004 o
7 3 0 2.770 2.766 1.265 757.067 o
7 3 1 324.390 319.010 11.467 7.376 o
7 3 2 11.135 16.007 3.115 124.373 o
7 3 3 490.408 484.154 16.890 3.362 o
7 3 4 349.729 368.945 14.682 4.743 o
7 3 5 786.419 750.526 20.859 1.940 o
7 3 6 366.952 344.789 13.184 5.648 o
7 3 7 385.975 398.976 12.938 5.624 o
7 3 8 16.194 17.724 2.999 133.521 o
7 3 9 401.686 389.668 16.715 3.682 o
7 3 10 12.942 13.168 2.685 166.994 o
7 3 11 5.159 7.342 3.015 133.252 o
7 3 12 21.923 21.153 4.098 71.585 o
7 3 13 407.700 408.865 28.274 1.424 o
7 3 14 0.164 -3.269 2.760 159.301 o
7 3 15 87.950 110.522 19.087 3.304 o
7 4 0 377.959 385.556 16.895 3.661 o
7 4 1 52.155 51.557 6.864 25.288 o
7 4 2 1889.120 1921.140 52.042 0.315 o
7 4 3 0.522 0.001 1.610 467.849 o
7 4 4 105.656 115.937 10.351 10.938 o
7 4 5 60.963 66.842 6.034 32.210 o
7 4 6 414.373 447.080 18.594 3.010 o
7 4 7 32.234 31.051 4.444 60.431 o
7 4 8 116.235 118.661 7.676 19.177 o
7 4 9 31.332 25.482 3.632 90.075 o
7 4 10 275.664 280.599 11.322 7.951 o
7 4 11 16.517 19.158 6.117 32.343 o
7 4 12 242.434 249.611 20.774 2.692 o
7 4 13 11.775 12.351 4.716 54.438 o
7 4 14 126.780 106.574 11.169 9.381 o
7 4 15 57.019 39.333 11.729 8.765 o
7 5 0 51.143 47.122 6.032 32.638 o
7 5 1 64.423 77.366 7.605 20.443 o
7 5 2 148.731 139.920 10.079 11.199 o
7 5 3 482.163 477.301 19.523 2.670 o
7 5 4 128.885 119.898 10.217 11.087 o
7 5 5 764.387 757.069 24.479 1.549 o
7 5 6 125.200 116.970 8.147 17.054 o
7 5 7 20.673 22.034 4.059 73.020 o
7 5 8 70.336 78.314 7.905 18.902 o
7 5 9 293.980 303.371 16.309 4.127 o
7 5 10 6.829 6.118 3.253 114.460 o
7 5 11 160.600 175.443 12.810 7.021 o
7 5 12 21.414 16.430 3.729 86.452 o
7 5 13 716.674 732.715 25.112 1.524 o
7 5 14 3.546 7.838 3.703 88.433 o
7 5 15 89.968 64.981 15.216 5.192 o
7 6 0 136.886 134.431 10.644 10.179 o
7 6 1 167.827 178.441 14.386 5.609 o
7 6 2 713.810 705.924 30.152 1.134 o
7 6 3 0.190 -3.203 2.853 149.004 o
7 6 4 46.915 52.674 9.685 12.829 o
7 6 5 1.703 3.846 1.926 326.703 o
7 6 6 755.643 760.225 26.395 1.381 o
7 6 7 53.540 50.690 12.076 8.268 o
7 6 8 52.625 50.920 7.723 20.049 o
7 6 9 69.309 73.894 8.099 18.056 o
7 6 10 484.903 532.847 26.620 1.539 o
7 6 11 51.196 58.232 7.386 21.874 o
7 6 12 343.044 374.498 19.610 2.860 o
7 6 13 102.574 113.708 10.574 10.513 o
7 6 14 22.480 16.582 9.352 13.850 o
7 7 0 32.694 50.397 9.511 13.341 o
7 7 1 19.454 13.387 5.565 39.050 o
7 7 2 0.944 -0.775 2.253 238.935 o
7 7 3 474.584 497.166 25.837 1.637 o
7 7 4 140.107 150.461 13.715 6.233 o
7 7 5 353.448 364.639 26.964 1.581 o
7 7 6 68.849 87.785 8.626 15.921 o
7 7 7 244.580 200.955 13.449 6.138 o
7 7 8 48.845 51.766 6.834 25.542 o
7 7 9 423.237 460.509 31.411 1.159 o
7 7 10 144.818 144.783 16.850 4.175 o
7 7 11 12.554 10.651 3.462 100.846 o
7 7 12 6.207 4.781 3.291 111.906 o
7 8 0 51.755 40.644 6.392 29.170 o
7 8 1 70.724 81.742 10.400 11.037 o
7 8 2 692.064 703.927 33.457 0.953 o
7 8 3 6.423 13.443 4.847 51.580 o
7 8 4 148.798 164.596 18.175 3.591 o
7 8 5 15.698 12.265 5.496 40.070 o
7 8 6 410.704 360.590 27.596 1.496 o
7 8 7 0.448 2.311 2.363 217.315 o
7 8 8 23.742 16.642 5.852 35.279 o
7 8 9 176.520 163.896 15.363 4.942 o
7 8 10 379.378 378.405 20.495 2.605 o
7 9 1 7.969 3.839 3.824 82.875 o
7 9 2 49.950 52.642 8.673 15.953 o
7 9 3 686.888 729.672 33.666 0.941 o
7 9 4 6.421 4.977 3.022 132.678 o
7 9 5 216.371 214.787 17.486 3.785 o
7 9 6 123.825 107.037 24.126 2.068 o
8 -3 0 61.760 66.361 7.128 23.293 o
8 -3 1 51.681 63.465 6.866 25.210 o
8 -3 2 140.174 134.259 10.171 11.079 o
8 -3 3 466.551 437.299 17.355 3.302 o
8 -3 4 0.356 1.667 2.380 214.109 o
8 -3 5 27.821 14.990 7.328 22.516 o
8 -2 0 810.601 851.974 21.904 1.745 o
8 -2 1 1.036 1.871 1.514 529.106 o
8 -2 2 39.765 41.818 5.078 46.110 o
8 -2 3 169.580 162.508 10.394 10.377 o
8 -2 4 283.345 280.214 13.518 5.832 o
8 -2 5 158.805 170.372 11.568 8.531 o
8 -2 6 250.671 257.112 14.910 5.001 o
8 -2 7 24.027 23.439 5.089 46.520 o
8 -1 0 136.714 133.921 8.387 15.925 o
8 -1 1 44.747 44.100 4.783 51.599 o
8 -1 2 109.829 114.191 7.875 18.396 o
8 -1 3 899.848 897.964 29.930 1.053 o
8 -1 4 22.235 16.569 5.684 37.399 o
8 -1 5 182.992 179.087 12.951 6.808 o
8 -1 6 7.121 7.234 4.730 54.182 o
8 -1 7 247.142 243.893 22.359 2.337 o
8 -1 8 48.963 31.587 7.710 20.206 o
8 -1 9 8.405 9.295 3.974 76.707 o
8 -1 10 73.413 56.562 14.096 6.060 o
8 0 0 895.887 881.348 22.725 1.579 o
8 0 1 153.896 151.162 8.709 14.569 o
8 0 2 89.424 90.882 7.514 20.553 o
8 0 3 0.543 1.009 2.447 202.510 o
8 0 4 308.943 309.613 16.355 4.074 o
8 0 5 64.061 60.020 9.384 13.583 o
8 0 6 190.172 205.214 18.804 3.317 o
8 0 7 123.675 137.877 10.856 9.857 o
8 0 8 145.842 132.498 13.684 6.267 o
8 0 9 8.873 6.915 2.759 158.897 o
8 0 10 309.974 335.006 20.183 2.760 o
8 1 0 112.438 120.529 6.844 23.769 o
8 1 1 75.502 66.657 6.983 24.058 o
8 1 2 53.706 51.496 5.473 39.330 o
8 1 3 778.796 804.808 23.960 1.574 o
8 1 4 26.346 26.703 4.117 70.644 o
8 1 5 19.310 19.701 3.659 89.817 o
8 1 6 13.687 12.453 6.667 27.261 o
8 1 7 524.313 555.649 21.903 2.127 o
8 1 8 2.332 -3.585 2.921 142.167 o
8 1 9 137.918 114.489 12.330 7.707 o
8 1 10 214.401 234.166 18.159 3.514 o
8 1 11 324.181 349.153 31.533 1.179 o
8 2 0 441.640 433.938 14.743 4.356 o
8 2 1 0.158 -0.766 1.488 548.139 o
8 2 2 13.285 14.261 2.907 142.571 o
8 2 3 97.724 95.049 6.132 29.898 o
8 2 4 1101.990 1125.300 25.131 1.187 o
8 2 5 165.941 170.875 12.326 7.542 o
8 2 6 265.003 260.528 11.250 8.165 o
8 2 7 190.298 191.565 10.969 9.201 o
8 2 8 129.616 123.733 8.757 14.822 o
8 2 9 67.613 73.456 11.932 8.429 o
8 2 10 544.140 504.672 26.621 1.520 o
8 2 11 3.632 1.192 3.215 117.310 o
8 2 12 7.601 7.122 6.149 32.065 o
8 3 0 97.415 102.082 6.658 25.573 o
8 3 1 430.653 426.146 16.856 3.542 o
8 3 2 72.814 86.276 7.285 22.068 o
8 3 3 769.263 789.339 21.878 1.812 o
8 3 4 160.887 155.138 9.021 13.570 o
8 3 5 119.145 109.615 7.626 19.436 o
8 3 6 110.321 108.357 8.517 15.888 o
8 3 7 979.915 976.596 27.610 1.138 o
8 3 8 5.870 5.859 2.543 187.227 o
8 3 9 7.020 7.412 2.751 159.989 o
8 3 10 63.513 53.833 8.342 17.148 o
8 3 11 189.633 166.101 15.076 5.102 o
8 3 12 55.301 60.666 11.167 9.648 o
8 3 13 55.249 63.095 15.717 4.890 o
8 4 0 851.885 838.511 23.068 1.597 o
8 4 1 43.131 45.403 5.335 41.721 o
8 4 2 71.259 75.419 6.836 25.060 o
8 4 3 0.015 -0.096 1.780 382.803 o
8 4 4 756.368 749.676 21.626 1.872 o
8 4 5 186.599 195.691 10.393 10.159 o
8 4 6 154.706 151.275 9.968 11.354 o
8 4 7 143.007 132.254 9.356 12.946 o
8 4 8 211.211 211.874 11.956 7.721 o
8 4 9 33.457 36.967 5.429 40.629 o
8 4 10 115.730 123.636 8.980 14.257 o
8 4 11 36.441 38.405 6.708 26.702 o
8 4 12 44.568 49.650 7.734 20.055 o
8 4 13 33.672 14.126 8.625 16.257 o
8 5 0 310.290 326.267 16.802 3.865 o
8 5 1 618.579 613.667 27.196 1.410 o
8 5 2 59.230 55.066 7.740 19.895 o
8 5 3 434.006 429.517 19.485 2.764 o
8 5 4 16.431 11.086 3.325 109.087 o
8 5 5 6.294 7.113 5.070 47.163 o
8 5 6 67.866 74.323 11.592 8.925 o
8 5 7 492.274 496.418 31.169 1.157 o
8 5 8 4.263 5.025 2.947 139.584 o
8 5 9 154.622 153.113 13.096 6.776 o
8 5 10 10.912 12.292 3.568 94.993 o
8 5 11 619.024 606.830 35.273 0.889 o
8 5 12 23.370 21.142 5.553 39.132 o
8 6 0 452.134 465.383 24.655 1.800 o
8 6 1 18.966 21.647 5.466 40.430 o
8 6 2 40.142 49.005 7.753 19.987 o
8 6 3 14.864 12.934 4.476 60.362 o
8 6 4 675.601 718.034 39.088 0.723 o
8 6 5 56.281 64.793 12.029 8.321 o
8 6 6 264.839 246.680 21.985 2.404 o
8 6 7 36.263 38.136 5.715 36.657 o
8 6 8 405.815 388.356 19.349 2.854 o
8 6 9 212.140 203.662 13.970 5.803 o
8 6 10 224.153 251.122 15.866 4.510 o
8 6 11 162.444 194.214 16.451 4.330 o
8 7 0 154.496 138.469 13.591 6.326 o
8 7 1 264.012 264.224 18.855 3.213 o
8 7 2 183.261 176.598 15.424 4.886 o
8 7 3 79.186 100.553 13.315 6.752 o
8 7 4 9.045 7.808 2.896 144.236 o
8 7 5 303.450 274.698 19.520 2.970 o
8 7 6 67.227 55.132 10.862 10.172 o
8 7 7 1008.030 959.058 67.820 0.247 o
8 7 8 130.217 130.818 11.188 9.292 o
8 7 9 3.319 6.532 2.935 140.727 o
8 7 10 5.643 8.102 3.621 92.427 o
8 8 1 11.105 9.419 5.293 43.249 o
8 8 2 105.250 116.704 16.857 4.213 o
8 8 3 2.395 -1.057 3.939 78.175 o
8 8 4 596.614 608.059 49.201 0.479 o
8 8 5 6.477 3.222 3.216 117.167 o
8 8 6 16.757 10.849 9.003 14.952 o
8 8 7 35.297 44.971 14.165 6.032 o
9 -2 0 26.167 15.263 5.473 40.276 o
9 -2 1 326.655 314.020 24.186 1.963 o
9 -1 0 14.685 13.839 3.222 116.094 o
9 -1 1 461.257 450.975 15.584 3.922 o
9 -1 2 30.657 26.009 4.222 67.035 o
9 -1 3 3.964 5.012 2.527 189.838 o
9 -1 4 5.464 3.059 2.482 196.672 o
9 -1 5 445.695 429.198 21.050 2.404 o
9 -1 6 59.480 57.517 10.496 10.904 o
9 0 0 35.332 37.665 4.828 51.139 o
9 0 1 13.818 10.705 2.647 171.874 o
9 0 2 196.164 223.886 11.336 8.550 o
9 0 3 82.739 85.843 6.980 23.814 o
9 0 4 156.434 159.090 10.904 9.571 o
9 0 5 76.703 78.166 10.332 11.167 o
9 0 6 229.483 238.171 17.594 3.714 o
9 0 7 56.274 57.062 10.363 11.191 o
9 1 0 32.377 22.033 4.597 56.682 o
9 1 1 306.557 292.795 13.570 5.694 o
9 1 2 3.921 7.621 2.439 203.696 o
9 1 3 5.218 4.501 2.532 188.919 o
9 1 4 0.003 4.001 2.597 179.824 o
9 1 5 531.464 544.750 26.156 1.565 o
9 1 6 37.451 46.976 8.079 18.437 o
9 1 7 106.516 125.924 13.153 6.852 o
9 1 8 61.400 62.790 9.621 12.935 o
9 2 0 55.032 53.114 8.175 17.901 o
9 2 1 125.540 144.389 16.320 4.463 o
9 2 2 394.130 411.101 19.774 2.747 o
9 2 3 0.609 2.824 2.682 168.628 o
9 2 4 150.432 155.358 12.082 7.913 o
9 2 5 142.499 132.671 11.214 9.197 o
9 2 6 106.145 117.763 10.628 10.387 o
9 2 7 189.513 196.111 13.785 6.015 o
9 2 8 540.726 526.073 27.826 1.402 o
9 2 9 0.043 3.915 4.275 66.364 o
9 3 0 112.771 126.658 10.707 10.194 o
9 3 1 139.055 124.609 12.141 7.923 o
9 3 2 129.199 111.799 9.755 12.132 o
9 3 3 81.244 72.329 9.019 14.566 o
9 3 4 0.048 1.178 2.095 276.353 o
9 3 5 1226.850 1282.720 33.932 0.738 o
9 3 6 29.460 28.865 4.503 59.023 o
9 3 7 8.079 11.138 3.276 112.740 o
9 3 8 0.064 0.280 2.043 290.599 o
9 3 9 121.724 139.133 17.215 4.023 o
9 4 0 144.327 136.980 15.181 5.122 o
9 4 1 2.198 2.374 2.530 189.509 o
9 4 2 619.724 656.082 22.813 1.875 o
9 4 3 87.645 99.668 7.777 19.211 o
9 4 4 43.182 38.282 4.834 50.728 o
9 4 5 70.450 55.867 7.930 18.883 o
9 4 6 111.099 120.313 8.513 15.835 o
9 4 7 61.591 72.199 6.628 26.793 o
9 4 8 290.012 267.950 14.114 5.403 o
9 4 9 89.069 88.366 8.810 15.143 o
9 5 0 169.240 157.975 12.267 7.622 o
9 5 1 301.090 299.177 15.235 4.653 o
9 5 2 61.122 49.319 6.104 31.673 o
9 5 3 38.123 43.377 5.721 36.507 o
9 5 4 1.265 2.165 2.191 252.704 o
9 5 5 186.776 189.990 12.184 7.599 o
9 5 6 1.191 5.458 2.592 180.442 o
9 5 7 41.345 38.786 5.505 39.361 o
9 5 8 1.425 1.789 2.128 267.902 o
9 5 9 750.189 750.237 32.187 0.999 o
9 5 10 0.882 3.271 5.648 38.022 o
9 6 0 8.147 4.008 3.988 76.196 o
9 6 1 24.381 19.843 9.705 12.856 o
9 6 2 278.783 285.095 24.051 2.010 o
9 6 3 8.314 8.715 3.781 84.725 o
9 6 4 112.693 123.854 14.962 5.317 o
9 6 5 22.034 23.382 5.918 34.480 o
9 6 6 253.361 271.469 19.569 3.001 o
9 6 7 42.801 45.110 8.111 18.270 o
9 6 8 369.518 400.591 20.467 2.611 o
9 6 9 55.667 54.893 13.340 6.780 o
9 7 2 41.072 25.491 11.493 9.155 o
9 7 3 175.025 187.615 28.006 1.527 o
9 7 4 5.564 7.686 5.183 45.140 o
9 7 5 441.991 448.424 44.696 0.589 o
10 1 1 246.612 240.140 29.814 1.336 o
10 1 2 0.013 -3.222 4.538 58.898 o
10 1 3 184.246 145.915 22.034 2.452 o
10 1 4 3.206 4.956 4.654 56.004 o
10 2 1 0.248 -3.586 6.189 31.674 o
10 2 2 221.446 222.772 23.267 2.178 o
10 2 3 33.242 34.195 12.004 8.398 o
10 2 4 70.459 63.370 11.476 9.109 o
10 3 1 142.218 146.063 23.654 2.143 o
10 3 2 0.066 -3.788 3.060 129.536 o
10 3 3 406.144 391.281 34.843 0.959 o
10 3 4 70.915 64.355 15.324 5.133 o
10 3 5 51.558 53.782 14.804 5.514 o
10 3 6 28.288 48.124 13.762 6.392 o
10 4 1 173.002 184.531 19.276 3.180 o
10 4 2 143.774 133.238 16.382 4.418 o
10 4 3 8.126 5.284 3.343 108.419 o
10 4 4 99.948 100.606 14.281 5.857 o
10 4 5 3.056 0.588 3.448 102.026 o
10 4 6 313.164 305.859 23.717 2.045 o
;
_olex2_submission_special_instructions 'No special instructions were received'
_oxdiff_exptl_absorpt_empirical_details
;
Empirical correction (ABSPACK) includes:
- Absorption correction using spherical harmonics
- Frame scaling
;
_oxdiff_exptl_absorpt_empirical_full_max 1.104
_oxdiff_exptl_absorpt_empirical_full_min 0.938
loop_
_space_group_symop_id
_space_group_symop_operation_xyz
1 x,y,z
2 -x,-y,-z
loop_
_atom_site_label
_atom_site_type_symbol
_atom_site_fract_x
_atom_site_fract_y
_atom_site_fract_z
_atom_site_U_iso_or_equiv
_atom_site_adp_type
_atom_site_occupancy
_atom_site_site_symmetry_order
_atom_site_refinement_flags_posn
_atom_site_refinement_flags_adp
_atom_site_refinement_flags_occupancy
Cu1 Cu 0.5 0.5 0.5 0.00532(4) Uani 1.000000 2 S TU P
S1 S 0.87394(4) 0.51417(4) 0.21429(2) 0.00458(4) Uani 1.000000 1 . U .
O1 O 0.35103(14) 0.31497(13) 0.42559(7) 0.00892(13) Uani 1.000000 1 D U .
H1a H 0.244(3) 0.395(3) 0.3592(16) 0.025(5) Uani 1.000000 1 D U .
H1b H 0.269(3) 0.221(3) 0.4859(17) 0.021(5) Uani 1.000000 1 D U .
Cu2 Cu 0.5 1.0 0.0 0.00507(4) Uani 1.000000 2 S TU P
O2 O 0.65298(13) 0.20875(13) 0.61817(7) 0.00862(13) Uani 1.000000 1 D U .
H2a H 0.574(3) 0.198(3) 0.7042(15) 0.019(5) Uani 1.000000 1 D U .
H2b H 0.818(2) 0.161(3) 0.6241(17) 0.019(4) Uani 1.000000 1 D U .
O3 O 0.79729(14) 1.03431(14) -0.09523(8) 0.01210(15) Uani 1.000000 1 D U .
H3a H 0.935(3) 0.905(3) -0.1040(18) 0.024(5) Uani 1.000000 1 D U .
H3b H 0.845(3) 1.177(3) -0.1221(18) 0.027(5) Uani 1.000000 1 D U .
O4 O 0.52005(14) 0.74121(14) -0.08269(8) 0.01319(15) Uani 1.000000 1 D U .
H4a H 0.389(3) 0.697(3) -0.0984(19) 0.029(5) Uani 1.000000 1 D U .
H4b H 0.666(3) 0.648(3) -0.117(2) 0.029(5) Uani 1.000000 1 D U .
O6 O 0.82533(13) 0.40490(13) 0.34940(7) 0.00821(13) Uani 1.000000 1 . U .
O7 O 0.86238(13) 0.36289(13) 0.12590(7) 0.00864(13) Uani 1.000000 1 . U .
O8 O 1.11579(12) 0.54340(13) 0.19998(7) 0.00753(12) Uani 1.000000 1 . U .
O9 O 0.70303(13) 0.74810(12) 0.18336(7) 0.00852(13) Uani 1.000000 1 . U .
O5 O 0.13125(14) 0.06638(13) 0.62509(8) 0.00982(13) Uani 1.000000 1 D U .
H5a H 0.169(4) -0.100(3) 0.628(2) 0.042(6) Uani 1.000000 1 D U .
H5b H 0.203(4) 0.089(4) 0.6955(17) 0.031(6) Uani 1.000000 1 D U .
loop_
_atom_site_aniso_label
_atom_site_aniso_U_11
_atom_site_aniso_U_22
_atom_site_aniso_U_33
_atom_site_aniso_U_12
_atom_site_aniso_U_13
_atom_site_aniso_U_23
Cu1 0.00553(7) 0.00520(7) 0.00553(7) -0.00173(5) -0.00063(5) -0.00123(5)
S1 0.00437(9) 0.00418(9) 0.00522(9) -0.00119(7) 0.00030(7) -0.00137(7)
O1 0.0099(3) 0.0095(3) 0.0089(3) -0.0045(3) -0.0015(3) -0.0018(2)
H1a 0.024(8) 0.027(8) 0.024(8) -0.006(4) -0.001(4) -0.009(4)
H1b 0.020(8) 0.018(8) 0.025(8) -0.008(4) 0.005(4) -0.003(4)
Cu2 0.00487(7) 0.00474(7) 0.00626(7) -0.00219(5) 0.00139(5) -0.00229(5)
O2 0.0090(3) 0.0083(3) 0.0080(3) -0.0022(3) -0.0008(2) -0.0005(2)
H2a 0.020(6) 0.019(6) 0.019(6) -0.006(2) 0.001(2) -0.003(2)
H2b 0.023(6) 0.020(6) 0.015(6) -0.006(2) -0.001(2) -0.004(2)
O3 0.0082(3) 0.0080(3) 0.0183(4) -0.0023(3) 0.0049(3) -0.0023(3)
H3a 0.033(8) 0.026(8) 0.016(8) -0.012(4) -0.001(4) -0.009(4)
H3b 0.030(9) 0.025(8) 0.026(8) -0.005(4) -0.003(4) -0.008(4)
O4 0.0074(3) 0.0125(4) 0.0233(4) -0.0027(3) 0.0009(3) -0.0123(3)
H4a 0.032(8) 0.027(8) 0.027(9) -0.008(4) -0.004(4) -0.002(4)
H4b 0.026(8) 0.027(8) 0.034(9) -0.010(4) -0.002(4) -0.004(4)
O6 0.0097(3) 0.0068(3) 0.0070(3) -0.0022(2) 0.0013(2) -0.0003(2)
O7 0.0079(3) 0.0092(3) 0.0104(3) -0.0022(2) -0.0011(2) -0.0052(2)
O8 0.0061(3) 0.0081(3) 0.0095(3) -0.0032(2) 0.0004(2) -0.0028(2)
O9 0.0088(3) 0.0063(3) 0.0079(3) 0.0011(2) -0.0005(2) -0.0008(2)
O5 0.0101(3) 0.0075(3) 0.0117(3) -0.0023(3) 0.0001(3) -0.0023(3)
H5a 0.042(10) 0.045(9) 0.038(9) -0.012(5) -0.001(5) -0.007(5)
H5b 0.034(9) 0.028(9) 0.036(9) -0.016(4) -0.003(5) -0.006(4)
loop_
_atom_type_symbol
_atom_type_scat_dispersion_real
_atom_type_scat_dispersion_imag
_atom_type_scat_source
_atom_type_scat_dispersion_source
Cu 0.34125 1.28947 'NoSpherA2: Chem.Sci. 2021, DOI:10.1039/D0SC05526C'
'Henke, Gullikson and Davis, At. Data and Nucl. Data Tables, 1993, 54, 2'
H 0.00000 0.00000 'NoSpherA2: Chem.Sci. 2021, DOI:10.1039/D0SC05526C'
'Henke, Gullikson and Davis, At. Data and Nucl. Data Tables, 1993, 54, 2'
O 0.01158 0.00611 'NoSpherA2: Chem.Sci. 2021, DOI:10.1039/D0SC05526C'
'Henke, Gullikson and Davis, At. Data and Nucl. Data Tables, 1993, 54, 2'
S 0.12424 0.12443 'NoSpherA2: Chem.Sci. 2021, DOI:10.1039/D0SC05526C'
'Henke, Gullikson and Davis, At. Data and Nucl. Data Tables, 1993, 54, 2'
loop_
_diffrn_refln_index_h
_diffrn_refln_index_k
_diffrn_refln_index_l
_diffrn_refln_intensity_net
_diffrn_refln_intensity_u
0 0 -2 685.91 24.7
0 0 2 694.07 22.35
0 0 -2 636.62 22.27
0 0 2 671.46 22.35
0 0 -2 695.87 22.44
0 0 2 664.81 24.11
0 0 -2 665.87 24.3
0 0 2 641.67 23.14
0 0 -2 692.07 23.14
0 0 2 617.33 23.04
0 0 2 671.05 23.41
0 0 2 659.49 24.03
0 0 -2 659.15 23.52
0 0 -2 649.19 24.31
0 0 -2 673.24 23.04
0 0 -2 660.37 23.82
0 0 2 621.15 23.74
0 0 -3 501.12 21.96
0 0 -3 482.69 18.83
0 0 -3 521.89 19.04
0 0 -3 497.49 21.67
0 0 3 527.96 21.62
0 0 -3 525.65 20.17
0 0 3 504.91 20.1
0 0 3 508.09 20.15
0 0 -3 519.8 21.92
0 0 3 493.69 20.33
0 0 3 507.28 21.98
0 0 -3 500.12 20.59
0 0 3 529.28 21.53
0 0 -3 532 20.19
0 0 3 486.96 21.28
0 0 -3 536.9 21.06
0 0 -4 22.68 3.68
0 0 -4 24.74 4.19
0 0 4 16.12 3.34
0 0 4 18.51 2.69
0 0 -4 18.81 2.69
0 0 -4 14.45 2.42
0 0 4 11.34 2.77
0 0 -4 17.98 3.53
0 0 -4 24.22 3.49
0 0 -4 20.7 3.21
0 0 4 19.01 3.8
0 0 -4 14.19 2.91
0 0 4 16.17 3.25
0 0 4 12.79 1.68
0 0 -4 17.05 3.49
0 0 4 15.24 1.67
0 0 5 895.86 31.54
0 0 5 1060.89 41.65
0 0 5 1049.89 38.2
0 0 5 1039.57 35.35
0 0 -5 1063.16 41.26
0 0 -5 1014.19 35.29
0 0 -5 1060.41 35.4
0 0 -5 1048.78 41.14
0 0 -5 1027.39 37.15
0 0 -5 1070.22 37.48
0 0 6 679.48 32.51
0 0 6 690.82 25.78
0 0 6 786.6 36.91
0 0 6 822.93 33.47
0 0 6 793.67 32.94
0 0 -6 824.45 30.57
0 0 -6 805.23 30.19
0 0 -6 732.34 35.9
0 0 6 742.91 32.44
0 0 -6 814.09 32.51
0 0 -6 890.63 37.55
0 0 6 768.24 29.9
0 0 -6 767.03 31.96
0 0 6 753.06 25.1
0 0 7 1354.75 55.59
0 0 7 1217.4 49.3
0 0 7 1205.91 45.51
0 0 -7 1252.21 46.09
0 0 -7 1264.99 46.05
0 0 -7 1277.67 54.08
0 0 7 1222.78 49.22
0 0 -7 1282.62 48.69
0 0 7 1376.29 57.9
0 0 -7 1275.62 48.62
0 0 -8 971.96 37.93
0 0 -8 977.16 40.7
0 0 -8 923.15 45.67
0 0 -8 950.91 40.35
0 0 8 934.41 46.62
0 0 8 910.4 37.02
0 0 8 923.86 44.58
0 0 8 1068.95 50.71
0 0 9 188.41 16.76
0 0 -9 219.72 20.36
0 0 9 220.43 20.46
0 0 9 221.28 19.69
0 0 9 258.26 23.41
0 0 10 1899.88 84.04
0 0 -10 1925.59 80.22
0 0 10 1673.69 70.36
0 0 10 1820.49 71.83
0 0 10 1944.23 80.95
0 0 10 1891.89 78.04
0 0 10 1779.23 73.08
0 0 11 16.83 6.3
0 0 -11 8.12 4.96
0 0 11 11.41 5.02
0 0 11 11.98 4.49
0 0 11 22.18 8.15
0 0 12 66.1 14.09
0 0 12 60.62 12.41
0 0 -12 69.95 13.02
0 0 -12 62.07 12.99
0 0 12 57 11.45
0 0 12 49.9 9.37
0 0 13 15.25 8.05
0 0 -13 4.97 4.3
0 0 13 7.67 6.25
0 0 -13 25.75 9.88
0 0 13 11.57 5.66
0 0 13 28.89 7.19
0 0 -14 874.79 54.71
0 0 14 782.87 50.82
0 0 -14 821.93 56.79
0 0 14 704.7 42.65
0 0 14 827.92 53.84
0 0 14 861.25 59.09
0 0 -15 -2.92 4.12
0 0 -15 -3.4 3.39
0 0 15 2.66 3.74
0 0 15 5.93 5.12
0 0 15 -3.61 5.09
0 0 -16 189.72 25.44
0 0 -16 145.66 24
0 0 16 169.96 26.54
0 0 16 165.6 22.54
0 0 17 12.25 8.15
0 0 -17 26.95 11.51
0 -1 17 233.21 31.61
0 -1 17 195.97 26.52
0 1 -16 18.52 9.05
0 -1 16 12.53 7.66
0 -1 16 26.39 10.63
0 -1 15 302.1 31.84
0 1 -15 249.49 30.99
0 -1 15 258.43 32.02
0 -1 15 230.04 23.82
0 1 -14 381.92 33.91
0 -1 14 306.12 31.53
0 -1 14 317.62 31.03
0 1 -14 368.56 36.15
0 -1 14 288.36 32.77
0 -1 14 342.13 28.69
0 1 -13 632.08 42.92
0 -1 13 678.14 45.99
0 -1 13 597.81 42.59
0 1 -13 661.68 47.94
0 -1 13 581.05 45.89
0 -1 13 513.46 36.83
0 1 -12 163.99 19.56
0 -1 12 129.64 18.09
0 -1 12 136.85 18.1
0 1 -12 117.67 18.62
0 -1 12 103.32 14.82
0 -1 12 109.37 18.02
0 -1 11 493.74 36.43
0 1 -11 561.03 34.48
0 -1 11 569.15 36.54
0 -1 11 514.62 34.08
0 1 -11 523.06 37.29
0 -1 11 533.51 32.32
0 1 -10 40.92 9.9
0 1 -10 46.99 9.41
0 -1 10 65.45 11.56
0 -1 10 45.86 10.5
0 -1 10 47.47 9.69
0 -1 10 34.7 4.24
0 -1 10 35.65 7.99
0 1 -9 78.15 12.62
0 1 -9 74.87 11.17
0 -1 9 67.24 11.19
0 -1 9 62.04 6.29
0 -1 9 98.82 13.17
0 -1 9 70.99 12.26
0 -1 9 75.41 10.92
0 -1 8 48.23 9.46
0 1 -8 51.8 8.77
0 1 -8 55.02 9.91
0 -1 8 45.46 5.48
0 -1 8 32.04 6.91
0 -1 8 46.7 8.44
0 -1 7 1653.53 62.95
0 1 -7 1986.51 76.54
0 1 -7 1976.09 67.51
0 1 -7 1910.25 72.04
0 -1 7 1793.01 69.22
0 1 -7 1900.05 66.97
0 -1 7 1956.04 76.33
0 1 -7 1976.77 67.54
0 -1 7 1823.19 72.37
0 1 -6 883.46 33.1
0 -1 6 883.2 42.06
0 1 -6 960.09 36.09
0 -1 6 814.35 39.43
0 1 -6 976.06 37
0 -1 6 774.98 33.6
0 1 -6 908.82 42.69
0 1 -6 897.45 36.41
0 1 -6 873.92 39.26
0 -1 6 892.32 38.03
0 1 -6 917.91 36.36
0 -1 6 892.23 42.16
0 1 -6 921.2 39.65
0 1 -5 764.54 28.54
0 1 -5 737.32 29.34
0 1 -5 804.81 32.98
0 -1 5 740.61 33.41
0 1 -5 769.92 30.8
0 -1 5 630.44 28.77
0 1 -5 725.38 35.41
0 1 -5 771.67 31.1
0 -1 5 741.05 31.69
0 1 -5 691.98 32.02
0 1 -5 782.61 30.84
0 1 -5 755.36 32.91
0 -1 5 810.95 35.87
0 -1 4 15.54 3.75
0 1 -4 16.54 3.88
0 -1 4 9.95 2.97
0 -1 4 10.58 2.57
0 1 -4 13.86 2.95
0 1 -4 15.16 3.27
0 1 -4 13.05 2.72
0 1 -4 14.68 3.05
0 1 -4 13.01 2.8
0 -1 4 18.97 3.71
0 1 -4 13.04 2.41
0 1 -4 15.92 3.44
0 -1 4 10.77 3.09
0 1 -4 7.67 1.92
0 1 -3 9735.74 292.1
0 -1 3 9431.51 290.36
0 1 -3 9088.21 288.19
0 1 -3 9679 288.09
0 1 -3 9999 288.01
0 -1 3 9535.86 289.77
0 1 -3 9482.66 285.43
0 1 -3 9782.87 287.47
0 1 -3 9548.73 287.99
0 1 -3 9874.46 291.36
0 -1 3 9590.33 291.84
0 1 -3 9677.56 289.1
0 -1 2 2038.06 69.19
0 1 -2 2105.83 67.85
0 1 -2 2125.41 68.74
0 -1 2 2207.33 70.15
0 -1 2 2214.56 70.83
0 1 -2 2220.87 71.25
0 1 -2 2249.41 69.27
0 -1 2 2137.45 69.41
0 -1 2 2225.04 71.69
0 -1 2 2103.45 69.12
0 1 -2 2169.31 70.91
0 1 -2 2154.79 68.48
0 1 -1 1470.96 46.22
0 -1 1 1503.36 46.31
0 -1 1 1545.13 46.18
0 1 -1 1502.83 48.69
0 -1 1 1342.77 45.57
0 1 -1 1478.25 49.01
0 -1 1 1513.94 48.86
0 1 -1 1464.08 45.49
0 -1 1 1470.68 49.32
0 1 -1 1507.06 46.57
0 1 -1 1542.23 49.68
0 -1 1 1447.66 46.5
0 1 -1 1507.77 48.69
0 1 -1 1436.65 46.72
0 -1 1 1514.87 46.76
0 1 0 1458.27 46.02
0 1 0 1371.05 44.79
0 -1 0 1373.3 45.53
0 -1 0 1326.28 44.81
0 -1 0 1450.81 46.14
0 -1 0 1400.23 45.79
0 1 0 1478.01 46.31
0 -1 0 1403.17 45.77
0 1 1 3048.48 94.3
0 -1 -1 3059.53 94.51
0 -1 -1 3025.04 94.42
0 -1 -1 3121.33 93.91
0 1 1 2902.24 93.33
0 1 1 3120.19 93.65
0 -1 -2 1003.01 33.84
0 1 2 952.99 33.94
0 -1 -2 961.32 33.6
0 1 2 979.22 34.12
0 1 2 937.36 33.87
0 -1 -2 900.34 31.49
0 -1 -2 928.82 33.44
0 1 2 940.43 33.61
0 1 3 2919.58 93.75
0 -1 -3 3062.15 94.81
0 -1 -3 2837.51 93.05
0 1 3 2976.25 94.03
0 -1 -3 2874.96 93.15
0 1 3 3007.24 94.12
0 -1 -3 2748.32 91.65
0 1 3 3146.99 95.36
0 1 3 2954.84 94.91
0 -1 -3 2954.36 89.07
0 1 3 2935.21 94.59
0 -1 -3 2919.22 94.08
0 -1 -4 1780.65 63.99
0 1 4 1855.8 64.89
0 1 4 1880.18 63.57
0 -1 -4 1891.19 62.84
0 1 4 1834.92 63.36
0 -1 -4 1793.14 62.43
0 1 4 1924.95 65.14
0 1 4 1782.14 63.96
0 -1 -4 1790.02 61.05
0 -1 -4 1901.99 64.19
0 1 5 16.96 2.77
0 -1 -5 26.36 4.04
0 1 5 25.72 4.96
0 -1 -5 19.39 4.24
0 -1 -5 24.44 4.21
0 -1 -5 20.51 3.84
0 1 5 26.83 4.91
0 -1 -5 22.08 4.19
0 1 5 30.62 3.33
0 1 6 291.36 17.28
0 -1 -6 308.71 19.56
0 1 6 293.75 19.98
0 1 6 277.2 14
0 -1 -6 313.66 20.54
0 -1 -6 289.58 17.15
0 -1 -6 325.89 18.52
0 1 6 307.63 19.47
0 1 6 265.92 12.56
0 -1 -6 290.35 16.6
0 1 6 265.12 17.07
0 -1 -6 287.58 17.01
0 1 7 3060.85 102.28
0 1 7 2845 96.3
0 -1 -7 3052.55 108.46
0 -1 -7 3060.42 102.24
0 -1 -7 3356.84 104.73
0 1 7 3159.01 105.47
0 -1 -7 2896.46 100.83
0 -1 -7 3011.37 101.99
0 1 8 297.76 18.79
0 -1 -8 306.04 19.69
0 1 8 297.78 15.48
0 -1 -8 330.81 23.93
0 -1 -8 281.75 18.68
0 -1 -8 311.78 19.38
0 1 8 278.07 11.53
0 -1 -8 310.88 19.51
0 1 9 46.16 9.48
0 1 9 64.84 9.24
0 -1 -9 56.72 10.09
0 1 9 44.12 7.67
0 1 9 65.77 8.45
0 1 9 44.84 8.14
0 -1 -9 53.97 7.98
0 -1 -10 291.37 20.5
0 1 10 302.17 21.16
0 -1 -10 309.1 25.89
0 1 10 298.97 21.81
0 1 10 312.26 22.29
0 1 10 241.03 23.82
0 1 10 297.99 23.25
0 1 10 247.66 25.17
0 -1 -11 2412.34 86.01
0 1 11 2187.11 85.53
0 -1 -11 2494.05 98.73
0 1 11 2165.24 86.88
0 1 11 2101.96 86.54
0 1 11 2424.17 99.06
0 1 11 2218.87 90.7
0 1 11 2276.22 100.35
0 1 12 79.94 15.72
0 -1 -12 63.47 13.26
0 1 12 89.92 12.31
0 1 12 91.41 13.75
0 1 12 98.08 12.93
0 1 12 75.03 10.83
0 1 12 95.23 15.76
0 1 13 857.45 57.35
0 -1 -13 906.4 54.27
0 1 13 860.89 45.01
0 1 13 802.23 47.74
0 1 13 730.56 41.11
0 1 13 800.91 43.77
0 1 13 805.34 52.58
0 1 14 133.12 15.12
0 1 14 117.96 20.78
0 1 14 145.4 21.63
0 -1 -14 135.99 20.33
0 -1 -15 6.72 5.8
0 1 15 -3.66 3.64
0 1 15 -3.13 4.41
0 -1 -15 9.19 6.82
0 -1 -16 134.03 22.85
0 1 16 129.76 23.48
0 1 16 119.71 21.03
0 -1 -16 141.3 22.29
0 -1 -17 200.13 28.93
0 1 17 170.9 25.61
0 -1 -17 189.94 26.74
0 1 17 174.59 27.98
0 -2 16 50.66 14
0 -2 16 27.66 10.39
0 2 -16 41.77 13.68
0 -2 15 12 6.32
0 -2 15 3.42 3.41
0 2 -15 14.33 7.98
0 -2 15 3.3 3.29
0 2 -14 681.59 52.36
0 -2 14 640.7 44.25
0 -2 14 628.56 48.75
0 -2 14 656.98 50.2
0 -2 13 2.31 3.98
0 -2 13 14.72 7.18
0 2 -13 3.09 5.32
0 -2 13 -2.89 4.07
0 2 -12 14.1 6.88
0 -2 12 8.01 5.32
0 -2 12 6.63 4.41
0 -2 12 11.06 5.83
0 2 -12 14.11 6.03
0 -2 12 5.37 4.64
0 2 -11 20.48 8.08
0 2 -11 21.94 6.83
0 -2 11 16.66 6.24
0 -2 11 21.76 7.63
0 -2 11 26.96 8.47
0 -2 11 10.07 4.94
0 2 -10 1057.8 57.13
0 -2 10 992.87 54.17
0 -2 10 891.22 49.35
0 2 -10 1004.3 49.43
0 -2 10 817.09 51.38
0 -2 10 974.35 52.21
0 2 -9 88.48 14.19
0 2 -9 105.81 13.06
0 -2 9 100.58 13.43
0 -2 9 102.38 14.15
0 -2 9 89.47 13.71
0 2 -8 893.75 47.94
0 -2 8 842.03 45.2
0 2 -8 878.5 42.01
0 -2 8 814.83 42.95
0 -2 8 857.03 45.49
0 2 -7 129.78 15
0 -2 7 132.56 14.39
0 2 -7 130.07 12.72
0 -2 7 117.61 11.4
0 -2 7 115.76 12.76
0 -2 7 155.88 16.35
0 -2 7 121.4 14.25
0 2 -6 1476.5 55.03
0 -2 6 1403.16 63.61
0 2 -6 1553.42 51.77
0 -2 6 1510.63 60.18
0 2 -6 1473.89 56.19
0 2 -6 1522.43 58.7
0 2 -6 1508.55 56.57
0 2 -6 1507.88 58.26
0 2 -6 1564.57 64.62
0 2 -6 1526.07 58.55
0 -2 6 1492.03 56.49
0 2 -6 1442.66 57.54
0 2 -6 1496.07 56.39
0 2 -6 1465.01 56.24
0 -2 6 1562.68 62.08
0 2 -5 593.14 27.27
0 2 -5 643.08 33.59
0 -2 5 666.5 31.65
0 -2 5 595.26 27.2
0 2 -5 627.81 28.46
0 2 -5 633.66 28.57
0 2 -5 625.96 28.4
0 2 -5 601.85 23.91
0 2 -5 646.79 27.5
0 -2 5 655.52 30.89
0 2 -5 631.48 29.41
0 2 -5 549.18 26.9
0 2 -5 630.89 29
0 -2 4 2108.99 72.96
0 2 -4 2166.64 69.96
0 -2 4 1884.9 67.99
0 2 -4 2084.01 69.02
0 2 -4 1965.61 75.25
0 2 -4 2005.21 67.85
0 2 -4 2060.19 71.37
0 2 -4 2061.46 70.72
0 2 -4 2060.83 74.78
0 2 -4 2103.98 70.43
0 -2 3 1595.24 62.21
0 2 -3 1790.16 64.03
0 -2 3 1703.07 62.37
0 2 -3 1799.65 62.05
0 -2 3 1762.84 59.74
0 -2 3 1610.6 56.65
0 2 -3 1712.2 61.68
0 2 -3 1689.98 57.56
0 2 -3 1782.97 57.56
0 2 -3 1746.98 60
0 2 -3 1716.58 56.19
0 2 -3 1865.41 61.25
0 2 -3 1772.76 58.63
0 2 -3 1765.05 63.82
0 -2 3 1519.35 58.12
0 2 -2 1348.09 43.54
0 -2 2 1415.29 49.72
0 -2 2 1166.13 43.15
0 2 -2 1366.97 49.72
0 -2 2 1331 45.67
0 2 -2 1356.18 49.77
0 -2 2 1308.63 44.38
0 2 -2 1267.75 44.51
0 -2 2 1361.02 45.1
0 2 -2 1393.69 49.19
0 2 -2 1394.47 45.69
0 2 -2 1417.26 51.27
0 2 -2 1388.37 45.76
0 -2 2 1414.03 51.32
0 -2 1 432.85 20.05
0 2 -1 421.69 20.5
0 2 -1 387.12 15.91
0 -2 1 397.15 19.6
0 2 -1 394.69 20.16
0 -2 1 419.27 20.43
0 -2 1 400.79 16.81
0 -2 1 436.18 20.25
0 2 -1 422.6 20.63
0 2 -1 416.19 17.39
0 2 -1 422.27 20.91
0 2 0 3584.66 110.74
0 -2 0 3425.72 109.68
0 -2 0 3464.5 108.85
0 2 0 3338.97 107.81
0 -2 0 3307.32 110.08
0 2 0 3445.39 110.81
0 -2 0 3324.02 109.92
0 2 0 3591.35 111.27
0 -2 0 3402.24 109.92
0 2 0 3576.01 111.16
0 -2 -1 1410.73 51.32
0 -2 -1 1494.65 50.78
0 2 1 1399.29 49.98
0 -2 -1 1428.87 51.09
0 -2 -1 1339.54 46.42
0 -2 -1 1427.8 50.91
0 -2 -1 1471.8 51.23
0 2 1 1418.93 50.35
0 -2 -1 1503.73 51.3
0 -2 -2 15.96 1.73
0 -2 -2 19.49 3.74
0 2 2 18.11 3.61
0 2 2 24.67 3.78
0 -2 -2 14.41 3.23
0 2 3 1456.63 52.04
0 2 3 1507.45 53.59
0 -2 -3 1412.9 52
0 -2 -3 1357.2 51.79
0 2 3 1505.75 53.58
0 -2 -3 1365.73 46.51
0 -2 -3 1426.35 49.94
0 2 3 1454.83 52.73
0 2 4 5106.78 166.48
0 2 4 4873.39 165.55
0 -2 -4 5194.56 164.73
0 2 4 5110.48 165.8
0 2 4 5278.27 166.28
0 -2 -4 5437.64 165.31
0 2 4 5226.58 165.59
0 -2 -4 5421.28 160.41
0 -2 -4 5051.89 155.38
0 -2 -4 5732.74 168.33
0 2 4 5400.39 165.96
0 -2 -5 48.69 5.58
0 2 5 36.94 6.3
0 2 5 41.41 6.55
0 -2 -5 46.83 6.5
0 -2 -5 33.64 5.61
0 2 5 39.17 6.48
0 -2 -5 40.17 4.27
0 -2 -5 44.52 7
0 -2 -6 1371.95 48.02
0 2 6 1339.96 53.5
0 2 6 1165.34 45.67
0 -2 -6 1323.41 54.91
0 -2 -6 1314.07 51.06
0 -2 -6 1371.16 54.1
0 2 6 1261.39 53.19
0 2 6 1215.44 51.12
0 -2 -6 1271.75 42.44
0 -2 -6 1243.93 50.58
0 2 7 1541.91 62.27
0 -2 -7 1541.07 63.58
0 -2 -7 1484.41 57.93
0 2 7 1413.4 52.07
0 -2 -7 1614.42 61.83
0 -2 -7 1524.66 55
0 2 7 1407.07 52.25
0 -2 -7 1363.64 57.19
0 2 8 1352.41 59.03
0 -2 -8 1391.3 60.61
0 2 8 1217.92 54.75
0 2 8 1247.61 46.5
0 -2 -8 1365.94 56.84
0 -2 -8 1203.07 49.54
0 2 8 1294.44 46.67
0 2 8 1251.36 55.2
0 -2 -9 958.87 48.61
0 2 9 801.39 42.08
0 2 9 811.75 33.77
0 -2 -9 906.7 44.12
0 2 9 924.93 47.8
0 2 9 855.48 42.89
0 -2 -10 1290.78 54.55
0 2 10 1142.13 41.26
0 -2 -10 1318.78 60.88
0 2 10 1196.56 53.27
0 2 10 1115.1 36.94
0 2 10 965.26 36.24
0 2 10 1124.5 52.32
0 2 11 107.1 16.89
0 2 11 76 11.64
0 -2 -11 110.88 16.49
0 2 11 107.35 13.76
0 -2 -11 109.67 13.74
0 2 11 97.82 15.85
0 2 12 119.2 19
0 -2 -12 103.07 16.53
0 2 12 108.96 14.47
0 2 12 109.79 14.47
0 -2 -12 111.86 14.29
0 2 12 117.89 18.18
0 -2 -13 5.4 4.66
0 2 13 1.84 1.83
0 2 13 5.4 3.3
0 2 13 -1.84 2.59
0 2 13 3.07 3.06
0 2 13 -2.85 4.01
0 -2 -14 884.14 57.53
0 2 14 883.3 48.72
0 2 14 901.38 58.64
0 2 14 976.29 63.39
0 2 14 774.01 41.34
0 2 14 838.82 47.69
0 2 15 3.3 3.28
0 2 15 1.98 3.42
0 2 15 3.68 5.18
0 2 15 3.98 3.97
0 -2 -15 6.38 6.35
0 2 16 -3.5 3.49
0 -2 -16 3.41 3.4
0 2 16 3.96 5.58
0 2 17 3.68 5.18
0 2 17 8.41 7.26
0 -2 -17 7.21 7.19
0 3 -15 18.58 9.09
0 3 -15 35.49 12.43
0 -3 15 14.45 8.07
0 3 -14 85.57 18.71
0 -3 14 96.05 18.89
0 3 -14 105.1 19.91
0 -3 14 78.65 15.02
0 -3 13 206.89 26.73
0 3 -13 149.31 23.88
0 -3 13 167.1 22.08
0 -3 13 158.74 22.14
0 3 -13 111.04 20.29
0 -3 12 204.4 24
0 3 -12 187.27 24.91
0 -3 12 245.06 28.36
0 -3 12 161.21 22.25
0 -3 11 437.94 27.55
0 -3 11 380.23 33.29
0 3 -11 453.91 38.24
0 -3 11 388.74 33.08
0 3 -10 116.02 17.95
0 -3 10 120.16 13.84
0 -3 10 119.8 17.24
0 -3 10 137.28 17.71
0 3 -9 737.35 38.49
0 -3 9 708.54 42.38
0 3 -9 687.04 36.86
0 3 -9 672.69 37.62
0 -3 9 672.98 45.39
0 3 -9 808.56 47.9
0 -3 9 614.86 36.5
0 -3 9 672.88 43.5
0 -3 8 105.95 15.64
0 3 -8 123.35 16.37
0 3 -8 93.71 11.98
0 3 -8 89.26 11.1
0 3 -8 103.21 15.87
0 3 -8 91.34 11.71
0 -3 8 98.13 13.23
0 -3 8 87.75 11.8
0 -3 8 100.95 15.04
0 3 -7 2875.49 107.75
0 3 -7 2672.14 95.16
0 -3 7 2732.37 93.95
0 3 -7 2655.02 99.02
0 -3 7 2625.03 108.13
0 3 -7 2836.25 109.33
0 -3 7 2542.78 99.44
0 -3 7 2584.79 105.43
0 -3 7 2753.5 100.89
0 3 -7 2748.68 99.43
0 -3 6 67.46 11.32
0 3 -6 57.63 7.26
0 3 -6 65.84 10.89
0 -3 6 53.3 6.95
0 3 -6 68.63 9.46
0 -3 6 81.22 10.85
0 -3 6 68.06 9.53
0 3 -6 48.49 8.2
0 3 -6 54.8 10.57
0 3 -5 76.72 8.9
0 3 -5 56.56 4.77
0 3 -5 67.48 6.49
0 3 -5 64.89 10.58
0 3 -5 36.57 6.83
0 -3 5 47.83 8.42
0 3 -5 48.67 6.13
0 3 -5 61.49 9.91
0 -3 5 50.4 6.2
0 3 -5 55.42 8.45
0 -3 5 48.93 9.3
0 3 -5 57.58 7.32
0 -3 5 53.34 7.66
0 3 -4 487.8 29.2
0 -3 4 483.54 24.47
0 3 -4 457.93 26.49
0 -3 4 455.88 21.45
0 3 -4 476.8 27.06
0 3 -4 481.62 23.28
0 3 -4 512.14 30.57
0 3 -4 494.63 26.29
0 3 -4 551.86 26.36
0 3 -4 471.63 20.29
0 -3 4 523.47 31.16
0 3 -4 475.57 22.1
0 3 -3 1573.15 61.51
0 -3 3 1395.1 49.72
0 3 -3 1302.22 57.44
0 -3 3 1530.14 53.76
0 3 -3 1407.67 58.27
0 -3 3 1489.87 51.3
0 3 -3 1617.85 63.3
0 3 -3 1543.37 58.61
0 3 -3 1611.72 56.6
0 -3 3 1611.67 63.81
0 -3 3 1493.02 53.24
0 -3 3 1568.94 62.09
0 3 -2 290.47 18.61
0 3 -2 279.89 14.35
0 3 -2 261.7 18.23
0 -3 2 285.95 13.84
0 3 -2 291.41 19.17
0 3 -2 288.89 20.23
0 -3 2 280.64 14.57
0 3 -2 305.91 20.08
0 -3 2 251.9 14.02
0 -3 2 264.62 14.53
0 3 -2 293.64 19.62
0 3 -2 284.32 14.16
0 -3 1 1481.13 53.35
0 3 -1 1724.98 62.57
0 3 -1 1607.87 52.52
0 -3 1 1717.69 61.67
0 -3 1 1685.59 55.25
0 3 -1 1578.35 55.96
0 -3 1 1519.93 56.53
0 3 0 2.78 1.85
0 3 0 3.94 1.77
0 -3 0 4.08 2.27
0 3 0 6.45 2.75
0 3 0 4.83 2.72
0 -3 0 -0.88 1.24
0 3 0 0.96 1.36
0 -3 0 1.78 1.98
0 -3 0 2.61 1.73
0 3 0 0.68 1.17
0 3 0 0.31 0.61
0 -3 -1 2126.1 75.42
0 3 1 1962.79 75.4
0 -3 -1 2124.02 75.5
0 3 1 1870.61 74.87
0 3 1 2081.95 64
0 -3 -1 2177.56 75.5
0 3 1 2131.49 73.63
0 -3 -1 2178.79 77.33
0 -3 -1 2229.01 76.99
0 3 1 2189.51 75.44
0 -3 -2 1701.05 62.8
0 -3 -2 1681.67 62.2
0 3 2 1624.1 61.13
0 3 2 1665.81 60.36
0 -3 -2 1554.38 55.11
0 -3 -2 1726.55 62.98
0 -3 -2 1702.87 62.25
0 -3 -3 2982.16 102.02
0 -3 -3 3105.84 102.48
0 3 3 3085.78 100.44
0 3 3 2957.69 101.65
0 3 3 2858.48 90.64
0 -3 -3 3034.79 101.47
0 3 3 3030.13 99.93
0 3 4 532.4 27.33
0 -3 -4 545.61 21.02
0 3 4 511.03 28.23
0 -3 -4 532.48 28.26
0 -3 -4 461.72 26.92
0 3 4 566.29 28.01
0 3 4 541.46 26.17
0 -3 -4 562.81 26.85
0 3 5 875.72 40.56
0 -3 -5 902.84 39.23
0 3 5 880.67 40.48
0 3 5 957.48 42.95
0 -3 -5 900.25 41.89
0 3 5 863.99 41.76
0 -3 -5 952.13 43.9
0 -3 -5 943.32 37.67
0 -3 -5 824.87 33.44
0 3 5 902.51 37.59
0 -3 -6 1.32 1.86
0 -3 -6 4.18 2.78
0 -3 -6 8.09 2.64
0 3 6 8.44 3.61
0 -3 -6 4.76 2.04
0 -3 -6 4.06 1.91
0 3 6 6.54 2.7
0 3 7 2437.88 90.62
0 -3 -7 2534.9 92.58
0 3 7 2259.32 81.5
0 -3 -7 2465.5 92.17
0 -3 -7 2478.69 81.83
0 -3 -7 2116.33 80.74
0 -3 -7 2326.71 78.01
0 3 8 27.94 6.94
0 -3 -8 14.63 5.15
0 3 8 24.16 4.73
0 -3 -8 20.48 6.16
0 3 8 19.83 5.91
0 3 8 21.87 4.75
0 3 8 21.42 6.12
0 -3 -8 17.2 4.54
0 -3 -8 19.9 3.21
0 3 9 168.33 17.91
0 -3 -9 148.79 17.84
0 3 9 131.53 15.62
0 3 9 136.64 11.5
0 -3 -9 160.28 17.46
0 3 9 160.08 12.89
0 3 9 143.43 16.25
0 3 10 94.96 14.28
0 -3 -10 63.72 12.21
0 3 10 72.04 11.86
0 3 10 93.1 8.9
0 -3 -10 77.75 12.61
0 3 10 77.94 8.66
0 3 10 116.4 14.79
0 -3 -11 1216.28 58.72
0 3 11 1145.92 57.2
0 -3 -11 1148.64 62.03
0 3 11 1054.7 41.99
0 3 11 1153.41 60.34
0 3 11 1035.44 55.36
0 3 12 103.89 8.17
0 -3 -12 103.18 17.34
0 3 12 100.73 14.81
0 3 12 137.01 17.09
0 -3 -12 137.04 17.35
0 -3 -13 98.72 17.53
0 3 13 99.67 15.02
0 3 13 91.9 17.47
0 3 13 89.74 14.36
0 3 13 67.86 16.2
0 -3 -13 117.43 16.56
0 -3 -14 -3.07 4.32
0 3 14 -2.18 3.76
0 3 14 4.33 3.73
0 3 14 -3.38 5.83
0 3 14 -3.3 3.28
0 -3 -15 245.19 30.15
0 3 15 333.59 29.01
0 3 15 283.04 26.94
0 3 15 264.86 33.03
0 3 15 311.65 34.49
0 -3 -16 148.68 24.19
0 3 16 136.06 18.44
0 3 16 114.97 22.29
0 3 16 99.88 20.18
0 3 16 131 17.95
0 3 17 475.98 46.69
0 3 17 504.66 48.99
0 -3 -17 441.77 43.91
0 -4 14 180.74 27.17
0 4 -14 150.82 25.41
0 4 -14 183.32 27.46
0 -4 14 128.6 20.96
0 -4 13 -3.59 5.06
0 4 -13 3.75 3.73
0 -4 13 -3.02 5.21
0 4 -13 3.47 3.46
0 4 -12 45.72 13.66
0 4 -12 58.55 14.57
0 -4 12 55.93 13.52
0 4 -11 6.54 5.65
0 -4 11 14.66 6.06
0 4 -11 6.05 5.22
0 -4 11 17 7.47
0 4 -10 1357.15 77.66
0 -4 10 1415.35 67.17
0 -4 10 1445.02 78.52
0 -4 10 1494.7 77.31
0 4 -10 1525.51 78.16
0 -4 9 12.82 6.27
0 4 -9 22.25 8.77
0 -4 9 16.54 7.28
0 -4 9 15.2 5.7
0 4 -9 20.53 7.68
0 -4 8 167.98 18.84
0 4 -8 188.92 18.4
0 4 -8 173.66 22.54
0 4 -8 143.66 16.22
0 -4 8 189.64 18.36
0 4 -8 150.36 19.87
0 -4 8 155.61 20.56
0 -4 8 137.56 19.07
0 4 -7 274.66 22.67
0 4 -7 325.35 29.22
0 4 -7 273.74 22.55
0 -4 7 288.18 21.75
0 4 -7 268.29 25.71
0 -4 7 319.49 29.04
0 -4 7 302.53 25.47
0 4 -6 568.45 39
0 4 -6 531.43 32.7
0 -4 6 550.04 25.9
0 -4 6 529.91 29.75
0 4 -6 537.39 32.72
0 -4 6 476.52 33.84
0 4 -6 536.19 36.62
0 4 -5 513.28 34.91
0 4 -5 618.67 39.14
0 4 -5 553.86 33.56
0 -4 5 556.91 25.54
0 -4 5 582.63 29.4
0 4 -5 584.42 33.96
0 -4 5 549.37 35.72
0 -4 5 632.11 39.47
0 4 -4 542.73 32.56
0 -4 4 549.2 24.4
0 4 -4 600.35 37.5
0 4 -4 551.94 32.73
0 4 -4 583.52 35.38
0 -4 4 599.1 37.33
0 4 -3 432 28.45
0 4 -3 382.67 26.09
0 -4 3 389.88 18.76
0 4 -3 401.4 26.61
0 4 -3 454.02 24.61
0 4 -3 428.69 29.54
0 -4 3 391.21 20.25
0 -4 3 425.8 29.79
0 -4 3 411.85 28.87
0 4 -2 573.93 32.85
0 -4 2 551.03 26.31
0 4 -2 530.34 31.55
0 -4 2 537.63 23.07
0 4 -2 525.33 31.48
0 4 -2 544.75 33.22
0 -4 2 558.56 24.97
0 -4 2 565.95 34.39
0 4 -2 537.6 25.25
0 -4 2 554.94 34.01
0 -4 2 534.05 23.99
0 4 -1 448.66 27.46
0 4 -1 423.62 17.92
0 4 -1 448.84 27.5
0 4 -1 419.9 22.21
0 -4 1 397.59 20.38
0 4 -1 422.4 26.92
0 -4 1 446.11 29.14
0 -4 1 376.47 18.92
0 -4 1 393.5 27.5
0 -4 0 3864.26 129.49
0 4 0 3670.84 121.13
0 4 0 3951.22 127.83
0 4 0 3377.73 117.36
0 4 0 3803.39 127.91
0 -4 0 3863.76 130.03
0 4 0 3753.21 127.53
0 4 0 3395.12 111.62
0 -4 0 3751.84 118.29
0 4 1 9.45 3.83
0 -4 -1 12.47 4.6
0 4 1 13.12 1.64
0 -4 -1 16.09 5.01
0 4 1 18.76 4.63
0 4 1 17.5 5.03
0 4 2 312.6 22.86
0 -4 -2 312.6 22.48
0 4 2 301.54 22.56
0 -4 -2 315.85 22.38
0 -4 -3 196.06 17.58
0 4 3 195.06 17.73
0 4 3 206.21 18.21
0 -4 -3 192.97 12.25
0 4 3 189.57 10.78
0 -4 -3 218.02 17.7
0 4 3 199 15.87
0 -4 -4 4792.19 158.19
0 -4 -4 4363.26 144.03
0 4 4 4477.78 150.19
0 4 4 4634.46 151.94
0 -4 -4 4579.14 153.12
0 4 4 4692.43 157.37
0 4 4 4697.93 157.48
0 -4 -5 64.88 5.21
0 4 5 64.9 10.49
0 4 5 56.55 8.69
0 -4 -5 59.17 10.25
0 -4 -5 77.72 9.7
0 4 5 63.24 10.25
0 4 6 285.36 23.65
0 4 6 300.43 24.11
0 -4 -6 350.3 26.38
0 4 6 296.5 22.28
0 -4 -6 320.91 20.65
0 -4 -7 625.39 38.38
0 4 7 590.06 34.67
0 -4 -7 562.29 29.21
0 -4 -8 153.21 18.17
0 -4 -8 161.47 12.76
0 4 8 140.83 16.12
0 4 9 224.19 22.27
0 4 9 189.54 21.09
0 -4 -9 250.72 24
0 4 9 225.41 21.52
0 -4 -9 249.06 23.94
0 4 10 1036.91 56.74
0 4 10 1056.47 57.07
0 -4 -10 1034.82 58.48
0 -4 -10 1164.48 60.86
0 4 10 1147.32 58.09
0 4 11 13.05 6.13
0 4 11 6.55 4.35
0 -4 -11 4.63 4.62
0 4 11 8.98 5.01
0 -4 -11 14.97 6.58
0 -4 -12 389.84 34.42
0 4 12 334.11 29.96
0 4 12 374.54 31.52
0 -4 -12 409.26 33.56
0 4 12 284 30.53
0 4 12 368.58 32.3
0 -4 -13 133.2 21.09
0 -4 -13 163.88 21.16
0 4 13 108.13 18.97
0 4 13 185.53 21.89
0 4 13 165.78 20.62
0 4 14 658.05 45.25
0 4 14 628.09 50.39
0 4 14 696.61 46.19
0 -4 -14 655.86 50.31
0 -4 -14 641.73 45.75
0 4 14 728.9 54.98
0 -4 -15 -3.44 4.85
0 4 15 2.52 4.35
0 4 15 2.51 4.32
0 4 15 7.34 6.33
0 4 15 -3.74 5.27
0 -4 -16 29.32 11.55
0 4 16 17.87 7.64
0 4 16 23.61 10.38
0 4 16 15.69 9.58
0 4 16 12.68 6.21
0 4 17 109.98 22.09
0 -4 -17 127.37 23.29
0 4 17 100.06 21.42
0 5 -13 262.85 34.19
0 -5 13 243.52 32.56
0 5 -13 249.46 32.42
0 -5 13 219.92 28.87
0 5 -12 3.85 5.43
0 5 -12 3.5 6.03
0 -5 12 6.67 4.7
0 -5 11 156.08 23.65
0 -5 11 200.91 28.34
0 5 -11 171.05 26.1
0 5 -11 155.15 23.77
0 -5 11 173.56 21.06
0 -5 10 100.33 18.88
0 5 -10 85.41 17.83
0 -5 10 60.75 15.21
0 -5 10 82.27 14.43
0 5 -10 77.34 16.18
0 -5 9 187.17 22.42
0 5 -9 187.97 25.87
0 5 -9 190.73 24.46
0 -5 9 231.44 27.58
0 -5 9 224.95 27.78
0 -5 8 141.43 19.24
0 5 -8 145.21 21.82
0 5 -8 193.56 23.53
0 -5 8 166.09 22.79
0 -5 8 195.89 24.85
0 5 -7 707.9 41.57
0 5 -7 671.42 40.86
0 -5 7 693.14 45.26
0 5 -7 657.22 47.54
0 5 -7 623.77 44.62
0 -5 7 666.16 47.91
0 5 -6 12.93 5.53
0 5 -6 20.4 7.63
0 5 -6 9.2 4.5
0 5 -6 6.94 5.16
0 -5 6 11.4 6.02
0 5 -5 189.76 19.66
0 5 -5 188.55 19.56
0 5 -5 204.49 22.03
0 5 -5 194.15 22.92
0 -5 5 196.64 23.09
0 -5 5 162.31 20.2
0 5 -4 -1.78 3.08
0 5 -4 -2.21 2.2
0 5 -4 -1.78 1.77
0 -5 4 -2.29 2.28
0 -5 4 0.54 1.07
0 5 -4 2 2.82
0 5 -3 1575.56 69.7
0 5 -3 1582.92 68.26
0 5 -3 1461.58 66.9
0 -5 3 1372.46 51.27
0 -5 3 1593.94 73.1
0 -5 3 1483.86 53.87
0 -5 3 1591.65 72.6
0 5 -2 7.12 4.34
0 5 -2 3.62 2.69
0 -5 2 1.69 1.6
0 5 -2 10.45 4.59
0 5 -2 6.94 3.86
0 -5 2 6.74 2.48
0 -5 2 2.03 3.5
0 -5 2 2.05 2.88
0 -5 2 3.78 1.78
0 -5 1 30.68 6.28
0 5 -1 30.78 7.47
0 -5 1 34.6 4.92
0 5 -1 22.52 6.74
0 5 -1 34.54 7.93
0 -5 1 34.87 8.67
0 -5 1 30.92 5.26
0 -5 1 29.86 4.51
0 -5 1 19.55 6.8
0 5 0 88.27 12.93
0 5 0 62.19 5.27
0 -5 0 92.04 13.49
0 5 0 72.94 11.77
0 -5 0 56.32 6.59
0 -5 0 62.09 7.95
0 -5 0 84.85 13.15
0 -5 0 75.48 10.4
0 5 1 2624.35 97.32
0 -5 -1 2716.05 98.63
0 -5 -1 2381.15 91.29
0 -5 -1 2626.6 98.85
0 5 1 2626.83 97.13
0 -5 -2 316.91 24.38
0 5 2 289.84 24.63
0 -5 -2 291.51 24.49
0 5 2 300.31 24.93
0 -5 -3 1908.88 79.23
0 5 3 1828.7 64.39
0 5 3 1946.2 81
0 5 3 1833 74.01
0 5 3 1978.32 81.57
0 5 4 1121.41 50.71
0 5 4 1092.24 55.54
0 -5 -4 1012.98 53.66
0 -5 -4 1182.11 54.09
0 5 4 1055.24 37.51
0 5 4 1107.07 56
0 -5 -5 60.86 10.04
0 5 5 71.26 12.1
0 -5 -5 52.43 10.56
0 5 5 73.08 12.39
0 -5 -5 50.48 9.05
0 5 5 57.66 9.57
0 5 6 361.43 29.49
0 5 6 401.09 30.85
0 -5 -6 381.78 27.54
0 -5 -6 386.54 30.66
0 -5 -6 374.24 25.99
0 5 6 370.18 26.73
0 5 7 1052.57 56.42
0 -5 -7 1037.64 53.23
0 -5 -7 1098.07 58.42
0 -5 -7 1055.49 48.97
0 5 7 970.36 55.07
0 5 7 1021.28 51.61
0 -5 -8 32.17 8.34
0 -5 -8 48.87 10.94
0 -5 -8 42.82 7.62
0 5 8 46.95 9.76
0 5 9 126.38 17.69
0 -5 -9 112.72 17.18
0 5 9 78.25 14.27
0 5 9 127.08 16.34
0 -5 -9 88.56 14.61
0 5 10 9.64 5.38
0 5 10 10.84 4.29
0 5 10 21.74 7.62
0 5 10 21.26 7.35
0 -5 -10 18.01 7.26
0 5 11 1630.18 81.44
0 5 11 1653.19 81.8
0 5 11 1713.75 67.68
0 5 11 1740.16 80.7
0 -5 -11 1604.26 83.24
0 5 12 91.65 16.29
0 -5 -12 70.13 14.48
0 5 12 91.98 16.35
0 5 12 75.77 15.28
0 5 13 64.53 14.54
0 5 13 67.58 14.18
0 -5 -13 68.27 15.32
0 5 13 97.7 17.04
0 5 13 106.47 17.77
0 -5 -13 84.44 16.31
0 -5 -14 193.29 26.41
0 5 14 179.96 23.29
0 5 14 153.03 21.53
0 -5 -14 168.3 23.54
0 5 14 180.79 25.46
0 5 15 157.89 22.04
0 -5 -15 167.22 25.47
0 5 15 152.98 22.15
0 5 15 130.35 22.69
0 5 15 182.61 27.77
0 5 16 33.94 10.58
0 5 16 31.29 9.86
0 5 16 19.33 9.48
0 -5 -16 37.7 12.49
0 5 16 54 15.51
0 -6 12 40.52 13.28
0 -6 11 59.21 15.81
0 -6 11 40.13 12.7
0 6 -11 70.83 16.63
0 -6 11 70.12 14.81
0 -6 10 791.7 59.7
0 -6 10 748.15 51.19
0 -6 10 639.03 53.15
0 6 -10 791.89 57.54
0 6 -10 670.85 56.14
0 -6 9 93.5 18.76
0 -6 9 103.9 20.36
0 6 -9 110.14 20.8
0 6 -9 89.81 17.7
0 -6 9 73.75 15.18
0 -6 8 80.07 17.12
0 -6 8 74.57 16.72
0 6 -8 100.59 19.34
0 6 -8 90.66 17.21
0 -6 8 82.28 16.18
0 -6 7 38.31 11.52
0 6 -7 39.85 11.4
0 -6 7 36.61 10.92
0 6 -7 47.46 13.05
0 6 -6 243.89 26.83
0 6 -6 226.59 23.59
0 6 -6 236.27 24.18
0 6 -6 200.06 25.73
0 -6 6 202.48 25.11
0 -6 6 239.23 27.75
0 6 -5 35.16 9.56
0 6 -5 19.71 6.93
0 -6 5 14.59 7.72
0 -6 5 27.17 9
0 6 -5 19.32 6.7
0 6 -5 25.29 8.38
0 6 -4 524.88 34.69
0 6 -4 462.38 37.24
0 -6 4 575.44 43.72
0 6 -4 593.89 39.53
0 6 -4 561.42 38.58
0 -6 3 589.5 42.95
0 6 -3 599.9 35.02
0 6 -3 564.06 39.73
0 -6 3 608.81 43.82
0 6 -3 540.44 38.6
0 6 -3 538.77 38.45
0 -6 2 755.76 49.11
0 6 -2 819.06 47.68
0 6 -2 717.55 38.12
0 6 -2 820.72 47.3
0 6 -2 714.21 44.7
0 -6 2 660.52 28.94
0 -6 2 764.22 48.9
0 6 -1 69.94 9.53
0 -6 1 52.93 6.11
0 6 -1 56.12 11.49
0 6 -1 51.62 11.05
0 -6 1 48.27 11.14
0 -6 1 62.09 9.89
0 -6 1 58.46 12.24
0 6 0 701.6 43.54
0 -6 0 718.92 29.05
0 -6 0 825.83 47.74
0 6 0 662.61 42.62
0 -6 0 719.57 45.62
0 -6 0 689.02 38.35
0 6 0 605.59 21.41
0 6 0 610.62 21.38
0 6 1 26.09 7.81
0 -6 -1 11.07 5.41
0 -6 -1 10.43 3.84
0 -6 -1 13.7 6.02
0 -6 -1 17.51 6.05
0 6 1 26.1 8.11
0 6 1 8.66 1.7
0 6 2 92.35 14.7
0 6 2 76.89 13.5
0 -6 -2 83.32 13.12
0 6 2 87.08 12.23
0 -6 -2 94.79 14.9
0 6 2 68.89 6.06
0 6 3 35.75 9.5
0 -6 -3 42.68 9.76
0 6 3 33.55 7.7
0 -6 -3 29.77 8.27
0 6 3 40.26 10.02
0 6 4 1958.9 89.19
0 -6 -4 2094.02 87.49
0 6 4 1914.8 65.93
0 6 4 2044.19 82.19
0 6 4 2109.54 91.02
0 -6 -4 1995.55 78.89
0 6 5 68.11 13.2
0 -6 -5 76.6 12.86
0 6 5 75.47 11.89
0 -6 -5 71.6 11.08
0 6 5 84.42 14.56
0 -6 -6 129.26 16.11
0 6 6 135.63 18.83
0 -6 -6 128.79 18.42
0 6 6 153.24 17.32
0 -6 -6 152.02 17.62
0 6 6 149.51 19.8
0 -6 -7 43.13 9.42
0 6 7 27.51 8.69
0 6 7 35.31 8.54
0 -6 -7 42.81 9.29
0 -6 -7 25.65 8.91
0 6 7 39.88 10.58
0 -6 -8 810.56 52.51
0 -6 -8 811.06 43.75
0 -6 -8 719.56 46.2
0 6 8 804.3 46.33
0 6 9 168.04 19.98
0 -6 -9 178.12 23.3
0 -6 -9 193.64 22.55
0 -6 -10 175.05 22.7
0 6 10 206.91 24.99
0 -6 -10 215.73 26.34
0 6 10 179.76 21.35
0 6 10 224.12 26.1
0 6 10 226.08 20.97
0 6 11 383.96 27.6
0 -6 -11 404.71 35.76
0 6 11 375.62 35.4
0 -6 -11 406.2 37.35
0 6 11 365.3 32.04
0 6 11 370.41 33.11
0 6 11 408.75 36.66
0 -6 -12 84.31 16.87
0 6 12 74.66 15.65
0 -6 -12 108.63 19.25
0 6 12 103.05 17
0 6 12 68.9 15.11
0 6 12 74.42 14.98
0 6 13 76.48 15.97
0 6 13 57.26 14.23
0 6 13 116.63 19.68
0 -6 -13 61.36 15.23
0 -6 -13 66.03 15.56
0 6 14 1112.18 67.1
0 6 14 1005.12 64.71
0 6 14 984.84 65.38
0 -6 -14 1037.12 67.85
0 -6 -14 1123.46 69.88
0 6 15 -3.15 6.27
0 6 15 -3.52 4.96
0 6 16 6.29 5.44
0 6 16 22.41 9.85
0 -7 10 53.91 14.18
0 7 -10 33.66 11.05
0 7 -9 148.91 23.61
0 7 -9 106.28 18.38
0 -7 9 104.31 19.47
0 -7 9 114.43 22.12
0 -7 9 89.1 19.93
0 7 -8 42.76 11.67
0 7 -8 56.54 14.11
0 -7 8 37.84 13.12
0 -7 8 45.32 14.13
0 -7 8 39.6 12.37
0 7 -7 586.89 43.05
0 -7 7 706.49 54.94
0 -7 7 706 52.85
0 7 -7 656.56 50.2
0 -7 6 13.68 8.37
0 -7 6 24.83 10.62
0 7 -6 15.82 6.78
0 7 -6 30.53 10.55
0 -7 5 87.14 17.45
0 7 -5 82.41 15.34
0 7 -5 89.84 15.91
0 -7 5 105.87 19.66
0 -7 5 61.3 15.23
0 7 -5 65.6 12.11
0 7 -5 64.27 14.43
0 -7 4 -3.29 3.27
0 7 -4 2.58 3.63
0 7 -4 -1.85 3.19
0 7 -4 2.8 3.95
0 7 -4 7.76 5.15
0 7 -3 487.27 39.77
0 7 -3 522.96 33.58
0 7 -3 549.71 41.29
0 7 -3 569.52 41.72
0 -7 3 521.69 43.71
0 -7 3 582.75 45.86
0 7 -2 2.59 3.65
0 -7 2 12.1 7.38
0 -7 2 12.16 6.77
0 7 -2 2.59 2.58
0 7 -2 4.4 3.27
0 -7 1 63.99 14.33
0 7 -1 93.44 16.06
0 -7 1 73.62 15.37
0 7 -1 54.53 12.56
0 -7 0 191.59 20.15
0 -7 0 189 24.28
0 7 0 177.39 22.67
0 7 0 166.88 21.91
0 7 1 1161.01 64.59
0 -7 -1 1089.37 46.22
0 -7 -1 1039.58 57
0 -7 -1 1156.48 65.65
0 7 1 1172.27 64.94
0 7 2 244.68 26.57
0 7 2 199.31 24.06
0 -7 -2 220.25 17.5
0 -7 -2 187.37 21.76
0 -7 -2 175.14 23.16
0 7 2 277.08 24.21
0 7 3 667.86 46.66
0 -7 -3 632.19 34.47
0 7 3 587.14 44.13
0 -7 -3 612.94 42.76
0 -7 -3 620.56 45.03
0 7 3 604.34 38.63
0 -7 -4 30.31 7.3
0 7 4 46.67 11.64
0 -7 -4 17.53 7.54
0 7 4 43.85 11.3
0 -7 -4 35.28 9.77
0 7 4 37.45 4.89
0 7 4 30.13 8.02
0 -7 -5 122.39 15.17
0 7 5 112.15 18.43
0 7 5 117.53 18.82
0 -7 -5 131.01 18.42
0 7 5 115.02 15.67
0 -7 -5 121.93 18.62
0 -7 -6 132.82 18.28
0 -7 -6 134.44 16.72
0 7 6 150.48 18.1
0 -7 -7 463.61 34.14
0 -7 -7 398.96 37.41
0 -7 -7 437.84 34.06
0 7 7 486.68 40.57
0 7 7 453.06 39.51
0 -7 -8 549.25 44.34
0 7 8 523.28 43.38
0 -7 -8 534.19 38.97
0 7 8 598.17 45.87
0 -7 -9 185.96 25.1
0 7 9 123.19 16.24
0 -7 -9 154.24 20.57
0 7 10 22.41 9.58
0 -7 -10 10.01 6.66
0 7 10 28.86 10.6
0 -7 -10 24.28 8.51
0 7 10 10.7 5.66
0 7 11 828.43 47.21
0 7 11 864.93 59.49
0 7 11 830.3 58.31
0 7 11 665.49 48.54
0 -7 -11 889.36 61.63
0 -7 -11 897.97 57.07
0 -7 -12 187.1 25.49
0 7 12 163.15 21.66
0 7 12 137.63 22.68
0 -7 -12 160.92 24.88
0 7 12 171.75 25.55
0 -7 -13 16.6 8.11
0 7 13 11.49 7.03
0 7 13 17.09 8.35
0 -7 -13 25.75 11
0 7 13 30.85 11.33
0 -7 -14 3.52 6.07
0 -7 -14 3.75 6.47
0 7 14 3.44 5.94
0 7 14 6.92 5.97
0 7 14 6.23 6.2
0 7 15 422.03 40.71
0 7 15 352 36.63
0 7 15 393.1 39.13
0 -8 7 3.93 6.78
0 -8 7 7.44 8.29
0 8 -6 746.28 55.35
0 -8 6 778.81 59.38
0 -8 6 719.63 58.82
0 -8 6 705.02 56.42
0 -8 5 3.89 3.88
0 -8 5 3.71 3.7
0 -8 5 -3.61 7.2
0 -8 4 206.07 27.94
0 -8 4 252.69 31.89
0 8 -3 190.87 24.88
0 8 -3 179.02 24.17
0 -8 3 211.77 28.89
0 -8 3 151.62 24.69
0 8 -2 33.09 10.39
0 -8 2 21.25 9.35
0 8 -2 9.03 6.72
0 8 -1 333.66 33.99
0 -8 1 401.87 39.59
0 8 -1 376.36 35.84
0 8 0 572.4 45.31
0 -8 0 561.55 47.12
0 8 0 548.24 44.4
0 8 1 -3.09 3.08
0 8 1 -3.09 4.35
0 -8 -1 3.29 3.28
0 8 2 243.26 28.46
0 -8 -2 172.62 22.08
0 -8 -2 166.47 23.81
0 8 2 165.54 23.67
0 -8 -3 13.38 7.06
0 8 3 6.33 5.46
0 -8 -3 21.74 9.28
0 8 3 6.34 5.47
0 8 4 868.65 59.04
0 -8 -4 832.65 44.04
0 8 4 844.39 58.33
0 -8 -4 925.6 59
0 -8 -4 861.52 56.33
0 8 5 3.28 5.65
0 -8 -5 1.74 2.99
0 -8 -5 -2.9 2.89
0 8 5 -3.26 3.25
0 -8 -5 -2.99 4.21
0 8 6 16.67 8.79
0 -8 -6 15.51 6.12
0 -8 -6 25.11 8.8
0 8 6 3.32 4.69
0 -8 -6 22.01 8.87
0 8 7 57.74 14.52
0 -8 -7 83.55 14
0 -8 -7 59.24 14.82
0 -8 -7 77.23 14.93
0 8 8 446.55 42.38
0 8 8 387.95 39.5
0 -8 -8 443.91 34.97
0 8 9 53.1 14.72
0 -8 -9 92.87 19.62
0 -8 -9 104.68 16.84
0 -8 -10 388.32 40.43
0 -8 -10 388.67 35.06
0 8 11 55.23 15.2
0 8 11 40.41 12.77
0 -8 -11 68.76 16.65
0 -8 -11 53.19 13.25
0 8 12 189.83 28.04
0 -8 -12 195.24 25.87
0 -8 -12 191.97 28.93
0 8 12 174.45 26.96
0 8 13 63.67 16.39
0 -8 -13 86.65 17.37
0 8 13 63.85 16.44
0 -9 3 475.07 44.47
0 9 -2 3.37 4.74
0 -9 2 4.01 4
0 9 -2 6.73 6.71
0 9 -1 3.42 4.82
0 -9 1 15.78 8.79
0 9 -1 13.68 8.35
0 9 0 48.56 13.91
0 -9 0 57.95 15.47
0 9 0 58.88 15.51
0 -9 -1 438.25 43.6
0 9 1 482 44.21
0 9 1 435.4 41.85
0 9 2 56.95 15.16
0 -9 -2 66.41 16.54
0 9 2 74.87 17.14
0 9 3 57.68 15.77
0 -9 -3 78.84 17.95
0 9 3 65.02 16.21
0 9 4 69.29 16.77
0 9 4 54.95 15.19
0 -9 -4 100.74 19.37
0 9 5 338.09 37.22
0 -9 -5 328.43 34.61
0 -9 -5 321.76 34.79
0 9 5 277.26 33.8
0 9 6 71.22 17.27
0 -9 -6 96.52 18.56
0 9 6 82.76 18.13
0 -9 -6 79.26 17.33
0 -9 -7 896.58 63.05
0 9 7 856.97 63.35
0 9 7 827.57 62.5
0 9 8 65.76 16.88
0 9 8 58.03 15.5
0 -9 -8 48.64 15
0 9 9 3.92 6.77
0 -9 -9 -3.87 5.45
0 9 9 -3.92 5.52
0 -9 -11 190.86 24.57
1 -9 -8 272.7 34.29
1 -9 -7 348.11 38.2
-1 9 7 313.4 36.73
-1 9 7 290.88 35.79
1 -9 -6 341.07 37.48
-1 9 6 381.3 40.95
-1 9 6 383.16 40.76
-1 9 5 127.64 22.99
1 -9 -5 122.09 21.32
1 -9 -5 99.62 19.59
-1 9 5 81.47 18.78
-1 9 4 3.84 3.82
1 -9 -4 -3.56 5.02
-1 9 4 3.85 6.64
1 -9 -4 3.22 5.55
-1 9 3 339.72 38.25
1 -9 -3 439.28 38.6
1 -9 -3 397.62 40.82
-1 9 3 407.8 41.8
1 -9 -2 5.64 6.28
1 -9 -2 3.79 5.35
-1 9 2 7.57 6.53
-1 9 1 3.75 5.29
1 -9 -1 -3.89 5.48
-1 9 1 3.76 3.74
-1 9 0 -3.73 3.72
-1 9 0 3.73 6.43
1 -9 0 11.94 7.93
1 -9 1 563.98 51.45
-1 9 -1 532.06 48.01
-1 9 -1 521.56 47.49
-1 9 -2 7.32 7.29
-1 9 -2 7.31 6.31
1 -8 -12 472.73 42.32
-1 8 12 363.57 40
-1 8 12 440.29 43.17
-1 8 11 177.6 26.83
1 -8 -11 181.03 27.93
-1 8 11 166.26 26.28
1 -8 -11 189.78 25.54
-1 8 10 512.28 47.14
1 -8 -10 611.34 46.4
-1 8 10 516.2 46.88
1 -8 -10 551.96 49.57
-1 8 9 18.09 9.58
1 -8 -9 33.69 10.51
-1 8 9 39.81 13.03
1 -8 -8 36.7 10.5
-1 8 7 3.52 4.96
1 -8 -7 2.43 4.2
1 -8 -7 3.45 4.86
-1 8 7 3.54 4.98
-1 8 6 724.89 54.96
-1 8 6 643.17 52.39
1 -8 -6 719.17 45.86
1 -8 -6 745.73 51.24
1 -8 -6 710.62 53.45
-1 8 5 -3.45 4.87
1 -8 -5 2.06 2.91
-1 8 5 6.9 5.95
1 -8 -5 6.04 5.21
1 -8 -5 6.3 5.44
-1 8 4 10.24 7.6
1 -8 -4 1.89 2.66
-1 8 4 3.41 3.4
1 -8 -4 3.14 3.12
1 -8 -4 2.99 5.16
-1 8 3 37.26 12.2
1 -8 -3 37.68 8.41
-1 8 3 23.71 9.59
1 -8 -3 33.82 10.55
1 -8 -3 35.72 11.25
1 -8 -2 489.31 44.03
1 -8 -2 480.13 38.97
-1 8 2 491.91 43.6
-1 8 2 477.97 43.04
1 -8 -1 282.88 32.92
1 -8 -1 259.11 27.17
-1 8 1 311.73 33.91
-1 8 1 294.76 32.88
-1 8 0 381 37.88
1 -8 0 344.18 30.14
1 -8 0 336.4 36.74
1 -8 1 129.32 22.03
-1 8 -1 126.75 21.31
1 -8 1 134.15 23.4
-1 8 -1 106.76 19.71
1 -8 2 97.97 19.67
-1 8 -2 93 18.34
1 -8 2 85.13 18.65
-1 8 -2 119.61 20.6
1 -8 3 135.62 23.72
1 -8 3 162.05 25.72
-1 8 -3 109.5 19.89
-1 8 -3 112.58 20.39
1 -8 4 644.62 54.26
-1 8 -4 590.27 48.28
-1 8 -4 621.78 49.51
1 -8 5 28.21 11.38
1 -8 5 26.99 10.89
1 -8 6 20.71 10.13
1 -8 6 19.34 9.46
1 -8 6 39.14 12.95
-1 7 14 13.51 8.25
-1 7 14 10.09 7.5
-1 7 13 701.59 54.11
1 -7 -13 729.64 58.12
-1 7 13 802.11 57.32
1 -7 -13 697.36 55
-1 7 12 3.36 4.74
1 -7 -12 11.17 9.08
-1 7 12 6.71 5.79
1 -7 -12 3.31 4.66
-1 7 11 83.06 17.3
1 -7 -11 50.75 14.57
-1 7 11 66.32 15.61
1 -7 -11 68.69 15.36
-1 7 10 16.29 8.61
1 -7 -10 31.63 11.63
-1 7 10 29.31 10.27
-1 7 10 16.67 7.85
1 -7 -10 20.5 8.77
1 -7 -9 416.4 36.85
1 -7 -9 502.41 43.64
-1 7 9 459.82 41.28
-1 7 9 414.67 39.11
-1 7 9 437.16 36.95
1 -7 -8 55.56 13.89
1 -7 -8 43.25 11.14
-1 7 8 56.71 12.92
-1 7 7 172.51 24.23
1 -7 -7 213.89 23.26
-1 7 7 153.37 22.94
1 -7 -7 217.41 23.85
-1 7 7 204.93 23.89
-1 7 6 127.06 20.47
1 -7 -6 120.02 17.89
-1 7 6 126.83 20.43
1 -7 -6 124.67 17.18
-1 7 6 79.83 14.62
-1 7 5 304.17 28.27
-1 7 5 288.24 30.83
1 -7 -5 275.44 29.42
-1 7 5 243.91 28.8
1 -7 -5 276.66 28.08
-1 7 4 176.54 21.41
1 -7 -4 169.65 22.59
-1 7 4 226.33 27.01
1 -7 -4 210.75 24.93
-1 7 3 357.84 31.09
-1 7 3 314.48 32.56
-1 7 3 390.49 35.91
1 -7 -3 350.79 32.04
1 -7 -3 392.86 35.12
-1 7 2 81.11 16.03
1 -7 -2 78.79 14.32
-1 7 2 115.92 19.11
1 -7 -2 105.95 18.01
-1 7 2 90.67 15.24
-1 7 1 180.33 21.66
-1 7 1 144.36 21.27
-1 7 1 150.17 21.85
1 -7 -1 159.61 22.53
1 -7 -1 179.4 23.16
1 -7 -1 159.68 19.95
-1 7 0 40.55 11.63
1 -7 0 46.18 12.28
1 -7 0 42.62 12.21
-1 7 0 54.88 12.94
1 -7 0 56.87 11.17
-1 7 -1 1910.53 92.41
-1 7 -1 1815.21 90.79
1 -7 1 1890.33 94.91
1 -7 1 1884.47 93.39
1 -7 1 1766.63 78.68
-1 7 -2 14.59 7.14
1 -7 2 32.11 10.62
1 -7 2 18.9 8.32
1 -7 2 19.3 6.02
-1 7 -2 20.36 8.21
1 -7 3 16.43 8.03
-1 7 -3 20.44 8.24
-1 7 -3 8.79 5.86
-1 7 -4 132.46 20.48
1 -7 4 158.19 24.29
-1 7 -4 107.2 19.5
-1 7 -4 149.68 21.64
-1 7 -5 373.46 35.55
-1 7 -5 398.38 36.62
1 -7 5 361.29 37.29
-1 7 -5 376.48 37.4
1 -7 5 387.14 39.37
1 -7 6 41.05 12.95
-1 7 -6 62.05 14.18
-1 7 -6 41.24 11.81
1 -7 6 48.28 13.81
-1 7 -6 44.1 12.71
-1 7 -7 140.75 23.21
1 -7 7 201.42 28.45
1 -7 7 142.32 23.93
1 -7 7 189.42 27.91
1 -7 8 69.27 16.68
-1 7 -8 61.94 15.96
1 -7 8 97.2 20.23
-1 7 -9 67.75 17.71
1 -7 9 73.53 18.32
1 -7 9 76.45 18.05
1 -7 9 71.77 16.46
-1 6 15 21.53 11.35
-1 6 15 12.06 7.95
-1 6 15 5.99 5.18
1 -6 -15 14.26 7.95
-1 6 15 6.74 6.72
-1 6 14 90.65 20.3
-1 6 14 105.93 18.55
1 -6 -14 88.13 18.46
-1 6 14 91.15 17.35
-1 6 14 97.73 18.52
-1 6 14 104.33 19.69
1 -6 -13 207.33 27.55
-1 6 13 174.71 23.97
1 -6 -13 190.02 26.91
-1 6 13 217.56 26.55
-1 6 13 139.6 21.49
-1 6 13 142.26 22.14
1 -6 -12 73.57 16.7
-1 6 12 91.94 17.36
1 -6 -12 77.53 16.93
-1 6 12 65.45 14.97
-1 6 12 63.62 13.64
-1 6 12 82.06 16.39
1 -6 -11 137.99 21.29
-1 6 11 165.87 22.8
1 -6 -11 130.65 21.46
-1 6 11 148.72 21.71
-1 6 11 116.97 17.44
-1 6 11 136.22 20.55
1 -6 -10 685.45 49.04
-1 6 10 756.36 51.66
1 -6 -10 686.27 51.59
-1 6 10 669.8 43.51
-1 6 10 773.61 51.91
-1 6 10 764.34 50.08
1 -6 -9 12.96 7.31
-1 6 9 22.03 8.68
1 -6 -9 12.06 6.73
-1 6 9 11 6.14
-1 6 9 25.98 7.4
-1 6 9 7.52 5.01
-1 6 8 255.04 27.71
1 -6 -8 273.86 27.22
-1 6 8 242.32 25.67
-1 6 8 282.82 22.87
-1 6 7 6.63 3.25
1 -6 -7 15.54 6.26
1 -6 -7 10.97 6.11
1 -6 -7 15.14 5.66
-1 6 7 15.9 6.79
-1 6 6 710.94 45.41
-1 6 6 800.31 50.75
-1 6 6 704.74 48.28
-1 6 6 709.96 35.14
1 -6 -6 783.22 50.7
1 -6 -6 787.85 45.6
-1 6 5 22.53 8.32
1 -6 -5 37.94 9.2
-1 6 5 55.07 12.25
-1 6 5 27.13 8.11
-1 6 4 18.28 6.72
-1 6 4 22.18 7.77
-1 6 4 13.6 2.58
-1 6 4 9.87 5.51
1 -6 -4 9.33 5.71
1 -6 -4 22.02 7.61
-1 6 3 4.88 4.21
1 -6 -3 4.4 3.8
-1 6 3 12.2 6.43
1 -6 -3 16.04 6.46
-1 6 3 16.06 6.33
1 -6 -2 1615.23 76.38
-1 6 2 1629.97 80.36
1 -6 -2 1743.27 78.71
-1 6 2 1742.63 81.87
-1 6 2 1727.6 76.89
1 -6 -2 1574.18 78.7
-1 6 1 2.43 3.42
1 -6 -1 2.29 3.95
-1 6 1 2.15 0.92
1 -6 -1 1.92 1.92
1 -6 -1 2.46 2.45
-1 6 1 2.42 2.41
-1 6 0 710.92 47.1
1 -6 0 707.26 41.71
1 -6 0 737.45 48.58
-1 6 0 761.82 48.26
1 -6 0 800.37 49.02
-1 6 0 708.35 28.89
-1 6 -1 259.29 26.75
1 -6 1 260.58 22.21
1 -6 1 230.97 26.18
-1 6 -1 249.22 15.99
1 -6 1 289.98 28.41
-1 6 -1 280.37 27.64
1 -6 2 311.27 30.44
-1 6 -2 285.75 19.4
-1 6 -2 257.26 27.28
1 -6 2 312.7 22.8
1 -6 2 260.68 27.77
-1 6 -2 283.91 28.19
-1 6 -2 268.09 27.22
1 -6 3 280.89 29.49
-1 6 -3 276.9 20.7
1 -6 3 306.11 21.16
-1 6 -3 303.58 30.24
1 -6 3 274.45 29.55
-1 6 -3 282.18 28.21
-1 6 -3 305.85 29.06
-1 6 -4 316.34 23.58
-1 6 -4 303.31 29.67
1 -6 4 315.55 32.77
-1 6 -4 340.73 32.13
-1 6 -4 274.61 28.27
1 -6 5 65.13 15.03
1 -6 5 102.25 17.88
-1 6 -5 76.87 14.66
-1 6 -5 87.39 12.78
-1 6 -5 102.7 17.93
-1 6 -5 102.22 16.69
1 -6 6 81.47 17.06
1 -6 6 89.16 17.2
-1 6 -6 64.95 13.69
-1 6 -6 93.24 16.31
1 -6 7 40.98 12.29
-1 6 -7 33.99 9.78
-1 6 -7 28.85 9.46
1 -6 7 21.08 8.53
-1 6 -7 31.5 10.9
1 -6 8 779.98 57.62
1 -6 8 821.12 55.14
-1 6 -8 769.84 55.6
-1 6 -8 649.46 52
1 -6 9 3.67 3.66
1 -6 9 6.05 6.03
1 -6 9 14.82 8.25
-1 6 -9 10.58 7.03
-1 6 -9 13.94 7.77
1 -6 10 -3.82 5.39
1 -6 10 2.98 4.2
1 -6 10 3.82 6.59
-1 6 -10 3.7 5.22
-1 6 -10 7.3 6.3
1 -6 11 75.38 18.16
-1 6 -11 57.96 15.93
1 -6 11 23.47 11.11
1 -6 11 52.04 12.95
-1 6 -11 64.63 16.99
-1 5 16 162.79 27.55
-1 5 16 196.41 28.45
1 -5 -16 215.11 29.91
1 -5 -15 91.53 19.2
-1 5 15 111.64 18.79
-1 5 15 144.48 25.2
-1 5 15 96.27 16.71
1 -5 -15 128.1 21.39
-1 5 15 92.49 19.01
-1 5 14 13.23 7.37
1 -5 -14 6.94 6.91
-1 5 14 7.98 5.31
-1 5 14 12.93 7.21
-1 5 14 5.35 5.96
-1 5 14 11.79 8.75
1 -5 -14 9.46 6.29
1 -5 -13 827.71 58.66
-1 5 13 882.48 55.37
1 -5 -13 978.28 60.99
-1 5 13 931.38 59.53
-1 5 13 914.67 56.14
-1 5 13 732.99 54.42
1 -5 -12 9.13 7.42
-1 5 12 18.05 7.71
1 -5 -12 5.99 5.16
-1 5 12 -2.59 3.65
-1 5 12 16.98 7.46
-1 5 12 11.07 6.16
-1 5 11 2.51 2.5
1 -5 -11 2.88 4.06
-1 5 11 2.51 4.34
-1 5 11 2.65 4.56
-1 5 11 -2.49 3.5
-1 5 10 53.07 11.57
-1 5 10 67.85 13.55
1 -5 -10 52.32 12.69
-1 5 10 60.69 12.45
-1 5 10 69.38 13.4
-1 5 10 57.37 8.49
1 -5 -9 1051.88 60.23
-1 5 9 955.44 55.38
-1 5 9 1045.4 57.31
-1 5 9 902.21 51.1
-1 5 9 894.02 54.27
-1 5 8 181.95 21.81
-1 5 8 274.78 26.26
1 -5 -8 251.85 25.03
1 -5 -8 296.45 28.22
-1 5 8 247.15 24.4
-1 5 8 192.49 19.54
1 -5 -7 769.88 46.96
-1 5 7 690.2 42.23
1 -5 -7 633.06 36.27
-1 5 7 564.69 34.46
1 -5 -6 491.24 36.2
1 -5 -6 473.01 30.9
-1 5 6 446.71 27.17
-1 5 6 484.87 33.86
-1 5 5 848.72 46.26
1 -5 -5 792.53 47.75
-1 5 5 821.96 48.18
-1 5 5 855.94 48.83
1 -5 -5 788.85 43.67
-1 5 4 139.05 17.5
-1 5 4 134.15 16.04
-1 5 4 137.86 10.79
-1 5 4 143.23 17.63
1 -5 -4 137.05 16.26
-1 5 3 1046.28 54.95
-1 5 3 999.25 36.55
-1 5 3 1151.53 56.74
1 -5 -3 1017.57 53.43
-1 5 3 1053.79 52.22
-1 5 2 327.77 25.27
1 -5 -2 283.13 24.1
-1 5 2 256.43 24.21
-1 5 2 307.5 26.34
1 -5 -2 357.55 27.6
-1 5 2 268.06 12.82
1 -5 -2 289.65 24.19
-1 5 1 67.2 11.92
1 -5 -1 65.59 11.99
-1 5 1 52.26 5.42
1 -5 -1 47.46 9.59
-1 5 1 47.29 10.14
1 -5 -1 80.72 11.82
-1 5 0 1.98 2.78
-1 5 0 -1.98 2.79
1 -5 0 4.46 2.96
1 -5 0 -2.06 2.91
-1 5 0 1.95 1.59
1 -5 1 1898.12 84.02
-1 5 -1 1794.59 65.55
-1 5 -1 1873.53 81.79
-1 5 -1 1884.14 82.3
1 -5 1 1754.39 72.88
1 -5 1 2031.33 84.46
-1 5 -1 1805.58 80.84
-1 5 -2 83.56 13.84
1 -5 2 84.75 9.48
-1 5 -2 79.17 13.31
-1 5 -2 93.08 14.01
1 -5 2 65.47 12.51
1 -5 2 71.04 9.72
1 -5 2 86.32 14.13
-1 5 -3 415.01 32.06
1 -5 3 415.9 23.66
-1 5 -3 396.1 31.58
-1 5 -3 481.94 35.17
1 -5 3 452.62 34.92
1 -5 3 443.44 34.71
-1 5 -4 2.11 2.98
1 -5 4 4.94 4.92
-1 5 -4 -2.29 3.23
-1 5 -4 -2.12 2.12
-1 5 -5 936.35 53.21
-1 5 -5 935.74 53.41
1 -5 5 875.82 54.19
1 -5 5 1042.66 59.73
-1 5 -5 1005.28 57.32
1 -5 6 58.5 13.5
-1 5 -6 98.01 15.22
-1 5 -6 69.53 13.03
1 -5 6 74.67 14.21
-1 5 -6 101.26 16.71
1 -5 7 41.29 11.78
-1 5 -7 50.55 11.01
1 -5 7 38.02 10.13
-1 5 -7 11.09 6.82
-1 5 -7 27.38 8.54
-1 5 -8 131.4 18.33
1 -5 8 146.22 20.27
1 -5 8 162.01 23
-1 5 -8 167.79 20.57
-1 5 -8 147.94 22.09
-1 5 -9 218.78 27.94
1 -5 9 249.71 26.64
1 -5 9 230.59 28.4
-1 5 -9 211.24 26.88
-1 5 -10 37.28 13.11
1 -5 10 41.04 12.32
1 -5 10 17.15 9.09
-1 5 -10 33.56 11.62
1 -5 10 53.65 11.98
1 -5 11 753.86 48.67
-1 5 -11 808.91 58.2
-1 5 -11 597.15 51.58
1 -5 11 731.16 55.81
-1 5 -12 94.91 19.89
1 -5 12 105.8 20.79
-1 5 -12 108.28 20.94
1 -5 12 120.38 22.07
1 -5 13 103.78 20.44
-1 4 16 324.74 38.71
-1 4 16 339.71 38.52
1 -4 -16 405.8 40.59
-1 4 15 32.38 8.96
-1 4 15 39.25 12.99
-1 4 15 34.87 9.3
-1 4 15 21.98 9.69
1 -4 -15 24.67 9.97
1 -4 -14 43.14 12.43
-1 4 14 73.6 13.8
-1 4 14 26.03 10.55
-1 4 14 43.95 10.88
1 -4 -14 46.94 12.06
-1 4 14 44.11 12.71
-1 4 13 12.44 6.93
1 -4 -13 6.19 6.18
-1 4 13 11.3 5.97
-1 4 13 31.34 10.97
-1 4 13 11.35 5.55
-1 4 13 17.86 8.39
1 -4 -13 10.78 6.58
-1 4 12 542.74 37.95
1 -4 -12 472.49 38.62
-1 4 12 494.35 39.98
-1 4 12 489.34 36.44
-1 4 12 454.53 39.17
1 -4 -12 563.06 43.22
-1 4 11 178.88 20.29
1 -4 -11 152.32 20.29
-1 4 11 141.45 19.57
-1 4 11 121.77 17.09
-1 4 11 113.78 18.08
1 -4 -11 127.49 19.31
1 -4 -10 881.53 53.04
-1 4 10 817.81 48.27
1 -4 -10 892.19 53.15
-1 4 10 846.93 51.15
-1 4 10 834.76 50.52
-1 4 10 928.16 50.66
-1 4 10 816.4 34.72
1 -4 -9 194.13 21.62
-1 4 9 179.29 19.52
1 -4 -9 168.83 20.5
-1 4 9 156.78 19.37
-1 4 9 142.74 18.09
-1 4 9 155.98 18.33
-1 4 8 471.86 33.34
1 -4 -8 518.65 36.14
-1 4 8 472.28 33.57
-1 4 8 581.23 37.43
1 -4 -8 574.21 38.22
-1 4 8 479.8 32.79
-1 4 8 492.85 26.15
-1 4 7 470.28 25.44
-1 4 7 472.12 32.31
1 -4 -7 466.69 34.11
1 -4 -7 484.69 26.84
-1 4 7 410.14 28.32
-1 4 7 461.1 32.04
-1 4 7 492.31 33.18
-1 4 6 1583.24 68.61
1 -4 -6 1624.32 70.5
1 -4 -6 1592.69 61.93
-1 4 6 1464.41 58.19
-1 4 5 192.7 15.49
-1 4 5 179.49 18.47
-1 4 5 210.05 19.63
1 -4 -5 225.57 21.15
1 -4 -5 228.09 18.23
-1 4 5 179.72 18.49
-1 4 4 14.11 3.5
-1 4 4 8.02 3.92
-1 4 4 3.2 2.78
1 -4 -4 18.11 5.92
1 -4 -4 13.43 4.64
-1 4 4 10.3 4.15
1 -4 -3 1362.57 59.86
-1 4 3 1360.45 60.06
1 -4 -3 1286.14 55.67
-1 4 3 1315.46 59.58
-1 4 3 1319.73 57.84
-1 4 3 1257.74 51.27
1 -4 -3 1348.77 58.32
-1 4 3 1276.38 46.59
-1 4 2 4336.49 144
1 -4 -2 4248.8 142.37
1 -4 -2 4322.73 140.15
-1 4 2 4004.44 129.73
-1 4 2 3892.31 125.03
-1 4 2 3925.29 122.69
-1 4 2 4274.02 143.5
-1 4 1 423.77 28.89
-1 4 1 459.61 30.08
1 -4 -1 422.44 29.11
-1 4 1 432.15 24.02
-1 4 1 426.51 20.06
1 -4 -1 382.67 25.85
1 -4 -1 470.89 28.84
-1 4 1 411.07 19.26
-1 4 0 516.34 22.21
-1 4 0 530.87 32.9
1 -4 0 550.64 34.16
-1 4 0 541.9 26.45
-1 4 0 576.92 34.06
1 -4 0 555.53 30.44
1 -4 0 509.42 18.4
1 -4 0 557.29 33.1
-1 4 0 582.29 34.05
1 -4 1 162.25 9.55
-1 4 -1 169.19 17.47
-1 4 -1 194.61 18.65
1 -4 1 181.74 18.42
-1 4 -1 166.94 11.74
1 -4 1 178.36 18.09
-1 4 -1 173 17.59
-1 4 -2 497.9 32.1
1 -4 2 494.06 32.99
1 -4 2 480.65 32.74
-1 4 -2 514.52 32.69
1 -4 2 500.43 25.35
-1 4 -2 450.72 31.12
1 -4 3 744.74 33.85
-1 4 -3 855.86 45.57
-1 4 -3 786.9 43.39
1 -4 3 832.44 45.73
1 -4 3 864.74 46.53
-1 4 -3 727.86 42.45
1 -4 3 797.54 35.22
-1 4 -3 771.24 34.19
-1 4 -4 1770.52 76.57
1 -4 4 1818.54 80.95
-1 4 -4 1765.97 76.73
1 -4 4 1819.59 66.51
-1 4 -4 1776.47 65.34
-1 4 -4 1809.05 78.93
1 -4 4 1774 62.28
-1 4 -5 1021.69 53.71
-1 4 -5 930.94 50.12
1 -4 5 959.06 51.89
1 -4 5 932.87 41.25
-1 4 -5 967.86 51.03
-1 4 -5 947.97 40.72
1 -4 5 981.43 54.46
-1 4 -6 198.03 20.18
-1 4 -6 163.84 18.71
1 -4 6 157.26 18.89
1 -4 6 205.27 22.87
-1 4 -6 161.08 19.83
1 -4 7 26.87 7.76
-1 4 -7 27.74 7.7
1 -4 7 40.43 10.71
-1 4 -7 31.08 8.96
-1 4 -7 33.35 8.34
-1 4 -8 964.97 51.86
-1 4 -8 808.5 48.78
-1 4 -8 957.6 56.51
1 -4 8 860.78 50.29
1 -4 8 883.14 55.19
-1 4 -9 72.77 14.83
-1 4 -9 63.83 12.27
1 -4 9 42.2 11.31
1 -4 9 54.22 13.11
1 -4 9 55.09 11.27
-1 4 -9 40.03 9.73
1 -4 10 60.4 13.89
-1 4 -10 42.2 11.76
1 -4 10 84.33 14.04
1 -4 11 9.57 7.12
1 -4 11 14.44 6.18
1 -4 11 18.98 8.35
-1 4 -12 547.57 47.72
1 -4 12 555.43 46.73
1 -4 12 645.24 50.29
1 -4 13 10.65 7.08
1 -4 13 23.7 10.12
-1 4 -13 11.03 8.19
-1 4 -13 11.15 7.41
1 -4 14 107.06 20.72
1 -4 14 103.16 19.63
-1 4 -14 111.92 21.97
-1 4 -14 113.57 22.29
-1 3 17 341.05 39.96
1 -3 -17 421.97 42.24
-1 3 16 35.4 13.06
1 -3 -16 64.63 16.05
-1 3 15 158.76 18.94
-1 3 15 123.01 22.61
-1 3 15 124.36 16.43
1 -3 -15 118.14 21.08
-1 3 14 33.49 8.36
-1 3 14 21.01 9.26
-1 3 14 23.49 7.07
1 -3 -14 25.22 9.45
1 -3 -13 178.59 23.91
-1 3 13 172.62 19.34
-1 3 13 190.87 20.36
1 -3 -13 186.44 21.66
-1 3 13 166.67 24.49
1 -3 -12 33.42 8.91
1 -3 -12 32.43 10.1
-1 3 12 37.03 8.49
-1 3 12 25.62 9
-1 3 12 26.08 7.47
-1 3 12 16.12 7.13
-1 3 12 30.28 10.03
-1 3 11 198.68 23.41
-1 3 11 187.77 19.63
-1 3 11 187.01 19.87
1 -3 -11 210.69 23.99
1 -3 -11 206.07 22.03
-1 3 11 198.03 23.17
-1 3 10 2.26 3.19
-1 3 10 0.51 0.54
1 -3 -10 -2.27 4.52
-1 3 10 -1.7 2.93
-1 3 10 1.7 2.4
-1 3 10 -2.22 2.21
1 -3 -10 2.01 2.84
-1 3 9 2534.49 88.42
1 -3 -9 3008.54 109.53
-1 3 9 2691.42 86
1 -3 -9 2987.59 111.18
-1 3 9 2778.95 103.31
-1 3 9 2979.74 110.58
-1 3 9 2508.7 89.24
-1 3 9 2689.76 102.69
-1 3 9 2596.75 106.83
-1 3 8 128.53 10.25
-1 3 8 176.81 18.69
1 -3 -8 185.48 18.9
-1 3 8 146.46 10.4
-1 3 8 113.18 13.88
1 -3 -8 158.47 17.89
-1 3 8 114.65 14.94
-1 3 8 144.78 15.63
-1 3 8 136.28 11.4
-1 3 7 459.66 30
-1 3 7 354.73 19.17
-1 3 7 327.17 24.55
-1 3 7 346.06 25.05
1 -3 -7 360.66 21.79
-1 3 7 364.79 20.91
1 -3 -7 376.37 19.79
-1 3 7 432.82 28
1 -3 -7 426.9 29.2
1 -3 -6 251.6 20.83
-1 3 6 219.92 13.92
1 -3 -6 194.91 14.15
-1 3 6 190.01 14.58
-1 3 6 237.4 20.09
-1 3 6 182.3 16.58
1 -3 -6 208.12 14.46
1 -3 -5 1192.57 52.19
-1 3 5 1073.59 42
-1 3 5 1054.56 44.18
1 -3 -5 1041.55 41.26
-1 3 5 1019.72 48.92
1 -3 -5 1068.94 44.18
-1 3 4 1148.49 50.17
1 -3 -4 1195.59 52.1
-1 3 4 1109.26 44.38
-1 3 4 1095.63 49.65
-1 3 4 1257.96 51.75
1 -3 -4 1072.1 41.43
-1 3 4 1200.56 47.63
-1 3 4 1050.95 45.87
1 -3 -4 1128.59 46.79
-1 3 3 894.22 39.27
-1 3 3 897.79 41.65
1 -3 -3 991.05 43.71
1 -3 -3 829.4 29.77
-1 3 3 940.6 42.6
1 -3 -3 906.19 38.39
-1 3 3 909.95 37.6
-1 3 3 924.42 42.34
-1 3 3 894.87 33.59
-1 3 3 895.12 34.94
-1 3 3 931.83 40.37
-1 3 3 829.67 36.89
-1 3 2 233.71 16
-1 3 2 239.28 14.29
-1 3 2 222.66 12.3
-1 3 2 242.32 17.78
-1 3 2 214.61 16.35
1 -3 -2 222.25 16.88
-1 3 2 245.88 18.49
1 -3 -2 248.12 17.71
1 -3 -2 233.85 17.31
-1 3 2 266.74 19.09
1 -3 -2 229.97 16.37
-1 3 2 237.92 16.19
-1 3 2 213.05 11.27
-1 3 1 1702.22 62.58
1 -3 -1 1658.64 63.76
1 -3 -1 1615.33 63.86
1 -3 -1 1700.23 64.66
1 -3 -1 1647.6 62.33
-1 3 1 1716.12 63.2
1 -3 -1 1672.36 63.9
-1 3 1 1605.71 60
-1 3 1 1651.54 56.14
-1 3 1 1565.05 63.15
-1 3 1 1655.68 56.1
-1 3 0 691.42 35.39
1 -3 0 729.65 34.15
-1 3 0 675.31 25.27
-1 3 0 746.36 36.21
-1 3 0 666.74 33.48
1 -3 0 681.55 32.49
-1 3 0 710.89 35.46
-1 3 0 660.21 29.03
1 -3 0 694.01 34.65
-1 3 -1 3822.27 127.02
1 -3 1 3434.71 119.53
-1 3 -1 3721.78 126.61
-1 3 -1 3503.16 115.01
1 -3 1 3786.62 122.42
1 -3 1 3651.37 126.9
1 -3 1 3694.94 111.22
-1 3 -1 3682.98 126.26
-1 3 -2 158.16 15.32
-1 3 -2 161.06 15.56
1 -3 2 170.19 12.52
-1 3 -2 186.79 9.89
1 -3 2 206.24 17.86
-1 3 -2 219.83 18.04
1 -3 2 185.45 12.85
1 -3 3 4.81 1.9
-1 3 -3 1.4 1.98
1 -3 3 4.57 2.15
-1 3 -3 2.68 2.32
-1 3 -3 8.56 2.51
-1 3 -3 2.66 2.29
1 -3 3 4.51 3
1 -3 3 3.75 1.35
1 -3 4 73.89 7.1
1 -3 4 71.58 8.28
-1 3 -4 65.19 10.08
-1 3 -4 64.2 7.05
-1 3 -4 90.4 12.28
1 -3 4 62.66 5.84
-1 3 -4 65.87 10.07
1 -3 4 70.78 11.18
-1 3 -5 2781.91 98.13
1 -3 5 2622.09 88.23
1 -3 5 2470.75 95.94
1 -3 5 2488.37 86.16
-1 3 -5 2729.6 97.48
-1 3 -5 2665.54 99.3
1 -3 5 2336.78 76.74
-1 3 -5 2652.71 86.03
1 -3 5 2767.26 102.07
-1 3 -6 231.05 15.85
1 -3 6 244.18 21.08
-1 3 -6 255 22.92
1 -3 6 232.78 17.05
-1 3 -6 239.25 20.88
1 -3 6 236.9 22.87
-1 3 -6 232.08 12.61
-1 3 -6 245.31 21.34
-1 3 -7 398.65 28.64
-1 3 -7 379.35 30.18
1 -3 7 392.94 24.77
-1 3 -7 375.59 27.71
-1 3 -7 354.77 18.39
1 -3 7 365.68 27.05
-1 3 -8 734.05 41.43
-1 3 -8 694.17 44.33
-1 3 -8 607.5 28.89
1 -3 8 603.54 41.94
1 -3 8 642.82 38.29
1 -3 8 706.4 37.72
-1 3 -8 693.67 40.36
-1 3 -9 588.45 37.59
1 -3 9 608.25 36.62
-1 3 -9 562.93 37.26
1 -3 9 526.91 34.62
-1 3 -9 594.69 42.47
1 -3 9 632.8 43.31
1 -3 10 109.89 14.27
-1 3 -10 127.03 19.26
1 -3 10 111.62 15.37
1 -3 10 110.55 17.83
-1 3 -10 84.89 13.51
1 -3 10 80.06 15.06
-1 3 -10 93.67 14.18
1 -3 11 667.4 47.45
1 -3 11 646.13 37.49
-1 3 -11 559.44 44.94
1 -3 11 620.52 46.17
1 -3 12 2.94 2.93
1 -3 12 1.53 1.52
1 -3 12 -2.98 2.97
-1 3 -12 -3.19 4.5
1 -3 13 -3.17 6.31
-1 3 -13 3.43 4.84
1 -3 13 9.17 6.81
1 -3 14 81.47 17
-1 3 -14 62.23 16.09
-1 3 -15 485.63 46.41
1 -3 15 434.51 41.49
1 -3 15 402.95 38.87
-1 3 -15 440.52 44.55
1 -2 -17 3.62 5.09
-1 2 17 3.95 6.82
-1 2 17 4.24 4.22
1 -2 -16 346.88 36.59
-1 2 16 362.77 39.08
-1 2 16 372.24 40.84
1 -2 -15 38.69 11.59
-1 2 15 26.17 11.18
-1 2 15 7.12 7.11
1 -2 -14 182.45 24.13
-1 2 14 171.68 17.82
-1 2 14 174.26 17.83
-1 2 14 141.72 23.08
-1 2 14 139.66 22.48
1 -2 -13 96.66 16.98
-1 2 13 102.73 13.5
-1 2 13 100.17 13.49
-1 2 13 101.67 18.64
-1 2 13 97.93 18.58
-1 2 12 446.43 39.02
1 -2 -12 491.82 38.34
-1 2 12 470.13 30.33
1 -2 -12 516.26 34.16
-1 2 12 496.27 31.18
-1 2 12 423.43 21.39
-1 2 12 490.62 40.23
-1 2 11 9.62 5.87
-1 2 11 12.8 6.25
1 -2 -11 2.31 2.31
-1 2 11 8.79 4.13
1 -2 -11 7.06 4.31
-1 2 11 1.47 2.55
-1 2 11 15.55 6.83
-1 2 11 5.31 2.3
-1 2 10 700.16 46.17
-1 2 10 771.26 39.95
1 -2 -10 779.58 46.48
-1 2 10 710.48 38.76
-1 2 10 732.64 47.57
1 -2 -10 848.55 44.15
-1 2 10 813.86 48.05
1 -2 -9 119.33 15.93
-1 2 9 137.24 13.95
-1 2 9 124.99 16.16
-1 2 9 110.8 6.13
1 -2 -9 145.84 15.84
-1 2 9 133.9 13.82
-1 2 9 94.05 14.77
-1 2 8 595.22 20.96
1 -2 -8 767.86 40.77
-1 2 8 667.69 34.03
-1 2 8 675.97 39.13
1 -2 -8 789.29 39.02
-1 2 8 631.07 24.67
-1 2 8 674.47 30.73
-1 2 8 603.81 32.91
-1 2 7 445.34 19.71
1 -2 -7 470.32 28.93
-1 2 7 445.04 17.87
-1 2 7 489.37 30.6
1 -2 -7 462.85 17.98
-1 2 7 418.89 19.86
-1 2 7 449.06 24.15
1 -2 -7 511.09 31.06
1 -2 -7 475.57 25.55
1 -2 -7 454.97 25.06
1 -2 -6 2738.76 97.29
-1 2 6 2866.45 97.26
-1 2 6 2781.89 92.44
1 -2 -6 3182.75 100.28
-1 2 6 2942.47 104.92
1 -2 -6 3074.78 104.24
1 -2 -6 2929.42 98.42
1 -2 -6 2896.44 98.19
-1 2 6 2658.42 90.31
1 -2 -6 2879.34 91.15
1 -2 -5 8.02 3.25
-1 2 5 11.25 3.83
-1 2 5 17.74 4.87
1 -2 -5 9.53 3.25
1 -2 -5 16.38 4.46
1 -2 -5 15.74 3.6
1 -2 -5 15.26 3.89
-1 2 5 19.35 4.66
-1 2 5 15.33 2.75
-1 2 5 19.14 4.4
-1 2 5 7.17 2.34
1 -2 -5 14.38 3.59
-1 2 4 1682.5 63.66
-1 2 4 1602.84 61.94
1 -2 -4 1643.3 61.82
-1 2 4 1648.52 55.07
1 -2 -4 1657.31 60.03
1 -2 -4 1673.43 60.25
-1 2 4 1621.97 62.16
-1 2 4 1546.95 60.3
1 -2 -4 1604.24 57.2
-1 2 4 1596.55 57.33
-1 2 4 1642.2 60.26
-1 2 3 6.82 2.82
-1 2 3 3.68 2.24
1 -2 -3 0.51 1.01
-1 2 3 0.53 0.75
1 -2 -3 2.31 1.71
-1 2 3 3.36 2.21
-1 2 3 3.36 1.87
-1 2 3 2.87 1.75
-1 2 3 0.5 1.21
-1 2 3 1.68 1.45
1 -2 -3 1.53 1.52
-1 2 3 1.31 1.31
1 -2 -2 903.97 36.35
-1 2 2 922.25 36
-1 2 2 875.87 33.86
1 -2 -2 1024.04 39.42
-1 2 2 979.67 39.83
-1 2 2 989.64 39.99
1 -2 -2 976.95 39.18
-1 2 2 952.33 36.55
-1 2 2 1014.59 38.86
-1 2 2 1030.84 40.76
-1 2 2 945.76 39.05
-1 2 1 2.07 1.37
1 -2 -1 4.58 2.01
1 -2 -1 0.75 1.29
-1 2 1 1.42 1.41
-1 2 1 0.83 0.92
-1 2 1 -1.19 1.68
1 -2 -1 1.49 1.82
1 -2 -1 -0.76 1.06
1 -2 -1 1.98 1.47
-1 2 1 0.62 0.51
1 -2 0 303.16 16.97
1 -2 0 316.73 16.78
-1 2 0 317.69 17.92
-1 2 0 295.06 14.85
1 -2 0 298.36 17.83
-1 2 0 288.59 17.21
1 -2 0 307.86 17.81
-1 2 -1 225.93 14.82
1 -2 1 231.97 14.23
-1 2 -1 230.41 15.26
-1 2 -1 228.38 11.31
-1 2 -1 278.57 16.77
1 -2 1 234.13 16.19
1 -2 1 246.38 15.6
1 -2 2 7769.74 239.99
-1 2 -2 8040.87 242.31
1 -2 2 7792.47 230.16
-1 2 -2 8028.12 242.69
1 -2 2 7680.69 236.3
-1 2 -2 7254.88 239.12
-1 2 -2 7494.11 231.89
1 -2 2 7232.51 233.89
-1 2 -2 8493.2 240.48
-1 2 -2 8193.81 242.09
1 -2 3 71.78 6.1
1 -2 3 65.66 7.04
-1 2 -3 52.72 7.15
-1 2 -3 66.45 5.69
1 -2 3 68.47 5.71
-1 2 -3 51.38 4.57
1 -2 3 61.33 8
-1 2 -4 3883.18 122.72
-1 2 -4 4269.84 133.02
-1 2 -4 4092.01 126.62
1 -2 4 3878.18 122.94
-1 2 -4 3986.55 137.34
-1 2 -4 4188.76 134.49
1 -2 4 4164.63 131.01
-1 2 -4 4157.17 126.34
1 -2 4 4106.02 138.98
1 -2 4 4095.14 128.85
-1 2 -5 720.57 28.08
1 -2 5 692.47 23.68
-1 2 -5 761.3 38.95
1 -2 5 735.8 33.17
1 -2 5 717.96 32.9
-1 2 -5 759.4 34.7
-1 2 -5 776.8 35.35
-1 2 -5 738.3 35.04
-1 2 -5 781.42 31.25
-1 2 -5 811.41 34.81
-1 2 -5 751.8 30.89
1 -2 5 745.51 39.75
1 -2 6 160.75 14.08
1 -2 6 164.32 13.57
-1 2 -6 131.05 13.21
-1 2 -6 138.71 10.26
-1 2 -6 159.07 13.26
-1 2 -6 174.9 17.31
1 -2 6 160.57 17.11
-1 2 -6 140.94 11.73
-1 2 -7 711.42 36.35
-1 2 -7 630.78 29.43
1 -2 7 690.53 35.19
-1 2 -7 664.44 39.69
1 -2 7 721.51 36.89
1 -2 7 661.87 32.67
1 -2 8 919.04 43.46
-1 2 -8 985.54 52.73
1 -2 8 1016.17 48.58
1 -2 8 915.77 44.12
-1 2 -8 967.91 46.74
1 -2 9 26.36 6.05
-1 2 -9 33.86 7.74
1 -2 9 26.48 6.24
-1 2 -9 32.89 9.04
1 -2 9 24.08 7.52
1 -2 9 18.95 6.68
1 -2 9 35.62 8.17
1 -2 10 61.71 9.13
-1 2 -10 94.97 13.6
1 -2 10 46.47 9.02
1 -2 10 70.14 12.86
1 -2 10 52.76 10.85
-1 2 -10 58.43 12.26
1 -2 10 77.31 13.71
-1 2 -11 34.95 10.45
-1 2 -11 63.46 11.42
1 -2 11 42.29 7.51
1 -2 11 47.79 11.24
1 -2 11 50.25 11.22
1 -2 11 31.65 9.48
-1 2 -12 1367.96 66.33
1 -2 12 1253.53 68.55
-1 2 -12 1239.74 72.09
1 -2 12 1239.33 52.13
1 -2 12 1268.69 68.92
1 -2 12 1285.38 68.42
1 -2 13 133.67 20.14
-1 2 -13 118.68 20.28
1 -2 13 141.58 20.62
1 -2 13 108.42 18.31
1 -2 14 23.8 8.92
-1 2 -14 34.6 12.45
1 -2 14 17 7.5
1 -2 14 42.29 12.06
1 -2 15 141.18 21.7
-1 2 -15 121.97 22.05
1 -2 15 98.6 17.9
1 -2 16 154.21 23.47
1 -2 16 116.05 19.39
-1 2 -16 175.49 27.5
1 -1 -17 275.13 32.43
-1 1 17 280.49 34.52
-1 1 17 287.92 36.45
1 -1 -17 269.57 34.19
-1 1 16 58.13 15.48
-1 1 16 76.15 18.4
1 -1 -16 72.03 16.1
-1 1 15 133.51 22.14
-1 1 15 93.51 19.35
1 -1 -15 162.29 23.11
-1 1 14 28.75 10.6
1 -1 -14 39.78 11.37
-1 1 14 41.5 12.93
-1 1 13 536.03 31.89
-1 1 13 574.65 44.92
-1 1 13 547.05 32.04
1 -1 -13 657.71 44.96
-1 1 13 620.84 47.83
-1 1 12 182.81 16.39
-1 1 12 207.54 24.75
-1 1 12 187.44 16.56
1 -1 -12 171.34 21.48
-1 1 12 172.18 23.49
-1 1 11 198.5 23.67
1 -1 -11 166.38 20.08
-1 1 11 188.95 16.3
1 -1 -11 211.82 18.37
-1 1 11 201.9 16.89
-1 1 11 190.91 22.68
-1 1 11 203.51 14.06
-1 1 10 20.63 7.24
1 -1 -10 29.22 8.02
-1 1 10 21.2 5.12
-1 1 10 15.74 4.51
1 -1 -10 13.27 4.61
-1 1 10 22.07 7.31
-1 1 10 14.64 3.53
-1 1 9 2884.78 111.17
-1 1 9 2841.96 112.12
1 -1 -9 2929.58 102.34
-1 1 9 2951.69 112.82
1 -1 -9 2956.83 109.73
-1 1 9 2656.71 92.45
-1 1 8 1142.63 53.15
1 -1 -8 1070.23 50.97
-1 1 8 1104.35 53.8
1 -1 -8 1012.17 45.87
-1 1 8 1049.22 52.95
-1 1 8 959 38.18
1 -1 -7 619.46 31.39
-1 1 7 651.28 35.94
-1 1 7 610.58 28.74
1 -1 -7 566.23 27.17
1 -1 -7 669.12 35.07
-1 1 7 558 27.97
1 -1 -7 542.5 26.86
1 -1 -7 636.92 35.78
-1 1 7 582.47 35.3
-1 1 7 623.93 35.09
-1 1 6 16.22 4.88
1 -1 -6 28.08 5.51
-1 1 6 27.44 5.35
-1 1 6 24.15 5.72
1 -1 -6 18.38 4.38
1 -1 -6 23.4 4.23
-1 1 6 38.47 5.52
1 -1 -6 26.66 4.47
-1 1 6 28.96 4.91
1 -1 -6 30.1 6.28
-1 1 6 27.41 2.37
1 -1 -6 27.81 6.22
1 -1 -5 864.83 39.05
1 -1 -5 965.24 39.02
-1 1 5 792.73 34.6
1 -1 -5 936 35.23
1 -1 -5 892.14 34.88
-1 1 5 859.45 35.18
1 -1 -5 850.71 36.93
1 -1 -5 860.73 39.83
-1 1 5 840.34 38.44
1 -1 -5 1043.32 39.02
-1 1 5 818.48 29.83
-1 1 5 907.71 35.08
1 -1 -5 1060.16 40.76
-1 1 4 167.31 12.78
1 -1 -4 162.39 10.63
1 -1 -4 151.09 10.26
1 -1 -4 152.94 11.2
1 -1 -4 166.01 12.78
1 -1 -4 166.33 12.51
-1 1 4 172.39 12.81
1 -1 -4 162.99 12.2
-1 1 4 145.06 7.03
1 -1 -4 162.87 12
-1 1 4 163.84 8.81
-1 1 4 151.74 10.73
1 -1 -3 894.53 32.21
1 -1 -3 1023.04 36.46
-1 1 3 1030.53 38.65
1 -1 -3 985.64 36.24
1 -1 -3 984.28 36.83
1 -1 -3 1012.36 39.01
1 -1 -3 996.75 39.19
-1 1 3 1026.34 38.67
1 -1 -3 1039.39 39.77
-1 1 3 970.33 38.87
-1 1 3 957.28 31.68
1 -1 -3 1082.97 38.55
-1 1 2 3046.86 99.15
1 -1 -2 3304.56 99.6
-1 1 2 3121.72 99.77
-1 1 2 3096.91 99.75
1 -1 -2 3211.3 99.53
-1 1 2 3245.9 99.45
1 -1 -2 3139.32 98.69
1 -1 -2 3031.8 100.71
1 -1 -2 3292.62 101.1
-1 1 2 3382.38 101.71
1 -1 -2 3198.06 98.89
-1 1 2 3224.24 100.81
1 -1 -2 2821.19 95.53
1 -1 -1 1883.96 55.32
1 -1 -1 1777.71 58.84
1 -1 -1 1658.19 57.85
-1 1 1 1732.08 58.59
-1 1 1 1711.69 58.54
1 -1 -1 1697.82 58.1
-1 1 1 1770.26 59.06
-1 1 1 1619.48 57.54
1 -1 -1 1769.97 58.5
1 -1 -1 1665.96 58.13
1 -1 -1 1658.29 56.88
-1 1 1 1811.95 58.28
1 -1 -1 1737.32 56.36
1 -1 -1 1780.05 56.81
-1 1 1 1665.14 56.77
-1 1 0 521.13 21.87
1 -1 0 493.01 19.92
1 -1 0 499.89 19.92
1 -1 0 524.29 21.82
1 -1 0 519.82 21.81
-1 1 0 524.74 21.43
1 -1 0 528.37 21.6
1 -1 0 503.85 17.04
-1 1 -1 6572.05 203.19
1 -1 1 6623.9 206.07
1 -1 1 6726.08 204.91
-1 1 -1 6845.51 205.18
-1 1 -1 6842.36 205.56
1 -1 2 -0.5 1.12
-1 1 -2 0.6 1.47
-1 1 -2 1.12 1.36
1 -1 2 2.46 1.5
1 -1 2 2.35 1.55
-1 1 -3 3136.21 99.28
-1 1 -3 3001.01 98.39
1 -1 3 3055.97 92.9
-1 1 -3 2888.91 92.67
1 -1 3 2969.93 92.21
1 -1 3 3085.89 99.64
-1 1 -3 3004.76 97.62
1 -1 3 2986.04 98.74
-1 1 -4 66.71 7.72
-1 1 -4 68.27 7.51
-1 1 -4 69.12 7.49
1 -1 4 67.82 6.01
1 -1 4 68.76 5.78
-1 1 -4 70.12 7.13
-1 1 -4 70.18 7.86
-1 1 -5 3367.98 106.53
1 -1 5 3244.42 105.33
-1 1 -5 3167.16 106.95
-1 1 -5 3442.27 106.2
-1 1 -5 3378.89 105.92
1 -1 5 3244.58 102.23
1 -1 5 3120.44 100.96
1 -1 5 2796.31 95.55
-1 1 -5 3440.33 104.06
-1 1 -5 3107.75 98.08
1 -1 5 3114.21 104.35
-1 1 -6 57.5 7.81
-1 1 -6 61.93 8.75
1 -1 6 54.69 7.64
-1 1 -6 54.13 7.5
1 -1 6 62.11 7.42
1 -1 6 55.96 6.6
1 -1 6 56.16 7.13
-1 1 -6 60.29 6.99
-1 1 -6 58.02 4.73
-1 1 -6 57.18 7.71
-1 1 -6 57.71 8.92
1 -1 6 57.79 4.28
-1 1 -7 117.54 11.47
-1 1 -7 99.66 11.83
1 -1 7 85.31 9.2
-1 1 -7 91.24 5.33
1 -1 7 79.01 9.36
1 -1 7 89.52 5.48
-1 1 -7 107.77 13.28
-1 1 -7 105.25 11.07
1 -1 8 115.68 14.42
-1 1 -8 130.14 14.4
1 -1 8 116.77 13.71
1 -1 8 133.5 13.11
1 -1 8 99.85 5.7
-1 1 -8 140.87 16.1
1 -1 8 105.51 13.6
-1 1 -9 1004.45 49.9
1 -1 9 965.44 49.6
1 -1 9 920.61 45.55
1 -1 9 964.3 50.67
-1 1 -9 1019.7 53.13
1 -1 9 972.56 51.09
1 -1 10 161.73 19.25
-1 1 -10 163.67 18.24
1 -1 10 163.7 18.33
1 -1 10 153.72 16.19
-1 1 -10 141.96 18.52
1 -1 10 150.25 18.19
1 -1 11 215.71 23.98
-1 1 -11 241.1 23.48
1 -1 11 244.61 23.6
1 -1 11 216.07 20.7
1 -1 11 238.71 14.81
-1 1 -11 257.43 26.73
1 -1 11 211.61 22.75
-1 1 -12 209.25 23.07
1 -1 12 223.56 24.02
-1 1 -12 268.59 28.37
1 -1 12 222.75 22.09
1 -1 12 229.62 24.14
1 -1 12 243.55 26.42
1 -1 13 205.38 23.36
1 -1 13 231.58 26.95
-1 1 -13 219.81 27
1 -1 13 201.55 23.47
-1 1 -13 184.03 22.27
1 -1 14 36.77 10.59
1 -1 14 68.28 13.43
-1 1 -14 68.89 15.75
-1 1 -14 63.61 14.06
1 -1 14 60.03 14.17
-1 1 -15 1156.93 73.24
1 -1 15 1041.21 62.57
1 -1 15 1161.83 66.96
1 -1 15 1270.45 74.41
1 -1 16 44.92 11.23
-1 1 -16 52.84 14.61
1 -1 16 39.83 12.55
1 -1 16 32.56 10.28
1 -1 17 7.6 7.57
1 -1 17 12.19 7.44
1 0 -17 3.82 5.39
-1 0 17 3.62 3.6
-1 0 17 -4.19 7.23
1 0 -16 366.55 38.47
-1 0 16 399.68 39.31
-1 0 16 306.36 36.93
-1 0 15 3.73 3.72
-1 0 15 -3.3 4.64
1 0 -15 2.9 4.08
1 0 -15 10.19 7.56
1 0 -14 25.04 9.39
-1 0 14 34.51 11.43
-1 0 14 27.74 10.21
-1 0 14 32.76 10.21
1 0 -14 26.91 9.32
1 0 -13 19.76 7.46
-1 0 13 37.62 6.99
-1 0 13 41.09 12.24
-1 0 13 53.22 11.89
-1 0 12 1107.69 48.69
-1 0 12 1103.25 66.59
-1 0 12 1230.36 66.28
1 0 -12 1260.71 63.39
-1 0 12 1078.44 60.83
-1 0 11 91.47 14.58
-1 0 11 129.37 19.04
1 0 -11 117.38 16.08
-1 0 11 118.53 17.65
1 0 -10 679.55 32.93
-1 0 10 673.66 44.81
-1 0 10 675.31 43.2
-1 0 10 652.21 41.04
1 0 -10 765.56 42.92
-1 0 9 36.04 8.45
1 0 -9 33.88 5.94
1 0 -9 57.83 9.79
-1 0 9 36.69 8.92
-1 0 9 36.02 8.72
-1 0 9 36.61 5.86
1 0 -8 222.17 15.42
-1 0 8 247.27 22.2
1 0 -8 228.34 19.34
-1 0 8 207.63 14.01
-1 0 8 219.54 14.41
-1 0 8 206.46 14.05
1 0 -8 231.71 20.57
1 0 -8 214.67 18.37
-1 0 8 227.26 20.7
-1 0 7 676.9 29.09
1 0 -7 737.19 31.85
1 0 -7 701.21 23.79
1 0 -7 709.84 36.22
-1 0 7 683.4 29.17
1 0 -7 682.88 28.64
-1 0 7 699.74 29.4
1 0 -7 682.11 37.29
-1 0 7 649.14 37.54
1 0 -7 760.82 37.04
-1 0 7 674.92 38.52
1 0 -7 656.31 28.47
1 0 -7 767.28 28.67
1 0 -6 1861.41 65.54
1 0 -6 1749.18 58.62
1 0 -6 1765.88 66.73
-1 0 6 1728.57 69.06
1 0 -6 1791.62 68.48
-1 0 6 1593.05 58.05
-1 0 6 1910.27 70.17
1 0 -6 1792.53 61.63
1 0 -6 1683.7 52.96
1 0 -6 1875.25 67.66
-1 0 6 1621.89 58.11
1 0 -6 1729 58.18
-1 0 6 1703.73 58.21
1 0 -6 1742.23 58.34
-1 0 6 1671.69 69.27
1 0 -5 1137.71 35.14
1 0 -5 1070.37 37.89
-1 0 5 967.38 37.6
1 0 -5 1160.31 45.42
1 0 -5 1066.89 37.78
-1 0 5 911.43 37.23
1 0 -5 1139.57 44
1 0 -5 1130.69 39.57
1 0 -5 1164.91 45.4
1 0 -5 1213.23 47.24
1 0 -5 1022.19 44.44
1 0 -5 1202.87 42.04
1 0 -5 1142.68 45.61
-1 0 5 1059.13 37.46
-1 0 4 1004.82 37.65
1 0 -4 1143.81 38.05
1 0 -4 1187.09 42.06
1 0 -4 1040.06 44.01
1 0 -4 1163.46 38.11
-1 0 4 1054.12 37.85
-1 0 4 1073.51 37.04
1 0 -4 1279 45.66
1 0 -4 1222.61 45.11
1 0 -4 1123.61 45.1
-1 0 4 1205.25 45.86
1 0 -4 1139.18 40.71
1 0 -4 1191.34 43.94
1 0 -4 1196.83 37.07
1 0 -3 278.66 15.14
1 0 -3 252.62 11.06
1 0 -3 231.29 10.36
1 0 -3 240.09 10.49
1 0 -3 239.88 14.1
1 0 -3 245.3 13.29
1 0 -3 277.98 14.99
1 0 -3 255.6 14.87
1 0 -3 271.02 14.91
-1 0 3 264.16 15.32
1 0 -3 255.82 14.35
1 0 -3 274.04 13.5
1 0 -2 7489.34 226.51
1 0 -2 8048.34 231.97
1 0 -2 7525.56 226.54
-1 0 2 7847.66 231.96
1 0 -2 7003.15 231.01
1 0 -2 8140.45 232.15
1 0 -2 7427.33 231.64
1 0 -2 7834.51 226.98
1 0 -2 8042.63 231.06
1 0 -2 7479.57 231.37
1 0 -1 355.9 14.43
1 0 -1 371.31 15.49
-1 0 1 376.95 15.8
1 0 -1 388.38 15.5
-1 0 1 356.59 15.51
-1 0 1 357.25 13.48
1 0 -1 371.34 13.54
-1 0 1 358.93 13.61
-1 0 1 369.91 15.91
1 0 -1 371.62 15.4
-1 0 1 350.96 15.43
1 0 -1 381.1 15
-1 0 1 356.21 15.49
1 0 -1 404.09 15.8
-1 0 1 332.98 13.39
1 0 0 852.16 28.66
-1 0 0 839.6 28.84
-1 0 0 872.66 29.66
1 0 0 852.44 29.82
-1 0 0 926.03 28.87
-1 0 0 874.29 28.43
1 0 0 839.01 28.31
-1 0 0 885.65 29.35
-1 0 0 904.44 30.57
1 0 0 874.67 29.18
-1 0 0 796.82 29.08
-1 0 0 895.63 29.91
-1 0 -1 1026.89 35.66
1 0 1 1033.88 35.43
1 0 1 1093.31 36.86
-1 0 -1 1102.62 36.8
-1 0 -1 1081.43 36.92
-1 0 -1 1080.37 36.74
-1 0 -1 1083.47 34.79
1 0 1 1081.27 36.16
-1 0 -2 6932.83 199.14
-1 0 -2 6702.46 198.97
1 0 2 6433.12 198.59
-1 0 -2 6713.09 198.96
-1 0 -2 6822.75 198.66
1 0 2 6672.85 198.03
1 0 2 6006.91 195.5
1 0 2 6535.19 198.65
-1 0 -3 1885.54 62.73
1 0 3 1835.54 63.38
-1 0 -3 1919.69 63.09
1 0 3 1844.53 63.49
1 0 3 1850.47 63.05
-1 0 -3 1766.86 63.37
1 0 3 1903.55 63.76
-1 0 -3 1911.54 63.08
-1 0 -3 1906.49 63.77
1 0 3 1772.05 61.79
1 0 4 2563.16 85.44
-1 0 -4 2600.66 84.66
1 0 4 2548.23 85.45
-1 0 -4 2507.26 86.51
1 0 4 2585.43 86.16
-1 0 -4 2623.2 85.25
1 0 4 2621.22 86.37
-1 0 -4 2691.67 85.49
1 0 4 2394.98 80.71
-1 0 -4 2534.99 86.95
1 0 5 37.4 4.25
-1 0 -5 31.38 4.93
1 0 5 31.97 5.23
-1 0 -5 31.12 5.61
-1 0 -5 28.99 4.93
1 0 5 36.69 5.87
-1 0 -5 23.89 4.54
1 0 5 30.8 5.5
1 0 5 28.25 3.91
1 0 5 23.53 3.93
1 0 5 22.78 4.32
1 0 6 147.58 9.95
1 0 6 138.19 12.08
-1 0 -6 175.22 12.59
-1 0 -6 168.39 14.64
-1 0 -6 171.98 13.14
1 0 6 159.89 10.88
1 0 6 151.92 12.36
1 0 6 167.48 13.02
-1 0 -6 175.27 13.22
1 0 6 151.43 12.4
1 0 6 141.14 10.56
-1 0 -7 26.34 5.16
-1 0 -7 34.56 7.04
-1 0 -7 28.9 5.59
-1 0 -7 35.79 6.24
1 0 7 26.14 5.59
1 0 7 30.23 4.84
1 0 7 37.66 6.3
1 0 7 37.32 4.8
1 0 7 28.89 4.53
-1 0 -8 1358.9 52.16
-1 0 -8 1322.55 58.42
1 0 8 1238.6 54.99
1 0 8 1215.61 54.6
1 0 8 1335.54 50.29
1 0 8 1449.42 57.04
1 0 8 1228.24 47.72
1 0 8 1347.77 55.08
1 0 8 1179.12 46.35
-1 0 -8 1385.38 60.41
1 0 9 473.59 22.95
-1 0 -9 550.54 34.94
1 0 9 482.09 31.48
-1 0 -9 562.4 34.29
1 0 9 499.74 30.24
1 0 9 486.66 29.93
1 0 9 514.45 31.1
1 0 9 457.07 20.46
1 0 9 497.72 23.47
1 0 9 509.6 30.27
1 0 10 252.58 22.62
-1 0 -10 234.51 23.02
1 0 10 260.04 15.04
1 0 10 259.26 21.49
1 0 10 259.39 22.06
-1 0 -10 269.06 25.09
1 0 10 242.89 11.62
1 0 10 217.85 14.36
1 0 11 2.38 2.37
-1 0 -11 -2.11 3.64
1 0 11 1.84 2.59
-1 0 -11 -2.34 4.67
1 0 11 1.73 2.43
1 0 11 -1.9 2.68
-1 0 -12 1524.4 72.05
1 0 12 1328.15 64.83
-1 0 -12 1375.41 72.12
1 0 12 1341.98 73.18
1 0 12 1194.29 64.11
1 0 12 1460.59 68.14
1 0 13 82.45 16.31
-1 0 -13 104.9 16.95
1 0 13 99.2 15.49
-1 0 -13 100.78 17.68
1 0 13 103.82 15.34
1 0 13 93.62 14.98
-1 0 -14 216.83 25.49
1 0 14 184.88 21.76
-1 0 -14 198.59 26.06
1 0 14 159.42 20.23
1 0 14 181.42 25.15
1 0 14 176.59 21.82
1 0 15 94.96 19.31
-1 0 -15 77.48 15.57
-1 0 -15 85.36 18.12
1 0 15 54.38 12.74
1 0 15 75.08 13.79
1 0 16 394.03 34.33
-1 0 -16 384.58 39.62
-1 0 -16 366.9 36.33
1 0 16 326.31 30.3
1 0 16 436.8 42.84
1 0 17 19.87 10.5
-1 0 -17 38.83 12.85
1 1 -16 32.69 11.46
-1 -1 16 33.31 11.51
-1 -1 16 15.69 8.76
-1 -1 15 216.49 27.36
1 1 -15 245.31 29.97
-1 -1 15 190.34 25.95
-1 -1 15 165.98 26.12
-1 -1 14 62.82 14.45
1 1 -14 85.42 17.1
-1 -1 14 90.15 17.33
-1 -1 14 61.71 15.42
1 1 -13 290.16 27.92
-1 -1 13 319.26 31.67
1 1 -13 340.01 33.14
-1 -1 13 313.27 23.69
-1 -1 13 356.17 35.04
-1 -1 13 294.38 30.31
-1 -1 12 11.49 7.57
-1 -1 12 12.76 6.73
1 1 -12 12.69 5.58
1 1 -12 7.92 5.27
-1 -1 12 2.58 4.46
-1 -1 12 11.42 4.27
-1 -1 11 95.78 16.26
-1 -1 11 81.5 14.1
1 1 -11 60.85 11.43
1 1 -11 95.03 15.5
-1 -1 11 84.33 14.56
-1 -1 11 70.37 10.25
-1 -1 10 -2.32 2.31
-1 -1 10 2.1 2.96
1 1 -10 4.23 4.21
-1 -1 10 -2.1 2.96
-1 -1 10 -1.26 1.77
1 1 -9 936.6 46.1
-1 -1 9 927.01 51.55
-1 -1 9 868.41 41.68
1 1 -9 941.57 48.57
-1 -1 9 951.67 50.65
1 1 -9 881.54 43.58
-1 -1 8 34.21 8.07
1 1 -8 25.79 6.23
1 1 -8 29.15 4.08
-1 -1 8 28.35 7.3
1 1 -8 29.76 7.02
1 1 -8 43.95 7.54
1 1 -8 36.8 4.7
-1 -1 8 34.01 4.21
-1 -1 7 733.85 30.51
1 1 -7 828.42 30.65
1 1 -7 847.43 31.92
1 1 -7 797.8 38.07
1 1 -7 793.78 31.16
1 1 -7 783.22 40.42
-1 -1 7 756.41 41.12
1 1 -7 847.54 38.23
-1 -1 7 813.02 41.85
-1 -1 7 764.31 42.28
1 1 -7 791.87 31.3
1 1 -6 8.13 1.3
1 1 -6 7.4 2.92
1 1 -6 9.93 3.65
-1 -1 6 7.57 3.56
1 1 -6 8.33 2.11
1 1 -6 5.16 1.73
-1 -1 6 9.32 3.98
1 1 -6 6.47 1.99
1 1 -6 6.46 2.77
1 1 -6 9.17 2.19
-1 -1 6 7.38 2.11
-1 -1 6 6.31 2.37
-1 -1 6 12.7 4.57
1 1 -5 6646.95 201.67
1 1 -5 6683.65 192.22
1 1 -5 6276.4 191.3
-1 -1 5 6517.55 204.6
1 1 -5 6595.01 198.7
1 1 -5 6381.61 191.37
1 1 -5 6459.74 193.52
-1 -1 5 5517.52 192.89
1 1 -5 6501.73 201.48
-1 -1 5 6023.68 202.53
1 1 -5 6101.01 198.48
1 1 -5 6709.71 201.39
1 1 -5 6328.82 189.34
1 1 -5 6740.57 201.88
-1 -1 5 6154.18 196.4
1 1 -4 500.63 24.22
1 1 -4 459.46 18.67
1 1 -4 505.41 20.36
1 1 -4 496.66 24.64
-1 -1 4 405.12 19.83
1 1 -4 470.97 17.47
-1 -1 4 476.99 25.14
1 1 -4 419.11 20.96
1 1 -4 485.59 17.57
-1 -1 4 466.15 24.75
1 1 -4 515.42 24.51
1 1 -4 464.12 20.91
-1 -1 4 378.92 20.02
-1 -1 4 483.95 25.02
1 1 -4 522.62 24.56
1 1 -4 470.38 23.76
1 1 -3 434.29 21.53
-1 -1 3 487.86 22.83
1 1 -3 457.35 21.85
1 1 -3 426.63 15.18
1 1 -3 468.52 19.08
-1 -1 3 484.13 22.85
1 1 -3 445.27 21.83
1 1 -3 472.54 19.32
1 1 -3 414.09 15.36
1 1 -3 411.99 20.73
1 1 -3 415.09 15.1
1 1 -3 494 22.03
-1 -1 3 394.29 21.19
1 1 -3 411.53 18.67
1 1 -3 452.3 21.07
1 1 -2 1782.52 63.62
-1 -1 2 1878.38 63.49
1 1 -2 2018.71 63.29
-1 -1 2 1960.51 65.63
1 1 -2 1926.77 62.64
1 1 -2 2035.33 65.22
-1 -1 2 1919.05 62.82
1 1 -2 2003.73 65.2
-1 -1 2 1921.25 65.54
1 1 -2 1877.86 65.23
1 1 -2 1890.09 64.58
1 1 -2 1992.57 64.7
1 1 -2 1929.57 64.88
1 1 -1 1565.67 52.65
-1 -1 1 1571.67 53.16
1 1 -1 1718.34 53.74
1 1 -1 1601.27 50.82
1 1 -1 1425.13 49.66
1 1 -1 1675.27 51.98
1 1 -1 1698.31 53.46
1 1 -1 1593.36 48.76
-1 -1 1 1472.96 52.98
1 1 -1 1542.73 48.8
1 1 -1 1635.78 52.54
1 1 -1 1648.83 53.29
1 1 -1 1575.4 52.17
-1 -1 1 1615.9 52.67
1 1 -1 1530.08 52.75
-1 -1 1 1486.92 53.13
1 1 -1 1629.47 52.71
-1 -1 1 1655.65 53.25
1 1 0 599.24 22.07
-1 -1 0 553.46 21.62
1 1 0 546.1 18.89
1 1 0 529.12 19.94
-1 -1 0 553.48 19.84
1 1 0 546.25 20.25
-1 -1 0 532.97 20.4
-1 -1 0 569.02 20.56
1 1 0 583.51 20.66
1 1 0 525.04 19.87
-1 -1 0 595.79 20.07
-1 -1 0 572.94 22.02
1 1 0 559.72 20.48
-1 -1 0 516.32 20.38
-1 -1 -1 6718.77 200.36
1 1 1 6456.43 200.64
-1 -1 -1 6711.29 200.38
1 1 1 6514.65 200.65
1 1 1 6269.03 196.71
-1 -1 -1 6651.4 196.82
1 1 1 6497.3 200.56
-1 -1 -1 7159.44 200.57
1 1 1 6895.06 200.86
-1 -1 -1 6863.22 199.71
1 1 1 7030.08 199.29
-1 -1 -2 208.98 11.22
1 1 2 177.75 10.41
-1 -1 -2 223.34 11.72
-1 -1 -2 204.87 10.74
1 1 2 217.71 10.72
-1 -1 -2 194.03 9.13
1 1 2 214.15 11.8
-1 -1 -2 216.74 11.59
-1 -1 -3 11.03 2.77
1 1 3 10.09 2.51
-1 -1 -3 12.37 2.68
-1 -1 -3 17.14 3.28
1 1 3 13.81 2.8
1 1 3 16.4 3.14
-1 -1 -4 1370.98 48.81
1 1 4 1406.44 50.02
-1 -1 -4 1348.95 47.29
1 1 4 1286.9 43.95
1 1 4 1336.38 49.47
-1 -1 -4 1333.21 48.57
1 1 4 1315.17 48.55
1 1 5 2571.05 88.71
-1 -1 -5 2954.43 89.88
1 1 5 2684.64 92.17
-1 -1 -5 2856.93 91.64
-1 -1 -5 2876.99 91.79
1 1 5 2738.76 92.43
1 1 5 2584.91 84.15
1 1 5 2621.93 91.56
1 1 5 2561.1 85.77
1 1 6 14.58 3.15
1 1 6 26.59 4.68
-1 -1 -6 27.32 4.62
1 1 6 26.01 4.68
1 1 6 25.06 5.21
-1 -1 -6 26.31 5.06
1 1 6 20.27 2.76
-1 -1 -6 22.87 4.84
1 1 7 533.63 20.13
1 1 7 511.22 25.85
-1 -1 -7 607.66 27.08
1 1 7 504.53 26.33
-1 -1 -7 560.2 31.36
-1 -1 -7 545.53 28.36
1 1 7 515.15 27.01
-1 -1 -7 557.97 28.69
1 1 7 525.6 25.61
1 1 8 1150.43 45.14
-1 -1 -8 1230.76 45.85
-1 -1 -8 1155.65 52.92
1 1 8 1049.93 48.61
1 1 8 1023.9 48.37
1 1 8 1120.98 46.75
1 1 8 1032.98 35.08
1 1 8 1131.51 41.86
-1 -1 -9 2686.56 98.85
1 1 9 2373.2 92.14
1 1 9 2539.1 93.57
1 1 9 2356.38 88.08
1 1 9 2372.31 81.39
1 1 9 2491.4 86.61
1 1 10 292.27 23.16
1 1 10 252.81 21.62
1 1 10 309.26 25.23
-1 -1 -10 303 25.98
1 1 10 279.12 15.45
1 1 10 290.04 21.21
1 1 11 788.45 42.79
1 1 11 759.3 45.02
-1 -1 -11 793.5 47.2
1 1 11 726.4 39.67
1 1 11 717.45 29.11
1 1 11 751.84 42.21
1 1 12 39.58 9.85
1 1 12 43.93 9.36
1 1 12 34.83 8.44
-1 -1 -12 31.18 9
1 1 12 33.1 7.98
1 1 12 46.54 9.7
1 1 13 146.39 21.42
-1 -1 -13 127.1 19.57
1 1 13 119.42 15.83
1 1 13 60.25 12.76
1 1 13 96.73 13.99
1 1 13 90.22 13.94
1 1 13 73.41 12.48
1 1 14 22.97 9.84
1 1 14 26.22 8.7
-1 -1 -14 43.19 11.5
1 1 14 27.64 7.91
1 1 14 25.05 8.09
-1 -1 -14 27.66 10.18
1 1 15 457.82 43.76
1 1 15 451.67 38.81
1 1 15 470.75 35.17
-1 -1 -15 518.85 43.44
-1 -1 -15 575.94 46.59
1 1 15 478.56 35.39
-1 -1 -16 7.21 6.23
1 1 16 11.57 8.6
-1 -1 -16 19.95 8.77
-1 -1 -17 30.6 11.44
1 1 17 8.19 7.08
-1 -1 -17 24.48 9.86
-1 -2 16 300.34 34.75
1 2 -16 264.95 33.15
-1 -2 16 263.03 33.21
-1 -2 15 28.9 10.83
1 2 -15 55.53 15.09
-1 -2 15 20.98 9.89
-1 -2 14 121.29 19.8
-1 -2 14 145.46 22.98
-1 -2 14 182.68 25.8
1 2 -14 158.62 23.65
-1 -2 13 205.43 20.91
-1 -2 13 212.62 25.61
1 2 -13 274.51 29.55
-1 -2 13 225.07 27.93
-1 -2 13 233.97 28.04
-1 -2 12 241.65 22.51
1 2 -12 310.47 30.32
-1 -2 12 262.69 27.24
-1 -2 12 294.58 30.3
-1 -2 12 225.69 27.02
-1 -2 11 30.33 9.02
1 2 -11 26.43 7.26
-1 -2 11 18.12 7.75
1 2 -11 22.15 7.77
-1 -2 11 15.54 6.85
-1 -2 11 19.04 3.74
-1 -2 11 11.92 4.83
-1 -2 10 188.73 21.21
-1 -2 10 232.77 24.58
1 2 -10 205.18 22.54
-1 -2 10 231.75 20.55
1 2 -10 220.15 19.94
-1 -2 9 40.12 9.23
1 2 -9 42.77 7.41
-1 -2 9 70.37 12.44
1 2 -9 45.42 8.45
-1 -2 9 42.37 9.99
1 2 -9 52.92 9.55
-1 -2 9 43.13 8.36
1 2 -9 49.02 10.24
1 2 -8 1100.17 55.41
-1 -2 8 1055.58 54.83
1 2 -8 1166.15 49.73
-1 -2 8 1148.64 55.38
1 2 -8 1211.15 52.99
1 2 -8 1117.01 47.8
-1 -2 8 1043.88 50.3
-1 -2 8 1081.45 56.19
-1 -2 7 32.23 7.6
1 2 -7 26.96 6.72
-1 -2 7 31.79 7.3
1 2 -7 20.08 4.76
1 2 -7 35.59 5.12
1 2 -7 31.83 4.93
-1 -2 7 32.46 6.51
1 2 -7 15.99 4.81
-1 -2 7 33.36 7.6
1 2 -7 31.33 5.73
1 2 -6 4138.59 136.2
1 2 -6 3638.68 124.16
-1 -2 6 4099.27 137.55
1 2 -6 3913.56 127.98
1 2 -6 3780.43 124.58
1 2 -6 4158.72 124.2
1 2 -6 4003.98 123.98
1 2 -6 3897.79 128.6
1 2 -6 3883.39 132.04
-1 -2 6 4007.75 136.6
1 2 -6 3923.39 123.9
-1 -2 6 3737.34 137.38
1 2 -6 3915.54 131.6
-1 -2 5 776.29 35.63
1 2 -5 895.1 39.61
1 2 -5 810.02 32.03
-1 -2 5 820.05 39.69
1 2 -5 796.27 33.34
1 2 -5 788.25 31.96
1 2 -5 853.75 31.69
-1 -2 5 817.67 39.6
1 2 -5 843.04 37.16
1 2 -5 832.29 38.07
-1 -2 5 792.97 40.59
1 2 -5 791.13 32.33
1 2 -5 869.43 31.89
1 2 -5 868.91 37.43
1 2 -5 874.54 38.13
1 2 -4 1709.02 63.77
1 2 -4 1800.35 65.25
1 2 -4 1795.71 65.23
1 2 -4 1745.95 59.03
-1 -2 4 1783.67 66.65
-1 -2 4 1560.79 62.97
1 2 -4 1905.64 65.71
1 2 -4 1728.09 62.93
1 2 -4 1762.36 59.22
1 2 -4 1730.4 59.1
-1 -2 4 1803.62 67.57
1 2 -4 1802.08 64.59
1 2 -4 1808.89 64.7
1 2 -3 455.19 19.91
-1 -2 3 465.05 24.06
1 2 -3 441.44 19.9
1 2 -3 479.32 18.6
1 2 -3 483.38 23.22
1 2 -3 504.06 24.04
1 2 -3 463.87 23.2
1 2 -3 519.73 23.92
-1 -2 2 170.84 12.54
1 2 -2 159.16 11.54
1 2 -2 167.96 11.7
-1 -2 2 180.03 12.54
1 2 -2 139.93 8.44
1 2 -2 175.11 11.02
-1 -2 2 162.75 11.47
1 2 -2 138.2 9.06
1 2 -2 122.94 8.7
1 2 -2 163.54 6.66
-1 -2 2 156.03 11.11
1 2 -2 142.68 11.58
-1 -2 2 155.38 11.36
1 2 -2 143.72 10.94
-1 -2 2 162 11.91
1 2 -1 64.18 5.8
1 2 -1 70.37 5.86
-1 -2 1 86.2 8.04
1 2 -1 73.4 7.15
1 2 -1 72.6 6.17
1 2 -1 57.22 5.6
-1 -2 1 66.54 6.69
-1 -2 1 71.21 6.97
1 2 -1 73.42 7.52
-1 -2 1 80.88 7.51
1 2 -1 76.72 7.35
-1 -2 1 75.65 7.69
-1 -2 1 68.76 7.1
1 2 0 43.8 4.93
1 2 0 49.98 4.69
1 2 0 55.01 6.08
1 2 0 50.77 5.37
1 2 0 48.78 5.3
-1 -2 0 53.12 5.75
-1 -2 0 63.48 6.24
1 2 0 54.96 6.03
1 2 0 62.41 6.4
-1 -2 -1 212.54 12.44
1 2 1 225.42 13.35
-1 -2 -1 221.81 12.62
1 2 1 209.78 12.92
-1 -2 -1 239.06 12.96
1 2 1 220.88 13.09
1 2 1 218.86 12.71
-1 -2 -1 242.53 14.07
1 2 1 230.32 13.22
1 2 1 216.45 12.19
-1 -2 -1 209.93 9.22
1 2 2 8040.53 238.54
-1 -2 -2 8338.05 241.77
-1 -2 -2 8424.66 241.86
1 2 2 8066.69 235.75
1 2 2 8269.63 240.72
-1 -2 -2 8615.92 242.12
1 2 2 8145.15 242.12
-1 -2 -3 19.11 3.79
-1 -2 -3 19.15 3.8
1 2 3 6.2 2.29
-1 -2 -3 5.03 1.74
1 2 3 7.62 1.89
-1 -2 -3 8.68 2.07
-1 -2 -3 8.45 2.39
-1 -2 -3 5.52 2.04
1 2 3 7.96 2.41
-1 -2 -4 1336.02 49.8
-1 -2 -4 1264.85 49.4
1 2 4 1254.21 48.22
-1 -2 -4 1271.83 49.36
-1 -2 -4 1320.83 50.65
1 2 4 1250.41 48.91
1 2 4 1334.34 46.79
-1 -2 -4 1247.61 45.84
1 2 4 1197.98 44.91
-1 -2 -4 1311.65 46.22
-1 -2 -4 1321.17 40.77
-1 -2 -5 189.46 14.18
1 2 5 198.37 14.45
-1 -2 -5 185.06 14.1
-1 -2 -5 209.65 15.33
-1 -2 -5 197.24 13.21
1 2 5 180.15 13.12
1 2 5 177.25 10.82
-1 -2 -5 207.86 11.82
-1 -2 -5 204.73 9.57
-1 -2 -6 2868.32 92.65
1 2 6 2779.61 98.89
-1 -2 -6 3236.66 105.88
-1 -2 -6 3044.79 102.23
-1 -2 -6 3122.04 103.84
1 2 6 2842.42 100.66
-1 -2 -6 3089.25 100.55
1 2 6 3020.27 101.87
1 2 6 2764.61 92.64
-1 -2 -6 3171.75 102.69
1 2 7 1053.73 44.57
-1 -2 -7 1141.28 47.03
1 2 7 1050 37.51
1 2 7 1101.72 46.57
-1 -2 -7 1102.02 48.34
-1 -2 -7 1228.12 51.75
1 2 8 2532.57 79.82
-1 -2 -8 2874.05 99.41
1 2 8 2398.45 77.58
-1 -2 -8 2794.6 94.38
1 2 9 469.23 30.03
1 2 9 412.19 16.14
-1 -2 -9 527.3 33.33
1 2 9 484.46 30.49
1 2 10 13.29 4.97
1 2 10 11.69 5
-1 -2 -10 9.97 5.26
1 2 11 34.27 8.06
1 2 11 21.78 6.55
1 2 11 23.98 4.19
-1 -2 -11 17.8 6.68
-1 -2 -12 1234.87 63.49
1 2 12 1059.12 55.25
1 2 12 1092.82 60
1 2 12 994.16 37.77
1 2 12 1042.72 45.57
1 2 12 1129.08 56.36
1 2 13 44.62 11.14
1 2 13 24.87 7.79
1 2 13 35.37 9.09
-1 -2 -13 48.92 12.45
-1 -2 -14 77.09 15.45
1 2 14 65.75 12.29
1 2 14 56.52 13.03
1 2 14 63.76 12.33
1 2 14 46.56 12.96
1 2 14 68.07 12.08
-1 -2 -15 3.22 5.57
1 2 15 16.1 6.88
1 2 15 18.36 6.87
1 2 15 9.08 6.04
1 2 15 21.67 9.52
1 2 15 13.98 5.98
1 2 16 369.77 40.42
-1 -2 -16 371.65 38.35
-1 -2 -16 413.4 40.84
1 2 16 414.69 38.92
-1 -2 -17 203.55 28.49
-1 -2 -17 182.45 27.5
1 2 17 141.37 25.36
1 3 -15 7.11 6.14
1 3 -15 3.97 6.85
-1 -3 15 15.14 8.43
-1 -3 14 50.24 14.36
1 3 -14 36.87 13
-1 -3 14 36.13 11.41
-1 -3 13 527.47 38.08
-1 -3 13 518.75 45.57
1 3 -13 536.65 44.26
-1 -3 13 496.16 42.36
-1 -3 12 59.28 13.68
-1 -3 12 100.45 15.4
1 3 -12 86.24 16.11
-1 -3 11 267.77 19.8
-1 -3 11 277.75 28.05
-1 -3 11 228.47 23.48
1 3 -11 286.23 28.72
1 3 -10 26.15 8.55
-1 -3 10 13.95 6.15
-1 -3 10 29.24 9.19
-1 -3 10 21.9 7.17
-1 -3 10 12.94 4.49
-1 -3 9 1337.2 65.2
-1 -3 9 1231.04 66.85
-1 -3 9 1277.07 55.87
1 3 -9 1273.58 64.5
1 3 -9 1326.36 58.81
-1 -3 9 1256.45 61.87
-1 -3 8 45.06 8.12
1 3 -8 41.87 9.36
1 3 -8 33.28 6.24
-1 -3 8 36.76 8.45
-1 -3 8 55.02 11.66
-1 -3 8 47.96 9.62
1 3 -8 43.87 8.25
-1 -3 7 324.61 23.55
1 3 -7 359.99 27.08
1 3 -7 370.68 21.24
-1 -3 7 383.89 27.54
1 3 -7 380.35 21.22
1 3 -7 364.97 21.22
1 3 -7 344.59 20.53
1 3 -7 364.76 23.53
-1 -3 7 392.41 30.13
-1 -3 7 368.01 27.13
1 3 -6 1.03 1.78
-1 -3 6 3.55 3.06
-1 -3 6 1.51 2.12
1 3 -6 5.91 3.29
1 3 -6 0.7 1.2
1 3 -6 -1.76 2.48
1 3 -6 2.53 1.68
1 3 -6 1.7 1.69
-1 -3 6 1.41 2.43
1 3 -5 1181.04 51.9
1 3 -5 1169.61 42.16
1 3 -5 1158.41 45.92
1 3 -5 1122.04 54.34
-1 -3 5 1174.87 51.02
1 3 -5 1148.04 45.72
-1 -3 5 1086.85 50.28
-1 -3 5 1150.93 50.38
-1 -3 5 1191.13 55.39
1 3 -5 1171.18 46.6
1 3 -4 182.38 12.91
1 3 -4 153.61 8.92
1 3 -4 160.81 15.84
1 3 -4 174.32 13.69
-1 -3 4 184.86 16.99
1 3 -4 154.54 7.78
1 3 -4 154.53 14.18
1 3 -4 168.43 12.46
1 3 -4 186.46 14.1
-1 -3 4 134.17 12.88
1 3 -3 945.24 34.92
1 3 -3 1024.64 42.97
-1 -3 3 1008.65 41.75
-1 -3 3 1010.55 42
1 3 -3 1045.2 41.38
1 3 -3 972.83 40.02
-1 -3 3 1009.57 41.76
1 3 -3 981.32 40.32
1 3 -3 959.1 39.87
1 3 -3 998.75 45.89
1 3 -3 1059.25 43.33
-1 -3 3 1019.84 45.86
1 3 -3 1028.66 44.25
-1 -3 3 971.37 45.26
1 3 -2 436.23 23.2
1 3 -2 456.68 19.92
-1 -3 2 447.88 22.83
-1 -3 2 430.37 22.03
1 3 -2 419.85 22.28
1 3 -2 446.35 25.97
-1 -3 2 492.05 23.66
1 3 -2 425.03 22.06
-1 -3 2 441.03 22.11
1 3 -2 471.92 23.06
1 3 -2 452.03 22.25
1 3 -2 469.96 25.36
-1 -3 2 404.5 22.42
1 3 -2 453.23 24.69
-1 -3 1 1115.81 41.74
1 3 -1 1007.96 39.65
1 3 -1 1103.3 42.62
-1 -3 1 1078.76 42.15
1 3 -1 1038.1 40.51
1 3 -1 1116.4 43.31
-1 -3 1 1107.47 42.46
1 3 -1 1080.32 43.05
-1 -3 1 1089.69 44.48
1 3 -1 1067.2 38.89
-1 -3 1 1011.32 42.08
1 3 -1 1060.77 44.45
1 3 -1 1122.73 45.26
-1 -3 0 46.91 5.67
1 3 0 40.04 5.38
1 3 0 46.81 5.91
1 3 0 50.68 6.63
-1 -3 0 43.11 3.09
1 3 0 54.72 6.87
-1 -3 0 44.71 6.53
1 3 0 33.95 3.58
-1 -3 0 42.15 5.94
1 3 0 57.92 7.37
1 3 0 39.59 6.14
1 3 1 752.91 32.34
-1 -3 -1 687.92 32.77
-1 -3 -1 797.41 31.23
-1 -3 -1 774.78 31.59
1 3 1 732.83 33.55
-1 -3 -1 719.44 27.12
1 3 1 769.99 34.05
-1 -3 -1 810.48 34.19
1 3 1 780.84 33.95
-1 -3 -1 655.74 33.32
1 3 1 754.94 33.89
1 3 2 78.1 8.6
-1 -3 -2 65.1 7.37
-1 -3 -2 64.35 6.25
-1 -3 -2 61.49 7.52
1 3 2 79.7 9.02
1 3 2 68.53 7.87
-1 -3 -2 71.55 7.28
1 3 2 69.41 6.06
-1 -3 -2 61.31 7.81
1 3 2 57.02 6.19
1 3 2 64.21 7.63
1 3 2 87.84 9.41
-1 -3 -2 60.43 7.49
-1 -3 -3 2594.54 93.76
1 3 3 2679.53 94.12
1 3 3 2740.06 88.69
1 3 3 2788.08 88.53
-1 -3 -3 2830.8 94.17
-1 -3 -3 2713.45 94.27
-1 -3 -4 1026.58 43.8
1 3 4 1043.24 43.92
1 3 4 1006.94 39.44
-1 -3 -4 1019.92 39.05
-1 -3 -4 957.28 41.01
1 3 4 1026.76 41
-1 -3 -4 1044.93 43.97
-1 -3 -5 7722.79 218.4
1 3 5 7537.86 232.68
-1 -3 -5 7644.24 233.42
-1 -3 -5 6991.05 223.8
1 3 5 7135.29 225.14
-1 -3 -5 7050.66 224.77
-1 -3 -5 6938.79 219.68
1 3 5 7024.12 223.62
1 3 5 7220.67 231.89
1 3 6 704.11 36.18
-1 -3 -6 627.47 33.68
1 3 6 596.72 34.07
-1 -3 -6 621.43 34.45
-1 -3 -6 611.32 29.97
1 3 6 666.4 31.79
1 3 6 655.1 28.31
-1 -3 -6 622.35 26.13
-1 -3 -6 631.87 28.64
-1 -3 -6 648.64 24.67
1 3 7 514.99 31.13
-1 -3 -7 481.87 30.02
1 3 7 492.97 30.36
1 3 7 480.01 27.47
-1 -3 -7 492.07 26.64
-1 -3 -7 471.29 22.57
1 3 7 429.49 21.46
-1 -3 -7 438.3 19.77
-1 -3 -7 507.36 30.48
-1 -3 -8 249.93 21.23
-1 -3 -8 279.22 23.14
1 3 8 221.47 19
-1 -3 -9 512.27 33.06
-1 -3 -9 511.39 34.36
-1 -3 -10 403.71 29.12
1 3 10 370.51 23.45
1 3 10 359.99 28.64
-1 -3 -10 443.43 32.63
1 3 10 373.4 19.14
1 3 10 367.27 28.93
1 3 11 17.93 6.3
-1 -3 -11 20.76 7.29
1 3 11 18.13 4.82
1 3 11 26.04 7.75
1 3 12 89.35 14.31
-1 -3 -12 89.47 15.72
1 3 12 89.22 10.59
1 3 12 106.88 15.73
1 3 13 852.07 50.79
1 3 13 894.72 51.87
-1 -3 -13 916.62 56.72
1 3 13 783.15 37.88
1 3 14 111.66 17.26
1 3 14 140.78 18.89
1 3 14 120.04 19.94
-1 -3 -14 107.13 19.11
1 3 15 851.05 53.32
1 3 15 940.91 61.64
1 3 15 821.65 61.06
1 3 15 833.96 52.7
-1 -3 -15 873.11 60.32
1 3 16 86.39 18.41
1 3 16 84.03 15.66
-1 -3 -16 102.72 20.14
1 3 16 107.3 17.1
1 3 16 86.36 19.73
1 3 17 7.21 6.22
1 3 17 2.58 4.46
-1 -3 -17 -3.76 7.49
1 3 17 4.19 5.89
1 3 17 5.18 4.47
1 3 18 3.72 6.42
1 4 -14 138.75 22.84
1 4 -14 179.4 28.15
-1 -4 14 151.8 25.52
1 4 -13 26.33 10.61
-1 -4 13 11.09 7.38
1 4 -13 13.1 7.31
-1 -4 13 18.51 7.91
1 4 -12 360.33 35.59
-1 -4 12 402.86 34.66
1 4 -12 405.28 40.09
1 4 -11 36.71 10.99
1 4 -11 58.92 14.65
-1 -4 11 65.35 13.56
-1 -4 11 62.45 10.87
-1 -4 11 32.46 11.3
-1 -4 11 57.97 12.39
1 4 -10 98.48 16.52
-1 -4 10 70.93 13.52
1 4 -10 81.53 16.66
-1 -4 10 78.71 12.2
-1 -4 10 135.87 21.2
-1 -4 10 84.53 15.23
-1 -4 9 218.79 22.75
1 4 -9 269.03 28.7
1 4 -9 264.37 26.34
-1 -4 9 258.18 28.18
-1 -4 9 257.63 25.83
-1 -4 9 242.75 22.39
-1 -4 8 793.95 45.87
1 4 -8 871.95 53.76
1 4 -8 924.49 50.96
-1 -4 8 867.17 53.24
-1 -4 8 798.42 45.14
-1 -4 8 770.5 48.15
-1 -4 7 59.3 10.48
1 4 -7 65.65 11.72
1 4 -7 72.03 13.45
-1 -4 7 102.18 15.82
-1 -4 7 75.94 12.93
-1 -4 7 65.5 10.89
-1 -4 6 1361.55 64.82
1 4 -6 1466.67 66.31
1 4 -6 1489.29 59.69
-1 -4 6 1534.52 63.88
1 4 -6 1488.14 59.77
1 4 -6 1519.7 71.35
1 4 -6 1423.14 56.87
-1 -4 6 1381.09 67.53
-1 -4 6 1564.51 72.29
-1 -4 5 6.62 3.7
1 4 -5 12.45 4.92
-1 -4 5 15.15 4.72
1 4 -5 16.85 4.63
1 4 -5 13.6 5.49
1 4 -5 10.08 3.88
1 4 -5 15.07 4.14
-1 -4 5 13.76 4.51
-1 -4 5 11.51 5.07
1 4 -4 12.6 4.64
-1 -4 4 14.44 4.15
1 4 -4 10 3.69
-1 -4 4 12.07 4.87
1 4 -4 11.89 3.71
1 4 -4 21.31 6.63
1 4 -4 11.07 3.84
1 4 -3 208.91 16.56
1 4 -3 173.66 17.97
-1 -4 3 193.23 15.18
1 4 -3 217.22 17.74
-1 -4 3 208.21 19.34
1 4 -3 184.55 14.22
1 4 -3 198.26 15.99
-1 -4 2 1511.47 62.92
1 4 -2 1414.14 51.4
-1 -4 2 1448.04 56.09
1 4 -2 1339.99 57.02
1 4 -2 1277.08 57.68
1 4 -2 1371.59 56.9
1 4 -2 1403.25 61.64
-1 -4 2 1367.72 54.48
-1 -4 2 1480.83 62.93
1 4 -2 1397.78 52.69
1 4 -2 1408.47 57.13
-1 -4 1 153.53 13.36
1 4 -1 124.36 10.38
1 4 -1 149.05 13.69
-1 -4 1 148.24 13.16
1 4 -1 165.29 14.4
-1 -4 1 145.75 15.15
-1 -4 1 139.59 12.35
1 4 -1 137.25 9.62
-1 -4 1 141.29 12.3
1 4 -1 121.78 12.26
1 4 -1 135.94 11.15
-1 -4 1 145.15 15.29
1 4 0 2828.75 99.98
1 4 0 2861.59 92.55
-1 -4 0 2741.59 97.56
-1 -4 0 2675.17 85.62
-1 -4 0 2827.22 98.18
1 4 0 2902.92 100.32
-1 -4 0 2889.43 103.54
-1 -4 0 2756.1 96.61
1 4 0 2772.99 86.98
1 4 0 2729.58 94.73
1 4 0 2751.4 97.31
-1 -4 0 2868.5 95.88
-1 -4 0 2898.1 103.46
-1 -4 -1 444.41 19.48
1 4 1 452.12 27.07
-1 -4 -1 454.1 24.24
1 4 1 455.2 24.92
-1 -4 -1 458.72 28.53
1 4 1 457.29 27.17
-1 -4 -1 493.04 26.08
-1 -4 -2 3759.48 121.65
1 4 2 3535.23 122.81
-1 -4 -2 3499.8 116.4
1 4 2 3888.96 127.71
-1 -4 -2 3594.31 119.49
1 4 2 3610.29 117.85
-1 -4 -2 3637.59 126.71
1 4 2 3857.62 127.56
-1 -4 -3 530.24 27.06
-1 -4 -3 550.39 30.64
-1 -4 -3 458.37 24.28
1 4 3 519.17 30.47
1 4 3 483.69 29.52
1 4 3 515.6 24.37
1 4 3 464.09 22.73
-1 -4 -3 508.96 29.02
-1 -4 -3 498.34 25.25
-1 -4 -4 286.66 18.39
-1 -4 -4 366.41 24.68
1 4 4 345.48 23.97
1 4 4 314.33 18.41
-1 -4 -4 280.52 20.33
1 4 4 296.54 19.98
1 4 4 310.07 22.86
1 4 5 42.08 8.27
-1 -4 -5 34.56 6.68
1 4 5 36.12 7.72
-1 -4 -5 45.59 8.63
1 4 5 44.67 6.76
-1 -4 -5 52.19 7.97
-1 -4 -5 33.14 3.26
1 4 6 626.55 36.17
-1 -4 -6 531.68 31.9
1 4 6 534.5 34
-1 -4 -6 586.04 35.75
-1 -4 -6 582.86 29.99
1 4 6 552.6 29.46
1 4 7 8.68 4.58
-1 -4 -7 3.5 3.49
1 4 7 13.91 5.48
-1 -4 -7 8 3.16
1 4 7 15.64 4.65
1 4 8 1052.6 54.14
1 4 8 1046.07 53.95
1 4 8 974.36 47.54
-1 -4 -8 1059.69 43.92
1 4 8 1069.35 49.55
-1 -4 -8 1092.63 55
1 4 9 82.04 11.92
-1 -4 -9 81.34 13.2
1 4 9 93.16 11.67
-1 -4 -10 387.57 31.16
1 4 10 379.73 30.45
1 4 10 331.99 23.73
1 4 10 348.88 27.41
-1 -4 -10 354.13 29.69
1 4 10 378.78 30.6
1 4 11 143.77 18.79
-1 -4 -11 130.32 18.47
-1 -4 -11 168.94 20.12
1 4 11 147.86 14.71
1 4 11 133.14 18.05
-1 -4 -12 810.22 52.68
1 4 12 914.06 53.32
1 4 12 785.06 39.78
1 4 12 851.4 51.74
1 4 13 2.5 4.31
1 4 13 2.36 2.63
-1 -4 -13 -2.91 5.03
1 4 13 7.54 5
1 4 14 31.3 9.82
1 4 14 57.69 13.13
-1 -4 -14 75.85 15.8
1 4 15 8.17 6.08
1 4 15 16.23 7.14
1 4 15 17.67 8.63
-1 -4 -15 10.23 6.8
1 4 16 696.15 49.55
1 4 16 707.42 49.86
-1 -4 -16 869.91 61.33
1 4 16 718.64 56.69
-1 -4 -17 30.78 11.5
1 4 17 16.86 7.42
1 4 17 19.31 9.43
1 4 17 11.2 6.26
1 5 -13 328.74 38.57
-1 -5 13 299.36 31.89
1 5 -12 38.6 12.82
-1 -5 12 48.17 12.44
1 5 -12 45.49 13.41
-1 -5 12 57.27 15.27
1 5 -11 29.12 10.93
-1 -5 11 38.59 9.61
-1 -5 11 50.16 12.86
1 5 -11 48.8 12.57
-1 -5 11 28.9 10.85
1 5 -10 40.9 12.79
-1 -5 10 60.15 14.05
1 5 -10 68.2 14.51
-1 -5 10 64.18 12.36
-1 -5 10 30.54 10.79
1 5 -9 384.67 33.98
1 5 -9 404.18 38.19
-1 -5 9 364.24 34.23
-1 -5 9 332.06 35.26
-1 -5 9 404.03 32.42
-1 -5 8 -2.23 3.14
1 5 -8 -2.43 4.19
1 5 -8 5.91 5.89
-1 -5 8 -2.93 5.84
-1 -5 8 -2.64 2.63
-1 -5 7 145.69 18.58
-1 -5 7 100.62 16.59
1 5 -7 109.46 18.4
-1 -5 7 121.71 18.78
1 5 -7 111.73 16.56
1 5 -6 4.1 3.53
1 5 -6 2.53 2.52
1 5 -6 8.8 4.39
-1 -5 6 7.17 4.76
-1 -5 6 2.49 3.51
1 5 -6 2.94 2.54
-1 -5 6 2.17 3.05
-1 -5 5 1359.23 67.47
1 5 -5 1372.48 65.35
1 5 -5 1422.43 61.33
1 5 -5 1362.37 60.67
1 5 -5 1389.64 70.61
-1 -5 5 1347.44 69.52
-1 -5 5 1423.58 59.55
-1 -5 4 93.71 11.14
1 5 -4 97.01 12.58
1 5 -4 72.29 10.98
1 5 -4 124 17.03
1 5 -4 119.26 14.89
-1 -5 4 123.18 16.63
-1 -5 4 103.32 15.73
1 5 -3 718 39.44
1 5 -3 676.26 38.55
1 5 -3 665.63 37.48
1 5 -3 713.88 43.22
-1 -5 3 645.4 33.52
1 5 -3 703.16 32.53
1 5 -3 676.49 37.7
-1 -5 3 711.64 43.41
-1 -5 3 627.42 33.11
1 5 -2 190.98 17.33
1 5 -2 151.61 12.43
1 5 -2 158.43 16.3
1 5 -2 167.86 16.87
-1 -5 2 165.49 18.88
1 5 -2 171.84 12.55
-1 -5 2 158.3 14.33
-1 -5 2 142.54 17.59
1 5 -2 144.62 15.65
1 5 -1 1177.34 52.36
1 5 -1 1116.39 45.49
1 5 -1 1182.25 54.94
1 5 -1 1170.09 54.8
-1 -5 1 1153.11 58.15
-1 -5 1 1181.47 50.41
1 5 -1 1139.85 42.76
-1 -5 1 1293.15 60.17
1 5 -1 1312.93 55.56
1 5 0 149.67 14.51
-1 -5 0 149.77 8.44
1 5 0 155.62 16.27
-1 -5 0 136.48 16.51
1 5 0 154.11 8.32
-1 -5 0 164.23 14.61
-1 -5 0 150.59 17.33
1 5 0 154.2 16.21
1 5 0 158.28 11.9
-1 -5 -1 835.3 32.56
1 5 1 816.02 43.61
1 5 1 829.3 43.89
-1 -5 -1 830.06 45.36
-1 -5 -1 801.91 41.87
-1 -5 -1 888.46 41.14
1 5 2 509.6 33.01
1 5 2 512.97 33.06
-1 -5 -2 584.49 25.92
-1 -5 -2 483.5 31.39
1 5 2 516.51 27.71
-1 -5 -2 545.05 34.36
1 5 3 205.51 19.62
-1 -5 -3 151.52 16.73
1 5 3 175.07 14.17
1 5 3 200.12 19.3
-1 -5 -4 1.08 1.86
1 5 4 1.76 2.48
-1 -5 -4 3.45 3.44
1 5 4 -1.75 2.47
-1 -5 -4 1.56 2.19
1 5 4 1.4 1.56
1 5 4 -1 1.72
1 5 5 2576.49 103.65
1 5 5 2621.86 104.22
-1 -5 -5 2521.35 95.28
-1 -5 -5 2755.51 104.55
-1 -5 -5 2611.13 99.11
1 5 5 2606.09 93.41
1 5 6 198.34 20.57
1 5 6 186.92 20.04
-1 -5 -6 146.95 15.75
-1 -5 -6 188.46 20.1
-1 -5 -6 162.41 16.28
1 5 6 177.16 15.63
1 5 7 220.3 22.47
-1 -5 -7 165.49 17.75
1 5 7 189.42 20.92
-1 -5 -7 154.35 19.25
-1 -5 -7 200.03 17.78
1 5 7 198.65 17.3
-1 -5 -8 87.46 13.29
1 5 8 74.17 13.23
1 5 8 80.86 13.77
-1 -5 -8 53.07 11.45
-1 -5 -8 90.87 11.26
1 5 8 74.6 10.93
-1 -5 -9 741.24 44.58
1 5 9 636.51 38.58
-1 -5 -9 740.74 46.68
1 5 9 696.42 39.61
-1 -5 -10 6.9 4.6
1 5 10 20.77 6.38
1 5 10 27.33 7.5
-1 -5 -10 24.63 8.15
1 5 11 426.42 36.05
1 5 11 463.89 30.27
1 5 11 463.38 37.53
1 5 11 506.51 34.99
-1 -5 -11 388.87 34.84
1 5 12 463.27 38.88
-1 -5 -12 539.19 41.44
1 5 12 540.27 41.5
1 5 12 514.34 31.69
1 5 13 641.02 46.43
1 5 13 570.61 33.24
1 5 13 621.63 46.11
1 5 14 107.42 18.69
1 5 14 72.22 15.44
-1 -5 -14 91.46 18.29
1 5 15 228.86 27.33
-1 -5 -15 238.34 30.18
1 5 15 191.17 28.23
1 5 15 274.75 29.92
1 5 16 -3.02 3.01
-1 -5 -16 -3.73 5.25
1 5 16 3.05 5.25
1 5 16 3.97 6.85
1 5 16 -3.92 3.9
1 5 17 15.28 7.47
1 5 17 15.21 7.43
1 5 17 12.34 8.2
1 5 17 12.42 8.25
-1 -6 12 122.13 21.4
-1 -6 11 30.33 11.18
-1 -6 11 35.62 12.51
1 6 -11 43.42 13.66
1 6 -10 120.25 22.04
-1 -6 10 106.43 17.45
-1 -6 10 99.23 18.89
1 6 -10 117.51 19.96
-1 -6 10 86.65 19.74
1 6 -9 42.62 13.3
-1 -6 9 25.75 9.7
1 6 -9 37.9 11.68
-1 -6 9 81.69 17.73
-1 -6 9 64.81 13.77
-1 -6 8 261.81 30.1
1 6 -8 292.56 29.98
1 6 -8 304.67 33.86
-1 -6 8 254.69 28.09
-1 -6 8 312.85 33.67
1 6 -7 53.47 13.69
-1 -6 7 24 9.5
1 6 -7 43.36 11.12
-1 -6 7 18.64 8.81
-1 -6 7 45.77 11.42
1 6 -6 518.03 38.34
-1 -6 6 541.4 42.4
-1 -6 6 451.86 38.17
1 6 -6 505.34 42.06
-1 -6 6 483.58 40.6
1 6 -6 484.81 37.38
1 6 -5 20.17 6.6
1 6 -5 16.71 7.85
-1 -6 5 26.92 8.9
1 6 -5 10.86 5.73
1 6 -5 11.1 5.43
1 6 -5 12.88 5.51
-1 -6 5 5.2 4.5
1 6 -4 616.07 40.11
1 6 -4 601.02 39.04
1 6 -4 667.14 39.58
1 6 -4 609.94 38.28
-1 -6 4 578.91 31.98
-1 -6 4 547.36 42.56
-1 -6 4 576.72 42.23
1 6 -3 9.34 4.56
1 6 -3 3.73 3.72
-1 -6 3 7.6 5.05
1 6 -3 7.23 4.41
1 6 -3 3.93 3.39
-1 -6 3 4.57 2.55
1 6 -2 1197.86 60.71
1 6 -2 1240.35 59.21
1 6 -2 1314.17 62.62
1 6 -2 1366.15 63.41
-1 -6 2 1243.7 67.17
-1 -6 2 1227.71 52.41
-1 -6 2 1330.82 68.14
1 6 -1 487.68 30.93
-1 -6 1 469.41 26.78
-1 -6 1 496.86 37.01
1 6 -1 509.7 34.48
-1 -6 1 467.57 28.1
1 6 -1 448.26 20.35
-1 -6 1 491.78 37.2
1 6 -1 455 32.69
1 6 0 18.63 4.05
-1 -6 0 30.27 3.11
-1 -6 0 13.25 2.24
1 6 0 15.47 6.12
1 6 0 17.41 6.41
-1 -6 0 21.13 5.76
-1 -6 0 18.08 7.14
-1 -6 0 17.99 4.78
1 6 1 -0.79 1.11
-1 -6 -1 -1.13 1.48
1 6 1 -1.97 2.78
-1 -6 -1 1.4 1.97
1 6 1 -1.98 2.78
-1 -6 -1 -2.19 2.18
-1 -6 -2 788.15 41.08
1 6 2 796.82 46.13
-1 -6 -2 716.03 42.75
1 6 2 723.41 37.18
-1 -6 -2 848.17 48.01
1 6 2 690.47 43.73
1 6 3 467.52 33.98
-1 -6 -3 414.56 31.64
1 6 3 402.62 25.39
1 6 3 408.38 32.03
-1 -6 -3 476.23 33.92
1 6 4 548.52 37.81
-1 -6 -4 522.15 35.68
1 6 4 469.32 28.36
1 6 4 535.99 37.34
-1 -6 -4 494.17 28.48
1 6 5 38.09 9.53
-1 -6 -5 40.17 9.2
1 6 5 51.17 8.43
-1 -6 -5 25.99 6.34
1 6 5 51.29 11.16
-1 -6 -6 1533.62 68.24
1 6 6 1677.37 78.54
-1 -6 -6 1594.01 76.92
1 6 6 1560.04 65.96
-1 -6 -6 1596.01 72.08
1 6 6 1708.97 78.78
-1 -6 -7 171.71 18.81
1 6 7 170.41 21.36
-1 -6 -7 181.1 22.15
1 6 7 175.76 17.19
-1 -6 -7 189.6 19.31
1 6 7 187.44 22.31
-1 -6 -8 612.09 39.72
1 6 8 628.82 44.55
-1 -6 -8 634.88 45.06
1 6 8 621.61 36.57
-1 -6 -8 625.16 37.44
1 6 8 624.3 44.29
1 6 9 213.43 25.26
1 6 9 213.37 20.8
-1 -6 -9 241.78 24.42
1 6 9 229.9 26.27
-1 -6 -9 265.71 28.09
-1 -6 -10 42.72 12.14
1 6 10 59.41 11.08
-1 -6 -10 58.1 12.39
1 6 11 11.64 7.67
1 6 11 9.28 4.53
-1 -6 -11 5.95 5.93
1 6 11 2.92 4.11
-1 -6 -11 13.25 7.47
1 6 12 886.89 59.15
1 6 12 922.88 49.15
-1 -6 -12 1021.54 63.66
-1 -6 -12 934.59 59.25
1 6 12 925.92 60.28
-1 -6 -13 3.12 3.11
1 6 13 12.51 6.97
1 6 13 3.12 4.39
-1 -6 -14 33.62 11.13
1 6 14 41.73 11.99
1 6 14 15.98 8.46
1 6 15 10.88 7.23
1 6 15 3.26 5.63
1 6 15 9.83 6.53
-1 -6 -15 10.74 7.13
1 6 16 282.99 32.34
1 6 16 337.27 35.21
1 6 16 238.03 31.91
1 7 -10 -3.35 6.67
-1 -7 10 6.13 5.29
-1 -7 10 18.54 9.04
-1 -7 9 588.97 49.49
1 7 -9 502.38 43.21
-1 -7 9 460.31 45.88
-1 -7 9 549.44 45.19
-1 -7 8 7.41 6.39
1 7 -8 2.96 4.17
-1 -7 8 12.68 7.74
-1 -7 8 7.19 6.2
-1 -7 7 251.95 30.71
-1 -7 7 149.27 23.07
-1 -7 7 185.35 27.12
1 7 -7 202.4 25.07
1 7 -7 206.95 24.92
-1 -7 6 -3.3 5.68
-1 -7 6 3.15 4.44
1 7 -6 2.71 5.4
1 7 -6 -2.55 5.09
-1 -7 6 -3.38 6.73
-1 -7 5 464.56 40.33
-1 -7 5 410.92 38.83
1 7 -5 417.07 36.13
1 7 -5 449.82 35.45
1 7 -4 8.93 5.45
-1 -7 4 -2.89 4.08
-1 -7 4 6.3 5.44
1 7 -4 4.33 4.31
1 7 -4 9.81 5.46
1 7 -3 310.7 28.24
1 7 -3 315.03 28.49
1 7 -3 276.7 25.46
-1 -7 3 310.06 32.4
-1 -7 3 294.61 20.25
1 7 -3 320.54 29.23
-1 -7 3 309.41 30.54
1 7 -2 135.58 18.38
1 7 -2 121.95 15.59
-1 -7 2 122.03 12.23
1 7 -2 110.25 16.57
-1 -7 2 137.1 20.66
-1 -7 1 295.57 31.05
-1 -7 1 323.87 21.62
1 7 -1 354.57 30.76
1 7 0 113.72 16.8
-1 -7 0 121.63 18.92
-1 -7 0 97.25 11.25
1 7 0 104.16 16.28
-1 -7 -1 265.65 13.89
1 7 1 289.05 27.87
-1 -7 -1 303.57 30.11
-1 -7 -1 307.46 21.39
1 7 1 331.97 29.92
-1 -7 -2 -1.67 2.88
1 7 2 -1.38 3.37
-1 -7 -2 2.61 2.6
1 7 2 4.92 4.9
1 7 2 2.46 4.24
1 7 3 486 38.02
-1 -7 -3 486.97 26.18
1 7 3 484.55 37.93
-1 -7 -3 470.66 37.76
1 7 3 451.87 26.99
-1 -7 -3 432.18 31.44
-1 -7 -3 481.43 36.65
1 7 4 46.7 11.33
-1 -7 -4 65.16 13
1 7 4 30.99 9.36
-1 -7 -4 44.09 10.71
-1 -7 -4 41.62 7.52
-1 -7 -5 1068.69 49.48
1 7 5 899.69 57.98
-1 -7 -5 987.53 58.64
1 7 5 1049.56 61.93
-1 -7 -5 1066.72 58.84
1 7 6 63.17 13.48
-1 -7 -6 54.65 11.65
1 7 6 57.79 13.22
-1 -7 -6 37.93 8.5
1 7 7 108.23 18.27
-1 -7 -7 101.86 17.71
1 7 7 139.45 20.73
-1 -7 -7 141.99 18.4
-1 -7 -7 108.04 15.01
1 7 8 2.95 2.94
-1 -7 -8 2.97 5.12
1 7 8 2.95 4.16
-1 -7 -8 6.26 5.09
-1 -7 -8 2.08 3.59
-1 -7 -9 1045.99 64.37
1 7 9 969.2 62.21
1 7 9 1093.76 65.66
-1 -7 -9 904.77 54.66
-1 -7 -10 -3.24 3.22
1 7 10 -2.27 3.91
-1 -7 -10 -2.52 5.02
-1 -7 -11 77.37 16.87
1 7 11 82.78 14.2
-1 -7 -11 49.42 12.38
1 7 12 115.18 20.4
1 7 12 134.01 17.45
1 7 12 148.64 23.69
1 7 13 180.43 26.23
-1 -7 -13 205.12 26.72
1 7 13 186.8 26.82
1 7 14 268.11 32.77
-1 -7 -14 263.48 31.66
1 7 14 243.86 30.21
1 7 14 308.92 34.27
1 7 15 195.73 27.56
-1 -7 -15 217.24 29.16
1 7 15 178.5 26.45
1 7 15 177.08 26.51
1 8 -8 222.57 26.97
-1 -8 8 246.66 31.17
-1 -8 7 11.51 7.65
-1 -8 7 10.83 8.82
1 8 -7 30.76 10.43
-1 -8 6 231.55 30.24
1 8 -6 193.72 23.97
-1 -8 5 3.46 5.97
1 8 -5 2.43 4.2
-1 -8 5 3.6 3.59
-1 -8 4 45.84 13.13
1 8 -4 49.52 11.53
-1 -8 4 67.68 16.33
-1 -8 3 30.8 10.69
1 8 -3 47.7 10.6
1 8 -2 834.41 53.76
-1 -8 2 821.91 54.76
1 8 -2 858.52 54.48
-1 -8 2 780.84 57.59
-1 -8 1 13.46 7.51
1 8 -1 13.78 7.28
1 8 0 78.47 15.76
-1 -8 0 105.22 19
1 8 0 92.65 16.75
1 8 1 37.12 10.66
1 8 1 22.88 8.58
1 8 1 28.27 7.71
-1 -8 -1 16.02 7.85
1 8 2 405.42 36.19
-1 -8 -2 352.26 34.83
1 8 2 331.3 24.89
1 8 2 328.86 32.95
-1 -8 -2 304.31 22.49
1 8 3 8.91 6.61
1 8 3 -2.98 4.2
1 8 3 -1.26 2.51
-1 -8 -3 3.03 4.27
1 8 4 319.92 33.06
-1 -8 -4 322.82 32.47
-1 -8 -4 294.33 20.89
1 8 4 309.2 32.49
1 8 5 12.42 6.94
-1 -8 -5 22.84 6.22
1 8 5 15.58 8.23
-1 -8 -5 34.07 10.59
1 8 6 610.27 47.47
-1 -8 -6 577.49 43.49
-1 -8 -6 560.62 35.2
1 8 6 548.46 45.43
1 8 7 72.24 16.08
-1 -8 -7 28.78 10.65
1 8 7 52.5 13.93
-1 -8 -7 51.08 10.24
-1 -8 -7 47.42 12.1
1 8 8 270.32 31.84
1 8 8 327.75 34.73
-1 -8 -8 243.59 24.33
1 8 9 125.23 21.78
1 8 9 90.32 18.48
-1 -8 -9 67.99 13.24
1 8 10 171.71 25.98
-1 -8 -10 182.38 22.77
1 8 10 185.58 26.88
1 8 11 52.65 12.07
-1 -8 -11 50.23 12.52
1 8 12 276.71 33.8
1 8 12 317.1 35.72
-1 -8 -12 295.07 31.78
1 8 13 7.59 6.55
1 8 13 2.88 4.98
1 8 13 -3.78 3.77
-1 -8 -13 -3.22 5.55
-1 -8 -14 44.31 14.06
-1 -9 4 55.92 15.5
-1 -9 4 60.53 15.55
-1 -9 3 152.49 23.8
-1 -9 2 11.76 8.73
-1 -9 2 6.42 5.54
1 9 -1 75.48 16.41
1 9 -1 85.06 17.02
-1 -9 1 53.98 15.5
1 9 0 70.65 16.13
1 9 0 61.18 14.85
-1 -9 0 94.58 19.33
1 9 1 222.65 28.45
1 9 1 285.81 31.9
-1 -9 -1 255.21 32.32
1 9 2 206.81 27.6
1 9 2 268.19 31.14
-1 -9 -2 216.56 29.3
1 9 3 255.01 31.21
1 9 3 297.44 33.51
-1 -9 -3 298.55 34.37
1 9 4 3.47 4.88
1 9 4 3.48 6
-1 -9 -4 -3.41 6.79
1 9 5 549.08 47.82
1 9 5 617.64 50.45
-1 -9 -5 563.9 48.18
1 9 6 28.98 10.85
1 9 6 21.76 10.25
-1 -9 -6 31.91 11.04
1 9 7 14.81 9.04
1 9 7 11.11 7.39
1 9 8 11.36 7.55
1 9 8 22.69 10.66
1 9 9 479.94 45.54
1 9 9 386.4 41.55
1 9 10 15.71 8.75
1 9 10 -3.94 5.55
-1 -9 -11 177.72 23.21
-1 -9 -12 14.68 7.18
1 10 1 3.61 5.09
1 10 1 7.19 6.2
1 10 2 309.92 35.83
1 10 2 308.77 35.7
1 10 3 11.25 8.35
-1 -10 -3 7.85 6.77
1 10 3 -3.77 9.19
1 10 4 34.49 12.7
1 10 4 23.03 11.51
-1 -10 -4 57.38 15.74
-1 -10 -5 25.89 10.45
-1 -10 -6 375.91 39.14
2 -9 -5 316.84 35.41
2 -9 -4 3.35 5.77
2 -9 -4 -3.67 6.33
2 -9 -3 47.26 13.01
2 -9 -2 23.49 9.72
-2 8 10 37 12.79
2 -8 -10 29.08 10.21
-2 8 10 18.49 9.78
-2 8 9 11.07 7.36
-2 8 9 18.47 9.74
2 -8 -9 15.35 7.5
-2 8 8 546.46 48.87
-2 8 8 658.05 52.91
2 -8 -8 594.93 45.76
2 -8 -8 605.9 51.78
2 -8 -7 107.03 17.94
2 -8 -7 84.26 18.82
2 -8 -6 134.39 19.47
2 -8 -6 126.67 22.22
-2 8 5 152.9 24.87
2 -8 -5 174.81 24.87
2 -8 -5 195.29 26.91
-2 8 5 196.87 27.9
-2 8 4 228.78 30.08
-2 8 4 288.5 30.99
-2 8 4 254.18 31.98
2 -8 -4 291.4 32.82
2 -8 -4 218.01 28.09
-2 8 3 30.29 10.04
-2 8 3 18.14 9.6
-2 8 3 29.01 10.87
2 -8 -3 27.47 10.29
2 -8 -3 36.4 10.92
-2 8 2 51.81 13.33
-2 8 2 54.42 14.55
-2 8 2 43.49 13.12
2 -8 -2 56.72 15.07
2 -8 -2 85.31 15.86
-2 8 1 12.34 6.89
-2 8 1 18.12 8.85
-2 8 1 18.13 9.57
2 -8 -1 32.83 11.5
2 -8 -1 13.18 6.96
-2 8 0 47.25 12.97
-2 8 0 21.79 9.62
-2 8 0 50.84 14.04
2 -8 0 23.95 9.69
2 -8 0 36.09 10.22
2 -8 0 48.65 14.47
2 -8 1 46.44 13.83
-2 8 -1 43.62 13.11
2 -8 1 61.26 16.22
-2 8 -1 29.14 10.95
2 -8 2 1205.57 75.76
-2 8 -2 1076.57 71.59
2 -8 2 1038.05 72.57
-2 8 -2 1196.83 74.64
2 -8 3 34.87 12.83
-2 8 -3 29.12 12.06
-2 8 -3 29.23 11.55
2 -8 3 35.65 12.51
2 -8 4 140.41 24.63
-2 8 -4 156.47 24.9
-2 8 -4 116.83 22.18
-2 8 -5 -3.62 6.24
-2 8 -5 7.26 7.23
-2 7 13 92.88 18.24
-2 7 13 66.13 15.61
-2 7 12 46.79 13.43
2 -7 -12 90.07 19.96
-2 7 12 60.31 15.02
-2 7 12 54.09 14.39
2 -7 -12 63.54 16.21
2 -7 -11 632.22 50.41
-2 7 11 607.09 49.16
2 -7 -11 553.04 50.36
-2 7 11 598.12 48.55
-2 7 11 563 47.02
-2 7 10 3.32 4.68
2 -7 -10 11.2 8.31
-2 7 10 6.64 6.61
2 -7 -10 3.19 3.18
-2 7 10 3.2 3.19
-2 7 9 148.14 23.1
2 -7 -9 144.5 23.69
-2 7 9 150.95 23.26
2 -7 -9 183.81 24.37
-2 7 9 108.8 19.54
-2 7 8 3.27 4.6
2 -7 -8 6.96 6.93
2 -7 -8 -2.85 4.02
-2 7 8 3.02 4.25
-2 7 8 3.25 4.58
-2 7 7 38.78 11.67
-2 7 7 38.85 11.69
-2 7 7 47.18 12.17
2 -7 -6 153.6 23.43
2 -7 -6 215.68 24.92
-2 7 6 206.36 25.34
-2 7 5 452.64 38.77
-2 7 5 503.19 42.71
-2 7 5 452.78 41.07
2 -7 -5 458.49 40.38
2 -7 -5 522.14 40.87
-2 7 4 142.57 21.95
2 -7 -4 142.58 21.03
-2 7 4 110.99 19.57
2 -7 -4 123.91 19.82
-2 7 4 122.04 19.3
-2 7 3 173.64 23.18
-2 7 3 221.57 27.71
-2 7 3 202.7 26.26
2 -7 -3 204.09 25.37
2 -7 -3 185.32 24.67
-2 7 2 3.17 4.47
2 -7 -2 -2.6 3.66
-2 7 2 -3.17 4.46
2 -7 -2 6.19 5.34
-2 7 2 -2.77 3.9
2 -7 -1 1130.98 62.28
-2 7 1 1057.01 67.3
2 -7 -1 1130.47 65.96
-2 7 1 1161.93 69.72
-2 7 1 1061.84 64.2
2 -7 -1 1157.87 69.69
-2 7 0 44.94 12.84
-2 7 0 35.19 12.39
2 -7 0 35.89 11.2
2 -7 0 45.96 13.13
2 -7 0 36.14 9.61
-2 7 -1 42 12.48
-2 7 -1 32.2 11.13
2 -7 1 12.53 7.01
2 -7 1 53.95 13.87
2 -7 1 22.67 7.15
-2 7 -2 84.56 17.78
2 -7 2 134.88 21.76
-2 7 -2 113.41 20.19
2 -7 2 132.88 16.28
2 -7 2 127.84 21.76
-2 7 -3 336.53 35.18
-2 7 -3 285.18 32.62
2 -7 3 377.77 38.93
2 -7 3 344.76 36.01
2 -7 4 136.94 22.95
-2 7 -4 88.94 17.99
-2 7 -4 135.55 21.85
-2 7 -5 327.96 34.87
-2 7 -5 305.89 34.19
2 -7 5 309.75 35.41
-2 7 -5 360.65 38.24
2 -7 5 372.54 39.26
-2 7 -6 83.53 17.36
-2 7 -6 73.24 16.32
2 -7 6 58.76 16.02
-2 7 -6 37.26 12.41
2 -7 6 39.13 13.59
2 -7 7 51.54 14.77
-2 7 -7 80.55 18.8
2 -7 7 56.69 16.23
-2 7 -8 35.47 13.04
2 -7 8 44.05 13.84
2 -7 8 29.2 11.77
2 -7 8 14.64 8.19
-2 6 14 108.96 21.85
-2 6 14 84.95 16.72
-2 6 14 84.67 16.41
2 -6 -14 74.07 17.5
-2 6 14 125 22.37
-2 6 14 89.15 17.21
-2 6 13 12.03 7.99
-2 6 13 -2.96 5.1
-2 6 13 2.74 3.86
-2 6 13 11.86 7.24
2 -6 -13 10.99 8.16
-2 6 13 13.74 6.84
2 -6 -12 329.8 35.25
-2 6 12 304.73 31.78
-2 6 12 239.36 26.25
-2 6 12 299.69 31.59
2 -6 -12 298.18 34.25
-2 6 12 310.39 33.81
2 -6 -11 9.73 6.46
-2 6 11 2.93 4.13
-2 6 11 2.23 3.14
-2 6 11 2.94 5.06
2 -6 -11 3.49 4.92
-2 6 11 3.17 5.47
2 -6 -10 33.6 10.57
-2 6 10 23.15 9.14
-2 6 10 25.5 7.61
-2 6 10 34.71 10.42
2 -6 -10 30.29 10.63
-2 6 10 18.28 8.62
2 -6 -9 2.88 4.97
-2 6 9 2.85 4.92
-2 6 9 2.92 4.11
-2 6 9 -2.84 5.66
-2 6 9 1.68 2.37
2 -6 -9 -3.24 3.23
-2 6 8 503.71 40.72
-2 6 8 464.82 39.08
2 -6 -8 482.27 41.34
-2 6 8 431.6 37.79
-2 6 8 447.74 28.82
-2 6 7 11.02 3.8
-2 6 7 2.77 3.9
-2 6 7 -2.7 4.65
2 -6 -7 6.24 4.63
2 -6 -7 2.98 4.2
-2 6 7 2.77 3.9
-2 6 6 550.49 41.4
2 -6 -6 571.56 43.87
2 -6 -6 528.32 38.19
-2 6 5 12.6 6.16
2 -6 -5 18.58 7.33
-2 6 4 1076.77 63.95
-2 6 4 1209.31 64.43
2 -6 -4 1139.06 62.89
2 -6 -4 1137.25 64.19
-2 6 4 1129.6 65.02
-2 6 3 179.76 22.82
-2 6 3 180.29 21.64
-2 6 3 145.17 20.72
2 -6 -3 153.82 20.61
2 -6 -3 134.06 19.04
-2 6 2 117.34 17.64
-2 6 2 105.18 18.06
-2 6 2 123.66 18.79
2 -6 -2 99.34 16.94
2 -6 -2 103.68 15.84
-2 6 2 91.53 8.03
2 -6 -2 124.21 17.85
2 -6 -1 481.25 35.12
-2 6 1 421.76 37.11
2 -6 -1 500.02 39.47
-2 6 1 474.74 38.57
-2 6 1 406.63 21.51
2 -6 -1 473.34 36.21
2 -6 0 337.27 28.55
-2 6 0 340.58 32.64
-2 6 0 456.49 37.19
2 -6 0 432.33 36.54
-2 6 0 347.89 20.59
2 -6 0 382.68 33.21
-2 6 -1 -1.05 1.81
-2 6 -1 -2.77 2.75
2 -6 1 2.88 4.96
2 -6 1 -2.67 4.6
2 -6 1 -1.85 2.6
-2 6 -1 5.51 5.49
2 -6 2 858.67 45.69
2 -6 2 857.02 55.66
-2 6 -2 832.32 54.69
-2 6 -2 865.97 55.47
-2 6 -3 2.83 5.65
-2 6 -3 8.53 5.66
2 -6 3 2.92 2.91
2 -6 3 6.07 5.24
2 -6 3 2.98 2.97
-2 6 -3 -2.96 2.95
-2 6 -4 14.47 7.06
2 -6 4 6.29 5.43
-2 6 -4 5.77 5.75
-2 6 -4 11.28 4.06
-2 6 -4 9.21 6.12
2 -6 4 8.33 3.56
-2 6 -5 216.9 27.7
2 -6 5 284.53 31.89
-2 6 -5 268 29.17
-2 6 -5 272.94 29.51
-2 6 -5 220.51 19.06
-2 6 -6 770.87 52.99
2 -6 6 699.48 54.04
-2 6 -6 771.32 55.07
2 -6 6 643.19 51.09
-2 6 -6 692.9 50.48
2 -6 7 3.65 6.29
-2 6 -7 10.39 7.72
-2 6 -7 -3.04 4.28
2 -6 7 -3.27 6.51
-2 6 -7 3.03 5.22
2 -6 8 114.06 21.92
-2 6 -8 92.08 17.23
-2 6 -8 90.44 18.57
2 -6 8 62.24 15.19
-2 6 -8 125.32 19.91
2 -6 9 348.63 35.84
2 -6 9 283.32 34.47
-2 6 -9 313.01 36.41
2 -6 10 352.11 36.15
2 -6 10 414.99 42.97
-2 6 -10 410.67 42.57
2 -6 11 108.41 19.28
-2 5 15 358.5 37.8
2 -5 -15 445.83 43.6
2 -5 -15 381.65 38.75
-2 5 15 458.71 44.15
-2 5 15 439.42 45.35
-2 5 14 28.98 10.65
2 -5 -14 14.59 8.14
-2 5 14 17.8 7.62
2 -5 -14 16.83 8.88
-2 5 14 20.43 8.45
-2 5 14 17.7 8.65
-2 5 14 16.17 9.02
2 -5 -13 79.67 17.05
-2 5 13 71.94 14.42
-2 5 13 59.37 13.73
-2 5 13 95.36 16.18
2 -5 -13 102.61 19.07
-2 5 13 63.78 15.11
2 -5 -12 213.24 27.47
-2 5 12 164.96 22.21
-2 5 12 158.82 21.26
-2 5 12 183.83 22.67
2 -5 -12 192.99 25.99
-2 5 12 216.63 27.45
2 -5 -11 159.76 23.32
-2 5 11 123.54 18.63
-2 5 11 154.16 20.76
-2 5 11 160.59 20.6
2 -5 -11 177.03 24.55
-2 5 11 141.87 21.71
-2 5 10 170.2 21.5
-2 5 10 144.88 18.73
-2 5 10 145.61 20.05
2 -5 -10 170.29 23.51
-2 5 10 174.36 23.42
-2 5 9 441.18 35.33
-2 5 9 449.64 37.32
-2 5 9 350.13 28.63
-2 5 9 375.55 33.01
2 -5 -9 475.45 39.04
-2 5 8 11.82 6.23
-2 5 8 5.13 4.43
-2 5 8 2.35 3.32
2 -5 -8 13.67 6.67
-2 5 8 14.61 5.12
-2 5 7 892.27 52.69
-2 5 7 807.48 41.97
-2 5 7 828.52 51.31
-2 5 7 959.7 55.04
2 -5 -7 905.5 46.92
2 -5 -7 911.28 55.85
-2 5 6 19.52 4.85
-2 5 6 6.81 4.55
-2 5 6 16.22 6.94
2 -5 -6 34.04 8.19
2 -5 -6 14.86 6.54
-2 5 6 20.47 7.53
-2 5 5 1741.92 80.56
2 -5 -5 1674.22 76.1
2 -5 -5 1774.88 82.54
-2 5 4 133.13 17.99
-2 5 4 133.79 18.11
-2 5 4 133.53 18.08
-2 5 4 138.95 9.32
2 -5 -3 79.78 7.46
2 -5 -3 89.7 12.89
-2 5 3 104.84 15.93
-2 5 3 88.94 14.76
-2 5 3 98.1 9.05
2 -5 -3 99.21 14.65
-2 5 3 90.63 14.93
-2 5 2 14.71 6.28
2 -5 -2 15.04 6.05
-2 5 2 13.39 5.88
2 -5 -2 10.84 5.09
-2 5 2 7.68 2.54
2 -5 -2 1.98 2.79
-2 5 2 6.67 4.96
2 -5 -2 5.08 1.23
2 -5 -1 404.49 30.8
-2 5 1 439.24 34.37
-2 5 1 447.58 34.69
-2 5 1 408.69 22.68
2 -5 -1 536.74 36.88
2 -5 -1 429.52 31.96
2 -5 0 2.31 3.25
-2 5 0 -2.27 3.2
-2 5 0 0.96 1.92
-2 5 0 -2.27 3.19
2 -5 0 2.07 4.11
2 -5 0 -1.73 2.44
-2 5 -1 336.05 29.66
-2 5 -1 293.34 28.01
2 -5 1 317.14 29.11
2 -5 1 328.67 28.8
2 -5 1 316.8 24.58
2 -5 2 2.91 2.51
-2 5 -2 2.37 3.33
-2 5 -2 2.35 2.34
-2 5 -2 0.66 1.31
-2 5 -2 -2.42 2.41
2 -5 2 -2.36 2.35
2 -5 2 -2.46 3.47
-2 5 -3 1154.7 64.13
2 -5 3 1258.16 67.24
2 -5 3 1280.22 67.62
2 -5 3 1214.32 53.48
-2 5 -3 1136.6 65
-2 5 -3 1259.07 66.25
-2 5 -4 121.37 18.26
-2 5 -4 175.21 22.48
2 -5 4 143.24 13.35
-2 5 -4 129.7 19.2
2 -5 4 142.15 20.58
-2 5 -5 187.56 23.05
2 -5 5 228.47 26.67
-2 5 -5 237.05 25.79
-2 5 -5 222.26 25.98
-2 5 -6 100.62 16.67
-2 5 -6 100.19 16.78
-2 5 -6 94.5 16.32
-2 5 -6 52.06 13.13
2 -5 6 100.05 18.05
2 -5 6 107.41 17.96
-2 5 -7 401.54 35.77
-2 5 -7 470.29 38.4
2 -5 7 448.3 38.66
-2 5 -7 424.97 36.82
2 -5 7 381.82 38.07
-2 5 -7 517.19 42.4
-2 5 -8 77.99 15.36
2 -5 8 76.66 15.39
2 -5 8 98.18 18.91
-2 5 -8 81.05 17.23
-2 5 -8 63.51 13.93
-2 5 -8 73.27 15.33
-2 5 -9 412.67 38.71
-2 5 -9 415.5 40.16
2 -5 9 418.44 37.16
-2 5 -9 411.98 36.66
-2 5 -9 442.26 37.87
2 -5 10 143.71 21.17
-2 5 -10 133.9 23.12
-2 5 -10 119.57 21.53
-2 5 -11 28.13 11.62
-2 5 -11 15.2 8.47
2 -5 11 13.76 7.26
2 -5 11 19.21 9.38
2 -5 11 3.67 5.18
-2 5 -12 7.38 8.22
2 -5 12 3.94 5.56
2 -5 12 7.56 6.52
2 -4 -16 76.47 17.91
-2 4 16 30.78 12.19
2 -4 -15 62.41 16
-2 4 15 36.77 12.95
-2 4 15 54.37 14.95
-2 4 14 161.68 19.79
-2 4 14 155.18 23.77
2 -4 -14 163.92 25.03
-2 4 14 158.65 19.69
-2 4 14 170.76 25.72
2 -4 -14 170.68 23.59
-2 4 14 174.45 26.9
-2 4 13 52.77 13.15
2 -4 -13 29.61 10.41
-2 4 13 38.92 9.91
-2 4 13 29.44 10.85
-2 4 13 23.89 7.86
2 -4 -13 43.87 12.05
-2 4 13 25.57 10.33
-2 4 12 579.39 45.12
-2 4 12 561.28 39.71
2 -4 -12 620.42 47.76
-2 4 12 630.29 41.42
-2 4 12 605.03 47.44
2 -4 -12 687.97 48.08
-2 4 12 671.96 52.2
-2 4 11 5.1 4.4
2 -4 -11 2.88 2.86
-2 4 11 -2.11 2.1
-2 4 11 -2.86 4.03
-2 4 11 4.24 3.66
2 -4 -11 -2.73 3.84
-2 4 11 6.32 6.3
2 -4 -10 136.47 19.95
-2 4 10 133.54 17.29
-2 4 10 150.21 18.26
-2 4 10 100.14 15.83
-2 4 10 128.39 19.58
2 -4 -10 143.73 20.18
-2 4 9 19.95 6.92
-2 4 9 28.12 8.28
-2 4 9 27.91 8.22
-2 4 9 22.54 7.92
2 -4 -9 24.9 8.26
-2 4 8 1590.56 72.83
-2 4 8 1481.91 69.37
-2 4 8 1571.97 72.44
2 -4 -8 1759.96 80.18
-2 4 8 1629.37 77.62
2 -4 -7 11.22 5.5
-2 4 7 16.29 3.94
-2 4 7 18.85 6.25
-2 4 7 14.83 5.14
-2 4 7 28.25 7.52
2 -4 -7 29.74 6.46
-2 4 7 10.98 5.38
-2 4 6 384.92 29.37
-2 4 6 350.44 24.14
-2 4 6 418.17 23.37
2 -4 -6 418.06 32.36
2 -4 -6 428.44 27.53
-2 4 6 437.88 32.53
-2 4 6 377.01 29.22
-2 4 5 267.58 24.47
-2 4 5 276.22 18.93
2 -4 -5 258.39 24.32
2 -4 -4 857.76 47.17
-2 4 4 795.28 34.2
-2 4 4 811.79 35.97
-2 4 4 929.62 48.3
2 -4 -4 789.7 35.63
-2 4 3 472.32 32.73
-2 4 3 505.07 33.34
2 -4 -3 481.91 32.81
-2 4 3 484.25 24.37
2 -4 -3 525.9 29.65
2 -4 -3 423.62 21.83
-2 4 3 475.19 19.01
-2 4 3 464.11 20.04
-2 4 3 466.14 32.3
-2 4 2 755.18 42.34
-2 4 2 738.13 42.08
-2 4 2 761.92 42.42
-2 4 2 691.59 31.57
2 -4 -2 689.12 37.42
2 -4 -2 664.45 26.69
-2 4 1 48.9 9.83
-2 4 1 37.92 8.75
-2 4 1 51.89 7.16
2 -4 -1 63.96 10.41
2 -4 -1 57.65 9.67
-2 4 0 593.94 37.71
-2 4 0 610.18 38.14
2 -4 0 554.67 33.53
-2 4 0 587.36 29.35
2 -4 0 584.66 36.14
-2 4 -1 53.17 10.41
2 -4 1 39.3 8.77
-2 4 -1 45.26 9.63
2 -4 1 40.24 7.62
-2 4 -1 32.55 8.15
-2 4 -1 29.76 3.63
-2 4 -2 960.99 51.52
2 -4 2 890.92 50.1
-2 4 -2 929.25 50.71
2 -4 2 940.34 43.85
-2 4 -2 911.71 50.73
2 -4 3 -1.1 1.54
-2 4 -3 2.04 3.51
-2 4 -3 2.02 2.84
-2 4 -3 -2.06 2.06
-2 4 -3 -0.59 1.32
2 -4 3 4.2 4.19
-2 4 -4 406.54 31.7
-2 4 -4 431.88 32.47
2 -4 4 370 31.92
-2 4 -4 389.22 29.53
-2 4 -4 388.2 31.51
-2 4 -4 380.13 18.76
-2 4 -5 8.62 2.58
-2 4 -5 2.2 4.4
-2 4 -5 11.97 5.26
-2 4 -5 13.09 6.15
-2 4 -5 23.26 7.69
2 -4 5 12.23 5.97
2 -4 5 17.37 3.85
-2 4 -6 1698 78.73
-2 4 -6 1857.38 81.19
2 -4 6 1532.91 54.43
-2 4 -6 1830.04 82.85
-2 4 -6 1607.05 76.54
2 -4 6 1678.55 82.48
2 -4 6 1640.79 78.04
-2 4 -7 54.97 11.99
-2 4 -7 59.08 12.31
-2 4 -7 28.38 8.62
2 -4 7 77.13 13.85
2 -4 7 56.09 13.18
-2 4 -7 50.51 11.93
-2 4 -8 136.78 21.08
-2 4 -8 166.46 21.12
-2 4 -8 130.95 19.42
-2 4 -8 130.34 18.64
2 -4 8 188.34 24.55
2 -4 8 131.05 18.55
2 -4 9 31.27 9.31
-2 4 -9 28.02 9.18
-2 4 -9 22.29 8.36
-2 4 -9 15.27 8.09
-2 4 -10 228.15 25.85
-2 4 -10 210.19 26.49
-2 4 -10 212.01 27.33
2 -4 10 222.38 27.38
2 -4 10 203.99 23.54
-2 4 -10 223.23 25.47
-2 4 -11 58.1 14.52
2 -4 11 56.5 12.13
2 -4 11 78.16 16.67
2 -4 11 87.51 18.56
-2 4 -11 100.86 19.4
-2 4 -12 51.67 14.25
2 -4 12 81.39 13.99
2 -4 12 36.32 13.15
2 -4 12 64.65 15.99
-2 4 -12 66.42 16.53
2 -4 13 41.07 13.95
-2 4 -13 32.82 12.08
2 -4 13 38.87 12.23
-2 4 -13 23.3 10.98
2 -4 14 269.1 33.91
2 -4 14 357.36 38.11
-2 3 16 35.79 13.16
-2 3 16 29.06 11.72
2 -3 -16 18.35 8.98
-2 3 15 295.09 35.01
-2 3 15 339.42 38.49
2 -3 -15 350.07 37.14
-2 3 14 13.88 7.76
-2 3 14 37.13 12.29
2 -3 -14 42.96 12.77
2 -3 -13 400.53 34.33
2 -3 -13 396.35 36.96
-2 3 13 411.59 29.38
-2 3 13 368.33 28.03
-2 3 13 299.61 33.28
-2 3 13 444.92 39.92
-2 3 13 319.17 35.25
2 -3 -12 34.32 9.83
2 -3 -12 46.31 12.28
-2 3 12 40.22 8.61
-2 3 12 29 10.48
-2 3 12 42.2 9
-2 3 12 38.45 11.46
-2 3 12 38.64 12.05
2 -3 -11 714.39 45.87
2 -3 -11 637.21 46.61
-2 3 11 673.07 40.55
-2 3 11 612.93 45.19
-2 3 11 651.36 39.55
-2 3 11 771 50.59
-2 3 11 755.49 52.07
2 -3 -10 6.75 4.48
-2 3 10 3.34 2.88
-2 3 10 -2.34 2.34
-2 3 10 8.38 4.42
-2 3 10 2.72 2.71
-2 3 10 2.51 4.34
-2 3 9 126.34 17.08
-2 3 9 170.63 17.53
-2 3 9 141.42 15.89
-2 3 9 133.36 19.08
2 -3 -9 173.25 20.79
-2 3 9 169.65 20.65
-2 3 8 280.8 13.85
-2 3 8 339.92 26.71
-2 3 8 325.42 24.43
-2 3 8 313.45 24.07
-2 3 8 332.88 28.7
-2 3 8 335.36 19.55
-2 3 8 285.34 13.37
2 -3 -8 357.85 28.42
2 -3 -7 896.2 47.78
-2 3 7 752.88 31.32
-2 3 7 778.86 30.49
-2 3 7 770.87 41.24
2 -3 -7 776.74 36.1
-2 3 7 888.47 48.25
-2 3 7 802.23 36.51
-2 3 7 826.99 42.25
-2 3 7 782.23 42.21
-2 3 6 548.82 32.23
-2 3 6 491.37 30.84
-2 3 6 478.13 29.52
2 -3 -6 529.94 34.4
-2 3 6 580.2 36.42
-2 3 6 485.13 22.87
-2 3 5 1831.47 66.31
-2 3 5 1883.61 76.17
2 -3 -5 1992.75 80.99
-2 3 5 2006 80.72
2 -3 -5 1911.32 69.97
-2 3 5 1841.36 75.74
-2 3 4 38.82 6.02
2 -3 -4 55.3 9.66
-2 3 4 45.92 6.53
2 -3 -4 40.78 6.24
-2 3 4 47.96 6.98
-2 3 4 42.59 8.7
-2 3 3 436.91 28.65
2 -3 -3 487.21 29.76
-2 3 3 411.76 20.24
2 -3 -3 476.49 24.34
-2 3 3 453.02 24.11
2 -3 -3 439.47 21.38
-2 3 3 414.28 22.54
-2 3 3 376.71 16.51
2 -3 -2 45.65 8.36
-2 3 2 44.71 4.39
-2 3 2 37.85 7.78
-2 3 2 54.28 9.07
-2 3 2 56.89 9.25
-2 3 2 54.31 7.68
2 -3 -2 37.14 4.65
2 -3 -2 58.01 8.02
-2 3 2 26.14 6.59
-2 3 2 45.34 6.32
-2 3 1 2247.32 86
2 -3 -1 2371.81 79.97
-2 3 1 2262.35 77.72
-2 3 1 2282.37 81.35
2 -3 -1 2260.23 82.32
2 -3 -1 2068.27 68.76
-2 3 1 2346.3 86.71
-2 3 0 68.87 10.3
-2 3 0 60.82 7.86
-2 3 0 68.27 10.22
2 -3 0 89.79 9.53
2 -3 0 53.6 8.75
-2 3 0 72.01 10.64
-2 3 -1 173.7 17.09
-2 3 -1 156.86 16.25
2 -3 1 152.51 13.2
2 -3 1 164.59 16.19
-2 3 -1 173.23 16.91
-2 3 -2 66.89 10.93
2 -3 2 70.39 10.85
-2 3 -2 53.59 9.74
-2 3 -2 78.52 11.44
-2 3 -3 1848.95 76.36
-2 3 -3 1881.55 77
-2 3 -3 1726.19 71.4
-2 3 -3 1730.5 58.33
-2 3 -3 1890.21 77.02
2 -3 3 1857.3 77.6
-2 3 -4 115.29 15.15
2 -3 4 128.38 8.32
-2 3 -4 127.15 15.7
-2 3 -4 127.63 14.38
2 -3 4 121.64 10.69
-2 3 -4 136.42 8.41
2 -3 4 120.3 15.9
-2 3 -5 1092.17 54.79
2 -3 5 1143.59 44.16
-2 3 -5 1236.09 60.02
2 -3 5 1221.46 60.89
-2 3 -5 1253.55 59.72
-2 3 -5 1185.19 58.24
2 -3 5 1171.35 44.04
-2 3 -6 436.73 33.69
2 -3 6 481.86 20.73
2 -3 6 547.2 37.84
-2 3 -6 462.72 32.36
2 -3 6 474.7 24.82
-2 3 -7 504.63 36.74
2 -3 7 474.04 36.78
-2 3 -7 419.3 32.24
2 -3 8 97.28 14.74
-2 3 -8 106.27 16.84
-2 3 -8 131.78 17.67
2 -3 8 124.32 18.54
2 -3 9 439.53 32.57
-2 3 -9 466.34 36.48
-2 3 -9 472.24 38.63
-2 3 -10 10.59 6.46
-2 3 -10 11.63 7.1
2 -3 10 5.3 4.58
2 -3 10 2.96 4.17
2 -3 10 7.9 4.82
-2 3 -11 75.16 15.36
-2 3 -11 84.82 16.96
2 -3 11 56.49 13.34
2 -3 11 65.91 15.44
2 -3 11 64.13 11.78
-2 3 -12 -3.13 3.12
-2 3 -12 13.52 7.53
2 -3 12 17.91 8.41
2 -3 12 6.6 6.57
2 -3 12 7.43 4.53
-2 3 -13 501.84 46.11
2 -3 13 560.97 47.41
-2 3 -13 562.81 46.77
2 -3 13 496.72 43.2
2 -3 14 9.87 6.57
2 -3 14 28.32 10.59
-2 3 -14 22.94 10.08
-2 3 -14 10.78 7.17
-2 3 -15 45.45 14.16
2 -3 15 28.61 10.75
2 -3 15 47.43 13.54
-2 2 16 519.68 49.28
2 -2 -16 573.15 48.49
-2 2 15 49.66 14.26
2 -2 -15 23.16 9.36
-2 2 14 239.78 30.7
2 -2 -14 202.37 26.53
-2 2 13 2.75 3.07
-2 2 13 1.36 1.92
2 -2 -13 8.72 6.47
2 -2 -12 191.35 27.32
-2 2 12 233.11 19.38
-2 2 12 223.65 27.48
-2 2 12 239.94 19.62
-2 2 12 248.83 28.04
2 -2 -12 267.85 24.99
2 -2 -11 44.82 11.13
-2 2 11 33.41 7.1
2 -2 -11 25.99 7.76
-2 2 11 25.54 6.34
-2 2 11 23.75 8.36
-2 2 11 47.71 11.89
2 -2 -10 234.41 22.13
2 -2 -10 220.95 23.72
-2 2 10 171.57 16.24
-2 2 10 174.91 16.45
-2 2 10 242.25 25.02
-2 2 10 178.97 22.49
-2 2 9 37.02 9.88
-2 2 9 50.01 8.28
-2 2 9 49.82 8.25
2 -2 -9 46.95 9.62
-2 2 9 48.01 10.74
2 -2 -9 56.31 11.27
-2 2 8 2209.83 73.32
-2 2 8 2264.74 95.1
-2 2 8 2300.83 83.87
-2 2 8 2235.97 83.26
-2 2 8 2333.54 94.54
2 -2 -8 2380.44 91.67
2 -2 -7 23.99 6.41
-2 2 7 25.53 4.3
-2 2 7 33.17 8.23
-2 2 7 21.31 5.16
-2 2 7 22.49 5.29
2 -2 -7 20.27 3.17
2 -2 -7 15.86 5.59
-2 2 7 23.48 7
-2 2 7 28.84 6.99
2 -2 -6 809.84 42.35
-2 2 6 764.69 28.49
2 -2 -6 783.37 36.52
-2 2 6 839.12 34.04
2 -2 -6 938.27 45.16
2 -2 -6 918.06 45.83
2 -2 -6 830.85 37.1
-2 2 6 722.94 39.37
-2 2 6 759.92 42.78
-2 2 5 741.14 28.89
2 -2 -5 841.71 38.23
-2 2 5 802.26 31.07
2 -2 -5 887.53 37.91
2 -2 -5 872.65 37.84
-2 2 5 882.27 35.5
2 -2 -5 898.85 43.76
2 -2 -5 818.56 36.96
-2 2 5 765.03 42.02
2 -2 -5 903.79 43.2
2 -2 -4 827.7 36.63
-2 2 4 856.65 31.71
-2 2 4 828.62 33.03
2 -2 -4 842.36 37.65
-2 2 4 833.53 37.56
2 -2 -4 847.69 36.66
-2 2 4 804.32 35.65
2 -2 -4 861.92 41.84
-2 2 4 972.38 44.29
2 -2 -4 821.64 41.38
2 -2 -4 803.69 37.38
2 -2 -3 196.13 11.6
-2 2 3 145.75 10.34
2 -2 -3 170.1 12.22
-2 2 3 164.14 11.61
2 -2 -3 159.13 13.32
-2 2 3 141.43 12.22
2 -2 -3 176.04 12.82
-2 2 3 143.48 14.31
2 -2 -3 168.48 13.54
-2 2 3 153.78 11.59
-2 2 3 183.87 13.6
-2 2 2 984.54 34.58
2 -2 -2 994.03 41.98
-2 2 2 853.35 35.37
-2 2 2 890.45 38.54
2 -2 -2 857.88 38.22
-2 2 2 1033.55 39.67
2 -2 -2 937.39 35.8
-2 2 2 941.81 37.68
2 -2 -2 1010.09 38.33
-2 2 2 1005.34 42.69
-2 2 2 996.99 40.85
2 -2 -2 975.71 41.87
2 -2 -1 1733.46 65.6
-2 2 1 1794.24 65.18
2 -2 -1 1609.2 58.87
-2 2 1 1653.15 62.05
2 -2 -1 1773.1 64.5
-2 2 1 1740.7 61.58
2 -2 -1 1766.31 62.58
2 -2 -1 1616.1 55.21
2 -2 0 3958.11 118.95
2 -2 0 4069.21 126.71
2 -2 0 3979.45 123.16
2 -2 0 3812.22 126.87
-2 2 0 4172.67 132.19
2 -2 0 4369.4 134.83
-2 2 0 4332.38 133.08
2 -2 0 4167.42 131.93
2 -2 1 8.67 3.74
2 -2 1 9.52 3.29
-2 2 -1 5.77 2.72
2 -2 1 6.08 2.24
2 -2 1 6.45 1.07
2 -2 1 3.9 1.76
2 -2 1 7.78 1.63
-2 2 -1 1.97 1.97
-2 2 -1 3.77 2.11
2 -2 1 6.53 1.05
2 -2 2 763.41 34.92
-2 2 -2 776.19 35.5
-2 2 -2 786.47 26.8
2 -2 2 905.17 41.34
-2 2 -2 871.59 40.42
2 -2 2 899.57 41.06
-2 2 -2 901.05 38
-2 2 -3 312.74 22.23
2 -2 3 377.35 23.86
-2 2 -3 317 19.4
-2 2 -3 296.26 11.09
2 -2 3 365.7 20.9
2 -2 3 340.7 23.73
-2 2 -3 287.53 10.93
2 -2 3 303 17.76
2 -2 4 168.97 12.24
2 -2 4 226.86 16.33
-2 2 -4 188.53 14.42
2 -2 4 240.35 20.51
-2 2 -4 186.66 9.9
-2 2 -4 212.87 18.43
2 -2 5 234.26 21.37
-2 2 -5 216.73 18.17
-2 2 -5 240.24 15.98
2 -2 5 219.3 13.5
-2 2 -5 244 20.93
2 -2 6 3162.39 116.4
-2 2 -6 2957.42 109.13
-2 2 -6 2906.32 91.52
2 -2 6 2867.02 94.71
-2 2 -6 3106.41 113.88
2 -2 6 3195.92 110.46
-2 2 -7 65.71 11.53
2 -2 7 60.1 8.91
2 -2 7 59.66 9.8
-2 2 -7 62.68 5.85
2 -2 7 66.71 5.32
2 -2 7 70.44 12.34
2 -2 7 59.06 5.01
2 -2 8 221.19 19.78
-2 2 -8 215.67 13.44
2 -2 8 228.64 19.57
-2 2 -8 222.64 22.95
2 -2 8 195.87 22.42
-2 2 -9 5.54 3.68
-2 2 -9 6.13 2.42
2 -2 9 11.77 4.74
-2 2 -9 9.44 6.22
-2 2 -10 588.09 39.37
2 -2 10 560.57 35.32
-2 2 -10 721.72 47.2
2 -2 10 696.28 43.8
2 -2 10 698.22 47.06
2 -2 10 629.59 39.95
-2 2 -11 22.73 9.43
2 -2 11 38.4 10.18
2 -2 11 27.59 6.88
2 -2 11 39.09 11.16
-2 2 -11 19.79 7.31
2 -2 11 49.87 10.83
-2 2 -12 114.46 19.8
-2 2 -12 123.46 18.04
2 -2 12 131.1 19.31
2 -2 12 109.69 19
2 -2 12 144.51 19.21
2 -2 12 108.45 13.35
2 -2 13 240.01 28.94
-2 2 -13 220.86 28.72
2 -2 13 244.14 27.37
2 -2 14 168.84 24.41
2 -2 14 176.93 23.95
2 -2 15 56.65 14.98
2 -2 15 75.69 16.36
-2 2 -15 80.19 18.35
2 -2 16 382.24 36.69
-2 2 -16 301.17 36.21
2 -2 16 343.59 36.27
2 -1 -17 3.45 4.86
-2 1 16 -4.09 4.08
2 -1 -16 3.3 3.29
-2 1 15 796.3 62.15
-2 1 15 883.53 63.66
2 -1 -15 960.81 61.33
-2 1 14 50.01 14.25
-2 1 14 17.36 8.51
2 -1 -14 32.08 10.9
-2 1 13 196.95 27.05
2 -1 -13 254.96 27.75
-2 1 13 264.23 30.55
-2 1 12 75.82 9.04
-2 1 12 63.39 8.37
-2 1 12 83.66 16.69
-2 1 12 59.22 13.97
2 -1 -12 57.63 12.63
-2 1 11 393.79 35.46
-2 1 11 450.68 37.46
2 -1 -11 437.48 30.11
2 -1 -11 452.44 35.26
2 -1 -10 530.39 32.92
-2 1 10 557.99 40.05
-2 1 10 412.78 35.52
-2 1 10 567.52 39.74
2 -1 -10 526.5 36.83
2 -1 -9 518.91 32.11
-2 1 9 525.31 37.71
2 -1 -9 518.39 36.14
2 -1 -9 566.57 38.44
-2 1 9 507.31 37.4
-2 1 9 541.38 37.34
2 -1 -9 589.78 37.49
-2 1 8 30.21 8.24
2 -1 -8 27.07 7.45
-2 1 8 23.51 7.34
2 -1 -8 22.53 7.04
2 -1 -8 35.14 7.32
-2 1 8 28.1 7.51
-2 1 7 594.44 28.44
-2 1 7 622.63 37.41
-2 1 7 575.8 28.14
-2 1 7 652.46 38.53
2 -1 -7 642.3 37.85
2 -1 -7 633.28 37.15
2 -1 -7 647.13 34.82
-2 1 7 687.62 38.63
-2 1 6 1.41 1.98
-2 1 6 3.03 3.01
2 -1 -6 1.45 2.05
2 -1 -6 2.95 2.93
2 -1 -6 1.35 1.51
-2 1 6 2.19 1.46
-2 1 6 4.47 2.97
2 -1 -6 -0.68 1.36
-2 1 6 0.73 1.03
2 -1 -6 1.23 2.12
-2 1 5 3031.75 103.06
2 -1 -5 3098.94 101.11
2 -1 -5 2517.74 89.96
-2 1 5 2669.21 92.12
2 -1 -5 2760.51 91.8
2 -1 -5 2740.22 91.88
-2 1 5 2638.81 91.95
2 -1 -5 2964.84 101.88
2 -1 -5 3030.39 103.55
-2 1 5 2952.26 102.46
2 -1 -5 2774.95 96.99
-2 1 5 2821.81 89.41
2 -1 -4 4.91 2.59
2 -1 -4 1 0.99
2 -1 -4 3.2 2.13
-2 1 4 2.56 1.02
-2 1 4 2.89 2.14
2 -1 -4 3.48 2.13
2 -1 -4 5.09 1.9
-2 1 4 0.67 1.15
2 -1 -4 3.78 1.77
-2 1 4 1.99 1.48
-2 1 4 1.64 1.33
2 -1 -4 3.93 1.68
-2 1 4 1.76 1.75
2 -1 -4 1.51 1.23
2 -1 -3 2868.09 98.49
2 -1 -3 2868 97.27
2 -1 -3 2847.46 94.48
2 -1 -3 2784.65 86.19
-2 1 3 2800.72 89.5
2 -1 -3 2837.62 93.28
2 -1 -3 3003.32 93.66
2 -1 -3 2943.89 98.24
-2 1 3 2887.95 92.7
-2 1 3 2735.47 97.3
2 -1 -3 3050.2 95.2
2 -1 -3 2613.71 89.83
2 -1 -3 2853.49 93.13
2 -1 -3 2741.38 94.71
-2 1 3 2863.46 96.42
2 -1 -2 9.39 2.04
2 -1 -2 5.79 2.18
2 -1 -2 10.02 1.93
-2 1 2 13.14 2.73
2 -1 -2 18.37 3.8
-2 1 2 16.02 3.66
-2 1 2 10.64 3.27
2 -1 -2 13.11 3.31
2 -1 -2 6.29 2.85
2 -1 -2 10.48 3.27
-2 1 2 10.48 2.36
2 -1 -2 10.44 2.85
-2 1 1 971.18 35.38
2 -1 -1 938.58 37.61
-2 1 1 993.22 38.92
2 -1 -1 944.47 34.69
-2 1 1 940.83 38.54
2 -1 -1 946.31 34.5
2 -1 -1 883.95 35.23
-2 1 1 868.07 34.74
2 -1 -1 930.13 38.33
2 -1 -1 1019.43 39.39
-2 1 1 974.16 39.41
-2 1 1 1005.2 38.77
2 -1 0 580.96 26.33
-2 1 0 635.64 28.17
-2 1 0 558.1 21.06
2 -1 0 574.09 22.68
2 -1 0 612.48 22.82
-2 1 0 565.12 22.33
2 -1 0 564.56 26.15
-2 1 0 572.02 22.29
-2 1 0 584.16 26.98
2 -1 0 587.8 23.1
-2 1 0 663.81 28.51
-2 1 0 653.03 27.99
2 -1 0 612.48 28.25
-2 1 -1 391.75 20.36
2 -1 1 349.08 20.29
-2 1 -1 352.88 14.55
-2 1 -1 421.32 21.21
2 -1 1 411.61 20.08
-2 1 -1 339.42 12.82
2 -1 1 366.39 14.58
-2 1 -1 362.78 19.71
-2 1 -1 369.68 20.32
2 -1 2 36.64 5.54
-2 1 -2 31.06 5.35
-2 1 -2 21.72 4.65
2 -1 2 29.16 4.89
-2 1 -2 29.03 4.16
-2 1 -2 26.8 2.49
-2 1 -2 22.42 4.27
-2 1 -2 34.31 5.46
2 -1 2 33.78 5.98
-2 1 -3 5330.62 163.58
-2 1 -3 4746.84 150.5
-2 1 -3 5352.67 159.05
-2 1 -3 5319.17 162.25
2 -1 3 5385.49 162.15
2 -1 4 90.3 9.76
-2 1 -4 70.55 8.88
-2 1 -4 91.13 8.18
-2 1 -4 70.15 8.56
-2 1 -4 81.25 9.45
-2 1 -4 88.98 9.95
-2 1 -5 1509.9 60.84
2 -1 5 1529.33 59.12
2 -1 5 1442.46 49.17
-2 1 -5 1473.67 53.09
-2 1 -5 1605.9 58.81
2 -1 5 1450.55 63.58
-2 1 -5 1498.29 61.73
-2 1 -6 109.72 12.77
2 -1 6 117.61 9.55
2 -1 6 112.01 8.46
-2 1 -6 112.35 8.76
2 -1 6 93.46 11.21
2 -1 6 125.85 14.83
-2 1 -6 113.63 13.46
-2 1 -7 728.37 39.72
2 -1 7 707.6 31.64
2 -1 7 690.02 30.38
2 -1 7 718.83 36.5
2 -1 7 719.41 41.92
2 -1 7 714.23 28.54
-2 1 -7 701.36 40.03
2 -1 8 519.47 29.81
2 -1 8 488.93 25.52
2 -1 8 498.43 26.06
-2 1 -8 524.47 34.62
2 -1 8 482.54 21.33
-2 1 -8 503.47 32.55
2 -1 9 257.21 19.95
2 -1 9 303.49 24.25
2 -1 9 279.2 18.97
-2 1 -9 265.44 23.74
2 -1 9 246.29 13.16
-2 1 -9 259.77 24.81
2 -1 10 767.09 37.2
2 -1 10 835.51 44.26
-2 1 -10 770.93 47.13
-2 1 -10 763.12 43.89
2 -1 10 764.96 47.12
2 -1 11 375.19 29.81
2 -1 11 394.69 31.77
2 -1 11 325.26 22.1
-2 1 -11 335.68 29.59
2 -1 11 337.52 31.62
-2 1 -11 385.65 33.6
-2 1 -12 7.27 5.4
2 -1 12 3.1 2.53
2 -1 12 8.05 5.35
2 -1 12 10.1 5.63
2 -1 12 4.36 3.76
2 -1 13 1230.01 70.39
2 -1 13 1411.92 73.17
-2 1 -13 1187.19 71.76
2 -1 13 1254.2 66.12
-2 1 -13 1209.2 67.78
2 -1 14 8.89 7.23
-2 1 -14 6.76 5.83
2 -1 14 5.02 4.33
-2 1 -14 16.96 7.96
2 -1 14 12.2 7.44
2 -1 15 -3.07 5.29
-2 1 -15 -3.63 6.25
2 -1 15 2.65 4.57
-2 1 -15 3 5.18
2 -1 15 13.13 7.31
2 -1 16 -2.77 4.78
2 -1 16 3.13 4.4
-2 1 -16 3.85 5.43
2 0 -16 169.6 25.84
-2 0 16 181.62 27.05
-2 0 16 131.42 24.64
2 0 -15 27.1 10.15
-2 0 15 34.77 12.78
2 0 -15 23.35 9.22
-2 0 15 21.59 9.51
-2 0 14 283.85 33.43
2 0 -14 289.36 29.68
-2 0 14 270.65 31.78
-2 0 13 350.95 36.84
2 0 -13 426.01 35.1
-2 0 13 383.53 37.2
-2 0 12 782.37 53.7
2 0 -12 727.46 46.67
-2 0 12 696.19 50.45
-2 0 11 121.65 18.84
2 0 -11 135.41 17.48
-2 0 11 89.75 6.36
-2 0 11 109.29 18.07
-2 0 10 128.99 17.84
2 0 -10 142.27 14.15
2 0 -10 130.26 16.53
-2 0 10 159.53 20.38
-2 0 10 169.97 20.87
2 0 -10 130.1 17.87
2 0 -10 125.94 16.38
-2 0 10 125.31 7.68
2 0 -9 56.78 8.58
-2 0 9 85.23 13.87
2 0 -9 58.7 10.46
-2 0 9 58.24 6.09
-2 0 9 55.86 6
-2 0 9 59.29 4.72
2 0 -9 59.67 10.64
-2 0 9 42.99 10.41
2 0 -9 60.34 11.46
-2 0 8 1536.4 65.76
2 0 -8 1349.91 54.97
-2 0 8 1220.43 61.99
2 0 -8 1437.97 60.88
-2 0 8 1263.15 45.75
-2 0 8 1361.75 46.34
-2 0 8 1381.44 64.26
2 0 -8 1415.52 63.45
-2 0 8 1254.22 41.94
2 0 -8 1433.29 52.75
-2 0 7 284.78 23.56
2 0 -7 251.4 20.71
-2 0 7 270.27 13.6
-2 0 7 269.6 13.59
2 0 -7 283.71 22.98
-2 0 7 273.21 23.28
2 0 -7 313.66 23.24
-2 0 7 235.4 21.36
2 0 -7 258.7 18.52
-2 0 7 268.1 22.46
2 0 -7 275 17.83
2 0 -6 152.36 9.47
-2 0 6 142.96 8.78
2 0 -6 149.15 8.76
-2 0 6 171.69 16.65
2 0 -6 140.18 8.57
-2 0 6 147.32 8.86
2 0 -6 168.86 15.89
2 0 -6 145.46 15.12
-2 0 6 126.44 14.49
2 0 -6 172.01 13.38
-2 0 6 165.82 16.12
-2 0 6 196.07 17.47
2 0 -6 130.99 12.6
-2 0 5 2.41 2.08
2 0 -5 1.85 1.84
2 0 -5 3.11 2.07
-2 0 5 2.48 2.14
-2 0 5 11.15 2.09
2 0 -5 3.02 1.26
-2 0 5 8.06 1.78
2 0 -5 3.33 1.25
2 0 -5 11 3.85
-2 0 5 2.53 2.18
2 0 -5 3.59 2.66
2 0 -5 3.1 1.02
2 0 -5 4.33 2.12
2 0 -5 5.03 1.81
2 0 -4 3743.73 118.05
2 0 -4 3748.8 123.77
-2 0 4 3479.79 114.12
2 0 -4 4108.15 125.34
-2 0 4 3459.82 114.09
2 0 -4 3884.16 124.58
2 0 -4 3882.61 123.44
2 0 -4 3842.6 126.5
2 0 -4 3725.41 115.07
2 0 -4 3982.53 123.85
2 0 -4 3943.87 124.89
2 0 -4 3952.58 124.6
-2 0 4 3876.43 126.57
2 0 -3 350.47 16.43
2 0 -3 363.22 20.5
2 0 -3 405.36 21.03
-2 0 3 355.54 20.69
2 0 -3 343.73 18.27
2 0 -3 359.04 14.23
-2 0 3 307.81 14.53
-2 0 3 393.51 21.34
2 0 -3 371.1 20.09
-2 0 3 325.45 14.73
2 0 -3 363.76 19.98
-2 0 3 402.89 21.62
-2 0 3 381.29 21.15
2 0 -3 353.49 19.6
-2 0 3 367.6 20.8
2 0 -3 400.52 20.48
2 0 -2 6756.36 214.92
-2 0 2 7186 215.21
2 0 -2 7462.57 214.04
2 0 -2 6604.13 208.46
-2 0 2 6159.11 207.91
2 0 -2 6922.28 213.28
-2 0 2 7674.41 215.37
2 0 -2 6450.67 210.33
2 0 -2 6445.2 214.36
-2 0 2 7132 214.61
2 0 -2 6567.21 213.35
2 0 -2 7126.66 212.4
2 0 -2 7474.78 214.8
-2 0 2 7448.44 215.82
2 0 -2 6982.88 213.97
-2 0 2 7339.74 214.98
2 0 -2 7474 214.03
-2 0 1 962.43 37.55
-2 0 1 969.68 36.95
2 0 -1 1010.71 35.47
2 0 -1 911.58 34.97
2 0 -1 993.27 36.6
2 0 -1 1002.78 36.9
2 0 -1 986.94 35.98
-2 0 1 950.55 36.17
2 0 -1 888.99 36.21
-2 0 1 943.36 37.91
2 0 -1 934.77 36.39
2 0 0 433.02 18.22
2 0 0 449.26 20.28
-2 0 0 463.41 20.07
2 0 0 416.94 18.72
-2 0 0 402.69 19.05
-2 0 0 458.32 21.57
-2 0 0 404.35 18.95
2 0 0 413.28 17.56
-2 0 0 408.51 19.68
2 0 0 403.98 20.27
2 0 1 2855.43 91.47
-2 0 -1 2833.49 90.7
2 0 1 2741.43 90.82
2 0 1 2645.25 84.34
-2 0 -1 2805.51 89.62
2 0 1 2869.8 87.58
-2 0 -1 2489.12 87.49
2 0 1 2800.99 87.1
-2 0 -1 2844.49 89.7
-2 0 -2 322.08 18.2
-2 0 -2 364.71 18.48
2 0 2 355.27 18.36
-2 0 -2 368.74 18.52
-2 0 -2 322.35 17.05
2 0 2 343.87 16.7
2 0 2 333.05 17.43
-2 0 -3 641.46 29.74
-2 0 -3 684.26 30.12
2 0 3 670.58 29.85
-2 0 -3 652.88 29.69
-2 0 -3 629.26 28.87
2 0 3 709.23 28.81
2 0 3 661.08 30.48
-2 0 -4 2447.74 81.8
-2 0 -4 2485.81 82.05
2 0 4 2447.45 81.63
-2 0 -4 2450.55 81.95
-2 0 -4 2398.31 81.54
2 0 4 2181.15 75.33
2 0 4 2239.98 81.11
-2 0 -5 261.32 18.03
-2 0 -5 294.09 18.91
-2 0 -5 289.9 19.94
2 0 5 280.3 18.48
-2 0 -5 282.08 18.42
-2 0 -6 2216.92 82.11
-2 0 -6 2205.47 81.58
2 0 6 2059.62 72.56
-2 0 -6 2228.57 78.93
2 0 6 2058.37 72.99
2 0 7 234.46 15.92
2 0 7 244.98 14.35
2 0 7 246.98 17.26
2 0 7 233.68 14.7
-2 0 -7 266.6 20.98
-2 0 -7 210.02 18.99
-2 0 -8 378.44 27.15
2 0 8 398.95 24.34
2 0 8 338.58 21.57
2 0 8 374.17 19.72
2 0 8 333.44 19.22
-2 0 -8 397.64 27.91
2 0 8 316.04 23.89
2 0 9 36.68 6.76
2 0 9 45.46 6.32
2 0 9 48.98 8.08
2 0 9 44.85 8.2
2 0 9 39.02 5.73
-2 0 -9 56.79 10.57
-2 0 -9 43.7 9.33
-2 0 -10 1377.79 66.06
2 0 10 1370.23 59.86
2 0 10 1338.33 55.38
2 0 10 1350.65 52
2 0 10 1339.33 58.23
2 0 10 1354.86 50.77
-2 0 -10 1378.15 67.56
2 0 10 1112.34 62.68
2 0 11 13.66 6
-2 0 -11 2.24 3.16
2 0 11 7.85 3.36
2 0 11 9.39 4.13
2 0 11 13.16 4.92
2 0 11 10.86 3.19
-2 0 -11 9.57 5.33
2 0 12 219.93 16.54
2 0 12 230.01 21.57
-2 0 -12 241.25 26.23
2 0 12 165.32 11.63
-2 0 -12 216.08 24.14
2 0 12 198.32 23.07
2 0 13 178.06 19.54
2 0 13 106.81 18.19
2 0 13 148.81 20.72
-2 0 -13 149.77 21.04
-2 0 -13 125.71 20.17
2 0 14 518.48 36.55
2 0 14 463.39 39.15
-2 0 -14 485.03 40.35
2 0 14 479.28 41.67
-2 0 -14 450.19 41.16
-2 0 -15 98.99 18.15
-2 0 -15 79.56 17.76
2 0 15 89.16 14.98
2 0 15 93.81 16.71
2 0 15 78.71 17.23
2 0 16 212.53 23.83
2 0 16 174.09 23.4
-2 0 -16 203.67 28.85
-2 0 -16 157.33 24.17
2 0 16 198.06 28.35
-2 0 -17 44.54 13.24
-2 0 -17 15.67 8.76
2 0 17 30.92 11.57
2 1 -16 3.56 5.01
-2 -1 16 -3.7 3.68
2 1 -15 571.82 48.14
-2 -1 15 668.87 52.35
-2 -1 15 639.92 53.27
2 1 -14 40.68 12.09
-2 -1 14 23.22 9.37
-2 -1 14 29.1 10.21
-2 -1 14 14.4 8.05
2 1 -13 2.33 4.65
2 1 -13 11.52 6.42
-2 -1 13 3.09 4.36
-2 -1 13 3.03 3.02
-2 -1 13 9.98 6.63
2 1 -12 12.82 6.03
-2 -1 12 19.6 8.37
2 1 -12 5.24 4.53
-2 -1 12 18.27 8.58
-2 -1 12 11.42 6.98
-2 -1 11 515.21 40.29
2 1 -11 621.12 41.9
2 1 -11 550.33 36.73
-2 -1 11 534.07 42.11
2 1 -11 551.14 36.57
-2 -1 10 2.49 2.48
2 1 -10 1.74 1.74
-2 -1 10 2.38 2.37
2 1 -10 12.94 6.07
2 1 -10 16.28 5.7
2 1 -9 624.02 36.19
2 1 -9 608.31 39.05
-2 -1 9 556.31 39.43
2 1 -9 635.61 37.17
-2 -1 9 605.65 41.03
-2 -1 9 554.79 27.07
2 1 -8 700.13 36.4
-2 -1 8 697.71 41.34
2 1 -8 590.61 30.25
2 1 -8 638.9 38.51
2 1 -8 627.18 36.63
-2 -1 8 737.46 42.49
2 1 -8 671.77 30.48
-2 -1 8 598.01 27.99
-2 -1 8 645.58 40.79
2 1 -7 1426.72 57.83
2 1 -7 1399.64 53.59
-2 -1 7 1392.89 62.95
-2 -1 7 1374.34 62.84
2 1 -7 1368.25 60.92
2 1 -7 1370.61 59.14
-2 -1 7 1351.48 62.96
-2 -1 7 1303.6 48.8
2 1 -7 1283.22 51.22
2 1 -6 134.96 9.89
2 1 -6 118.02 11.95
2 1 -6 137.9 11.3
-2 -1 6 158.88 16.21
-2 -1 6 124.19 14.59
2 1 -6 123.16 13.35
2 1 -6 143.89 15.02
-2 -1 6 129.8 9.4
-2 -1 6 149.46 15.75
-2 -1 5 2016.57 78.18
-2 -1 5 2157.58 79.34
-2 -1 5 1948.66 77.71
2 1 -5 1895.26 65.94
-2 -1 5 2000.91 66.38
-2 -1 5 2204.02 79.25
2 1 -5 2092.31 68.68
2 1 -5 2018.03 74.68
-2 -1 5 1914.35 76.02
2 1 -5 1978.46 69.91
2 1 -4 10.74 3.66
2 1 -4 9.56 3.26
2 1 -4 14.09 3.87
2 1 -4 11.77 3.67
2 1 -4 12.59 2.95
2 1 -4 10.43 2.26
2 1 -4 17.28 4.29
2 1 -3 1362.55 51.4
2 1 -3 1367.97 51.74
2 1 -3 1333.36 51.78
2 1 -3 1319.3 49.73
2 1 -3 1279.95 44.85
2 1 -3 1313.81 51.32
2 1 -3 1376.41 48.6
-2 -1 2 1318.46 49.83
2 1 -2 1349.6 48.45
2 1 -2 1336.51 48.83
-2 -1 2 1352.65 49.77
2 1 -2 1257.16 48.16
2 1 -2 1240.71 46.04
2 1 -2 1255.63 46.61
2 1 -2 1233.73 44.54
2 1 -2 1239.89 48.47
2 1 -2 1294.48 48.09
-2 -1 2 1254.02 48.67
2 1 -2 1263.32 43.47
-2 -1 1 5982.33 186.66
2 1 -1 6402.72 182.99
2 1 -1 6154.14 186.19
-2 -1 1 6161.4 188.05
-2 -1 1 6442.16 187.42
2 1 -1 5754.03 184.16
2 1 -1 6269.3 187.11
-2 -1 1 5535.21 179.75
2 1 -1 6025.51 186.47
2 1 -1 5923.04 180.2
-2 -1 1 5503.83 179.8
2 1 -1 6161.19 181.75
2 1 -1 5966.51 180.15
2 1 -1 6445.49 186.43
-2 -1 1 6684.65 188.04
2 1 -1 6419.43 187.58
2 1 -1 5985.75 185.82
2 1 -1 5956.93 185.42
2 1 0 383.38 18.26
-2 -1 0 371.69 18.75
-2 -1 0 336.12 17.76
2 1 0 351.24 17.59
2 1 0 357.11 15.91
-2 -1 0 332.78 17.62
2 1 0 359.71 18.25
2 1 0 366.84 16.04
2 1 0 352.76 17.16
-2 -1 0 341.99 17.47
2 1 0 341.97 17.59
2 1 0 363.2 18.17
-2 -1 -1 337.55 16.75
-2 -1 -1 309.97 16.71
2 1 1 305 17
2 1 1 310.81 15.5
2 1 1 289.78 15.52
-2 -1 -1 315.12 15.58
-2 -1 -1 323.32 16.89
-2 -1 -1 315.97 16.67
2 1 1 294.31 15.6
-2 -1 -1 328.42 16.88
2 1 1 321.02 16.9
-2 -1 -1 341.31 15.93
2 1 2 2177.28 74.95
-2 -1 -2 2284.58 74.41
2 1 2 2225.03 74.02
-2 -1 -2 2131.3 74.7
-2 -1 -2 2255.08 75.4
2 1 2 2099.15 74.64
-2 -1 -2 2269.57 74.36
-2 -1 -3 583.84 27.48
-2 -1 -3 644.67 27.93
-2 -1 -3 608.14 27.44
-2 -1 -3 592.44 27.99
2 1 3 607.98 27.19
-2 -1 -4 9.71 3.13
2 1 4 8.04 2.96
-2 -1 -4 6.55 2.59
2 1 4 6.35 2.63
-2 -1 -4 6.52 2.58
-2 -1 -5 1088.73 44.89
2 1 5 1079.28 44.93
-2 -1 -5 1106.9 45.45
2 1 5 1038.98 42.55
-2 -1 -5 1137.76 45.83
2 1 6 21.76 4.45
-2 -1 -6 24.04 5.12
-2 -1 -6 24.96 6
2 1 6 27.64 5.91
2 1 6 22.78 5.52
2 1 6 24.08 3.89
2 1 6 23.59 3.06
-2 -1 -7 2456.21 90.66
2 1 7 2470.2 89.53
2 1 7 2451.74 89.4
2 1 7 2208.67 85.36
-2 -1 -7 2563.45 85.49
2 1 7 2409.83 81.81
2 1 7 2451.05 79.64
2 1 7 2167.66 70.88
2 1 8 69.79 10
2 1 8 77.34 7.72
2 1 8 93.15 9.84
-2 -1 -8 84.67 12.25
2 1 9 2308.41 92.75
-2 -1 -9 2674.99 101.29
2 1 9 2539.15 83.29
2 1 9 2444.71 88.41
-2 -1 -9 2572.31 99.74
-2 -1 -10 316.01 27.03
2 1 10 312.33 23.39
-2 -1 -10 297.62 26.5
2 1 10 279.14 24.57
2 1 10 277.8 24.47
2 1 10 324.44 24.49
2 1 10 318.88 21.28
2 1 10 282.15 15.41
-2 -1 -11 331.47 28.82
2 1 11 297.32 23.33
-2 -1 -11 355.23 30.03
2 1 11 323.12 26.82
2 1 11 262.03 23.53
2 1 11 312.88 22.1
2 1 11 250.66 13.36
2 1 11 303.77 26.12
2 1 12 44.67 10.25
2 1 12 39.98 8.18
-2 -1 -12 53.22 12.44
2 1 12 56.65 11.08
2 1 12 29.74 8.3
2 1 13 141.24 16.18
2 1 13 157.27 20.47
-2 -1 -13 165.37 22.39
2 1 13 128.34 17.57
-2 -1 -13 150.7 21.22
2 1 14 19.49 8.6
2 1 14 28.7 7.63
2 1 14 28.09 8.85
-2 -1 -14 41.5 11.47
-2 -1 -14 49.16 13.01
2 1 15 87.76 18.29
2 1 15 66.97 11.94
-2 -1 -15 80.12 17.08
-2 -1 -15 79.64 16.62
2 1 15 61.26 13.43
2 1 16 -2.72 2.71
-2 -1 -16 -3.39 4.77
2 1 16 -3.78 5.32
-2 -1 -16 -3.58 3.57
-2 -1 -17 743.84 56.36
-2 -1 -17 704.97 56.5
2 1 17 638.28 55.52
-2 -2 16 98.97 19.89
2 2 -16 88.66 18.89
-2 -2 15 29.38 11.01
-2 -2 15 38.11 13.18
-2 -2 15 31.36 11.55
2 2 -15 30.28 10.64
-2 -2 14 143.21 23.41
-2 -2 14 150.47 23.99
-2 -2 14 142.56 22.73
2 2 -14 109.9 19.67
-2 -2 13 92.4 18.52
2 2 -13 95.65 17.32
-2 -2 13 96.62 18.99
-2 -2 13 108.65 19.27
-2 -2 12 521.21 44.7
2 2 -12 635.67 44.99
-2 -2 12 570.44 44.58
-2 -2 12 588.51 33.21
-2 -2 12 604.05 46.84
-2 -2 11 73.57 10.35
2 2 -11 109.76 16.29
2 2 -11 83.93 14.54
-2 -2 11 83.9 15.95
-2 -2 11 90.24 16.05
2 2 -10 323.91 25.19
-2 -2 10 308.53 30.56
2 2 -10 391 30.97
-2 -2 10 348.95 31.33
2 2 -10 389.88 27.77
2 2 -10 367.9 29.87
-2 -2 10 340.82 23.39
-2 -2 10 402.73 34.12
-2 -2 9 13.66 6.02
2 2 -9 24.8 6.16
-2 -2 9 30.23 8.68
2 2 -9 20.95 6.86
-2 -2 9 22 7.29
2 2 -9 18.78 6.23
2 2 -9 13.94 5.14
-2 -2 9 16.62 4.61
2 2 -8 813.22 39.65
-2 -2 8 860.23 48.84
2 2 -8 810.71 43.99
2 2 -8 838.91 42.41
-2 -2 8 865.64 48.5
2 2 -8 807.73 44.3
-2 -2 8 797.03 38.37
-2 -2 8 758.88 46.76
2 2 -7 10.27 3.7
-2 -2 7 11.15 4.91
2 2 -7 8.63 4.06
2 2 -7 11.36 2.65
2 2 -7 12.19 4.81
-2 -2 7 3.56 3.09
2 2 -7 10.58 3.96
-2 -2 7 8.99 4.4
-2 -2 6 712.49 39.25
-2 -2 6 638.39 37.58
2 2 -6 625.68 30.54
2 2 -6 653.5 27.2
2 2 -6 620.71 33.69
2 2 -6 710.61 30.89
-2 -2 6 617.1 36.91
2 2 -6 612.48 30.31
-2 -2 6 654.74 37.41
-2 -2 5 38.19 7.85
-2 -2 5 53.88 9.04
2 2 -5 60.19 6.81
-2 -2 5 46.16 8.38
2 2 -5 58.53 8.05
2 2 -5 57.4 7.26
-2 -2 5 39.3 7.66
-2 -2 5 52.89 7.12
2 2 -5 44.99 6.42
-2 -2 4 5217.88 178.41
-2 -2 4 5796.6 180.64
2 2 -4 5533.88 173.69
2 2 -4 5492.05 172.39
-2 -2 4 5338.93 178.27
2 2 -4 5545.77 168.53
-2 -2 4 5527.47 178.88
-2 -2 4 4874.35 170.63
2 2 -4 5320.6 171.03
2 2 -4 5793.56 172.69
2 2 -3 414.94 20.97
2 2 -3 432.46 20.23
2 2 -3 382.06 14.31
2 2 -3 403.99 22.87
-2 -2 3 383.86 23.7
2 2 -3 397.81 20.65
2 2 -3 394.44 14.38
2 2 -3 407.87 23.08
2 2 -3 417.36 23.53
2 2 -3 393.59 22.27
-2 -2 3 374.43 23.25
2 2 -3 441.74 21.98
-2 -2 2 602.83 29.75
2 2 -2 585.5 28.31
2 2 -2 567.75 27.44
-2 -2 2 566.43 28.73
2 2 -2 627.21 29.28
2 2 -2 601.84 27.88
2 2 -2 602.74 25.49
2 2 -2 632.98 24.09
2 2 -2 595.74 21.72
-2 -2 2 558.36 21.52
2 2 -2 635.91 29.09
-2 -2 2 573.51 21.59
2 2 -2 590.98 21.71
2 2 -2 627.33 26.82
2 2 -2 648.79 28.25
-2 -2 2 552.27 28.46
2 2 -1 1.9 1.07
-2 -2 1 2.18 1.45
-2 -2 1 3.41 2.08
2 2 -1 3.7 2.09
2 2 -1 1.31 0.74
2 2 -1 4.47 2.1
2 2 -1 2.75 1.24
-2 -2 1 1.46 1.03
2 2 -1 2.35 1.75
-2 -2 1 2.69 1.64
2 2 -1 2.6 1.58
-2 -2 1 0.85 1.47
2 2 -1 0.76 1.31
-2 -2 1 0.86 1.48
2 2 -1 1.3 1.45
2 2 -1 0.39 0.68
-2 -2 1 2.55 1.26
-2 -2 0 7.23 2.5
2 2 0 7.6 1.71
2 2 0 6.55 2.02
-2 -2 0 8.81 2.23
2 2 0 8 2.62
2 2 0 9.58 2.31
-2 -2 0 9.71 2.45
-2 -2 0 12.87 3.5
-2 -2 0 8.04 2.5
-2 -2 0 7.4 2.28
2 2 0 7.73 1.33
2 2 1 12.48 2.32
-2 -2 -1 15.1 2.66
-2 -2 -1 11.09 1.35
-2 -2 -1 12.91 3.21
2 2 1 10.62 2.22
2 2 1 14.25 3.23
2 2 1 17.38 3.46
-2 -2 -1 9.45 2.42
-2 -2 -1 7.91 2.75
2 2 1 15.07 3.45
2 2 1 13.89 3.35
-2 -2 -2 1897.33 66.55
-2 -2 -2 1967.35 68.88
2 2 2 2104.63 68.63
-2 -2 -2 1896.36 66.4
2 2 2 1986.14 67.56
2 2 2 1843.15 59.83
-2 -2 -2 1932.98 66.71
2 2 2 1881.77 64.32
-2 -2 -3 2439.98 91.54
2 2 3 2725.97 90.77
-2 -2 -3 2870.9 93.47
2 2 3 2911.39 95.09
-2 -2 -3 2890 92.13
-2 -2 -3 2781.02 93.3
-2 -2 -3 2665.75 85.11
-2 -2 -3 2870.03 93.43
2 2 3 2824.23 94.71
2 2 3 2807.93 95.32
2 2 4 4476.69 140.9
-2 -2 -4 4360.36 142.71
-2 -2 -4 4401.85 142.66
-2 -2 -4 4361.5 142.43
-2 -2 -4 4349.52 135.46
2 2 4 4247.55 139.52
-2 -2 -4 4271.78 140.14
2 2 4 4628.66 142.66
-2 -2 -5 368.63 21.75
-2 -2 -5 330.74 20.83
-2 -2 -5 309.86 17.27
2 2 5 337.84 18.43
2 2 5 350.97 20.62
2 2 6 4241.09 139.54
2 2 6 4291.64 143.91
-2 -2 -6 4072.43 143.48
2 2 6 4422.87 144.51
2 2 6 4277.88 134.78
-2 -2 -6 4350.14 136.88
2 2 6 4131.63 127.54
2 2 7 219.24 13.74
-2 -2 -7 272.3 21.18
2 2 7 195.92 17.96
2 2 7 209.61 17.23
2 2 7 230.63 19.3
-2 -2 -7 217.03 16.36
2 2 7 215.16 11.37
-2 -2 -8 195.58 18.92
2 2 8 174.3 17.44
2 2 8 142.36 15.93
2 2 8 164.09 15.53
2 2 8 163.46 11.3
2 2 8 162.51 10.74
-2 -2 -9 35.26 8.52
2 2 9 24.28 6.07
2 2 9 29.95 4.85
2 2 9 32.93 4.5
2 2 10 1169.12 52.67
-2 -2 -10 1276.33 61.25
2 2 10 1180.99 57.49
2 2 10 1140.59 57.03
2 2 10 1086.16 47.89
2 2 10 1063.74 39.46
-2 -2 -11 6.96 5.17
2 2 11 8.97 4.47
2 2 11 16.26 6.08
2 2 11 16.22 6.06
2 2 11 8.31 1.51
2 2 11 16.23 4.32
2 2 12 213.28 19.59
-2 -2 -12 270.8 27.59
2 2 12 257.5 24.88
2 2 12 212.26 22.86
2 2 12 212.65 16.36
2 2 12 218.25 17.49
2 2 13 51.48 11.99
2 2 13 46.67 11.26
2 2 13 62.37 12.74
2 2 13 59.13 9.93
-2 -2 -13 55.95 13.17
2 2 14 229.31 25.53
-2 -2 -14 252.26 28.72
2 2 14 220.84 24.78
2 2 15 38.46 11.02
2 2 15 39.02 10.45
2 2 15 40.25 10.71
2 2 15 62.53 13.3
-2 -2 -15 55.84 14.32
2 2 16 243.06 31.9
2 2 16 211.06 24.93
-2 -2 -16 230.83 29.88
2 2 17 77.81 18.32
-2 -2 -17 47.83 14.3
-2 -3 15 481.48 46.58
2 3 -15 466.64 46
-2 -3 15 475.33 45.15
-2 -3 14 26.5 10.71
-2 -3 14 28.23 11.16
2 3 -14 37.4 13.47
2 3 -14 48.01 13.18
-2 -3 13 89.58 18.76
-2 -3 13 102.45 19.12
2 3 -13 101.27 18.27
-2 -3 12 134.91 21.24
2 3 -12 145.16 20.9
-2 -3 12 105.51 14.47
-2 -3 11 719.3 42.81
-2 -3 11 889.26 55.94
-2 -3 11 828.66 56.14
2 3 -11 895.48 50.36
2 3 -11 822.93 51.46
-2 -3 11 759.51 37.43
2 3 -10 6.74 4.49
-2 -3 10 7.69 5.12
-2 -3 10 15.2 5.59
-2 -3 10 12.32 4.26
2 3 -10 17.94 6.29
-2 -3 10 16.93 7.44
-2 -3 9 299.91 24.44
-2 -3 9 340.92 29.91
-2 -3 9 338.4 31.32
2 3 -9 352.5 27.67
2 3 -9 367.02 29.06
-2 -3 9 319.56 22.94
2 3 -8 26.59 7.32
-2 -3 8 24.4 6.49
-2 -3 8 13.97 6.18
-2 -3 8 33.37 8.85
2 3 -8 37.96 8.42
2 3 -8 35.26 7.32
-2 -3 8 29.42 6.57
-2 -3 7 396.03 26.19
-2 -3 7 398.3 29.91
2 3 -7 406.77 22.19
-2 -3 7 428.15 32.28
2 3 -7 407.56 27.84
-2 -3 7 372.85 26.17
2 3 -7 470.95 29.79
-2 -3 6 236.33 20.98
-2 -3 6 225.01 18.61
-2 -3 6 191.88 19.09
2 3 -6 195.2 17.44
2 3 -6 177.09 18.97
-2 -3 6 207.84 20.89
-2 -3 6 219.59 18.16
-2 -3 5 1428.25 62.22
2 3 -5 1512.49 61.11
2 3 -5 1523.81 51.52
-2 -3 5 1499.88 65.23
2 3 -5 1526.17 52.55
2 3 -5 1544 51.5
2 3 -5 1580.33 66.7
-2 -3 5 1430.85 66.29
-2 -3 5 1537.31 62.93
-2 -3 4 38 7.74
2 3 -4 30.99 5.67
-2 -3 4 16.2 4.7
2 3 -4 24.66 5.14
2 3 -4 23.92 3.01
2 3 -4 25.27 3.72
-2 -3 4 19.09 4.95
2 3 -4 23.47 6.04
2 3 -4 29.56 3.95
-2 -3 4 23.42 5.7
-2 -3 3 540.99 31.33
2 3 -3 581.52 27.53
2 3 -3 560.63 26.93
2 3 -3 566.31 24.19
2 3 -3 599.18 30.24
2 3 -3 582.91 19.21
2 3 -3 592.8 24.52
2 3 -3 593.46 30.23
2 3 -3 543.52 28.96
-2 -3 3 559.41 30.74
2 3 -3 571.47 31.58
2 3 -3 563.19 29.4
2 3 -2 1.89 1.41
-2 -3 2 -1.09 1.53
2 3 -2 3.95 2.78
2 3 -2 3.76 1.77
2 3 -2 1.18 1.67
2 3 -2 -0.95 1.34
2 3 -2 -0.59 1.01
-2 -3 2 1.66 1.75
-2 -3 2 1.08 1.52
2 3 -2 0.77 1.54
2 3 -2 1.1 1.9
2 3 -2 0.58 1.16
-2 -3 2 1.65 1.34
2 3 -2 -0.92 1.3
-2 -3 1 988.19 42.51
2 3 -1 989.31 36.8
-2 -3 1 986.24 37
2 3 -1 1027.15 40.29
2 3 -1 1030.28 37.68
2 3 -1 1047.36 39.91
-2 -3 1 1001.21 38.86
2 3 -1 1067.94 42.68
2 3 -1 1037.38 43.13
2 3 -1 994.61 39.54
2 3 -1 1018.9 43.4
-2 -3 1 1087.31 44.85
2 3 -1 961.85 38.99
-2 -3 1 1086.94 39.52
2 3 -1 1007.41 43.95
2 3 0 10.67 2.01
-2 -3 0 22.28 4.27
2 3 0 17.47 3.96
-2 -3 0 17.25 2.75
2 3 0 15.66 1.74
-2 -3 0 11.4 3.09
2 3 0 13.28 3.32
2 3 0 15.48 3.98
2 3 0 16.33 3.09
-2 -3 0 12.86 3.84
2 3 0 17.66 3.76
-2 -3 0 18.7 3.73
2 3 0 19.58 4.48
-2 -3 -1 2533.76 82.25
2 3 1 2517.06 87.39
-2 -3 -1 2388.47 78.95
2 3 1 2522.24 85.72
-2 -3 -1 2587.74 86.95
-2 -3 -1 2378.04 78.71
2 3 1 2453.77 78.17
-2 -3 -1 2505.67 84.63
2 3 1 2544.49 86.51
-2 -3 -1 2687.34 89.37
-2 -3 -1 2438.61 80.25
-2 -3 -1 2492.22 84.47
2 3 1 2461.92 86.1
2 3 1 2580.5 87.65
-2 -3 -2 7.87 1.95
2 3 2 11.44 3.62
-2 -3 -2 11.45 2.43
-2 -3 -2 5.27 2.64
-2 -3 -2 10.43 2.64
2 3 2 12.36 2.67
2 3 2 7.49 2.96
2 3 2 9.38 3.25
-2 -3 -2 10.4 2.3
2 3 2 11.54 3.32
-2 -3 -2 6.21 2.93
2 3 3 4922.69 159.2
-2 -3 -3 5131.68 159.28
-2 -3 -3 4511.95 154.67
2 3 3 4926.94 154.28
-2 -3 -3 4960.58 158.8
2 3 3 4844.04 160.74
-2 -3 -3 5052.6 147.71
-2 -3 -3 4830.69 151.45
-2 -3 -3 4937.75 158.68
2 3 3 4804.86 160.63
2 3 4 17.31 3.94
2 3 4 12.85 4.21
-2 -3 -4 11.07 3.64
2 3 4 10.26 3.56
2 3 4 11.87 3.4
-2 -3 -4 15.53 3.7
-2 -3 -4 17.67 4.39
-2 -3 -4 13.04 3.89
2 3 4 15.22 4.53
-2 -3 -4 11.44 2.39
2 3 5 367.11 24.52
2 3 5 426.5 26.06
2 3 5 393.85 21.28
-2 -3 -5 359 20.04
-2 -3 -5 360.03 21.78
-2 -3 -5 359.84 18.18
2 3 5 356.46 21.37
2 3 6 5.72 3.19
-2 -3 -6 7.31 2.89
-2 -3 -6 11.51 3.28
2 3 6 5.63 2.41
2 3 6 8.6 3.78
-2 -3 -6 11.06 3.12
2 3 7 1373.85 60.2
2 3 7 1474.11 64.28
-2 -3 -7 1525.46 64.07
2 3 7 1422.61 53.93
-2 -3 -7 1453.02 55.85
-2 -3 -7 1448.31 55.88
2 3 7 1424.07 63.8
-2 -3 -8 316.91 24.75
2 3 8 270.92 21.27
2 3 8 288.3 23.96
2 3 8 264.52 16.3
2 3 8 277.64 23.7
2 3 9 767.23 32.81
2 3 9 789.46 40.98
-2 -3 -10 104.21 15.53
2 3 10 85.62 7.68
-2 -3 -11 122.9 17.79
2 3 11 125.89 16.93
2 3 11 125.27 16.99
2 3 11 109.54 13.36
2 3 12 88 15.16
2 3 12 93.21 15.42
2 3 12 75.08 11.29
-2 -3 -12 96.5 16.62
-2 -3 -13 643.27 46.27
2 3 13 557.41 41.13
2 3 13 606.71 42.65
2 3 13 552.46 34.05
2 3 13 522.34 29.39
2 3 14 108.36 18.21
2 3 14 114.66 18.05
2 3 14 109.75 17.52
-2 -3 -14 87.24 17.54
2 3 14 98.98 13.04
2 3 15 197.18 24.36
-2 -3 -15 161.08 24.45
2 3 15 209.84 26.59
2 3 15 163.85 22.56
2 3 16 15.73 8.77
-2 -3 -16 17.91 8.75
2 3 16 17.05 8.01
2 3 16 25.51 9.37
2 3 16 3.2 4.51
2 3 16 12.34 6.51
2 3 17 675.08 49.14
-2 -3 -17 634.49 52.97
2 3 17 708.28 58.65
-2 -3 -17 622.68 53.24
2 3 17 676.08 49.03
-2 -4 14 162.23 27.47
2 4 -14 146.84 25.4
2 4 -13 101.3 20.36
-2 -4 13 109.95 19.83
-2 -4 12 717.32 51.52
2 4 -12 653.85 52.97
-2 -4 12 659.37 53.99
-2 -4 12 700.22 45.07
2 4 -12 810.9 53.2
-2 -4 11 196.44 24.73
2 4 -11 212.31 27.44
-2 -4 11 179.71 18.14
-2 -4 11 232.51 29.25
2 4 -11 216.03 24.87
-2 -4 11 184.97 21.37
-2 -4 10 134.01 19.46
2 4 -10 102.55 18.47
2 4 -10 173.04 21.12
-2 -4 10 132.05 15.89
-2 -4 10 155.8 23.16
-2 -4 10 151.64 18.86
-2 -4 9 69.85 11.67
2 4 -9 106.5 15.8
-2 -4 9 75.28 13.88
2 4 -9 121.77 19.06
-2 -4 9 71.94 12.69
-2 -4 9 97.49 17.54
-2 -4 8 581.91 38.06
-2 -4 8 576.04 39.38
2 4 -8 606.56 43.25
-2 -4 8 553.61 42.06
-2 -4 8 559.44 36.01
2 4 -8 576.54 35.07
2 4 -8 609.61 38.86
2 4 -7 29.58 7.6
-2 -4 7 21.21 6.7
-2 -4 7 33.5 9.26
2 4 -7 27.68 8.63
-2 -4 7 31.37 7.8
-2 -4 7 20.58 6.77
2 4 -7 30.91 7.07
-2 -4 6 2.16 3.05
2 4 -6 6.31 4.69
-2 -4 6 3.56 3.54
-2 -4 6 8.68 4.24
-2 -4 6 -1.72 1.71
-2 -4 6 6.83 3.8
2 4 -6 10.76 4.33
2 4 -5 244.16 19.71
-2 -4 5 292.54 23.66
-2 -4 5 232.61 20.59
2 4 -5 242.59 15.64
2 4 -5 227.09 15.3
2 4 -5 256.87 23.5
-2 -4 5 233.13 21.23
-2 -4 5 213.95 22.01
2 4 -4 1761.48 68.53
2 4 -4 1736.86 63.9
-2 -4 4 1839.13 74.98
-2 -4 4 1792.76 72.03
2 4 -4 1731.02 63.81
2 4 -4 1782.92 76.26
-2 -4 4 1710.77 75.25
-2 -4 4 1633.59 72.75
2 4 -3 237.98 17.13
2 4 -3 220.34 15.48
-2 -4 3 226.25 18.65
2 4 -3 246.24 16.22
-2 -4 3 257.82 19.72
2 4 -3 229.38 16.57
2 4 -3 212.05 19.8
-2 -4 3 207.56 19.42
2 4 -3 208.64 15.73
-2 -4 2 2304.55 91.07
-2 -4 2 2396.85 82.21
2 4 -2 2277.9 80.79
2 4 -2 2399.31 83.43
2 4 -2 2397.12 83.58
-2 -4 2 2356.41 82.26
-2 -4 2 2286.59 81.96
2 4 -2 2397.08 83.58
-2 -4 2 2358.14 87.86
2 4 -2 2492.09 91.82
-2 -4 2 2332.44 87.65
-2 -4 2 2260.07 88.39
2 4 -1 5.82 2.74
-2 -4 1 5.23 2.3
-2 -4 1 7.02 3.09
2 4 -1 4.26 2.4
-2 -4 1 8.67 2.79
2 4 -1 4.8 2.39
-2 -4 1 8.3 3.34
-2 -4 1 7.05 2.78
2 4 -1 0.97 1.68
2 4 -1 2.88 2.35
-2 -4 1 2.94 2.54
2 4 -1 5.96 2.29
-2 -4 1 1.2 1.7
-2 -4 0 1786.24 62.84
2 4 0 1775.43 66.38
2 4 0 1727.55 67.44
-2 -4 0 1797.09 66.38
2 4 0 1861.82 67.05
-2 -4 0 1851.66 66.84
2 4 0 1861.1 68.51
-2 -4 0 1630.37 66.35
-2 -4 0 1842.71 73.84
2 4 0 1781.02 60.59
-2 -4 0 1790.01 70.35
-2 -4 -1 5.01 2.2
2 4 1 1.99 1.99
-2 -4 -1 5.95 2.47
-2 -4 -1 3.89 1.3
2 4 1 3.36 2.23
-2 -4 -1 6.87 2.94
2 4 1 6.68 3.14
-2 -4 -1 9.77 3.23
-2 -4 -1 4.84 2.7
-2 -4 -1 8.27 3.88
-2 -4 -2 1448.54 52.03
-2 -4 -2 1397.06 55.95
-2 -4 -2 1385.32 49.57
2 4 2 1527.65 59.8
2 4 2 1333.46 46.02
-2 -4 -2 1463.43 52
2 4 2 1390.49 58.37
-2 -4 -2 1410.03 60.41
-2 -4 -3 229.47 10.54
-2 -4 -3 239.79 15.32
-2 -4 -3 216.91 16.69
-2 -4 -3 210.57 14.37
2 4 3 237.64 19.16
2 4 3 228.4 18.75
2 4 3 239 11.61
-2 -4 -3 238.61 19.31
-2 -4 -3 237.9 13.17
-2 -4 -4 321 14.43
2 4 4 336.81 24.21
2 4 4 324.27 23.8
2 4 4 341.45 15.95
-2 -4 -4 313.2 14.38
-2 -4 -4 356.37 23.57
2 4 5 110.88 13.47
2 4 5 110.69 13.45
-2 -4 -5 109.19 11.59
-2 -4 -5 99.94 11.72
-2 -4 -5 87.35 4.67
2 4 5 97.36 8.29
2 4 6 1049.25 51.09
2 4 6 1040.16 51.1
2 4 6 1055.94 41.03
-2 -4 -6 881.53 38.77
-2 -4 -6 1001.03 45.45
-2 -4 -6 969.91 46.12
-2 -4 -7 12.21 4.81
2 4 7 1.8 2.53
2 4 7 1.52 2.14
-2 -4 -7 3.55 2.16
2 4 7 1 1.4
-2 -4 -7 -1.13 1.96
2 4 7 12.62 5.08
2 4 8 678.52 41.47
2 4 8 684.31 41.7
2 4 8 635.42 31.72
-2 -4 -8 666.34 33.32
2 4 8 652.44 37.45
2 4 9 14.57 5.87
2 4 9 9.74 3.43
2 4 9 8.3 4.63
2 4 9 11.19 4.51
2 4 10 975.07 49.46
2 4 11 1.64 2.31
-2 -4 -11 -2.43 3.42
2 4 12 105.62 16.76
2 4 12 116.71 14.66
-2 -4 -12 123.29 18.99
2 4 12 116.2 17.75
2 4 13 31.89 10.31
2 4 13 39.52 8.43
-2 -4 -13 35.18 10.98
2 4 13 42.71 11.64
2 4 14 866.41 56.81
2 4 14 909.92 47.05
2 4 14 933.7 58.58
-2 -4 -14 945.41 61.93
2 4 15 40.99 11.34
-2 -4 -15 58.53 14.99
2 4 15 26.24 9.25
2 4 16 241.33 28.4
2 4 16 300.75 34.08
-2 -4 -16 230.96 30.83
2 4 16 273.74 30.31
-2 -4 -17 96.67 20.14
2 4 17 75.66 18.86
2 4 17 73.84 15.79
2 4 17 68.8 16.68
2 4 17 76.68 16.03
2 4 18 27.8 10.25
2 4 18 40.08 11.93
-2 -5 13 37.2 13.69
2 5 -13 32.31 12.76
-2 -5 12 11.78 8.78
2 5 -12 34.59 12.72
-2 -5 12 42.58 11.27
2 5 -11 522 47.53
-2 -5 11 553.15 42.18
-2 -5 11 602.63 50.96
2 5 -10 47.5 13.58
-2 -5 10 45.06 10.11
-2 -5 10 54.63 12.23
2 5 -10 49.37 12.21
-2 -5 10 34.53 11.99
2 5 -9 3.16 3.15
-2 -5 9 5.05 4.36
2 5 -9 4.77 4.76
-2 -5 9 9.63 6.39
-2 -5 9 2.2 3.79
-2 -5 8 344.81 33.96
2 5 -8 361.24 34.59
-2 -5 8 338.99 31.07
2 5 -8 373.23 30.92
-2 -5 8 374.46 31.17
-2 -5 7 499.41 40.17
2 5 -7 531.65 41.39
-2 -5 7 517.67 38.4
2 5 -7 499.72 35.2
-2 -5 7 481.59 35.93
-2 -5 6 127.41 18.38
2 5 -6 130.32 18.77
-2 -5 6 89.84 15
2 5 -6 109.66 14.88
-2 -5 6 115.76 16.42
-2 -5 6 88.49 13.58
-2 -5 5 1104.02 59.91
-2 -5 5 1188.06 56.23
2 5 -5 1184.75 55.99
2 5 -5 1223.15 63.39
-2 -5 5 1163.25 60.5
-2 -5 5 1107.63 60.99
-2 -5 4 8.17 4.98
2 5 -4 1.97 2.78
2 5 -4 7.33 3.58
-2 -5 4 6.18 4.07
2 5 -4 7.04 3.31
-2 -5 4 4.11 3.55
2 5 -4 3.52 2.62
2 5 -4 12.84 6.03
2 5 -3 434.77 27.52
2 5 -3 430.27 31.15
2 5 -3 391.6 25.49
2 5 -3 416.15 26.04
-2 -5 3 486.84 30.05
2 5 -3 444.48 32.65
-2 -5 3 444.65 31.85
-2 -5 3 440.85 28.58
2 5 -2 210.47 17.41
2 5 -2 199.19 19.69
2 5 -2 248.37 19.03
2 5 -2 210.49 17.69
-2 -5 2 224.34 20.85
-2 -5 2 220.54 19.12
-2 -5 2 233.36 22.64
-2 -5 2 201.63 18.26
-2 -5 1 2689.94 92.72
2 5 -1 2665.86 94.7
2 5 -1 2492.45 99.33
2 5 -1 2665.13 97.45
2 5 -1 2620.58 97.24
-2 -5 1 2641.44 99.47
-2 -5 1 2678.94 98.26
2 5 -1 2567.68 87.43
-2 -5 1 2740.74 105.43
-2 -5 1 2571.35 97.38
2 5 0 193.53 17.92
-2 -5 0 230.5 19.04
2 5 0 189.12 11.26
2 5 0 181.51 17.04
-2 -5 0 198.42 14.92
-2 -5 0 172.88 16.1
-2 -5 0 183.24 19.68
2 5 0 194.87 17.6
2 5 1 331.85 24.11
-2 -5 -1 297.94 13.07
2 5 1 346.59 24.73
-2 -5 -1 364.03 21.04
-2 -5 -1 361.78 22.48
-2 -5 -1 372.73 28.24
-2 -5 -1 382.04 25.66
-2 -5 -2 274.35 18.7
-2 -5 -2 289.19 15.61
2 5 2 325.47 24.46
2 5 2 325.36 24.54
2 5 2 319.3 16.3
2 5 2 323.36 21.74
-2 -5 -2 346.46 26.4
-2 -5 -2 328.93 24.14
2 5 3 653.97 37.32
2 5 3 623.01 36.71
-2 -5 -3 623.19 28.32
-2 -5 -3 591.29 30.23
2 5 3 564.44 30.55
-2 -5 -3 646.21 37.5
2 5 3 584.25 25.44
2 5 4 574.61 25.48
2 5 4 592.05 36.42
-2 -5 -4 542.74 34.57
2 5 4 644.34 37.8
2 5 5 186.99 19.8
2 5 5 218.3 21.2
2 5 5 201.07 13.33
-2 -5 -5 207.34 19.23
-2 -5 -5 166.8 15.32
2 5 6 9.78 5.16
-2 -5 -6 6.11 3.41
2 5 6 10 3.23
2 5 6 11.76 5.17
-2 -5 -6 11.11 4.59
2 5 7 1184.79 60.81
2 5 7 1197.82 61.04
2 5 7 1183.48 48.8
-2 -5 -7 1250.98 55.31
-2 -5 -7 1085.09 54.38
-2 -5 -8 1.81 2.56
2 5 8 2.22 3.12
2 5 8 3.65 3.15
2 5 8 8.18 3.29
-2 -5 -8 4.18 2.78
2 5 8 4.44 3.83
2 5 9 1418.09 66.17
2 5 9 1389.93 71.11
-2 -5 -9 1387.49 67.73
-2 -5 -9 1370.81 59.36
2 5 9 1513.93 73.37
-2 -5 -10 6.82 5.07
2 5 10 10.01 5.58
2 5 10 11.14 4.9
2 5 10 9.98 6.09
2 5 11 457.3 32.64
-2 -5 -11 464.08 37.05
2 5 12 85.86 13.12
2 5 12 91.31 16.51
2 5 13 341.59 33.87
2 5 13 320.45 26.2
2 5 13 374.85 35.3
2 5 14 56.64 10.42
2 5 14 54.83 14.02
2 5 15 47.31 12.64
2 5 15 50.19 13.69
-2 -5 -15 41.99 13.57
2 5 16 3.24 4.56
-2 -5 -16 3.74 5.26
2 5 16 -3.22 4.54
2 5 17 314.68 33.52
2 5 17 257.79 33.87
2 5 17 248.39 30.27
-2 -5 -17 227.58 31.7
2 6 -11 23.55 11.09
-2 -6 11 32.01 12.63
-2 -6 10 12.18 6.78
-2 -6 10 15.18 8.45
2 6 -10 11.21 7.44
-2 -6 10 -2.59 4.46
-2 -6 9 125.56 20.45
-2 -6 9 151.24 21.1
-2 -6 9 149.84 24.5
2 6 -9 194.18 26.91
-2 -6 8 435.04 36.9
2 6 -8 448 41.02
-2 -6 8 448.88 38.75
-2 -6 8 366.92 37.71
2 6 -7 68.51 15.3
-2 -6 7 53.66 13.01
2 6 -7 87.51 16.25
-2 -6 7 90.13 16.16
-2 -6 7 37.2 11.28
2 6 -6 441.38 37.03
-2 -6 6 463.94 38.48
2 6 -6 461.34 34.07
2 6 -6 508.22 41.27
-2 -6 6 431.74 36.72
-2 -6 6 460.22 39.16
2 6 -5 74.82 13.98
2 6 -5 67.05 11.96
-2 -6 5 79.83 12.29
-2 -6 5 94.84 16.32
-2 -6 5 52.64 12.48
2 6 -5 79.56 15.61
-2 -6 5 82.2 15.07
2 6 -4 1452.85 67.5
-2 -6 4 1440.15 65.66
-2 -6 4 1621.37 76.48
2 6 -4 1456.73 72.15
-2 -6 4 1528.2 76.34
-2 -6 3 52.17 9.41
2 6 -3 43.02 8.79
2 6 -3 59.94 11.72
2 6 -3 34.62 7.98
2 6 -3 50.96 9.48
-2 -6 3 37.47 8.19
-2 -6 3 52.9 11.27
-2 -6 2 28.61 8.95
-2 -6 2 37.93 8.25
2 6 -2 47.73 9.19
2 6 -2 23.02 7.48
2 6 -2 29.36 7.14
2 6 -2 52.58 9.61
-2 -6 2 46.68 8.69
-2 -6 2 48.2 10.06
-2 -6 1 2.32 3.27
2 6 -1 1.78 3.08
-2 -6 1 4.74 3.52
2 6 -1 6.68 2.27
2 6 -1 1.7 1.7
2 6 -1 10.2 4.79
-2 -6 1 3.63 3.13
-2 -6 1 7.43 3.91
-2 -6 0 721.68 45.73
2 6 0 677.91 40.73
-2 -6 0 741.78 40.77
-2 -6 0 665.43 38.17
-2 -6 0 791.19 41.83
2 6 0 732.08 41.79
2 6 1 276.84 23.82
-2 -6 -1 287.16 26.59
-2 -6 -1 229.46 19.97
-2 -6 -1 235.7 21.34
2 6 1 248.47 22.82
-2 -6 -2 690.74 28.61
-2 -6 -2 766.24 46.19
2 6 2 797.69 39.87
-2 -6 -2 754.28 42.23
2 6 2 747.95 44.06
2 6 2 740.16 43.64
-2 -6 -3 358.15 20.38
2 6 3 455.42 32.33
-2 -6 -3 418.31 30.02
2 6 3 346.69 28.77
2 6 3 387.45 25.12
-2 -6 -3 413.76 31.58
2 6 4 201.54 21.91
2 6 4 210.8 16.99
-2 -6 -4 205.65 21.87
2 6 4 241.41 23.64
2 6 5 39.34 10.06
2 6 5 54.62 11.38
-2 -6 -5 50.9 10.4
-2 -6 -5 39.52 7.29
2 6 6 1480.07 73.64
2 6 6 1529.37 74.7
-2 -6 -6 1522.31 69.89
-2 -6 -6 1462.08 63.76
2 6 7 19.39 7.64
2 6 7 12.14 5.93
-2 -6 -7 14.73 5.81
-2 -6 -7 10.03 5.01
2 6 8 479.32 37.61
2 6 8 454.83 36.73
-2 -6 -8 488.35 32.43
-2 -6 -8 386.15 30.34
2 6 9 2.69 3.79
-2 -6 -9 6.37 4.23
2 6 9 2.68 2.67
2 6 9 4.3 3.71
2 6 10 1028.86 61.19
-2 -6 -10 1005.95 56.88
2 6 10 968.63 60.17
2 6 10 890 52.39
-2 -6 -11 2.6 3.66
2 6 11 2.12 2.99
-2 -6 -12 85.16 16.26
2 6 12 114.49 16.06
2 6 13 137.24 22.09
2 6 13 162.03 18.98
2 6 13 205.26 26.96
-2 -6 -13 166.52 23.68
2 6 14 136.03 22.36
-2 -6 -14 156.37 23.61
2 6 14 165.04 24.34
2 6 15 71.57 17.15
-2 -6 -15 88.94 18.57
2 6 15 91.64 18.37
2 6 16 128.39 22.33
2 6 16 93.14 18.75
-2 -6 -16 94.51 20.15
2 7 -10 21.65 9.52
-2 -7 10 14.9 7.29
2 7 -9 155.42 25.78
-2 -7 9 171.24 26.96
-2 -7 9 132.52 21.31
2 7 -9 178.21 25.95
-2 -7 8 117.88 21.6
2 7 -8 103.49 19.01
-2 -7 8 87.45 18.11
2 7 -7 212.34 27.05
-2 -7 7 218.33 28.87
-2 -7 7 282.1 30.72
2 7 -6 25.5 8.94
-2 -7 6 15.51 7.59
-2 -7 6 19.38 8.53
2 7 -5 137.18 20.28
-2 -7 5 147.3 16.91
-2 -7 5 165.25 23.4
-2 -7 5 132.46 20.77
2 7 -4 27.03 8.53
-2 -7 4 36.22 10.79
-2 -7 4 27.05 9.97
-2 -7 4 39.92 8.5
-2 -7 3 311.23 29.88
-2 -7 3 291.78 24.07
2 7 -3 317.8 28.92
2 7 -2 66.15 12.39
-2 -7 2 87.65 14.7
2 7 -2 79.7 13.52
2 7 -2 67.25 12.36
-2 -7 2 69.1 14.5
-2 -7 2 72.83 11.24
-2 -7 1 1186.04 56.58
2 7 -1 1265.92 63.1
-2 -7 1 1144.4 61.7
-2 -7 1 1236.67 69.3
2 7 -1 1242.26 62.45
-2 -7 0 24.65 8.64
2 7 0 15.2 6.14
-2 -7 0 19.77 6.84
2 7 0 19.47 6.83
-2 -7 0 22.41 6.59
-2 -7 0 8.94 4.74
2 7 1 57.06 10.81
-2 -7 -1 61.35 13.41
2 7 1 73.98 13.52
-2 -7 -1 57.27 10.55
2 7 1 75.85 13.45
-2 -7 -1 57.7 10.15
-2 -7 -1 59.3 10.91
-2 -7 -2 41.94 3.81
2 7 2 46.3 10.66
2 7 2 49.64 9.27
-2 -7 -2 59.75 13.01
2 7 2 50.66 11.09
-2 -7 -2 73.19 12.21
-2 -7 -2 64.23 10.58
-2 -7 -3 599.09 26.75
2 7 3 643.91 42.92
2 7 3 498.01 31.72
-2 -7 -3 651.54 44.29
-2 -7 -3 537.91 37.29
2 7 3 536.52 39.84
2 7 4 22.34 8.2
-2 -7 -4 12.28 6
2 7 4 6.4 3.39
2 7 4 12.4 6.06
-2 -7 -4 10.68 5.64
-2 -7 -4 10.03 3.47
2 7 5 449.07 37.28
-2 -7 -5 548.19 39.27
-2 -7 -5 507.5 29.29
2 7 5 425.3 36.25
2 7 6 298.44 29.91
-2 -7 -6 330.23 29.21
-2 -7 -6 266.92 21.92
2 7 6 271.49 28.56
2 7 7 1541.97 80.06
2 7 7 1515.53 79.58
-2 -7 -7 1530.35 73.89
-2 -7 -7 1501.93 68.29
2 7 8 43.92 11.76
2 7 8 58.67 13.78
-2 -7 -8 38.8 9.71
-2 -7 -8 64.52 11.61
2 7 9 85.5 16.59
2 7 9 122.8 18.2
-2 -7 -9 83.15 14.21
2 7 9 82.25 16.83
2 7 10 12.72 7.09
2 7 10 12.37 6.04
-2 -7 -10 14.55 6.84
2 7 10 9.52 6.33
2 7 11 33.07 11.42
-2 -7 -11 23.97 8.82
2 7 11 23.08 9.3
2 7 11 9.71 6.42
-2 -7 -12 107.43 18.25
2 7 12 80.1 14.52
2 7 13 687.23 53.56
2 7 13 719.79 45.43
2 7 13 651.5 52.37
-2 -7 -13 642.63 49.79
2 7 14 10.81 7.19
-2 -7 -14 20.2 8.88
2 7 14 7.18 7.15
2 7 15 168.77 25.87
2 7 15 113.19 21.24
-2 -7 -15 125.11 22.28
-2 -8 8 581.07 48.96
2 8 -8 543.38 45.68
-2 -8 7 124.77 22.5
-2 -8 7 121.49 21.88
2 8 -7 90.74 17.64
-2 -8 6 21.44 9.44
-2 -8 6 35.83 12.38
2 8 -6 23.67 8.87
-2 -8 5 10.08 6.69
-2 -8 5 3.56 5.01
2 8 -5 -2.78 2.77
-2 -8 4 270.22 31.02
-2 -8 4 299.04 34.11
2 8 -4 296.97 29.53
-2 -8 3 196.33 25.71
2 8 -3 283.07 27.72
-2 -8 2 89.72 16.53
-2 -8 2 102.5 13.2
-2 -8 2 132.2 21.83
-2 -8 1 50.35 11.82
2 8 -1 47.73 11.53
2 8 -1 37.55 10.35
-2 -8 1 43.18 12.87
-2 -8 1 33.1 7.94
-2 -8 0 796.17 43.08
2 8 0 789.56 51.46
-2 -8 0 815.5 49.8
2 8 0 843.47 49.47
-2 -8 0 724.78 54.76
2 8 0 819.25 51.96
-2 -8 -1 20.27 7.16
2 8 1 18.55 7.93
2 8 1 15.98 7.04
2 8 1 13.89 5.61
-2 -8 -1 22.2 8.95
2 8 2 592.1 44.02
-2 -8 -2 563.83 36.09
2 8 2 632.8 45.32
-2 -8 -2 548.07 45.19
2 8 2 559.26 36.04
-2 -8 -3 36.16 10.92
2 8 3 67.51 10.82
2 8 3 39.36 10.94
2 8 3 53.57 12.95
2 8 4 174.44 23.57
-2 -8 -4 199.74 25.03
2 8 4 171.41 16.49
-2 -8 -4 197.92 22.38
2 8 4 162.55 23
2 8 5 -3 4.23
-2 -8 -5 2.86 4.02
-2 -8 -5 22.17 7.76
2 8 5 15.01 7.33
-2 -8 -5 8.27 3.72
2 8 6 282.6 31.16
2 8 6 282.53 31
-2 -8 -6 263.84 28.63
-2 -8 -6 260.88 21.4
2 8 7 106.01 19.09
-2 -8 -7 125.83 19.02
-2 -8 -7 90.79 13.01
-2 -8 -8 136.41 19.63
2 8 8 156.71 23.48
-2 -8 -8 111.82 15.61
2 8 9 41.31 12.43
-2 -8 -9 41.87 10.14
2 8 9 51.51 13.74
2 8 10 772.67 58.4
2 8 10 803.73 53.7
-2 -8 -10 754.77 49.5
2 8 10 952.18 63.64
2 8 11 47.58 14.18
2 8 11 46.59 11.98
2 8 11 43.81 13.67
-2 -8 -11 48.25 12.02
-2 -8 -12 93.24 17.34
2 8 12 76.42 15.05
-2 -8 -13 3.13 4.42
-2 -8 -14 200.05 27
-2 -9 5 54.33 14.57
-2 -9 5 99.53 21.08
-2 -9 4 99.41 19.82
-2 -9 4 95.21 20.35
-2 -9 2 73.84 17.44
2 9 -1 868.63 54.76
-2 -9 1 964.75 67.57
-2 -9 0 3.76 3.75
2 9 0 -2.34 3.29
2 9 0 -2.96 4.17
2 9 0 -2.98 4.19
-2 -9 -1 36.81 12.2
2 9 1 33.74 8.97
2 9 1 24.4 9.17
2 9 1 64.3 14.66
-2 -9 -2 10.78 7.17
2 9 2 7.46 4.16
2 9 2 21.98 9.39
2 9 2 9.44 7.02
2 9 3 375.51 37.44
-2 -9 -3 407.92 40.53
2 9 3 407.21 38.61
-2 -9 -4 20.51 9.03
2 9 4 33.22 11
2 9 4 23.28 9.4
-2 -9 -5 96.41 18.63
2 9 5 82.02 17.57
2 9 5 102.56 19.45
-2 -9 -6 32.27 11.18
2 9 6 42.19 13.14
2 9 6 35.14 11.66
2 9 7 339.85 36.74
2 9 7 289.57 34.4
-2 -9 -7 357.63 35.12
2 9 8 357.23 38.11
2 9 8 304.59 35.63
2 9 9 251.68 32.66
2 9 9 266.29 33.24
2 9 10 3.15 5.43
2 9 10 -3.9 3.89
2 9 10 -3.89 3.88
2 9 11 251.13 33.5
2 9 11 293.69 31.38
2 9 11 290.35 35.7
-2 -10 -1 45.37 14.87
-2 -10 -2 60.6 16.69
2 10 2 69.75 16.4
2 10 2 59.22 15.24
-2 -10 -3 51.29 15.31
2 10 3 68.13 17.21
2 10 3 57.35 15.24
-2 -10 -4 80.85 18.58
2 10 4 92.09 19.24
2 10 4 99.43 20.59
-2 -10 -5 112.24 21.3
2 10 5 101.89 20.81
2 10 5 98.15 20.47
-2 -10 -6 517.65 46.93
2 10 6 525.53 48.56
2 10 6 549.33 49.37
2 10 7 3.96 5.58
-3 8 9 85.4 17.79
3 -8 -8 287.08 32.08
-3 8 7 41.82 13.17
3 -8 -7 26.94 11.56
-3 8 7 74.73 17.04
3 -8 -7 51.89 13.3
-3 8 7 26.54 11.39
3 -8 -6 22.29 9.79
-3 8 6 3.52 4.97
-3 8 6 7.63 6.59
3 -8 -5 21.42 9.43
3 -8 -5 23.47 10.04
-3 8 5 24.4 9.84
-3 8 4 326.3 37.28
-3 8 4 315.17 36.53
3 -8 -4 296.76 33.53
3 -8 -4 297.49 34.17
-3 8 4 253.5 31.74
-3 8 3 -3.85 6.65
-3 8 3 10.4 6.91
3 -8 -3 -3.24 4.56
3 -8 -3 3.63 5.12
-3 8 3 3.86 5.43
-3 8 2 147.16 25.21
-3 8 2 173.69 25.92
3 -8 -2 232.08 27.84
3 -8 -2 172.59 26.64
-3 8 2 150.96 25.49
-3 8 1 -3.89 5.48
-3 8 1 3.5 3.49
3 -8 -1 5.7 6.95
3 -8 -1 -3.86 5.44
-3 8 1 3.89 5.48
3 -8 0 362.65 37.56
-3 8 0 352.28 39.4
3 -8 0 308.55 37.17
-3 8 0 411.75 40.26
-3 8 0 359.13 39.5
-3 8 -1 3.92 6.76
3 -8 1 3.62 3.61
-3 8 -1 -3.93 3.91
-3 8 -1 3.61 3.6
3 -8 1 4.04 5.69
-3 8 -2 51.28 15.32
3 -8 2 49.24 14.72
3 -8 2 69.86 17.45
-3 8 -2 82.58 18.87
3 -7 -11 234.06 31.07
-3 7 11 253.75 30.79
-3 7 11 252.9 32.02
-3 7 11 250.12 31.7
-3 7 11 247.2 30.44
3 -7 -10 27.66 10.37
-3 7 10 33.67 11.65
3 -7 -10 47.3 14.72
-3 7 10 16.82 8.91
-3 7 10 46.94 13.96
-3 7 10 38.3 12.54
-3 7 9 3.39 4.77
-3 7 9 3.38 4.76
-3 7 9 14.1 8.6
3 -7 -9 3.84 5.41
3 -7 -9 3.32 5.73
-3 7 8 10.37 6.89
-3 7 8 10.16 7.54
3 -7 -8 3.72 5.24
-3 7 8 3.4 4.79
-3 7 7 406.86 39.19
-3 7 7 329.21 35.56
-3 7 7 302.43 34.12
-3 7 6 16.61 8.11
-3 7 6 3.39 4.78
-3 7 6 13.58 7.57
3 -7 -6 6.93 5.98
-3 7 5 94.73 18.02
3 -7 -5 79.74 17.08
3 -7 -5 101.78 18.33
-3 7 4 6.47 7.2
3 -7 -4 3.12 4.4
3 -7 -4 3.18 3.16
3 -7 -3 913.22 59.32
-3 7 3 882.03 61.64
-3 7 3 847.78 58.84
3 -7 -3 930.66 61.55
-3 7 3 892.23 62.11
-3 7 2 72.51 16.27
-3 7 2 51.94 14.38
3 -7 -2 117.39 18.82
-3 7 2 77.21 16.48
3 -7 -2 53.64 14.33
3 -7 -2 93.22 16.52
3 -7 -1 317.66 31.37
-3 7 1 295.66 33.5
-3 7 1 310.56 34.66
-3 7 1 263.52 31.33
3 -7 -1 306.62 31.63
3 -7 -1 331.99 35.73
-3 7 0 140.56 23.15
3 -7 0 113.93 19.39
-3 7 0 81.1 17.47
-3 7 0 102.31 19.12
3 -7 0 102.83 16.85
3 -7 0 99.48 19.62
-3 7 -1 99.6 19.54
3 -7 1 59.9 12.35
3 -7 1 120.18 20.07
-3 7 -1 78.03 17.45
3 -7 1 65.54 15.97
-3 7 -2 17.96 9.49
3 -7 2 20.74 7.19
3 -7 2 27.34 10.79
3 -7 2 26.07 11.15
-3 7 -2 28.65 10.72
-3 7 -3 394.12 39.93
-3 7 -3 348.38 38.06
3 -7 3 368.17 39.49
3 -7 3 366.04 38.51
3 -7 4 11.27 8.37
3 -7 4 11.57 8.59
-3 7 -4 7.3 6.3
-3 7 -4 10.99 7.3
3 -7 5 74.44 18.44
-3 7 -5 88.16 18.79
-3 7 -5 70.05 16.98
3 -7 6 4.07 5.73
3 -7 6 -3.92 5.52
-3 7 -6 -3.7 6.39
-3 7 -6 14.76 9
-3 7 -7 140.49 24.08
-3 7 -7 206.4 28.62
-3 6 13 31.96 11.97
3 -6 -12 40.38 12.68
-3 6 12 41.04 11.7
-3 6 12 25.68 10.36
-3 6 12 35.29 11.37
3 -6 -12 38.09 13.16
-3 6 12 7.63 6.62
3 -6 -11 98.32 19.31
-3 6 11 88.63 17.08
-3 6 11 56.98 14.82
-3 6 11 82.77 16.83
3 -6 -11 96.9 19.79
-3 6 11 93.78 19.16
-3 6 10 236.76 28.28
3 -6 -10 292.71 32.91
-3 6 10 319.87 32.46
3 -6 -10 268.45 32.66
-3 6 10 223.41 29.28
-3 6 10 294.49 33.66
-3 6 9 -2.95 4.16
3 -6 -9 3.52 4.95
-3 6 9 8.89 6.6
-3 6 9 10.02 6.65
-3 6 8 114.95 19.09
3 -6 -8 112.02 19.99
-3 6 8 121.17 19.81
-3 6 8 106.88 19.37
-3 6 7 2.94 5.07
3 -6 -7 3.27 3.25
-3 6 7 9.43 7
-3 6 7 -2.94 5.08
-3 6 6 401.99 36.47
-3 6 6 399.59 36.4
3 -6 -6 363.61 32.47
-3 6 6 377.56 36.23
-3 6 5 132.18 20.53
3 -6 -5 152.46 20.9
-3 6 5 172.36 23.53
-3 6 5 152.56 21.92
3 -6 -4 940.24 60.17
3 -6 -4 1034.99 60.79
-3 6 4 1019.82 62.43
-3 6 3 260.65 29.4
3 -6 -3 208.31 22.76
-3 6 3 285.23 30.36
3 -6 -3 248.7 27.39
3 -6 -3 212.69 25.84
-3 6 3 213.6 26.13
-3 6 2 403.67 36.14
3 -6 -2 373.52 33.43
-3 6 2 385.4 36.01
-3 6 2 395.68 36.36
-3 6 2 330.58 21.17
3 -6 -2 312.66 29.43
3 -6 -2 408.65 36.65
-3 6 1 34.94 10.92
-3 6 1 51.43 13.19
-3 6 1 31.65 6.36
3 -6 -1 59.67 12.68
3 -6 -1 44.06 10.69
3 -6 -1 50.88 12.7
-3 6 1 45.23 12.07
3 -6 0 463.99 36
-3 6 0 503.35 41.81
-3 6 0 526.61 42.82
3 -6 0 567.35 44.49
-3 6 0 451.2 27.54
3 -6 0 448.8 37.51
-3 6 -1 27.89 9.78
-3 6 -1 25.66 6.34
-3 6 -1 24.87 9.31
3 -6 1 19.04 8.39
3 -6 1 33.84 10.53
3 -6 1 14.94 6.05
-3 6 -2 3.15 3.14
-3 6 -2 4.54 3.37
-3 6 -2 3.16 5.45
3 -6 2 3.26 3.24
3 -6 2 5.98 5.16
3 -6 2 7.82 4.36
-3 6 -3 51.23 13.64
-3 6 -3 61.02 14.41
3 -6 3 70.04 15.67
3 -6 3 69.65 15.22
-3 6 -3 52.2 9.78
3 -6 3 59.4 10.58
-3 6 -4 600.47 48.2
-3 6 -4 622.2 48.89
-3 6 -4 580.42 48.63
3 -6 4 525.04 46.38
3 -6 4 619.07 49.05
-3 6 -5 3.32 5.74
3 -6 5 31.7 11.1
-3 6 -5 21.2 9.96
-3 6 -5 20.03 9.41
-3 6 -6 247.12 30.07
-3 6 -6 194.02 27.02
-3 6 -6 211.72 29.33
3 -6 6 211.25 28.55
3 -6 6 233.22 30.62
-3 6 -7 17.24 8.43
3 -6 7 10.65 7.09
-3 6 -7 18.9 9.23
-3 6 -7 27.44 11.34
3 -6 7 19.35 9.45
3 -6 8 213.23 29.63
-3 6 -8 285.37 34.68
3 -6 8 213.45 30.85
-3 6 -8 249.24 30.7
-3 6 -8 274.95 32.38
3 -6 9 31.65 11.68
-3 6 -9 40.35 13.98
3 -6 9 74.98 18.59
3 -6 10 381.62 38.53
-3 5 14 34.18 11.2
3 -5 -14 34.55 12.13
3 -5 -14 46.56 13.38
-3 5 14 26.83 12.11
-3 5 14 28.77 11.62
-3 5 13 11.52 7.59
3 -5 -13 3.7 5.22
-3 5 13 9.93 6.06
3 -5 -13 10.62 7.06
-3 5 13 14.93 6.57
-3 5 13 33.18 11.61
-3 5 13 15.65 9.55
-3 5 12 149.84 21.12
-3 5 12 164.53 21.45
-3 5 12 199.33 23.5
3 -5 -12 218.6 29.02
3 -5 -12 169.98 25.71
-3 5 12 237.41 30.21
-3 5 12 173.81 26.83
-3 5 11 632.13 44.03
-3 5 11 568.2 40.96
3 -5 -11 610.54 49.48
-3 5 11 555.05 41.73
-3 5 11 544.35 47.03
3 -5 -11 588.32 48.2
-3 5 11 531.75 47.03
-3 5 10 19.42 9.12
-3 5 10 12.63 7.12
-3 5 10 8.4 5.55
-3 5 10 17.69 7.13
3 -5 -10 22.92 9.23
-3 5 10 9.79 7.28
-3 5 9 316.3 32.73
-3 5 9 299.4 29.48
-3 5 9 327.38 34.07
-3 5 9 328.26 30.73
-3 5 9 331.01 26.6
3 -5 -9 362.85 35.3
-3 5 8 29.97 9.01
-3 5 8 29.83 9.89
-3 5 8 32.42 9.65
-3 5 8 29.51 7.13
3 -5 -8 18.22 8.04
-3 5 7 862.68 55.73
-3 5 7 868.28 52.85
-3 5 7 766.3 39.48
-3 5 7 844.12 52.07
-3 5 6 0.98 1.7
-3 5 6 -2.47 4.25
-3 5 6 2.75 3.87
-3 5 6 -2.47 4.92
3 -5 -6 5.56 5.54
3 -5 -6 -2.06 2.05
-3 5 5 169.9 22.17
-3 5 5 177.63 21.68
3 -5 -5 182.21 20.61
-3 5 5 135.69 19.48
3 -5 -5 164.63 21.86
-3 5 4 2.58 3.64
-3 5 4 -1.13 2.25
-3 5 3 717.75 36.2
3 -5 -3 734.83 42.82
3 -5 -3 726.66 47.65
-3 5 2 85.74 15.12
3 -5 -2 101.32 14.52
-3 5 2 97.11 11.21
3 -5 -2 102.94 16.03
-3 5 2 100.51 16.46
-3 5 2 83.52 15.17
-3 5 1 249.5 26.64
-3 5 1 273.27 27.67
3 -5 -1 266.31 24.91
-3 5 1 259.6 19.44
3 -5 -1 212.08 23.27
-3 5 0 93.42 15.95
-3 5 0 84.91 11.06
3 -5 0 91.74 14.32
-3 5 0 106.07 17.11
3 -5 0 93.33 15.09
-3 5 -1 377.9 34.7
-3 5 -1 467.11 37.9
3 -5 1 455.76 35.49
-3 5 -1 382.57 26.83
3 -5 1 512.73 34.06
-3 5 -2 8.18 5.44
-3 5 -2 3.13 3.12
3 -5 2 12.78 6.24
-3 5 -2 2.71 3.82
3 -5 2 10.59 4.97
-3 5 -3 302.67 31.22
3 -5 3 368.01 26.53
-3 5 -3 299.42 31.33
3 -5 3 328.45 31.87
-3 5 -3 347.89 33.18
-3 5 -4 60.56 13.83
-3 5 -4 34.33 10.73
3 -5 4 38 10.96
-3 5 -4 35.46 11.08
3 -5 4 42.75 8.24
-3 5 -5 233.71 28.49
3 -5 5 214.67 17.54
-3 5 -5 234.8 27.58
-3 5 -5 238.65 27.83
3 -5 5 208.25 26.71
-3 5 -6 189.47 25.59
-3 5 -6 145.7 22.06
3 -5 6 121.85 20.98
-3 5 -6 174.62 24.26
3 -5 6 162.51 23.1
-3 5 -7 1005.97 62.92
-3 5 -7 964.95 62.06
3 -5 7 858.39 62.74
-3 5 -7 942.58 63.41
3 -5 7 1021.34 63.97
3 -5 8 18.31 9.74
-3 5 -8 57.43 14.27
-3 5 -8 45.08 12.49
-3 5 -8 81.14 17.96
3 -5 8 66.06 15.08
3 -5 9 122.78 22.44
-3 5 -9 88.17 17.07
-3 5 -9 87.77 17.64
-3 5 -9 85.29 17.49
-3 5 -9 81.35 18.24
3 -5 9 94.43 17.66
3 -5 10 71.88 17.91
-3 5 -10 76.47 16.68
3 -5 10 68.57 15.35
-3 5 -10 54.57 14.09
-3 5 -10 79.07 17.18
-3 5 -10 84.96 18.96
-3 5 -11 225.83 29.44
-3 5 -11 285.33 35.23
3 -5 11 221.43 27.53
3 -5 11 325.8 36.16
3 -4 -15 65.12 16.71
-3 4 15 82.75 18.89
-3 4 15 35.72 12.93
3 -4 -14 866.39 62.34
3 -4 -14 873.89 59.44
-3 4 14 924.69 64.6
-3 4 14 692.41 54.9
3 -4 -13 10.59 7.04
-3 4 13 21.68 9.26
3 -4 -13 22.24 8.96
-3 4 13 10.75 7.15
3 -4 -12 216.76 28.49
-3 4 12 215.68 22.76
-3 4 12 184.13 24.26
-3 4 12 214.37 22.45
3 -4 -12 254.62 29.2
-3 4 12 217.93 28.46
3 -4 -11 36.16 10.88
3 -4 -11 41.11 11.84
-3 4 11 37.96 9.46
-3 4 11 25.83 10.23
-3 4 11 65.57 12.15
-3 4 11 23.16 9.95
-3 4 11 51.3 12.03
-3 4 10 674.65 44.95
-3 4 10 724.79 44.65
-3 4 10 816.1 54.34
-3 4 10 673.28 50.5
3 -4 -10 694.7 49.93
-3 4 10 671.89 43.34
-3 4 9 156 18.71
-3 4 9 138.54 17.93
-3 4 9 157.59 18.9
-3 4 9 162.06 22.59
-3 4 9 152.2 21.67
3 -4 -9 167.52 22.53
-3 4 8 65.13 11.65
-3 4 8 94.48 14.54
-3 4 8 103.77 17.39
-3 4 8 75.81 13
-3 4 8 100.17 16.58
3 -4 -8 122.9 18.61
-3 4 7 301.4 29.19
-3 4 7 261.65 24.48
3 -4 -7 270.48 28.01
-3 4 7 237.17 23.36
-3 4 7 189.23 18.6
-3 4 6 445.26 35.85
-3 4 6 485.83 34.03
3 -4 -6 394.76 34.2
-3 4 6 446.03 32.86
-3 4 6 421.24 26.61
-3 4 5 8.08 4.51
3 -4 -5 9.28 5.17
-3 4 5 8.06 4.5
-3 4 5 16.43 6.62
-3 4 4 1612.04 76.32
-3 4 4 1681.87 77.25
-3 4 4 1762.08 81.87
3 -4 -4 1791.37 68.82
3 -4 -4 1668.3 63.27
3 -4 -4 1889.36 82.63
-3 4 4 1704.29 68.48
3 -4 -3 -0.65 0.91
-3 4 3 2.2 3.1
-3 4 3 -1.19 2.06
3 -4 -3 1.36 1.92
-3 4 3 -0.51 1.25
-3 4 2 49.69 10.6
-3 4 2 45.43 7.74
-3 4 2 39.14 9.78
3 -4 -2 42.35 8.36
-3 4 2 53.69 10.96
-3 4 1 227.04 23.24
3 -4 -1 259.99 23.58
3 -4 -1 232.74 21
-3 4 1 211.13 22.46
-3 4 1 260.57 19.42
-3 4 0 587.86 39.11
-3 4 0 517.89 37.25
-3 4 0 565.26 31.71
3 -4 0 498.95 34.32
3 -4 0 520.82 34.68
-3 4 -1 -2.22 3.12
-3 4 -1 -2.23 2.23
3 -4 1 1.99 2.8
3 -4 1 3.34 3.32
-3 4 -1 7.01 3.42
-3 4 -2 1053.73 57.34
-3 4 -2 1038.83 56.64
-3 4 -2 922.83 33.86
3 -4 2 967.93 48.46
-3 4 -2 1117.93 58.42
3 -4 2 1016.4 55.8
-3 4 -3 175.63 21.6
3 -4 3 150.85 15.74
-3 4 -3 148 19.94
-3 4 -3 209.58 23.28
3 -4 3 192.25 21.97
-3 4 -4 1410.79 72.13
3 -4 4 1360.9 71.42
-3 4 -4 1457.75 72.58
3 -4 4 1311.15 57.86
-3 4 -4 1391.55 71.54
-3 4 -5 2.6 3.66
3 -4 5 2.71 3.82
-3 4 -5 5.14 4.43
3 -4 5 4.54 2.77
-3 4 -5 -2.62 5.22
-3 4 -6 70.29 14.34
3 -4 6 63.85 14.26
-3 4 -6 61.01 14.44
-3 4 -6 38.64 9.7
-3 4 -6 66.89 13.69
-3 4 -7 2.81 3.96
-3 4 -7 -2.32 4.01
-3 4 -7 2.78 2.77
-3 4 -7 8.84 5.87
3 -4 7 -3.1 4.36
-3 4 -8 320.44 32.2
-3 4 -8 326.91 32.66
3 -4 8 281.61 29.77
-3 4 -8 279.68 28.79
3 -4 8 342.19 34.99
-3 4 -8 394.44 36.74
-3 4 -9 42.25 12.11
-3 4 -9 46.32 12.22
-3 4 -9 74.62 15.51
-3 4 -9 36.53 12.01
3 -4 9 55.73 14.79
3 -4 9 51.88 12.84
-3 4 -10 328.77 33.37
-3 4 -10 323.07 33.42
3 -4 10 324.64 31.72
-3 4 -10 319.7 32.23
-3 4 -10 316.97 35.04
3 -4 10 260.23 33.31
-3 4 -11 34.86 11.06
3 -4 11 63.53 15.35
-3 4 -11 59.54 14.73
-3 4 -11 65.88 15.07
3 -4 11 64.38 13.46
-3 4 -11 66.85 16.62
3 -4 12 118.92 18.48
3 -4 12 159.29 24.72
-3 4 -12 149.71 23.55
-3 4 -12 132.67 23.67
3 -4 12 150.79 25.01
3 -4 13 35.48 11.78
3 -4 13 40.64 13.48
-3 4 -13 40.7 14.1
-3 4 -13 59.5 15.24
-3 3 15 26.24 11.25
-3 3 15 49.65 15.46
3 -3 -15 43.86 13.17
-3 3 14 -3.92 5.52
3 -3 -14 10.47 7.78
-3 3 14 3.71 5.22
-3 3 14 3.51 3.49
-3 3 13 431.45 40.9
3 -3 -13 681.26 50.54
3 -3 -13 543.67 42.53
-3 3 13 477.52 45.28
-3 3 13 603.45 49.39
-3 3 12 53.43 13.31
3 -3 -12 59.44 14.02
-3 3 12 51.06 9.69
3 -3 -12 54.72 12.88
-3 3 12 57.93 10.15
-3 3 12 47.83 13.27
-3 3 12 48.95 13.49
-3 3 11 871.01 46.08
-3 3 11 783.62 53.22
-3 3 11 849.77 45.58
3 -3 -11 856.19 54.21
3 -3 -11 942.47 59.56
-3 3 11 880.3 58.17
3 -3 -10 448.5 36.29
-3 3 10 455.91 31.02
-3 3 10 367.52 32.85
-3 3 10 437.92 30.31
-3 3 10 383.27 35.99
3 -3 -9 65.91 13.49
-3 3 9 92.42 12.91
-3 3 9 68.75 12.84
-3 3 9 69.74 14.04
-3 3 9 67.6 11.1
-3 3 8 125.48 15.21
-3 3 8 124.96 15.15
-3 3 8 132.25 16.76
3 -3 -8 165.72 20.25
-3 3 8 144.33 19.27
-3 3 8 130.19 18.74
-3 3 7 715.44 30.33
-3 3 7 771.45 48.57
-3 3 7 739.55 41.2
-3 3 7 871.3 49.14
3 -3 -7 777.3 47.21
-3 3 7 727.5 40.89
-3 3 7 719.07 40.86
-3 3 6 25.1 6.08
-3 3 6 20.89 4.27
-3 3 6 20.71 6.17
-3 3 6 21.24 6.95
-3 3 6 9.57 4.52
3 -3 -6 16.93 6.34
-3 3 6 19.79 6.95
-3 3 5 33.03 8.49
3 -3 -5 16.07 6.65
-3 3 5 15.12 4.51
-3 3 5 19.57 4.48
-3 3 5 9.58 4.24
-3 3 5 20.7 5.96
3 -3 -5 18.06 5.92
-3 3 5 17.4 5.19
-3 3 4 71.72 9.94
3 -3 -4 76.97 8.52
3 -3 -4 72.66 8.82
-3 3 4 73.89 11.28
-3 3 4 59.28 10.19
-3 3 4 78.29 12.81
3 -3 -4 74.46 12.21
3 -3 -4 74.61 10.71
3 -3 -3 2581.03 88.48
3 -3 -3 2434.69 84.18
3 -3 -3 2460.82 98.94
-3 3 3 2552.11 100.55
-3 3 3 2449.59 80.88
-3 3 3 2391.1 90.32
3 -3 -3 2430.56 91.23
3 -3 -2 470.1 27.52
-3 3 2 527.6 35.09
3 -3 -2 502.08 33.07
-3 3 2 497.98 23.56
-3 3 2 458.62 27.62
3 -3 -2 470.38 21.76
-3 3 1 1892.85 78.11
-3 3 1 1913.11 78.61
-3 3 1 1713.89 70.73
3 -3 -1 1875.34 73.15
3 -3 -1 1768.79 65.68
3 -3 0 107.52 14.12
-3 3 0 105.06 12.04
-3 3 0 90.75 13.23
3 -3 0 109.51 13.53
3 -3 0 89.69 11.98
-3 3 0 96.92 13.57
-3 3 -1 754.93 43
-3 3 -1 758.58 43.24
-3 3 -1 784.86 43.96
3 -3 1 754.35 42.97
3 -3 1 691.39 38.72
3 -3 1 717.06 40.75
3 -3 2 14.37 5.37
-3 3 -2 5.81 3.87
3 -3 2 9.34 4.57
-3 3 -2 5.75 3.83
-3 3 -2 14.96 5.9
3 -3 2 12.3 4.31
-3 3 -3 549.47 37.93
-3 3 -3 545.35 38
3 -3 3 637.33 39.48
3 -3 3 536.83 31.32
3 -3 3 639.27 39.69
-3 3 -3 601.6 38.44
-3 3 -4 232.56 23.56
-3 3 -4 247.94 24.54
3 -3 4 232.67 23.16
3 -3 4 229.57 18.13
3 -3 4 223.08 23.49
-3 3 -4 262.42 24.58
-3 3 -4 264.74 21.28
-3 3 -5 153.43 16.88
-3 3 -5 156.87 19.67
3 -3 5 167.59 20.79
-3 3 -5 197.58 21.87
-3 3 -5 168.52 20.35
-3 3 -6 2.36 3.33
-3 3 -6 8.97 4.73
3 -3 6 2.52 3.55
-3 3 -7 1200.09 60.21
3 -3 7 1166.03 66.32
3 -3 7 1154.28 45.19
-3 3 -7 1210.19 65.79
3 -3 8 32 10.47
-3 3 -8 16.37 7.22
-3 3 -8 21.81 7.86
3 -3 8 25.51 3.56
3 -3 9 294.95 31.85
-3 3 -9 231.9 25.12
-3 3 -9 275.66 30.47
-3 3 -10 59.78 14.45
-3 3 -10 67.95 13.87
3 -3 10 46.43 11.21
-3 3 -11 154.65 23.93
-3 3 -11 170.12 22.93
3 -3 11 167.58 20.76
3 -3 11 168.79 23.15
-3 3 -12 7.17 6.18
-3 3 -12 -3.06 6.09
3 -3 12 6.1 6.07
3 -3 12 7.3 7.27
-3 3 -12 6.12 6.1
-3 3 -12 -3.02 4.25
3 -3 12 4.45 4.43
-3 3 -13 104.76 19.5
3 -3 13 82.16 16.9
-3 3 -13 128.97 23.46
3 -3 13 91.04 19.47
-3 3 -14 152.69 23.91
-3 3 -14 103.58 21.61
3 -3 14 74.95 17.17
3 -3 14 144.27 24.46
3 -2 -16 71.67 16.89
-3 2 16 72.13 18.07
-3 2 16 90.03 19.68
3 -2 -15 3.45 4.86
-3 2 15 12.15 8.07
-3 2 15 3.87 5.46
3 -2 -14 558.48 46.03
-3 2 14 524.82 46.99
-3 2 14 523.68 48.45
-3 2 13 6.81 5.89
3 -2 -13 15.53 8.19
-3 2 13 14.28 7.96
-3 2 13 20.07 8.82
-3 2 12 140.91 21.53
3 -2 -12 131.1 20.72
3 -2 -12 151.48 19.73
-3 2 12 154.89 23.07
-3 2 12 125.68 21.49
-3 2 11 2.78 3.92
-3 2 11 7.3 3.43
3 -2 -11 2.3 3.24
-3 2 11 6.12 3.45
-3 2 11 2.92 4.11
-3 2 11 -3.04 4.28
3 -2 -10 836.57 52.36
-3 2 10 765.25 39.21
-3 2 10 801.59 51.45
-3 2 10 816.93 40.05
-3 2 10 776.61 52.52
3 -2 -10 889.57 50.78
-3 2 10 888.13 55.07
3 -2 -9 95.19 14.67
-3 2 9 95.63 11.43
-3 2 9 58.17 12.27
-3 2 9 87.91 11.06
-3 2 9 93.08 16.06
3 -2 -9 95.67 15.86
-3 2 9 109.68 16.85
3 -2 -8 36.25 8.85
-3 2 8 29.64 8.23
-3 2 8 52.45 8.35
3 -2 -8 53.06 11.34
-3 2 8 47.56 8.08
3 -2 -8 64.27 12.36
-3 2 8 60.04 12.24
-3 2 7 306.83 21.69
-3 2 7 346.17 26.69
-3 2 7 286.99 21.19
3 -2 -7 350.29 29.17
-3 2 7 391.4 30.72
3 -2 -7 343.59 27.9
-3 2 6 1097.23 50.31
-3 2 6 1122.74 54.14
-3 2 6 1134.51 50.7
-3 2 6 1274.75 61.08
3 -2 -6 1335.48 60.49
3 -2 -6 1285.11 61.33
-3 2 6 1180.84 48.18
-3 2 6 1178.4 41.55
-3 2 5 307.76 16.83
-3 2 5 307.67 22.02
-3 2 5 288.4 20.99
-3 2 5 315.48 21.77
-3 2 5 316.52 24.39
3 -2 -5 365.1 27.32
-3 2 5 312.25 22.86
-3 2 5 362.43 27.57
-3 2 5 322.57 20.32
-3 2 4 1583.58 67.54
3 -2 -4 1696.94 68.99
3 -2 -4 1788.12 73.16
-3 2 4 1827.44 74.35
3 -2 -4 1877.23 74.19
3 -2 -4 1651.81 56.67
3 -2 -4 1658.2 63.92
-3 2 4 1708.93 60.91
3 -2 -4 1589.25 55.77
-3 2 4 1679.56 67.08
-3 2 4 1674.75 67.41
-3 2 4 1615.48 66.45
3 -2 -3 14.48 4.51
3 -2 -3 11.92 3.95
-3 2 3 11.13 4.49
3 -2 -3 12.47 4.67
-3 2 3 13.13 4.3
-3 2 3 12.12 3.46
-3 2 3 8.67 3.5
-3 2 3 7.73 2.31
-3 2 3 9.88 3.9
3 -2 -3 10.61 2.89
3 -2 -3 10.82 3.23
3 -2 -2 795.49 32.52
-3 2 2 770.36 32.23
-3 2 2 759.57 35.54
-3 2 2 768.69 41.3
3 -2 -2 800.13 41.25
-3 2 2 778.01 37.68
3 -2 -2 770.98 34.33
3 -2 -2 739.12 38.57
3 -2 -2 740.49 33.9
3 -2 -2 786.44 32.49
3 -2 -1 87.54 9.96
-3 2 1 103.98 11.03
3 -2 -1 69.48 10.12
-3 2 1 75.43 8.09
3 -2 -1 97.94 8.87
-3 2 1 98.43 11.07
3 -2 -1 97.4 8.71
3 -2 -1 90.83 11.77
3 -2 -1 91.76 7.66
-3 2 0 3732.51 128.3
3 -2 0 3514.43 112.27
-3 2 0 3740.36 128.32
3 -2 0 3651.94 116.4
-3 2 0 3556.31 113.78
3 -2 0 3433.91 116.26
3 -2 0 3828.2 128.64
-3 2 0 3535.52 124.11
3 -2 0 3619.67 113.93
3 -2 0 3657.01 123.92
-3 2 -1 1155.81 52.38
-3 2 -1 1207.52 54
3 -2 1 1087.8 38.07
-3 2 -1 1120.74 37.48
3 -2 1 1142.17 45.05
3 -2 1 1111.01 52.48
-3 2 -1 1225.57 54.02
3 -2 1 1119.89 38.83
3 -2 1 1042.48 50.04
3 -2 2 143.76 8.74
3 -2 2 169.01 16.72
3 -2 2 129.9 10.32
-3 2 -2 139.77 15.16
3 -2 2 142.55 15.29
3 -2 3 138.01 15.66
3 -2 3 146.38 9.56
-3 2 -3 140.61 15.59
3 -2 3 149.17 16.55
-3 2 -4 746.39 38.42
3 -2 4 895.68 46.17
-3 2 -4 881.28 45.84
3 -2 4 883.01 47.6
-3 2 -5 879.28 42.86
3 -2 5 852.73 29.99
3 -2 5 975.96 52.16
-3 2 -6 360.34 25.47
3 -2 6 412.06 29.6
3 -2 6 336.43 14.9
-3 2 -6 397.92 30.22
3 -2 6 392.3 31.39
3 -2 7 69.24 11.79
-3 2 -7 62.55 12.11
-3 2 -7 57.8 10.31
3 -2 7 71.79 13.61
-3 2 -8 810.3 47.22
3 -2 8 859.05 35.44
3 -2 8 879.2 48.86
3 -2 8 934.93 55.85
-3 2 -8 948.33 54.23
-3 2 -9 6.26 4.65
-3 2 -9 5.13 5.12
3 -2 9 13.84 5.57
3 -2 9 8.9 2.25
3 -2 9 13.92 6.2
-3 2 -10 652.78 47.85
-3 2 -10 632.97 43.14
-3 2 -11 24.23 9.57
-3 2 -11 33.27 9.9
3 -2 11 24.89 7.43
3 -2 11 27.2 8.91
3 -2 12 113.51 20.1
-3 2 -12 107.85 19.41
-3 2 -12 58.87 13.9
3 -2 12 68.43 11.76
3 -2 12 128.05 19.11
3 -2 13 8.23 5.47
3 -2 13 7 6.04
-3 2 -13 3.51 4.94
-3 2 -13 3.04 4.29
3 -2 14 334.17 37.05
3 -2 14 372.64 34.93
-3 2 -14 313.56 36.33
-3 2 -14 369.98 37
-3 2 -15 6.96 6.96
3 -2 15 26.09 10.52
3 -2 15 38.48 11.8
-3 2 -15 23.6 10.38
3 -2 16 96.25 18.68
3 -1 -16 36.97 12.08
-3 1 16 24.82 11.66
-3 1 16 8.36 7.23
3 -1 -15 90.15 17.69
-3 1 15 59.46 15.93
-3 1 15 71.19 17.3
3 -1 -14 88.76 17.26
-3 1 14 146.1 23.81
3 -1 -13 515.47 42.21
-3 1 13 559.15 47.74
3 -1 -12 164.31 21.83
-3 1 12 187.4 25.59
-3 1 12 148.38 22.3
3 -1 -11 579.71 41.11
-3 1 11 436.65 22.84
-3 1 11 504.63 23.83
3 -1 -11 523.91 35.36
-3 1 11 521.55 42.09
-3 1 11 496.34 40.5
3 -1 -10 9.25 5.15
-3 1 10 2.59 4.47
3 -1 -10 7.8 5.18
3 -1 -10 9.42 4.97
-3 1 10 5.4 4.66
3 -1 -10 7.48 4.97
-3 1 9 89.44 15.18
3 -1 -9 64.99 11.46
3 -1 -9 77.84 13.89
-3 1 9 90.3 15.16
3 -1 -9 78.79 14.22
-3 1 8 72.21 13.2
3 -1 -8 89.74 14.4
3 -1 -8 106.38 15.54
3 -1 -8 103.08 10.89
3 -1 -8 127.83 15.45
-3 1 8 85.82 14.13
-3 1 7 1775.69 66.11
-3 1 7 1914.3 66.92
3 -1 -7 1861.96 80.93
-3 1 7 2002.59 83.2
3 -1 -7 1973.87 83.67
3 -1 -7 1646.93 67.05
-3 1 7 1894.3 81.74
3 -1 -7 1986.69 79.04
-3 1 6 60.43 10.7
3 -1 -6 42.74 8.78
3 -1 -6 39.46 8.67
-3 1 6 41.89 6.09
3 -1 -6 52.56 6.98
-3 1 6 41.9 6.09
3 -1 -6 40.84 8.38
-3 1 5 832.91 30.42
-3 1 5 839.86 36.5
-3 1 5 741.15 40.92
-3 1 5 905.46 37.31
3 -1 -5 837.81 36.07
3 -1 -5 916.87 44.44
3 -1 -5 905.9 46.03
3 -1 -5 911.24 45.25
3 -1 -5 885.81 44.55
-3 1 5 919.55 46.25
3 -1 -5 868.81 36.81
-3 1 4 91.66 7.48
-3 1 4 85.82 9.01
-3 1 4 96.96 12.51
3 -1 -4 88.79 11.61
3 -1 -4 91.34 11.93
3 -1 -4 66.14 10.03
3 -1 -4 100.62 9.99
3 -1 -4 90.18 11.51
-3 1 4 74.97 10.03
-3 1 4 101.53 9.7
-3 1 3 1932.4 66.67
3 -1 -3 1826.05 65.54
3 -1 -3 2037.72 70.93
3 -1 -3 1951.78 71.82
3 -1 -3 1913.47 76.03
-3 1 3 1945.99 76.55
3 -1 -3 1956.42 76.17
3 -1 -3 1948.96 70.28
3 -1 -3 1925.68 62.54
-3 1 3 1894.06 71.93
3 -1 -3 2036.84 76.92
3 -1 -3 1826.81 70.23
-3 1 2 0.7 1.55
-3 1 2 0.74 1.64
3 -1 -2 1.83 1.82
3 -1 -2 -0.78 1.35
-3 1 2 7.8 3.51
3 -1 -2 -0.87 1.22
-3 1 2 -1.25 2.16
3 -1 -2 1.19 1.67
-3 1 2 -0.88 1.75
3 -1 -2 1.74 1.29
-3 1 2 3.41 1.9
3 -1 -2 -0.76 1.08
-3 1 2 1.83 1.83
3 -1 -2 -1.01 1
3 -1 -2 2.54 2.19
-3 1 1 517.42 27.39
3 -1 -1 555.52 29.06
-3 1 1 468.97 23.74
-3 1 1 536.56 28.89
3 -1 -1 465.74 24.36
-3 1 1 563.65 30.73
3 -1 -1 566.74 27.25
-3 1 1 536.67 26.74
3 -1 -1 546.29 24.78
-3 1 1 585.26 26.34
3 -1 -1 506.66 24.94
-3 1 1 530.95 24.96
3 -1 0 127.8 11.3
-3 1 0 136.28 8.73
-3 1 0 142.03 12.23
3 -1 0 131.22 9.79
3 -1 0 126.38 7.88
-3 1 0 131.2 9.14
-3 1 0 116 12
3 -1 0 137.99 9.98
3 -1 0 147.96 12.39
-3 1 0 127.35 9.56
3 -1 0 120.33 12.46
-3 1 0 128.98 12.5
3 -1 0 121.22 12.99
3 -1 1 2576.87 95.06
-3 1 -1 2703.27 86.81
-3 1 -1 2550.06 82.82
3 -1 1 2827.99 98.28
-3 1 -1 2864.4 95.66
3 -1 1 2719.97 86.61
3 -1 1 2843.51 93.11
3 -1 2 712.8 37.29
3 -1 2 737.43 37.8
-3 1 -2 794.23 35.78
3 -1 2 735.46 34.22
-3 1 -3 1012.25 36.89
3 -1 3 1097.63 50.52
-3 1 -3 1089.45 41.56
3 -1 3 1170.35 50.89
-3 1 -3 1110.23 45.54
-3 1 -4 59.24 5.05
3 -1 4 51.75 9.53
-3 1 -4 62.43 8.11
3 -1 4 65.92 10.03
-3 1 -4 57.54 7.16
-3 1 -5 261 21.99
-3 1 -5 263.95 13.41
3 -1 5 289.48 23.89
3 -1 6 48.19 10.05
-3 1 -6 39.38 8.27
3 -1 7 1598.07 59.4
3 -1 7 1644.73 76.1
-3 1 -7 1586.01 72.13
3 -1 7 1645.11 70.53
3 -1 8 48.08 6.98
3 -1 8 45.15 9.06
-3 1 -8 56.92 11.34
3 -1 8 27.68 8.38
-3 1 -9 231.82 23.91
3 -1 9 170.28 21.81
-3 1 -9 203.39 21.98
3 -1 9 199.45 19.72
3 -1 10 3.5 3.49
-3 1 -10 4.97 4.29
-3 1 -10 -2.28 3.21
3 -1 11 1048.56 54.43
3 -1 11 1155.23 59.17
-3 1 -11 1078.32 64.13
3 -1 11 1135.9 66.66
-3 1 -11 1114.32 62.12
3 -1 12 1.49 2.1
-3 1 -12 5.32 5.3
3 -1 12 -1.75 3.01
-3 1 -12 2.98 4.2
3 -1 12 4.37 3.77
3 -1 12 3.08 3.07
3 -1 12 2.47 4.27
-3 1 -13 155.22 23.27
-3 1 -13 142.54 21.41
3 -1 13 175.77 22.88
3 -1 13 181.76 25.29
3 -1 13 169.57 21.11
-3 1 -14 154.35 22.61
3 -1 14 171.76 21.37
-3 1 -14 142.77 23.45
3 -1 14 152.34 23.8
3 -1 15 117.37 18.29
-3 1 -15 122.74 22.48
3 -1 15 108.22 20.55
-3 1 -16 98.31 20.53
3 -1 16 88.89 18.94
3 0 -16 42.73 13.76
-3 0 16 12.67 9.44
-3 0 16 40.53 14.01
-3 0 15 88.17 19.71
-3 0 15 81.51 18.7
-3 0 14 762.57 59.44
-3 0 14 821.01 61.46
3 0 -14 879.45 56.18
-3 0 13 41.76 12.56
-3 0 13 37.68 11.88
3 0 -13 45.04 11.57
-3 0 12 38.42 11.97
3 0 -12 24.67 8.2
-3 0 12 38.23 11.48
-3 0 11 17.51 8.28
-3 0 11 55.66 13.41
3 0 -11 52.38 11.96
3 0 -11 52.55 11.42
3 0 -11 22.06 8.74
3 0 -10 1243.05 56.76
-3 0 10 1143.89 65.62
3 0 -10 1309.14 63.39
-3 0 10 1097.93 64.96
3 0 -10 1185.58 65.28
3 0 -10 1176.1 63.4
-3 0 10 1227.03 66.24
3 0 -9 467.69 30.13
-3 0 9 503.49 37.25
3 0 -9 445.27 32.3
3 0 -9 473.32 35.68
-3 0 9 427.69 35.04
3 0 -9 487.47 35.8
3 0 -9 404.33 27.04
-3 0 9 442.31 34.93
-3 0 8 464.76 34.47
-3 0 8 411.69 16.19
-3 0 8 406.29 16.19
3 0 -8 500.19 34.74
-3 0 8 427.35 33.22
3 0 -8 461.04 28.04
3 0 -8 427.73 28.11
-3 0 8 497.68 34.53
-3 0 7 1020.55 35.79
-3 0 7 1146.41 56.13
-3 0 7 1036.23 35.85
-3 0 7 1049.38 54.83
3 0 -7 1158.01 55.58
3 0 -7 1081.32 54.86
3 0 -7 1121.35 49.74
3 0 -7 1043.74 49.54
-3 0 7 1064.33 54.35
-3 0 6 979.32 34.93
-3 0 6 1030.54 51.05
-3 0 6 973.27 34.89
3 0 -6 1012.93 44.73
-3 0 6 1007.18 50.9
3 0 -6 971.94 49.99
3 0 -6 1119.39 52.44
3 0 -6 974.95 35.76
3 0 -6 1005.29 46.65
-3 0 6 1111.28 52.08
3 0 -6 935.46 46.13
-3 0 5 23.32 6.45
3 0 -5 47.11 8.12
-3 0 5 45.02 8.52
-3 0 5 46.56 4.7
-3 0 5 45.73 4.67
-3 0 5 41.77 8.23
3 0 -5 41.5 8.34
-3 0 5 37.87 7.64
3 0 -5 40.9 5.12
3 0 -5 32.69 6.74
3 0 -5 56.21 7.85
3 0 -5 48.54 6.56
-3 0 4 1091.13 48.56
3 0 -4 1124.7 48.3
3 0 -4 1069.3 40.86
-3 0 4 1063.24 48.25
-3 0 4 1037.98 48.36
3 0 -4 1014.41 43.81
3 0 -4 1069.69 43.07
3 0 -4 1076.22 36.83
-3 0 4 992.97 37.52
-3 0 4 1025.18 47.68
-3 0 4 958.26 37.26
-3 0 4 1150.3 49.14
-3 0 3 2.36 2.35
3 0 -3 6.24 2.93
3 0 -3 6.18 2.72
3 0 -3 4.72 2.88
3 0 -3 3.8 1.86
-3 0 3 9.23 2.42
3 0 -3 4.9 2.76
3 0 -3 6.19 2.79
3 0 -3 6.7 2.64
-3 0 3 4.71 1.65
3 0 -3 3.2 1.51
-3 0 3 8.75 2.32
3 0 -3 8.82 3.24
-3 0 3 2.21 1.91
3 0 -3 3.86 2.15
3 0 -2 933.92 38.75
3 0 -2 956.89 42.48
3 0 -2 959.8 38.65
3 0 -2 894.13 39.06
-3 0 2 960.64 42.07
3 0 -2 870.88 39.31
3 0 -2 1032.41 41.82
-3 0 2 870.8 39.45
3 0 -2 929.36 36.07
-3 0 2 931.34 35.85
3 0 -2 929.85 37.4
-3 0 2 770.86 34.54
3 0 -2 868.11 38.58
3 0 -2 923.5 38.75
-3 0 2 800.24 34.72
3 0 -2 913.37 38.65
3 0 -1 846.61 37.38
3 0 -1 846.7 34.44
-3 0 1 800.48 35.36
3 0 -1 804.35 33.25
-3 0 1 908.35 35.62
3 0 -1 836.56 35.95
3 0 -1 833.73 35.45
-3 0 1 864.83 36.81
3 0 -1 804.77 35.44
-3 0 1 846.57 38.74
-3 0 0 5744.22 182.17
3 0 0 5867.32 179.72
3 0 0 5902.7 184.68
-3 0 0 5989.38 183.3
-3 0 0 5680.09 179.61
3 0 0 5891.2 181.85
-3 0 0 5966.1 181.99
3 0 0 5798.95 178.83
-3 0 0 5322.45 178.66
-3 0 0 5943.32 186.99
3 0 0 5748.56 181.2
3 0 0 5999.13 186.12
-3 0 0 5923.08 181.95
3 0 1 411.44 22.95
-3 0 -1 340.94 18.31
-3 0 -1 330.35 18.54
-3 0 -1 403.45 23.19
3 0 1 370.33 18.63
3 0 1 362.85 16.34
3 0 1 403.35 23.13
3 0 1 373.49 18.53
-3 0 -1 307.2 18.32
3 0 2 578.09 24.55
3 0 2 539.12 27.26
-3 0 -2 530.96 26.32
-3 0 -2 461.94 22.89
3 0 2 509.58 19.17
-3 0 -2 552.33 27.35
3 0 2 521.27 28.34
-3 0 -2 443.25 17.91
-3 0 -2 509.55 25.97
-3 0 -3 6.21 2.92
3 0 3 6.85 2.77
-3 0 -3 7.79 3.08
3 0 3 9.42 1.54
-3 0 -3 9.72 3.36
3 0 3 8.35 2.84
-3 0 -3 8.71 2.49
-3 0 -4 661.99 29.7
3 0 4 713.12 37.43
3 0 4 706.64 32.66
3 0 4 781.1 37.95
3 0 4 767.71 33.54
3 0 5 124.24 10.94
3 0 5 120.6 13.73
-3 0 -6 840.28 43.72
3 0 6 829.18 31.27
3 0 6 776.6 42.31
3 0 7 202.72 12.93
3 0 7 200.07 18.16
-3 0 -7 220.43 20.52
3 0 8 1828.19 66.71
3 0 8 1770.92 75.41
3 0 8 1929.13 69.57
-3 0 -8 2017.72 82.65
3 0 9 118.87 9.98
-3 0 -9 129.34 16.93
3 0 9 102.24 13.21
3 0 9 101.85 10.54
-3 0 -10 407.52 32.7
3 0 10 410.78 27.85
3 0 10 342.12 25.82
-3 0 -11 100.71 16.49
3 0 11 95.73 16.38
3 0 11 93.7 12.8
3 0 11 114.6 14.33
-3 0 -12 296.09 29.57
3 0 12 276.96 23.78
3 0 12 226.65 20.6
3 0 12 247.44 28.18
3 0 13 51.63 10.72
3 0 13 53.1 9.45
3 0 13 57.41 13.55
-3 0 -13 57.53 13.22
3 0 14 531.43 37.13
3 0 14 461.08 41.85
3 0 14 513.17 43.33
-3 0 -14 556.15 44.59
3 0 15 -3.34 4.7
3 0 15 3.3 3.29
3 0 15 2.15 3.71
3 0 16 10.12 8.24
-3 0 -16 13.79 7.69
3 0 16 28.51 10.66
3 0 17 3.38 5.84
-3 0 -17 3.58 6.17
-3 -1 15 8.06 6.95
3 1 -15 3.3 4.65
-3 -1 15 3.84 5.41
-3 -1 14 26.55 11.35
3 1 -14 21.66 9.27
-3 -1 14 18.16 9.59
-3 -1 13 765.76 58.03
3 1 -13 794.3 53.54
-3 -1 13 793.35 57.53
-3 -1 12 335.29 34.66
3 1 -12 306.72 29.44
3 1 -12 351.88 33.74
3 1 -12 372.36 30.79
-3 -1 12 260.68 31.38
3 1 -11 592.11 43.93
3 1 -11 589.64 41.37
-3 -1 11 606.44 46.24
3 1 -11 563.43 38.56
-3 -1 11 628.65 47.39
-3 -1 10 359.95 33.06
3 1 -10 362.9 32.02
3 1 -10 370.88 30.81
-3 -1 10 352.05 33.64
3 1 -10 369.12 28.94
3 1 -9 392.61 26.96
3 1 -9 370.82 29.66
3 1 -9 358.16 28.04
-3 -1 9 365.99 30.78
-3 -1 9 339.87 29.86
-3 -1 9 342.61 30.2
3 1 -9 370 22.46
3 1 -8 15.48 5.36
-3 -1 8 17.53 6.92
-3 -1 8 24.05 7.87
3 1 -8 16.32 6.11
3 1 -8 17.09 6
3 1 -8 12.08 4.2
3 1 -8 16.92 5.04
-3 -1 8 26.38 8.21
3 1 -7 1410.4 64.88
-3 -1 7 1370.01 66.3
3 1 -7 1395.24 65.56
3 1 -7 1408.65 58.31
-3 -1 7 1423.33 67.41
3 1 -7 1366.64 59.29
-3 -1 7 1459.82 68.14
-3 -1 6 170.96 17.99
3 1 -6 116.74 13
3 1 -6 121.59 8.16
3 1 -6 142.47 15.89
-3 -1 6 157.05 17.4
3 1 -6 139.81 7.38
-3 -1 6 171.05 17.83
-3 -1 6 155.05 17.21
3 1 -6 122.83 12.68
3 1 -5 11.68 3.33
-3 -1 5 6.17 3.44
3 1 -5 7.18 2.21
-3 -1 5 12.32 4.61
-3 -1 5 3.07 2.17
3 1 -5 5.52 1.62
3 1 -5 10.08 2.26
-3 -1 5 4.78 3.89
3 1 -4 26.18 3.93
-3 -1 4 30.03 6.58
3 1 -4 37.18 6.47
-3 -1 4 32.37 6.91
-3 -1 4 36.72 7.47
3 1 -4 31.54 3.74
3 1 -4 24.94 4.85
3 1 -4 33.72 6.61
3 1 -3 5525.58 160.46
-3 -1 3 5857.85 164.39
3 1 -3 5287.81 160.68
3 1 -3 5478.7 158.06
3 1 -3 5230.14 157.42
3 1 -3 5465.99 161.26
3 1 -3 5145.37 160.2
3 1 -3 5129.99 152.32
-3 -1 3 4777.7 145.03
-3 -1 3 4287.85 144.59
-3 -1 3 4763.68 145.03
-3 -1 3 5358.67 163.62
-3 -1 3 4210.25 144.53
3 1 -3 5494.83 149.82
-3 -1 3 5343.98 163.45
3 1 -3 5608.19 160.93
-3 -1 3 5559.56 163.27
3 1 -2 1185.26 47.83
3 1 -2 1192.62 45.22
3 1 -2 1145.82 47.03
-3 -1 2 1207.33 49.84
3 1 -2 1269.63 48.95
3 1 -2 1160.37 48.03
3 1 -2 1184.76 44.55
-3 -1 2 1098.95 39.52
3 1 -2 1210.13 48.43
-3 -1 2 1102.94 39.48
-3 -1 2 1188.32 49.56
3 1 -2 1150.94 48.32
3 1 -2 1255.83 47.87
3 1 -1 2376.72 81.95
3 1 -1 2246.12 79.98
3 1 -1 2273.61 72.36
3 1 -1 2221.55 78.59
3 1 -1 2355.81 80.67
3 1 -1 2302.38 80.22
-3 -1 1 2240.27 73.96
-3 -1 1 2402.8 82.64
-3 -1 1 2278.24 82.24
3 1 -1 2252.4 79.97
3 1 -1 2189.31 71.55
-3 -1 1 2246.04 74
-3 -1 1 2254.23 81.78
3 1 -1 2297.32 79.08
3 1 0 379.11 15.79
3 1 0 375.97 21.59
-3 -1 0 393.96 22.71
-3 -1 0 409.3 22.72
3 1 0 391.84 21.25
-3 -1 0 388.78 19.03
3 1 0 393.49 20.19
-3 -1 0 380.65 22.4
-3 -1 0 436.62 19.86
-3 -1 0 342.37 18.7
-3 -1 0 414.27 22.02
3 1 0 422.3 23.4
3 1 0 389.44 21.94
-3 -1 -1 373.05 16.63
3 1 1 374.99 16.29
3 1 1 396.21 22.69
3 1 1 418.15 21.54
-3 -1 -1 409.88 20.63
3 1 1 396.21 21.05
-3 -1 -1 417.06 22.34
-3 -1 -1 400.26 20.47
3 1 1 398.67 21.11
3 1 1 411.69 19.76
-3 -1 -1 390.97 22.7
-3 -1 -1 422.9 22.64
3 1 1 411.95 21.35
3 1 2 693.44 31.07
3 1 2 675.56 32.04
-3 -1 -2 679.14 32.21
3 1 2 675.38 33.2
-3 -1 -2 622.8 26.36
3 1 2 721.79 26.75
3 1 2 673.02 32.03
-3 -1 -2 715.23 32.41
-3 -1 -3 1429.94 54.74
3 1 3 1458.9 60.68
-3 -1 -3 1709.63 60.59
3 1 3 1675.86 60.34
-3 -1 -3 1678.99 61.75
3 1 3 1518.99 61.21
-3 -1 -3 1609.37 59.84
-3 -1 -4 553.3 27.48
3 1 4 598.49 32.09
-3 -1 -4 607.87 30.94
-3 -1 -4 616.02 31.7
3 1 4 584.42 31.92
-3 -1 -4 631.67 31.34
3 1 5 1575.64 63.72
-3 -1 -5 1521.42 62.86
3 1 5 1515.71 63.21
3 1 5 1426.51 55.32
3 1 5 1558.86 63.46
3 1 6 402.2 27.41
-3 -1 -6 477.22 29.21
3 1 6 422.78 27.82
3 1 6 402.93 27.46
3 1 6 398.28 20.79
-3 -1 -6 400.48 24.89
-3 -1 -7 2033.98 82.69
3 1 7 2177.35 83.88
3 1 7 1967.18 68.26
3 1 7 2122.72 79.92
3 1 7 2089.59 82.94
3 1 8 -1.78 3.07
3 1 8 -1.39 1.96
3 1 8 -1.78 2.51
-3 -1 -8 1.82 2.56
3 1 8 -1.66 2.86
-3 -1 -9 193.25 21.09
3 1 9 200.79 18.29
3 1 9 245.49 22.03
3 1 9 250.4 17.3
-3 -1 -10 208.83 22.75
3 1 10 194.22 17.48
3 1 10 198.2 18.34
3 1 10 183.54 15.66
3 1 10 199.16 20.52
3 1 10 202.09 15.33
3 1 11 856.69 44.65
3 1 11 919.33 43.25
3 1 11 911.35 46.07
-3 -1 -11 916.75 54.61
3 1 11 890.27 49.65
3 1 12 17.88 5.33
-3 -1 -12 18.62 7.51
3 1 12 17.68 5.52
3 1 13 223.54 19.56
3 1 13 187.69 17.76
-3 -1 -13 224.99 26.71
3 1 13 201.22 25.34
-3 -1 -14 49.79 13.2
3 1 14 41.85 12.33
3 1 14 35.92 8.05
-3 -1 -15 219.67 28.64
3 1 15 271.41 30.48
-3 -1 -16 -3.53 3.51
3 1 16 6.42 5.54
3 1 16 3.72 5.24
-3 -1 -17 88.63 18.9
3 1 17 87.52 17.54
3 1 17 62.69 17.16
-3 -2 15 12.02 7.99
-3 -2 15 11.45 7.61
-3 -2 14 440.97 43.96
3 2 -14 470.77 40.93
-3 -2 14 477.55 44.6
3 2 -13 31 10.17
-3 -2 13 31.03 10.9
-3 -2 13 45.79 13.62
-3 -2 13 28.51 11.26
3 2 -12 12.95 6.33
3 2 -12 19.68 8.41
-3 -2 12 3.21 5.55
-3 -2 12 23.12 9.87
3 2 -11 65.15 13.61
-3 -2 11 50.58 12.7
3 2 -11 70.06 13.03
3 2 -11 68.11 13.15
-3 -2 11 64.23 15.03
-3 -2 11 57.69 13.98
3 2 -10 1219.13 64.52
-3 -2 10 1261.32 69.36
3 2 -10 1110.76 59.71
3 2 -10 1295.4 63.2
-3 -2 10 1042.1 66.49
-3 -2 10 1231.16 68.74
3 2 -9 63.67 10.19
-3 -2 9 62.55 13.09
3 2 -9 63.69 12.53
3 2 -9 81.93 13.03
3 2 -9 93.28 13.54
-3 -2 9 49.13 11.68
-3 -2 9 62.99 12.94
-3 -2 8 549.17 39.51
-3 -2 8 468.92 36.57
3 2 -8 525.43 34.76
3 2 -8 531.27 36.56
3 2 -8 501.45 32.53
3 2 -8 536.7 30.86
-3 -2 8 496.84 37.45
3 2 -7 239.42 17.06
-3 -2 7 237.57 23.45
-3 -2 7 245.23 23.85
3 2 -7 260.97 23.31
3 2 -7 246.65 18.76
-3 -2 7 235.84 23.69
-3 -2 6 1919.32 81.34
-3 -2 6 1953.38 81.95
-3 -2 6 1974.83 83.02
-3 -2 6 1836.52 81.77
3 2 -6 1840.45 71.27
3 2 -5 1590.05 59.11
-3 -2 5 1532.69 67.78
-3 -2 5 1511.97 66.68
-3 -2 5 1379.45 66.51
-3 -2 5 1440.99 66.59
-3 -2 4 39.88 8.12
3 2 -4 30.26 4.91
-3 -2 4 42.84 8.25
3 2 -4 42.29 6.84
3 2 -4 26.29 5.4
-3 -2 4 49.54 9.03
-3 -2 4 28.4 6.73
3 2 -3 225.71 16.34
3 2 -3 220.35 18.4
3 2 -3 246.45 14.96
-3 -2 3 226.07 18.73
3 2 -3 223.33 15.9
-3 -2 3 222.42 18.65
3 2 -3 214.72 14.9
-3 -2 2 448.38 28.3
-3 -2 2 488.56 27.34
-3 -2 2 533.57 28.7
3 2 -2 476.24 26.83
3 2 -2 494.39 24.27
3 2 -2 520.51 19.21
-3 -2 2 482.99 23.59
3 2 -2 514.53 23.41
3 2 -2 504.63 19.84
3 2 -2 492.06 28.34
-3 -2 2 464.06 18.63
3 2 -2 485.33 18.86
-3 -2 2 467.97 18.68
3 2 -2 498.12 23.89
3 2 -2 496.44 26.47
3 2 -2 508.14 28.93
3 2 -1 48.4 6.71
3 2 -1 70.88 8.59
3 2 -1 67.27 6.03
3 2 -1 53.37 6.11
-3 -2 1 57.9 7.94
-3 -2 1 62.23 6.2
3 2 -1 59.68 5.91
3 2 -1 60.27 3.53
3 2 -1 73.43 9.29
3 2 -1 63.06 8.08
3 2 -1 60.02 8.09
-3 -2 1 59.61 5.56
3 2 -1 60.16 5.77
-3 -2 1 53.96 5.41
-3 -2 1 50.28 8.07
-3 -2 1 48.26 7.28
3 2 -1 59.6 7.97
3 2 0 8002.97 250.65
3 2 0 8495.12 254.34
-3 -2 0 7771.84 245.46
3 2 0 8356.26 255.49
3 2 0 8402.62 256.76
3 2 0 8166.97 255.51
-3 -2 0 8680.19 255.36
3 2 0 8284.64 249.57
3 2 0 8060.09 249.2
-3 -2 0 8029.33 248.8
3 2 0 7922.84 249.2
-3 -2 0 8034.16 248.86
-3 -2 0 8433.06 254.84
-3 -2 0 8994.43 258.54
-3 -2 -1 317.36 13.47
-3 -2 -1 304.64 19.08
-3 -2 -1 285.49 19.75
3 2 1 302.08 20.18
-3 -2 -1 349.99 20.28
3 2 1 342.84 17.63
3 2 1 299.21 17.92
-3 -2 -1 320.31 17.63
3 2 1 310.24 16.5
3 2 1 277.05 17.43
-3 -2 -1 311.96 15.11
-3 -2 -1 305.5 17.38
-3 -2 -1 311.82 19.51
3 2 1 336.14 20.25
3 2 2 435.75 23.99
-3 -2 -2 430.5 23.56
-3 -2 -2 386.44 15.29
3 2 2 418.98 25.05
-3 -2 -2 478.19 24.72
3 2 2 462.27 22.18
3 2 2 412.09 22.9
-3 -2 -2 410.51 22.17
3 2 2 419.75 18.89
3 2 2 401.18 22.74
-3 -2 -2 435.67 23.49
-3 -2 -2 433.45 24.71
-3 -2 -2 420.14 22.33
-3 -2 -3 92.33 10.45
3 2 3 98.39 9.49
3 2 3 71.05 9.17
-3 -2 -3 86.41 9.5
3 2 3 71.37 9.27
3 2 3 82.3 6.22
-3 -2 -3 67.44 5.91
3 2 4 2351.48 86.6
3 2 4 2366.15 87.86
3 2 4 2478.21 83.88
3 2 4 2290.08 86.05
-3 -2 -4 2446.83 85.2
-3 -2 -4 2083.81 77.48
3 2 4 2272.69 73.36
-3 -2 -4 2524.95 85.18
3 2 4 2455 84.12
-3 -2 -4 2480.56 85.4
-3 -2 -5 88.48 10.97
3 2 5 111.94 12.69
3 2 5 76.14 10.61
-3 -2 -5 78.35 8.63
3 2 5 98.87 10.29
3 2 5 74.16 10.44
3 2 6 425.34 28.23
-3 -2 -6 425.83 28.18
3 2 6 448.97 28.94
3 2 6 417.54 24.24
-3 -2 -6 449.85 23.18
3 2 6 501.21 30.28
-3 -2 -7 205.34 19.38
3 2 7 232.11 20.5
3 2 7 208.36 15.58
3 2 7 231.3 20.43
-3 -2 -7 222.02 15.94
3 2 7 187.93 10.5
-3 -2 -8 1328.98 61.98
3 2 8 1334.11 61.99
3 2 8 1199.67 58.14
3 2 8 1321.72 61.87
3 2 8 1332.38 52.2
3 2 8 1277.36 45.3
-3 -2 -9 448.47 30.94
-3 -2 -9 552.02 36.16
3 2 9 451.74 32.96
3 2 9 487.88 34.04
3 2 9 422.08 30.29
3 2 9 460.49 25.19
3 2 9 466.16 21.43
3 2 9 415.89 19.16
-3 -2 -10 1105.91 56.7
3 2 10 1077.18 55.19
-3 -2 -10 1081.11 59.43
3 2 10 1098.96 44.86
3 2 10 1153.24 43.22
3 2 10 983.49 50.27
-3 -2 -11 26.94 8.48
3 2 11 17.09 6.31
-3 -2 -11 30.69 8.76
3 2 11 28.32 6.84
3 2 12 123.91 16.39
-3 -2 -12 136.77 20.19
3 2 12 144.91 19.5
-3 -2 -12 152.01 19.92
3 2 12 137.17 15.06
3 2 12 115.71 17.77
3 2 13 1.08 1.86
-3 -2 -13 2.92 5.81
3 2 13 2.02 2.84
3 2 13 2.63 3.7
3 2 13 -2.16 2.15
3 2 13 2.63 4.53
-3 -2 -13 2.71 3.82
3 2 13 -1.42 1.42
3 2 14 200.27 25.01
3 2 14 226.1 18.64
3 2 14 197.76 24.88
-3 -2 -14 243.84 28.06
-3 -2 -14 251.99 29.64
-3 -2 -15 32.32 11.18
-3 -2 -15 27.01 10.13
3 2 15 29.79 10.31
-3 -2 -16 177.04 26.02
-3 -2 -16 218.71 29.11
3 2 16 187.03 25.07
-3 -2 -17 -3.77 6.5
3 2 17 3.1 4.37
-3 -2 -17 3.69 6.37
3 2 17 4.06 4.05
-3 -3 14 188.8 27.52
3 3 -14 136.77 23.75
-3 -3 14 161.88 26.5
-3 -3 13 555.79 48.04
3 3 -13 512.65 45.95
3 3 -12 45.97 11.48
-3 -3 12 33.29 11.05
-3 -3 12 31.98 12.31
-3 -3 11 334.58 35.12
-3 -3 11 345.1 34.26
3 3 -11 289.16 28.36
3 3 -11 351.01 31.75
-3 -3 10 3.06 3.05
3 3 -10 2.34 4.04
3 3 -10 2.13 2.12
-3 -3 10 2.83 2.82
-3 -3 9 440.99 38.24
3 3 -9 494.55 33.88
3 3 -9 521.02 36.79
3 3 -9 481.55 33.59
-3 -3 9 438.24 37.26
-3 -3 8 364.82 33.21
3 3 -8 432.37 30.54
3 3 -8 420.88 31.72
3 3 -8 456.04 30.22
-3 -3 8 396.6 33.21
-3 -3 8 375 26.11
-3 -3 7 688.7 37.79
3 3 -7 689.4 37.69
3 3 -7 698.53 42.37
-3 -3 7 683.35 43.63
-3 -3 7 660.81 44.3
3 3 -6 239.14 15.45
-3 -3 6 224.8 19.49
3 3 -6 235.75 18.5
3 3 -6 256.55 22.55
-3 -3 6 202.43 21.77
-3 -3 6 233.08 22.67
3 3 -5 63.36 10.35
3 3 -5 62.53 6.86
3 3 -5 59.74 8.19
-3 -3 5 51.74 10.55
-3 -3 5 84.52 12.52
-3 -3 5 44.32 8.24
-3 -3 5 56.23 10.78
3 3 -4 51.44 7.59
-3 -3 4 62.03 10.39
3 3 -4 56.88 7.17
3 3 -4 63.12 8.43
-3 -3 4 54.83 9.88
3 3 -4 40.85 5.31
3 3 -4 51.87 8.73
-3 -3 4 46.6 8.45
-3 -3 3 2839.7 101.96
3 3 -3 2756.1 98.03
-3 -3 3 2634.84 100.91
3 3 -3 2840.77 89.36
3 3 -3 2875.01 103.32
-3 -3 3 2554.19 84.27
3 3 -3 2619.07 84.18
3 3 -3 2908.01 95.63
-3 -3 3 3007.84 103.88
3 3 -3 2856.32 92.68
3 3 -3 2692.65 84.31
-3 -3 3 2594.15 84.31
3 3 -2 1.42 1.41
3 3 -2 0.86 0.96
-3 -3 2 -1.39 1.95
3 3 -2 3.89 2.56
3 3 -2 9.92 2.32
-3 -3 2 1.39 1.13
-3 -3 2 1.38 2.39
3 3 -2 5.85 3.07
3 3 -2 2.13 1.84
3 3 -2 5.96 1.92
-3 -3 2 0.92 1.02
3 3 -2 1.27 1.41
-3 -3 2 2.49 2.15
3 3 -1 468.48 25.44
-3 -3 1 492.91 29.08
-3 -3 1 445.63 25.11
-3 -3 1 476.38 28.74
3 3 -1 436.41 19.49
3 3 -1 442.41 17.05
3 3 -1 458.07 28.37
3 3 -1 475.36 19.28
-3 -3 1 470.76 21.45
3 3 -1 408.15 21.03
-3 -3 1 466.43 26.59
3 3 -1 498.46 25.31
3 3 -1 474.32 25.34
3 3 -1 476.85 28.68
-3 -3 1 485.02 28.94
3 3 -1 459.51 21.86
-3 -3 1 489.21 21.67
-3 -3 0 13.07 4.35
3 3 0 17.13 4.91
3 3 0 23.82 5.75
3 3 0 22.61 3.42
-3 -3 0 17.07 3.7
3 3 0 21.4 4.28
-3 -3 0 21.85 4.12
-3 -3 0 11.78 3.37
3 3 0 26.78 4.73
3 3 0 25.83 5.27
-3 -3 0 25.32 5.8
-3 -3 0 20.32 4.52
3 3 0 22.36 4.46
3 3 0 15.99 3.68
-3 -3 0 19.66 4.48
3 3 0 18.03 2.26
3 3 1 3129.21 107.1
-3 -3 -1 3091.8 105.49
3 3 1 3165.82 101.69
-3 -3 -1 3120.69 105.6
3 3 1 3103.92 106.94
3 3 1 3281.07 103.44
-3 -3 -1 3162.32 104.64
-3 -3 -1 3181.13 105.36
3 3 1 3353.69 112.22
-3 -3 -1 3398.7 114.03
-3 -3 -1 3025.25 105.77
-3 -3 -1 3226.2 113.25
3 3 2 312.49 20.46
-3 -3 -2 326.33 19.46
3 3 2 325.4 17.17
-3 -3 -2 347.74 20.06
3 3 2 300.47 20.01
-3 -3 -2 336.33 22.73
-3 -3 -2 332.28 18.54
-3 -3 -2 323.44 22.53
-3 -3 -2 311.35 18.41
-3 -3 -2 278.14 11.81
3 3 3 2227.99 74.04
-3 -3 -3 2137.25 77.01
3 3 3 2108.52 78.94
-3 -3 -3 2056.69 76.71
-3 -3 -3 2074.82 79.84
-3 -3 -3 1987.69 73.9
-3 -3 -3 2138.63 81.59
3 3 3 2096.18 81.22
-3 -3 -3 2061.5 76.54
3 3 3 2072.63 78.78
3 3 4 1667.04 60.31
3 3 4 1590.4 65.23
3 3 4 1656.84 67.14
-3 -3 -4 1678.58 62.11
3 3 4 1608.07 65.39
-3 -3 -4 1517.79 50.52
3 3 5 1233.74 55.25
3 3 5 1195.71 55.08
3 3 5 1251.91 50.83
3 3 5 1199.78 54.75
-3 -3 -5 1175.49 42.39
3 3 6 878.43 45.13
3 3 6 882.82 44.89
3 3 6 858.04 39.48
-3 -3 -6 858.27 34.85
3 3 6 847.51 44.61
3 3 7 856.42 39.63
-3 -3 -7 920.68 38.43
3 3 7 912.71 48.15
3 3 7 936.79 48.39
3 3 8 55.24 7.85
3 3 8 48.78 10.02
-3 -3 -8 66.97 11.38
3 3 8 58.57 10.27
-3 -3 -8 55.61 7.91
3 3 8 58.4 10.9
3 3 9 5.23 3.48
-3 -3 -9 10.12 5.34
3 3 9 5.72 2.69
3 3 9 6.14 4.08
3 3 9 4.07 4.06
3 3 10 50.94 10.26
3 3 10 59.51 11.97
3 3 10 59.39 7.83
-3 -3 -10 89.94 14.8
3 3 10 82.04 13.91
3 3 11 1650.08 71.77
3 3 11 1421.81 48.13
3 3 12 33.15 9.52
3 3 12 22.89 8.04
3 3 12 28.34 7.04
-3 -3 -12 24.53 8.61
3 3 12 11.87 5.25
-3 -3 -13 371.15 35.09
3 3 13 292.45 30.27
3 3 13 324.68 24.57
3 3 13 350.18 28.73
3 3 13 336.63 32.21
-3 -3 -14 41.66 12.38
3 3 14 24.17 7.54
3 3 14 25.84 9.07
3 3 14 45.82 11.78
-3 -3 -14 23.23 8.7
3 3 14 15.63 5.15
-3 -3 -15 302.01 33.73
3 3 15 342.95 33.76
-3 -3 -15 230.78 28.74
3 3 15 274.07 25.02
3 3 15 235.06 28.15
3 3 16 68.86 15.54
3 3 16 112.58 19.66
-3 -3 -16 116.77 21.69
-3 -3 -16 115.65 20.8
3 3 17 176.62 23.99
-3 -3 -17 165.1 26.12
-3 -3 -17 162.79 25.7
-3 -4 14 251.76 32.14
-3 -4 13 -4.05 4.03
3 4 -13 3.71 5.23
-3 -4 12 53.53 15.74
3 4 -12 31.33 11.02
-3 -4 12 36.65 12.02
-3 -4 11 17.93 8.78
-3 -4 11 34.27 10.77
3 4 -11 29.17 10.73
3 4 -10 1386.01 76.26
-3 -4 10 1375.95 79.07
-3 -4 10 1366.9 62.79
-3 -4 10 1320.21 74.16
-3 -4 9 2.67 3.76
3 4 -9 -2.75 3.87
3 4 -9 -2 2.81
-3 -4 9 -3.05 5.25
3 4 -9 -2.12 3.66
-3 -4 9 1.76 3.04
-3 -4 8 26.94 8.8
3 4 -8 5.03 5.03
3 4 -8 11.96 5.63
-3 -4 8 22.32 8.8
3 4 -8 19.5 6.38
-3 -4 8 18.07 6.5
-3 -4 7 35.62 9.16
-3 -4 7 14.6 6.06
3 4 -7 29.6 7.31
3 4 -7 27.51 8.57
-3 -4 7 15.22 6.72
-3 -4 6 273.81 24.21
3 4 -6 310.73 27.24
-3 -4 6 346.52 29.79
3 4 -6 298.69 22.19
-3 -4 6 294.99 26.41
-3 -4 5 232.34 21.56
3 4 -5 239.09 22.54
-3 -4 5 222.81 22.74
-3 -4 5 215.57 21.66
3 4 -5 194.9 16.54
-3 -4 4 726.16 43.11
-3 -4 4 890.17 46.61
3 4 -4 798.8 44
3 4 -4 780.57 35.94
3 4 -4 730.21 44.33
3 4 -3 815.68 45.36
3 4 -3 805.59 33.46
3 4 -3 810.57 33.48
-3 -4 3 856.39 44.57
3 4 -3 877.68 44.43
-3 -4 3 799 44.01
3 4 -3 796.42 34.89
-3 -4 2 2129.39 91.31
3 4 -2 2335.68 83.47
3 4 -2 2318.06 78.54
3 4 -2 2441.15 94.01
-3 -4 2 2225.77 79.4
3 4 -2 2387.49 80.95
-3 -4 2 2444.64 90.61
3 4 -2 2392.74 90.15
-3 -4 2 2432.77 92.24
3 4 -2 2349.44 83.94
3 4 -2 2361.2 80.81
-3 -4 2 2295.24 79.65
3 4 -1 20.35 5.87
3 4 -1 23.58 3.66
-3 -4 1 23.98 6.36
-3 -4 1 18.34 4.1
3 4 -1 24.17 5
3 4 -1 17.01 4.23
-3 -4 1 19.84 4.3
-3 -4 1 23.4 5.65
-3 -4 1 16.37 5.68
3 4 0 2178.56 75.89
-3 -4 0 2224.37 85.6
-3 -4 0 2199.43 70.05
3 4 0 2361.2 87.15
3 4 0 2038.09 66.79
-3 -4 0 2314.73 77.95
3 4 0 2061.5 78.43
3 4 0 2133.27 67.6
-3 -4 0 2260.1 80.17
3 4 0 2280.55 85.65
-3 -4 0 2360.31 88.45
3 4 0 2170.86 79.37
-3 -4 0 2238.48 77.52
3 4 1 128.8 12.67
-3 -4 -1 129.37 11.93
3 4 1 126.87 8.25
-3 -4 -1 117.17 11.4
3 4 1 134.21 13
-3 -4 -1 106.33 13.73
-3 -4 -1 149.76 12.12
-3 -4 -1 125.38 14.19
-3 -4 -1 115.07 10.32
-3 -4 -1 131.95 8.1
3 4 2 212.58 17.67
-3 -4 -2 213.93 13.56
3 4 2 229.08 13.38
3 4 2 233.17 18.36
-3 -4 -2 211.3 19.63
-3 -4 -2 230.47 14.16
-3 -4 -2 208.4 13.92
-3 -4 -2 203.91 18.67
-3 -4 -2 220.38 11.81
3 4 3 504.64 30.18
-3 -4 -3 447.13 24.03
3 4 3 458.58 23.59
3 4 3 498.28 29.86
3 4 3 422.51 27.14
-3 -4 -3 526.54 31.97
-3 -4 -3 516.89 21.2
-3 -4 -3 530.65 32.11
-3 -4 -3 476.02 23.28
-3 -4 -3 478.67 21.52
3 4 4 2336.64 87.63
-3 -4 -4 2146.57 85.74
-3 -4 -4 2109.31 75.48
3 4 4 2244.75 78.66
3 4 4 2202.91 86.52
3 4 5 111.69 13.95
3 4 5 108.4 14.16
-3 -4 -5 90.21 11.99
3 4 5 86 12.29
-3 -4 -5 82.89 10.59
3 4 6 87.76 12.85
3 4 6 103.88 14.14
-3 -4 -6 97.9 12.24
-3 -4 -6 85.32 7.32
-3 -4 -6 67.84 10.26
3 4 7 373.34 29.67
-3 -4 -7 383.55 27.74
-3 -4 -7 401.9 20.88
3 4 7 436.31 31.67
-3 -4 -8 895.35 50.37
3 4 8 967.58 51.52
-3 -4 -8 954.92 41.43
3 4 8 1029.85 54.54
3 4 9 104.12 14.68
3 4 9 104.06 15.89
3 4 9 105.79 15.97
3 4 10 506.97 35.66
3 4 10 598.41 41.48
3 4 10 572.53 40.74
3 4 11 49.55 10.36
3 4 12 722.11 44.57
-3 -4 -12 808.9 52.79
-3 -4 -13 168.39 23.29
3 4 13 168.34 22.86
3 4 13 157.27 19.13
3 4 13 151.98 21.88
-3 -4 -14 680.48 51.19
3 4 14 589.43 46.76
3 4 14 636.76 37.11
3 4 14 656.94 41.45
3 4 14 579.16 46.49
3 4 15 124.99 16.71
3 4 15 113.05 20.11
3 4 15 116.48 20.4
-3 -4 -15 147.04 23.41
3 4 16 9.79 6.52
3 4 16 19.52 9.18
-3 -4 -16 16.77 9.46
-3 -4 -16 22.28 10.47
3 4 17 3.34 3.33
-3 -4 -17 3.9 5.49
3 4 17 -3.33 3.32
-3 -4 -17 -3.57 5.02
-3 -5 12 118.75 22.96
3 5 -12 113.78 21.96
-3 -5 11 30.76 11.53
3 5 -11 35.81 12.39
3 5 -10 157.79 23.89
-3 -5 10 147.66 24.27
-3 -5 10 178.95 20.35
3 5 -9 382.09 36.8
-3 -5 9 391.73 38.39
-3 -5 9 388.52 31.67
3 5 -8 185.88 24.28
-3 -5 8 218.56 26.89
-3 -5 8 221.62 23.54
3 5 -7 1029.8 59.53
-3 -5 7 941.68 58.81
-3 -5 7 919.3 54.48
-3 -5 7 890.02 53.27
-3 -5 6 231.37 24.01
3 5 -6 175.55 22.89
3 5 -6 257.34 26.17
-3 -5 6 219.15 24.93
-3 -5 6 227.57 23.53
3 5 -5 84.27 14.49
3 5 -5 79.03 10.88
-3 -5 5 63.17 12.72
-3 -5 5 52.66 11.33
-3 -5 5 78.96 13.08
-3 -5 4 4.3 4.29
3 5 -4 15.52 4.61
-3 -5 4 19.07 6.3
3 5 -4 6.3 4.19
-3 -5 4 8.45 5.16
3 5 -3 1925.15 70.35
-3 -5 3 1832.05 79.85
3 5 -3 1876.09 69.99
-3 -5 3 1986.2 81.22
3 5 -3 1829.02 82.27
-3 -5 3 1798.46 80.63
3 5 -3 1833.25 70.3
-3 -5 2 64.51 11.17
3 5 -2 71.88 8.6
-3 -5 2 62.57 8.4
3 5 -2 68.17 9.06
-3 -5 2 69.38 8.96
3 5 -2 67.2 9.01
-3 -5 2 73.7 12.73
-3 -5 2 84.73 12.46
-3 -5 2 68.99 11.17
-3 -5 1 258.36 16.16
3 5 -1 299.93 20.68
-3 -5 1 236.09 21.58
3 5 -1 261.83 19.46
-3 -5 1 241.6 22.07
-3 -5 1 283.7 25.25
-3 -5 1 272.48 21.99
-3 -5 0 0.68 1.17
3 5 0 -1.3 1.29
-3 -5 0 3.33 2.87
3 5 0 2.6 2.25
-3 -5 0 -1.96 1.95
-3 -5 0 -1.69 3.37
3 5 0 0.74 1.28
-3 -5 0 1.28 1.8
-3 -5 -1 1936.36 74.4
3 5 1 2024.35 79.56
3 5 1 2004.85 79.44
3 5 1 1959.41 80.61
-3 -5 -1 2031.13 85.85
-3 -5 -1 2127.92 84.14
-3 -5 -1 1959.7 68.59
-3 -5 -2 236.36 14.61
-3 -5 -2 234.87 13.37
3 5 2 207.2 19.24
3 5 2 217.93 19.66
3 5 2 248.3 20.28
-3 -5 -2 229.54 22.01
-3 -5 -2 257.75 22.35
-3 -5 -2 220.04 15.69
-3 -5 -3 606.27 27.47
-3 -5 -3 558.09 27.04
3 5 3 601.36 36.54
-3 -5 -3 567.31 26.22
-3 -5 -3 568.37 23.78
-3 -5 -3 563.04 36.16
3 5 3 616.44 34.03
-3 -5 -3 606.75 37.65
3 5 3 534.98 34.33
-3 -5 -4 457.65 31.51
3 5 4 447.23 30.76
-3 -5 -4 418.18 22.67
-3 -5 -4 394.51 18.54
3 5 4 458.63 31.2
3 5 5 86.27 13.23
-3 -5 -5 81.81 12.43
-3 -5 -5 62.91 6.35
3 5 5 58.26 10.95
-3 -5 -5 82.79 10.42
-3 -5 -6 96.43 13.22
-3 -5 -6 81.44 11.34
3 5 6 84.55 13.57
3 5 6 114.96 15.79
-3 -5 -7 1025.85 49.75
-3 -5 -7 903.68 47.95
3 5 7 960.13 53.86
3 5 7 953.07 53.66
3 5 8 34.43 9.52
-3 -5 -8 35.52 8.63
-3 -5 -8 59.82 10.12
3 5 8 41.44 10.08
3 5 8 59.99 11.73
3 5 9 1127.22 60.61
3 5 9 1230.3 65.93
3 5 9 1257.01 66.46
-3 -5 -9 1264.03 62.92
3 5 10 -2.15 3.7
3 5 10 2.59 2.58
3 5 10 7.81 5.18
-3 -5 -10 9.32 5.69
3 5 11 1330.34 67.65
-3 -5 -11 1453.67 73.65
3 5 11 1424.3 75.31
3 5 11 1357.91 73.77
3 5 12 2.17 3.06
-3 -5 -12 2.81 3.96
3 5 13 18.41 8.65
3 5 13 3.05 4.31
3 5 13 15.18 6.48
3 5 14 -3.22 4.53
3 5 14 -3.2 4.5
3 5 14 2.15 3.72
3 5 15 209.43 27.87
3 5 15 237.25 29.73
3 5 16 6.87 7.66
3 5 16 6.86 5.92
3 5 17 160.85 25.01
3 5 17 122.04 21.85
-3 -5 -17 181.23 28.09
-3 -6 11 49.46 14.84
3 6 -11 35.16 12.35
3 6 -11 27.08 11.6
3 6 -10 843.26 61.59
-3 -6 10 777.68 60.36
3 6 -10 767.33 59.24
-3 -6 10 792.04 50.95
3 6 -9 10.48 6.97
3 6 -9 10.45 6.95
-3 -6 9 7.89 5.87
-3 -6 9 10.96 7.28
3 6 -8 26.22 11.32
3 6 -8 19.65 9.24
-3 -6 8 13.38 6.55
-3 -6 8 27.18 10.72
3 6 -7 -3.07 3.05
-3 -6 7 3.15 4.43
-3 -6 7 2.69 2.68
3 6 -7 -3.07 4.32
3 6 -6 1045.55 62.45
3 6 -6 1057.57 63.07
-3 -6 6 948.61 55
-3 -6 6 1032.25 62.19
-3 -6 6 869.94 57.11
-3 -6 5 13.19 6.98
3 6 -5 32.06 10.32
-3 -6 5 19.22 6.75
-3 -6 5 34.59 9.93
3 6 -5 13.48 7.13
-3 -6 4 181.23 20.52
3 6 -4 182.03 22.71
-3 -6 4 240.73 26.06
-3 -6 4 215.7 23.88
3 6 -3 349.78 30.97
-3 -6 3 386.7 29.7
-3 -6 3 371.18 30.73
-3 -6 3 315.88 27.21
-3 -6 2 481.31 34.08
-3 -6 2 442.12 32.74
3 6 -2 443.1 29.08
3 6 -2 493.57 30.33
3 6 -2 457.64 35.21
-3 -6 2 497.96 38.14
-3 -6 2 485.35 33.76
-3 -6 1 878.02 46.56
-3 -6 1 867.53 47.85
3 6 -1 813.53 48.55
-3 -6 1 815.63 46.4
3 6 -1 827.73 43.82
-3 -6 1 827.69 51.35
3 6 -1 828.36 43.95
3 6 0 621.83 37.06
-3 -6 0 589.72 35.84
-3 -6 0 599 38.22
3 6 0 583.87 36.1
-3 -6 0 605.72 38.67
-3 -6 0 654.91 30.92
3 6 0 578.65 38.33
-3 -6 0 665.92 44.07
3 6 1 145.83 16.55
-3 -6 -1 108.53 16.27
3 6 1 113.86 14.77
3 6 1 100.77 13.91
-3 -6 -1 113.94 15.5
-3 -6 -1 100.09 10.39
-3 -6 -1 128.71 13.89
-3 -6 -2 76.09 8.98
3 6 2 69.93 11.92
-3 -6 -2 110.39 16.31
3 6 2 65.86 10.83
-3 -6 -2 70.62 12.23
3 6 2 75.43 12.33
-3 -6 -2 59.96 8.99
3 6 3 9.75 5.15
-3 -6 -3 15.43 6.22
3 6 3 10.84 5.12
-3 -6 -3 12.13 5.7
3 6 3 15.62 6.16
-3 -6 -3 8.92 2.84
3 6 4 2588.76 107.19
3 6 4 2542.18 107.09
-3 -6 -4 2625.51 107.53
3 6 4 2592.46 99.23
-3 -6 -4 2849.95 110.05
3 6 5 46.06 10.51
-3 -6 -5 33.59 8.91
3 6 5 17.51 6.95
-3 -6 -5 30.15 6.3
3 6 6 268.48 26.66
-3 -6 -6 270.41 21.54
-3 -6 -6 298.41 26.34
3 6 6 299.24 27.98
3 6 7 31.92 9.19
-3 -6 -7 38.38 8.35
3 6 7 22.14 8.17
-3 -6 -7 23.78 7.16
3 6 7 28.1 8.45
3 6 8 935.77 55.49
3 6 8 993.85 58.66
-3 -6 -8 890.44 50.4
-3 -6 -8 989.44 52.43
3 6 8 1084.59 60.56
3 6 9 87.55 15.99
-3 -6 -9 53.44 11.21
3 6 9 68.58 14.57
-3 -6 -9 66.94 11.4
3 6 9 50.1 11.78
-3 -6 -10 261.41 26.42
3 6 10 262.04 29
3 6 10 271.24 27.09
3 6 10 260.02 28.8
-3 -6 -11 112.63 17.94
3 6 11 106.03 16.89
3 6 11 78.88 16.26
3 6 11 117.8 19.26
-3 -6 -12 197.28 25.02
3 6 12 184.38 22.06
3 6 12 136.7 21.84
3 6 12 186.72 25.33
3 6 13 70.46 13.4
-3 -6 -13 74.43 16.19
3 6 14 363.89 37.15
-3 -6 -14 360.4 36.79
3 6 14 286.18 33.12
3 6 15 -3.54 7.04
-3 -6 -15 3.56 5.02
3 6 15 7.11 6.13
3 6 16 68.76 16.65
-3 -6 -16 56.54 16.07
3 6 16 105.53 20.29
3 7 -9 275.38 34.67
-3 -7 9 358.44 34.79
-3 -7 9 368.94 39.97
3 7 -9 272.51 33.87
-3 -7 8 130.66 21.19
-3 -7 8 129.77 22.84
3 7 -8 174.73 25.91
-3 -7 7 211.8 28.13
-3 -7 7 191.76 26.17
3 7 -7 230.96 28.93
-3 -7 6 100.13 18.79
-3 -7 6 147.75 22.17
-3 -7 6 102.99 16.15
3 7 -6 127.33 20.56
-3 -7 5 206.82 26.11
-3 -7 5 243.87 24.31
-3 -7 5 267.98 29.96
3 7 -5 169.48 23.78
-3 -7 4 63.46 14.08
-3 -7 4 64.39 15.03
-3 -7 4 42.33 9.99
3 7 -4 38.47 11.37
-3 -7 3 568.55 41.08
3 7 -3 555.18 41.14
-3 -7 3 463.31 34.8
-3 -7 2 17.72 7.81
-3 -7 2 23 7.53
3 7 -2 17.02 7.29
-3 -7 2 18.11 6.67
-3 -7 2 36.78 9.46
-3 -7 1 24.89 7.48
3 7 -1 22.91 7.15
3 7 -1 19.05 6.62
-3 -7 1 25.22 7.87
-3 -7 1 37.58 10.8
3 7 -1 30.61 9.11
-3 -7 1 27.91 7.98
-3 -7 0 -1.86 2.62
-3 -7 0 -2 3.45
3 7 0 -2.01 2.83
-3 -7 0 2.12 2.98
3 7 0 2 3.46
-3 -7 0 2.83 2.81
3 7 0 4.36 4.34
3 7 1 1983.55 86.88
-3 -7 -1 2121.38 97.23
3 7 1 2030.59 88.45
-3 -7 -1 1910.96 87.73
-3 -7 -1 1853.87 85.33
3 7 1 2135.74 89.58
-3 -7 -1 2099.15 83.92
-3 -7 -2 167.33 22.4
3 7 2 181.65 19.39
-3 -7 -2 177.93 20.78
3 7 2 145.58 18.79
3 7 2 187.61 21.22
3 7 3 756.71 45.36
-3 -7 -3 752.79 47.94
3 7 3 726.82 40.03
-3 -7 -3 721.04 44.05
3 7 3 775.43 45.9
-3 -7 -4 210.92 24.37
3 7 4 174.94 18.2
-3 -7 -4 195.06 22.5
3 7 4 174.88 21.78
3 7 4 184.44 22.16
3 7 5 499.46 39.38
-3 -7 -5 489.87 27.8
-3 -7 -5 474.7 37.58
-3 -7 -5 451.64 36.77
3 7 5 489.8 38.76
3 7 6 181.91 23.03
3 7 6 232.28 25.74
-3 -7 -6 199.96 23.13
-3 -7 -6 190.46 17.6
3 7 7 378.08 34.71
3 7 7 329.72 32.56
-3 -7 -7 449.14 34.67
-3 -7 -7 341.12 26.57
-3 -7 -8 342.03 27.52
3 7 8 320.01 32.77
3 7 8 352.71 33.03
-3 -7 -8 290.9 27.79
3 7 8 332.35 33.21
3 7 9 24.63 9.22
3 7 9 16.27 7.66
-3 -7 -9 23.73 7.77
3 7 9 15.36 7.51
3 7 10 41.77 12.02
-3 -7 -10 33.63 9.63
3 7 10 48.07 13.2
3 7 10 32.49 9.78
3 7 11 820.95 58.25
3 7 11 813.63 52.74
-3 -7 -11 753.72 51.09
3 7 11 813.65 58.22
-3 -7 -12 100.94 17.9
3 7 12 92.75 16.27
3 7 12 83.4 18.18
3 7 12 83.04 17.77
3 7 13 56.8 12.96
-3 -7 -13 56.12 13.98
-3 -7 -14 46.79 12.95
3 7 14 39.51 10.5
3 7 14 44.44 13.85
3 7 14 36.88 12.24
-3 -7 -15 426.03 41.52
3 7 15 353.99 39.3
3 7 15 366.99 40.36
-3 -8 8 31.38 11.53
3 8 -8 10.76 8
-3 -8 7 33.7 11.83
-3 -8 7 35.58 11.79
3 8 -7 24.04 9.71
-3 -8 6 257.58 31.93
-3 -8 6 298.02 34.92
3 8 -6 297.08 32.91
-3 -8 5 3.58 5.04
3 8 -5 3.1 3.09
-3 -8 5 3.31 4.66
-3 -8 4 39.14 12.3
-3 -8 4 23.19 7.89
3 8 -4 26.35 9.25
-3 -8 4 15.41 8.15
-3 -8 3 120.44 16.59
3 8 -3 122.26 19.15
-3 -8 3 153.89 21.57
-3 -8 2 484.64 38.77
-3 -8 2 499.52 35.23
-3 -8 2 396.14 40.31
3 8 -2 488.98 40.18
-3 -8 1 129.9 17.19
3 8 -1 138.16 20.03
-3 -8 1 172.55 25.1
3 8 0 756.65 47.79
3 8 0 640.66 44.92
-3 -8 0 765.88 54.65
-3 -8 0 691.83 43.61
3 8 0 700.79 46.11
3 8 1 57.32 12.75
-3 -8 -1 61.67 14.9
3 8 1 46.56 10.48
-3 -8 -1 51.49 11.76
3 8 1 49.81 11.48
-3 -8 -1 63.94 12.3
3 8 2 379.41 33.93
3 8 2 391.65 31.13
-3 -8 -2 409.87 38.49
-3 -8 -2 410.64 33.94
-3 -8 -2 384.25 31.85
3 8 2 467.49 37.11
-3 -8 -3 84.5 15.11
-3 -8 -3 124.02 20.44
3 8 3 86.69 13.56
3 8 3 110.91 18.09
3 8 3 91.94 16.4
3 8 4 583.03 44.63
-3 -8 -4 639.58 47.72
3 8 4 562.51 36.12
-3 -8 -4 560.27 42.36
3 8 4 654.03 46.73
-3 -8 -5 75.31 15.15
-3 -8 -5 106.39 18.57
3 8 5 82.27 16.24
3 8 5 105.64 18.21
3 8 6 -3.05 3.04
-3 -8 -6 8.6 5.71
-3 -8 -6 5.62 4.84
3 8 6 6.12 6.09
-3 -8 -6 1.29 2.23
3 8 7 34.86 11.38
-3 -8 -7 2.77 3.92
-3 -8 -7 29.46 10.17
3 8 7 3.18 4.48
-3 -8 -7 20.63 6.13
-3 -8 -8 870.86 54.53
3 8 8 855.77 58.96
-3 -8 -8 826.17 46.49
3 8 8 791.25 57.08
3 8 9 106.25 19.91
-3 -8 -9 124.85 17.08
3 8 9 123.64 21.63
3 8 9 113.43 19.61
3 8 10 35.49 12.33
-3 -8 -10 63.94 13
3 8 10 42.72 13.35
3 8 10 63.61 14.85
3 8 11 36.64 12.66
-3 -8 -11 20.91 8.27
3 8 11 22.05 9.71
3 8 11 35.81 11.15
3 8 12 315.93 36.15
-3 -8 -12 262.08 28.68
3 8 12 192.62 28.92
3 8 12 297 30.95
3 8 13 88.59 19.38
3 8 13 104.12 17.72
-3 -8 -13 107.59 19.08
3 8 13 81.24 18.29
-3 -8 -14 521.98 44.8
-3 -9 5 31.91 12.6
-3 -9 4 99.96 20.89
3 9 -4 95.72 18.87
3 9 -3 430.61 39.73
-3 -9 3 389 41.88
3 9 -2 -3.01 4.23
-3 -9 1 50.28 15.05
3 9 -1 86.5 16.08
-3 -9 0 64.7 16.7
3 9 0 103.4 16.86
-3 -9 -1 918.38 65.08
-3 -9 -1 808.03 49.59
3 9 2 -2.98 5.14
-3 -9 -2 -3.65 3.64
3 9 2 -2.18 3.76
3 9 2 -2.98 4.19
-3 -9 -2 4.42 4.4
3 9 3 37.06 11.15
-3 -9 -3 43 13.4
3 9 3 57.63 11.08
3 9 3 43.21 12.73
-3 -9 -3 27.68 8.68
-3 -9 -4 3.5 4.93
3 9 4 3.2 3.19
3 9 4 3.21 4.52
3 9 5 156 23.88
-3 -9 -5 160.03 24.47
3 9 5 186.03 25.88
3 9 6 229.89 29.18
-3 -9 -6 237.46 29.41
3 9 6 213.08 28.21
-3 -9 -6 152.6 22.86
3 9 7 258.36 31.78
-3 -9 -7 290.75 31.87
-3 -9 -7 283.41 31.96
3 9 7 276.87 33.02
-3 -9 -8 192.65 26.45
3 9 8 190.52 27.43
3 9 8 212.07 29.25
-3 -9 -9 204.8 27.66
3 9 9 181.45 27.31
3 9 9 218.82 29.97
3 9 9 235.66 29.7
3 9 10 38.83 13.42
3 9 10 23.45 9.47
3 9 10 30.97 11.6
3 9 11 515.92 44.09
3 9 11 535.09 49.06
3 9 11 441 45.18
3 9 12 -3.15 4.44
3 10 -2 210.92 26.9
-3 -10 -1 54.25 15.63
-3 -10 -2 110.64 22.21
-3 -10 -3 100.22 21.33
3 10 4 704.87 55.04
3 10 4 689.67 54.29
-3 -10 -4 734.82 58.43
3 10 5 -3.65 3.63
3 10 5 3.65 5.15
-3 -10 -5 3.8 6.56
3 10 6 26.25 10.6
3 10 6 41.33 14.52
-3 -10 -6 29.44 11.03
3 10 7 11.58 7.7
3 10 7 11.55 7.68
4 -8 -2 336.6 35.06
-4 7 9 326.45 35.72
-4 7 9 311.52 34.6
-4 7 9 293.2 31.74
-4 7 8 84.64 18.89
-4 7 8 62.69 16.04
-4 7 8 73.33 17.17
-4 7 7 95.24 19.81
4 -7 -7 73.14 17.25
-4 7 7 63.52 16.22
-4 7 7 49.46 14.21
-4 7 6 352.36 38.37
4 -7 -6 354.29 38.9
-4 7 6 299.61 34.68
-4 7 6 317.52 35.76
-4 7 5 296.36 34.93
4 -7 -5 287.69 33.59
-4 7 5 230.66 30.65
-4 7 5 285.12 34.08
-4 7 4 40.02 13.09
4 -7 -4 24.17 10.91
4 -7 -4 40.48 12.14
-4 7 4 18.21 10.29
-4 7 4 25.73 11.01
-4 7 3 376.22 39.04
4 -7 -3 287.32 34.16
4 -7 -3 349.86 36.13
-4 7 2 11.2 8.32
4 -7 -2 6.28 6.26
-4 7 2 14.6 8.91
4 -7 -2 10.87 7.22
-4 7 2 3.72 6.43
-4 7 1 94.67 19.76
4 -7 -1 77.11 16.38
-4 7 1 84.44 18.1
4 -7 -1 97.06 19.84
-4 7 1 90.6 19.34
-4 7 0 84.2 18.49
4 -7 0 135.92 20.12
-4 7 0 74.38 17.98
4 -7 0 111.17 21.44
-4 7 0 83.92 18.82
4 -7 1 589.36 43.16
-4 7 -1 505.28 48.18
-4 7 -1 649.85 54.24
4 -7 1 576.38 51.16
-4 7 -1 603.35 51.67
4 -7 1 648.92 50.08
4 -7 2 3.52 4.96
-4 7 -2 7.82 6.74
4 -7 2 8 6.9
-4 7 -2 3.9 5.49
4 -7 3 40.66 12.78
4 -7 3 24.35 11.46
-4 7 -3 27.55 11.11
-4 7 -3 19.75 10.44
-4 7 -4 43.68 14.34
-4 7 -4 51.81 15.95
4 -7 4 53.36 15.91
4 -7 4 65.71 16.85
-4 6 11 105.73 18.56
-4 6 11 82.23 19.39
-4 6 11 123.44 19.69
4 -6 -11 151.8 25
-4 6 11 116.74 21.1
-4 6 10 172.83 25.5
4 -6 -10 225.97 31.14
-4 6 10 212.87 26.56
-4 6 10 197.71 25.51
-4 6 10 246.31 31.95
-4 6 9 173.4 24.53
4 -6 -9 129.37 23.21
-4 6 9 155.67 22.62
-4 6 9 170.18 23.71
-4 6 9 172.5 26.82
-4 6 8 183.18 24.2
-4 6 8 219.18 27.39
4 -6 -8 266.14 32.52
-4 6 8 240.42 28.37
-4 6 8 216.58 29.72
-4 6 7 46.63 12.84
4 -6 -7 57.34 14.78
-4 6 7 52.82 13.55
-4 6 7 46.64 13.9
-4 6 7 36.73 10.21
-4 6 6 416.49 34.74
-4 6 6 442.66 40.25
-4 6 6 486.7 44.42
-4 6 6 477.9 41.5
-4 6 5 17.03 7.06
-4 6 5 12.68 7.09
-4 6 5 25.33 9.99
-4 6 5 24.03 10.28
4 -6 -5 28.68 9.91
4 -6 -5 36.64 11.98
-4 6 4 16.87 6.2
-4 6 4 22.48 9.6
-4 6 4 16.94 8.93
4 -6 -4 5.99 5.18
4 -6 -4 6.4 5.52
-4 6 4 9.62 6.39
-4 6 3 6.69 5.78
4 -6 -3 3.06 4.31
4 -6 -3 6.22 6.2
-4 6 2 1385.41 80.17
4 -6 -2 1402.71 79.93
4 -6 -2 1463.63 78.39
-4 6 1 66.93 15.37
-4 6 1 67.24 15.8
-4 6 1 56.72 14.95
4 -6 -1 43.15 12.48
4 -6 -1 61.02 13.91
4 -6 0 47.24 12.2
-4 6 0 64.65 15.64
-4 6 0 57.74 14.86
4 -6 0 68.28 16.05
4 -6 0 75.92 14.63
-4 6 0 67.81 15.58
4 -6 1 49.06 11.84
-4 6 -1 83.03 17.65
4 -6 1 56.06 14.91
4 -6 1 47.48 13
-4 6 -1 86.22 17.93
4 -6 2 43.1 10.46
-4 6 -2 35.19 11.72
-4 6 -2 61.29 10.87
-4 6 -2 49.12 13.61
4 -6 2 53.79 14.8
4 -6 2 66.3 14.82
-4 6 -3 215.26 28.61
4 -6 3 183.2 27.07
-4 6 -3 183.68 19.95
4 -6 3 178.81 20.1
4 -6 3 143.81 22.94
-4 6 -3 168.04 25.7
-4 6 -4 236.73 30.91
-4 6 -4 252.37 31.88
4 -6 4 279.77 33.93
-4 6 -4 282.89 26.07
4 -6 4 279.15 32.81
-4 6 -5 184.99 27.59
4 -6 5 182.31 27.24
-4 6 -5 178.48 26.98
-4 6 -6 229.36 30.8
-4 6 -6 283.54 34.22
-4 6 -6 237.04 32.28
4 -6 6 233.71 31.37
4 -6 6 244.41 31.94
-4 6 -7 3.82 5.39
4 -6 7 12.18 8.09
-4 6 -7 4.06 4.05
-4 6 -7 3.8 5.36
4 -6 7 3.83 5.4
4 -6 8 366.2 40.43
-4 6 -8 428.21 43.12
-4 6 -8 396.15 41.45
4 -5 -12 3.78 3.77
-4 5 12 -3.73 3.71
-4 5 12 -3.89 3.88
4 -5 -12 -3.73 5.26
4 -5 -11 54.87 14.64
-4 5 11 53.11 12.16
-4 5 11 24.55 9.98
-4 5 11 58.27 12.7
-4 5 11 64.28 16.48
4 -5 -11 73.41 17.21
-4 5 10 2.58 4.46
-4 5 10 16.35 7.98
-4 5 10 10.31 5.74
-4 5 10 14.65 8.16
4 -5 -10 14.33 7.98
-4 5 9 909.77 55.58
-4 5 9 890.15 55.04
-4 5 9 838.59 56.92
-4 5 9 827.48 60.63
4 -5 -9 886.13 62.33
-4 5 8 2.64 3.72
-4 5 8 2.78 4.8
-4 5 8 5.27 4.55
-4 5 8 6.83 5.9
4 -5 -8 3.37 5.82
-4 5 7 164.75 21.82
-4 5 7 122.11 19.43
-4 5 7 185.24 22.64
-4 5 7 165.8 24.48
4 -5 -7 159.54 23.61
-4 5 6 10.71 5.98
-4 5 6 20.64 7.59
-4 5 6 10.72 5.99
-4 5 6 19.2 8.44
4 -5 -6 21.95 8.84
-4 5 5 586.87 38.8
-4 5 5 510.23 41.43
4 -5 -5 563.8 45.23
-4 5 5 625.52 47.62
-4 5 5 535.82 42.28
-4 5 4 191.9 24.07
-4 5 4 214.48 25.35
-4 5 4 195.46 18.58
-4 5 4 225.25 27.43
-4 5 4 203.07 20.41
-4 5 3 75.7 11.29
-4 5 3 72.31 14.81
-4 5 3 75.3 15.1
-4 5 3 83.81 16.46
4 -5 -3 49.87 12.21
-4 5 3 78.93 11.41
-4 5 2 234.24 20.8
-4 5 2 264.79 29.68
4 -5 -2 264.7 27.9
-4 5 2 267.16 20.19
-4 5 1 170.31 23.84
4 -5 -1 211.84 24.15
-4 5 1 158.26 22.65
-4 5 1 181.76 23.94
-4 5 1 189.27 18.49
4 -5 -1 171.49 20.53
-4 5 1 185.39 14.81
-4 5 0 150.23 21.68
-4 5 0 123.1 15.1
4 -5 0 107.77 16.77
-4 5 0 123.3 19.75
4 -5 0 145.6 19.23
-4 5 -1 973.23 61.6
-4 5 -1 1043.78 63.39
4 -5 1 1055.75 60.08
-4 5 -1 910.61 49.88
4 -5 1 1033.13 56.95
-4 5 -2 15.52 7.58
4 -5 2 11.06 6.75
-4 5 -2 9.47 5
-4 5 -2 12.34 6.88
4 -5 2 10.6 5.18
-4 5 -3 83.02 17
4 -5 3 88.75 16.84
-4 5 -3 73.13 12.86
-4 5 -3 120.5 20.12
4 -5 3 70.52 12.26
-4 5 -4 3.28 5.67
-4 5 -4 -3.26 3.25
4 -5 4 -3.16 4.45
4 -5 4 1.77 3.95
-4 5 -4 6.59 5.69
-4 5 -5 933.28 62.87
4 -5 5 870.65 46.18
-4 5 -5 962.57 64.62
4 -5 5 952.32 63.07
-4 5 -5 988.85 64.28
-4 5 -6 6.95 6
4 -5 6 -3.56 5.01
-4 5 -6 13.78 7.67
4 -5 6 3.41 3.4
-4 5 -6 3.53 4.98
-4 5 -7 21.36 10.05
4 -5 7 22.49 9.9
-4 5 -7 24.69 9.96
4 -5 7 24.17 9.75
-4 5 -7 29.37 10.99
-4 5 -8 116.27 21.34
-4 5 -8 118.81 21.75
4 -5 8 104.04 19.8
-4 5 -8 133.44 23.63
4 -5 8 86.47 19.44
-4 5 -9 203.03 29.13
-4 5 -9 249.01 32.56
-4 5 -9 186.55 27.46
4 -5 9 193.79 27.39
4 -5 9 233.47 32.19
-4 5 -10 89.44 19.13
4 -5 10 88.83 20.83
-4 5 -10 102.06 21.31
-4 5 -10 88.59 18.95
4 -5 10 109.02 19.98
4 -5 11 241.75 30.15
-4 4 14 19.68 8.66
4 -4 -13 68.98 16.15
-4 4 13 36.82 11.08
-4 4 13 31.26 11.73
-4 4 13 31.17 12.33
4 -4 -13 48.84 14.54
4 -4 -12 316.59 35.45
4 -4 -12 332.88 37.15
-4 4 12 378.52 39.59
-4 4 12 397.6 41.04
-4 4 12 362.15 34.11
-4 4 11 173.92 20.31
-4 4 11 177.52 22.4
-4 4 11 236.58 29.87
4 -4 -11 236.66 29.25
-4 4 11 201.44 28.27
-4 4 11 150.44 19.04
-4 4 10 502.8 37.94
-4 4 10 554.46 38.29
-4 4 10 533.26 45.01
4 -4 -10 616.23 48.2
-4 4 10 647.9 50.77
-4 4 10 511.84 37.28
-4 4 9 94.46 14.39
-4 4 9 127.26 17.23
-4 4 9 64.28 14.48
4 -4 -9 91.01 17.58
-4 4 9 102.32 19.05
-4 4 9 64.95 12.45
-4 4 8 454.03 34.88
-4 4 8 442.64 31.68
-4 4 8 440.37 37.5
4 -4 -8 506.43 41.95
-4 4 8 551.33 44.31
-4 4 8 491.57 36.11
-4 4 7 116.83 17.11
-4 4 7 129.88 14.9
-4 4 7 113.55 17.4
4 -4 -7 145.96 21.48
-4 4 7 124.19 20.11
-4 4 7 121.05 17.22
-4 4 6 296.01 27.84
-4 4 6 349.53 29.7
-4 4 6 349.09 29.94
-4 4 6 318.43 32.5
4 -4 -6 333.75 32.55
-4 4 5 54.03 10.85
-4 4 5 58.48 11.99
-4 4 5 76.24 11.81
-4 4 5 60.88 12.23
-4 4 5 55.71 13.14
4 -4 -5 61.92 13.52
-4 4 4 13.49 5.32
-4 4 4 18.29 6.84
-4 4 4 8.06 3.95
-4 4 4 11.46 5.6
-4 4 4 16.2 7.12
4 -4 -4 10.33 5.76
-4 4 3 18.67 6.99
-4 4 3 14.29 5.27
-4 4 3 11.63 6.15
-4 4 3 13.17 6.44
-4 4 3 23.12 6.12
-4 4 2 1286.74 59.03
-4 4 2 1172.06 66.94
4 -4 -2 1284.44 59.37
-4 4 2 1298.91 54.41
4 -4 -1 27.19 8.19
-4 4 1 33.97 7.95
-4 4 1 26.05 8.65
4 -4 -1 38.32 8.95
4 -4 0 459.21 33.84
-4 4 0 470.61 37.55
-4 4 0 541.93 39.81
-4 4 0 452.19 31.25
-4 4 0 463.04 22.19
4 -4 0 511.76 36.4
-4 4 -1 2.81 0.85
-4 4 -1 5.21 4.49
-4 4 -1 8.84 4.66
4 -4 1 12.33 5.79
4 -4 1 4.42 3.81
-4 4 -1 2.58 2.57
-4 4 -2 1211.75 67.64
-4 4 -2 1182.61 67.25
-4 4 -2 1173.5 58.91
4 -4 2 1177.4 59.86
4 -4 2 1300.86 66.46
-4 4 -3 39.17 10.85
-4 4 -3 36 10.38
4 -4 3 41.53 11.02
4 -4 3 40.02 9.13
-4 4 -3 32.75 10.23
-4 4 -4 287.26 30.46
4 -4 4 272.71 23.44
4 -4 4 256.83 28.47
-4 4 -4 287.29 30.48
-4 4 -4 331 32.45
-4 4 -5 432.34 38.29
-4 4 -5 409.64 37.46
4 -4 5 436.76 28.7
4 -4 5 373.88 35.64
-4 4 -5 380.2 36.5
-4 4 -6 109.46 19.38
4 -4 6 154.73 15.28
-4 4 -6 154.76 22.81
4 -4 6 162.78 23.5
-4 4 -6 114.12 19.85
-4 4 -7 150.61 23
4 -4 7 152.78 23.84
-4 4 -7 145.67 22.77
-4 4 -7 158.65 23.67
-4 4 -8 278.45 31.99
4 -4 8 280.44 33.58
-4 4 -8 251.93 31.54
-4 4 -8 282.02 32.18
4 -4 9 3.79 5.34
-4 4 -9 5.19 5.17
-4 4 -9 3.42 4.82
-4 4 -9 6.91 5.96
-4 4 -9 10.74 7.14
4 -4 9 6.17 6.15
4 -4 10 59.53 16.33
-4 4 -10 34.98 12.11
-4 4 -10 41.6 11.43
-4 4 -10 21.2 10.01
-4 4 -10 30.09 11.28
4 -4 10 39.91 11.49
4 -4 11 4.13 5.81
-4 4 -11 -3.6 5.07
4 -4 11 -3.02 3.01
-4 4 -11 -3.93 5.54
-4 4 -11 -3.56 5.02
-4 4 -11 2.95 4.15
-4 4 -12 535.71 50.45
4 -4 12 523.27 43.09
-4 4 -12 484.71 42.63
4 -3 -14 51.82 15.27
-4 3 14 63.56 16.38
-4 3 14 42.28 13.67
-4 3 13 483.76 43.08
-4 3 13 492.98 46.42
4 -3 -13 505.35 45.79
4 -3 -13 526.62 43.45
-4 3 13 484.47 46.32
-4 3 12 51.64 13.26
4 -3 -12 27.25 11.33
-4 3 12 54.07 14.43
4 -3 -12 61.1 14.34
-4 3 12 50.35 14.39
-4 3 11 112.41 19.93
-4 3 11 80.51 11.92
-4 3 11 100.32 18.99
-4 3 11 64.67 10.95
-4 3 11 86.11 16.07
4 -3 -11 89.56 16.99
-4 3 10 135.65 22.05
-4 3 10 110.84 19.42
-4 3 10 88.66 12.88
-4 3 10 117.35 14.63
-4 3 10 113.19 17.65
4 -3 -10 127.45 19.83
-4 3 9 1197.52 69.74
-4 3 9 1147.97 55.56
-4 3 9 1084.2 64.88
-4 3 9 1055.5 59.44
-4 3 9 1134.11 55.29
4 -3 -9 1168.85 67.2
-4 3 8 37.64 11.18
-4 3 8 17.37 6.02
-4 3 8 10.22 6.26
-4 3 8 22.55 6.71
4 -3 -8 13.49 6.6
-4 3 8 26 7.73
-4 3 7 29.82 7.83
-4 3 7 21.98 8.22
-4 3 7 14.04 5.55
-4 3 7 13.82 6.09
-4 3 7 14.05 5.82
4 -3 -7 20.94 7.7
4 -3 -7 23.38 8.6
-4 3 6 240.39 22.39
-4 3 6 263.82 23.51
-4 3 6 252.71 21.14
-4 3 6 242.63 23.91
4 -3 -6 216.4 22.9
4 -3 -6 264.61 27.16
-4 3 5 812.23 51.28
4 -3 -5 926.22 53.24
-4 3 5 811.85 45.91
-4 3 5 794.44 44.44
-4 3 5 839.75 46.51
-4 3 5 787.46 45.02
4 -3 -5 806.88 46.51
4 -3 -5 812.92 49.55
4 -3 -4 186.54 21.9
-4 3 4 190.01 22.3
-4 3 4 153.65 17.97
-4 3 4 170.97 17.8
-4 3 4 194.16 18.67
4 -3 -4 197.22 21.23
4 -3 -4 187.97 18.74
-4 3 4 163.46 18.59
-4 3 3 1158.69 52.23
4 -3 -3 1160.85 53.6
4 -3 -3 1179.23 58.25
-4 3 3 1095.78 57.27
4 -3 -3 1140.81 60.74
-4 3 3 1120.79 61.34
-4 3 3 1167.53 45.32
-4 3 3 1134.81 54.92
-4 3 3 1066.08 56.63
4 -3 -3 1154.38 49.22
-4 3 2 126.3 12.62
4 -3 -2 96.69 11.78
4 -3 -2 123.3 15.08
-4 3 2 116.88 15.78
-4 3 2 105.77 15.13
4 -3 -2 118.45 16.68
-4 3 2 148.23 19.03
-4 3 2 120.05 11.27
4 -3 -2 131.42 13.78
-4 3 2 116.84 14.31
4 -3 -1 665.27 36.85
4 -3 -1 583.71 35.3
-4 3 1 694.42 44.05
4 -3 -1 572.52 38.81
-4 3 1 630.93 37.02
4 -3 0 235.42 21.78
-4 3 0 283.2 15.39
4 -3 0 295.19 21.89
4 -3 0 261.41 24.27
4 -3 0 269.99 25.27
-4 3 0 296.3 23.87
4 -3 1 1236.54 56.52
-4 3 -1 1241.26 54.91
-4 3 -1 1358.68 62.28
-4 3 -1 1224.76 60.07
4 -3 1 1251.88 40.76
4 -3 1 1277.46 60.33
4 -3 1 1330.73 58.33
-4 3 -2 96.03 7.1
4 -3 2 132.45 17.72
-4 3 -2 111.82 16.51
-4 3 -2 110.69 16.52
4 -3 2 129.15 16.74
4 -3 2 82.91 12.91
-4 3 -2 120.5 15.29
-4 3 -3 301.08 28.37
-4 3 -3 302.08 28.56
4 -3 3 294.52 27.6
4 -3 3 256.15 22.71
4 -3 3 277.53 26.54
-4 3 -4 30.43 9.47
-4 3 -4 32.61 9.36
4 -3 4 28.77 8.95
4 -3 4 12.63 5
4 -3 4 12.15 5.95
-4 3 -5 892.57 54.78
-4 3 -5 871.54 54.48
4 -3 5 883.39 54.84
-4 3 -5 804.06 52.2
4 -3 5 835.82 43.39
4 -3 6 25.47 8.95
-4 3 -6 47.32 12.11
-4 3 -6 19.01 6.72
-4 3 -6 38.5 10.64
-4 3 -6 39.68 10.9
4 -3 6 28.25 6.48
4 -3 7 6.07 5.24
-4 3 -7 5.82 5.02
-4 3 -7 1.91 3.3
-4 3 -7 5.75 4.96
4 -3 7 3.56 2.36
-4 3 -7 5.64 4.86
4 -3 7 2.61 2.6
-4 3 -8 2.11 2.1
-4 3 -8 3 4.23
4 -3 8 2.9 1.93
4 -3 8 3.24 4.56
-4 3 -9 409.61 34.2
-4 3 -9 469.52 41.47
-4 3 -10 2.52 3.56
-4 3 -10 6.78 6.75
4 -3 10 10.92 7.25
-4 3 -11 390.5 38.57
-4 3 -11 364.51 37.49
-4 3 -11 330.82 32.64
-4 3 -11 423.65 41.41
4 -3 11 370.81 33.97
4 -3 11 359.68 39.42
-4 3 -12 58.72 15.12
-4 3 -12 61.64 14.16
-4 3 -12 62.91 15.3
-4 3 -12 60.6 15.68
4 -3 12 81.18 16.57
4 -3 12 82.95 15.18
-4 3 -13 238.21 32.51
-4 3 -13 246.59 29.13
4 -3 13 280.12 35.61
4 -3 13 265.47 31.13
4 -3 14 81.05 17.22
-4 3 -14 65.62 15.47
4 -2 -15 3.6 7.18
-4 2 15 4.22 5.95
-4 2 15 11.75 8.73
4 -2 -14 6.96 4.91
-4 2 14 3.7 5.21
-4 2 14 16.12 9.83
4 -2 -13 10.02 7.44
-4 2 13 7.37 7.34
-4 2 13 3.45 5.95
-4 2 13 3.79 5.35
4 -2 -12 720.7 49.58
4 -2 -12 820.02 55.76
-4 2 12 676.07 52.09
-4 2 12 746.56 55.63
4 -2 -11 7.91 5.26
-4 2 11 3.24 5.6
4 -2 -11 6.01 5.19
-4 2 11 11.68 7.13
-4 2 10 142.95 13.79
4 -2 -10 115.45 17.92
-4 2 10 130.77 20.89
4 -2 -10 101.19 18.43
-4 2 10 130.05 19.44
-4 2 10 140.07 13.7
-4 2 9 283.05 20.57
-4 2 9 280.24 27.56
-4 2 9 276.19 20.45
4 -2 -9 267.47 27.32
-4 2 9 240.69 27.21
4 -2 -9 300.22 30.81
-4 2 9 287.5 29.88
-4 2 8 447.58 27.79
-4 2 8 464.4 28.06
-4 2 8 428.61 33.53
4 -2 -8 521.53 37.97
-4 2 8 415.98 35.38
4 -2 -8 447.62 37.41
-4 2 8 545.3 40.86
-4 2 7 1188.23 62.32
4 -2 -7 1220.77 65.73
4 -2 -7 1221.91 63.71
-4 2 7 1248.49 66.12
-4 2 7 1205.44 53.48
-4 2 7 1139.54 58.94
-4 2 7 1155.98 52.7
-4 2 6 861.25 43.12
4 -2 -6 946.61 52.91
-4 2 6 927.03 53.84
-4 2 6 904.67 43.77
-4 2 6 845.65 45.82
-4 2 6 841.51 34.4
-4 2 6 890.89 50.2
4 -2 -6 920.15 51.15
4 -2 -6 886.92 52.42
-4 2 5 179.43 13.09
-4 2 5 129.08 14.43
4 -2 -5 154.38 17.71
-4 2 5 152.91 17.25
4 -2 -5 139.39 18.37
-4 2 5 145.12 18.57
4 -2 -5 140.47 18.26
-4 2 5 164.65 17.63
-4 2 5 140.81 15.31
-4 2 5 131.51 14.46
-4 2 4 354.6 21.21
-4 2 4 295.32 23.36
-4 2 4 346.72 28.92
4 -2 -4 356.99 28.91
-4 2 4 356.98 25.41
4 -2 -4 335.88 25.85
-4 2 4 400.55 27.83
4 -2 -4 319.82 24.28
-4 2 4 349.16 24.97
-4 2 3 95.67 12.67
-4 2 3 120.09 14.14
4 -2 -3 119.21 15.95
-4 2 3 142.41 17.52
-4 2 3 106.04 13.64
-4 2 3 129.22 13.63
4 -2 -3 99.1 14.09
4 -2 -3 126.5 14.25
4 -2 -3 129.59 10.99
4 -2 -3 129.15 14.78
4 -2 -2 3188.09 119.61
4 -2 -2 3141.67 119.09
4 -2 -2 3072.65 114.59
4 -2 -2 3410.7 124.61
-4 2 2 3359.6 125.47
-4 2 2 3402.97 110.88
-4 2 2 3150.91 118.93
-4 2 2 3112.16 118.87
-4 2 2 3367.8 119.87
4 -2 -2 3332.03 111.88
4 -2 -1 5.39 4
4 -2 -1 8.46 4.13
4 -2 -1 4.34 3.22
4 -2 -1 7.96 3.4
-4 2 1 5.79 2.86
-4 2 1 13.17 4.92
-4 2 1 1.66 2.35
-4 2 1 1.54 2.17
-4 2 1 5.65 3.75
4 -2 -1 15.65 4.8
-4 2 0 10.96 4.42
-4 2 0 20.25 3.52
4 -2 0 9.02 3.65
4 -2 0 12.49 4.6
4 -2 0 7.07 3.95
-4 2 -1 4.71 1.76
4 -2 1 7.86 3.84
-4 2 -1 10.99 5.16
4 -2 1 3.69 3.18
-4 2 -1 1.62 2.28
-4 2 -1 9.26 4.88
4 -2 2 1331.52 63.24
4 -2 2 1257.15 60.61
4 -2 3 601.64 27.8
4 -2 3 560.51 37.9
4 -2 3 551.46 37.45
4 -2 4 662.25 27.59
4 -2 4 660.64 42.02
4 -2 4 643.47 42.46
4 -2 5 405.55 31.99
-4 2 -5 343.13 23.51
4 -2 5 373.12 31.69
4 -2 6 140.14 8.5
4 -2 6 151.85 20.59
-4 2 -6 144.75 15.2
4 -2 7 13.68 7.24
-4 2 -7 22.59 6.47
4 -2 8 848.86 57
4 -2 8 929.29 53.46
-4 2 -8 830.02 46.94
4 -2 9 2.4 2.4
-4 2 -9 12.14 5.34
4 -2 9 9.42 6.26
4 -2 9 8.65 3.32
-4 2 -10 293.97 26.96
4 -2 10 254.27 26.65
4 -2 11 3.53 3.52
-4 2 -11 4.93 4.91
4 -2 12 589.95 44.05
-4 2 -12 551.42 42.58
-4 2 -13 2.91 5.02
4 -2 13 -3.87 5.45
4 -2 13 2.78 3.92
-4 2 -14 21.75 9.3
4 -2 14 11.98 7.97
4 -2 14 31.35 10.25
-4 2 -15 52.58 13.94
4 -2 15 34.82 10.88
4 -1 -15 228.19 28.63
-4 1 15 183.2 28.9
-4 1 15 133.7 25.08
4 -1 -14 61.41 14.84
-4 1 14 51.48 15.36
-4 1 14 57.37 15.33
4 -1 -13 24.72 9.76
-4 1 13 39.31 12.86
-4 1 13 22.45 9.89
-4 1 12 40.26 12.55
4 -1 -12 35.1 10.96
-4 1 12 31.45 11.06
-4 1 12 46.29 12.8
4 -1 -11 94.34 15.29
-4 1 11 106.2 18.35
-4 1 11 121.3 20.03
4 -1 -11 102.06 17.39
4 -1 -11 78.76 16.54
-4 1 11 71.02 15.68
4 -1 -11 125.48 20.41
-4 1 10 193.62 24.25
-4 1 10 204.03 25.45
-4 1 10 204.1 25.82
4 -1 -10 261.31 28.63
4 -1 -10 247.44 28.09
4 -1 -10 231.14 24.11
-4 1 9 1895.01 87.99
-4 1 9 1810.07 65.11
-4 1 9 1942.13 90.69
4 -1 -9 1989.26 91.02
4 -1 -9 1940.97 90.99
-4 1 9 1814.17 65.15
4 -1 -9 1828.77 83.68
-4 1 8 2.46 3.47
4 -1 -8 -2.43 2.42
4 -1 -8 2.51 3.54
4 -1 -8 -2.11 2.97
-4 1 8 2.26 2.25
-4 1 7 355.28 29.5
-4 1 7 455.54 34.93
4 -1 -7 383.86 30.68
4 -1 -7 410.94 33.27
4 -1 -7 435.39 33.43
4 -1 -6 29.44 8.14
4 -1 -6 42.21 7.38
4 -1 -6 53.95 11.23
-4 1 6 46.58 9.92
-4 1 6 35.91 8.65
4 -1 -6 35.01 6.16
-4 1 6 48.47 10.56
-4 1 5 1695.19 59.59
4 -1 -5 1662.61 65.28
-4 1 5 1673.74 73.62
4 -1 -5 1697.49 77.87
-4 1 5 1661.3 72.44
-4 1 5 1894.45 79.28
4 -1 -5 1726.47 76.63
4 -1 -5 1882.54 77.35
4 -1 -5 1745.85 67.18
4 -1 -4 -1.81 2.54
4 -1 -4 -0.87 1.5
-4 1 4 0.77 1.32
-4 1 4 1.41 1.99
4 -1 -4 1.83 1.82
-4 1 4 1.48 1.48
4 -1 -4 1.2 2.06
4 -1 -4 1.77 3.05
-4 1 4 1.82 2.56
-4 1 3 4.47 2.52
4 -1 -3 1.28 2.22
4 -1 -3 10.36 4.55
-4 1 3 12.68 4.19
4 -1 -3 3.36 2.9
-4 1 3 5.7 2.78
-4 1 3 11.91 5.62
-4 1 3 11.36 3.98
4 -1 -3 5.72 2.14
-4 1 3 4.53 2.53
-4 1 2 428.18 29.55
-4 1 2 438.95 24.33
-4 1 2 457.5 24.91
-4 1 2 376.74 25.1
4 -1 -2 445.03 28.07
4 -1 -2 402.79 29.39
4 -1 -2 424.12 22.51
-4 1 2 440.75 25.54
-4 1 2 408.24 25.81
4 -1 -2 450.47 24.79
-4 1 1 1126.24 47.25
-4 1 1 1078.34 50.06
4 -1 -1 1126.81 45.94
-4 1 1 1098.32 50.55
4 -1 -1 1180.41 46.83
4 -1 -1 1086.42 46.68
-4 1 1 1116.55 46.54
4 -1 -1 966.63 49.46
4 -1 -1 1248.12 55.92
4 -1 -1 1202.18 53.2
-4 1 1 1107.94 53.26
-4 1 0 996.21 48.52
4 -1 0 1028.18 40.89
4 -1 0 968.25 48.23
4 -1 0 940.2 48.75
-4 1 0 988.95 38.25
4 -1 0 982.77 40.68
4 -1 0 920.59 43.92
-4 1 0 986.89 40.97
-4 1 -1 2905.02 93.53
4 -1 1 2784.95 95.04
4 -1 1 2823.36 103.07
-4 1 -1 2713.45 93.81
-4 1 -1 2790.2 102.91
4 -1 1 2910.2 106.8
-4 1 -1 2877.24 106.04
4 -1 1 2766.35 93.56
-4 1 -2 399.66 26.88
4 -1 2 456.91 30.49
-4 1 -2 395.72 20.82
4 -1 2 439.5 28.78
-4 1 -3 137.33 10.69
4 -1 3 139.31 16.07
-4 1 -3 129.44 14.63
4 -1 3 117.2 14.87
-4 1 -4 288.23 16.97
4 -1 4 248.28 23.5
-4 1 -4 214.07 20.31
4 -1 4 282.28 24.09
-4 1 -4 277.52 14.39
4 -1 5 1560.85 72.33
-4 1 -5 1442.2 50.99
-4 1 -5 1485.27 67.04
4 -1 5 1672.92 71.46
-4 1 -6 88.98 10.62
-4 1 -6 98.54 7.54
4 -1 7 133.65 17.2
-4 1 -7 132.96 14.19
4 -1 7 105.78 17.07
-4 1 -7 141.9 9.67
4 -1 8 484.76 39.41
-4 1 -8 484.93 22.47
4 -1 8 491.04 35.48
4 -1 9 1587.55 80.89
-4 1 -9 1482.89 54.12
4 -1 9 1436.05 71.26
4 -1 10 3.08 4.34
-4 1 -10 -0.78 1.55
4 -1 10 2.2 3.1
4 -1 11 206.34 22.8
4 -1 12 19.95 7.36
4 -1 12 29.28 8.71
4 -1 13 15.24 6.15
4 -1 13 18.23 8.91
4 -1 13 21.09 8.1
4 -1 14 132.4 23.3
4 -1 14 152.81 20.36
4 -1 15 384.37 41
-4 1 -16 16.7 8.16
-4 0 15 -4.13 5.81
-4 0 15 4.14 5.83
-4 0 14 7.86 6.78
-4 0 14 3.91 3.9
4 0 -13 16.93 7.96
-4 0 13 18.51 9.04
-4 0 13 11.02 8.19
4 0 -12 1190.94 66.17
-4 0 12 1057.1 70.53
4 0 -12 1254.04 73.46
4 0 -12 1164.22 69.26
-4 0 12 1109.41 71.03
4 0 -11 77.73 14.47
-4 0 11 86.26 16.95
4 0 -11 67.63 15.12
4 0 -11 72.53 15.41
-4 0 11 40.74 12.24
4 0 -10 358.05 28.1
4 0 -10 343.27 29.88
4 0 -10 343.23 32.89
-4 0 10 290.89 30.82
4 0 -10 273.29 29.48
-4 0 9 13.39 7.55
4 0 -9 5.22 4.5
4 0 -9 -2.57 3.61
4 0 -9 4.87 3.62
4 0 -9 11.39 5.35
4 0 -9 5.27 3.5
4 0 -8 345.27 28.63
-4 0 8 521.33 38.09
4 0 -8 454.22 35.92
4 0 -8 402.49 33.87
4 0 -8 480.16 29.89
4 0 -8 416.21 30.2
4 0 -7 109.65 14.4
4 0 -7 103.62 15.72
-4 0 7 120.25 17.32
4 0 -7 120.14 16.76
-4 0 7 77.45 5.34
-4 0 7 93.19 5.82
-4 0 7 78.2 5.3
-4 0 7 75.67 5.31
4 0 -7 120.42 15.18
4 0 -7 87.48 11.68
-4 0 6 1046.82 37.43
-4 0 6 948.46 36.57
-4 0 6 1074.06 37.67
4 0 -6 1023.33 41.44
4 0 -6 1133.07 53.78
4 0 -6 1105.12 56.92
4 0 -6 1012.55 54.69
4 0 -6 1094.17 53.49
4 0 -6 1079.56 48.59
4 0 -5 995.15 50.27
-4 0 5 1046.67 51.68
4 0 -5 1043.21 46.68
-4 0 5 982.68 37.42
-4 0 5 923.57 36.94
4 0 -5 1039.7 53.09
-4 0 5 1025.89 51.62
4 0 -5 958.45 45.34
4 0 -5 1006.85 41.88
4 0 -5 877.64 48.27
4 0 -4 951.62 41.93
4 0 -4 950.02 48.47
-4 0 4 861.63 45.94
4 0 -4 948.3 44.21
-4 0 4 1080.71 50.96
4 0 -4 920.75 37.19
4 0 -4 1013.29 43.99
-4 0 4 929.19 37.57
-4 0 4 922.29 37.38
-4 0 4 902.19 46.94
4 0 -3 107.15 11.71
4 0 -3 137.13 15.39
-4 0 3 139.39 14.06
-4 0 3 113.79 9.87
4 0 -3 147.33 12.37
4 0 -3 137.66 11.38
-4 0 3 128.13 10.88
4 0 -3 122.66 12.05
-4 0 3 105.87 10.03
-4 0 3 123.74 10.53
-4 0 3 106.6 13.7
-4 0 3 115.2 10.32
-4 0 3 107.17 12.89
4 0 -2 969.21 41.81
-4 0 2 926 40.96
4 0 -2 965.8 41.8
4 0 -2 960.3 44.57
4 0 -2 974.08 48.74
-4 0 2 986.93 40.15
-4 0 2 1014.16 40.36
4 0 -2 1003.11 40.89
-4 0 2 952.96 47.17
-4 0 2 934.82 44.66
-4 0 1 212.76 16.85
4 0 -1 231.61 15.11
-4 0 1 226.74 16.45
4 0 -1 212.95 16.56
4 0 -1 210.73 16.2
-4 0 1 211.78 15.2
-4 0 1 207.22 19.03
4 0 -1 225.7 16.68
-4 0 1 225.8 15.57
4 0 -1 186.35 18.39
4 0 -1 229.5 18.57
4 0 0 5.83 3.57
4 0 0 18.66 5.32
-4 0 0 8.56 3.16
4 0 0 13.72 3.39
-4 0 0 9.86 4.22
4 0 0 10.04 3.29
-4 0 0 13.53 3.56
4 0 0 9.24 2.99
-4 0 0 17.09 4.53
4 0 0 10.69 3.94
-4 0 0 10.48 3.3
4 0 0 12.48 3.95
-4 0 0 13.32 3.96
4 0 1 61.93 7.32
4 0 1 40.43 7.73
4 0 1 52.67 6.94
-4 0 -1 55.79 7.76
-4 0 -1 47.12 8.9
4 0 1 44.91 8.42
4 0 1 57.86 9.45
4 0 1 67.13 6.58
-4 0 -1 52.36 7.46
-4 0 -1 49.24 6.78
4 0 2 5627.32 190.37
4 0 2 5604.98 173.8
-4 0 -2 5694.53 181.22
4 0 2 5912.86 181.03
-4 0 -2 5780.58 181.58
4 0 2 5612.03 189.27
4 0 3 38.47 7.86
-4 0 -3 30.03 3.29
-4 0 -3 23.54 4.66
4 0 3 28.71 3.11
4 0 3 30.9 5.64
4 0 3 29.36 7.1
4 0 4 1273.79 55.28
4 0 4 1403.15 61.27
4 0 4 1232.37 40.08
-4 0 -4 1384.07 46.64
4 0 4 1436.75 61.9
-4 0 -4 1389.72 56.36
-4 0 -4 1346.47 50.78
4 0 5 584.37 35.23
4 0 5 479.24 28.77
4 0 5 556.44 35.34
-4 0 -5 557.03 26.97
-4 0 -5 492.04 30.48
4 0 6 687.69 41.66
-4 0 -6 680.38 38.4
-4 0 -6 686.01 32.09
4 0 7 153.65 17.98
4 0 7 175.96 20.03
-4 0 -7 193.75 14.85
-4 0 -7 196.56 19.47
4 0 8 337.21 27.25
-4 0 -8 304.78 26.39
4 0 9 402.7 30.79
-4 0 -9 385.94 31.32
-4 0 -10 93.69 16.3
4 0 10 80.12 13.27
-4 0 -10 64.01 12.91
4 0 11 83.63 12.59
-4 0 -11 111.79 17.95
-4 0 -11 60.09 13.21
4 0 11 73.48 12.74
4 0 12 1248.75 75.17
-4 0 -12 1358.08 74.56
-4 0 -12 1366.21 74.28
4 0 12 1305.39 65.46
4 0 12 1412.36 64.67
4 0 13 50.43 10.73
-4 0 -13 56.21 13.99
4 0 13 45.57 9.75
-4 0 -13 43.5 12.46
4 0 13 58.3 14.56
4 0 14 38.8 9.34
4 0 14 47.61 10.14
-4 0 -14 46.91 12.98
-4 0 -14 19.86 9.96
4 0 14 61.09 15.64
-4 0 -15 39.46 12.4
4 0 15 18.59 9.83
-4 0 -16 242.55 31.54
4 0 16 197.13 28.46
-4 -1 15 217.82 31.05
-4 -1 15 222.59 31.65
-4 -1 14 266.58 33.8
-4 -1 14 259.72 33.45
-4 -1 13 280.32 34.16
-4 -1 13 263.28 32.88
4 1 -13 244.93 30.72
-4 -1 12 361.7 37.28
4 1 -12 379.41 35.3
-4 -1 12 332.6 36.01
4 1 -12 336.77 35.06
-4 -1 11 215.94 27.58
4 1 -11 240.34 24.5
4 1 -11 177.88 24.28
-4 -1 11 254.1 29.68
4 1 -11 201.26 24.9
4 1 -10 8.36 4.66
-4 -1 10 2.96 4.17
4 1 -10 2.79 4.82
4 1 -10 13.07 6.38
-4 -1 10 14.75 7.2
4 1 -10 6.39 4.25
4 1 -9 1480.57 66.69
4 1 -9 1401.46 62.12
-4 -1 9 1313.76 69.63
4 1 -9 1273.34 64.08
-4 -1 9 1437.32 73.91
4 1 -9 1345.04 71.32
4 1 -9 1253.69 68.11
-4 -1 9 1288.95 72.32
4 1 -9 1252.29 61.09
-4 -1 8 2.46 3.46
-4 -1 8 2.21 3.11
4 1 -8 -2.39 3.37
-4 -1 8 -2.47 3.47
4 1 -8 2.31 3.25
4 1 -8 -1.61 3.21
4 1 -8 1.72 2.42
4 1 -8 1.85 1.84
4 1 -7 85.32 12.04
-4 -1 7 75.14 12.85
4 1 -7 86.05 12.61
-4 -1 7 84.78 14.27
4 1 -7 123.37 16.9
4 1 -7 88.67 14.34
-4 -1 7 86.93 14.43
4 1 -7 73.37 11.67
-4 -1 6 12.1 6.03
-4 -1 6 6.05 4.5
-4 -1 6 8.83 4.32
-4 -1 6 24.06 7.48
4 1 -6 12.31 4.61
4 1 -6 18.51 5.81
4 1 -6 6.39 3.57
4 1 -5 1811 73.61
4 1 -5 1793.06 60.68
4 1 -5 1648.72 72.39
-4 -1 5 1802.02 77.44
4 1 -5 1775.32 75.02
4 1 -5 1744.52 64.57
-4 -1 5 1840.18 77.46
-4 -1 5 1652.83 72.82
-4 -1 5 1772.49 77.3
4 1 -4 252.24 21.46
4 1 -4 237.13 16.96
-4 -1 4 271.46 22.42
4 1 -4 252.9 20.12
4 1 -4 245.91 19.78
4 1 -4 218.88 14.22
-4 -1 4 225.02 10.09
-4 -1 4 198.99 9.74
-4 -1 4 238.51 19.71
-4 -1 4 206.28 9.84
-4 -1 4 217.69 9.99
-4 -1 4 215.02 20.25
4 1 -3 134.85 15.51
4 1 -3 168.17 14.53
-4 -1 3 169.37 16.95
-4 -1 3 184.29 16.24
-4 -1 3 197.52 18.05
4 1 -3 191.76 16.63
4 1 -3 161.42 12.78
-4 -1 3 160.7 10.23
4 1 -3 175.55 16.47
-4 -1 3 155.28 9.82
-4 -1 3 175.69 10.51
-4 -1 3 166.55 10.08
4 1 -2 424.27 27.21
4 1 -2 460.63 21.27
4 1 -2 451.23 24.68
4 1 -2 504.79 28.01
-4 -1 2 476.1 29.33
-4 -1 2 422.49 20.6
4 1 -2 428.64 19.12
-4 -1 2 456.29 21.12
4 1 -2 478.87 30.21
4 1 -2 459.84 26.81
-4 -1 2 411.91 27.33
4 1 -1 1597.56 55.65
4 1 -1 1571.2 62.92
-4 -1 1 1740.8 68.68
-4 -1 1 1620.02 58.54
-4 -1 1 1709.58 59.1
4 1 -1 1704.27 63.16
-4 -1 1 1732.23 67.42
4 1 0 317.87 20.49
4 1 0 288.73 14.94
-4 -1 0 310.28 22.58
4 1 0 328.72 20.66
-4 -1 0 327.71 18.72
-4 -1 0 309.9 19.65
-4 -1 0 308.99 20.27
4 1 0 298.92 21.14
-4 -1 0 314.57 18.47
4 1 0 295.49 18.66
-4 -1 0 291.6 21.19
-4 -1 -1 3443.34 115.21
4 1 1 3246.95 118.42
-4 -1 -1 3183.57 119.19
4 1 1 3543.26 115.46
-4 -1 -1 3550.65 114.51
-4 -1 -1 3563.84 114.59
4 1 1 3382.52 111.66
4 1 1 3260.96 107.14
-4 -1 -2 54.02 7.83
4 1 2 67.2 9.87
-4 -1 -2 47.81 7.59
-4 -1 -2 60.2 9.57
-4 -1 -2 64.62 8.44
-4 -1 -2 56.78 8.05
4 1 2 52.72 6.37
-4 -1 -2 50.4 6.08
4 1 2 52.01 5.82
4 1 2 57.28 9.37
4 1 2 52.29 8.88
-4 -1 -3 603.96 31.34
4 1 3 637.9 35.58
4 1 3 659.99 27.33
4 1 3 641.49 35.63
-4 -1 -3 546.95 27.56
4 1 4 78.08 11.31
4 1 4 78.52 10.15
-4 -1 -4 67.54 9
4 1 4 73.64 11.13
4 1 5 1435.3 63.3
4 1 5 1529.8 65.45
-4 -1 -5 1296.82 56.4
4 1 6 520.28 34.28
-4 -1 -6 535.23 29.49
-4 -1 -6 456.85 28.46
-4 -1 -7 255.51 23.7
-4 -1 -7 240.39 20.32
4 1 7 253.68 23.47
-4 -1 -8 31.48 8.42
4 1 8 34.06 8.24
-4 -1 -8 33.54 7.89
-4 -1 -9 1480.41 73.36
-4 -1 -9 1455.16 68.66
4 1 9 1486.05 68.22
4 1 10 505.83 28.59
4 1 10 437.39 32.57
4 1 10 493.92 36.92
-4 -1 -10 510.33 38.65
-4 -1 -10 452.22 34.49
4 1 11 30.29 6.45
-4 -1 -11 19.03 7.52
-4 -1 -11 24.29 8.94
4 1 11 23.68 8.2
4 1 11 21.16 6.94
4 1 12 14.89 5.07
4 1 12 11.61 5.12
-4 -1 -12 28.91 9.08
-4 -1 -12 20.38 8.22
4 1 12 27.14 8.87
-4 -1 -13 431.67 39
-4 -1 -13 392.23 36.28
4 1 13 396.25 30.57
4 1 13 460.08 28.87
4 1 14 10.24 6.8
-4 -1 -14 6.68 6.65
-4 -1 -14 -3.14 3.13
4 1 14 3.72 3.7
-4 -1 -15 568.97 47.36
4 1 15 471.94 45.02
-4 -1 -15 558.87 47.96
-4 -1 -16 191.26 28.07
4 1 16 211.62 29.05
-4 -1 -16 241.08 31.31
4 1 17 36.87 12.2
4 1 17 19.18 9.39
-4 -2 14 36.2 12.68
-4 -2 14 11.85 7.89
-4 -2 13 38 12.58
-4 -2 13 33.82 11.87
4 2 -13 23.46 9.48
-4 -2 12 828.95 59.65
4 2 -12 773.67 55.16
-4 -2 12 800.65 58.91
4 2 -12 737.74 51
-4 -2 11 -3.3 4.65
-4 -2 11 3.3 5.7
4 2 -11 2.96 4.16
4 2 -11 -2.63 2.62
-4 -2 10 30.56 10.56
4 2 -10 30.1 9.03
4 2 -10 33.06 9.91
-4 -2 10 27.44 9.62
4 2 -10 10.3 5.46
-4 -2 9 5.63 4.86
4 2 -9 18 7.25
4 2 -9 7.13 4.74
4 2 -9 7.32 4.08
-4 -2 9 2.8 3.95
4 2 -8 1271.38 58.06
4 2 -8 1253.4 60.52
4 2 -8 1257.41 64.97
-4 -2 8 1282.04 68.99
4 2 -8 1280.48 67.02
-4 -2 8 1305.33 68.84
-4 -2 8 1186.19 67.41
-4 -2 7 570.71 39.88
4 2 -7 469.73 33.02
-4 -2 7 525.77 38.83
-4 -2 7 498.35 38.71
4 2 -7 510.05 30.85
-4 -2 7 616.28 41.28
4 2 -6 792.29 45.88
-4 -2 6 928.4 50.96
-4 -2 6 729.84 42.76
-4 -2 6 825.23 49.44
-4 -2 6 823.6 48.59
-4 -2 6 894 50.23
4 2 -5 501.77 33.03
4 2 -5 432.03 23.6
4 2 -5 504.88 33.31
-4 -2 5 500.08 34.39
-4 -2 5 435.49 28.96
-4 -2 5 473.18 33.81
4 2 -4 137.37 15.7
4 2 -4 141.25 12.32
4 2 -4 131.91 15.47
-4 -2 4 150.6 16.92
4 2 -4 139.92 13.18
-4 -2 4 121.6 13.28
-4 -2 4 125.67 15.68
4 2 -3 640.15 30.16
4 2 -3 624.89 35.75
4 2 -3 591.69 30.4
4 2 -3 643.23 36.06
-4 -2 3 574.43 20.41
-4 -2 3 556.23 20.03
4 2 -3 642.49 29.46
-4 -2 3 650.11 36.4
-4 -2 3 557.52 19.97
-4 -2 3 573.03 20.22
-4 -2 3 657.32 37.57
4 2 -2 2352.46 85.32
4 2 -2 2425.9 90.43
4 2 -2 2430.33 81.82
-4 -2 2 2451.69 92.28
-4 -2 2 2275.84 75.6
-4 -2 2 2213.14 75.39
-4 -2 2 2480.61 92.74
-4 -2 2 2397.97 90.54
4 2 -2 2374.92 79.78
4 2 -2 2297.98 89.56
-4 -2 1 71.33 10.31
-4 -2 1 59.65 9.8
-4 -2 1 90.78 8.9
4 2 -1 75.89 4.39
4 2 -1 88.33 10.56
4 2 -1 88.39 11.33
-4 -2 1 81.47 7.63
-4 -2 1 105.47 8.51
-4 -2 1 101.9 12.62
4 2 -1 91.51 11.81
4 2 0 460.94 24.89
-4 -2 0 440.57 28.27
4 2 0 432.57 23.12
-4 -2 0 413.82 21.29
4 2 0 446.3 28.75
4 2 0 437.7 27.02
4 2 0 448.18 24.07
4 2 0 471.78 23.81
-4 -2 0 482.09 23.26
-4 -2 0 456.24 22.86
-4 -2 0 426.93 27.97
-4 -2 -1 1004.85 38.91
-4 -2 -1 1084.9 47.99
4 2 1 1005.48 47.62
4 2 1 1120.48 44.11
4 2 1 1001.92 43.47
-4 -2 -1 1039.29 42.88
4 2 1 1040.78 43.93
4 2 1 1021.63 43.84
-4 -2 -1 1049.42 42.93
4 2 1 1100.17 43.31
4 2 2 3764.55 121.12
4 2 2 3752.73 123.57
-4 -2 -2 3671.71 114.34
4 2 2 3604.86 125.8
-4 -2 -2 3511.35 112.64
4 2 2 3731.46 130.24
4 2 2 4014.3 125.07
4 2 2 3728.24 126.16
-4 -2 -2 4029.91 125.41
-4 -2 -2 3829.34 129.26
-4 -2 -2 3226.52 126.96
-4 -2 -2 4067.84 125.64
-4 -2 -2 3710.09 117.77
4 2 3 167.07 16.62
4 2 3 182.13 16.08
4 2 3 157.95 11.74
-4 -2 -3 145.11 9.63
-4 -2 -3 170.57 15.96
4 2 3 196.27 16.68
4 2 4 317.99 23.31
4 2 4 334.05 23.72
-4 -2 -4 296.47 16.75
4 2 4 306.58 23.86
-4 -2 -5 -1.52 1.51
4 2 5 1.65 2.33
4 2 5 1.56 2.2
-4 -2 -5 2.72 2.71
4 2 5 -1.56 2.2
4 2 6 1006.07 51.67
4 2 6 1043.64 52.25
4 2 6 986.93 51.81
-4 -2 -6 1044.24 51.97
-4 -2 -7 487.93 33.67
4 2 7 490.92 33.95
4 2 7 510.18 34.49
4 2 7 539.42 35.14
-4 -2 -7 463.79 28.56
4 2 8 1159.7 59.27
-4 -2 -8 1046.18 51.71
-4 -2 -8 1064.15 57.29
-4 -2 -9 259.07 25.37
4 2 9 207.15 22.96
4 2 9 207.67 14.64
4 2 9 222.51 13.59
4 2 9 234.69 21.92
4 2 9 203.11 22.57
4 2 9 179.19 20.79
-4 -2 -9 235.03 21.25
-4 -2 -10 131.68 18.68
4 2 10 125.19 18.14
4 2 10 127.64 10.34
4 2 10 112.71 8.92
4 2 10 127.58 16.25
-4 -2 -10 101.5 14.85
4 2 10 139.22 18.5
4 2 10 144.64 19.53
-4 -2 -11 2.66 3.75
4 2 11 6.93 5.15
4 2 11 13.31 5.68
-4 -2 -11 4.4 3.79
4 2 12 588.03 38.71
-4 -2 -12 626.72 44.12
-4 -2 -12 682.43 48.54
4 2 12 659.82 44.11
4 2 13 13.21 5.33
-4 -2 -13 16.23 7.14
-4 -2 -13 15.53 7.59
4 2 13 9.82 6
4 2 14 140.63 16.84
-4 -2 -14 109.6 19.52
-4 -2 -14 156.76 23.59
4 2 14 140.12 19.71
-4 -2 -15 12.85 7.16
-4 -2 -15 3.55 3.54
-4 -2 -16 588.83 49.23
-4 -2 -16 573.36 49.64
4 2 16 442.73 43.18
4 2 17 -3.56 5.02
-4 -2 -17 -3.92 5.52
-4 -2 -17 10.95 8.13
-4 -3 14 4.03 6.95
4 3 -14 -3.59 5.06
4 3 -13 125.32 21.67
4 3 -13 138.65 22.11
-4 -3 13 126.59 22.92
4 3 -12 66.3 15.16
4 3 -12 39.88 11.94
-4 -3 12 43.42 13.57
-4 -3 12 83.11 18.5
4 3 -11 212.5 25.98
4 3 -11 231.72 26.81
-4 -3 11 202.91 27.2
-4 -3 11 177.15 26.62
4 3 -10 319.15 30.86
-4 -3 10 325.9 34.55
4 3 -10 331.37 31.82
4 3 -10 282.58 27.95
-4 -3 10 245.13 29.65
4 3 -9 465.38 36.98
4 3 -9 522.04 38.32
4 3 -9 461.77 37.63
-4 -3 9 514.68 43.07
-4 -3 9 520.23 42.13
4 3 -8 45.6 10.52
-4 -3 8 70.1 14.88
4 3 -8 60.1 12.07
4 3 -8 62.42 12.78
-4 -3 8 80.39 15.2
4 3 -7 261.92 23.98
-4 -3 7 279.86 28.49
-4 -3 7 254.72 26.62
-4 -3 6 110.68 16.59
4 3 -6 88.16 10.47
4 3 -6 85.27 14.38
-4 -3 6 88.68 15.12
4 3 -6 87.84 12.99
4 3 -5 2154.03 80.88
4 3 -5 2465.82 91.41
-4 -3 5 2466.57 99.13
-4 -3 5 2187.1 95.99
4 3 -5 2297.02 85.63
4 3 -5 2463.67 98.2
4 3 -4 19.13 6.36
4 3 -4 32.19 4.88
4 3 -4 27.18 6.07
-4 -3 4 17.5 6.17
4 3 -4 37.41 7.33
4 3 -4 24.72 7.13
-4 -3 4 18.9 6.29
4 3 -3 3.56 3.08
4 3 -3 8.77 2.21
4 3 -3 8.97 3.83
-4 -3 3 3.63 3.14
-4 -3 3 6.41 1.25
4 3 -3 4.68 2.61
-4 -3 3 7.97 1.34
-4 -3 3 16.24 5.69
-4 -3 3 6.72 3.75
4 3 -3 19.52 6.38
-4 -3 2 875.59 47.04
-4 -3 2 908.95 45.42
4 3 -2 885.01 28.97
4 3 -2 915.95 43.75
4 3 -2 885.19 46.69
-4 -3 2 902.9 33.25
-4 -3 2 869.97 33.05
4 3 -2 897.28 33.54
-4 -3 2 844.77 43.84
-4 -3 2 966.63 48.41
4 3 -2 839.81 33.07
4 3 -2 930.75 40.59
4 3 -2 907.78 47.8
4 3 -1 1791.48 65.06
-4 -3 1 1752.63 73.33
-4 -3 1 1876.11 78
4 3 -1 2044.26 79.15
4 3 -1 1912.71 75.33
4 3 -1 2011.55 78.73
4 3 -1 1872.17 65.76
4 3 -1 1867.14 65.45
-4 -3 1 1814.19 64.42
-4 -3 1 1971.34 74.75
-4 -3 1 1827.16 64.45
-4 -3 1 1926.8 78.43
4 3 0 50.56 6.97
-4 -3 0 46.91 8.92
-4 -3 0 54.75 8.61
4 3 0 48.47 7.15
4 3 0 53.25 9.32
4 3 0 45.52 8.38
4 3 0 54.7 6.65
4 3 0 42.71 6.41
-4 -3 0 45.76 6.24
-4 -3 0 53.17 6.7
-4 -3 0 31.88 7.41
-4 -3 -1 1282.97 42.89
4 3 1 1529.87 62.24
4 3 1 1375.13 60.04
4 3 1 1457.13 52.16
4 3 1 1306.04 54.07
-4 -3 -1 1329.29 52.69
4 3 1 1432.95 52.19
-4 -3 -1 1352.43 50.06
4 3 1 1290.16 53.64
-4 -3 -1 1383.57 56.77
-4 -3 -1 1330.24 60.11
-4 -3 -1 1335.01 52.56
4 3 2 215.46 19.37
-4 -3 -2 212.7 16.04
4 3 2 187.21 16.03
-4 -3 -2 192.42 15.39
-4 -3 -2 198.79 16.65
-4 -3 -2 209.28 18.87
4 3 2 182.18 15.84
-4 -3 -2 193.03 13.25
4 3 2 237.53 15.72
4 3 2 195.13 13.06
-4 -3 -3 641.21 23.01
-4 -3 -3 703.17 23.34
4 3 3 773.67 41.06
4 3 3 865.34 35.87
4 3 3 757.79 38.69
-4 -3 -3 711.83 24.11
-4 -3 -3 701.65 30.99
4 3 3 718.79 37.41
-4 -3 -3 797.83 37.64
-4 -3 -3 778.77 40.36
4 3 3 829.98 29.74
-4 -3 -4 1920.11 61.83
4 3 4 2037.91 82.03
-4 -3 -4 1922.57 75.9
4 3 4 2025.19 78.8
-4 -3 -4 1779.35 63.87
4 3 4 1958.95 78.42
-4 -3 -4 1923.75 76.02
-4 -3 -4 2062.98 80.24
4 3 4 2029.66 63.39
-4 -3 -5 3292 101.54
4 3 5 3318.04 120.94
-4 -3 -5 2772.6 113.44
4 3 5 3283.51 118.7
-4 -3 -5 3019.59 104.35
4 3 5 3187.27 118.18
-4 -3 -5 2957.9 116.76
4 3 5 3276.14 96.92
4 3 6 27.59 7.59
4 3 6 26.64 7.12
-4 -3 -6 29.83 4.72
4 3 6 19.43 6.14
4 3 7 7.72 4.31
-4 -3 -7 13.88 3.56
-4 -3 -7 13.84 4.31
4 3 7 9.69 4.74
4 3 7 9.59 4.69
4 3 8 258.94 24.83
-4 -3 -8 219.28 19.11
4 3 9 925.03 51.85
4 3 9 933.21 53.78
-4 -3 -9 900.81 52.14
4 3 9 896.98 53.16
-4 -3 -9 888.7 46.6
4 3 10 70.38 12.87
-4 -3 -10 55.5 12.36
4 3 10 53.96 11.82
4 3 10 48.94 11.54
-4 -3 -10 48.05 10.21
4 3 11 308.8 28.11
4 3 11 346.66 31.66
4 3 11 281.65 28.89
4 3 11 233.97 14.19
4 3 11 259.37 24.38
-4 -3 -11 228.17 23.44
-4 -3 -11 329.88 30.7
4 3 12 193.41 22.46
-4 -3 -12 163.53 22.66
4 3 12 167.66 19.06
-4 -3 -12 147.53 19.56
4 3 13 745.86 48.6
-4 -3 -13 663.98 51.84
4 3 13 718.26 51.64
4 3 13 767.95 53.27
4 3 13 805.49 45.82
-4 -3 -13 783.1 50.88
-4 -3 -14 43.34 12.94
4 3 14 47.03 11.39
4 3 14 44.14 12.25
4 3 14 53.55 13.39
4 3 14 65.81 11.33
-4 -3 -14 48.33 12.75
4 3 15 286.8 32.79
4 3 15 325.4 30.15
-4 -3 -15 370.09 35.66
4 3 15 273.95 31.99
-4 -3 -15 313.37 35.04
-4 -3 -16 11.32 7.52
-4 -3 -16 3.31 3.3
-4 -3 -17 11.85 7.89
-4 -3 -17 21.11 9.92
4 3 17 27.66 10.34
-4 -4 13 12.57 8.35
4 4 -13 3.62 6.25
-4 -4 12 311.23 37.42
4 4 -12 334.65 35.63
-4 -4 11 7.55 7.53
4 4 -11 15.93 7.78
4 4 -10 5.32 4.59
-4 -4 10 -3.54 3.53
4 4 -10 5.9 5.87
4 4 -9 10.16 6.2
4 4 -9 10.87 6.06
-4 -4 9 13.19 7.35
4 4 -8 997.69 57
4 4 -8 928.35 56.05
-4 -4 8 971.75 62.05
4 4 -7 54.3 11.6
-4 -4 7 44.48 11.52
4 4 -7 46.43 11.96
-4 -4 7 72.33 12.26
-4 -4 6 696.92 47.68
4 4 -6 732.65 44.69
4 4 -6 757.14 49.22
-4 -4 6 723.41 43.42
-4 -4 5 410.1 33.32
4 4 -5 374.7 29.39
4 4 -5 406.65 33.43
-4 -4 5 413.1 31.43
-4 -4 4 476.12 35.49
-4 -4 4 469.67 34.11
4 4 -4 526.25 33.55
4 4 -4 536.86 37.68
4 4 -3 31.7 7.48
-4 -4 3 41.35 9.29
4 4 -3 46.92 10.04
-4 -4 3 42.15 9.24
4 4 -3 51.15 10.67
-4 -4 3 43.8 4.83
-4 -4 3 42.28 9.06
-4 -4 3 46.66 4.9
-4 -4 3 53.71 10.93
-4 -4 2 812.85 46.03
4 4 -2 885.62 47.56
-4 -4 2 769.73 32.37
4 4 -2 771.54 32.77
4 4 -2 814.3 46.18
-4 -4 2 849.44 46.9
-4 -4 2 807.55 43.8
-4 -4 2 761.27 32.21
4 4 -2 810.6 33.3
-4 -4 1 303.38 25.17
4 4 -1 297.07 24.76
-4 -4 1 263.95 23.74
4 4 -1 257.52 23.16
-4 -4 1 255.12 16.36
4 4 -1 257.71 16.98
-4 -4 1 285.98 21.86
-4 -4 1 289.99 24.45
4 4 -1 248 16.73
-4 -4 1 256.17 16.26
-4 -4 0 428.63 23.28
4 4 0 380.63 23.29
-4 -4 0 428.47 23.35
4 4 0 442.62 24.78
-4 -4 0 400.27 25.7
-4 -4 0 413.71 30.3
4 4 0 417.18 29.54
-4 -4 0 437.42 31.23
-4 -4 0 437.99 30.61
-4 -4 0 393.45 25.25
4 4 1 620.27 33.2
4 4 1 636.97 33.4
-4 -4 -1 684.74 32.97
4 4 1 672.8 38.59
-4 -4 -1 699.39 40.51
-4 -4 -1 609.18 32.56
-4 -4 -1 697.72 40.07
4 4 2 3343.76 120.37
4 4 2 3295.22 120.29
4 4 2 3533.65 125.91
-4 -4 -2 3555.56 128.27
-4 -4 -2 3461.28 117.05
-4 -4 -2 3648.97 128.78
-4 -4 -2 3359.79 117.46
4 4 2 3422.23 127.53
4 4 3 205.27 20.27
4 4 3 215.03 18.78
4 4 3 231.71 19.43
-4 -4 -3 226.2 20.97
-4 -4 -3 205.82 15.93
-4 -4 -3 204.06 20.06
-4 -4 -3 162.4 7.4
-4 -4 -3 183.96 7.61
4 4 4 50.98 9.34
4 4 4 41.17 9.22
4 4 4 44.78 8.96
-4 -4 -4 34.2 8.5
-4 -4 -4 56.41 8.19
-4 -4 -4 37.46 7.13
-4 -4 -5 464.49 29.47
4 4 5 475.58 32.53
4 4 5 479.78 34.07
-4 -4 -5 480.76 27.99
-4 -4 -5 570.1 36.17
4 4 5 510.69 33.6
4 4 6 1518.22 67.97
-4 -4 -6 1372.05 62.05
-4 -4 -6 1320.98 46.03
4 4 6 1483.6 67.44
4 4 6 1646.38 70.75
-4 -4 -7 144.7 16.88
4 4 7 105.81 16.21
-4 -4 -7 166.66 11.02
4 4 7 156.79 18.9
4 4 7 158.32 18.83
4 4 8 478.95 35.81
4 4 8 432.69 34.3
-4 -4 -8 498.36 24.46
-4 -4 -8 439.67 33.16
4 4 9 431.88 34.58
4 4 9 367.27 31.13
4 4 9 445.98 34.98
-4 -4 -9 361.07 30.69
4 4 10 226.58 25.59
4 4 10 243.49 25
4 4 10 255.95 26.94
4 4 11 85.26 15.94
4 4 11 82.1 14.63
4 4 11 98.52 17
4 4 12 1299.78 74.1
4 4 12 1373.42 70.39
4 4 12 1348.6 74.97
-4 -4 -13 37.41 12.06
4 4 13 27.38 8.98
4 4 13 26.98 8.05
-4 -4 -13 35.34 10.09
-4 -4 -14 16.77 8.2
4 4 14 12.52 6.62
4 4 14 29.18 10.22
4 4 14 9.75 7.25
4 4 14 22.13 6.96
-4 -4 -14 13.86 6.78
4 4 15 13.55 8.93
-4 -4 -15 17.9 8.74
4 4 15 9.97 6.09
-4 -4 -15 12.04 7.36
4 4 15 20.37 8.96
4 4 16 421.24 41.41
-4 -4 -16 484.07 42.47
4 4 16 365.67 39.04
-4 -4 -16 420.2 42.42
4 4 17 75.59 17.34
-4 -4 -17 59.52 15.96
-4 -4 -17 68.41 17.51
4 4 17 122.28 22.19
4 5 -12 81.32 18.51
-4 -5 12 59.16 16.41
4 5 -12 61.35 16.91
4 5 -11 168.19 25.33
-4 -5 11 157.47 26.14
4 5 -11 140.36 24.05
4 5 -10 29.62 10.91
4 5 -10 29.48 11.05
-4 -5 10 30.41 12.59
-4 -5 9 827.25 59.96
4 5 -9 800.2 58.73
4 5 -9 797.41 55.55
4 5 -8 65.45 14.37
-4 -5 8 82.31 16.89
4 5 -8 80.85 14.41
-4 -5 8 99.1 15.59
4 5 -8 90.82 17.86
4 5 -7 103.07 18.37
4 5 -7 123.54 18.76
-4 -5 7 102.66 17.49
-4 -5 7 98.13 15.73
-4 -5 7 96.66 17.8
4 5 -6 22.68 9.4
-4 -5 6 19.29 7.8
4 5 -6 26.59 8.71
-4 -5 6 28.08 9.06
-4 -5 6 43.21 11.06
-4 -5 5 753.33 49.85
-4 -5 5 838.56 52.73
4 5 -5 841.45 50.26
-4 -5 5 896.75 52.59
4 5 -4 19.83 7.46
4 5 -4 26.65 7.69
-4 -5 4 30 8.65
-4 -5 4 50.09 10.91
-4 -5 4 45.24 10.36
-4 -5 3 388.38 31.45
-4 -5 3 418.23 31.64
4 5 -3 445.04 34.51
-4 -5 3 364.59 31.3
-4 -5 3 363.29 30.6
4 5 -3 372.72 32.08
-4 -5 2 86.65 13.04
4 5 -2 87.23 14.25
-4 -5 2 79.24 8.93
-4 -5 2 66.09 8.11
-4 -5 2 77.34 13.68
4 5 -2 85.73 14.2
4 5 -1 1784.69 80.02
4 5 -1 1740.41 67.49
-4 -5 1 1721.58 73.58
4 5 -1 1652.4 66.75
4 5 -1 1795.05 79.27
-4 -5 1 1684.58 79.52
-4 -5 1 1804.7 79.57
4 5 0 153.11 14.97
4 5 0 136.41 14.07
-4 -5 0 145.94 15.04
-4 -5 0 153.3 19.09
-4 -5 0 129.94 16.94
4 5 1 63.1 9.72
-4 -5 -1 58.69 8.67
4 5 1 67.44 10.03
-4 -5 -1 50.77 10.87
-4 -5 -1 41.81 9.65
-4 -5 -2 31.58 2.92
4 5 2 36.89 8.01
-4 -5 -2 39.14 6.52
4 5 2 46.19 8.86
-4 -5 -2 21.86 6.92
-4 -5 -2 35.77 6.17
-4 -5 -2 39.39 9.51
4 5 3 374.98 26.9
4 5 3 374.56 27.27
-4 -5 -3 340.01 28.28
-4 -5 -3 285.93 13.98
-4 -5 -3 306.27 19.36
-4 -5 -3 336.13 27.99
4 5 3 333.91 25.74
-4 -5 -4 214.14 21.92
-4 -5 -4 181.26 15.71
4 5 4 186.5 19.57
4 5 4 199.12 21.85
-4 -5 -4 181.78 11.62
-4 -5 -4 185.54 20.89
-4 -5 -4 204.76 15.06
4 5 4 225.14 21.3
-4 -5 -5 2176.94 91.7
-4 -5 -5 2062.13 73.73
-4 -5 -5 2218.83 83.64
4 5 5 2383.95 95.82
4 5 5 2136.35 90.8
-4 -5 -5 2043.25 76.9
-4 -5 -5 2141.46 93.55
4 5 5 2226.47 91.85
-4 -5 -6 479.59 31.52
4 5 6 576.54 39.34
-4 -5 -6 495.1 27.47
4 5 6 573.14 38.13
4 5 6 529.02 37.03
4 5 7 551.77 38.44
4 5 7 556.06 38.63
-4 -5 -7 445.82 27.14
-4 -5 -7 476.08 32.45
4 5 8 31.47 9.06
4 5 8 45.8 11.03
-4 -5 -8 19.62 6.82
4 5 9 1066.97 61.34
-4 -5 -9 1001.41 56.26
4 5 9 984.98 58.25
4 5 9 1166.57 63.58
-4 -5 -10 26.6 8.37
4 5 10 22.09 8.5
4 5 10 24.78 8.7
4 5 10 24.69 9.09
-4 -5 -11 10.62 5.29
4 5 11 7.48 4.97
4 5 11 2.92 4.12
4 5 11 8.72 5.8
-4 -5 -12 46.3 12.61
4 5 12 40.4 10.43
4 5 12 24.76 9.82
4 5 12 55.38 13.75
4 5 13 828.01 52.63
-4 -5 -13 830.67 57.08
4 5 14 213.59 24.8
-4 -5 -14 245.92 30.36
4 5 15 204.77 28.17
4 5 15 168.25 21.73
-4 -5 -15 156.4 22.79
4 5 15 205.33 28.25
4 5 16 156.47 24.81
-4 -5 -16 113.85 20.21
4 5 16 94.85 19.52
-4 -5 -17 43.49 13.39
4 6 -11 7.5 7.48
-4 -6 10 8.09 6.98
4 6 -10 3.58 5.05
-4 -6 9 91.62 19.63
-4 -6 9 123.55 18.95
4 6 -9 98.47 19.08
4 6 -8 1109.03 67.85
-4 -6 8 1007.99 61.36
-4 -6 8 1053.72 69.66
4 6 -7 42 11.99
-4 -6 7 22.93 9.27
-4 -6 7 35.75 10.29
-4 -6 7 33.58 10.47
4 6 -6 421.54 36.23
-4 -6 6 366.28 35.1
-4 -6 6 384.19 34.83
-4 -6 6 311.46 31.18
-4 -6 5 2.54 3.58
-4 -6 5 5.51 6.14
-4 -6 5 2.77 3.9
-4 -6 4 165.67 21.26
-4 -6 4 163.42 21.18
-4 -6 4 155.42 21.73
-4 -6 3 367.61 31.56
-4 -6 3 448.29 33.95
-4 -6 3 354.18 31.17
4 6 -3 332.09 32.12
-4 -6 3 343.63 32.65
-4 -6 2 441.08 32.81
-4 -6 2 425.97 33.82
-4 -6 2 390.97 32.75
-4 -6 1 361.49 30.51
-4 -6 1 340.27 29.7
-4 -6 1 362.76 32.76
-4 -6 1 322.62 26.72
4 6 0 47.86 10.48
-4 -6 0 48.28 11.4
4 6 0 48.16 9.13
-4 -6 0 60.25 10.21
-4 -6 0 44.67 10.53
-4 -6 0 44.26 10.43
4 6 0 40.45 8.31
4 6 1 10.21 5
-4 -6 -1 34.88 9.62
4 6 1 10.13 4.78
-4 -6 -1 17.73 5.62
-4 -6 -1 11.18 5.91
-4 -6 -1 17.7 6.98
4 6 1 27.07 7.16
4 6 2 1997.82 82.52
4 6 2 2015.82 84.13
-4 -6 -2 1781.54 86.92
-4 -6 -2 1809.02 85.39
4 6 2 1882.9 81.13
-4 -6 -3 29.6 8.85
-4 -6 -3 35.94 9.61
4 6 3 39.52 9.06
4 6 3 48.97 10.19
4 6 3 35.21 8.78
4 6 4 493.21 35.3
-4 -6 -4 447.42 35.56
-4 -6 -4 490.02 37.23
4 6 4 494.14 35.36
-4 -6 -5 1.25 2.16
4 6 5 4.45 3.84
-4 -6 -5 -2.29 3.95
-4 -6 -5 -2.4 3.39
4 6 5 2.23 3.14
4 6 5 2.5 3.53
4 6 6 1192.71 64.42
-4 -6 -6 1077.42 52.11
4 6 6 1064.47 60.67
-4 -6 -6 1171.58 60.95
-4 -6 -6 1118.33 62.86
4 6 6 1152.87 62.37
4 6 7 108.17 17.5
4 6 7 121.15 18.09
-4 -6 -7 115.58 16.45
-4 -6 -7 113.07 14.76
4 6 8 201.55 24.24
-4 -6 -8 219.95 22.08
4 6 8 270.02 28.21
4 6 8 231.65 26.15
4 6 9 172.47 22.64
-4 -6 -9 189.87 21.57
4 6 9 209.46 25.35
4 6 9 191.71 24.3
4 6 10 368.55 33.77
4 6 10 358.76 34.93
4 6 10 348.31 34.42
-4 -6 -10 428.52 34.5
4 6 11 119.35 20.02
4 6 11 75.97 15.12
4 6 11 135.57 21.52
-4 -6 -11 114.66 18.08
4 6 12 355.92 36.5
4 6 12 350.59 33.28
4 6 12 476.52 42.02
-4 -6 -12 383.02 35.98
4 6 13 13.78 7.7
4 6 13 29.72 9.72
4 6 13 24.23 9.77
-4 -6 -13 28.25 10.39
4 6 14 2.67 3.76
-4 -6 -14 3.37 4.75
4 6 15 11.11 8.25
4 6 15 10.52 6.43
4 6 15 18.61 9.09
-4 -6 -15 10.76 7.99
-4 -6 -16 649.86 53.83
4 6 16 603.24 52.01
4 6 16 551.9 50.05
-4 -7 9 177.34 28.65
-4 -7 9 200.71 25.59
4 7 -9 195.71 28.67
-4 -7 8 7.59 6.56
-4 -7 8 9.31 6.92
4 7 -8 26.19 11.79
-4 -7 7 95.95 19.3
-4 -7 7 101.5 18.67
4 7 -7 117.53 21.5
-4 -7 6 207.99 27.11
-4 -7 6 192.2 25.95
-4 -7 6 191.07 24.06
4 7 -6 185.99 26.05
-4 -7 5 849.83 56.32
-4 -7 5 742.48 50.34
-4 -7 5 693.71 53.52
4 7 -5 834.5 57.11
-4 -7 4 72.58 14.61
-4 -7 4 61.29 12.9
-4 -7 4 79.29 16.55
4 7 -4 91.11 17.25
4 7 -3 11.76 6.56
-4 -7 3 15.65 7.65
-4 -7 3 17.41 7.44
-4 -7 3 12.74 6.23
-4 -7 3 14.91 7.01
4 7 -3 17.27 7.6
4 7 -2 85.56 16.23
4 7 -2 93.1 16.78
-4 -7 2 81.54 14.78
-4 -7 2 87.43 15.12
-4 -7 2 87.47 14.9
-4 -7 1 683.52 45.85
-4 -7 1 631.41 41.56
4 7 -1 703.05 47.46
-4 -7 1 754.05 52.2
-4 -7 1 670.7 45.8
-4 -7 0 301.53 28.66
4 7 0 264.6 26.95
-4 -7 0 329.29 29.88
4 7 1 215.08 21.79
-4 -7 -1 154 20.4
4 7 1 156.58 19.97
-4 -7 -1 209.84 25.65
4 7 1 157.04 18.96
-4 -7 -1 172.98 21.77
4 7 2 199.12 21.73
4 7 2 215.78 22.71
-4 -7 -2 199.73 25
4 7 2 246.57 24.14
-4 -7 -2 168.01 21.73
4 7 3 1076.41 58.72
-4 -7 -3 1064.95 60.99
4 7 3 965.17 54.67
-4 -7 -3 1087.89 63.68
4 7 3 1115.28 59.69
-4 -7 -4 41.64 11.09
4 7 4 45.82 11.1
-4 -7 -4 65.75 13.99
4 7 4 52.96 11.84
-4 -7 -5 1206.9 53.08
4 7 5 1350.01 70.24
-4 -7 -5 1387.41 72.57
-4 -7 -5 1511.9 74.64
4 7 5 1257.79 68.84
-4 -7 -6 22.18 6.05
4 7 6 34.88 10.02
4 7 6 32.28 10.05
-4 -7 -6 22.2 8.76
-4 -7 -6 23.41 8.62
4 7 6 11.58 6.48
4 7 7 8.48 6.3
4 7 7 5.66 4.89
-4 -7 -7 5.77 4.98
-4 -7 -7 7.58 5.04
-4 -7 -7 16.45 5.44
-4 -7 -8 222.33 21.68
-4 -7 -8 212.9 24.02
4 7 8 199.31 25.33
4 7 8 229.09 27.18
4 7 8 172.04 24.03
-4 -7 -9 408.34 32.8
4 7 9 491.77 41.42
4 7 9 404.8 37.85
4 7 9 509.31 42.26
4 7 10 6.52 5.62
-4 -7 -10 4.79 4.77
4 7 10 3.27 5.64
4 7 10 2.96 4.17
4 7 11 64.7 15.6
-4 -7 -11 44.87 11.54
4 7 11 37.6 12.36
4 7 11 53.41 13.62
4 7 12 237.67 30.31
-4 -7 -12 204.45 25.32
4 7 12 149.64 24.73
4 7 12 203.6 25.75
4 7 13 581.7 49.85
4 7 13 493.59 41.74
4 7 13 546.89 48.37
-4 -7 -13 575.99 46.03
-4 -7 -14 96.7 18.96
4 7 14 81.85 15.86
-4 -7 -15 212.13 28.84
-4 -8 8 192.67 26.92
-4 -8 7 30.21 11.33
-4 -8 7 53.22 14.61
4 8 -7 29.66 11.13
-4 -8 6 -2.69 3.79
-4 -8 6 7.22 6.23
4 8 -6 7.11 7.09
-4 -8 5 -3.31 4.66
4 8 -5 10.2 7.57
-4 -8 5 -2.64 3.72
4 8 -5 -3.61 5.08
-4 -8 5 -3.63 3.62
4 8 -4 466.46 42.09
4 8 -4 497.97 44.22
-4 -8 4 427.13 42.6
-4 -8 4 483.93 38.45
-4 -8 4 480.27 41.27
-4 -8 3 28.08 8.87
4 8 -3 41.81 12.45
-4 -8 3 46.67 13.89
-4 -8 2 590.64 42.56
4 8 -2 543.09 44.42
-4 -8 1 253.55 27.2
4 8 -1 255.5 28.87
-4 -8 1 279.44 32.6
-4 -8 0 129.87 19.46
-4 -8 0 141.07 19.85
-4 -8 0 154.53 24.04
4 8 0 132.91 19.69
-4 -8 -1 93.89 16.42
-4 -8 -1 91.05 18.24
4 8 1 72.2 14.01
-4 -8 -1 73.96 14.56
4 8 2 626.19 44.26
-4 -8 -2 588.87 44.07
-4 -8 -2 713.07 48.49
4 8 2 634.16 43.5
-4 -8 -2 664.08 51.11
4 8 2 691.99 46.15
-4 -8 -3 -2.79 3.93
4 8 3 -2.62 4.52
4 8 3 -2.22 3.13
-4 -8 -3 -3.24 3.23
4 8 3 2.62 3.69
-4 -8 -4 17.09 7.54
4 8 4 30.31 9.53
-4 -8 -4 22.16 8.94
4 8 4 27.5 9.11
-4 -8 -5 -2.94 2.93
4 8 5 5.78 4.99
-4 -8 -5 6.18 5.33
4 8 5 11.54 7.04
4 8 6 991.38 61.97
-4 -8 -6 903.51 60.19
-4 -8 -6 910.41 59.84
4 8 6 1020.67 62.65
4 8 7 120.07 20.01
4 8 7 101.38 18.51
-4 -8 -7 91.06 17.53
-4 -8 -7 49.47 12.8
-4 -8 -7 55.29 9.75
-4 -8 -8 53.34 10.1
4 8 8 65.94 15.45
4 8 8 59.47 14.77
-4 -8 -8 16.32 8.69
-4 -8 -8 61.77 13.76
4 8 8 46.04 12.75
4 8 9 315.37 34.97
-4 -8 -9 334.34 28.39
4 8 9 357.61 37.18
4 8 9 308.38 33.9
4 8 10 185.11 26.81
4 8 10 153.52 23.36
-4 -8 -10 182.49 21.97
4 8 10 203.71 28.51
4 8 11 122.13 22.51
-4 -8 -11 156.14 20.97
4 8 11 151.12 24.71
4 8 11 142.4 22.49
4 8 12 540.45 48.41
4 8 12 469.2 42.06
-4 -8 -12 442.36 38.45
4 8 12 535.15 48.01
4 8 13 7.86 7.83
-4 -8 -13 3.02 5.22
4 8 13 -3.11 5.36
4 8 13 3.91 3.9
-4 -8 -14 142.27 22.43
4 8 14 131.61 20.59
4 9 -4 3.6 3.58
-4 -9 4 20.08 10.59
4 9 -3 139.64 22.83
-4 -9 3 124.46 23.29
4 9 -2 -3.22 6.41
-4 -9 2 -2.5 3.52
4 9 -1 299.16 31.97
-4 -9 1 292.01 35.41
-4 -9 1 322.44 30.08
4 9 0 5.65 4.88
-4 -9 0 3.89 3.88
-4 -9 0 10.18 6.21
-4 -9 -1 34.46 12.73
4 9 1 50.55 12.23
-4 -9 -1 64.83 13.5
-4 -9 -2 45.09 14.08
4 9 2 54.91 12.27
-4 -9 -2 53.17 12.23
4 9 3 496.19 41.19
-4 -9 -3 470.75 39.11
4 9 3 473.37 36.66
-4 -9 -3 500.95 46.09
4 9 3 485.29 40.84
-4 -9 -4 125.3 20.86
4 9 4 164.12 23.27
-4 -9 -4 129.55 22.5
4 9 4 172.97 23.81
-4 -9 -5 100.55 19.12
4 9 5 145.51 22.37
-4 -9 -5 129.95 22.41
4 9 5 122.64 20.89
-4 -9 -6 45.36 12.53
4 9 6 26.96 10.11
4 9 6 13.46 8.25
4 9 7 41.88 13.15
4 9 7 76.99 17.19
-4 -9 -7 63.65 15.42
-4 -9 -7 92.17 18.07
4 9 7 88.15 18.4
4 9 8 61.43 15.82
4 9 8 79.66 17.78
-4 -9 -8 86.65 18.05
-4 -9 -8 72.81 15.89
4 9 8 54.66 14.66
4 9 9 978.94 69.12
-4 -9 -9 1087.36 70.55
4 9 9 1079.13 71.75
4 9 9 1030.54 69.23
-4 -9 -10 70.53 16.58
4 9 10 27.03 10.95
4 9 10 38.5 13.34
4 9 10 57.02 15.11
-4 -9 -11 72.92 17.65
4 9 11 59.45 16.42
4 9 11 94.73 20.16
4 9 11 80.35 17.88
4 9 12 -3.41 5.88
4 10 -1 18.51 8.15
4 10 0 29.1 9.65
4 10 1 8.18 6.08
-4 -10 -2 357.32 40.41
-4 -10 -3 24.45 11.5
-4 -10 -4 103.66 20.85
4 10 5 10.57 7.85
-4 -10 -5 8.66 5.76
-4 -10 -5 7.77 7.74
4 10 5 14.06 7.84
-4 -10 -6 740.8 57.91
4 10 6 797.72 59.31
4 10 6 682.57 55.15
4 10 7 49.03 14.6
4 10 7 68.09 16.97
-4 -10 -7 39.87 13.08
4 10 7 30.09 11.31
5 -7 -3 46.12 13.75
5 -7 -2 60.95 15.19
5 -7 -1 391.62 38.07
5 -7 0 3.01 5.2
-5 6 9 85.9 16.87
-5 6 9 64.71 14.88
-5 6 8 548.15 44.55
5 -6 -8 493.77 47.23
-5 6 8 437.14 45.33
-5 6 8 468.24 41.61
-5 6 7 3.24 4.56
-5 6 7 12 7.97
-5 6 7 3.24 5.58
-5 6 6 132.51 22
-5 6 6 119.08 20.7
-5 6 6 176.89 27.14
-5 6 5 20.25 9.51
5 -6 -5 18.28 9.64
-5 6 5 6.74 5.82
-5 6 5 3.87 5.45
-5 6 4 795.82 61.3
-5 6 4 717.04 55.85
5 -6 -4 864.94 60.94
5 -6 -4 846.39 59.41
-5 6 4 801.73 58.54
-5 6 3 116.05 21.4
5 -6 -3 173.26 25.19
-5 6 3 119.21 21.62
5 -6 -3 154.11 23.73
-5 6 3 140.5 24.26
-5 6 2 7.15 6.17
5 -6 -2 3.25 4.58
-5 6 2 -3.78 5.32
-5 6 2 7.18 6.19
5 -6 -1 77.6 16.25
-5 6 1 90.9 19.39
5 -6 0 91.26 17
-5 6 0 64.82 16.71
-5 6 -1 67.98 16.91
5 -6 1 66.49 14.18
-5 6 -1 49.25 14.23
-5 6 -1 57.96 16.42
5 -6 2 649.3 44.87
-5 6 -2 530.56 49.11
-5 6 -2 578.21 50.99
5 -6 2 592.87 48.2
5 -6 2 603.45 52.76
-5 6 -3 101.95 20.4
5 -6 3 48.66 13.56
5 -6 3 71.73 17.42
-5 6 -3 82.1 18.38
-5 6 -4 91.77 19.76
5 -6 4 110.09 21.58
5 -6 4 121.15 23.01
-5 6 -4 167 26.49
-5 6 -5 4.04 4.02
-5 6 -5 8.11 6.99
5 -6 5 11.56 8.58
-5 5 11 441.26 42.51
-5 5 10 -3.25 4.57
5 -5 -10 3.89 5.48
-5 5 10 4.03 4.01
-5 5 9 123.32 19.1
-5 5 9 96.15 17.69
-5 5 9 90.76 16.22
5 -5 -9 106.77 21.34
-5 5 9 86.56 19.42
-5 5 8 19.29 8.23
-5 5 8 2.75 3.88
-5 5 8 2.75 4.75
5 -5 -8 3.72 7.41
-5 5 8 3.84 5.41
-5 5 7 758.9 58.28
-5 5 7 676.64 46.71
-5 5 7 771.81 52.04
-5 5 7 721.42 50.44
5 -5 -7 756.78 57.37
-5 5 6 413.43 41.17
-5 5 6 334.1 33.07
-5 5 6 410.7 32.38
-5 5 6 348.79 33.96
5 -5 -6 333.78 36.6
-5 5 5 97.19 17.9
-5 5 5 147.77 17.52
-5 5 5 82.18 18.44
-5 5 5 118.02 19.54
-5 5 4 255.46 29.67
-5 5 4 241.16 28.52
-5 5 4 259.8 31.97
-5 5 4 270.63 24.27
5 -5 -4 249.41 30.36
-5 5 3 49.29 13.4
-5 5 3 41.52 12.93
-5 5 3 18.43 8.15
-5 5 3 38.04 8.93
5 -5 -3 25.28 9.99
-5 5 2 15.75 7.7
-5 5 2 28.25 10.38
-5 5 2 15.39 6.09
-5 5 2 17.18 8.4
5 -5 -2 27.32 9.58
-5 5 1 754.21 54.53
-5 5 1 650.3 51.48
-5 5 1 786.81 57.16
5 -5 -1 808.43 54.05
-5 5 1 762.06 45.07
-5 5 0 31.2 11.52
-5 5 0 42.75 10.02
5 -5 0 63.85 13.88
-5 5 -1 27.07 10.12
5 -5 1 18.46 7.89
-5 5 -1 3.37 4.76
-5 5 -1 21.19 7.32
5 -5 1 27.4 9.06
-5 5 -2 3.47 5.99
-5 5 -2 -3.45 4.87
-5 5 -2 -2.23 3.14
5 -5 2 2.49 3.51
5 -5 2 2.95 5.09
-5 5 -3 679.34 55.05
-5 5 -3 773.6 58.07
5 -5 3 745.76 47.85
-5 5 -3 793.97 49.11
5 -5 3 819.02 56.17
-5 5 -4 139.8 23.48
5 -5 4 121.6 17.02
-5 5 -4 107.07 17.24
-5 5 -4 116.79 21.53
-5 5 -5 146.92 24.4
-5 5 -5 123.33 22.74
-5 5 -5 149.99 20.75
5 -5 5 171.61 25.54
-5 5 -6 195.16 28.59
5 -5 6 211.81 29.5
-5 5 -6 164.08 22.89
-5 5 -6 243.2 32.22
-5 5 -7 323.89 37.29
-5 5 -7 366.09 39.78
5 -5 7 314.37 36.66
5 -5 7 309.51 37.04
-5 5 -8 88.2 19.67
5 -5 8 83.19 18.56
5 -5 8 53.8 16.09
-5 5 -8 63.56 16.91
-5 4 12 156.5 25.06
5 -4 -12 143.92 24.95
5 -4 -12 165.96 25.88
-5 4 12 182.71 28.41
-5 4 11 -3.95 7.86
-5 4 11 -2.56 2.55
-5 4 11 3.5 6.04
5 -4 -11 -3.66 3.64
-5 4 10 143.25 23.09
-5 4 10 183.7 27.74
-5 4 9 126.1 22.48
-5 4 9 137.95 21.46
-5 4 9 116.19 17.22
-5 4 9 131.29 18.13
5 -4 -9 147.38 23.75
-5 4 8 640.21 52.3
-5 4 8 588.32 41.58
-5 4 8 555.87 43.69
-5 4 8 622.39 42.61
5 -4 -8 732.15 54.3
-5 4 7 158.62 20.08
-5 4 7 106.42 17.13
-5 4 7 113.82 17.27
-5 4 7 166.56 25.2
5 -4 -7 119.46 20.71
-5 4 6 106.9 17.1
-5 4 6 134.78 18.06
-5 4 6 104.57 16.6
-5 4 6 113.91 20.03
5 -4 -6 125.32 20.77
-5 4 5 29.19 10.25
-5 4 5 50.08 11.73
-5 4 5 19.93 7.9
-5 4 5 25.26 7.29
-5 4 5 34.8 8.93
5 -4 -5 37.31 11.2
-5 4 4 424.74 35.79
-5 4 4 436.15 36.06
-5 4 4 414.71 29.29
5 -4 -4 450.14 39.22
-5 4 4 420.63 38.91
-5 4 4 358.01 30.05
-5 4 3 52.66 12.43
-5 4 3 73.73 10.52
-5 4 3 78.72 15.11
-5 4 3 68.11 15.52
-5 4 3 41.91 9.89
-5 4 2 3.06 6.1
-5 4 2 8.09 5.37
-5 4 2 13.45 6.56
-5 4 2 4.36 2.43
-5 4 2 4.01 3.46
5 -4 -2 13.97 7.36
5 -4 -1 226 25.77
-5 4 1 237.81 28.04
-5 4 1 189.1 24.01
-5 4 1 213.22 25.6
-5 4 1 214.47 22.14
5 -4 0 1500.99 76.49
-5 4 0 1550.61 81.84
-5 4 0 1407.69 69.69
5 -4 0 1496.64 72.32
-5 4 -1 12.92 6.09
5 -4 1 19.34 8
5 -4 1 19.81 7.41
-5 4 -2 434.55 39.2
-5 4 -2 506.54 42.29
5 -4 2 499.94 37.18
5 -4 2 439.69 36.91
-5 4 -2 430.02 34.51
-5 4 -3 63.96 15.12
-5 4 -3 92.26 15.44
-5 4 -3 82.35 16.55
5 -4 3 65.46 14.36
5 -4 3 98 15.54
-5 4 -4 76.2 16.43
-5 4 -4 114.78 19.81
-5 4 -4 114.68 17.62
5 -4 4 100.28 15.43
5 -4 4 100.85 17.99
-5 4 -5 480.28 43.64
5 -4 5 518.16 35.19
5 -4 5 512.85 43.77
-5 4 -5 468.62 43.12
-5 4 -6 610.06 50.21
-5 4 -6 544.3 47.5
5 -4 6 597.16 36.68
5 -4 6 556.22 47.72
-5 4 -7 54.32 14.99
5 -4 7 77.31 17.69
-5 4 -7 69.49 16.8
-5 4 -8 3.73 6.44
5 -4 8 7.76 6.69
-5 4 -8 3.77 3.76
-5 4 -9 106.96 21.41
-5 4 -9 119.73 22.65
5 -4 9 97.51 20.87
5 -4 10 429.26 41.02
-5 4 -10 479.86 45.79
5 -4 10 439.69 45.77
-5 4 -10 404.89 42.8
5 -4 11 39.89 11.99
-5 3 13 98.88 20.75
5 -3 -13 136.31 24.09
-5 3 13 133.81 24.47
-5 3 13 108.98 20.3
-5 3 12 -3.09 3.07
5 -3 -12 6.76 6.73
-5 3 12 -3.73 3.72
5 -3 -12 3.69 5.2
-5 3 12 -3.91 3.89
-5 3 11 286 34.83
-5 3 11 286.12 33.73
-5 3 11 285.44 30.26
5 -3 -11 333.58 35.28
-5 3 10 39.73 13
5 -3 -10 39.29 12.24
-5 3 10 22.63 9.7
-5 3 10 31.38 9.43
-5 3 9 6.94 5.99
-5 3 9 5.27 3.5
5 -3 -9 3.2 3.18
-5 3 9 -1.75 3.02
-5 3 9 8.91 5.91
-5 3 9 7.11 5.79
-5 3 8 25.82 7.13
5 -3 -8 24.85 9.29
-5 3 8 14.74 5.52
-5 3 8 5.41 4.69
-5 3 8 29.78 10.94
-5 3 7 751.85 52.84
-5 3 7 596.62 39
5 -3 -7 579 46.08
-5 3 7 646.9 44.33
5 -3 -7 620.98 44.72
-5 3 7 664.68 40.56
-5 3 6 110.96 15.63
5 -3 -6 146.24 21.26
-5 3 6 99.1 14.74
-5 3 6 103.44 18.47
5 -3 -6 139.52 18.83
5 -3 -6 120.79 19.05
-5 3 6 93.66 15.07
-5 3 5 648.15 42.02
-5 3 5 664.69 42.71
-5 3 5 694.42 42.07
5 -3 -5 693.37 44.21
5 -3 -5 689.2 47.33
-5 3 5 635.87 48.04
5 -3 -5 794.62 52.13
-5 3 5 694.43 43.73
-5 3 4 133.65 17.5
-5 3 4 101.91 15.52
5 -3 -4 115.25 18.68
-5 3 4 143.61 20.92
-5 3 4 116.38 16.44
-5 3 4 121.08 15.11
5 -3 -4 125.53 18.02
5 -3 -4 130.7 16.63
-5 3 3 452.66 28.53
5 -3 -3 441.01 30.6
5 -3 -3 507.01 36.31
-5 3 3 424.18 33.3
-5 3 3 434.2 33.74
5 -3 -3 407.5 35.83
-5 3 3 402.06 35.96
-5 3 3 447.29 33.28
-5 3 2 26.07 7.76
-5 3 2 15.94 6.83
-5 3 2 22.49 5.41
5 -3 -2 24.02 6.37
5 -3 -2 14.22 6.43
5 -3 -2 23.12 7.66
-5 3 2 22.65 7.51
-5 3 2 24.15 8.48
-5 3 1 533.71 41.26
-5 3 1 610.21 41.49
-5 3 1 607.97 41.5
5 -3 -1 596.58 32.13
5 -3 -1 588.54 36.84
-5 3 1 617.02 39.32
5 -3 -1 638.74 42.78
5 -3 0 56.94 12.16
5 -3 0 89.61 15.37
5 -3 0 63.1 8.76
-5 3 0 49.74 5.02
5 -3 0 63.93 10.83
-5 3 0 61.29 12.8
-5 3 0 55.27 11.1
5 -3 0 49.29 10.13
-5 3 0 96.11 16.47
-5 3 0 49.49 11.68
5 -3 1 128.67 18.77
-5 3 -1 114.07 16.21
5 -3 1 132.57 18.07
5 -3 1 86.25 14.27
5 -3 2 151.41 20.61
5 -3 2 109.33 9.08
-5 3 -2 125.39 18.91
-5 3 -2 140.15 20.02
5 -3 2 122.36 17.39
5 -3 2 96.58 15.22
-5 3 -2 125.24 17.29
5 -3 3 1373.72 66.34
-5 3 -3 1205.46 67.72
-5 3 -3 1260.4 70.97
-5 3 -3 1229.46 70.6
-5 3 -3 1339.35 67.46
5 -3 3 1354.16 72.21
5 -3 3 1256.84 68.08
5 -3 4 -2.72 3.84
-5 3 -4 -2.95 4.15
5 -3 4 -2.82 2.81
-5 3 -4 2.91 4.1
-5 3 -4 2.7 4.65
5 -3 4 -2.01 3.46
5 -3 5 44 12.07
-5 3 -5 30.79 10.65
5 -3 5 23.24 8.72
-5 3 -5 39.59 11.38
5 -3 5 20.84 6.85
-5 3 -5 25.26 8.88
5 -3 6 105.91 14.55
-5 3 -6 135.11 21.51
5 -3 6 116.34 19.83
-5 3 -6 114.55 19.81
-5 3 -6 103.01 17.89
-5 3 -7 389.93 37.15
-5 3 -7 462.44 41.71
-5 3 -7 413.85 39.5
5 -3 7 380.89 36.51
5 -3 7 392.82 38.73
5 -3 7 382.97 27.8
-5 3 -8 220.45 28.47
-5 3 -8 170.82 25.47
5 -3 8 232.73 27.74
-5 3 -8 205.25 26.8
5 -3 8 174.82 26.27
-5 3 -9 97.41 14.92
-5 3 -9 110.71 20.96
5 -3 9 139.63 23.67
-5 3 -9 90.36 18.95
-5 3 -9 99.57 19.28
-5 3 -10 151.11 24.69
-5 3 -10 124.31 17.78
5 -3 10 158.44 25.89
-5 3 -10 138.01 23.84
-5 3 -10 140.89 23.39
-5 3 -11 272.34 33.76
-5 3 -11 261.65 33.21
-5 3 -11 275.65 27.88
5 -3 11 248.14 33.62
-5 3 -11 279.43 34.36
-5 3 -12 7.91 7.88
5 -3 12 8.56 7.39
-5 3 -12 3.9 5.49
5 -3 12 3.2 4.5
-5 3 -12 15.42 9.41
5 -3 12 5.9 5.09
5 -3 13 609.64 48.8
-5 2 14 329.19 37.01
-5 2 13 39.4 13.06
5 -2 -13 32.11 11.83
-5 2 13 47.3 14.19
-5 2 13 28.29 10.62
-5 2 12 19.84 8.72
-5 2 12 3.75 5.29
5 -2 -12 6.89 5.94
5 -2 -12 3.04 5.25
-5 2 12 3.72 3.7
5 -2 -11 117.4 19.43
-5 2 11 100.7 19.79
-5 2 11 85.77 16.97
-5 2 11 110.57 20.62
5 -2 -10 132.89 20.74
-5 2 10 125.13 21.06
-5 2 10 139.04 22.48
-5 2 10 129.61 20.21
-5 2 9 141.58 19.81
-5 2 9 108.85 19.06
5 -2 -9 123.32 20.96
5 -2 -9 118.42 19.16
5 -2 -9 91.1 17.43
-5 2 9 109.33 19.24
-5 2 8 1069.58 50.77
-5 2 8 1155.78 51.96
-5 2 8 1069.9 60.53
-5 2 8 1102.67 64.02
5 -2 -8 1137.01 66.27
5 -2 -8 1196.95 69.82
-5 2 8 1158.87 68.56
5 -2 -8 1248 68.25
-5 2 7 31.97 7.29
5 -2 -7 27.32 9.07
-5 2 7 34.9 7.58
-5 2 7 28.96 9.03
5 -2 -7 25.7 8.53
5 -2 -7 25.79 9.07
-5 2 7 28.86 9.99
-5 2 6 178.88 23.05
-5 2 6 162.94 16.75
-5 2 6 141.46 15.67
5 -2 -6 124.89 19.07
5 -2 -6 178.85 21.57
-5 2 6 157.34 19.25
-5 2 5 75.8 14.66
-5 2 5 61.93 12.04
-5 2 5 77.98 11.76
5 -2 -5 69.38 13.72
-5 2 5 76.12 11.61
-5 2 5 72.36 12.04
5 -2 -5 92.07 14.47
5 -2 -4 1354.28 64.57
-5 2 4 1416.98 63.51
5 -2 -4 1453.37 71
5 -2 -4 1357.84 65.75
-5 2 4 1336.65 62.91
-5 2 4 1393.69 63.88
-5 2 4 1375.64 67.33
-5 2 4 1373.41 71.5
5 -2 -4 1394.56 71.88
-5 2 3 4.79 4.78
-5 2 3 10.01 5.28
-5 2 3 8.93 4.36
-5 2 3 3.56 3.07
-5 2 3 2.81 2.43
5 -2 -3 10.64 4.67
5 -2 -3 2.13 3.01
5 -2 -3 9.59 5.85
5 -2 -3 1.9 2.68
-5 2 2 335.67 27.62
-5 2 2 327.49 27.58
5 -2 -2 324.52 29.39
-5 2 2 377.16 31.45
-5 2 2 328.16 21.95
5 -2 -2 341.19 27.98
5 -2 -2 323.09 25.04
5 -2 -2 340.9 28.25
-5 2 2 344.23 27.87
-5 2 1 268.65 24.86
-5 2 1 281.38 25.55
-5 2 1 290.35 25.69
5 -2 -1 338.17 29.28
-5 2 1 295.56 27.72
5 -2 -1 293.76 25.03
5 -2 -1 285.05 22.21
5 -2 -1 324.8 27.87
5 -2 -1 322.64 23.3
-5 2 0 790.65 47.39
-5 2 0 853.63 48.99
-5 2 0 784.09 46.23
-5 2 0 745.46 48.17
5 -2 0 805.27 43.69
5 -2 0 866 44.6
5 -2 0 831.08 49.02
5 -2 1 196.51 18.35
5 -2 1 227.76 24.06
5 -2 1 246 22.56
-5 2 -1 266.67 24.48
5 -2 2 25.6 6.07
5 -2 2 44.42 10.72
5 -2 2 42.81 10
-5 2 -2 61.07 11.91
-5 2 -3 35.09 9.32
5 -2 3 33.88 6.43
-5 2 -3 36.5 9.38
5 -2 3 26.95 8.13
5 -2 3 55.7 12.1
5 -2 4 303.06 29.15
-5 2 -4 359.09 29.94
5 -2 5 62.18 6.56
-5 2 -5 66.24 13.05
5 -2 5 87.78 16.01
5 -2 5 62 13.26
-5 2 -6 1488.93 75.68
5 -2 6 1521.25 80.01
5 -2 7 65.6 14.06
5 -2 7 98.55 17.76
-5 2 -7 85.62 15.47
-5 2 -7 70.47 10.78
5 -2 8 204.35 24.92
5 -2 8 256.98 30.34
-5 2 -8 194.17 24.74
-5 2 -8 205.71 19.82
-5 2 -9 20.73 6.77
5 -2 9 3.5 4.93
5 -2 9 14.27 7.52
5 -2 9 6.91 3.38
-5 2 -9 12.18 7.43
5 -2 10 422 37.85
5 -2 10 484.69 44.85
-5 2 -10 469.83 41.56
-5 2 -10 413.05 32.54
5 -2 11 -2.9 5.01
-5 2 -11 4.62 3.98
-5 2 -11 3.44 3.43
5 -2 11 7.78 7.75
-5 2 -12 5.01 4.99
-5 2 -12 7.27 6.27
5 -2 12 4.06 5.71
5 -2 13 36.81 11.69
-5 2 -13 53.47 15.26
-5 2 -13 37.7 10.79
5 -2 14 411.41 37.18
5 -1 -14 13.63 8.33
-5 1 14 23.55 10.36
5 -1 -13 53.03 14.08
-5 1 13 48.27 14.4
5 -1 -12 60.44 14.66
5 -1 -12 73.94 17.39
-5 1 12 76.45 17.42
-5 1 11 537.08 46.06
5 -1 -11 534.05 47
5 -1 -11 456.89 42.95
5 -1 -11 488.1 42.08
5 -1 -11 549.89 41.65
-5 1 11 548.76 45.26
5 -1 -10 10.57 6.45
-5 1 10 17.86 8.39
-5 1 10 19.14 8.41
5 -1 -10 32.91 11.36
5 -1 -10 3.23 4.56
5 -1 -9 155.69 20.83
-5 1 9 163.64 22.8
5 -1 -9 202.12 26.11
5 -1 -9 143.76 21.76
-5 1 9 122.86 19.36
-5 1 8 42.54 11.31
5 -1 -8 32.2 10.59
5 -1 -8 53.37 12.21
-5 1 8 52.38 11.72
-5 1 7 1548.39 60.18
-5 1 7 1566.65 60.24
-5 1 7 1533.78 75.11
5 -1 -7 1568.49 77.39
-5 1 7 1522.75 76.33
5 -1 -7 1598.69 81.12
-5 1 6 272.83 19.09
-5 1 6 266.82 25.69
5 -1 -6 217.85 25.14
-5 1 6 267.85 18.96
5 -1 -6 268.83 26.64
5 -1 -5 341.81 30.14
5 -1 -5 354.5 24.76
-5 1 5 299.78 26.03
5 -1 -5 320.21 29.49
5 -1 -5 363.09 29.91
-5 1 5 307.95 21.67
-5 1 5 295.66 21.29
-5 1 4 97.65 12.03
-5 1 4 99.9 12.06
5 -1 -4 107.99 16.31
-5 1 4 116.87 14.56
5 -1 -4 119.61 16.08
-5 1 4 110.11 11.02
5 -1 -4 119.66 14.2
-5 1 3 610.47 35.28
5 -1 -3 692.11 43.57
-5 1 3 578.01 34.62
-5 1 3 607.64 35.07
-5 1 3 650.31 36.78
5 -1 -3 657.96 38.28
5 -1 -3 705.88 43.77
5 -1 -2 181.23 18.67
5 -1 -2 151.9 19.03
-5 1 2 185.36 16.05
5 -1 -2 193.45 20.21
-5 1 2 188.29 17.99
-5 1 2 157.58 16.57
5 -1 -2 164.3 13.95
-5 1 2 189.41 17.07
5 -1 -1 720.18 41.47
5 -1 -1 586.3 40.41
5 -1 -1 656.1 39.32
-5 1 1 690.47 39.02
5 -1 -1 665.13 34.66
-5 1 1 639.15 34.16
-5 1 1 642.32 38.17
-5 1 0 394.85 29.19
5 -1 0 425.56 27.59
-5 1 0 451.29 25.29
5 -1 0 339.03 28.33
-5 1 0 397.96 29.33
-5 1 -1 6.58 2.6
5 -1 1 4.89 3.25
-5 1 -1 8.85 3.26
5 -1 1 9.93 4.85
-5 1 -2 63.88 11.7
-5 1 -2 54.2 9.94
-5 1 -2 57.85 7.64
5 -1 2 51.66 10.8
5 -1 2 52.81 10.22
-5 1 -2 44.76 6.8
-5 1 -3 2608.32 105.97
-5 1 -3 2427.38 99.86
5 -1 3 2654.36 105.42
5 -1 3 2661.68 107.03
-5 1 -4 120.6 15.48
5 -1 4 110.48 16.21
5 -1 4 109.14 16.19
-5 1 -5 591.04 39.37
5 -1 5 738.78 45.94
5 -1 5 648.14 44.49
-5 1 -6 86.79 14.03
5 -1 6 78.86 14.87
5 -1 6 80.99 15.14
-5 1 -7 743.29 38.4
-5 1 -7 818.08 30.07
-5 1 -7 818.42 49.64
5 -1 7 798.43 53.77
5 -1 8 40.81 10.55
5 -1 8 36.42 11.38
-5 1 -8 40.26 8.07
-5 1 -8 54.29 12.1
5 -1 9 148.99 20.43
5 -1 9 149.42 22.81
-5 1 -9 141.07 20.11
-5 1 -9 140.59 16.27
5 -1 10 220.76 25.86
5 -1 10 256.12 31.09
-5 1 -10 229.58 27.16
-5 1 -10 272.05 23.98
5 -1 11 147.4 20.98
5 -1 11 165.01 26.2
-5 1 -11 157.45 23.44
-5 1 -11 146.82 18.51
-5 1 -12 57.99 12.56
5 -1 12 46.24 14.46
5 -1 12 75.02 14.72
5 -1 12 63 13.06
-5 1 -12 56.12 14.44
5 -1 13 298.67 29.94
5 -1 13 270.08 27.5
-5 1 -13 284.66 33.63
-5 1 -13 258.27 27.31
5 -1 14 -4.14 4.12
-5 1 -14 2.73 4.71
-5 1 -14 3.71 6.4
-5 0 14 298.52 37.27
-5 0 13 31.51 11.84
5 0 -13 80.83 18.03
5 0 -12 76.5 17.5
5 0 -12 69.66 14.86
-5 0 12 51.86 14.88
5 0 -12 65.8 15.92
-5 0 11 39.31 11.82
5 0 -11 36.06 10.77
5 0 -11 40.99 12.32
5 0 -11 49.86 13.7
-5 0 10 488.81 42.35
5 0 -10 453.09 41.61
5 0 -10 518.71 43.4
-5 0 10 449.69 40.33
5 0 -10 546.26 38.79
5 0 -9 2.14 3.01
5 0 -9 -2.33 3.28
-5 0 9 -2.81 3.96
5 0 -9 -2.99 4.21
5 0 -9 2.97 5.12
-5 0 9 2.87 2.86
-5 0 8 736.95 50.38
5 0 -8 852.86 50.08
5 0 -8 887.52 56.15
5 0 -8 749.55 51.53
-5 0 8 873.32 54.03
5 0 -8 756.76 48.16
5 0 -8 779.63 45.72
-5 0 7 31.44 9.72
5 0 -7 56.55 10.34
-5 0 7 69.87 13.42
-5 0 7 41.04 3.69
-5 0 7 39.19 3.57
5 0 -7 53.6 11.41
5 0 -7 66.8 13.36
-5 0 7 48.61 11.17
5 0 -7 60.94 13.26
5 0 -7 44.48 8.93
5 0 -7 57.16 11.66
5 0 -6 321.63 24.83
5 0 -6 326.49 25.03
-5 0 6 323.32 16.79
-5 0 6 331.48 16.96
-5 0 6 332.25 29.26
5 0 -6 348.1 31.54
5 0 -6 311.65 29.27
5 0 -6 371.17 30.34
-5 0 6 321.05 28.78
5 0 -6 345.78 29.45
5 0 -5 393.11 25.49
5 0 -5 405.42 32.52
-5 0 5 408.74 31.1
5 0 -5 396.46 32.95
-5 0 5 411.02 20.94
-5 0 5 385.18 31.02
5 0 -5 392.62 31.46
-5 0 5 349.26 29.26
5 0 -5 389.15 26.79
-5 0 5 417.41 21.53
-5 0 5 390.93 20.58
-5 0 5 399.42 21.19
-5 0 5 454.63 33.91
-5 0 4 863.34 47.46
5 0 -4 864.5 42.76
-5 0 4 855.26 49.41
-5 0 4 845.38 36.9
-5 0 4 877.81 37.29
-5 0 4 927.02 47.85
5 0 -4 889.1 51.11
-5 0 4 911.87 49.65
5 0 -4 863.83 43.12
5 0 -4 803.69 48.53
-5 0 3 63.36 10.78
-5 0 3 84.24 10.07
5 0 -3 100.26 10.96
-5 0 3 94.2 13.6
-5 0 3 100.48 10.14
-5 0 3 84.82 9.37
-5 0 3 74.5 11.18
5 0 -3 79.71 13.41
5 0 -3 70.62 10.64
-5 0 3 74.22 12.69
-5 0 2 25.94 6.48
-5 0 2 37.76 8.84
5 0 -2 24.85 5.84
-5 0 2 25.35 5.8
-5 0 2 14.32 4.33
-5 0 2 34.43 7.13
5 0 -2 29.96 8.46
5 0 -2 14.06 5.2
-5 0 2 11.93 5.13
-5 0 1 30.86 7.47
5 0 -1 21.42 7.05
5 0 -1 39.5 8.41
-5 0 1 36.85 8.66
-5 0 1 44.91 8.2
5 0 -1 24.87 6.22
-5 0 0 2325.39 91.35
-5 0 0 2396.03 95.27
-5 0 0 2246.92 86.83
5 0 0 2346.3 93.27
5 0 0 2354.01 95.33
5 0 0 2279.52 89.99
-5 0 -1 389.87 29.3
-5 0 -1 381.67 24.73
5 0 1 377.13 28.82
5 0 1 369.37 28.82
5 0 1 356.86 26.8
5 0 2 718.8 41.92
-5 0 -2 711.85 41.86
-5 0 -2 660.02 34.35
-5 0 -2 681.03 34.94
-5 0 -2 643.48 34.61
5 0 2 632.77 39.24
-5 0 -3 450.23 26.58
5 0 3 403.67 31.17
5 0 3 412.41 29.99
-5 0 -3 496.64 26.61
-5 0 -3 446.67 32.36
-5 0 -3 423.05 27.39
5 0 3 374.55 29.8
5 0 4 1396.35 66.82
5 0 4 1276.78 61.2
-5 0 -4 1313.32 54.2
-5 0 -4 1398.91 60.22
5 0 4 1365.4 65.96
-5 0 -5 179.26 11.39
5 0 5 145.98 18.65
5 0 5 139.23 15.97
-5 0 -5 184.99 14.8
-5 0 -5 163.53 17.06
5 0 5 157.42 19.34
5 0 6 883.57 52.07
-5 0 -6 947.5 49.27
5 0 6 956.39 54.28
-5 0 -6 900.51 40.35
-5 0 -7 156.73 13.81
-5 0 -7 191.74 20.03
5 0 7 176.8 21.54
-5 0 -7 145.16 13.32
-5 0 -8 5.23 2.95
-5 0 -8 12.67 5.95
5 0 8 12.79 6.74
5 0 8 4.68 4.04
5 0 9 28.87 8.67
-5 0 -9 30.07 9.24
-5 0 -9 21.85 5.16
5 0 10 1035.25 59.4
-5 0 -10 1004.53 59.25
5 0 10 1009.14 65.46
-5 0 -10 1056.56 46.4
5 0 11 17.52 7.48
-5 0 -11 2.75 3.88
5 0 11 3.44 4.85
-5 0 -11 4.82 3.4
5 0 12 28.11 7.71
-5 0 -12 8.96 6.67
5 0 12 20.19 7.56
5 0 13 59.42 11.38
-5 0 -13 41.8 12.89
5 0 13 39.95 10.93
5 0 14 294.73 35.87
5 0 14 320.23 29.58
-5 0 -14 268.1 32.55
5 0 15 73.74 17.87
-5 0 -15 50.91 15.47
-5 -1 14 54.2 16.16
-5 -1 13 114.96 21.9
5 1 -13 117.05 22.2
-5 -1 13 107.69 21.67
5 1 -13 136.63 22.58
5 1 -12 10.75 7.98
-5 -1 12 3.76 3.75
5 1 -12 13.29 7.4
-5 -1 12 11.2 7.44
5 1 -11 674.85 51.52
5 1 -11 588.09 47.58
-5 -1 11 562.58 48.75
-5 -1 11 670.28 52.29
5 1 -10 3.16 4.45
-5 -1 10 3.26 4.59
5 1 -10 3.05 4.3
5 1 -10 2.35 3.31
-5 -1 10 3.24 4.57
5 1 -9 83.51 15.03
-5 -1 9 101.94 18.29
-5 -1 9 72.53 14.57
-5 -1 9 72.08 15.4
5 1 -9 56.42 13.4
5 1 -9 55.09 13.71
5 1 -9 70.07 12.67
5 1 -9 87.16 13.89
5 1 -9 77.55 13.57
5 1 -8 -2.26 3.18
-5 -1 8 -2.76 3.89
5 1 -8 2.05 3.53
5 1 -8 -2.78 3.91
5 1 -8 10.98 6.12
-5 -1 8 2.45 4.23
5 1 -8 -2.02 4.02
5 1 -8 -2.16 3.04
5 1 -7 397.39 32.41
5 1 -7 422.86 35.83
5 1 -7 419.04 35.74
-5 -1 7 453.32 34.66
5 1 -7 449.58 33.01
5 1 -7 407.93 31.21
5 1 -7 515.62 35.43
5 1 -6 58.95 10.98
5 1 -6 53.08 11.08
5 1 -6 48.98 11.27
-5 -1 6 52.98 10.84
-5 -1 6 46.73 11.01
5 1 -6 42.35 9.28
5 1 -5 494.35 32.24
-5 -1 5 415.49 31
5 1 -5 438.3 26.13
5 1 -5 414.85 32.28
-5 -1 5 361.13 30.38
-5 -1 5 467.6 34.5
5 1 -5 436.8 30.77
-5 -1 4 63.24 11.98
-5 -1 4 59.76 10.5
5 1 -4 87.37 12.55
5 1 -4 66.16 10.81
5 1 -4 62.08 8.16
-5 -1 4 72.85 6.51
-5 -1 4 54.63 5.64
5 1 -4 71.58 12.52
5 1 -4 62.01 9.36
-5 -1 4 66.88 11.4
-5 -1 4 60.15 5.86
-5 -1 4 51.75 5.62
-5 -1 4 59.16 11.42
-5 -1 3 1886.61 81
5 1 -3 1749.3 79.88
5 1 -3 1798.49 73.21
-5 -1 3 1950.84 78.02
-5 -1 3 1795.42 75.26
5 1 -3 1856.12 77.39
5 1 -3 1886.35 70.51
5 1 -3 1813.93 74.79
-5 -1 3 1765.87 64.48
-5 -1 3 1791.75 63.58
-5 -1 3 1756.19 64.17
-5 -1 3 1817.56 63.73
-5 -1 3 1871.8 79.35
5 1 -2 398.98 25.35
-5 -1 2 349.05 27.32
-5 -1 2 414.9 21.95
-5 -1 2 371.55 26.11
-5 -1 2 396.76 21.68
5 1 -2 435.71 31.68
5 1 -2 409.45 27.55
-5 -1 2 442.26 31.13
5 1 -1 800.52 41.15
-5 -1 1 878.08 46.67
-5 -1 1 850.88 37.31
-5 -1 1 862.54 37.52
5 1 -1 821.36 47
5 1 -1 812.05 43.52
-5 -1 1 830.63 41.54
-5 -1 1 787.66 43.42
-5 -1 0 63.19 11.03
-5 -1 0 62.18 10.14
-5 -1 0 46.87 8.79
5 1 0 46.01 9.1
5 1 0 67.99 11.68
-5 -1 0 47.99 8.3
5 1 0 54.49 9.29
-5 -1 -1 382.86 28.85
-5 -1 -1 345.73 24.85
5 1 1 396.06 27.58
5 1 1 368.22 28.36
5 1 1 369.82 27.97
-5 -1 -1 327.62 22.99
-5 -1 -1 383.09 26.23
5 1 2 7.17 4.38
5 1 2 10.24 4.5
-5 -1 -2 8.23 3.62
-5 -1 -2 3.57 3.56
-5 -1 -2 5.76 3.21
5 1 3 2065.55 89.39
5 1 3 2245.48 90.57
-5 -1 -3 2258.87 91.22
-5 -1 -3 2155.58 83.38
5 1 4 477.82 32.11
5 1 4 566.23 36.57
5 1 4 576.59 37.01
-5 -1 -4 490.11 29.69
5 1 5 126.97 14.89
5 1 5 142.9 17.73
5 1 5 138.66 17.97
-5 -1 -5 150.53 14.51
-5 -1 -5 148.79 14.83
5 1 6 103.12 12.9
5 1 6 93.79 14.7
5 1 6 107.48 16.04
-5 -1 -6 94.94 11.84
-5 -1 -6 122.99 13.84
-5 -1 -7 1150.89 52.66
5 1 7 1180.75 53.31
5 1 7 1288.88 64.92
-5 -1 -7 1091.86 54.5
-5 -1 -8 542.46 31.58
5 1 8 474.07 28.71
5 1 8 524.55 37.48
5 1 8 515.18 38.78
-5 -1 -8 439.2 32.22
-5 -1 -9 46.38 10.19
-5 -1 -9 64.34 10.36
5 1 9 73.16 13.39
-5 -1 -10 474.69 30.19
5 1 10 356.74 33.56
5 1 10 390.26 32.84
-5 -1 -10 390.19 32.32
5 1 11 492.01 39.99
5 1 11 458.64 36.17
5 1 11 482.12 29.22
-5 -1 -11 440.18 36.2
-5 -1 -12 75.93 15.91
5 1 12 81.49 11.06
5 1 12 71.87 13.68
5 1 13 467.47 44.94
5 1 13 569.89 40.79
-5 -1 -13 616.92 46.39
5 1 14 58.66 12.26
-5 -1 -14 60.51 14.98
5 1 14 57.27 15.31
-5 -1 -15 51.17 14.06
5 1 15 35.51 12.49
-5 -1 -16 10.81 7.18
5 1 16 -4.03 5.68
-5 -2 13 97.19 20.75
-5 -2 13 84.8 19.48
5 2 -13 103.35 20.65
-5 -2 12 138.03 23.88
5 2 -12 109.14 20.83
-5 -2 12 195.5 28.6
5 2 -12 133.26 21.34
-5 -2 11 270.06 32.74
5 2 -11 263.53 31
5 2 -11 218.62 27.59
-5 -2 11 284.72 33.35
5 2 -10 393.74 36.5
-5 -2 10 404.26 39.38
5 2 -10 455.03 39.85
-5 -2 10 373.33 37.57
5 2 -10 363.83 35.39
5 2 -10 386.17 34.45
5 2 -9 13.84 7.3
5 2 -9 14.87 7.26
-5 -2 9 3.12 6.23
5 2 -9 14.17 6.92
5 2 -9 22.47 8.25
5 2 -8 273.9 27.84
5 2 -8 230.35 26.09
-5 -2 8 210.4 25.79
5 2 -8 212.18 25.8
5 2 -8 200.95 23.25
5 2 -8 297.54 26.59
5 2 -7 12.74 5.74
5 2 -7 2.37 3.34
-5 -2 7 21.36 7.98
5 2 -7 6.71 4.46
-5 -2 7 10.6 6.47
-5 -2 7 6.34 4.21
5 2 -7 24.01 7.53
5 2 -6 131.47 17.41
-5 -2 6 103.72 17.26
5 2 -6 101.23 12.52
5 2 -6 73.93 12.92
-5 -2 6 140.69 19.07
5 2 -6 81.61 13.81
-5 -2 6 75.62 12.65
-5 -2 5 402.68 32.83
5 2 -5 318.36 28.46
5 2 -5 338.32 23.21
5 2 -5 387.75 24.27
5 2 -5 408.12 31.05
5 2 -5 363.4 29.28
-5 -2 5 406.92 28.66
5 2 -4 2821.69 110.48
5 2 -4 2756.72 98.63
5 2 -4 2764.2 109.47
-5 -2 4 2764.41 112.44
5 2 -4 2748.55 102.09
5 2 -4 2884.34 97.55
-5 -2 4 2681.58 103.65
-5 -2 4 2860.86 112.1
5 2 -3 24.75 7.31
5 2 -3 34.06 6.69
-5 -2 3 28.68 3.77
-5 -2 3 29.47 3.74
-5 -2 3 27.45 3.73
-5 -2 3 28.01 3.67
-5 -2 3 25.3 6.13
5 2 -3 22.49 4.45
-5 -2 3 34.65 8.61
-5 -2 3 25.88 7.72
5 2 -2 950.53 49.37
-5 -2 2 861.23 35.54
-5 -2 2 890.25 35.82
5 2 -2 862.84 43.18
5 2 -2 942.98 48.02
-5 -2 2 921.19 42.49
-5 -2 2 970.2 50
-5 -2 2 910.07 49.45
-5 -2 1 389.47 21
-5 -2 1 366.38 20.57
5 2 -1 404.99 26.56
-5 -2 1 345.98 27.63
-5 -2 1 330.81 26.74
5 2 -1 382.32 28.56
-5 -2 1 350.81 27.65
-5 -2 0 727.12 33.9
-5 -2 0 706.56 41.01
5 2 0 717.3 39.35
-5 -2 0 742.42 42
-5 -2 0 736.33 34.03
-5 -2 -1 1.68 2.36
5 2 1 1.61 2.27
-5 -2 -1 1.67 2.88
5 2 2 100.53 13.75
-5 -2 -2 124.52 15.06
5 2 3 16.21 5.96
-5 -2 -3 9.65 2.49
-5 -2 -3 10.89 4.66
-5 -2 -3 17.18 5.68
5 2 3 10.74 3.52
5 2 4 1359.12 64.04
-5 -2 -4 1370.54 62.61
-5 -2 -4 1290.01 59.19
5 2 4 1323.45 61.09
-5 -2 -4 1258.92 49.26
5 2 4 1320.19 61.28
5 2 5 527.21 34.46
-5 -2 -5 451.26 30.25
5 2 5 475.65 33.01
5 2 5 440.13 33.15
5 2 6 967.85 53.34
5 2 6 927.92 51.73
-5 -2 -6 953.28 47.92
5 2 6 1007.18 52.99
5 2 6 910.57 46.03
5 2 6 927.35 51.78
-5 -2 -6 854.73 41.63
5 2 7 149.25 18.93
5 2 7 146.67 18.73
-5 -2 -7 119.46 14.86
5 2 7 124.86 17.15
5 2 7 127.73 14.18
-5 -2 -7 105.4 12.64
5 2 8 421.62 34.44
-5 -2 -8 412 29.61
5 2 8 366.73 32.05
-5 -2 -8 389.52 27.46
5 2 8 397.97 25.89
5 2 8 387.97 31.71
5 2 8 388.3 33.01
5 2 9 63.74 13.35
5 2 9 76.43 14.5
-5 -2 -9 76.11 12.51
5 2 9 78.74 13.78
5 2 9 61.89 8.94
-5 -2 -9 75.78 14.38
5 2 10 949.67 57.59
-5 -2 -10 949.25 52.51
5 2 10 916.78 54
-5 -2 -10 973.49 59.1
-5 -2 -11 20.17 7.44
5 2 11 25.64 8.4
5 2 11 27.32 9.05
-5 -2 -11 26.42 9.27
-5 -2 -12 24.85 8.6
5 2 12 18.81 7.43
5 2 12 19.69 7.95
-5 -2 -12 28.33 9.94
-5 -2 -13 21.84 8.62
5 2 13 14.04 6.62
5 2 13 34.69 10.79
-5 -2 -13 30.26 11.12
5 2 14 845.12 55.69
-5 -2 -14 828.66 55.62
5 2 14 727.54 47.62
-5 -2 -14 809.78 59.2
-5 -2 -15 3.76 3.74
-5 -2 -15 -3.2 4.51
-5 -2 -16 94.11 20
-5 -2 -16 68.12 16.02
5 2 16 43.09 14.19
5 3 -13 62.43 16.65
5 3 -13 103.53 19.93
5 3 -12 59.48 15.79
5 3 -12 55.59 14.28
5 3 -12 48.15 13.79
5 3 -11 228.19 29.53
5 3 -11 242.63 29.13
5 3 -11 203.74 27.15
5 3 -11 207.1 25.98
5 3 -10 19.77 8.69
5 3 -10 9.03 6.71
5 3 -10 9.38 6.23
5 3 -10 8.64 5.74
5 3 -9 28.09 8.78
5 3 -9 38.71 11.14
5 3 -9 33.44 10.43
5 3 -9 43.07 11.91
5 3 -9 34.35 10.33
-5 -3 8 -3.01 5.99
5 3 -8 -2.11 3.64
5 3 -8 6.83 5.07
5 3 -8 2.68 3.78
5 3 -8 2.71 2.7
5 3 -8 2.87 4.94
5 3 -7 1576.07 72.07
5 3 -7 1613.46 79.83
-5 -3 7 1653.57 83.31
5 3 -7 1536.65 79.51
5 3 -6 29.97 7.48
5 3 -6 33.79 9.66
-5 -3 6 44.49 11.1
5 3 -6 29.83 9.31
5 3 -5 536.6 32.7
5 3 -5 545.97 39.01
-5 -3 5 580.09 41.27
5 3 -5 551.83 39.57
5 3 -4 201.58 17.43
5 3 -4 248.27 24.21
-5 -3 4 186.48 22.08
5 3 -4 244.37 19.71
5 3 -4 223.17 23.22
-5 -3 3 565.82 35.98
5 3 -3 511.91 35.2
5 3 -3 573.33 32.08
5 3 -3 574.08 37.13
-5 -3 3 434.44 16.3
-5 -3 3 570.42 29.04
5 3 -3 513.43 27.32
-5 -3 3 568.38 37.88
-5 -3 2 235.3 13.56
-5 -3 2 234.06 13.54
5 3 -2 254.53 23.74
-5 -3 2 295.9 25.88
-5 -3 2 262.09 23.22
-5 -3 2 245.28 24.02
5 3 -2 218.64 19.83
5 3 -2 253.01 23.76
5 3 -1 564.33 34.66
-5 -3 1 576.45 26.81
-5 -3 1 533.74 26.31
5 3 -1 630.16 38.81
-5 -3 1 589.11 27.44
-5 -3 1 553.55 37.31
-5 -3 1 548.95 35.37
-5 -3 1 579 38.43
5 3 0 324.72 20.61
5 3 0 317.22 25.11
-5 -3 0 332.13 19.93
5 3 0 317.04 20.41
-5 -3 0 304.54 19.31
-5 -3 0 339.48 27.37
-5 -3 0 284.71 23.8
5 3 0 365.55 28.05
-5 -3 0 304.33 16.75
-5 -3 0 314.32 26.63
5 3 1 720.87 41.64
5 3 1 697.88 35.89
-5 -3 -1 702.66 42.25
-5 -3 -1 726.87 40.29
-5 -3 -1 756.87 43.61
5 3 1 740.64 36.59
-5 -3 -1 721.54 28.69
5 3 2 9.16 4.47
-5 -3 -2 3.61 3.12
-5 -3 -2 9.48 4.17
5 3 2 5.41 3.02
5 3 2 6.76 3.81
-5 -3 -2 6.38 1.99
5 3 2 3.68 2.43
5 3 3 1997 84.98
-5 -3 -3 2035 81.46
5 3 3 1933.44 79.35
5 3 3 2028.82 70.75
-5 -3 -3 1972.81 67.36
5 3 3 1961.96 79.94
-5 -3 -3 1938.77 64.99
-5 -3 -4 82.02 6.29
5 3 4 111.79 15.32
5 3 4 75.58 11.71
-5 -3 -4 78.74 7.89
-5 -3 -4 90.62 12.93
5 3 4 75.45 11.81
5 3 4 80.01 8
-5 -3 -4 76.75 7
5 3 5 24.95 7.77
-5 -3 -5 17.82 3.57
-5 -3 -5 17.14 5.94
5 3 5 12.92 5.54
5 3 5 18.42 6.11
5 3 5 16.26 3.29
5 3 6 82.44 13.98
5 3 6 88.65 13.92
5 3 6 110.31 7.68
-5 -3 -6 74.93 12.58
-5 -3 -7 1371.27 59.06
5 3 7 1606.64 75.06
-5 -3 -7 1361.46 67.73
5 3 7 1551.25 73.13
5 3 7 1576.04 73.6
-5 -3 -7 1660.25 58
5 3 7 1467.05 47.84
5 3 8 -2.37 3.33
5 3 8 -2.36 3.33
-5 -3 -8 -1.35 2.33
5 3 9 858.79 53.22
5 3 9 831.24 41.36
-5 -3 -9 819.73 43.72
5 3 9 823.99 52.28
5 3 10 427.25 36.29
5 3 10 515.78 40.25
-5 -3 -10 473.87 38.48
5 3 10 478.53 39.39
-5 -3 -10 404.95 30.52
5 3 10 452.77 26.69
5 3 10 433.79 34.76
5 3 11 424.34 36.5
-5 -3 -11 436.98 38.14
5 3 11 434.93 38.1
5 3 11 449.99 35.23
-5 -3 -11 378.74 30.94
5 3 11 412.13 37.48
5 3 12 52.84 13.21
5 3 12 46.59 12.84
-5 -3 -12 55.28 11.79
5 3 12 52.44 11.72
5 3 12 44.86 11.6
-5 -3 -12 46.66 12.86
5 3 13 56.81 11.92
-5 -3 -13 73.91 14.69
5 3 13 66.08 14.42
-5 -3 -13 53.35 13.81
5 3 14 11.61 6.13
-5 -3 -14 14.22 8.68
5 3 14 14.52 7.1
-5 -3 -14 16.73 7.86
-5 -3 -15 154.22 25.11
5 3 15 142.66 21.22
-5 -3 -15 96.56 17.9
-5 -3 -16 63.03 16.73
-5 -3 -16 54.94 14.49
5 4 -12 203.54 29.79
5 4 -12 197.02 28.05
5 4 -11 6.41 6.39
5 4 -11 3.53 4.97
5 4 -11 15.21 9.28
5 4 -10 339.12 34.19
-5 -4 10 361.47 38.74
5 4 -10 297.88 33.6
5 4 -10 341.8 36.96
5 4 -9 83.17 16.67
5 4 -9 98.69 17.02
5 4 -9 67.78 15.29
-5 -4 9 91.49 18.39
5 4 -9 87.06 15.97
5 4 -9 105.03 19.55
5 4 -8 61.25 14.52
-5 -4 8 114.46 19.97
5 4 -8 94.34 15.62
5 4 -8 85.85 16.94
5 4 -7 145.38 18.59
5 4 -7 162.11 22.45
-5 -4 7 91.58 17.3
-5 -4 7 126.67 20.48
5 4 -7 119.16 19.8
5 4 -6 465 33.42
5 4 -6 492.49 39.34
-5 -4 6 474.65 39.06
-5 -4 6 415.33 37.28
5 4 -6 457.45 38.34
5 4 -5 10.71 5.03
5 4 -5 7.73 5.13
-5 -4 5 2.62 3.69
-5 -4 5 5.05 4.36
5 4 -5 -2.61 3.68
5 4 -4 1568.46 70.25
-5 -4 4 1667.05 78.94
-5 -4 4 1651.09 81.31
5 4 -4 1746.55 73.19
5 4 -4 1735.52 82.34
5 4 -4 1652.85 80.44
-5 -4 3 37.4 9.62
-5 -4 3 20.54 2.5
-5 -4 3 31.05 8.27
-5 -4 3 23.59 8.16
-5 -4 3 20.21 2.44
5 4 -3 22.75 6.55
5 4 -3 27.82 8.66
5 4 -2 166.2 19.78
-5 -4 2 132.5 10.02
-5 -4 2 135.07 10.04
5 4 -2 158.6 17.51
5 4 -2 147.59 18.67
-5 -4 2 132.48 17.93
-5 -4 2 133.53 18.07
-5 -4 1 341.18 26.17
-5 -4 1 337.34 29.04
-5 -4 1 353.53 19.78
-5 -4 1 306.75 18.76
5 4 -1 369.26 29.78
5 4 -1 346.86 27.36
5 4 -1 318.13 28.07
-5 -4 1 346.91 29.52
5 4 0 1012.56 53.4
5 4 0 985.8 44.52
-5 -4 0 1027.67 43.63
-5 -4 0 1002.82 43.34
5 4 0 995 54.4
5 4 0 1019.15 44.81
-5 -4 0 1080.4 56.82
-5 -4 0 1119.85 57.47
-5 -4 0 986.03 49.89
-5 -4 -1 72.24 12.67
-5 -4 -1 73.22 10.93
5 4 1 74.36 10.09
5 4 1 78.24 12.95
5 4 1 68.94 12.1
5 4 1 55.58 8.94
-5 -4 -2 106.55 15.57
-5 -4 -2 138.58 15.07
-5 -4 -2 117.83 11.23
5 4 2 147.7 15.29
5 4 2 129.99 14.28
5 4 2 153.97 18.31
5 4 2 114.39 10.9
-5 -4 -3 453.96 29.36
-5 -4 -3 487.17 34.37
5 4 3 414.62 29.4
-5 -4 -3 440.61 24.27
5 4 3 428.52 29.58
5 4 3 464.59 34.03
5 4 3 438.75 22.36
5 4 4 1685.52 72.6
5 4 4 1640.07 76.67
-5 -4 -4 1639.44 69.08
-5 -4 -4 1598.46 75.05
5 4 4 1632.3 72.2
-5 -4 -4 1599.07 62.27
5 4 5 224.73 22.31
5 4 5 262.22 25.41
-5 -4 -5 225.25 12.15
5 4 5 264.51 24.09
-5 -4 -5 257.33 21.4
-5 -4 -5 230.05 23.47
-5 -4 -6 1090.42 52.78
5 4 6 1113.32 55.92
5 4 6 1135.88 58.67
-5 -4 -6 1009.66 38.75
5 4 6 1237.72 58.46
-5 -4 -6 1090.28 50.86
5 4 7 180.77 21.18
-5 -4 -7 156.49 18.96
5 4 7 199.02 22.9
-5 -4 -7 183.57 11.3
5 4 7 195.19 22.09
5 4 8 183.26 22.29
-5 -4 -8 192.07 21.76
-5 -4 -8 173.06 15.66
5 4 8 171.13 21.34
5 4 8 212 23.51
-5 -4 -9 7.24 4.84
-5 -4 -9 36.26 7.53
5 4 9 31.48 9.44
5 4 9 20.93 8.26
5 4 10 764.49 49.89
5 4 10 831.04 53.1
5 4 10 664.52 48.52
-5 -4 -10 665.82 40
-5 -4 -10 669.53 47.18
5 4 11 23.92 8.96
5 4 11 30.1 9.85
-5 -4 -11 30.9 8.42
5 4 11 17.9 8.44
5 4 12 91.98 17.41
5 4 12 75.95 16.19
5 4 12 62.17 14.21
-5 -4 -12 54.27 11.4
5 4 13 -3.35 4.71
5 4 13 3.34 4.7
-5 -4 -13 2.41 3.4
5 4 13 -2.9 5
5 4 13 4.93 4.91
-5 -4 -14 684.7 54.81
5 4 14 770.61 49.16
5 4 14 740.7 52.06
-5 -4 -14 801.7 51.95
5 4 15 69.61 16.86
5 4 15 62.47 12.81
5 4 15 117.18 21.38
-5 -4 -15 67.29 16.79
5 4 15 67.23 14.43
-5 -4 -15 89.04 16.58
5 4 16 33.91 12.45
5 4 16 22.63 10.63
-5 -4 -16 18.48 9.21
-5 -4 -16 3.93 5.56
5 4 16 25.79 9.48
-5 -4 -17 22.82 9.76
5 5 -11 422.22 43.11
5 5 -11 410.78 43.05
-5 -5 11 412.87 43.87
5 5 -10 14.97 8.36
-5 -5 10 23.75 10.45
5 5 -10 42.73 13.42
5 5 -9 61.95 14.15
-5 -5 9 33.43 11.78
5 5 -9 46.65 13.91
5 5 -9 46.74 12.75
5 5 -9 47.93 14.29
-5 -5 8 58.64 14.62
5 5 -8 54.86 13.23
5 5 -8 66.21 16.01
-5 -5 8 59.09 15.2
5 5 -8 75.08 16.4
-5 -5 7 477.03 41.8
5 5 -7 440.36 41.52
5 5 -7 417.95 39.83
5 5 -7 448.27 36.62
-5 -5 7 451.62 39.93
-5 -5 6 2.93 4.13
5 5 -6 6.98 5.19
5 5 -6 3.1 3.09
-5 -5 6 2.97 2.96
5 5 -6 3.06 4.32
5 5 -5 395.68 31.61
-5 -5 5 389.26 35.04
5 5 -5 347.02 34.33
5 5 -5 457.35 38.67
-5 -5 4 37.75 10.41
5 5 -4 30.06 9.51
-5 -5 4 71.77 13.78
5 5 -4 49.62 12.03
-5 -5 3 837.89 49.56
-5 -5 3 853.88 52.49
5 5 -3 727.64 49.68
-5 -5 3 756.94 49.9
5 5 -3 806.12 52.09
5 5 -2 156.38 20.96
-5 -5 2 217.24 21.79
-5 -5 2 204.93 23.7
5 5 -2 183.85 22.5
-5 -5 2 174.19 21.85
5 5 -1 313.77 28.21
-5 -5 1 390.64 32.49
-5 -5 1 371.2 28.08
5 5 -1 340.04 30.36
-5 -5 1 339.7 31.03
-5 -5 1 342.86 30.88
5 5 0 243.74 24.76
-5 -5 0 279.67 27.07
5 5 0 268.73 20.03
5 5 0 235.74 24.45
-5 -5 0 209.88 23.92
-5 -5 0 227.63 20.52
-5 -5 0 285.59 27.26
5 5 0 250.67 19.53
5 5 1 593.25 34.29
5 5 1 646.88 42.39
5 5 1 624.56 34.9
-5 -5 -1 526.67 39.58
-5 -5 -1 569.45 33.72
-5 -5 -1 579.79 40.94
5 5 1 574.14 39.7
-5 -5 -1 645.38 43.18
5 5 2 85.08 14.5
5 5 2 96.97 12.98
-5 -5 -2 94.37 15.22
-5 -5 -2 57.9 9.51
5 5 2 98.81 13.11
5 5 3 865.34 51.07
5 5 3 810.01 44.25
-5 -5 -3 860.42 50.3
-5 -5 -3 717.28 38.91
5 5 3 728.21 42.63
5 5 4 76.92 14.39
5 5 4 76.74 12.79
-5 -5 -4 88.25 15.03
-5 -5 -4 108.47 12.56
5 5 4 84.22 13.32
5 5 5 101.73 15.01
-5 -5 -5 110.53 12.82
-5 -5 -5 99.42 15.87
5 5 5 103.33 16.84
5 5 5 124.94 16.68
-5 -5 -5 96.26 6.1
-5 -5 -5 80.29 5.78
-5 -5 -6 8.24 2.53
5 5 6 8.96 5.47
-5 -5 -6 13.82 5.44
5 5 6 12.63 6.66
5 5 6 8.99 5.01
-5 -5 -6 8.57 4.03
-5 -5 -6 2.43 4.2
5 5 7 2154.59 94.88
-5 -5 -7 2072.31 88.58
5 5 7 2170.69 97.12
-5 -5 -7 2019.56 82.64
-5 -5 -7 2043.19 95.04
5 5 7 2096.05 94.26
5 5 8 -2.58 3.63
-5 -5 -8 -2.15 2.14
-5 -5 -8 2.61 5.21
-5 -5 -8 1.14 1.97
5 5 8 -2.59 3.65
-5 -5 -9 125.22 18.19
-5 -5 -9 128.52 14.18
5 5 9 149.45 21.18
5 5 9 143.09 20.52
5 5 10 5.57 4.81
-5 -5 -10 2.58 4.46
-5 -5 -10 1.62 2.79
5 5 10 2.95 2.94
5 5 10 2.93 2.92
5 5 11 369.06 35.15
-5 -5 -11 426.82 37.19
-5 -5 -11 389.89 29.62
5 5 11 390.36 37.28
5 5 11 395.26 37.8
5 5 12 361.94 34.96
-5 -5 -12 437.59 39.16
-5 -5 -12 414.61 32.47
5 5 12 428.64 40.23
5 5 12 397.92 38.63
5 5 13 241.66 27.85
5 5 13 207.3 27.94
-5 -5 -13 170.02 24.86
-5 -5 -13 192.95 22.62
5 5 13 211.2 28.21
5 5 14 262.55 29.82
-5 -5 -14 356.14 36.86
5 5 14 318.5 36.03
5 5 14 286.32 29.01
-5 -5 -14 285.58 28.83
5 5 14 328.6 36.66
5 5 15 66.34 13.84
-5 -5 -15 96.71 17.36
5 5 15 91.91 17.14
-5 -5 -15 92.71 19.35
5 5 16 3.86 3.84
-5 -5 -16 2.95 5.1
5 5 16 3.86 5.44
5 5 16 2.9 2.89
-5 -6 10 61.94 17.64
5 6 -10 101.24 21.11
5 6 -10 115.03 22.56
-5 -6 9 43.21 14.17
5 6 -9 51.25 15.27
5 6 -9 46.91 15.14
5 6 -8 276.71 31.18
-5 -6 8 266.8 33.07
5 6 -8 318.74 36.05
5 6 -8 308.14 35.92
5 6 -7 50.08 13.83
5 6 -7 39.33 12.87
-5 -6 7 12.82 7.87
-5 -6 7 41.56 12.47
5 6 -7 54.95 13.23
-5 -6 6 242.41 28.59
-5 -6 6 199 26.4
5 6 -6 186.83 26.18
-5 -6 6 164.88 23.22
5 6 -6 206.72 27.4
-5 -6 5 41.28 11.85
-5 -6 5 61.86 14.16
-5 -6 5 46.39 12.35
5 6 -5 70.91 15.8
5 6 -5 57.97 14.43
5 6 -4 491.63 41.57
-5 -6 4 438.16 38.34
-5 -6 4 521.66 40.52
5 6 -4 472.75 41.53
-5 -6 4 459.51 39.39
5 6 -3 49.01 12.89
-5 -6 3 37.25 11.11
5 6 -3 37.73 11.62
-5 -6 3 30.2 9.92
-5 -6 3 31.7 9.78
-5 -6 3 48.89 12.15
5 6 -2 141.3 20.99
-5 -6 2 141.13 20.21
-5 -6 2 162.89 21.62
5 6 -2 177.8 23.11
-5 -6 2 179.41 20.63
-5 -6 1 3.89 3.88
-5 -6 1 5.25 5.23
-5 -6 1 2.8 3.94
-5 -6 1 2.62 3.69
-5 -6 0 1114.59 62.72
-5 -6 0 992.98 52.54
-5 -6 0 1127.34 64.77
-5 -6 -1 89.65 15.71
-5 -6 -1 78.73 15.25
5 6 1 85.69 12.41
5 6 1 81 12.01
5 6 2 229.18 21.81
5 6 2 172.97 21.36
-5 -6 -2 229.95 25.76
5 6 2 223.19 21.38
5 6 2 234.4 25.93
-5 -6 -2 207.82 24.24
5 6 3 108.97 15.4
-5 -6 -3 110.51 17.9
5 6 3 99.2 15.59
5 6 3 146.12 17.58
5 6 3 109.35 17.74
-5 -6 -3 121.32 18.66
5 6 4 600.85 40.33
5 6 4 611.71 40.62
-5 -6 -4 637.25 44.72
-5 -6 -4 580.5 42.99
5 6 4 614.38 44.98
5 6 5 105.4 16.13
5 6 5 89.66 14.83
-5 -6 -5 76.88 14.87
-5 -6 -5 74.75 5.65
5 6 5 63.18 13.59
-5 -6 -6 438.49 30.31
5 6 6 441.33 35.77
-5 -6 -6 460.02 38.26
5 6 6 439.89 38.05
5 6 6 460.02 36.46
-5 -6 -7 3.7 3.69
-5 -6 -7 -2.8 4.84
5 6 7 -2.62 2.61
5 6 7 2.85 4.01
5 6 7 -2.63 3.7
-5 -6 -8 766.71 52.11
-5 -6 -8 719.42 45.01
5 6 8 760.2 51.63
5 6 8 715.77 49.89
5 6 9 345.79 34.15
-5 -6 -9 342.94 30.25
5 6 9 331.62 33.31
5 6 9 353.96 34.34
5 6 10 411.21 37.44
-5 -6 -10 423.07 35.44
5 6 10 422.94 38.79
5 6 10 374.36 36.59
5 6 11 154.57 22.5
-5 -6 -11 113.52 18.67
5 6 11 125.56 21.4
5 6 11 128.26 21.56
5 6 12 3.04 4.29
5 6 12 3.48 3.47
5 6 12 3.46 3.45
-5 -6 -13 19.35 9.09
5 6 13 3.06 5.28
5 6 13 7.23 6.24
-5 -6 -13 9.03 5.52
5 6 13 14.52 8.09
-5 -6 -14 604.03 50.08
5 6 14 599.28 47.37
5 6 14 657.82 53.71
5 6 14 603.15 51.98
-5 -6 -14 658.24 44.77
-5 -6 -15 10.96 8.14
5 6 15 6.07 5.24
-5 -6 -15 5.35 5.33
5 7 -8 8.06 6.95
-5 -7 8 3.91 5.51
-5 -7 7 459.1 44.05
5 7 -7 410.63 42.91
-5 -7 7 474.09 41.86
-5 -7 7 458.79 41.44
-5 -7 6 -3.43 5.92
5 7 -6 7.41 6.39
-5 -7 6 -3.28 3.26
-5 -7 6 3.16 4.45
-5 -7 5 31.73 11
5 7 -5 31.75 11.7
-5 -7 5 52.75 13.97
-5 -7 5 36.72 11.46
-5 -7 4 -2.92 4.11
-5 -7 4 3.29 4.64
-5 -7 4 2.98 2.97
-5 -7 3 415.9 37.38
-5 -7 3 377.88 35.88
-5 -7 3 408.94 39.09
-5 -7 3 465.42 38.11
-5 -7 2 99.54 17.73
-5 -7 2 119.88 19.32
-5 -7 2 100.88 16.34
-5 -7 1 654.11 47.67
5 7 -1 643.92 47.35
-5 -7 1 633.26 49.37
-5 -7 1 655.8 47.54
-5 -7 0 312.66 31.19
5 7 0 279.3 29.4
-5 -7 0 353.02 34.75
-5 -7 0 321.18 31.95
-5 -7 -1 245.83 27.69
-5 -7 -1 247.39 27.71
5 7 1 244.23 26.79
-5 -7 -1 279.19 30.7
5 7 2 14.6 6.24
-5 -7 -2 11.24 6.27
-5 -7 -2 11.3 6.3
-5 -7 -2 15.26 7.45
5 7 2 12.5 6.11
5 7 2 12.55 5.9
5 7 3 554.19 38.83
-5 -7 -3 548.43 43.07
5 7 3 539.98 39.85
-5 -7 -3 536.84 43.53
5 7 3 501.97 37.42
5 7 4 19.21 7.59
5 7 4 18.4 8.11
-5 -7 -4 20.17 8.15
-5 -7 -4 29.44 9.75
5 7 4 31.32 9
5 7 5 274.39 27.93
5 7 5 217.18 24.89
5 7 5 232.04 28.11
-5 -7 -5 222.3 26.82
-5 -7 -5 267.35 29.08
5 7 6 67.78 14.16
5 7 6 78.05 16.27
-5 -7 -6 51.14 12.85
-5 -7 -6 59.37 13.64
5 7 6 76.19 14.97
-5 -7 -7 700.33 41.71
5 7 7 777.87 52.65
5 7 7 853.55 57.33
-5 -7 -7 776.37 54.22
5 7 7 751.8 52.01
-5 -7 -8 6.39 5.51
-5 -7 -8 1.98 3.41
5 7 8 -3.04 3.03
5 7 8 6.06 5.23
5 7 9 31.91 11.03
-5 -7 -9 24.38 7.99
-5 -7 -9 13.22 7.39
5 7 9 19.23 8.47
5 7 9 28.99 10.17
5 7 10 39.02 11.72
5 7 10 43.62 12.98
5 7 10 47.14 13.45
-5 -7 -10 22.14 8.18
5 7 11 348.96 36.14
5 7 11 431.59 40.93
5 7 11 380.45 38.93
-5 -7 -11 377.43 34.31
5 7 12 3.25 5.6
5 7 12 3.66 5.15
5 7 12 3.67 3.66
-5 -7 -12 8.8 5.84
5 7 13 264.05 30.9
5 7 13 258.16 33
5 7 13 263.52 33.4
-5 -7 -13 271.13 31.25
5 7 14 53.85 13.9
5 7 14 74.49 18
5 7 14 78.78 18.92
-5 -7 -14 77.54 16.57
-5 -7 -15 210.16 29.02
5 7 15 272.83 30.75
-5 -8 7 46.13 13.75
5 8 -6 217.45 30.1
-5 -8 6 212.83 28.98
-5 -8 6 204.19 26.56
-5 -8 6 232.51 30.28
-5 -8 5 15.45 8.15
5 8 -5 11.03 7.33
-5 -8 5 14.72 8.2
5 8 -5 7.55 6.52
-5 -8 4 461.88 40.56
5 8 -4 422.2 42.12
-5 -8 3 66.15 15.03
-5 -8 3 36.88 12.25
5 8 -3 37.81 12.41
-5 -8 2 114.15 19.33
-5 -8 2 124.47 20.41
-5 -8 1 6.03 5.2
-5 -8 1 2.94 5.08
-5 -8 1 7.25 8.07
5 8 -1 9.25 6.87
-5 -8 0 662.94 50.03
-5 -8 0 670.41 49.62
5 8 0 703.46 50.6
-5 -8 0 758.25 56.6
-5 -8 -1 48.59 12.58
-5 -8 -1 59.18 13.92
-5 -8 -1 59.87 14.97
5 8 1 61.79 13.8
-5 -8 -2 88.77 17.1
-5 -8 -2 65.84 15.95
5 8 2 80.68 15.29
-5 -8 -2 56.79 14.12
5 8 3 15.25 7.16
5 8 3 2.55 4.4
-5 -8 -3 9.32 6.19
-5 -8 -3 6.8 5.87
5 8 3 12.92 6.81
-5 -8 -3 18.22 8.56
5 8 4 489.01 39.29
5 8 4 455.41 37.89
-5 -8 -4 390.83 38.29
-5 -8 -4 453.39 41.72
5 8 4 488.45 43.74
5 8 5 19.95 8.04
5 8 5 8.57 5.71
-5 -8 -5 16.03 7.84
-5 -8 -5 19.58 8.61
5 8 5 27.78 10.39
5 8 6 165.69 23.06
5 8 6 117.07 19.62
-5 -8 -6 144.37 22.58
-5 -8 -6 194.3 25.55
5 8 6 136.06 22.93
-5 -8 -7 84.23 17.65
5 8 7 79.1 16.6
-5 -8 -7 111.62 19.23
5 8 7 110.36 19.3
-5 -8 -8 135.09 22.4
5 8 8 122.67 20.95
5 8 8 125.56 21.14
5 8 9 131.28 22.36
5 8 9 100.53 19.9
-5 -8 -9 110.53 20.75
5 8 9 151.25 24.06
-5 -8 -9 158.64 18.74
-5 -8 -10 692.54 45.51
5 8 10 727.34 55.72
-5 -8 -10 731.88 56.51
5 8 10 710.87 54.96
5 8 10 639.95 53.06
5 8 11 26.22 10.57
5 8 11 26.32 11.25
-5 -8 -11 18.96 10.01
5 8 11 31.55 11.6
-5 -8 -11 17.95 7.69
5 8 12 189.87 29.09
5 8 12 225.53 30.93
-5 -8 -12 210.69 30.29
5 8 12 246.36 30.62
-5 -8 -12 235.38 26.97
5 8 13 4 5.64
5 8 13 3.4 4.79
-5 -8 -13 3.02 4.25
5 8 13 7.96 6.87
5 8 14 309.77 34.07
-5 -8 -14 277.06 31.94
-5 -9 4 -2.97 5.12
-5 -9 3 498.75 42.37
5 9 -3 554.01 47.93
-5 -9 3 511.71 48.89
-5 -9 2 2.98 4.2
5 9 -2 10.29 6.83
-5 -9 1 351.7 34.99
5 9 -1 412.61 39.05
-5 -9 1 435.14 44.35
-5 -9 0 3 5.17
-5 -9 0 7.99 6.89
5 9 0 3.12 5.39
-5 -9 -1 103.11 18.32
-5 -9 -1 70.83 18.16
5 9 1 104.04 18.45
-5 -9 -2 113.38 20.13
-5 -9 -2 107.92 18.94
-5 -9 -2 96.82 20.28
5 9 2 107.9 18.37
-5 -9 -3 29.65 10.92
-5 -9 -3 28.3 9.95
-5 -9 -3 45.67 14.21
-5 -9 -4 121.27 21.32
-5 -9 -4 149.06 24.37
-5 -9 -4 138.29 22.08
5 9 5 106.56 19.05
5 9 5 131.93 21.04
-5 -9 -5 127.06 21.64
-5 -9 -5 109.27 20.81
5 9 5 123.56 22.69
5 9 6 3.29 3.27
5 9 6 -3.3 6.57
-5 -9 -6 -3.5 3.49
-5 -9 -6 3.55 3.53
5 9 6 3.86 5.43
5 9 7 1162.71 71.69
-5 -9 -7 997.2 68.38
-5 -9 -7 1033.41 68.25
5 9 7 1091.22 70.08
-5 -9 -8 18.4 9.71
5 9 8 17.92 9.46
5 9 8 21.43 9.42
5 9 8 15.33 8.55
-5 -9 -9 68.09 16.58
5 9 9 70.68 17.14
5 9 9 77.82 18.23
5 9 9 114.45 21.95
-5 -9 -10 3.87 5.46
5 9 10 -3.85 5.42
5 9 10 -3.78 7.53
5 9 10 -3.83 5.4
5 9 11 298.36 35.34
5 10 0 181.99 25.4
5 10 1 27.36 10.07
-5 -10 -2 81.83 16.43
5 10 2 80.8 15.66
-5 -10 -3 6.23 5.38
-5 -10 -4 406.24 38.48
-5 -10 -5 39.5 12.72
-5 -10 -5 15.88 8.87
-5 -10 -6 119.69 22.69
-6 6 4 233.79 30.33
-6 6 4 237.38 30.33
6 -6 -3 29.5 11.64
6 -6 -3 22.14 9.76
-6 6 3 40.6 13.28
-6 6 3 25.91 10.46
6 -6 -2 159.78 24.43
-6 6 2 151.47 25.16
-6 6 2 163.35 26.07
6 -6 -1 64.55 15.26
-6 6 1 73.57 17.36
-6 6 1 69.89 17.41
6 -6 0 84.01 17.2
6 -6 1 15.23 8.04
6 -5 -7 142.28 24.61
-6 5 7 127.97 23.97
-6 5 7 171.97 23.4
-6 5 7 125.28 20.1
-6 5 6 4.07 5.73
-6 5 6 3.03 5.22
-6 5 6 3.02 6.02
-6 5 5 91.9 19.65
-6 5 5 84.5 17.24
-6 5 5 75.11 16.38
6 -5 -4 32.93 11.6
-6 5 4 55.21 16.25
-6 5 4 54.91 14.09
-6 5 4 55.08 14.5
-6 5 3 834.69 58.74
6 -5 -3 772.02 58.01
-6 5 3 765.44 56.48
-6 5 3 863.52 63.65
-6 5 2 -3.43 4.83
6 -5 -2 -3.42 3.4
-6 5 2 -2.29 3.22
-6 5 2 -3.42 4.81
-6 5 2 3.87 3.86
-6 5 1 21.13 10.56
6 -5 -1 36.17 11.84
-6 5 1 25.62 8.41
-6 5 1 35.09 12.14
-6 5 1 34.77 12.2
-6 5 0 75.81 17.43
6 -5 0 72.57 15.92
-6 5 0 93.61 19.15
-6 5 0 104.7 20.96
-6 5 0 102.8 16.53
6 -5 1 216.51 27.01
-6 5 -1 274.07 33.94
-6 5 -1 292.82 28.31
6 -5 2 8.53 5.67
-6 5 -2 5.09 5.07
-6 5 -2 3.96 5.58
-6 5 -3 151.31 21
6 -5 3 146.59 20.74
-6 5 -3 174.85 27.21
-6 5 -3 179.72 27.63
-6 5 -4 33.24 10.33
-6 5 -4 7.96 6.88
6 -5 4 14.06 7.84
-6 5 -4 16.01 8.93
6 -5 5 256.37 32.65
-6 5 -5 233.54 32.43
-6 5 -5 242.81 27.96
-6 5 -5 264.48 34.44
-6 5 -6 120.43 19.96
6 -5 6 113.53 21.98
-6 4 10 257.44 30.49
-6 4 9 2.97 4.19
6 -4 -9 11.57 7.68
-6 4 9 4.07 5.74
-6 4 8 13.58 7.17
-6 4 8 15.85 8.84
6 -4 -8 26.58 11.36
-6 4 7 27.43 9.35
-6 4 7 31.8 10.1
-6 4 7 44.95 11.44
-6 4 7 31.02 11.63
6 -4 -7 40.89 12.86
-6 4 6 533.64 40.96
6 -4 -6 638.09 51.3
-6 4 6 527.91 40.76
-6 4 6 473.8 45.96
-6 4 6 535.06 37.91
-6 4 5 13.58 6.63
-6 4 5 2.43 2.43
-6 4 5 3.7 5.21
6 -4 -5 14.14 7.87
-6 4 5 10.84 6.61
-6 4 4 173.72 26.16
-6 4 4 185.35 22.2
-6 4 4 132.13 20.34
-6 4 4 155.11 22.07
-6 4 3 141.7 19.31
-6 4 3 185.4 26.44
-6 4 3 145.72 21.75
-6 4 3 127.78 20.07
-6 4 2 433.43 38.53
6 -4 -2 400.46 38.45
-6 4 2 432.53 41.38
-6 4 2 416.1 34.62
-6 4 2 447.32 39.24
-6 4 1 87.03 17.09
-6 4 1 82.85 14.92
-6 4 1 74.34 15.88
6 -4 -1 62.53 15.09
-6 4 1 62.98 15.34
-6 4 0 251.27 30.18
6 -4 0 307.35 32.12
-6 4 0 301.52 34.45
-6 4 0 317.17 33.55
-6 4 0 331.77 30.57
-6 4 -1 100.22 18.71
-6 4 -1 86.25 15.79
-6 4 -1 74.38 17.12
-6 4 -1 112.8 19.72
6 -4 1 84.19 16.31
6 -4 2 169.46 22.59
-6 4 -2 131.27 19.73
6 -4 2 169.35 22.93
-6 4 -3 93.19 19.06
-6 4 -3 84.62 16.05
6 -4 3 76.4 15.05
6 -4 3 76.37 15.72
-6 4 -3 117.19 20.78
-6 4 -4 557.79 48.76
-6 4 -4 652.19 52.54
6 -4 4 526.94 40.1
-6 4 -4 457.82 40.42
6 -4 4 604.26 47.82
-6 4 -5 3.82 5.39
6 -4 5 4.61 4.6
-6 4 -5 5.94 5.12
-6 4 -6 -3.93 5.54
-6 4 -6 7.79 7.75
-6 4 -6 3.1 6.17
6 -4 6 3.71 5.23
-6 4 -6 -3.66 3.64
-6 4 -7 20.21 9.88
6 -4 7 31.29 11.7
-6 4 -7 26.45 10.66
-6 4 -7 22.61 9.67
-6 4 -7 16 8.93
-6 4 -8 437.27 44.84
-6 4 -8 449.98 46
-6 4 -8 443.68 44.6
6 -4 8 462.97 46.04
-6 3 11 97.55 21.27
6 -3 -11 117.18 21.81
-6 3 11 112.51 20.96
-6 3 10 3.94 5.56
-6 3 10 3.29 3.28
-6 3 9 168.73 26.3
6 -3 -9 193.84 27.37
-6 3 9 127.46 20.56
-6 3 8 3.71 5.23
-6 3 8 2.77 3.91
6 -3 -8 3.52 6.08
-6 3 7 307.96 26.78
-6 3 7 305.04 34.73
6 -3 -7 296.79 33.66
-6 3 7 273.14 28.03
6 -3 -7 306.2 31.55
-6 3 7 249.23 24.48
-6 3 6 118.08 17.17
-6 3 6 125.11 17.2
-6 3 6 121.9 21.43
6 -3 -6 136.76 19.79
6 -3 -6 158.59 24.06
-6 3 6 127.4 17.48
-6 3 5 261.49 26.24
-6 3 5 241.75 25.31
-6 3 5 302.66 25.95
6 -3 -5 290.86 28.11
6 -3 -5 314.36 32.19
-6 3 5 285.27 28.64
-6 3 5 259.25 31.64
6 -3 -5 335.28 34.55
-6 3 4 54.65 12.19
-6 3 4 28.59 8.97
6 -3 -4 54.58 14
-6 3 4 64.13 12.58
-6 3 4 49.07 13.88
-6 3 4 30 7.53
6 -3 -4 50.18 10.94
6 -3 -4 60.76 13.81
6 -3 -3 547.42 37.25
-6 3 3 625.88 34.2
6 -3 -3 591.14 43.14
-6 3 3 581.36 42.23
-6 3 3 595.8 42.55
6 -3 -3 645.26 48.76
-6 3 3 553.5 45.97
-6 3 3 565 41.78
-6 3 2 12.21 5.97
-6 3 2 12.96 6.84
-6 3 2 18.06 7.28
-6 3 2 15.69 8.28
6 -3 -2 8.72 4.27
6 -3 -2 11.8 5.77
6 -3 -1 235.99 27.18
6 -3 -1 236.61 20.54
6 -3 -1 264.22 25.39
-6 3 1 239.32 26.77
-6 3 1 248.95 27.33
-6 3 1 240.15 25.76
6 -3 -1 237.49 27.68
-6 3 1 230.22 28.43
-6 3 0 7.43 5.53
-6 3 0 34.02 10.57
-6 3 0 16.86 7.93
6 -3 0 11.73 4.33
6 -3 0 15.47 6.1
6 -3 0 23.28 9.17
6 -3 0 17.04 7.5
-6 3 -1 1063.68 63.59
-6 3 -1 982.92 61.45
6 -3 1 1030.61 62.97
-6 3 -1 972.49 57.65
6 -3 1 964.7 55.61
6 -3 1 849.31 56.59
-6 3 -2 13.05 6.89
6 -3 2 7.65 5.09
6 -3 2 13.26 6.48
6 -3 2 12.38 6.9
-6 3 -3 2.7 3.81
6 -3 3 3.18 3.17
6 -3 3 2.78 3.91
6 -3 3 7.66 5.68
-6 3 -4 59.07 13.85
-6 3 -4 63.88 15.09
-6 3 -4 56.52 14.17
6 -3 4 70.86 13.67
6 -3 4 59.98 14.13
6 -3 4 65.42 15.39
6 -3 5 241.56 25.02
-6 3 -5 235.31 29.66
-6 3 -5 286.97 32.69
6 -3 5 214.63 28.4
-6 3 -5 239.12 28.52
6 -3 5 209.24 27.14
-6 3 -5 249.39 28.73
-6 3 -6 210.7 29.03
6 -3 6 183.04 21.11
-6 3 -6 168.82 26.15
6 -3 6 216.48 28.35
6 -3 6 174.75 25.69
-6 3 -6 203.41 26.71
-6 3 -7 425.51 42.76
-6 3 -7 467.93 44.64
6 -3 7 440.42 32.88
-6 3 -7 446.69 41.81
6 -3 7 459.9 43.61
-6 3 -8 171.61 27.15
-6 3 -8 196.1 27.3
-6 3 -8 192.91 28.2
6 -3 8 204.49 28.98
6 -3 8 148.35 24.18
-6 3 -9 182.06 26.9
-6 3 -9 232.78 32.1
6 -3 9 239.09 32.14
-6 3 -9 222.32 31.02
-6 3 -10 8.22 7.09
-6 3 -10 3.79 6.53
-6 3 -10 16.27 9.92
6 -3 10 4.23 4.21
6 -2 -12 118.6 22.12
-6 2 12 121.47 22.32
6 -2 -11 6.75 5.83
-6 2 11 7.14 6.16
6 -2 -10 314.68 33.99
6 -2 -10 253.16 31.81
-6 2 10 269.72 31.81
6 -2 -9 6.61 5.71
6 -2 -9 3.34 3.33
-6 2 9 9.22 6.12
6 -2 -9 3.63 5.12
6 -2 -8 6.5 6.48
-6 2 8 5.62 5.6
6 -2 -8 3.11 3.1
6 -2 -8 6.91 5.96
-6 2 7 79.68 11.69
6 -2 -7 89.57 17.33
6 -2 -7 78.05 15.69
-6 2 7 101.83 16.61
-6 2 7 78.06 11.79
-6 2 6 925.21 48.3
-6 2 6 942.49 48.76
6 -2 -6 914.77 57.22
6 -2 -6 990.52 62.33
-6 2 6 905.51 53.4
6 -2 -6 921.82 60.55
-6 2 5 17.95 7.23
-6 2 5 3.68 3.67
6 -2 -5 9.13 6.06
-6 2 5 7.33 4.48
6 -2 -5 4.93 4.25
-6 2 5 2.02 3.48
6 -2 -5 2.89 4.07
6 -2 -4 928.31 52.19
-6 2 4 854.69 46.9
6 -2 -4 886.45 55.88
6 -2 -4 857.27 51.63
-6 2 4 861.66 48.88
-6 2 4 872.5 49.08
-6 2 4 926.13 55.19
6 -2 -4 906.8 58.47
-6 2 3 22.06 8.13
-6 2 3 26.88 7.74
-6 2 3 29.66 6.96
6 -2 -3 20.82 6.91
6 -2 -3 17.62 7.13
6 -2 -3 28.84 9.98
6 -2 -3 34.36 9.43
-6 2 3 22.66 7.14
-6 2 2 310.07 28.45
6 -2 -2 393.19 32.83
-6 2 2 377.17 24.1
6 -2 -2 385.29 32.15
6 -2 -2 363.93 28.82
-6 2 2 345.04 29.83
6 -2 -2 355.76 33.9
-6 2 2 407.64 33.71
6 -2 -1 133.55 20.44
-6 2 1 193.69 22.17
-6 2 1 204.91 22.85
6 -2 -1 183.04 21.01
6 -2 -1 154.12 17.69
-6 2 1 190.73 22.39
6 -2 -1 229.79 24.93
-6 2 0 100.89 16.37
6 -2 0 67.21 10.62
6 -2 0 74.9 12.72
-6 2 0 43.71 10.98
-6 2 0 77.94 14.27
6 -2 0 54.52 12.55
-6 2 -1 166.69 21.6
-6 2 -1 178.81 22.57
-6 2 -1 165.74 21.02
6 -2 1 140.07 20.64
6 -2 1 146.55 17.37
6 -2 1 187.03 20.52
6 -2 1 172.5 22.13
-6 2 -2 194.4 23.84
-6 2 -2 185.69 23.48
6 -2 2 242.3 27.22
6 -2 2 192.98 18.81
6 -2 2 205.17 23.56
6 -2 2 184.38 21.7
-6 2 -2 195.58 23.35
6 -2 3 5.55 3.38
6 -2 3 2.53 2.52
-6 2 -3 2.62 3.7
6 -2 3 2.87 2.86
6 -2 4 776.23 53.21
6 -2 4 719.08 36.02
6 -2 4 748.64 50.56
-6 2 -4 712.61 48.17
-6 2 -4 672.19 48
6 -2 5 50.51 12.6
-6 2 -5 68.12 14.46
-6 2 -5 45.06 11.25
6 -2 5 18.29 8.11
6 -2 6 190.53 25.7
6 -2 6 223.37 27.9
-6 2 -6 247.35 27.59
-6 2 -7 23.4 8.75
6 -2 7 10.24 7.61
-6 2 -8 708.91 52.48
6 -2 8 684.3 52.55
6 -2 8 754.87 57.13
6 -2 8 759.06 44.5
6 -2 9 11.49 8.53
6 -2 9 6.61 5.7
-6 2 -9 3.25 4.58
6 -2 10 24.13 10.6
6 -2 10 16.65 8.13
-6 2 -10 6.85 5.92
6 -2 11 50.33 16.23
-6 2 -11 46.73 13.93
6 -2 11 43.28 12.91
-6 2 -12 289.05 35.13
6 -2 12 299.44 37.91
-6 1 12 -3.86 3.84
6 -1 -12 -3.44 3.42
-6 1 12 7.69 6.64
6 -1 -12 3.98 6.86
-6 1 11 80.89 18.21
-6 1 11 126.66 22.44
6 -1 -11 130.96 23.55
6 -1 -10 131.47 21.25
-6 1 10 192.67 27.04
-6 1 10 192.32 26.72
6 -1 -10 196.24 27.8
6 -1 -9 409.46 38.11
-6 1 9 457.04 41.79
-6 1 9 417.51 38.79
6 -1 -9 434.72 41.89
6 -1 -8 92.84 17.25
-6 1 8 65.69 14.37
6 -1 -8 71.83 15.37
6 -1 -8 53.7 14.32
-6 1 8 69.77 15.6
-6 1 7 493.16 39.68
6 -1 -7 479.64 42.66
6 -1 -7 590.12 44.84
6 -1 -7 552.83 43.75
-6 1 6 2.46 2.45
-6 1 6 8.61 3.67
-6 1 6 2.86 2.85
-6 1 6 2.34 4.03
6 -1 -6 2.72 3.83
6 -1 -6 8.98 6.67
6 -1 -6 2.88 4.05
-6 1 5 109.27 17.95
-6 1 5 85.32 11.72
6 -1 -5 126.29 19.45
-6 1 5 121.3 13.87
-6 1 5 131.33 17.32
6 -1 -5 129.23 19.01
-6 1 5 141.79 19.84
-6 1 4 122.65 18.72
-6 1 4 134.01 15.06
6 -1 -4 123.11 19.21
-6 1 4 125.02 16.04
6 -1 -4 134.1 18.49
6 -1 -4 134.9 16.89
-6 1 4 84.93 15.74
-6 1 4 119.83 14.22
-6 1 3 724.77 41.53
-6 1 3 766.47 42.32
6 -1 -3 705.53 47.71
-6 1 3 753.27 41.35
6 -1 -3 813.12 46.72
-6 1 3 754.82 48.97
6 -1 -3 706.3 49.14
6 -1 -2 34.51 9.4
-6 1 2 31.16 6.67
6 -1 -2 30.07 8.66
-6 1 2 23.55 7.04
-6 1 2 32.95 8.2
-6 1 2 26.58 8.38
-6 1 2 28.91 7.03
-6 1 1 187.4 20.49
-6 1 1 209.07 21.51
6 -1 -1 189.72 21.5
6 -1 -1 240.55 24.38
-6 1 1 251.72 25.45
6 -1 0 65.57 12.91
6 -1 0 64.19 11.96
-6 1 0 58.58 11.56
6 -1 0 77.38 11.76
-6 1 0 50.79 10.91
-6 1 0 69.7 13.22
-6 1 -1 859.27 51.45
6 -1 1 894.92 53.76
6 -1 1 865.7 48.36
-6 1 -1 807.66 50.73
6 -1 1 947.87 50.12
-6 1 -1 906.06 52.42
6 -1 2 115.98 14.72
6 -1 2 95.54 16.31
6 -1 2 95.27 14.91
6 -1 3 150.96 20.59
6 -1 3 160.65 20.33
6 -1 4 24.21 8.9
6 -1 4 15.24 6.71
-6 1 -4 10.41 6.37
-6 1 -4 25.11 7.81
6 -1 5 672.89 35.46
6 -1 5 785.19 51.51
-6 1 -5 665.12 43.9
6 -1 5 724.03 49.76
6 -1 6 9.14 3.8
-6 1 -6 9.39 5.73
6 -1 6 8.91 5.92
6 -1 6 20.06 8.08
-6 1 -7 701.65 47.39
6 -1 7 691.29 51.87
-6 1 -8 45.56 11.71
6 -1 8 40.83 12.3
6 -1 8 54.45 13.2
-6 1 -9 206.79 25.49
6 -1 9 224.52 29.69
6 -1 9 191.14 25.66
-6 1 -10 260.12 29.91
6 -1 10 243.29 28.98
6 -1 10 291.09 34.97
6 -1 11 84.64 16.71
-6 1 -11 71.55 16.38
6 -1 11 108.73 21.74
6 -1 12 15.62 8.26
-6 1 -12 37.8 12.36
6 -1 12 25.14 11.06
6 -1 13 30.7 10.66
6 -1 13 43.3 14.35
-6 1 -13 65.04 16.14
-6 0 12 137.21 24.3
6 0 -12 212.15 29.95
6 0 -12 197.6 29.11
6 0 -11 134.27 21.26
-6 0 11 189.94 27.24
6 0 -11 142.84 23.76
-6 0 11 110.63 21.52
6 0 -11 172.08 26.16
-6 0 10 413.85 39.65
6 0 -10 369.46 39.05
-6 0 10 405.56 39.87
6 0 -10 496.23 44.66
-6 0 9 6.21 6.19
6 0 -9 -2.77 4.77
6 0 -9 3.34 5.77
-6 0 9 6.36 5.49
6 0 -9 3.44 4.84
-6 0 8 169.71 23.44
6 0 -8 199.37 26.64
6 0 -8 188.39 25.64
-6 0 8 219.24 26.64
6 0 -8 189.16 23.84
-6 0 7 64.14 13.5
6 0 -7 99.18 17.88
-6 0 7 85.29 16.14
6 0 -7 80.52 15.29
6 0 -7 70.28 14.42
-6 0 6 648.61 44.98
6 0 -6 650.94 48.28
-6 0 6 702.43 47.37
6 0 -6 676.03 46.95
6 0 -6 650.14 46.47
6 0 -5 -2.59 2.58
-6 0 5 4.88 4.21
6 0 -5 2.62 4.52
-6 0 5 2.19 3.78
6 0 -5 -2.77 2.76
-6 0 5 4.64 4.01
-6 0 5 2.58 3.64
-6 0 4 6.92 5.14
6 0 -4 3.48 3
6 0 -4 2.58 2.57
-6 0 4 5.88 3.91
6 0 -4 10.48 5.84
-6 0 4 4.52 2.52
-6 0 4 2.27 1.96
-6 0 4 -2.14 3.01
-6 0 4 7.45 4.94
-6 0 3 15.32 6.56
6 0 -3 20.24 7.57
6 0 -3 20.44 6.43
-6 0 3 20.76 6.23
-6 0 3 11.91 4.4
-6 0 3 12.01 5.88
-6 0 3 20.98 5.56
-6 0 3 19.7 6.82
-6 0 2 932.05 49.47
-6 0 2 901.85 45.62
-6 0 2 848.05 50.12
6 0 -2 986.62 47.58
-6 0 2 972.41 55.13
6 0 -2 882.66 49.79
6 0 -2 958.74 55.79
-6 0 2 845.1 44.56
6 0 -1 275.8 21.23
-6 0 1 281.99 23.67
-6 0 1 282.05 23.54
-6 0 1 286.93 25.6
6 0 -1 319.85 24.89
-6 0 1 283.23 27.13
6 0 -1 257 24.68
6 0 -1 281.11 28.01
-6 0 1 277.23 23.36
6 0 0 1559.02 74.22
6 0 0 1680.09 78.66
-6 0 0 1711.78 78.07
-6 0 0 1555.26 68.12
6 0 0 1572.31 71.14
-6 0 0 1414.79 70.49
6 0 1 501.09 36.75
6 0 1 432.4 35.27
-6 0 -1 535.49 38.16
-6 0 -1 478.99 30.7
6 0 1 536.37 35.95
-6 0 -1 466.78 33.96
-6 0 -2 513.95 38.08
6 0 2 493.16 35.89
6 0 2 524.75 38.45
-6 0 -2 508.54 31.26
-6 0 -3 8.5 4.24
-6 0 -3 4.79 4.14
6 0 3 13.18 5.79
6 0 3 9.62 5.36
6 0 3 11.38 5.56
-6 0 -4 579.01 33.84
-6 0 -4 620.12 33.14
-6 0 -4 620.36 43.31
6 0 4 620.99 43.11
6 0 4 645.29 44.16
6 0 4 624.31 40.79
-6 0 -4 558.5 35.82
-6 0 -5 1.79 2.53
6 0 5 -2.56 3.6
6 0 5 2.57 2.56
-6 0 -5 1.17 1.64
-6 0 -6 73.87 12.55
6 0 6 78.27 15.33
6 0 6 50.46 12.28
-6 0 -6 70.36 9.45
-6 0 -7 6.36 4.23
-6 0 -7 12.93 3.88
6 0 7 8.52 6.33
-6 0 -8 705.15 34.56
-6 0 -8 726.46 46.49
6 0 8 671.32 48.71
-6 0 -8 724.07 34.02
6 0 9 3.41 3.4
-6 0 -9 4.98 4.3
6 0 9 8.62 5.73
-6 0 -9 6.17 3.48
6 0 10 83.37 18.26
-6 0 -10 80.81 15.88
6 0 10 114.17 19.09
-6 0 -10 96.83 12.61
6 0 11 50.61 12.99
-6 0 -11 31.91 10.51
6 0 12 292.49 31.44
6 0 12 291.34 25.86
-6 0 -12 279.9 31.16
6 0 12 269.25 34.97
-6 0 -13 26.44 9.93
6 0 13 44.24 12.15
6 0 13 37.7 13.23
-6 0 -14 164.06 25.36
6 0 14 189.21 24.44
6 1 -12 58.76 16.21
6 1 -12 78.34 17.93
6 1 -11 232.24 30.07
6 1 -11 153.21 25
6 1 -10 -3.54 3.53
6 1 -10 10.51 6.98
-6 -1 10 6.29 5.42
-6 -1 9 112.05 19.91
6 1 -9 94.26 18.9
6 1 -9 97.38 18.55
-6 -1 9 90.82 17.26
6 1 -9 107.01 17.29
6 1 -8 5.25 4.53
6 1 -8 3.18 3.17
-6 -1 8 -3.05 3.03
6 1 -8 6.41 4.52
6 1 -8 2.4 3.39
6 1 -8 7.51 6.1
-6 -1 8 5.43 4.68
-6 -1 7 128.26 18.83
6 1 -7 68.13 14.15
-6 -1 7 106.1 18.07
6 1 -7 119.15 19.73
6 1 -7 128.9 20.05
6 1 -7 125.09 17.37
6 1 -7 111.8 17.24
6 1 -7 96.82 15.5
6 1 -6 73.5 13.91
6 1 -6 53.61 11.23
-6 -1 6 46.72 11.29
-6 -1 6 66.86 13.69
-6 -1 6 63.86 13.33
6 1 -6 72.84 15.18
6 1 -6 51.9 12.24
6 1 -6 56.06 11.46
6 1 -5 414.33 35.04
-6 -1 5 410.86 33.49
-6 -1 5 379.9 33.04
6 1 -5 361.85 29.3
-6 -1 5 416.23 35.19
-6 -1 5 446.89 33.72
-6 -1 4 111.45 15.69
-6 -1 4 131.43 10.57
6 1 -4 119.62 15.66
6 1 -4 147.81 16.38
6 1 -4 153.31 20.53
-6 -1 4 123.82 10.22
-6 -1 4 131.55 18.19
-6 -1 4 121.1 17.97
6 1 -3 1462.56 62.69
-6 -1 3 1504.66 74.73
-6 -1 3 1542.75 70.26
6 1 -3 1431.73 66.87
6 1 -3 1481.83 74.75
-6 -1 3 1533.21 72.39
-6 -1 2 20.26 7.02
6 1 -2 23 6.14
-6 -1 2 26.27 5.86
-6 -1 2 13.77 6.5
6 1 -2 21.69 7.99
6 1 -2 31.69 8.12
-6 -1 2 30.28 7.76
-6 -1 2 20.06 5.17
6 1 -1 551.92 40.79
6 1 -1 612.77 39.1
-6 -1 1 644.3 42.07
-6 -1 1 580.8 38.15
6 1 -1 577.62 35.81
-6 -1 1 599.66 36.48
6 1 0 32.71 8.66
6 1 0 29.92 8.9
-6 -1 0 15.47 6.26
6 1 0 21.78 6.79
-6 -1 0 14.58 5.48
-6 -1 0 24.2 6.65
6 1 1 996.9 56.23
6 1 1 988.59 54.67
-6 -1 -1 1018.86 56.19
-6 -1 -1 970.01 50.48
-6 -1 -1 1054.28 52.16
6 1 1 947.75 52
-6 -1 -1 966.39 48.98
6 1 2 4.15 3.58
6 1 2 2.21 3.12
-6 -1 -2 8.92 4.96
-6 -1 -2 -1.66 2.33
-6 -1 -2 3.45 3.43
-6 -1 -2 4.72 3.14
-6 -1 -3 89.37 12.53
-6 -1 -3 104.61 16.1
6 1 3 65.69 12.44
6 1 3 123.78 17.61
-6 -1 -3 124.84 15.02
6 1 3 94.9 15.01
6 1 4 191.54 22.06
6 1 4 133.47 17.36
6 1 4 177.89 21.49
-6 -1 -4 196.36 22.2
-6 -1 -4 143.65 15.91
-6 -1 -4 145.7 14.45
6 1 5 1105.33 60.62
-6 -1 -5 1124.72 60.48
-6 -1 -5 998.01 49.19
6 1 5 941.56 52.61
6 1 5 983.45 57.61
-6 -1 -5 942.87 47.01
-6 -1 -6 32.19 3.19
-6 -1 -6 34.52 7.72
-6 -1 -6 38.93 8.1
6 1 6 40.5 10.74
6 1 6 45.44 9.67
6 1 6 49.42 11.91
-6 -1 -7 127.77 9.84
6 1 7 113.12 15.11
-6 -1 -7 139.93 16.4
6 1 7 128.44 19.79
-6 -1 -7 130.53 14.73
6 1 8 19.98 8.56
-6 -1 -8 33.04 8.47
-6 -1 -8 25.81 6.46
6 1 9 139.91 20.28
6 1 9 152.25 22.21
-6 -1 -9 141.56 18.31
-6 -1 -9 123.11 14.68
-6 -1 -10 160.31 20.71
6 1 10 162.21 22.18
-6 -1 -10 199.47 18.7
6 1 11 1071.66 63.9
-6 -1 -11 1016.55 50.85
-6 -1 -11 1001.71 60.05
6 1 11 1038.03 65.76
6 1 12 131.3 20.22
-6 -1 -12 117.21 18.79
-6 -1 -13 198.58 25.31
6 1 13 176.1 23.79
6 1 14 28.01 9.29
-6 -1 -14 32.15 11.12
-6 -1 -15 197.09 27.36
6 1 15 236.26 33.44
6 2 -12 13.88 8.49
6 2 -12 42.48 13.89
6 2 -12 32.3 10.75
6 2 -11 51.94 14.42
6 2 -11 73.92 16.54
6 2 -10 439.91 39.32
6 2 -10 382.8 38.51
6 2 -10 340.28 37.06
6 2 -9 2.93 4.13
6 2 -9 3.39 4.77
6 2 -9 6.59 5.69
6 2 -9 5.33 5.31
6 2 -8 104.77 19.07
6 2 -8 141.39 22.02
6 2 -8 123.66 19.13
6 2 -8 149.9 20.63
6 2 -8 123.64 18.69
6 2 -7 6.85 5.08
6 2 -7 -2.57 2.56
-6 -2 7 14 6.15
6 2 -7 9.14 6.07
6 2 -7 7.45 4.94
-6 -2 7 3.03 5.22
6 2 -7 10.52 5.86
-6 -2 6 678.52 43.23
6 2 -6 699.83 46.04
-6 -2 6 738.81 50.47
6 2 -6 685.77 47.19
6 2 -6 611.41 43.44
-6 -2 5 71.32 12.33
6 2 -5 59.3 13.02
6 2 -5 76.58 13.64
-6 -2 5 74.14 14.6
6 2 -5 87.96 14.71
-6 -2 4 370.96 28.71
6 2 -4 356.46 33.08
6 2 -4 435.88 29.7
-6 -2 4 440.92 35.45
6 2 -4 400.5 32.77
-6 -2 4 475.28 36.87
6 2 -4 487 34.57
-6 -2 3 89.85 12.34
6 2 -3 58.18 9.72
-6 -2 3 74.48 7.38
6 2 -3 58.03 10.56
6 2 -3 81.5 14.7
-6 -2 3 63.57 12.79
-6 -2 3 77.55 14
6 2 -3 95.19 14.93
-6 -2 3 63.41 6.84
-6 -2 2 1345.68 65.96
-6 -2 2 1246.55 64.82
6 2 -2 1185.65 65.32
6 2 -2 1188.43 59.92
6 2 -2 1243.01 57.99
-6 -2 2 1266.41 56.69
-6 -2 1 2.12 2.99
-6 -2 1 6.57 4.36
6 2 -1 5.85 3.88
6 2 -1 2.36 4.7
6 2 -1 -1.71 2.41
-6 -2 1 1.36 1.91
-6 -2 0 797.33 46.49
-6 -2 0 748.62 45.46
-6 -2 0 752.06 46.24
6 2 0 806.95 49.12
6 2 0 769.7 45.85
6 2 0 756.66 43.58
-6 -2 0 727.05 37.94
-6 -2 -1 -2 1.99
6 2 1 4.22 3.64
6 2 1 -2.24 2.23
-6 -2 -1 4.23 3.65
-6 -2 -1 1.96 2.76
-6 -2 -1 1.21 2.08
6 2 1 3.88 3.87
-6 -2 -2 187.69 20.66
6 2 2 177.15 20.72
6 2 2 236.8 23.06
-6 -2 -2 190.97 21.34
-6 -2 -2 250.13 22.88
-6 -2 -2 200.42 16.64
6 2 3 97.26 15.33
6 2 3 95.7 14.91
-6 -2 -3 75.56 12.3
-6 -2 -3 103.46 15.39
-6 -2 -3 80.17 10.29
6 2 4 246.73 24.29
6 2 4 280.57 27.07
6 2 4 298.61 27.89
-6 -2 -4 280.41 26.63
-6 -2 -4 289.79 24.55
6 2 5 214.88 21.82
6 2 5 195.52 23.13
6 2 5 181.66 22.31
-6 -2 -5 205.2 22.74
-6 -2 -5 180.7 19.3
6 2 6 329.57 27.51
6 2 6 415.68 34.04
6 2 6 404.41 34.45
-6 -2 -6 340.51 22.99
-6 -2 -6 298.07 25.67
6 2 7 58.9 12.88
6 2 7 52.47 10.35
6 2 7 77.88 15
-6 -2 -7 62.16 9.81
-6 -2 -7 60.4 11.08
6 2 8 1576.83 68.65
6 2 8 1533.86 80.19
-6 -2 -8 1469.16 66.47
-6 -2 -8 1505.55 69.81
6 2 9 24.17 8.47
6 2 9 15.45 5.35
6 2 9 17.58 8.27
-6 -2 -9 12.83 5.5
-6 -2 -9 15.34 5.75
6 2 10 151.76 15.39
6 2 10 156.13 21.43
-6 -2 -10 137.62 17.81
-6 -2 -10 174.29 19.45
6 2 11 56.69 14.13
-6 -2 -11 61.61 12.36
-6 -2 -11 44.92 10.11
6 2 12 444.56 38.44
6 2 12 485.89 42.53
-6 -2 -12 444.62 36.68
-6 -2 -12 445.85 33.7
6 2 13 9.94 6.6
6 2 13 2.79 3.93
-6 -2 -13 10.78 5.26
-6 -2 -13 5.47 4.72
6 2 14 49.34 12.29
-6 -2 -14 50.21 12.9
-6 -2 -15 59.91 14.53
6 2 15 88.01 20.12
6 3 -12 64.39 16.56
6 3 -12 68.25 17
6 3 -11 84.22 18.41
6 3 -11 91.91 18.43
6 3 -11 83.54 18.26
6 3 -10 38.92 12.72
6 3 -10 46.69 12.88
6 3 -10 6.91 5.98
6 3 -10 28.09 10.32
6 3 -9 757.9 55.35
6 3 -9 738.18 56.37
6 3 -9 781.23 53.97
6 3 -9 790.67 56.03
6 3 -8 53.98 12.41
6 3 -8 60.06 14.5
6 3 -8 49.18 12.65
6 3 -8 43.1 11.97
6 3 -7 288.52 30.03
6 3 -7 330.49 32.06
-6 -3 7 337.48 34.28
6 3 -7 274.86 30.02
6 3 -6 147.32 20.77
6 3 -6 133.5 19.66
6 3 -6 152.53 21.11
-6 -3 6 164.85 23.14
6 3 -5 84.87 15.35
-6 -3 5 90.49 16.36
6 3 -5 74.61 14.47
6 3 -4 14.88 6.99
-6 -3 4 18.34 5.71
-6 -3 4 5.37 4.65
6 3 -4 12.11 5.92
6 3 -3 1605.34 71.54
6 3 -3 1508.15 62.36
-6 -3 3 1153.63 41.08
-6 -3 3 1621.02 74.71
6 3 -3 1504.67 70.76
-6 -3 3 1545.07 71.16
-6 -3 3 1201.91 41
-6 -3 3 1488.93 58.22
-6 -3 2 3.49 2.59
-6 -3 2 2.43 2.42
6 3 -2 -2.35 2.34
6 3 -2 3.5 3.02
-6 -3 1 365.51 31.18
6 3 -1 334.75 29.81
6 3 -1 346.73 27.21
-6 -3 1 369.74 31.23
-6 -3 1 276.7 26.85
-6 -3 0 9.13 5.09
6 3 0 11.72 5.15
-6 -3 0 8.32 5.08
-6 -3 -1 407.87 33.63
-6 -3 -1 496.11 24.37
-6 -3 -1 489.54 34.83
6 3 1 459.92 33.87
-6 -3 -2 66.64 12.15
-6 -3 -2 53.38 6.59
6 3 2 51.27 10.94
-6 -3 -2 28.85 8.96
6 3 3 305.8 27.74
-6 -3 -3 263.12 16.2
-6 -3 -3 284.93 25.99
-6 -3 -3 315.68 27.35
-6 -3 -4 33.3 8.85
-6 -3 -4 29.05 8.58
6 3 4 39.63 10.17
6 3 4 44.62 9.71
6 3 4 25.22 7.55
-6 -3 -4 36.76 5.49
6 3 5 1321.35 67.31
6 3 5 1216.4 62.34
6 3 5 1300.86 63.74
-6 -3 -5 1266.25 63.48
-6 -3 -5 1168.77 61.97
-6 -3 -5 1161.56 44.24
6 3 6 50.6 11.26
6 3 6 27.61 8.62
-6 -3 -6 27.3 7.87
-6 -3 -6 17.72 7.03
6 3 6 43.28 10.79
6 3 7 498.11 39.66
6 3 7 454.88 33.14
6 3 7 558.93 40.58
6 3 7 516.73 39.2
-6 -3 -7 508.77 36.84
-6 -3 -7 499.41 27.8
6 3 8 46.6 9.71
6 3 8 80.03 15.09
6 3 8 66.73 13.88
-6 -3 -8 35.07 9.37
6 3 8 41.84 11.54
-6 -3 -8 46.58 8.18
6 3 9 466.6 39.43
6 3 9 369.73 27.95
6 3 9 387.07 34.84
6 3 9 431.56 37.55
6 3 9 514.12 40.73
-6 -3 -9 407.61 28.4
-6 -3 -9 397.17 32.71
6 3 10 3.05 4.29
-6 -3 -10 2.33 3.28
6 3 10 -3.05 3.03
-6 -3 -10 3.6 3.58
6 3 10 -2.76 3.88
6 3 10 1.49 2.96
-6 -3 -11 272.45 25.43
6 3 11 275.75 31.28
6 3 11 326.75 32.13
-6 -3 -11 303.58 28.86
6 3 12 61.2 14.85
-6 -3 -12 67.97 13.13
6 3 12 67.27 14.38
-6 -3 -12 89.75 15.64
6 3 13 75.66 16.51
-6 -3 -13 72.45 14.01
6 3 13 83.79 15.87
-6 -3 -13 59.11 12.97
6 3 14 116.17 20.7
-6 -3 -14 131.78 19.46
6 3 14 118.19 18.92
-6 -3 -14 133.33 20.25
6 3 15 295.97 33.06
6 3 15 310.76 30.43
-6 -3 -15 269.3 29.95
-6 -3 -16 3.11 4.39
6 4 -11 136.4 22.82
6 4 -11 98.24 20.2
6 4 -11 93.23 18.82
6 4 -10 538.58 46.64
6 4 -10 478.09 45.89
6 4 -10 514.33 45.47
6 4 -9 162.4 24.11
6 4 -9 122.16 21.15
6 4 -9 115.66 20.31
6 4 -9 111.14 20.84
6 4 -8 98.51 19.15
6 4 -8 109.45 18.23
6 4 -8 165.38 23.76
-6 -4 8 116.22 21.04
6 4 -7 15.56 7.61
6 4 -7 22.51 9.07
-6 -4 7 20.04 8.82
6 4 -6 653.83 48.86
6 4 -6 654.06 49.19
-6 -4 6 674.98 50.83
6 4 -5 25.56 8.95
6 4 -5 11.51 7.02
-6 -4 5 6.03 5.21
6 4 -4 49.16 12.22
6 4 -4 30.07 9.89
-6 -4 4 46.05 12.22
6 4 -3 23.7 8.33
6 4 -3 25.94 8.6
6 4 -3 26.75 7.65
-6 -4 3 33 10.28
6 4 -2 698.26 42.31
6 4 -2 680.17 46.21
-6 -4 2 650.27 43
-6 -4 2 587.68 44.45
-6 -4 2 648.37 45.77
6 4 -1 304.44 27.04
6 4 -1 350.03 31.38
-6 -4 1 342.93 31.14
-6 -4 1 311.93 27.45
-6 -4 1 241.36 27.09
6 4 0 643.08 41.55
-6 -4 0 555.84 41.75
6 4 0 643.64 43.91
-6 -4 0 591.61 42.44
-6 -4 0 594.79 39.12
-6 -4 -1 29.76 9.29
6 4 1 33.65 9.53
6 4 1 40.62 7.95
-6 -4 -1 41.04 10.53
-6 -4 -1 27.38 7.85
6 4 1 32.24 7.19
6 4 2 710.75 40.44
6 4 2 722.56 47.1
-6 -4 -2 819.95 49.56
-6 -4 -2 749 44
6 4 2 708.18 40.19
6 4 3 50.46 11.3
6 4 3 39.17 8.97
-6 -4 -3 61.15 12.69
-6 -4 -3 64.99 11.5
6 4 3 33.79 8.23
6 4 4 1285.07 63.22
-6 -4 -4 1333.02 63.78
6 4 4 1282.52 68.88
6 4 4 1302.53 63.46
6 4 5 115.71 16.36
-6 -4 -5 110.75 15.52
6 4 5 92 14.57
6 4 5 74.45 14.74
-6 -4 -6 38.7 4.56
-6 -4 -6 42.93 10.02
-6 -4 -6 50.19 11.45
6 4 6 55.78 11.84
6 4 6 39.83 11.26
6 4 6 58.01 12.04
-6 -4 -6 25.08 2.74
6 4 7 35.06 10.02
6 4 7 32.61 10.34
-6 -4 -7 44.7 10.43
-6 -4 -7 29.22 9.12
6 4 7 24.69 9.11
6 4 8 593.41 44.69
6 4 8 589.5 43.42
6 4 8 566.1 42.55
-6 -4 -8 627.3 41.14
-6 -4 -8 469.42 38.29
-6 -4 -8 509.74 28.52
6 4 9 -2.88 4.05
6 4 9 -2.88 4.06
-6 -4 -9 2.57 3.62
-6 -4 -9 -1.33 2.29
6 4 9 5.88 5.07
6 4 10 366.19 27.26
6 4 10 347.43 34.61
6 4 10 365.26 35.62
-6 -4 -10 390.69 34.18
-6 -4 -10 339.19 25.99
6 4 11 18.91 8.31
-6 -4 -11 1.82 3.14
-6 -4 -11 3.1 4.36
6 4 11 6.53 5.63
6 4 11 9.78 6.49
-6 -4 -11 2.75 4.75
6 4 11 8.59 5.7
6 4 11 1.49 2.57
-6 -4 -12 414.62 32.1
6 4 12 425.85 39.91
-6 -4 -12 480.2 42.55
6 4 12 472.07 42.49
-6 -4 -12 392.63 36.34
6 4 12 472.33 42.79
6 4 12 385.61 36.15
6 4 13 89.19 17.52
6 4 13 86.99 18.51
-6 -4 -13 49.89 12.88
6 4 13 76.09 17.41
-6 -4 -13 68.91 13.08
6 4 13 51.57 12.91
6 4 14 22.68 10.7
6 4 14 47.77 12.25
6 4 14 52.89 14.61
-6 -4 -14 32.78 9.78
6 4 14 36.7 11.56
6 4 15 27.17 9.04
6 4 15 59.8 14.84
-6 -4 -15 43.66 11.9
6 4 16 228.42 28.73
-6 -4 -16 224.42 26.79
6 5 -10 12.1 9
6 5 -10 38.25 13.75
6 5 -9 379.47 40.47
6 5 -9 341.78 35.81
6 5 -9 274.89 34.24
6 5 -8 122.14 22.29
6 5 -8 78.87 17.71
6 5 -7 35.28 12.26
6 5 -7 75.8 17.22
6 5 -6 60.44 15.03
6 5 -6 42.77 12.78
-6 -5 5 252.53 30.1
6 5 -5 280.35 31.15
6 5 -5 229.39 28.09
-6 -5 4 -3.08 4.33
6 5 -4 3.04 3.02
6 5 -4 -3 4.23
-6 -5 3 659.5 49.3
6 5 -3 773.37 52.02
6 5 -3 629.39 43.13
6 5 -3 781.92 52.25
-6 -5 2 -2.87 5.71
-6 -5 2 11.35 6.92
6 5 -2 -2.3 3.25
6 5 -2 2.78 3.92
-6 -5 1 190.12 24.24
-6 -5 1 202.17 24.81
6 5 -1 204.06 23.11
6 5 -1 245.08 26.84
-6 -5 0 368.81 34.27
-6 -5 0 396.68 30.29
-6 -5 0 439.18 36.7
6 5 0 382.9 33.85
6 5 0 324.08 30.48
6 5 1 1459.66 73.05
-6 -5 -1 1315.58 71.79
6 5 1 1268.75 68.57
-6 -5 -1 1307.74 62.94
-6 -5 -1 1290.03 71.44
-6 -5 -2 32.6 9.81
6 5 2 30.74 9.6
6 5 2 40.42 8.62
6 5 2 37.05 8.28
-6 -5 -2 37.97 8.88
-6 -5 -2 34.17 10.19
6 5 3 210.36 25.08
6 5 3 247.25 23.01
6 5 3 281.43 24.44
-6 -5 -3 265.22 27.64
-6 -5 -3 241.97 22.33
6 5 4 594.29 44.72
6 5 4 668.27 41.88
6 5 4 653.55 41.41
-6 -5 -4 619.15 44.74
-6 -5 -4 649.58 38.96
6 5 5 702.41 48.18
6 5 5 604.04 41.34
6 5 5 614.7 41.55
-6 -5 -5 613.48 38.25
-6 -5 -5 615.14 44.8
6 5 6 93.98 16.93
6 5 6 94.32 15.39
6 5 6 89.74 15.05
-6 -5 -6 53.31 10.59
6 5 7 134.52 20.73
6 5 7 132.68 19.23
6 5 7 119.93 18.37
-6 -5 -7 126.07 16.35
6 5 8 15 7.33
6 5 8 13.96 7.36
6 5 8 8.35 6.21
6 5 9 425.38 37.99
-6 -5 -9 363.43 23.65
-6 -5 -9 444.34 38.06
6 5 9 436.47 38.39
6 5 10 173.46 24.2
-6 -5 -10 187.8 24.01
-6 -5 -10 153.33 15.64
-6 -5 -10 142.76 21.49
6 5 10 189.54 25.43
-6 -5 -11 591.32 36.03
6 5 11 527 45.17
6 5 11 560.59 47.02
-6 -5 -11 568.44 45.95
-6 -5 -11 592.91 46.49
6 5 11 658.69 50.51
-6 -5 -12 48.97 10.03
6 5 12 62.45 15.07
6 5 12 59.88 15.36
-6 -5 -12 45.42 13
6 5 12 42.18 13.18
-6 -5 -12 41.23 12.32
6 5 13 73.77 16.47
-6 -5 -13 58.82 14.74
6 5 13 73.76 17.33
6 5 13 96.08 19.57
-6 -5 -13 80.43 13.63
6 5 13 38.7 11.64
6 5 14 -3.85 5.42
6 5 14 3.84 3.83
6 5 14 -2.92 4.12
6 5 14 -3.38 4.76
-6 -5 -14 3.66 3.65
-6 -5 -15 361.56 39.47
6 5 15 325.69 37.89
6 5 15 348.79 36.35
6 5 15 400.86 42.16
6 5 15 335.82 32.94
6 5 16 6.57 6.54
-6 -6 8 7.44 6.43
6 6 -8 19.87 9.7
6 6 -8 19.46 10.26
-6 -6 7 7.2 6.22
-6 -6 7 21.61 9.5
6 6 -7 11.42 7.6
6 6 -7 26.29 10.59
-6 -6 6 214.46 27.9
-6 -6 6 159.89 24.42
6 6 -6 142.12 23.69
6 6 -6 130.02 22.64
-6 -6 5 27.88 10.28
-6 -6 5 36.96 11.64
6 6 -5 27.86 10.45
6 6 -5 65.58 15.79
-6 -6 4 136.52 20.71
-6 -6 4 140.32 22.48
6 6 -4 191.37 26.04
6 6 -4 149.98 23.42
6 6 -3 41.03 12.21
6 6 -3 41.6 11.02
6 6 -3 22.38 9.59
-6 -6 3 25.86 8.97
-6 -6 2 1046.36 64.34
6 6 -2 968.84 62.67
6 6 -2 973.65 59.02
-6 -6 1 9 6.69
6 6 -1 5.86 5.06
6 6 -1 10.86 5.42
6 6 0 391.2 35.59
-6 -6 0 360.65 35.17
-6 -6 0 340.27 34.08
6 6 0 403.49 35.54
-6 -6 -1 154.72 22.18
-6 -6 -1 163.03 22.7
6 6 1 129.41 19.88
-6 -6 -2 272.23 29.71
-6 -6 -2 302.44 31.63
6 6 2 323.99 32.09
-6 -6 -3 49.33 12.73
6 6 3 69.25 12.31
6 6 3 58.35 13.44
6 6 3 74.99 12.74
-6 -6 -4 434.93 37.83
6 6 4 337.42 29.89
6 6 4 404.19 36.83
6 6 4 362.58 30.9
-6 -6 -5 2.94 4.15
6 6 5 7.21 5.35
6 6 5 9.09 6.04
6 6 5 7.18 5.33
-6 -6 -6 285.65 30.73
6 6 6 302.43 29.61
6 6 6 340.18 33.87
6 6 6 269.97 28.1
-6 -6 -7 48.57 12.91
6 6 7 69.15 14.12
6 6 7 50.51 13.04
6 6 7 35.76 10.71
-6 -6 -8 843.58 57.6
6 6 8 920.16 58.6
6 6 8 890.6 60.07
6 6 8 853.72 56.64
6 6 9 3.13 5.4
6 6 9 6.23 6.2
-6 -6 -10 43.31 11.77
6 6 10 23.12 9.33
6 6 10 9.95 6.63
6 6 10 26.34 9.86
6 6 11 -3.36 3.34
-6 -6 -11 2.93 4.13
6 6 11 3.48 3.46
-6 -6 -11 3.38 4.76
6 6 11 10.41 6.91
6 6 12 454.18 41.75
6 6 12 451.17 42.91
-6 -6 -12 350.81 36.42
6 6 12 437.5 42.37
-6 -6 -12 410.45 40.44
6 6 13 10.26 8.35
-6 -6 -13 13.51 8.25
6 6 13 15.19 8.47
6 6 13 7.58 6.55
-6 -6 -13 21.43 9.42
-6 -6 -14 175.39 26.26
6 6 14 220.23 30.56
6 6 14 192.22 27.23
-6 -6 -14 168.12 26.29
6 6 14 169.46 27.15
6 6 15 150.59 22.62
6 6 15 228.52 29.3
6 7 -7 189.3 29.21
-6 -7 7 156.91 25.56
6 7 -7 241.53 32.08
-6 -7 7 212.94 29.38
6 7 -6 163.06 26.58
-6 -7 6 135.4 23.13
6 7 -6 158.97 25.98
-6 -7 6 140.01 23.27
6 7 -5 224.51 30.38
-6 -7 5 149.5 24.45
6 7 -5 235.23 30.77
-6 -7 5 221.27 28.67
-6 -7 4 20.41 8.98
6 7 -4 14.32 7.99
-6 -7 3 266.29 31.59
6 7 -3 291.22 33.68
6 7 -3 334.84 33.22
-6 -7 2 9.78 5.64
6 7 -2 12.19 6.8
-6 -7 2 19.47 8.56
-6 -7 1 45.06 12.47
6 7 -1 40.24 11.6
-6 -7 1 38.59 11.61
6 7 0 -3.06 5.28
6 7 0 -3.14 4.42
-6 -7 0 -3.2 3.19
-6 -7 -1 1150.3 71
-6 -7 -1 1111.03 69.45
6 7 1 1208.9 70.09
6 7 1 1271.1 73.49
-6 -7 -2 12.65 7.06
6 7 2 14.43 7.05
6 7 2 16.09 8.49
6 7 3 400.12 38.26
-6 -7 -3 383.99 37.28
-6 -7 -4 16.02 7.84
6 7 4 21.82 7.66
6 7 4 19.78 8.71
6 7 4 24.18 8.01
-6 -7 -5 145.7 22.48
6 7 5 140.73 19.85
6 7 5 133.7 22.21
6 7 5 140.26 20.12
-6 -7 -6 71.94 15.81
6 7 6 91.91 16.59
6 7 6 91.37 18.32
6 7 6 83.27 15.83
-6 -7 -7 60.06 14.59
6 7 7 71.03 15.13
6 7 7 51.43 14.18
6 7 7 56.07 13.58
-6 -7 -8 105.68 20.08
6 7 8 112.94 19.8
6 7 8 128.66 21.88
6 7 8 112.48 19.47
-6 -7 -9 593.23 49.63
6 7 9 592.79 48.57
6 7 9 669.21 50.99
6 7 10 -3.47 5.98
6 7 10 3.49 3.47
-6 -7 -10 3.58 5.04
6 7 10 3.54 4.98
-6 -7 -10 -2.57 3.62
6 7 11 406.61 41.31
6 7 11 397.88 40.72
-6 -7 -11 410.87 41.23
6 7 11 369.68 38.78
-6 -7 -11 423.61 37.03
6 7 12 22.73 10.7
6 7 12 22.8 10.04
6 7 12 28.35 10.61
-6 -7 -12 30.32 10.49
6 7 13 58.9 16.22
-6 -7 -13 61.49 16.34
6 7 13 81.24 17.68
-6 -7 -13 55.22 14.58
6 7 13 55.11 15.29
6 7 14 7 6.05
-6 -7 -14 37.91 11.9
-6 -8 5 84.13 17.97
-6 -8 4 17.3 8.46
-6 -8 3 76.43 18.03
6 8 -3 87.94 19.47
-6 -8 3 92.67 18.89
-6 -8 2 481.38 43.74
6 8 -2 504.6 45.6
-6 -8 2 500.08 46.69
6 8 -2 495.56 44.59
-6 -8 2 526.18 45.33
-6 -8 1 272.44 31.88
6 8 -1 258.04 31.45
6 8 -1 268.87 32.28
-6 -8 1 284.7 32.64
-6 -8 0 254.94 30.67
6 8 0 219.16 28.3
-6 -8 0 267.12 33.17
6 8 0 254.36 31.24
-6 -8 0 200.45 27.73
-6 -8 -1 -3.36 4.74
-6 -8 -1 -3.72 5.24
6 8 1 -3.16 4.45
6 8 1 7.13 6.15
-6 -8 -1 3.4 4.79
-6 -8 -2 206.33 27.42
6 8 2 183.54 24.93
-6 -8 -2 216.7 29.66
6 8 2 226.41 29.7
-6 -8 -2 214.35 28.19
-6 -8 -3 61.5 15.31
-6 -8 -3 41.09 12.41
-6 -8 -3 65.16 16.21
6 8 3 79.8 17.78
6 8 4 354.13 37.84
-6 -8 -4 322 35.53
-6 -8 -5 84.26 18.04
6 8 5 116.28 18.93
6 8 5 84.64 18.89
6 8 5 90.48 16.65
-6 -8 -6 74.63 17.55
6 8 6 90.38 17.19
6 8 6 107.55 21.07
6 8 6 108.11 18.64
-6 -8 -7 7.22 6.23
6 8 7 9.55 6.34
6 8 7 3.73 5.26
6 8 7 3.17 5.48
-6 -8 -8 460.04 44.05
6 8 8 519.76 44.45
6 8 8 410.93 40.24
-6 -8 -9 3.76 5.3
6 8 9 -3.51 6.06
6 8 9 3.5 3.49
-6 -8 -10 107.69 21.21
6 8 10 99.15 19.6
6 8 10 139.87 23.72
6 8 10 91.41 18.83
6 8 11 3.8 5.35
6 8 11 3.82 5.38
-6 -8 -11 3.92 3.9
6 8 11 3.76 5.3
-6 -8 -11 -2.6 2.59
6 8 12 372.29 40.56
6 8 12 335.75 37.64
-6 -8 -12 342.64 33.39
6 8 12 358.48 40.17
-6 -8 -13 3.05 5.26
-6 -9 3 132.64 22.29
-6 -9 2 13.63 8.32
6 9 -2 26.57 10.7
6 9 -2 3.69 7.36
-6 -9 1 44.29 13.24
6 9 -1 46.26 13.82
-6 -9 0 23.93 10.24
-6 -9 0 16.46 10.06
6 9 0 23.98 10.26
6 9 0 23.43 11.02
-6 -9 0 24.62 10.53
-6 -9 -1 485.64 44.28
6 9 1 439.99 43.98
-6 -9 -1 530.11 49.96
6 9 1 618.44 52.53
-6 -9 -1 501.61 45.3
-6 -9 -2 -3.49 3.47
-6 -9 -2 4.03 5.67
6 9 2 -3.97 5.59
-6 -9 -2 3.58 3.57
-6 -9 -3 11.91 7.91
6 9 3 3.99 5.62
-6 -9 -3 7.24 7.22
-6 -9 -4 7.18 7.15
-6 -9 -4 -3.9 5.49
-6 -9 -4 7.33 7.3
6 9 4 8.01 9.78
-6 -9 -5 383.96 40.15
6 9 5 470.04 45.4
-6 -9 -5 376.13 40.15
6 9 6 -4.03 5.68
-6 -9 -6 11.36 8.44
6 9 7 183.31 26.3
6 9 7 199.53 27.27
-6 -9 -7 245.49 32.13
6 9 7 270.51 34.23
-6 -9 -8 121.11 23.08
6 9 8 170.14 25.57
6 9 8 149.37 24.4
6 9 9 221.51 29.87
-6 -9 -9 234.33 31.79
6 9 9 200 28.8
6 9 9 217.13 30.89
-7 5 3 122.26 21.58
-7 5 3 177.6 25.6
-7 5 2 86.68 18.89
-7 5 2 100.84 19.51
-7 5 1 104.41 20.71
7 -5 -1 176.79 25.95
7 -5 0 34.66 12
7 -5 1 148.89 23.24
7 -5 2 3.13 5.41
7 -4 -6 15.96 8.9
-7 4 5 127.96 20.16
7 -4 -5 113.7 22.39
-7 4 5 130.78 20.15
-7 4 4 26.94 9.46
-7 4 4 36.05 10.81
-7 4 4 19.35 8.3
-7 4 3 3.12 4.4
-7 4 3 3.13 4.41
7 -4 -3 3.74 5.27
-7 4 3 5.54 5.52
-7 4 2 910.12 61.12
7 -4 -2 865.36 63.46
-7 4 2 906.83 61.47
-7 4 2 924.51 57.88
-7 4 1 16.86 8.23
7 -4 -1 17.66 9.31
-7 4 1 3.38 5.84
-7 4 1 16.86 7.92
-7 4 0 108.23 20.08
7 -4 0 58.18 15
-7 4 0 56.05 14.95
-7 4 0 79.92 15.71
-7 4 -1 43.4 13.54
-7 4 -1 47.28 14.08
7 -4 1 49.44 13.59
-7 4 -1 34.83 10.89
-7 4 -2 213.64 29.59
7 -4 2 180.07 25.36
-7 4 -2 249.1 31.63
-7 4 -2 231.65 27.67
-7 4 -3 85.37 17.02
-7 4 -3 77.31 17.75
7 -4 3 48.12 13.2
-7 4 -3 66.24 17.02
7 -4 4 53.82 12.69
-7 4 -4 37.8 11.81
-7 4 -5 103.3 21.56
-7 4 -5 94.16 20.17
-7 4 -5 91.05 18.25
-7 4 -6 261.68 31.39
-7 3 9 300.26 31.72
7 -3 -8 97.49 20.75
7 -3 -7 34.72 12.78
7 -3 -6 17.11 7.53
7 -3 -6 18.99 10.02
-7 3 5 403.04 37.45
-7 3 5 419.67 34.95
7 -3 -5 430.69 36.45
7 -3 -5 463.23 44.25
-7 3 5 447.78 35.87
-7 3 4 18.16 7.75
7 -3 -4 3.66 5.16
-7 3 4 2.59 3.65
-7 3 4 8.67 5.76
7 -3 -4 4.8 4.14
7 -3 -4 3.09 4.35
-7 3 3 103.96 17.47
7 -3 -3 68.07 16.98
-7 3 3 117.22 18.64
7 -3 -3 104.32 16.17
7 -3 -3 123.59 19.63
-7 3 3 86.24 16.45
-7 3 2 2.87 2.85
-7 3 2 5.72 6.36
-7 3 2 -3.58 5.05
7 -3 -2 -1.95 3.36
7 -3 -2 -2.66 4.58
-7 3 2 2.87 2.85
-7 3 1 506.1 41.86
-7 3 1 503.14 42.08
7 -3 -1 465.76 42.7
-7 3 1 425.16 41.71
7 -3 -1 493.96 37.95
-7 3 1 472.6 40.25
-7 3 0 154.68 23.22
-7 3 0 180.33 23.89
7 -3 0 199.1 26.71
7 -3 0 188.41 26.2
-7 3 0 134.16 23.07
-7 3 0 191.22 25.48
-7 3 -1 189.77 26.05
-7 3 -1 188.78 24.68
-7 3 -1 171.64 25
7 -3 1 215.77 28.67
-7 3 -1 226.75 29.41
7 -3 1 163.44 24.31
-7 3 -2 102.24 18.79
-7 3 -2 144.87 23.05
-7 3 -2 102.47 19.56
7 -3 2 144.45 23.27
-7 3 -2 118.09 21.67
7 -3 2 120.95 20.32
7 -3 3 185.29 24.95
-7 3 -3 213.22 28.83
-7 3 -3 173.29 24.48
-7 3 -3 233.36 29.76
7 -3 3 144.68 24.23
7 -3 4 17.18 8.1
-7 3 -4 31.91 10.56
7 -3 4 45.03 12.43
7 -3 4 18.51 9.06
7 -3 5 306.79 33.97
7 -3 5 264.39 33.62
7 -3 5 323.86 31.19
-7 3 -5 247.25 30.35
7 -3 6 7.33 6.34
-7 3 -6 8 6.91
7 -3 6 25.61 8.47
-7 3 -6 19.79 10.44
7 -3 6 19.2 8.56
-7 3 -6 20.43 8.98
7 -3 7 15.49 9.45
-7 3 -7 14.07 7.83
-7 3 -7 -4.13 5.81
-7 3 -7 10.64 7.07
-7 3 -7 20.4 9.96
7 -3 8 44.74 14.61
-7 3 -8 8.47 7.32
-7 3 -8 18.32 9.66
-7 3 -8 20.93 11.04
-7 3 -8 10.89 7.25
7 -2 -10 88.74 19.39
7 -2 -10 132.52 23.16
-7 2 10 110.8 20.03
7 -2 -9 81.34 18.54
7 -2 -9 53.93 14.92
-7 2 9 69.9 18.67
-7 2 9 96.77 17.99
-7 2 8 310.15 36.21
7 -2 -8 389.29 39.35
7 -2 -8 247.66 30.92
-7 2 8 275.62 29.91
7 -2 -8 324.1 36.88
7 -2 -7 94.57 19.42
7 -2 -7 133.63 21.49
-7 2 7 88.85 15.93
7 -2 -7 142.16 23.73
-7 2 7 102.73 20.26
7 -2 -6 249.62 28.91
-7 2 6 230.06 24.93
7 -2 -6 214.54 28.63
7 -2 -6 251.57 31.35
-7 2 6 241.53 30.6
-7 2 5 38.92 11.6
-7 2 5 36.08 9.21
7 -2 -5 21.16 9.35
-7 2 5 49.96 10.59
-7 2 5 34.62 11.48
7 -2 -5 55.32 12.96
-7 2 5 35.28 9.07
7 -2 -5 29.45 10.36
7 -2 -4 230.54 26.09
-7 2 4 267.9 23.44
7 -2 -4 209.74 27.29
-7 2 4 270.67 25.88
-7 2 4 260.77 25.33
-7 2 4 253.08 28.94
-7 2 4 319.13 34.28
7 -2 -4 255.62 31.48
-7 2 3 13.09 7.29
-7 2 3 14.54 7.67
-7 2 3 9.3 6.13
7 -2 -3 14.22 6.25
7 -2 -3 5.78 4.99
7 -2 -3 16.92 8.92
-7 2 3 20.85 8.32
7 -2 -3 2.67 4.62
7 -2 -2 386.55 34.76
7 -2 -2 332.15 32.41
7 -2 -2 354.05 30.14
-7 2 2 318.07 30.18
-7 2 2 371.92 32.56
7 -2 -2 390.02 37.75
-7 2 2 339.76 35.27
-7 2 2 305.27 32
-7 2 1 5.77 5.74
-7 2 1 2.64 4.55
-7 2 1 5.24 5.21
7 -2 -1 6.01 3.99
7 -2 -1 5.01 4.32
7 -2 -1 2.92 2.91
-7 2 1 -3.15 3.14
-7 2 0 84.58 16.94
-7 2 0 60.69 13.98
-7 2 0 67.19 14.38
-7 2 0 85.94 15.77
7 -2 0 83.86 12.77
7 -2 0 73.85 13.58
7 -2 0 75.58 16.44
7 -2 0 69.68 14.94
-7 2 -1 59.55 14.1
-7 2 -1 55.54 13.8
-7 2 -1 67.88 15.12
7 -2 1 67.3 12.37
7 -2 1 73.89 11.39
7 -2 1 58.35 14.16
-7 2 -1 90.55 17.08
7 -2 1 78.32 16.63
7 -2 2 857.5 57.21
7 -2 2 657.47 41.75
7 -2 2 695.78 38.55
-7 2 -2 666.83 50.72
-7 2 -2 723.57 52.55
-7 2 -2 789.38 53.46
7 -2 2 711.81 51.44
-7 2 -2 724.84 52.94
7 -2 3 46.64 12.97
7 -2 3 60.91 10.65
-7 2 -3 73.38 15.63
-7 2 -3 45.72 13.13
-7 2 -3 64.58 15.19
7 -2 3 61.05 13.7
7 -2 3 85.99 15.97
-7 2 -4 138.46 21.86
-7 2 -4 140.33 22.97
-7 2 -4 159.1 24.17
7 -2 4 109.5 20.27
7 -2 4 146.51 21.19
7 -2 4 138.71 21.4
7 -2 5 94.57 19.05
7 -2 5 146.08 22.62
7 -2 5 95.29 16.57
-7 2 -5 110.42 19.92
7 -2 6 386.55 34.34
-7 2 -6 378.87 36.12
-7 2 -6 423.73 41.95
-7 2 -6 402.82 41.27
7 -2 6 386.54 39.57
7 -2 6 402.73 39.71
-7 2 -6 362.77 37.94
7 -2 7 49.71 11.73
-7 2 -7 45.25 13.53
-7 2 -7 58.16 15.53
-7 2 -7 53.63 15.35
-7 2 -7 62.8 14.76
7 -2 7 81.15 18.07
-7 2 -8 96.42 20.24
7 -2 8 96 19.7
-7 2 -8 91.28 20
-7 2 -8 111.36 19.81
7 -2 8 136.48 24.13
-7 2 -9 6.81 5.89
7 -2 9 22.34 9.82
7 -2 9 20.49 10.01
-7 2 -10 219.57 29
7 -2 10 246.17 31.79
7 -2 10 221.75 32.2
-7 1 11 204.15 28.78
7 -1 -10 141.01 23.6
-7 1 10 139.2 23.77
7 -1 -10 138.49 23.98
-7 1 10 146.76 23.72
7 -1 -10 150.23 25.6
-7 1 9 737.86 57.18
7 -1 -9 741.91 56
7 -1 -9 690.33 55.66
-7 1 9 774.67 55.73
7 -1 -9 808.65 61.48
7 -1 -8 10.33 6.86
-7 1 8 3.5 4.93
-7 1 8 3.01 5.19
7 -1 -8 13.83 7.7
7 -1 -8 7.53 6.49
7 -1 -7 23.88 9.62
-7 1 7 10.11 6.72
-7 1 7 8.24 6.13
7 -1 -7 13.01 7.25
7 -1 -6 -3.36 3.35
-7 1 6 3.24 5.59
-7 1 6 -2.49 4.97
7 -1 -6 3.06 3.05
-7 1 5 533.51 32.96
-7 1 5 551.05 33.41
-7 1 5 574.84 45.21
7 -1 -5 522.11 44.48
-7 1 5 525.23 38.21
7 -1 -5 548.58 43.5
7 -1 -5 602.14 47.72
-7 1 5 458.79 41.88
-7 1 4 3.02 4.25
-7 1 4 2.96 2.95
-7 1 4 -1.75 3.48
-7 1 4 1.74 2.45
7 -1 -4 3.25 6.47
7 -1 -4 2.71 4.67
7 -1 -4 -3.07 4.32
-7 1 3 104.92 18.5
-7 1 3 81.27 16
-7 1 3 73.24 12.36
-7 1 3 82.51 13.16
7 -1 -3 80.93 15.93
7 -1 -3 81.08 15.11
7 -1 -3 57.26 14.36
7 -1 -3 82.98 14.96
-7 1 2 33.98 10.2
-7 1 2 11.44 6.42
-7 1 2 48.49 10.31
7 -1 -2 32.62 9.79
7 -1 -2 28.04 10.32
7 -1 -2 33.38 9.6
-7 1 2 20.91 6.95
-7 1 1 373.37 31.4
-7 1 1 342.96 30.52
7 -1 -1 397.95 34.18
-7 1 1 374.06 34.92
7 -1 -1 424.28 36.2
-7 1 0 112.81 17.11
7 -1 0 90.61 15.42
7 -1 0 100.66 17.58
-7 1 0 95.58 16.96
-7 1 0 60.66 12.82
-7 1 -1 545.99 40.98
-7 1 -1 531.35 40.65
7 -1 1 470.21 35.81
-7 1 -1 500.78 40.36
7 -1 1 492.7 41.35
7 -1 2 95.84 17.68
7 -1 2 110.53 15.72
-7 1 -2 115.57 18.66
-7 1 -2 72.35 15.26
-7 1 -2 145.5 20.71
7 -1 2 145.45 19.12
7 -1 3 375.72 29.31
7 -1 3 421.9 35.81
7 -1 3 429.78 38.9
7 -1 4 3.36 3.35
7 -1 4 2.85 2.84
7 -1 4 12.73 7.09
7 -1 5 383.49 26.48
-7 1 -5 338.27 31
7 -1 5 363.08 36.62
7 -1 5 434.11 38.52
-7 1 -6 -2.57 4.43
7 -1 6 3.36 4.73
7 -1 6 -3.3 4.65
-7 1 -7 151.62 20.97
7 -1 7 116.65 21.22
7 -1 7 179.68 25.9
-7 1 -8 11.43 6.98
7 -1 8 11.22 7.45
-7 1 -9 353.05 34.87
7 -1 9 300.52 34.82
7 -1 9 359.33 39.57
7 -1 10 17.77 9.37
-7 1 -10 3.17 3.16
7 -1 10 4.14 5.83
7 -1 11 3.55 5
-7 1 -11 3.33 3.32
7 -1 11 4.31 7.43
-7 1 -12 -3.48 6
7 -1 12 3.51 6.06
-7 0 11 3.83 3.82
-7 0 11 -3.7 5.22
-7 0 10 115.6 21.22
7 0 -10 95.85 20.53
-7 0 10 116.86 21.11
7 0 -9 3.2 3.19
-7 0 9 -3.38 4.76
-7 0 9 3.38 4.76
-7 0 8 415.74 38.87
7 0 -8 326.6 34.46
-7 0 8 382.28 36.56
7 0 -8 319.18 36.78
7 0 -7 260.8 30.18
-7 0 7 227.51 27.91
7 0 -7 241.47 31
-7 0 7 236.13 27.18
7 0 -7 220.6 28.5
7 0 -6 37.95 11.89
-7 0 6 44.68 11.52
7 0 -6 64.31 15.53
7 0 -6 66.06 15.11
7 0 -6 69.46 15.49
-7 0 6 58.77 14.12
7 0 -5 223.74 27.43
7 0 -5 231.57 28.35
-7 0 5 240.7 27.73
7 0 -5 235.68 28.28
-7 0 4 211.43 24.89
7 0 -4 210.36 26.34
-7 0 4 201.91 23.13
-7 0 4 177.35 16.42
-7 0 4 192.49 16.94
7 0 -4 169.81 24.25
-7 0 4 162.16 23.02
-7 0 3 54.04 12.63
7 0 -3 31.51 9.06
7 0 -3 48.62 13.26
7 0 -3 55.31 13.03
-7 0 3 41.41 8.33
-7 0 3 54.3 11.57
-7 0 3 51.79 12.56
-7 0 3 46.36 8.94
-7 0 2 781.47 51.28
-7 0 2 893.12 50.24
-7 0 2 803.69 45.22
-7 0 2 803.14 45.24
7 0 -2 940.85 57.1
7 0 -2 854.38 51.9
7 0 -2 925.76 58.73
-7 0 2 834.45 54.76
-7 0 1 93.44 15.6
-7 0 1 74.13 12.31
7 0 -1 79.12 15.58
7 0 -1 77.03 14.37
-7 0 1 69.76 14.59
-7 0 1 63.64 11.55
-7 0 1 55.12 10.93
7 0 0 142.49 20.1
7 0 0 146.46 21.24
-7 0 0 160.58 21.77
-7 0 0 154.76 19.85
-7 0 0 143.31 18.31
-7 0 0 126.89 17.37
-7 0 -1 2.32 3.26
7 0 1 8.14 5.37
7 0 1 2.69 3.79
-7 0 -1 5.55 4.79
7 0 1 4.7 4.06
-7 0 -2 1399.49 71.5
7 0 2 1541.92 73.07
7 0 2 1416.37 76.25
7 0 2 1387.72 73.25
-7 0 -2 1537.55 78.7
-7 0 -3 117.79 17.27
7 0 3 107.12 17.63
7 0 3 129.4 20.14
7 0 3 103.83 17.53
-7 0 -3 123.1 19.64
7 0 3 133.99 18.98
7 0 4 124.56 20.37
-7 0 -4 173.18 23.31
7 0 4 185.68 23.75
7 0 4 172.8 22.67
7 0 5 -2.92 5.03
7 0 5 5.93 5.12
-7 0 -5 5.95 4.42
7 0 5 3.05 4.3
-7 0 -5 12.08 6.73
7 0 6 251.07 29.15
-7 0 -6 229.61 23.16
-7 0 -6 174.8 25.26
7 0 6 203.62 26.29
-7 0 -7 -2.28 3.21
7 0 7 -3.22 3.2
-7 0 -7 -3.24 4.56
7 0 7 -3.35 4.72
7 0 8 121.33 21.65
-7 0 -8 132.05 18.6
7 0 9 50.19 13.83
7 0 9 37.77 12.58
7 0 10 261.47 31.24
7 0 10 250.89 32.75
-7 0 -10 221.55 26.26
7 0 11 68.5 16.12
7 0 11 58.42 16.22
-7 0 -11 74.81 15.61
7 0 12 333.82 35.6
7 0 12 312.56 38.76
-7 0 -12 288.06 32.19
7 0 13 6.7 5.79
-7 0 -13 9.99 6.64
7 1 -11 72.2 18.43
7 1 -10 187.14 28.26
7 1 -10 223.65 31.01
-7 -1 10 163.34 24.78
7 1 -9 243.21 31.68
7 1 -9 231.58 30.72
-7 -1 9 211.33 27.47
7 1 -8 32.21 11.88
7 1 -8 40.32 13.22
-7 -1 8 44.49 11.88
7 1 -8 37.03 11.56
7 1 -8 59.29 13.9
7 1 -7 139.27 22.03
7 1 -7 207.74 27.92
7 1 -7 173.87 25.54
-7 -1 7 237.17 26.63
7 1 -7 195.52 25.27
7 1 -6 -3.38 3.36
-7 -1 6 2.63 4.54
7 1 -6 -2.94 5.87
7 1 -6 3.08 4.34
-7 -1 5 818.68 52.73
7 1 -5 896.25 60.12
-7 -1 5 986.11 61.35
-7 -1 5 1014.78 59.95
7 1 -5 812.16 56.99
-7 -1 4 25.88 8.12
7 1 -4 12.06 6.72
-7 -1 4 23.44 8.76
-7 -1 4 2.65 4.57
-7 -1 3 8.88 4.95
-7 -1 3 9.35 3.68
7 1 -3 8.9 6.61
7 1 -3 2.14 2.13
-7 -1 3 10.42 4
-7 -1 3 8.55 6.35
-7 -1 3 2.49 3.51
-7 -1 2 2.12 2.99
-7 -1 2 2.86 2.85
-7 -1 2 2.78 3.91
7 1 -2 -2.91 5.8
7 1 -2 -2.26 2.25
-7 -1 2 2.83 2.81
-7 -1 2 2.35 3.31
7 1 -1 1355.75 65.54
-7 -1 1 1322.29 61.42
-7 -1 1 1323.22 72.51
-7 -1 1 1309.98 67.14
7 1 -1 1425.19 70.41
7 1 -1 1403.21 75.23
-7 -1 1 1333.59 65.5
-7 -1 1 1321.58 61.32
-7 -1 0 202.2 24.23
7 1 0 210.48 22.33
7 1 0 185.33 22.46
7 1 0 181.49 23.62
-7 -1 0 195.97 21.44
-7 -1 0 186.38 20.25
-7 -1 -1 880.89 55.36
7 1 1 931.08 53.67
7 1 1 871.17 54.35
7 1 1 865.27 55.54
-7 -1 -1 929.85 51.23
-7 -1 -1 836.58 48.27
-7 -1 -2 175.25 22.85
7 1 2 205.5 23.41
7 1 2 212.8 24.78
-7 -1 -2 225.62 22.32
-7 -1 -2 161.9 18.76
-7 -1 -3 233.15 26.38
-7 -1 -3 210.99 21.06
7 1 3 204.67 24.19
7 1 3 202.18 24.06
7 1 3 239.18 27
-7 -1 -3 210.41 21.65
-7 -1 -3 211.97 21.51
7 1 4 207.17 25.06
7 1 4 193.68 23.04
-7 -1 -4 211.15 21.2
7 1 4 161.33 22.1
-7 -1 -4 154.33 21.95
-7 -1 -4 177.69 18.91
7 1 5 87.41 15.41
7 1 5 116.75 19.09
7 1 5 111.89 18.77
-7 -1 -5 116.52 14.16
-7 -1 -5 80.68 15.76
-7 -1 -5 118.39 14.82
7 1 6 48.94 11.52
7 1 6 63.04 14.46
7 1 6 66.08 14.47
-7 -1 -6 81.75 12.01
-7 -1 -6 53.5 13.03
-7 -1 -6 65.99 11.08
7 1 7 52.37 13.45
7 1 7 40.02 10.25
7 1 7 65.95 15.07
-7 -1 -7 57.66 10.74
-7 -1 -7 43.88 8.99
-7 -1 -7 58.58 13.81
7 1 8 16.37 8.64
-7 -1 -8 14.33 5.79
-7 -1 -8 20.65 6.15
7 1 9 1270.2 75.54
-7 -1 -9 1218.89 64.19
7 1 9 1223.78 73.17
7 1 10 -3.26 7.26
-7 -1 -10 2.44 4.87
7 1 10 -3.53 4.97
-7 -1 -11 179.37 22.76
7 1 11 184.37 25.74
-7 -1 -12 5.67 4.89
7 1 12 -3.29 3.28
-7 -1 -13 159.95 23.57
7 1 13 186.42 25.87
7 1 13 139.77 25.43
7 1 14 -3.2 3.19
-7 -1 -14 9.56 6.35
7 2 -10 27.3 11.67
7 2 -10 19.23 10.15
7 2 -9 37.83 12.53
7 2 -9 26.22 11.23
7 2 -8 371.18 39.2
7 2 -8 497.35 44.73
7 2 -8 408.81 38.04
-7 -2 8 394.54 35.62
-7 -2 7 63.63 13.72
7 2 -7 43.19 11.98
7 2 -7 45.8 13.66
7 2 -7 35.4 10.59
7 2 -7 52.36 12.65
7 2 -7 47.07 12.1
-7 -2 6 334.2 30.4
7 2 -6 298.35 33.48
7 2 -6 350.75 34.68
-7 -2 6 347.85 34.87
7 2 -6 335.07 31.48
-7 -2 5 385.43 31.44
7 2 -5 350.7 35.27
-7 -2 5 430.92 37.98
-7 -2 4 669.42 42.44
7 2 -4 701.73 51.08
-7 -2 4 722.85 50.45
-7 -2 4 704.08 49.53
-7 -2 3 124.16 15.87
-7 -2 3 123.79 19.46
7 2 -3 91.92 17.25
7 2 -3 92.67 14.56
-7 -2 3 108.43 17.77
-7 -2 2 421.01 26.11
-7 -2 2 426.98 31.54
-7 -2 2 459.36 38.28
-7 -2 2 496.84 27.5
7 2 -2 500.2 40.73
7 2 -2 465.7 35.37
-7 -2 2 516.74 39.33
-7 -2 1 5.33 4.6
7 2 -1 2.34 4.04
7 2 -1 2.85 4.02
7 2 -1 4.06 3.51
-7 -2 1 7.42 4.93
-7 -2 1 4.97 3.3
-7 -2 0 63.01 13.16
7 2 0 43.84 10.95
7 2 0 61.41 13.7
7 2 0 39.2 9.82
-7 -2 0 47.76 11
-7 -2 0 64.76 10.54
-7 -2 -1 51.92 12.28
-7 -2 -1 82.13 14.32
7 2 1 68.33 13.48
7 2 1 54.52 12.88
7 2 1 78.73 13.97
-7 -2 -1 69.77 13.24
-7 -2 -1 65.08 10.51
-7 -2 -2 655.8 47.02
-7 -2 -2 753.04 46.27
7 2 2 709.31 48.31
-7 -2 -2 722.59 46.09
7 2 2 749.2 48.02
-7 -2 -2 711.56 39.07
7 2 3 38.67 10.61
-7 -2 -3 26.21 8.69
-7 -2 -3 25.7 8.01
7 2 3 24.33 8.54
7 2 3 15.51 6.85
-7 -2 -3 31.77 9.07
-7 -2 -3 20.68 5.93
-7 -2 -4 127.04 17.58
-7 -2 -4 136.09 14.96
-7 -2 -4 102.6 15.6
-7 -2 -4 133.47 19.51
7 2 4 130.36 18.86
7 2 4 117 18.75
7 2 4 116.59 18.67
-7 -2 -5 20.51 7.11
-7 -2 -5 35.58 10.93
7 2 5 20.03 9.04
7 2 5 21.82 8.04
7 2 5 39.77 11.34
-7 -2 -6 1199 68.72
-7 -2 -6 1237.08 61.99
7 2 6 1203.05 64.39
7 2 6 1204.47 70.14
7 2 6 1194.17 70.36
-7 -2 -6 1220.94 53.08
-7 -2 -7 68.45 12.33
-7 -2 -7 64.17 14.05
7 2 7 57.24 13.87
7 2 7 86.54 14.44
-7 -2 -7 49.28 8.97
7 2 7 65.09 14.92
-7 -2 -8 203.4 21.42
7 2 8 171.26 20.01
7 2 8 187.33 25.48
-7 -2 -8 172.7 18.37
-7 -2 -9 101.26 15.07
7 2 9 88.01 17.37
7 2 9 96.44 14.12
-7 -2 -9 80.55 12.95
7 2 9 120.59 20.75
-7 -2 -10 189.3 20.8
7 2 10 245.89 29.21
7 2 10 180.06 26.23
-7 -2 -10 198.02 21.56
-7 -2 -11 16.1 6.92
-7 -2 -11 36.78 9.14
7 2 11 48.33 14.01
-7 -2 -12 403.9 34.67
7 2 12 494.48 42.68
7 2 12 389.67 40.5
7 2 13 28.89 10.67
7 2 13 51.85 14.34
-7 -2 -13 48.73 12.41
-7 -2 -14 72.37 15.66
7 2 14 69.27 15.82
7 3 -10 98.97 19.47
7 3 -10 81.9 19.22
7 3 -10 97.87 20.37
7 3 -9 573.95 47.82
7 3 -9 588.51 50.43
7 3 -9 536.02 48.64
7 3 -8 65.28 16.4
7 3 -8 102.78 20.22
7 3 -8 94.01 17.88
7 3 -8 139.19 22.28
7 3 -8 105.82 18.81
-7 -3 7 191.82 27.53
7 3 -7 192.68 25.57
7 3 -7 197.34 25.77
7 3 -7 194.65 26.22
-7 -3 6 77.64 16.95
7 3 -6 72.16 15.78
7 3 -6 59.67 14.11
7 3 -6 102.37 17.86
-7 -3 5 720.11 42.29
-7 -3 5 667.71 51.06
7 3 -5 668.96 50.31
7 3 -5 717.74 50.19
7 3 -5 632.7 46.93
7 3 -4 21.46 8.66
-7 -3 4 24.49 9.17
7 3 -4 25.68 9.45
-7 -3 4 24.04 6.66
7 3 -3 4.32 4.81
7 3 -3 12.07 7.36
-7 -3 3 8.35 6.2
-7 -3 3 6.16 3.76
-7 -3 3 2.93 4.13
-7 -3 2 207.97 25.07
7 3 -2 156.9 22.43
7 3 -2 170.83 20.65
-7 -3 2 193.42 23.71
7 3 -2 158.31 18.64
-7 -3 2 165.78 16.24
-7 -3 1 605.36 45.42
7 3 -1 696.23 49.45
7 3 -1 709.54 45.66
-7 -3 1 670.4 46.37
7 3 -1 703.88 43.58
-7 -3 1 629.38 34.29
-7 -3 0 2.64 2.63
7 3 0 2.47 3.49
-7 -3 0 7.64 5.07
-7 -3 0 -2.6 3.66
7 3 0 4.48 3.86
-7 -3 0 3.41 2.26
-7 -3 -1 342.07 31.43
7 3 1 299.66 29.6
-7 -3 -1 308.05 29.86
-7 -3 -1 283.9 29.09
7 3 1 379.65 31.69
-7 -3 -1 326.5 20.97
-7 -3 -2 14.79 6.51
-7 -3 -2 17.43 7.46
7 3 2 18.51 7.91
7 3 2 22.28 7.81
-7 -3 -2 10.24 6.26
7 3 3 528.46 40.93
7 3 3 506.43 39.09
-7 -3 -3 511.29 38.8
-7 -3 -3 412.49 35.17
-7 -3 -3 507.29 38.97
-7 -3 -4 354.12 32.35
-7 -3 -4 356.24 31.5
7 3 4 379.19 33.41
7 3 4 403.21 35.65
7 3 4 388.64 34.7
-7 -3 -5 720.96 35.48
-7 -3 -5 798.51 50.95
-7 -3 -5 731.86 47.4
7 3 5 721.7 48.16
7 3 5 833.99 54.32
7 3 5 826.91 53.85
-7 -3 -6 362.86 23.02
-7 -3 -6 321.46 31.51
-7 -3 -6 309.84 29.38
7 3 6 406.65 37.03
7 3 6 369.33 31.88
7 3 6 327.48 33.25
-7 -3 -7 382.9 23.27
7 3 7 396.36 37.34
7 3 7 383.54 32.3
7 3 7 417.35 38.01
-7 -3 -7 474.33 38.38
-7 -3 -7 412.69 33.88
7 3 8 9.69 6.45
-7 -3 -8 19.07 7.52
-7 -3 -8 19.91 8.51
-7 -3 -8 22.92 5.97
7 3 8 17.35 6.5
-7 -3 -9 385.33 27.17
-7 -3 -9 477.53 36.32
7 3 9 381.6 30.53
7 3 9 339.58 35.2
7 3 9 390.9 38.5
7 3 10 6.38 5.51
7 3 10 14.61 5.47
7 3 10 10.33 6.87
-7 -3 -10 19.45 7.28
-7 -3 -10 17.46 6.04
-7 -3 -11 7.4 4.92
7 3 11 3.21 5.55
-7 -3 -11 11.83 5.56
7 3 12 32.26 10.67
7 3 12 14.5 8.1
-7 -3 -12 19.97 7.89
-7 -3 -12 21.94 7.59
7 3 13 436.83 42.64
7 3 13 397.25 39.01
7 3 14 -3.15 3.13
7 3 14 -3.69 6.37
7 3 15 112.51 19.43
7 4 -10 7.17 7.15
7 4 -10 10.99 8.16
7 4 -9 7.05 6.09
7 4 -9 7.43 7.4
7 4 -9 3.79 3.78
7 4 -9 10.95 7.27
7 4 -8 1121.02 72.44
-7 -4 8 1166.96 76.17
7 4 -8 1155.06 72.49
7 4 -8 1204.54 74.76
7 4 -7 44.44 13.24
7 4 -7 30.21 10.64
7 4 -7 51.7 13.32
-7 -4 7 48.33 14.39
7 4 -6 97.71 18.88
7 4 -6 97.88 18.64
7 4 -6 100.24 18.75
-7 -4 6 131.64 22.34
7 4 -5 237.88 28.55
-7 -4 5 197.54 27.17
7 4 -5 190.13 25.75
7 4 -4 27.78 9.78
-7 -4 4 49.11 13.87
7 4 -3 280.46 30.33
-7 -4 3 226.84 28.33
-7 -4 2 273.66 30.61
7 4 -2 318.72 32.42
7 4 -2 275.69 26.31
-7 -4 2 329.1 31.34
7 4 -1 64.56 12.74
-7 -4 1 63.54 13.3
-7 -4 1 70.02 14.95
-7 -4 1 79.74 15.97
7 4 0 342.78 31.19
-7 -4 0 403.07 36.11
-7 -4 0 440.1 35.37
-7 -4 0 384.21 35.66
7 4 1 50.38 11.6
-7 -4 -1 48.29 11.38
-7 -4 -1 59.86 13.7
-7 -4 -2 1879.96 88.47
7 4 2 1978.76 92.19
-7 -4 -2 2013.14 94.97
-7 -4 -3 -2.82 2.81
-7 -4 -3 2.68 2.67
-7 -4 -3 -2.37 4.09
7 4 3 2.72 4.69
-7 -4 -4 122.16 18.64
-7 -4 -4 123.77 18.07
7 4 4 106.94 18.06
-7 -4 -5 67.67 13.33
-7 -4 -5 63.59 13.6
7 4 5 71.63 13.6
7 4 5 64.46 13.39
7 4 5 72.86 14.93
-7 -4 -6 460.73 36.63
-7 -4 -6 390.98 35.22
7 4 6 495.77 38.34
7 4 6 419.59 38.76
7 4 6 498.48 38.6
-7 -4 -7 29.46 9.66
-7 -4 -7 30.62 9.89
7 4 7 30.57 10.02
7 4 7 36.11 10.75
7 4 7 31.26 10.37
-7 -4 -8 105.63 18.03
-7 -4 -8 132.11 19.65
7 4 8 112.9 19.04
7 4 8 136.72 21.02
7 4 8 115.35 17.24
7 4 8 123.24 20.73
-7 -4 -9 24.67 9.08
-7 -4 -9 24.67 9.08
7 4 9 15.83 7.76
7 4 9 41.14 11.82
7 4 9 33.55 11.6
7 4 9 21.69 7.52
7 4 10 295.32 32.94
7 4 10 270.25 25.08
7 4 10 240.08 29.71
7 4 10 277.71 32.93
7 4 10 295.47 33.13
-7 -4 -10 322.62 31.98
-7 -4 -10 298.46 30.54
-7 -4 -11 22.74 8.97
7 4 11 16.38 8.65
7 4 12 301.94 34.58
7 4 12 229.35 28.82
-7 -4 -12 236.97 27.82
7 4 13 12.99 7.93
7 4 13 25.81 10.39
-7 -4 -13 5.86 5.06
7 4 14 111.51 19.81
7 4 14 111.06 21.1
-7 -4 -14 103.57 18.44
7 4 15 40.04 11.94
7 5 -8 74.97 17.73
-7 -5 8 107.87 21.61
7 5 -8 116.14 22.33
7 5 -7 94.97 19.45
-7 -5 7 115.93 21.95
7 5 -7 81.89 18.38
7 5 -6 145.68 23.85
-7 -5 6 175.1 26.57
7 5 -6 121.59 22.07
7 5 -5 485.63 44.03
-7 -5 5 449.54 43.2
7 5 -5 463.93 42.45
7 5 -4 16.71 8.81
-7 -5 4 3.49 4.92
7 5 -3 32.46 11.27
-7 -5 3 57.25 14.67
7 5 -2 9.52 6.32
-7 -5 2 6.54 5.64
7 5 -2 -2.47 3.49
-7 -5 1 1609.45 84.53
7 5 -1 1496.39 82.18
7 5 -1 1523.5 77.14
-7 -5 1 1432.8 80.68
7 5 0 42.76 11.38
-7 -5 0 49.83 11.66
-7 -5 0 49.38 13.11
-7 -5 0 50.21 13.33
7 5 1 82.88 15.73
-7 -5 -1 72.91 15.6
-7 -5 -1 71.53 13.59
-7 -5 -1 90.05 17.91
7 5 2 147.89 21.4
-7 -5 -2 116.48 19.48
-7 -5 -2 158.03 19.77
-7 -5 -2 142.11 21.71
-7 -5 -3 458.5 40.08
-7 -5 -3 472.63 35.91
-7 -5 -3 482.07 41.54
7 5 3 532.46 42.48
-7 -5 -4 113.23 16.85
7 5 4 113.51 16.74
7 5 4 144.49 21.55
-7 -5 -5 729.36 46.64
7 5 5 843.26 50.92
7 5 5 732.68 48.21
7 5 5 779.26 54.66
-7 -5 -6 142.42 21.38
-7 -5 -6 99.62 15.67
7 5 6 115.3 18.03
7 5 6 120.71 18.61
7 5 6 123.91 20.79
-7 -5 -7 23.88 8.94
7 5 7 11.27 6.3
7 5 7 36.66 10.52
7 5 7 22.78 9.19
-7 -5 -8 93.81 17.2
7 5 8 84.44 16.61
7 5 8 60.22 13.93
7 5 8 80.26 17.45
-7 -5 -9 328.43 33.57
7 5 9 333.5 34.38
7 5 9 272.79 31.46
7 5 9 298.44 33.63
7 5 10 6.8 6.77
7 5 10 3.4 4.79
-7 -5 -10 9.38 6.23
-7 -5 -11 168.88 24.51
7 5 11 204.3 28.13
7 5 11 158.75 25.17
7 5 11 182.86 26.98
7 5 12 18.43 9.72
7 5 12 30.1 11.86
7 5 12 18.81 9.93
7 5 12 13.47 7.51
-7 -5 -12 9.73 6.48
7 5 13 688.66 57.15
7 5 13 728.29 54.64
7 5 13 779.82 58.9
7 5 13 716.57 58.5
-7 -5 -13 805.72 56.92
7 5 14 9.81 6.52
7 5 14 7.46 6.44
-7 -5 -14 6.65 6.63
7 5 15 66.15 15.49
7 6 -7 75.8 17.88
7 6 -7 66.77 17.17
-7 -6 7 63.5 16.89
7 6 -6 88.76 19.4
7 6 -6 95.61 20.33
7 6 -5 7.44 6.42
7 6 -4 587.49 49.85
7 6 -3 7 6.04
-7 -6 3 7.15 6.17
7 6 -2 245.49 27.35
-7 -6 2 196.06 27.38
7 6 -2 251.29 30.62
-7 -6 2 237.05 29.82
7 6 -1 414.64 36.97
-7 -6 1 412.3 39.51
7 6 -1 457.86 41.17
-7 -6 1 318.27 35.5
7 6 0 139.29 21.24
-7 -6 0 123.36 20.85
7 6 0 155.52 23.16
-7 -6 0 128.31 21.64
-7 -6 -1 181.16 25.99
7 6 1 182.32 24.6
-7 -6 -1 181.4 25.57
-7 -6 -2 688.73 53.23
7 6 2 766.21 53.69
-7 -6 -2 697.27 52.59
-7 -6 -3 -3.35 4.72
7 6 3 -3.19 4.49
-7 -6 -3 -3.24 6.45
7 6 4 58.7 14.61
-7 -6 -4 48.48 13.36
7 6 5 2.52 3.54
7 6 5 7.55 5.02
7 6 5 3.33 4.7
-7 -6 -5 3.25 3.24
7 6 6 807.34 52.47
7 6 6 743.46 50.84
7 6 6 784.62 57.07
-7 -6 -6 759.31 55.22
7 6 7 24.28 10.45
7 6 7 69.79 14.83
7 6 7 58.25 13.67
7 6 8 56.41 14.56
7 6 8 49.67 13.2
7 6 8 49.73 13.22
7 6 9 65.81 15.52
7 6 9 88.99 17.81
7 6 9 85.98 18.66
-7 -6 -9 60.94 14.85
7 6 10 569.89 47.94
-7 -6 -10 506.9 45.59
7 6 10 550.01 47.38
7 6 11 62.1 15.94
7 6 11 36.6 12.73
7 6 11 62.84 15.7
-7 -6 -11 73.7 16.84
7 6 12 328.99 37.99
7 6 12 389.5 40.69
-7 -6 -12 396.08 39.84
7 6 12 407.61 41.44
7 6 13 107.3 21.56
7 6 13 111.16 22.25
7 6 13 89.89 18.5
-7 -6 -13 101.18 20.3
7 6 13 169.91 26.25
7 6 14 16.88 9.52
7 7 -5 348.47 39.36
-7 -7 5 297.26 35.64
7 7 -4 80.8 18.1
-7 -7 4 64.51 16.61
7 7 -3 67.25 16.73
-7 -7 3 52.28 14.98
7 7 -2 76.2 17.46
-7 -7 2 69.73 16.48
-7 -7 1 671.48 53.39
7 7 -1 666.38 50.91
-7 -7 0 53.45 14.27
7 7 0 49.32 13.18
-7 -7 -1 17.73 8.66
7 7 1 10.08 7.49
-7 -7 -2 -3.58 3.56
7 7 2 3.42 3.41
-7 -7 -2 -3.52 6.07
7 7 3 480.67 44.56
-7 -7 -3 553.21 47.72
-7 -7 -3 484.41 44.6
-7 -7 -4 180.96 26.61
7 7 4 134.65 23.02
-7 -7 -4 144.08 23.37
7 7 5 378.32 39.66
-7 -7 -5 364.4 38.03
7 7 6 91.21 16.76
7 7 6 84.22 18.78
7 7 6 97.17 17.27
-7 -7 -6 82.13 17.62
7 7 7 204.1 26.25
7 7 7 219.26 29.98
7 7 7 207.45 26.46
-7 -7 -7 187.5 27.29
7 7 8 54.97 14.12
7 7 8 41.33 13.05
7 7 8 61.56 14.51
-7 -7 -8 50.9 14.11
7 7 9 409.74 40.49
7 7 9 461.96 42.8
7 7 9 538.57 47.75
7 7 10 151.04 24.41
7 7 10 143.64 24.11
7 7 11 3.76 5.3
7 7 11 11.26 7.48
7 7 11 11.51 7.65
-7 -7 -11 22.8 10.02
7 7 12 11.73 7.79
7 7 12 11.53 7.65
-7 -7 -12 -3.85 5.42
7 7 12 3.9 6.73
-7 -8 3 110.93 21.46
-7 -8 2 45.44 13.66
-7 -8 1 63.87 15.96
7 8 -1 67.6 16.32
7 8 -1 59.48 15.35
-7 -8 1 37.52 13.04
-7 -8 0 52.4 14.96
7 8 0 32.7 12.06
7 8 0 39.82 12.55
-7 -8 0 41.25 12.99
-7 -8 -1 82.54 18.46
7 8 1 103.56 20.97
-7 -8 -1 63.62 16.41
-7 -8 -2 675.16 55.55
7 8 2 787.72 58.96
-7 -8 -2 684.65 55.68
-7 -8 -3 15.02 9.17
7 8 3 15.19 9.27
-7 -8 -3 11.36 7.55
-7 -8 -4 173.38 26.46
7 8 4 161.58 25.88
-7 -8 -5 18.97 9.26
7 8 5 7.78 6.72
-7 -8 -6 383.5 40.4
7 8 6 350.24 39.09
7 8 7 -3.21 6.39
7 8 7 3.19 4.5
-7 -8 -7 3.88 3.86
7 8 7 3.97 5.6
7 8 8 23.72 10.13
7 8 8 6.75 6.74
-7 -8 -8 11.72 7.79
7 8 8 36.02 12.61
-7 -8 -9 201.64 29.33
7 8 9 156.72 24.78
7 8 9 145.41 23.65
7 8 10 409.49 41.46
-7 -8 -10 432.65 43.85
7 8 10 337.59 39.17
7 8 10 360 38.96
7 9 1 4 5.64
-7 -9 -1 3.82 5.38
-7 -9 -2 50.89 14.67
7 9 2 60.89 17.22
-7 -9 -2 50.01 14.42
-7 -9 -3 778.09 60.47
7 9 3 722.22 59.67
-7 -9 -3 727.36 58.02
-7 -9 -4 3.95 3.94
-7 -9 -4 7.87 6.79
7 9 4 4.14 7.15
-7 -9 -5 195.42 29.07
7 9 5 233.59 32.27
-7 -9 -5 227.43 31.43
-7 -9 -6 85.03 19.58
7 9 6 134.15 25.23
-8 3 4 64.59 16.73
-8 3 4 90.48 17.77
-8 3 3 126.06 21.3
-8 3 3 132.15 21.46
-8 3 3 163.22 26.65
-8 3 3 175.79 23.36
-8 3 2 48.89 13.03
8 -3 -2 54.66 15.65
-8 3 2 60.91 14.33
-8 3 2 74.54 16.55
-8 3 2 62.94 16.25
-8 3 1 371.83 37.01
-8 3 1 379.41 37.25
-8 3 1 386.89 37.76
8 -3 -1 381.48 40.7
-8 3 1 406.29 41.96
-8 3 0 78.88 17.12
8 -3 0 66.85 16.65
-8 3 0 60.61 15.49
-8 3 0 54.18 14.44
-8 3 0 77.62 18.23
-8 3 -1 69.75 15.97
8 -3 1 64.92 15.76
-8 3 -1 49.25 14.13
-8 3 -1 53.27 14.7
-8 3 -1 85.29 18.61
-8 3 -2 151.52 23.57
-8 3 -2 133.24 23.06
8 -3 2 153.6 24.41
-8 3 -2 124.47 22.93
-8 3 -2 117.48 21.99
-8 3 -3 351.79 39.83
-8 3 -3 447.71 44.36
-8 3 -3 507.14 44.52
8 -3 3 461.15 45.58
8 -3 3 443.57 41.36
-8 3 -3 450.26 44.95
-8 3 -4 -3.96 5.58
-8 3 -4 4 6.9
-8 3 -4 -3.49 6.96
8 -3 4 6.43 5.55
-8 3 -4 3.96 3.95
8 -3 5 15.26 7.46
8 -2 -7 118.45 20.79
8 -2 -6 178.66 24.79
8 -2 -6 154.22 24.95
-8 2 6 127.31 23.15
8 -2 -6 139.88 25.24
-8 2 5 177.9 27
8 -2 -5 161.6 23.3
8 -2 -5 118.4 21.87
8 -2 -5 114.83 22.72
-8 2 5 189.04 25.97
-8 2 4 237.39 30.06
8 -2 -4 251.7 27.77
8 -2 -4 214.32 28.61
-8 2 4 231.01 30.96
8 -2 -4 281.32 34.65
-8 2 3 -3.65 5.14
-8 2 3 -3.33 4.69
-8 2 3 2.5 3.53
-8 2 3 4.99 4.3
8 -2 -3 -3.85 5.42
8 -2 -3 2.6 5.17
8 -2 -3 9.62 7.14
-8 2 2 3.59 5.06
-8 2 2 6.63 6.61
-8 2 2 10.76 6.57
-8 2 2 10.71 5.97
8 -2 -2 11.97 5.85
8 -2 -2 6.02 6
8 -2 -2 7.55 6.52
8 -2 -2 15.83 7.73
-8 2 1 -3.31 6.6
-8 2 1 -2.87 4.05
-8 2 1 -2.86 4.03
8 -2 -1 5.6 5.58
-8 2 1 -3.54 4.99
8 -2 -1 3.3 5.7
8 -2 0 853.83 60.56
8 -2 0 898.68 54.81
-8 2 0 844.33 57.27
-8 2 0 848.58 57.99
-8 2 0 989.2 63.27
8 -2 0 858.99 61.76
-8 2 0 759.46 58.58
-8 2 -1 -3.5 3.49
-8 2 -1 -3.35 3.34
-8 2 -1 3.24 4.57
-8 2 -1 6.42 4.52
8 -2 1 7.06 4.69
8 -2 1 3.55 6.12
8 -2 1 3.54 3.53
-8 2 -2 47.54 13.58
-8 2 -2 61.48 15.26
-8 2 -2 38.61 12.66
-8 2 -2 40.56 12.2
8 -2 2 29.24 10.99
8 -2 2 37.95 12.44
-8 2 -3 154.08 24.66
8 -2 3 207.94 27.54
-8 2 -3 138.02 23.32
-8 2 -3 131.08 23.27
8 -2 3 165.11 26.05
-8 2 -3 191.45 27.53
-8 2 -4 240.77 31.73
-8 2 -4 329.42 36.7
8 -2 4 285.94 32.6
-8 2 -4 290.66 34.52
-8 2 -4 254.07 31.73
8 -2 4 311.11 36.01
-8 2 -5 159.9 26.26
8 -2 5 172.13 24.47
-8 2 -5 169.68 26.81
8 -2 5 180.28 27.51
-8 2 -5 184.34 26.93
-8 2 -6 322.23 35.98
-8 2 -6 214.74 30.85
8 -2 6 230.03 30.48
8 -2 6 302.56 36.03
-8 2 -6 248.38 33.03
8 -2 6 251.48 28.96
8 -2 7 15.45 8.63
8 -2 7 16.11 8.99
8 -2 7 42.5 11.65
-8 2 -7 22.77 10.02
-8 1 8 29.89 11.83
8 -1 -8 63.03 15.71
-8 1 7 474.16 44.09
8 -1 -7 494.81 46.34
8 -1 -7 356.93 38.58
8 -1 -7 453.89 44.74
8 -1 -6 137.24 23.68
8 -1 -6 94.92 19.97
8 -1 -6 120.66 20.89
-8 1 6 149.38 24.03
8 -1 -5 136.14 23.58
8 -1 -5 127.08 21.15
8 -1 -5 152.37 24.59
-8 1 5 179.3 25.8
-8 1 5 124.23 22.13
8 -1 -4 41.11 13
-8 1 4 47.19 13.53
8 -1 -4 63.28 14.17
8 -1 -4 76 17.28
-8 1 4 64.5 15.94
8 -1 -3 481.38 42.95
8 -1 -3 513.89 41.32
-8 1 3 442.49 34.06
-8 1 3 525.8 36.44
-8 1 3 483.58 43.16
-8 1 3 414.96 40.2
8 -1 -3 504.84 45.77
-8 1 2 -3.21 3.2
-8 1 2 -3.33 5.74
-8 1 2 -2.32 4.62
-8 1 2 2.31 2.3
8 -1 -2 -3.09 4.36
8 -1 -2 5.34 4.61
8 -1 -2 -3.63 3.61
8 -1 -2 2.95 2.94
-8 1 1 69.46 15.54
-8 1 1 86.09 17.57
-8 1 1 76.14 14.67
-8 1 1 75.42 14.75
8 -1 -1 64.13 14.66
8 -1 -1 67.7 16.39
8 -1 -1 61.86 14.6
-8 1 0 151.76 21.27
8 -1 0 128.8 21.63
8 -1 0 158.34 21.6
-8 1 0 120.49 19.11
-8 1 0 131.06 21.22
-8 1 0 122.63 20.99
8 -1 1 30.06 10.59
8 -1 1 45.75 11.67
-8 1 -1 52.1 12.63
-8 1 -1 58.49 13.72
-8 1 -1 49.5 12.76
-8 1 -1 29.92 11.05
8 -1 2 144.71 23.26
8 -1 2 112.61 17.18
-8 1 -2 107.64 19.42
-8 1 -2 96.43 18.63
-8 1 -2 123.85 20.26
-8 1 -2 114.16 20.61
-8 1 -3 887.09 61
-8 1 -3 854.2 60.58
8 -1 3 859.94 50.86
8 -1 3 1025.13 67.43
-8 1 -3 966.67 61.64
-8 1 -4 24.04 10.27
-8 1 -4 22.17 9.47
8 -1 4 3.64 5.14
-8 1 -4 31.25 10.94
8 -1 5 189.54 26.18
-8 1 -5 208.7 28.47
8 -1 5 190.06 27.77
-8 1 -5 138.48 23.81
8 -1 6 7.11 7.09
8 -1 6 7.6 6.56
8 -1 7 245.47 32.07
8 -1 7 251.07 32.31
8 -1 8 35.81 13.18
-8 1 -8 29.46 9.77
8 -1 9 20.85 10.99
8 -1 9 3.92 5.53
-8 1 -9 9.23 6.85
-8 1 -10 57.58 14.35
-8 0 9 120.97 21.55
-8 0 8 258.47 31.35
8 0 -8 274.59 32.96
8 0 -8 255.41 32.97
8 0 -8 314.74 37.5
8 0 -7 14.51 8.08
-8 0 7 10 8.14
8 0 -7 7.31 6.31
8 0 -7 19.76 9.65
8 0 -6 54.31 14.93
-8 0 6 45.01 12.48
8 0 -6 42.07 13.13
8 0 -5 176.14 26.56
-8 0 5 165.26 24
8 0 -5 193.26 27.42
8 0 -5 170.48 25
-8 0 4 438.51 39.05
8 0 -4 459.18 43.54
8 0 -4 447.03 42.36
8 0 -4 460.88 41.31
-8 0 3 209.95 25.93
8 0 -3 179.88 26.04
-8 0 2 72.73 16.2
-8 0 2 49.04 10.26
-8 0 2 48.62 10.18
8 0 -2 38.07 11.92
-8 0 2 56.71 13.33
8 0 -2 64.1 13.68
-8 0 1 85.15 17.69
-8 0 1 65.98 12.57
-8 0 1 87.05 14.2
8 0 -1 72.44 15.47
-8 0 1 66.23 14.17
8 0 -1 64.06 14.36
8 0 0 910.7 59.14
8 0 0 827.48 55.87
-8 0 0 866.96 52.95
-8 0 0 890.9 53.66
-8 0 0 989.24 63.35
-8 0 0 909.94 56.88
8 0 1 169.46 24
8 0 1 140.66 20.46
-8 0 -1 163.54 21.92
-8 0 -1 115.09 18.8
-8 0 -1 179.47 25.55
-8 0 -1 160.16 21.54
-8 0 -2 101.82 19.25
-8 0 -2 103.08 17.52
8 0 2 71.38 16.04
-8 0 -2 74.59 15
-8 0 -2 110.08 18.41
8 0 3 3.35 4.71
-8 0 -3 3.32 4.68
-8 0 -3 -2.68 3.77
-8 0 -4 299.46 30.73
8 0 4 309.84 32.18
-8 0 -4 318.85 35.01
8 0 4 336.97 36.11
8 0 5 41.75 12.08
-8 0 -5 76.35 17.02
8 0 5 67.03 16.19
8 0 6 168.4 25.39
-8 0 -6 227.67 29.61
8 0 6 230.85 29.79
8 0 7 160.95 25.04
-8 0 -7 127.88 22.8
-8 0 -7 142.1 19.16
8 0 7 128.82 22.67
8 0 8 158.65 25.85
-8 0 -8 111.12 17.67
-8 0 -8 146.45 24.54
8 0 9 4.07 5.74
-8 0 -9 19.3 10.17
-8 0 -9 8.03 5.96
8 0 9 3.8 3.79
-8 0 -10 358.52 34.1
-8 0 -10 384.37 41.23
8 0 10 348.93 40.5
8 0 10 267.41 34.16
-8 -1 9 46.27 13.24
8 1 -8 13.54 8.27
-8 -1 8 15.78 8.33
8 1 -8 8.13 7.03
8 1 -7 659.2 55.26
8 1 -7 688.04 54.34
-8 -1 7 680.28 50.26
8 1 -7 693.67 53.4
8 1 -6 -3.82 3.8
8 1 -6 -3.62 3.61
8 1 -6 6.85 5.91
8 1 -6 -3.55 5
-8 -1 6 -2.88 4.97
8 1 -5 21.23 10
8 1 -5 29.44 11.61
8 1 -5 13.66 7.64
-8 -1 5 38.56 11.33
-8 -1 5 40.45 11.62
8 1 -4 91.27 18.73
-8 -1 4 120.74 19.89
-8 -1 4 95.07 18.75
-8 -1 4 95.1 16.69
8 1 -3 887.55 61.53
8 1 -3 706.64 55.87
-8 -1 3 953.93 57.95
-8 -1 3 907.73 60.8
-8 -1 3 850.58 53.81
-8 -1 2 285.83 23.56
-8 -1 2 270.36 28.08
8 1 -2 368.39 32.84
8 1 -2 335.2 35.75
-8 -1 2 320.83 24.77
-8 -1 2 306.87 30.26
-8 -1 2 330.06 34.57
-8 -1 1 180.08 19.65
-8 -1 1 217.93 21.32
-8 -1 1 170.2 21.26
8 1 -1 155.75 21.99
8 1 -1 241.89 29.31
-8 -1 1 189.88 26.04
-8 -1 1 199.29 23.55
-8 -1 0 140.79 17.97
-8 -1 0 87.17 14.62
-8 -1 0 102.32 18.89
8 1 0 129.49 18.7
8 1 0 145.04 22.77
8 1 0 118.93 19.04
-8 -1 0 135.25 18.59
-8 -1 -1 76.37 16.28
8 1 1 63.21 14.51
8 1 1 57.68 12.94
-8 -1 -1 74.09 13.74
-8 -1 -2 70.19 15.31
8 1 2 56.72 14.11
8 1 2 34.25 10.84
8 1 2 50.17 12.5
-8 -1 -2 51.14 11.17
-8 -1 -3 900.5 59.27
8 1 3 833.67 55.43
-8 -1 -3 775.95 48.31
8 1 3 774.22 55.74
8 1 3 822.76 55.86
-8 -1 -4 32.75 11.33
8 1 4 20.86 8.43
8 1 4 33.05 10.95
-8 -1 -4 27 8.12
8 1 4 24.81 9.3
-8 -1 -5 13.37 7.47
8 1 5 17.3 8.63
8 1 5 16.96 8.29
-8 -1 -5 18.45 7.28
8 1 5 39.04 11.69
8 1 6 24.31 10.38
8 1 6 3.4 4.79
-8 -1 -6 20.56 9.66
-8 -1 -7 563.75 37.06
-8 -1 -7 538.17 47.29
8 1 7 597.64 49.68
8 1 7 564.17 48.17
-8 -1 -8 -3.62 5.1
8 1 8 -3.67 3.66
-8 -1 -9 141.45 23.68
8 1 9 115.1 22.6
8 1 9 91.6 19.59
-8 -1 -10 226.04 31.31
8 1 10 237.09 32.83
8 1 10 251.11 31.97
8 1 11 390 43.52
8 1 11 325.8 36.83
8 2 -8 71.88 17.87
8 2 -8 52.67 15.2
8 2 -8 55.58 14.78
8 2 -7 51.41 14.77
8 2 -7 42.48 13.9
8 2 -7 35.17 11.66
-8 -2 7 24.43 8.61
8 2 -6 654.27 53.86
-8 -2 6 530.31 46.97
8 2 -6 638.41 51.04
8 2 -6 556.67 46.32
-8 -2 6 550.49 41.57
8 2 -5 249.67 32.53
8 2 -5 260.42 31.82
-8 -2 5 325.38 29.45
-8 -2 5 271.01 31.96
-8 -2 4 796.41 57.1
8 2 -4 800.02 58.09
-8 -2 4 680.65 45.92
-8 -2 4 775.36 54.74
-8 -2 3 78.9 16.94
8 2 -3 124.36 21.67
-8 -2 3 89.5 14.67
-8 -2 3 115.68 19.62
-8 -2 2 6.44 5.56
-8 -2 2 2.92 5.05
8 2 -2 17.03 8.98
8 2 -2 15.59 6.85
-8 -2 2 8.09 4.94
-8 -2 1 28.45 10
-8 -2 1 36.47 8.11
-8 -2 1 42.29 8.74
-8 -2 1 19.67 7.97
8 2 -1 20.08 8.87
8 2 -1 30.02 9.46
-8 -2 0 463.03 32.29
-8 -2 0 468.87 38.71
8 2 0 373.96 37.74
8 2 0 418.23 37.22
-8 -2 0 436.49 39.54
8 2 0 465.87 36.53
-8 -2 -1 -1.8 2.53
-8 -2 -1 2.63 3.71
8 2 1 -3.21 6.39
8 2 1 2.95 4.16
8 2 1 -2.64 3.72
-8 -2 -1 -3.1 4.36
-8 -2 -2 14.04 5.26
-8 -2 -2 7.72 5.75
8 2 2 12.21 6.81
8 2 2 13.98 6.83
-8 -2 -2 33.99 11.52
-8 -2 -3 88.96 13.18
-8 -2 -3 83.78 15.22
8 2 3 116.46 19.78
8 2 3 91.6 17.43
8 2 3 103.09 18.3
-8 -2 -3 99.33 18.5
-8 -2 -3 101.1 16.15
-8 -2 -4 1110.85 55.58
-8 -2 -4 1169.46 64.07
8 2 4 1153.49 68.11
8 2 4 1009.76 66.8
8 2 4 1298.09 72.11
-8 -2 -4 1184.65 70.26
-8 -2 -4 1100.88 61.37
8 2 5 149.42 23.67
8 2 5 146.24 21.37
-8 -2 -5 161.68 18.13
8 2 5 229.55 28.32
-8 -2 -5 153.63 23.51
-8 -2 -5 201.87 22.45
8 2 6 234.37 27.02
8 2 6 261.97 31.26
-8 -2 -6 257.65 23.67
8 2 6 245.57 30.2
-8 -2 -6 330.78 34.29
-8 -2 -6 267.94 25.82
8 2 7 189.14 26.94
-8 -2 -7 218.3 28.36
-8 -2 -7 190.62 21.46
8 2 7 186.71 23.23
8 2 7 194.63 26.97
-8 -2 -8 117.47 21.25
-8 -2 -8 135.62 17.66
8 2 8 116.04 21.37
8 2 8 141.47 23.39
8 2 8 116.45 17.83
-8 -2 -9 63.96 15.97
8 2 9 85.84 18.71
8 2 10 514.02 47.78
8 2 10 500.22 45.85
-8 -2 -10 527.13 47.25
8 2 11 3.64 5.13
-8 -2 -11 7.53 7.5
8 2 11 -3.93 3.91
8 2 12 7.25 6.26
8 3 -8 137.12 24.34
8 3 -8 101.14 21.21
8 3 -7 615.17 53.34
8 3 -7 555.83 48.09
-8 -3 7 611.39 52.86
8 3 -6 7.12 7.09
-8 -3 6 3.72 3.71
8 3 -5 67.72 16.39
-8 -3 5 67.75 16.39
-8 -3 4 6.85 5.93
8 3 -4 28.34 10.6
-8 -3 4 30.04 8.16
-8 -3 3 497.25 43.17
8 3 -3 486.29 44.11
-8 -3 3 434.41 40.56
-8 -3 3 459.45 31.61
-8 -3 2 50.91 13.52
8 3 -2 47.01 12.01
8 3 -2 37.99 12.49
-8 -3 2 78.88 16.39
-8 -3 2 48.66 9.1
-8 -3 1 6.15 5.31
8 3 -1 13.74 6.71
-8 -3 1 3.09 3.08
-8 -3 1 5.79 3.53
-8 -3 0 111.38 13.03
8 3 0 97.34 17.37
8 3 0 80.05 16.88
8 3 0 94.6 16.18
-8 -3 0 116.58 19.3
-8 -3 0 115.28 19.81
8 3 1 416.42 36.14
8 3 1 470.32 41.67
8 3 1 412.37 37.53
-8 -3 -1 447.67 38.64
-8 -3 -1 426.09 38.49
8 3 2 70.43 15.46
8 3 2 93.92 16.96
-8 -3 -2 89.35 16.44
-8 -3 -2 95.4 17.75
-8 -3 -2 88.88 16.56
8 3 3 802.47 54.54
8 3 3 798.59 55.46
8 3 3 889.54 58.31
-8 -3 -3 745.55 52.28
-8 -3 -3 779.04 52.21
-8 -3 -3 810.65 55.22
8 3 4 145 21.76
8 3 4 171.78 24.37
8 3 4 153.07 22.9
-8 -3 -4 134 20.39
-8 -3 -4 173.88 23.95
-8 -3 -4 170.36 22.33
8 3 5 136.14 22.41
8 3 5 119.84 19.79
8 3 5 97.64 18.89
-8 -3 -5 108.59 18.28
-8 -3 -5 88.99 16.38
-8 -3 -5 121.68 19.89
8 3 6 67.6 16.08
8 3 6 132.5 21.88
8 3 6 106.8 17.97
-8 -3 -6 123.95 18.8
-8 -3 -6 114.96 19.57
8 3 7 921.57 58.27
8 3 7 972.86 65.84
8 3 7 1005.25 66.83
-8 -3 -7 1050.09 65.46
-8 -3 -7 1022.75 59.41
8 3 8 10.86 7.22
-8 -3 -8 7.58 5.04
-8 -3 -8 3.27 5.64
8 3 8 7.05 7.02
8 3 8 2.54 5.07
8 3 9 14.94 9.11
-8 -3 -9 12.56 6.62
-8 -3 -9 3.36 4.74
8 3 9 4.74 4.09
-8 -3 -10 62.26 15.88
-8 -3 -10 40.02 10.41
8 3 10 68.59 16.17
8 3 11 152.54 26.3
-8 -3 -11 163.76 26.27
8 3 11 188.4 27.21
-8 -3 -12 62.16 16.39
8 3 12 61.38 15.78
8 3 13 64.23 16
8 4 -8 21.83 10.27
8 4 -7 39.69 13.73
8 4 -7 25.22 10.81
-8 -4 7 32.36 12.13
8 4 -7 54 14.82
8 4 -6 145.81 23.9
8 4 -6 131.21 23.09
-8 -4 6 179.8 27.6
8 4 -5 167.96 25.7
-8 -4 5 181.06 27.05
8 4 -4 355.62 37.76
-8 -4 4 309.89 35.41
8 4 -3 25.1 10.77
-8 -4 3 60.17 15
-8 -4 2 82.22 17.6
8 4 -2 92.06 18.85
-8 -4 2 101.85 18.38
-8 -4 1 3.33 3.32
8 4 -1 -2.82 3.98
8 4 -1 6.97 6.01
-8 -4 1 -3 2.99
8 4 0 885.44 55.46
-8 -4 0 818.07 58.42
8 4 0 821.04 59.35
8 4 0 890.04 57.29
-8 -4 0 809.83 57.3
-8 -4 0 883.01 57.53
8 4 1 44.79 11.57
-8 -4 -1 41.65 12.01
8 4 1 36.45 10.99
-8 -4 -1 60.7 13.87
-8 -4 -1 46.85 12.89
8 4 2 93.57 17.12
-8 -4 -2 66.66 14.99
8 4 2 75.14 15.75
-8 -4 -2 62.89 13.83
-8 -4 -2 85.71 16.84
8 4 3 -3.05 4.29
-8 -4 -3 3.01 4.24
-8 -4 -3 -2.85 4.01
-8 -4 -3 3.15 4.44
8 4 3 3.22 5.55
8 4 3 -3.2 4.51
-8 -4 -4 760.47 53.38
-8 -4 -4 763.39 52.42
8 4 4 716.43 53.17
8 4 4 837.97 56.05
8 4 4 738.69 54.85
-8 -4 -4 757.61 53.91
-8 -4 -5 203.84 25.59
-8 -4 -5 164.42 23.37
8 4 5 204.13 27.06
8 4 5 199.45 25.66
8 4 5 209.16 27.49
-8 -4 -5 215.61 27.04
8 4 6 181.08 25.63
8 4 6 160.47 22.58
8 4 6 144.72 23.2
-8 -4 -6 142.92 21.42
-8 -4 -6 142.6 21.37
8 4 7 162.75 25.21
8 4 7 129.99 22.46
8 4 7 143.39 21.12
-8 -4 -7 133.27 20.56
-8 -4 -7 107.29 18.7
8 4 8 230.45 30.68
-8 -4 -8 207.72 26.56
-8 -4 -8 179.8 24.1
8 4 8 224.36 25.86
8 4 8 242.78 30.81
-8 -4 -9 23.24 9.21
-8 -4 -9 53.35 13.3
8 4 9 33.91 12.49
8 4 9 40 10.61
-8 -4 -10 122.3 19.79
-8 -4 -10 103.29 19.09
8 4 10 142.92 24.3
8 4 10 137.64 18.49
8 4 10 120.33 22.09
-8 -4 -11 40.85 11.67
-8 -4 -11 26.51 10.49
8 4 11 51.09 14.12
-8 -4 -12 55.26 13.35
8 4 12 36.4 12.11
8 4 12 59.79 16.43
8 4 13 14.38 8.78
8 5 -6 30.52 12.05
8 5 -6 33.57 12.35
-8 -5 6 24.43 11.5
8 5 -5 63.81 16.89
-8 -5 5 71.23 17.79
-8 -5 4 -3.85 5.43
8 5 -4 3.69 5.19
-8 -5 3 583.06 50.91
-8 -5 2 142.76 23.99
-8 -5 1 78.27 15.72
-8 -5 1 82.33 17.98
-8 -5 0 341.44 36.01
-8 -5 0 361.17 33.94
8 5 0 309.84 31.87
-8 -5 0 313.03 35.48
-8 -5 -1 657.77 47.02
8 5 1 603.75 46.74
-8 -5 -1 607.84 50.34
-8 -5 -2 57.06 13.36
8 5 2 49.52 12.81
-8 -5 -2 62.09 15.06
-8 -5 -3 418.8 39.82
-8 -5 -3 480.58 38.53
8 5 3 435.9 40.49
-8 -5 -3 402.39 39.92
-8 -5 -4 16.32 7.97
-8 -5 -4 8.04 5.98
8 5 4 16.53 8.07
-8 -5 -4 6.89 5.95
-8 -5 -5 -3.24 4.56
-8 -5 -5 5.36 4.63
8 5 5 13.63 7.59
-8 -5 -5 24.25 9.13
8 5 6 80.74 17.62
-8 -5 -6 70.96 15.89
8 5 7 472.58 45.13
-8 -5 -7 533.71 44.62
8 5 8 7.42 6.4
8 5 8 2.83 3.99
-8 -5 -8 6.49 6.47
8 5 9 156.31 25.31
-8 -5 -9 156.62 23.43
8 5 9 154.94 21.11
-8 -5 -10 13.13 7.31
8 5 10 23.41 11
8 5 10 18.63 9.09
8 5 10 4.98 4.31
-8 -5 -11 648.54 50.39
8 5 11 582.37 51.18
-8 -5 -12 26.34 9.86
8 5 12 14.84 9.07
8 5 12 24.16 10.63
8 6 -5 59.81 16.94
-8 -6 5 61.55 16.94
8 6 -4 352.62 39.65
-8 -6 4 366.47 40.68
8 6 -3 138.31 24.28
-8 -6 3 158.25 25.9
-8 -6 2 197.51 29.18
-8 -6 1 121.75 22.7
8 6 0 439.21 40.19
-8 -6 0 477.06 45.14
-8 -6 0 509.2 45.76
8 6 1 25.92 9.7
-8 -6 -1 22.33 10.5
-8 -6 -1 18.22 8.91
8 6 2 56.82 14.19
-8 -6 -2 33.39 12.33
-8 -6 -2 57.78 14.89
8 6 3 20.58 9.67
-8 -6 -3 7.41 6.4
-8 -6 -3 14.33 8.75
-8 -6 -4 754.71 57.86
8 6 4 708.23 54.81
-8 -6 -5 78.56 17.97
8 6 5 54.07 14.48
8 6 6 235.72 31.34
-8 -6 -6 265.35 31.97
-8 -6 -7 24.85 10.06
8 6 7 55.18 13.35
8 6 7 33.79 12.45
8 6 7 39.86 11.47
-8 -6 -8 406.39 40.54
8 6 8 402.04 38.7
8 6 8 325.69 38.53
8 6 8 434.73 39.91
-8 -6 -9 168.73 26.22
8 6 9 201.07 27.62
8 6 9 222.42 30.93
8 6 9 235.8 29.7
-8 -6 -10 256.07 31.98
8 6 10 266.51 32.95
8 6 10 281.92 34.82
8 6 10 219.08 30.02
8 6 11 233.03 31.19
8 6 11 198.56 28.76
-8 -6 -11 162.83 25.6
8 7 -3 577.34 52.06
8 7 -2 7.92 6.84
-8 -7 1 55.88 15.98
-8 -7 0 130.68 23.69
8 7 0 153.99 24.21
-8 -7 0 136.62 24
-8 -7 -1 228.39 31.6
8 7 1 292.3 33.81
-8 -7 -1 282.97 34.54
-8 -7 -2 196.86 29.02
8 7 2 173.46 26.23
-8 -7 -2 169.78 26.58
-8 -7 -3 126.12 23.06
8 7 3 73.84 17.48
-8 -7 -3 107.59 21.15
-8 -7 -4 11.88 6.83
8 7 4 3.77 3.76
-8 -7 -4 11.49 6.61
-8 -7 -5 291.03 35.77
-8 -7 -5 248.38 32.41
8 7 5 299.69 35.38
-8 -7 -6 49.7 14.84
8 7 6 62.5 16.58
8 7 7 976.31 69.04
8 7 8 116.47 20.52
8 7 8 139.58 22.77
-8 -7 -8 162.33 26.39
8 7 8 116.11 22.53
8 7 9 3.52 4.96
8 7 9 7.02 6.06
-8 -7 -9 15.54 8.65
8 7 9 4.04 5.7
8 7 10 3.69 6.37
-8 -7 -10 7.8 6.74
8 7 10 12.24 9.09
8 7 10 11.06 8.21
8 8 1 11.37 8.44
-8 -8 -1 8.11 7
8 8 2 135.79 24.37
-8 -8 -2 101.47 21.28
8 8 3 3.96 6.82
-8 -8 -3 -4.06 4.04
-8 -8 -4 724.71 58.28
8 8 4 575.44 51.91
-8 -8 -4 555.77 51.49
-8 -8 -5 4.17 4.16
8 8 5 -4.08 8.14
-8 -8 -5 8.11 7
-8 -8 -6 21.07 10.28
8 8 6 24.79 11.64
-8 -8 -6 -4.07 7.01
8 8 7 45.78 14.42
9 -2 -2 484.35 42.33
-9 2 0 12.76 7.12
-9 2 0 19.03 8.95
-9 2 -1 301.88 34.22
-9 2 -1 336.78 35.45
-9 1 4 86.25 18.37
9 -1 -4 54.17 13.63
9 -1 -4 93.16 19.4
-9 1 3 85.13 18.89
9 -1 -3 100.19 18.35
9 -1 -3 96.05 19.28
-9 1 2 98.02 19.3
-9 1 2 63.28 16.4
9 -1 -2 109.61 21.95
9 -1 -2 109.06 18.3
9 -1 -2 118.18 20.92
-9 1 1 124.02 21.47
-9 1 1 118.95 21.59
9 -1 -1 130.7 21.62
9 -1 -1 132.26 24.23
9 -1 -1 129.75 21.82
-9 1 0 11.15 7.41
-9 1 0 31.91 10.42
-9 1 0 17.26 7.59
9 -1 0 11.95 7.88
-9 1 0 3.41 4.81
9 -1 0 21.35 10.03
9 -1 1 546.33 47.53
9 -1 1 469.22 39.12
-9 1 -1 462.95 41.01
-9 1 -1 433.92 43.25
9 -1 1 415.13 43.35
-9 1 -1 409.41 40.1
-9 1 -1 469.58 41.02
-9 1 -2 22.59 9.95
-9 1 -2 30 11.04
9 -1 2 26.62 10.74
-9 1 -2 26.38 10.41
9 -1 2 41.9 13.7
-9 1 -2 16.85 8.91
-9 1 -3 3.79 6.55
-9 1 -3 7.05 6.08
9 -1 3 -3.72 5.24
-9 1 -3 6.97 6.01
9 -1 3 3.92 6.76
-9 1 -3 16.84 8.22
-9 1 -4 3.84 5.41
-9 1 -4 -3.71 5.23
9 -1 4 18.13 8.84
-9 1 -4 6.77 5.84
9 -1 4 4.01 5.65
-9 1 -4 -3.67 5.17
-9 1 -5 431.57 43.78
-9 1 -5 418.97 43.33
9 -1 5 467.94 43.23
-9 1 -5 426.73 41.23
-9 1 -6 65.68 15.87
9 -1 6 50.93 14.45
-9 0 6 334.72 35.71
-9 0 5 56.28 14.43
9 0 -5 35.97 11.95
9 0 -4 96.1 20.52
-9 0 4 71.31 16.05
9 0 -4 110.58 20.25
9 0 -4 111.03 21.74
9 0 -3 3.98 3.97
9 0 -3 -3.67 3.66
9 0 -3 -3.3 3.29
-9 0 3 -3.16 6.29
9 0 -2 470.72 44.77
-9 0 2 595.96 46.87
9 0 -2 639.91 54.11
9 0 -1 7.82 6.76
9 0 -1 16.75 8.18
-9 0 1 18.3 8.05
9 0 -1 16.4 8.01
-9 0 0 31.16 9.39
-9 0 0 30.84 9.29
9 0 0 44.55 12.72
-9 0 0 41.95 11.99
9 0 0 47.95 13.69
-9 0 -1 7.44 6.43
-9 0 -1 8.51 5.66
-9 0 -1 14.03 7.4
9 0 1 9.03 6
-9 0 -1 17.77 7.81
9 0 1 10.67 7.09
9 0 2 205.76 28.65
9 0 2 223.23 26.63
-9 0 -2 232.98 27.92
-9 0 -2 220.39 27.56
-9 0 -2 244.48 28.31
-9 0 -2 238.63 31.11
-9 0 -3 71.43 16.93
-9 0 -3 95.12 18.36
-9 0 -3 97.24 18.72
9 0 3 84.27 15.72
-9 0 -3 88.12 16.74
9 0 3 86.96 18.62
-9 0 -4 160.09 25.44
9 0 4 166.29 26.54
-9 0 -4 144.43 23.2
-9 0 -4 174.68 26.62
-9 0 -4 165.17 23.05
9 0 5 102.98 20.99
-9 0 -5 69.42 17.32
-9 0 -5 68.51 15.58
9 0 6 245.96 32.9
-9 0 -6 227.75 31.35
-9 0 -6 251.29 29.16
9 0 7 57.64 15.4
-9 0 -7 58.48 14.48
-9 -1 6 33.2 10.88
-9 -1 5 216.55 26.47
9 1 -5 227.32 31.07
9 1 -5 230.62 30.75
9 1 -5 173.81 28.28
9 1 -4 258.65 33.37
-9 -1 4 320.35 36.3
-9 -1 4 314.77 31.55
9 1 -4 204.44 30.06
9 1 -4 273.08 34.82
9 1 -3 321.5 37.12
-9 -1 3 345.7 37.65
-9 -1 3 313.8 31.8
9 1 -3 298.72 36.02
9 1 -2 47.47 13.73
-9 -1 2 70.73 16.68
-9 -1 2 77.52 14.94
9 1 -2 62.21 16.07
9 1 -1 224.24 29.88
-9 -1 1 255.4 27.32
9 1 -1 245.55 29.47
9 1 -1 276.18 34.08
-9 -1 1 243.4 31.57
-9 -1 0 23.02 9.88
9 1 0 22.64 9.96
9 1 0 13.16 7.35
-9 -1 0 36.61 12.11
-9 -1 -1 293.13 29.01
-9 -1 -1 296.66 29.32
-9 -1 -1 315.96 29.87
-9 -1 -1 325.81 36.58
9 1 1 256.45 31.3
-9 -1 -2 8.41 6.84
-9 -1 -2 4.95 4.94
-9 -1 -2 11.07 6.17
9 1 2 3.62 5.1
9 1 2 7.07 7.04
-9 -1 -2 14.66 8.16
9 1 3 10.58 7.03
9 1 3 3.64 5.13
-9 -1 -3 2.47 4.26
-9 -1 -3 3.68 5.19
9 1 4 3.74 5.26
-9 -1 -4 2.47 3.48
-9 -1 -4 7.43 6.41
9 1 5 535.65 48.66
-9 -1 -5 568.88 41.69
-9 -1 -5 552.73 49.22
9 1 6 50.15 14.34
9 1 6 50.73 14.61
-9 -1 -6 42.11 13.82
9 1 7 125.29 22.68
9 1 7 114.91 22.28
-9 -1 -7 144.36 24.85
9 1 8 63.97 17
9 1 8 60.16 16.57
-9 -1 -8 67.54 17.35
9 2 -6 335.24 37.06
9 2 -5 8.22 7.09
9 2 -5 7.86 6.78
-9 -2 5 3.59 5.05
9 2 -5 3.69 5.2
-9 -2 4 3.45 6.87
9 2 -4 7.86 8.75
9 2 -3 120.97 22.63
-9 -2 3 119.32 20.68
-9 -2 3 141.67 23.77
9 2 -2 564.34 50.51
-9 -2 2 656.57 49.7
-9 -2 2 595.23 50.63
9 2 -1 57.16 15.26
9 2 -1 61.6 14.14
-9 -2 1 39.94 12.62
9 2 0 59.96 15.91
9 2 0 61.23 14.79
-9 -2 0 39.54 13
9 2 1 143.97 23.02
-9 -2 -1 150.13 24
9 2 2 387.86 39.4
9 2 2 409.92 40.61
9 2 2 440.85 39.65
-9 -2 -2 432.49 41.48
9 2 3 -3.5 6.98
9 2 3 3.57 5.02
-9 -2 -3 7.15 6.17
9 2 3 3.25 4.58
9 2 4 152.94 23.66
9 2 4 150.18 24.64
-9 -2 -4 169.26 25.78
9 2 4 160.27 24.45
9 2 5 128.05 21.78
9 2 5 157.52 25.35
-9 -2 -5 152.72 24.33
9 2 5 103.1 20.08
9 2 6 113.48 20.16
9 2 6 110.97 21.5
-9 -2 -6 140.35 23.52
9 2 6 114.65 21.76
9 2 7 195.21 25.52
9 2 7 202.39 29.33
-9 -2 -7 199.3 28.87
9 2 7 202.82 29.11
9 2 8 508.72 48.38
-9 -2 -8 517.47 48.09
9 2 8 579.59 50.86
9 2 9 4.05 5.7
-9 -2 -9 3.91 6.74
9 3 -5 400.99 42.95
-9 -3 5 372.24 40.05
9 3 -5 332 38.85
-9 -3 4 33.4 12.29
9 3 -4 27.66 11.84
9 3 -3 243.56 32.47
-9 -3 3 258.35 32.09
-9 -3 3 290.12 34.2
9 3 -2 93.45 19.56
-9 -3 2 87 18.52
-9 -3 2 82.88 18.13
9 3 -1 288.17 34.51
-9 -3 1 220.38 28.71
-9 -3 1 223.72 29.78
9 3 0 147.64 24.43
9 3 0 135 21.8
-9 -3 0 121.86 20.82
-9 -3 0 112.28 20.71
9 3 1 110.12 20
-9 -3 -1 138.28 21.8
-9 -3 -1 131.85 22.69
-9 -3 -2 85.12 17.21
9 3 2 110.39 20.29
-9 -3 -2 124.58 21.49
9 3 2 135.15 21.47
-9 -3 -3 62.13 14.31
9 3 3 42.64 13.39
9 3 3 88.54 18.43
-9 -3 -3 103.75 19.58
9 3 3 69.34 15.89
-9 -3 -4 3.08 5.31
9 3 4 3.65 5.14
9 3 4 3.44 4.84
-9 -3 -4 -3.46 6.9
-9 -3 -4 2.88 4.97
9 3 4 -3.45 4.86
9 3 5 1300.29 77
9 3 5 1279.62 79.54
9 3 5 1325.26 79.47
-9 -3 -5 1267.16 71.7
-9 -3 -5 1361.12 79.43
9 3 6 26.64 11.4
9 3 6 54.37 13.91
-9 -3 -6 16.46 7.76
-9 -3 -6 24.68 9.96
9 3 6 29.81 11.16
9 3 7 11.61 7.71
9 3 7 9.15 6.08
-9 -3 -7 17.95 8.76
-9 -3 -7 2.68 4.63
9 3 7 26.96 10.85
9 3 8 3.92 3.91
9 3 8 -2.88 4.05
-9 -3 -8 -3.65 3.64
9 3 8 3.96 3.94
-9 -3 -9 145.11 24.65
9 3 9 137.9 24.92
9 4 -4 124.37 24.14
-9 -4 4 78.92 18.64
9 4 -3 4 6.91
-9 -4 3 -3.84 5.41
9 4 -2 632.37 53.62
-9 -4 2 579.78 48.63
-9 -4 2 496.06 46.64
9 4 -1 3.93 5.55
-9 -4 1 31.03 11.39
-9 -4 1 25.64 10.95
9 4 0 101.12 19.34
9 4 0 170.64 26.48
-9 -4 0 162.92 24.45
-9 -4 0 125.37 22.05
9 4 1 -3.39 4.77
9 4 1 3.81 5.36
-9 -4 -1 3.35 4.72
-9 -4 -1 7.03 6.07
9 4 2 699.08 52.13
9 4 2 667.91 52.85
-9 -4 -2 690.55 53.18
-9 -4 -2 636.44 50.94
-9 -4 -2 644.55 50.69
-9 -4 -3 99.65 19.28
9 4 3 93.51 19.18
9 4 3 116.3 21
-9 -4 -3 106 19.46
-9 -4 -3 95.11 18.42
9 4 3 98.06 19.28
-9 -4 -4 30.81 11.36
9 4 4 29.5 11.66
9 4 4 38.92 12.25
-9 -4 -4 29.79 10.48
-9 -4 -4 48.27 13.26
9 4 4 56.47 14.53
-9 -4 -5 27.32 10.31
9 4 5 45.23 13.61
9 4 5 75.29 17.1
-9 -4 -5 82.93 17.23
-9 -4 -5 66.56 15.53
9 4 5 43.93 13.22
-9 -4 -6 150.54 23.62
9 4 6 115.19 21.91
9 4 6 138.42 22.3
-9 -4 -6 118.72 19.99
-9 -4 -6 107.01 19.74
9 4 6 102.15 20.59
-9 -4 -7 82.41 17.57
9 4 7 77.93 18.32
9 4 7 81.93 16.74
-9 -4 -7 73.93 15.79
-9 -4 -7 60.85 15.2
9 4 7 62.34 16.14
9 4 8 274.33 30.15
9 4 8 244.7 33.13
9 4 8 319.69 37.75
-9 -4 -8 271.26 31.96
-9 -4 -8 258.19 29.46
9 4 9 97.45 17.51
-9 -4 -9 83.83 16.8
-9 -4 -9 73.41 16.89
9 4 9 106.32 21.7
9 5 -3 282.87 35.79
-9 -5 3 264.15 34.56
9 5 -2 -4.07 7.02
-9 -5 2 4 3.98
9 5 -1 294.24 36.1
-9 -5 1 313.11 37.02
9 5 0 144.16 23.11
9 5 0 198.87 28.93
-9 -5 0 139.7 22.89
-9 -5 0 165.38 26.38
9 5 1 297.23 35.72
9 5 1 326.57 35.37
-9 -5 -1 277.32 33.9
-9 -5 -1 271.63 31.29
-9 -5 -1 352.96 38.26
9 5 2 43.48 12.98
9 5 2 50.21 14.8
-9 -5 -2 63.23 14.84
-9 -5 -2 43.59 13.12
-9 -5 -2 48.87 14.08
9 5 3 48.66 13.46
9 5 3 25.77 11.06
9 5 3 37.49 12.99
-9 -5 -3 31.31 10.41
-9 -5 -3 68 16.38
-9 -5 -3 56.04 14.93
9 5 4 3.61 5.08
9 5 4 3.77 6.5
9 5 4 -3.65 3.64
-9 -5 -4 7.08 6.1
-9 -5 -4 3.73 5.25
9 5 5 234.55 30.85
9 5 5 209.12 29
9 5 5 176.84 27.37
-9 -5 -5 189.08 27.13
-9 -5 -5 156.65 25.26
9 5 6 7.68 6.63
9 5 6 3.91 5.51
9 5 6 3.43 4.83
-9 -5 -6 10.38 6.89
-9 -5 -6 3.74 6.46
9 5 7 39.53 13.68
9 5 7 67.47 16.8
9 5 7 36.26 11.88
-9 -5 -7 33.85 12.47
-9 -5 -7 23.99 10.29
9 5 8 -4.01 4
9 5 8 3.13 4.41
-9 -5 -8 3.4 3.39
9 5 8 8.11 9.04
9 5 9 760.3 52.97
-9 -5 -9 760.44 56.11
9 5 9 772.41 62.33
-9 -5 -10 3.33 5.75
-9 -6 1 28.91 11.66
-9 -6 0 4.08 4.06
-9 -6 -1 20.2 9.88
-9 -6 -2 292.95 35.86
9 6 2 287.8 33.51
-9 -6 -3 8 6.91
-9 -6 -3 3.86 5.44
9 6 3 18.14 8.85
-9 -6 -4 96.01 20.62
-9 -6 -4 122.54 22.52
9 6 4 157.09 25.24
-9 -6 -5 36.07 12.64
9 6 5 19.21 10.15
-9 -6 -5 18.99 9.29
9 6 6 275.84 34.7
-9 -6 -6 252.35 32.61
-9 -6 -6 302.05 36.54
9 6 7 40.35 13.98
-9 -6 -7 52.41 14.97
-9 -6 -7 44.5 14.02
9 6 8 411.41 39.36
9 6 8 406.17 42.95
9 6 8 420.07 44.07
-9 -6 -8 394.05 40.79
9 6 9 55.88 13.58
9 7 2 25.95 11.7
9 7 3 190.99 28.51
9 7 4 3.92 6.77
-9 -7 -4 12.68 8.42
9 7 5 456.49 45.5
10 1 1 244.46 30.35
10 1 2 -3.28 4.62
10 1 3 148.54 22.43
-10 -1 -4 3.38 6.74
-10 -1 -4 6.69 6.66
10 2 1 -3.65 6.3
10 2 2 249.67 31.97
10 2 2 202.3 29.76
10 2 3 34.81 12.22
10 2 4 63.83 16.83
10 2 4 65.13 16.23
10 3 1 148.69 24.08
10 3 2 -4 5.63
10 3 2 -3.76 3.74
10 3 3 433.6 43.45
10 3 3 362.66 39.95
10 3 4 49.17 14.7
10 3 4 80.37 17.92
10 3 5 54.75 15.07
10 3 6 48.99 14.01
10 4 1 189.33 27.45
-10 -4 -1 186.28 28.06
10 4 2 131.95 23.48
-10 -4 -2 139.19 23.69
10 4 3 7.77 6.7
10 4 3 3.97 3.95
10 4 4 104.51 20.58
10 4 4 100.24 20.54
-10 -4 -5 3.29 3.27
10 4 5 -3.73 5.26
-10 -4 -6 323.73 33.8
10 4 6 297.33 34.5
loop_
_exptl_crystal_face_index_h
_exptl_crystal_face_index_k
_exptl_crystal_face_index_l
_exptl_crystal_face_perp_dist
0 -1 -1 0.0866
0 1 0 0.0696
0 -1 0 0.0904
-1 0 1 0.1074
1 0 -1 0.0985
0 -1 1 0.1088
0 1 -1 0.0644
1 0 1 0.0694
-1 0 -1 0.0918
1 1 1 0.0760
0 0 1 0.0794
0 0 -1 0.0638
-1 -1 -1 0.0599
1 1 2 0.0601
1 -1 0 0.0918
loop_
_geom_angle_atom_site_label_1
_geom_angle_atom_site_label_2
_geom_angle_atom_site_label_3
_geom_angle
_geom_angle_site_symmetry_1
_geom_angle_site_symmetry_3
_geom_angle_publ_flag
O1 Cu1 O1 180.0 2_666 . ?
O2 Cu1 O1 88.30(3) . . ?
O2 Cu1 O1 91.70(3) 2_666 . ?
O2 Cu1 O1 88.30(3) 2_666 2_666 ?
O2 Cu1 O1 91.70(3) . 2_666 ?
O2 Cu1 O2 180.0 . 2_666 ?
O6 Cu1 O1 87.82(3) 2_666 2_666 ?
O6 Cu1 O1 92.18(3) 2_666 . ?
O6 Cu1 O1 92.18(3) . 2_666 ?
O6 Cu1 O1 87.82(3) . . ?
O6 Cu1 O2 92.28(3) . 2_666 ?
O6 Cu1 O2 87.72(3) 2_666 2_666 ?
O6 Cu1 O2 92.28(3) 2_666 . ?
O6 Cu1 O2 87.72(3) . . ?
O6 Cu1 O6 180.0 . 2_666 ?
O7 S1 O6 110.26(4) . . ?
O8 S1 O6 108.62(4) . . ?
O8 S1 O7 108.84(4) . . ?
O9 S1 O6 109.46(4) . . ?
O9 S1 O7 110.96(4) . . ?
O9 S1 O8 108.65(4) . . ?
H1a O1 Cu1 118.7(12) . . ?
H1b O1 Cu1 115.6(12) . . ?
H1b O1 H1a 104.5(16) . . ?
O3 Cu2 O3 180.0 2_675 . ?
O4 Cu2 O3 90.39(3) . 2_675 ?
O4 Cu2 O3 90.39(3) 2_675 . ?
O4 Cu2 O3 89.61(3) . . ?
O4 Cu2 O3 89.61(3) 2_675 2_675 ?
O4 Cu2 O4 180.0 . 2_675 ?
O9 Cu2 O3 91.97(3) 2_675 2_675 ?
O9 Cu2 O3 91.97(3) . . ?
O9 Cu2 O3 88.03(3) . 2_675 ?
O9 Cu2 O3 88.03(3) 2_675 . ?
O9 Cu2 O4 86.65(3) 2_675 . ?
O9 Cu2 O4 93.35(3) . . ?
O9 Cu2 O4 93.35(3) 2_675 2_675 ?
O9 Cu2 O4 86.65(3) . 2_675 ?
O9 Cu2 O9 180.0 2_675 . ?
H2a O2 Cu1 112.1(11) . 2_666 ?
H2b O2 Cu1 120.6(11) . 2_666 ?
H2b O2 H2a 109.8(16) . . ?
H3a O3 Cu2 123.8(11) . 2_675 ?
H3b O3 Cu2 127.0(12) . 2_675 ?
H3b O3 H3a 107.6(15) . . ?
H4a O4 Cu2 124.7(13) . 2_675 ?
H4b O4 Cu2 123.2(13) . 2_675 ?
H4b O4 H4a 112.0(18) . . ?
S1 O6 Cu1 132.10(4) . 2_666 ?
Cu2 O9 S1 138.36(4) 2_675 . ?
H5b O5 H5a 107.5(18) . . ?
loop_
_geom_bond_atom_site_label_1
_geom_bond_atom_site_label_2
_geom_bond_distance
_geom_bond_site_symmetry_2
_geom_bond_publ_flag
Cu1 O1 1.9686(8) . ?
Cu1 O1 1.9686(8) 2_666 ?
Cu1 O2 1.9759(7) . ?
Cu1 O2 1.9759(7) 2_666 ?
Cu1 O6 2.3619(7) 2_666 ?
Cu1 O6 2.3619(7) . ?
S1 O6 1.4751(7) . ?
S1 O7 1.4758(8) . ?
S1 O8 1.4910(7) . ?
S1 O9 1.4783(7) . ?
O1 H1a 0.962(14) . ?
O1 H1b 0.950(13) . ?
Cu2 O3 1.9676(7) 2_675 ?
Cu2 O3 1.9676(7) . ?
Cu2 O4 1.9360(8) . ?
Cu2 O4 1.9360(8) 2_675 ?
Cu2 O9 2.4100(7) 2_675 ?
Cu2 O9 2.4100(7) . ?
O2 H2a 0.971(14) . ?
O2 H2b 0.947(13) . ?
O3 H3a 0.964(14) . ?
O3 H3b 0.969(14) . ?
O4 H4a 0.947(14) . ?
O4 H4b 0.961(14) . ?
O5 H5a 0.964(15) . ?
O5 H5b 0.963(15) . ?
loop_
_geom_hbond_atom_site_label_D
_geom_hbond_atom_site_label_H
_geom_hbond_atom_site_label_A
_geom_hbond_distance_DH
_geom_hbond_distance_HA
_geom_hbond_distance_DA
_geom_hbond_angle_DHA
_geom_hbond_site_symmetry_A
O1 H1a O6 0.962(14) 2.494(17) 3.1997(11) 130.1(14) 1_455
O1 H1a O8 0.962(14) 1.875(15) 2.8113(11) 163.5(17) 1_455
O1 H1b O5 0.950(13) 1.812(14) 2.7494(11) 168.4(18) .
O2 H2a O3 0.971(14) 2.517(18) 3.1423(11) 122.1(14) 1_546
O2 H2a O9 0.971(14) 1.895(16) 2.7855(10) 151.3(17) 2_666
O2 H2b O5 0.947(13) 1.781(13) 2.7271(11) 176.2(17) 1_655
O3 H3a O7 0.964(14) 1.754(14) 2.7017(11) 166.7(17) 2_765
O3 H3b O8 0.969(14) 1.791(14) 2.7424(11) 166.5(18) 2_775
O4 H4a O7 0.947(14) 1.720(15) 2.6653(11) 175.7(19) 2_665
O4 H4b O8 0.961(14) 1.752(15) 2.6930(10) 166(2) 2_765
O5 H5a O6 0.964(15) 1.810(15) 2.7601(11) 167.6(19) 2_656
O5 H5b O9 0.963(15) 2.015(16) 2.9388(11) 160.0(19) 2_666
loop_
_geom_torsion_atom_site_label_1
_geom_torsion_atom_site_label_2
_geom_torsion_atom_site_label_3
_geom_torsion_atom_site_label_4
_geom_torsion
_geom_torsion_site_symmetry_1
_geom_torsion_site_symmetry_2
_geom_torsion_site_symmetry_3
_geom_torsion_site_symmetry_4
_geom_torsion_publ_flag
Cu1 O6 S1 O7 -108.98(6) 2_666 . . . ?
Cu1 O6 S1 O7 -108.98(6) . . . . ?
Cu1 O6 S1 O8 131.84(6) 2_666 . . . ?
Cu1 O6 S1 O8 131.84(6) . . . . ?
Cu1 O6 S1 O9 13.35(7) 2_666 . . . ?
Cu1 O6 S1 O9 13.35(7) . . . . ?
loop_
_restr_distance_atom_site_label_1
_restr_distance_atom_site_label_2
_restr_distance_site_symmetry_2
_restr_distance_target
_restr_distance_target_weight_param
_restr_distance_diff
O1 H1a 1 0.9890 0.0200 0.0266
O1 H1b 1 0.9890 0.0200 0.0388
O2 H2a 1 0.9890 0.0200 0.0184
O2 H2b 1 0.9890 0.0200 0.0417
O3 H3a 1 0.9890 0.0200 0.0248
O3 H3b 1 0.9890 0.0200 0.0201
O4 H4a 1 0.9890 0.0200 0.0419
O4 H4b 1 0.9890 0.0200 0.0280
O5 H5a 1 0.9890 0.0200 0.0246
O5 H5b 1 0.9890 0.0200 0.0256
loop_
_restr_U_iso_atom_site_label
_restr_U_iso_weight_param
H1a 0.0100
H1b 0.0100
H2a 0.0050
H2b 0.0050
H3a 0.0100
H3b 0.0100
H4a 0.0100
H4b 0.0100
H5a 0.0100
H5b 0.0100
loop_
_exptl_oxdiff_crystal_face_indexfrac_h
_exptl_oxdiff_crystal_face_indexfrac_k
_exptl_oxdiff_crystal_face_indexfrac_l
_exptl_oxdiff_crystal_face_x
_exptl_oxdiff_crystal_face_y
_exptl_oxdiff_crystal_face_z
-0.0010 -0.9995 -1.0005 0.1291 0.0066 -0.0127
0.0010 1.0000 0.0014 -0.1084 -0.0468 -0.0387
-0.0010 -1.0000 -0.0014 0.1084 0.0468 0.0387
-0.9992 0.0002 0.9995 -0.0469 -0.0554 0.1274
0.9992 -0.0002 -0.9995 0.0469 0.0554 -0.1274
-0.0010 -1.0004 0.9977 0.0878 0.0870 0.0902
0.0010 1.0004 -0.9977 -0.0878 -0.0870 -0.0902
0.9992 -0.0010 0.9987 0.0055 0.1358 -0.0245
-0.9992 0.0010 -0.9987 -0.0055 -0.1358 0.0245
1.0002 0.9989 1.0001 -0.1029 0.0890 -0.0633
-0.0000 -0.0004 0.9991 -0.0207 0.0402 0.0514
0.0000 0.0004 -0.9991 0.0207 -0.0402 -0.0514
-1.0002 -0.9989 -1.0001 0.1029 -0.0890 0.0633
1.0002 0.9985 1.9992 -0.1236 0.1293 -0.0118
0.9982 -1.0006 -0.0018 0.1346 0.1424 -0.0373
