#------------------------------------------------------------------------------
#$Date: 2022-06-06 04:58:33 +0300 (Mon, 06 Jun 2022) $
#$Revision: 275814 $
#$URL: file:///home/coder/svn-repositories/cod/cif/7/06/14/7061462.cif $
#------------------------------------------------------------------------------
#
# This file is available in the Crystallography Open Database (COD),
# http://www.crystallography.net/
#
# All data on this site have been placed in the public domain by the
# contributors.
#
data_7061462
loop_
_publ_author_name
'Mannarsamy, Maruthupandi'
'Nandeshwar, Muneshwar'
'Veerapathiran, Sabari'
'Mandal, Suman'
'Harijan, Dinesh'
'Subramaniyam, Kalaivanan'
'Muduli, Gopendra'
'Prabusankar, Ganesan'
_publ_section_title
;
 Dinuclear complexes, a one dimensional chain and a two dimensional layer
 of bismuth(iii) chalcogenones for C--S cross coupling reactions
;
_journal_issue                   21
_journal_name_full               'New Journal of Chemistry'
_journal_page_first              10256
_journal_page_last               10263
_journal_paper_doi               10.1039/D2NJ01151D
_journal_volume                  46
_journal_year                    2022
_chemical_formula_moiety         'C12 H15 Bi Br3 N2 O Se'
_chemical_formula_sum            'C12 H15 Bi Br3 N2 O Se'
_chemical_formula_weight         730.92
_space_group_crystal_system      triclinic
_space_group_IT_number           2
_space_group_name_Hall           '-P 1'
_space_group_name_H-M_alt        'P -1'
_symmetry_Int_Tables_number      2
_atom_sites_solution_primary     iterative
_audit_creation_date             2021-12-17
_audit_creation_method
;
Olex2 1.2
(compiled 2018.05.29 svn.r3508 for OlexSys, GUI svn.r5506)
;
_audit_update_record
;
2021-12-17 deposited with the CCDC.	2022-04-22 downloaded from the CCDC.
;
_cell_angle_alpha                77.900(4)
_cell_angle_beta                 78.288(4)
_cell_angle_gamma                84.332(4)
_cell_formula_units_Z            2
_cell_length_a                   7.6380(4)
_cell_length_b                   11.3080(4)
_cell_length_c                   13.1866(7)
_cell_measurement_reflns_used    2168
_cell_measurement_temperature    293
_cell_measurement_theta_max      26.9010
_cell_measurement_theta_min      3.6750
_cell_volume                     1088.56(9)
_computing_cell_refinement       'CrysAlisPro 1.171.39.31d (Rigaku OD, 2017)'
_computing_data_collection       'CrysAlisPro 1.171.39.31d (Rigaku OD, 2017)'
_computing_data_reduction        'CrysAlisPro 1.171.39.31d (Rigaku OD, 2017)'
_computing_molecular_graphics    'Olex2 (Dolomanov et al., 2009)'
_computing_publication_material  'Olex2 (Dolomanov et al., 2009)'
_computing_structure_refinement  'olex2.refine (Bourhis et al., 2015)'
_computing_structure_solution    'olex2.solve (Bourhis et al., 2015)'
_diffrn_ambient_temperature      293.0
_diffrn_detector                 'CCD plate'
_diffrn_detector_area_resol_mean 16.0309
_diffrn_detector_type            Eos
_diffrn_measured_fraction_theta_full 0.8161
_diffrn_measured_fraction_theta_max 0.8161
_diffrn_measurement_details
;
List of Runs (angles in degrees, time in seconds):

  # Type    Start    End  Width  t~exp~   \w     \q     \k     \f   Frames
#--------------------------------------------------------------------------
  1  \w    -13.00  84.00   1.00   22.00    --   16.95  77.00 -60.00   97
  2  \w    -20.00  59.00   1.00   22.00    --   16.95 -99.00-180.00   79
  3  \w    -75.00 -47.00   1.00   22.00    --  -18.98 124.00  16.00   28
  4  \w    -46.00  46.00   1.00   22.00    --  -18.98  77.00  60.00   92
  5  \w    -88.00 -16.00   1.00   22.00    --  -18.98 -57.00-180.00   72
  6  \w     -6.00  50.00   1.00   22.00    --  -18.98  57.00 -30.00   56
;
_diffrn_measurement_device       'four-circle diffractometer'
_diffrn_measurement_device_type  'SuperNova, Dual, Cu at home/near, Eos'
_diffrn_measurement_method       '\w scans'
_diffrn_orient_matrix_type
'CrysAlisPro convention (1999,Acta A55,543-557)'
_diffrn_orient_matrix_UB_11      -0.0215779000
_diffrn_orient_matrix_UB_12      0.0134207000
_diffrn_orient_matrix_UB_13      0.0514381000
_diffrn_orient_matrix_UB_21      0.0133443000
_diffrn_orient_matrix_UB_22      0.0620757000
_diffrn_orient_matrix_UB_23      -0.0217056000
_diffrn_orient_matrix_UB_31      -0.0915529000
_diffrn_orient_matrix_UB_32      0.0097999000
_diffrn_orient_matrix_UB_33      -0.0043996000
_diffrn_radiation_monochromator  mirror
_diffrn_radiation_probe          x-ray
_diffrn_radiation_type           'Mo K\a'
_diffrn_radiation_wavelength     0.71073
_diffrn_reflns_av_R_equivalents  0.0798
_diffrn_reflns_av_unetI/netI     0.1136
_diffrn_reflns_limit_h_max       10
_diffrn_reflns_limit_h_min       -9
_diffrn_reflns_limit_k_max       14
_diffrn_reflns_limit_k_min       -10
_diffrn_reflns_limit_l_max       16
_diffrn_reflns_limit_l_min       -17
_diffrn_reflns_number            8154
_diffrn_reflns_theta_full        29.1034
_diffrn_reflns_theta_max         29.10
_diffrn_reflns_theta_min         2.90
_diffrn_source                   'micro-focus sealed X-ray tube'
_diffrn_source_type              'SuperNova (Mo) X-ray Source'
_exptl_absorpt_coefficient_mu    15.271
_exptl_absorpt_correction_T_max  1.00000
_exptl_absorpt_correction_T_min  0.10948
_exptl_absorpt_correction_type   multi-scan
_exptl_absorpt_process_details
;
CrysAlisPro 1.171.39.31d (Rigaku Oxford Diffraction, 2017)
Empirical absorption correction using spherical harmonics,
 implemented in SCALE3 ABSPACK scaling algorithm.
;
_exptl_crystal_colour            'clear reddish red'
_exptl_crystal_colour_lustre     clear
_exptl_crystal_colour_modifier   reddish
_exptl_crystal_colour_primary    red
_exptl_crystal_density_diffrn    2.2298
_exptl_crystal_description       plate
_exptl_crystal_F_000             653.4063
_exptl_crystal_size_max          0.09
_exptl_crystal_size_mid          0.08
_exptl_crystal_size_min          0.07
_refine_diff_density_max         3.4867
_refine_diff_density_min         -3.9716
_refine_diff_density_rms         0.4034
_refine_ls_d_res_high            0.7306
_refine_ls_d_res_low             7.0340
_refine_ls_extinction_expression Fc^*^=kFc[1+0.001xFc^2^\l^3^/sin(2\q)]^-1/4^
_refine_ls_goodness_of_fit_ref   0.9272
_refine_ls_hydrogen_treatment    constr
_refine_ls_matrix_type           full
_refine_ls_number_constraints    25
_refine_ls_number_parameters     185
_refine_ls_number_reflns         4770
_refine_ls_number_restraints     0
_refine_ls_restrained_S_all      0.9272
_refine_ls_R_factor_all          0.0910
_refine_ls_R_factor_gt           0.0578
_refine_ls_shift/su_max          2.3081
_refine_ls_shift/su_mean         0.0125
_refine_ls_structure_factor_coef Fsqd
_refine_ls_weighting_details
'w=1/[\s^2^(Fo^2^)+(0.0566P)^2^] where P=(Fo^2^+2Fc^2^)/3'
_refine_ls_weighting_scheme      calc
_refine_ls_wR_factor_gt          0.1151
_refine_ls_wR_factor_ref         0.1321
_reflns_Friedel_coverage         0.0
_reflns_limit_h_max              10
_reflns_limit_h_min              -9
_reflns_limit_k_max              14
_reflns_limit_k_min              -13
_reflns_limit_l_max              17
_reflns_limit_l_min              0
_reflns_number_gt                3210
_reflns_number_total             4770
_reflns_threshold_expression     I>=2u(I)
_iucr_refine_instructions_details
;
TITL 
CELL 0.71073 7.638 11.308 13.1866 77.9 78.288 84.332
ZERR 2 0.0004 0.0004 0.0007 0.004 0.004 0.004
LATT 1
SFAC C H Bi Br N O Se
UNIT 24 32 2 6 4 2 2

L.S. 4
PLAN  20
SIZE 0.08 0.09 0.07
TEMP 19.85
FMAP 2
ABIN 
ACTA 
EXTI 0
WGHT 0.056589 0
FVAR 0.273217
REM <olex2.extras>
REM <HklSrc "%.\\iith07.hkl">
REM </olex2.extras>

Bi1   3     0.27939  0.95490  0.93234  11.00000  0.03574  0.03762  0.03423 =
 -0.00351 -0.00090 -0.00659 
Br2   4     0.57582  1.12131  0.86121  11.00000  0.05771  0.05130  0.03525 =
 -0.00017 -0.00215 -0.02175 
Se1   7     0.51447  0.75691  0.90877  11.00000  0.05361  0.04424  0.03554 =
 -0.00375 -0.00986  0.00433 
Br3   4    -0.02344  0.81870  1.01141  11.00000  0.04718  0.04529  0.08137 =
 -0.01329  0.01299 -0.01447 
Br1   4     0.20755  0.99100  0.73723  11.00000  0.07024  0.06883  0.04489 =
 -0.00268 -0.01761 -0.00076 
N1    5     0.37879  0.66669  0.75493  11.00000  0.04978  0.02643  0.03072 =
 0.00296  0.00213 -0.00070 
N2    5     0.59997  0.78494  0.68139  11.00000  0.05047  0.04605  0.03710 =
 -0.00688 -0.00333 -0.00545 
C1    1     0.49460  0.73629  0.77485  11.00000  0.03225  0.04172  0.02301 =
 -0.00039  0.00774  0.00156 
C7    1     0.54712  0.74517  0.60007  11.00000  0.05301  0.04009  0.04534 =
 -0.00685 -0.00937  0.00287 
C2    1     0.40567  0.66996  0.64701  11.00000  0.05924  0.04356  0.03295 =
 -0.01311 -0.01190  0.01496 
C11   1     0.24092  0.59868  0.83440  11.00000  0.05857  0.04708  0.05619 =
 -0.00539  0.00367 -0.01708 
AFIX 23
H11a  2     0.19818  0.64407  0.89028  11.00000 -1.20000 
H11b  2     0.14036  0.59233  0.80161  11.00000 -1.20000 
AFIX 0
C8    1     0.75402  0.86103  0.67181  11.00000  0.06894  0.05518  0.04931 =
 -0.00448  0.00601 -0.01498 
AFIX 13
H8    2     0.75793  0.87314  0.74274  11.00000 -1.20000 
AFIX 0
O1    6     0.34379  0.40571  0.80238  11.00000  0.12392  0.04718  0.07084 =
 -0.00288 -0.01015 -0.01052 
AFIX 147
H1    2     0.40977  0.34680  0.82081  11.00000 -1.50000 
AFIX 0
C1aa  1     0.52800  0.71303  0.43369  11.00000  0.11685  0.06731  0.03784 =
 -0.00474 -0.01445 -0.00035 
AFIX 43
H1aa  2     0.56953  0.72655  0.36111  11.00000 -1.20000 
AFIX 0
C6    1     0.60474  0.76634  0.49212  11.00000  0.08152  0.05867  0.02938 =
 -0.00189  0.00752  0.00572 
AFIX 43
H6    2     0.69681  0.81767  0.46067  11.00000 -1.20000 
AFIX 0
C12   1     0.30385  0.47618  0.88140  11.00000  0.10971  0.05177  0.04409 =
 0.00234 -0.01337 -0.01348 
AFIX 43
H12   2     0.31535  0.44967  0.95155  11.00000 -1.20000 
AFIX 0
C10   1     0.72280  0.98460  0.60451  11.00000  0.08993  0.05825  0.08063 =
 0.00541  0.02425 -0.02192 
AFIX 137
H10a  2     0.71312  0.97539  0.53515  11.00000 -1.50000 
H10b  2     0.61405  1.02340  0.63626  11.00000 -1.50000 
H10c  2     0.82145  1.03328  0.59948  11.00000 -1.50000 
AFIX 0
C4    1     0.38549  0.63643  0.47736  11.00000  0.11091  0.08433  0.05813 =
 -0.03639 -0.03796  0.03073 
AFIX 43
H4    2     0.33245  0.60171  0.43400  11.00000 -1.20000 
AFIX 0
C3    1     0.32510  0.61339  0.58641  11.00000  0.07092  0.05425  0.06394 =
 -0.01501 -0.01749  0.00999 
AFIX 43
H3    2     0.23346  0.56159  0.61749  11.00000 -1.20000 
AFIX 0
C9    1     0.92679  0.79383  0.63295  11.00000  0.05924  0.06855  0.14459 =
 -0.02192 -0.00586 -0.01050 
AFIX 137
H9a   2     0.95130  0.72684  0.68731  11.00000 -1.50000 
H9b   2     0.91627  0.76425  0.57144  11.00000 -1.50000 
H9c   2     1.02283  0.84760  0.61534  11.00000 -1.50000 
AFIX 0
HKLF 4

END
Q17 1 0.222222 0.8 0.888889 11 0.05 1.71
Q24 1 0.518519 0.975 0.911111 11 0.05 1.63
Q16 1 0.444444 1.025 0.844444 11 0.05 1.74
Q25 1 0.111111 0.825 0.866667 11 0.05 1.63
Q9 1 0.222222 0.875 0.955556 11 0.05 2.2
Q1 1 0.333333 1.025 0.911111 11 0.05 3.49
Q4 1 0.37037 0.975 1 11 0.05 2.71
Q6 1 0.37037 0.925 0.866667 11 0.05 2.53
Q8 1 0.185185 0.975 0.933333 11 0.05 2.37
Q11 1 0.5 1 1 11 0.05 2.14
Q13 1 0.444444 1.05 0.933333 11 0.05 1.92
Q15 1 0.222222 0.95 1.022222 11 0.05 1.78
Q18 1 0.666667 1.1 0.866667 11 0.05 1.71
Q21 1 0.111111 0.925 0.866667 11 0.05 1.69
Q23 1 0.222222 0.825 0.888889 11 0.05 1.68

  REM The information below was added by Olex2.
  REM
  REM R1 = 0.0578 for 3210 Fo > 4sig(Fo) and 0.0910 for all 4770 data
  REM 185 parameters refined using 0 restraints
  REM Highest difference peak 3.4867, deepest hole -3.9716
  REM Mean Shift 0.0125, Max Shift 2.3081.

  REM +++ Tabular Listing of Refinement Information +++
  REM R1_all = 0.0910
  REM R1_gt = 0.0578
  REM wR_ref = 0.1321
  REM GOOF = 0.9272
  REM Shift_max = 2.3081
  REM Shift_mean = 0.0125
  REM Reflections_all = 4770
  REM Reflections_gt = 3210
  REM Parameters = 185
  REM Hole = -3.9716
  REM Peak = 3.4867
  REM Flack = n/a

  
;
_cod_data_source_file            d2nj01151d2.cif
_cod_data_source_block           3
_cod_depositor_comments
'Adding full bibliography for 7061460--7061465.cif.'
_cod_database_code               7061462
_reflns_odcompleteness_completeness 96.78
_reflns_odcompleteness_iscentric 1
_reflns_odcompleteness_theta     26.32
_olex2_refinement_description
;
1. Fixed Uiso
 At 1.2 times of:
  All C(H) groups, All C(H,H) groups
 At 1.5 times of:
  All C(H,H,H) groups, All O(H) groups
2.a Ternary CH refined with riding coordinates:
 C8(H8)
2.b Secondary CH2 refined with riding coordinates:
 C11(H11a,H11b)
2.c Aromatic/amide H refined with riding coordinates:
 C1aa(H1aa), C6(H6), C12(H12), C4(H4), C3(H3)
2.d Idealised Me refined as rotating group:
 C10(H10a,H10b,H10c), C9(H9a,H9b,H9c)
2.e Idealised tetrahedral OH refined as rotating group:
 O1(H1)
;
_shelx_fab_file
;
-9 -4 1 3.0525 -0.0681
-9 -3 1 -0.6802 0.5013
-9 -3 2 0.8490 -0.5037
-9 -2 1 -0.9113 0.8145
-9 -2 2 -0.0132 0.0110
-9 -2 3 -0.5561 -0.2053
-9 -1 1 2.4190 0.0346
-9 -1 2 0.2089 0.4871
-9 -1 3 1.5211 -0.4170
-9 -1 4 -1.3394 -0.1580
-9 0 1 -3.8174 -0.4666
-9 0 2 -0.6838 0.4550
-9 0 3 0.2837 0.0161
-9 0 4 0.3194 -0.1339
-9 0 5 -0.7421 0.0468
-9 1 1 1.4162 -0.7450
-9 1 2 -1.5078 0.1401
-9 2 1 4.8637 0.0279
-9 2 2 0.6400 -0.6964
-8 -7 1 -5.6411 0.1061
-8 -6 1 1.2289 -0.5043
-8 -6 2 -1.2901 0.6286
-8 -5 1 -0.6108 -0.6730
-8 -5 2 -1.4894 0.2745
-8 -5 3 2.8131 0.8878
-8 -4 1 1.4069 -0.4098
-8 -4 2 1.6688 -0.5876
-8 -4 3 -3.3729 0.2949
-8 -4 4 1.2396 0.5026
-8 -3 1 -1.3187 0.5948
-8 -3 2 -1.8508 -0.6879
-8 -3 3 1.5319 -0.0589
-8 -3 4 -2.0544 0.2799
-8 -3 5 0.1219 0.1766
-8 -2 1 1.6399 0.9326
-8 -2 2 2.1170 -0.0011
-8 -2 3 -2.0024 -0.2958
-8 -2 4 0.7605 0.0605
-8 -2 5 0.1603 0.1979
-8 -2 6 0.6008 -0.1049
-8 -1 1 0.5286 0.0563
-8 -1 2 -0.1777 0.4417
-8 -1 3 3.0667 -0.2984
-8 -1 4 -3.0098 -0.0939
-8 -1 5 -0.9999 0.1277
-8 -1 6 -0.7224 0.0562
-8 -1 7 0.6092 -0.1651
-8 0 1 -3.3866 -0.5612
-8 0 2 -0.1917 0.4297
-8 0 3 0.8246 -0.0184
-8 0 4 3.1289 0.0069
-8 0 5 -0.6571 -0.1050
-8 0 6 2.4504 0.1506
-8 0 7 0.0886 -0.1871
-8 1 1 1.5600 -0.5603
-8 1 2 -2.7617 0.0651
-8 1 3 -1.9071 0.2260
-8 1 4 1.9635 -0.1395
-8 1 5 -2.4604 0.0798
-8 1 6 -3.3106 0.0042
-8 1 7 3.6842 -0.0315
-8 1 8 4.5766 -0.1959
-8 2 1 2.8948 0.0478
-8 2 2 1.0400 -0.4247
-8 2 3 -1.5417 0.0498
-8 2 4 -0.8915 -0.0013
-8 2 5 5.2839 0.0266
-8 3 1 -1.9298 0.3703
-8 3 2 3.5635 -0.1693
-8 3 3 -0.9861 0.0260
-8 3 4 -1.6457 -0.0495
-8 3 5 1.0290 -0.3152
-8 3 6 5.2708 -0.0004
-8 3 7 -1.0957 0.3740
-8 4 1 -2.5287 0.5368
-8 4 2 -1.6685 0.1580
-8 4 3 3.9350 0.0202
-8 4 4 -2.2151 -0.0855
-8 4 5 -3.9875 0.2433
-8 4 6 0.1746 -0.7241
-8 4 7 2.3142 0.1774
-8 5 1 3.5521 -0.4410
-8 5 2 -2.1450 0.1536
-8 5 3 -1.2493 0.0154
-8 5 4 2.8050 0.4493
-8 5 5 1.0514 -0.1720
-8 5 6 -0.8057 0.5331
-8 6 1 -2.6053 -0.5299
-8 6 2 2.8932 0.1217
-8 6 3 -0.7698 -0.1791
-7 -9 1 2.1111 -0.0102
-7 -8 1 1.4801 0.9051
-7 -8 2 -1.2247 -0.5776
-7 -8 3 -0.6228 -0.2887
-7 -7 1 -1.5103 0.1844
-7 -7 2 3.4291 0.5448
-7 -7 3 1.5919 -0.3788
-7 -7 4 -3.6347 -0.0350
-7 -6 1 -1.5215 -0.6194
-7 -6 2 -2.1018 0.5881
-7 -6 3 -0.7897 -0.0912
-7 -6 4 2.2088 -0.2724
-7 -6 5 -0.4086 -0.1875
-7 -5 1 0.1350 -0.8006
-7 -5 2 -0.7345 0.0392
-7 -5 3 1.6028 0.3722
-7 -5 4 -1.1541 -0.1776
-7 -5 5 -1.3486 -0.1275
-7 -5 6 1.0437 0.1229
-7 -4 1 0.5425 -0.2229
-7 -4 2 1.9818 -0.4017
-7 -4 3 -2.3764 0.2199
-7 -4 4 1.6540 0.1453
-7 -4 5 0.2814 -0.0002
-7 -4 6 -2.4862 0.0511
-7 -4 7 -2.9588 0.3253
-7 -3 1 -1.7765 0.5838
-7 -3 2 -2.2527 -0.5870
-7 -3 3 2.4134 0.0235
-7 -3 4 -0.1011 0.0061
-7 -3 5 1.0132 -0.0494
-7 -3 6 1.2379 -0.1854
-7 -3 7 3.0310 -0.0727
-7 -3 8 -7.3028 0.0648
-7 -2 1 3.7475 0.9347
-7 -2 2 0.1630 -0.0406
-7 -2 3 -3.6201 -0.1417
-7 -2 4 -0.6033 0.0118
-7 -2 5 1.5594 0.0996
-7 -2 6 -0.2482 -0.0126
-7 -2 7 -1.8758 -0.0219
-7 -2 8 5.0786 -0.0891
-7 -1 1 -1.4240 -0.0644
-7 -1 2 1.7756 0.4400
-7 -1 3 3.4215 -0.2184
-7 -1 4 -3.9155 0.0295
-7 -1 5 -1.7044 -0.0498
-7 -1 6 1.2494 0.0705
-7 -1 7 1.8630 -0.0542
-7 -1 8 -1.0457 0.0019
-7 -1 9 2.2653 -0.1486
-7 0 1 -0.4665 -0.6431
-7 0 2 -0.8771 0.4307
-7 0 3 0.0819 0.0376
-7 0 4 5.2389 0.0954
-7 0 5 -2.7785 -0.1233
-7 0 6 -0.4895 0.0979
-7 0 7 -2.7368 -0.0569
-7 0 8 0.1762 0.1844
-7 0 9 -0.1329 0.0811
-7 1 1 -0.1205 -0.5435
-7 1 2 -0.4723 -0.2138
-7 1 3 -0.9265 0.1282
-7 1 4 -0.5920 0.0051
-7 1 5 2.6509 0.0681
-7 1 6 -0.5976 -0.1242
-7 1 7 3.2997 -0.1128
-7 1 8 -1.2922 -0.1601
-7 1 9 0.0929 0.0644
-7 1 10 1.5817 0.1039
-7 2 1 -0.2926 0.2153
-7 2 2 -0.3352 -0.3675
-7 2 3 -0.7161 -0.0943
-7 2 4 -0.8798 0.0448
-7 2 5 -0.1357 0.0992
-7 2 6 -0.8567 0.1685
-7 2 7 -0.5261 0.1806
-7 2 8 0.6335 -0.2466
-7 2 9 -0.6558 0.0259
-7 3 1 0.6851 0.6415
-7 3 2 0.8160 -0.0052
-7 3 3 -0.4480 -0.0341
-7 3 4 1.3192 -0.2128
-7 3 5 0.6056 0.1031
-7 3 6 -0.8358 -0.1753
-7 3 7 -2.1870 0.2025
-7 3 8 3.9297 -0.0545
-7 3 9 -2.8235 -0.0278
-7 4 1 -0.4450 0.2051
-7 4 2 0.7157 0.1282
-7 4 3 0.7996 0.0155
-7 4 4 -3.2437 -0.1895
-7 4 5 0.9305 -0.0954
-7 4 6 3.2297 -0.0368
-7 4 7 -0.3925 0.1355
-7 4 8 -4.7474 0.4160
-7 5 1 1.0250 -0.3253
-7 5 2 -1.8274 0.3881
-7 5 3 0.8836 0.1557
-7 5 4 1.7103 0.1967
-7 5 5 -1.9461 -0.1885
-7 5 6 -0.9517 0.0367
-7 5 7 0.8721 -0.5940
-7 5 8 0.3219 0.0383
-7 6 1 -1.7220 -0.5848
-7 6 2 1.5695 -0.0473
-7 6 3 -1.2211 0.0273
-7 6 4 0.8440 0.2032
-7 6 5 -0.8071 0.1110
-7 6 6 0.4523 0.0246
-7 6 7 3.0128 0.2080
-7 6 8 0.8968 -0.1877
-7 7 1 2.7930 -0.1475
-7 7 2 -1.2139 -0.5476
-7 7 3 0.4520 -0.0190
-7 7 4 -1.2784 -0.1208
-7 7 5 1.6807 0.0822
-7 7 6 -3.3417 0.2538
-7 7 7 -3.8923 -0.0548
-7 7 8 0.4344 0.0153
-7 8 1 -2.3885 0.8745
-7 8 2 1.9352 0.0311
-7 8 3 -0.3771 -0.0206
-6 -11 1 -0.4408 0.2431
-6 -10 1 0.2058 -0.5817
-6 -10 2 3.1632 -0.4001
-6 -10 3 4.5586 -0.9218
-6 -9 1 1.2989 0.9206
-6 -9 2 -4.7059 -0.3215
-6 -9 3 -3.3418 -0.1110
-6 -9 4 0.4153 -0.2065
-6 -8 1 0.4710 0.7825
-6 -8 2 3.4722 0.3078
-6 -8 3 1.7263 0.0326
-6 -8 4 0.0494 -0.2634
-6 -8 5 -0.8747 -0.6056
-6 -7 1 0.7403 0.0452
-6 -7 2 -2.6313 0.2399
-6 -7 3 -0.2515 0.0036
-6 -7 4 0.2392 0.2634
-6 -7 5 -0.0088 0.0940
-6 -7 6 -3.1907 -0.3287
-6 -6 1 0.5173 -0.6350
-6 -6 2 3.6946 0.5188
-6 -6 3 -3.3720 -0.1988
-6 -6 4 1.1852 0.0748
-6 -6 5 1.6839 0.0841
-6 -6 6 0.7870 0.2693
-6 -6 7 2.3288 0.3392
-6 -5 1 -3.6153 -0.9483
-6 -5 2 -0.6983 0.0927
-6 -5 3 5.0085 0.1996
-6 -5 4 -3.7137 -0.1095
-6 -5 5 -0.5481 -0.1908
-6 -5 6 1.8868 -0.1015
-6 -5 7 -4.4001 0.0464
-6 -5 8 2.0150 0.1568
-6 -4 1 0.0502 -0.1825
-6 -4 2 -0.9507 -0.5213
-6 -4 3 -3.3626 0.1910
-6 -4 4 3.0304 0.0244
-6 -4 5 -1.3227 0.2924
-6 -4 6 -0.2555 -0.2954
-6 -4 7 3.1315 0.0349
-6 -4 8 0.6005 0.2331
-6 -4 9 1.8352 0.1342
-6 -3 1 0.4202 0.9091
-6 -3 2 0.7882 -0.5470
-6 -3 3 2.1762 -0.0049
-6 -3 4 -0.1352 -0.0751
-6 -3 5 -1.0236 0.0863
-6 -3 6 -0.4833 0.1883
-6 -3 7 0.2828 -0.1852
-6 -3 8 -6.4301 -0.1263
-6 -3 9 4.6649 -0.0374
-6 -2 1 1.6097 0.8929
-6 -2 2 -2.6957 0.0885
-6 -2 3 -0.5549 -0.1441
-6 -2 4 -0.7858 -0.1834
-6 -2 5 4.3283 -0.0351
-6 -2 6 -2.7294 0.0849
-6 -2 7 1.2918 0.0446
-6 -2 8 4.9199 0.1189
-6 -2 9 -11.9422 0.0781
-6 -2 10 0.9167 0.2413
-6 -1 1 0.2056 -0.2206
-6 -1 2 1.4943 0.6076
-6 -1 3 -0.7490 -0.1036
-6 -1 4 -0.9983 0.0954
-6 -1 5 -2.0913 -0.2751
-6 -1 6 3.4668 0.0898
-6 -1 7 -2.3917 -0.0454
-6 -1 8 1.9474 -0.0229
-6 -1 9 7.7485 -0.1207
-6 -1 10 -3.5464 -0.3820
-6 0 1 0.6351 -0.9562
-6 0 2 0.2763 0.3648
-6 0 3 0.8226 0.1526
-6 0 4 1.5640 0.1979
-6 0 5 -2.6260 -0.1402
-6 0 6 0.1186 -0.0327
-6 0 7 -0.5225 -0.0484
-6 0 8 -1.1266 0.0811
-6 0 9 -2.1516 0.1601
-6 0 10 -0.9917 -0.0607
-6 0 11 1.8085 -0.5374
-6 1 1 -0.8226 -0.5427
-6 1 2 0.7782 -0.4210
-6 1 3 -1.1288 0.1143
-6 1 4 -0.1939 0.1513
-6 1 5 2.8019 0.0950
-6 1 6 -2.5695 -0.0867
-6 1 7 1.3885 0.0130
-6 1 8 -2.8591 -0.1076
-6 1 9 3.8971 0.1982
-6 1 10 2.4459 0.2296
-6 1 11 -3.0273 -0.0638
-6 2 1 -1.5216 0.4384
-6 2 2 0.3498 -0.4815
-6 2 3 1.4043 -0.1711
-6 2 4 -0.1041 -0.0341
-6 2 5 -0.7416 0.3114
-6 2 6 2.6557 -0.1582
-6 2 7 0.2371 0.1422
-6 2 8 0.5776 -0.3090
-6 2 9 -4.0013 -0.0426
-6 2 10 2.3109 0.0298
-6 2 11 -0.7325 0.1349
-6 2 12 1.0162 -0.0483
-6 3 1 -0.7759 0.9250
-6 3 2 -2.1976 -0.1241
-6 3 3 -0.4585 -0.0748
-6 3 4 0.3680 -0.2866
-6 3 5 -0.6431 0.1379
-6 3 6 -2.6675 0.1013
-6 3 7 1.0408 0.0262
-6 3 8 3.0554 0.1541
-6 3 9 -4.3764 -0.2372
-6 3 10 -2.6840 -0.0073
-6 3 11 8.9655 0.0850
-6 4 1 2.5374 0.2707
-6 4 2 1.0883 0.5049
-6 4 3 -0.8070 -0.0928
-6 4 4 -0.7238 -0.1786
-6 4 5 2.0549 -0.2160
-6 4 6 1.3400 0.1798
-6 4 7 -3.3086 -0.0840
-6 4 8 0.0730 0.1758
-6 4 9 10.3583 -0.0180
-6 5 1 -0.3870 -0.6285
-6 5 2 -0.8217 0.3951
-6 5 3 0.9237 0.2142
-6 5 4 0.3141 0.1717
-6 5 5 -2.2166 -0.2806
-6 5 6 0.0803 -0.0549
-6 5 7 1.2248 0.0532
-6 5 8 -3.7547 0.0341
-6 6 1 0.4140 -0.7140
-6 6 2 1.8631 -0.0782
-6 6 3 -0.6634 0.0785
-6 6 4 0.7139 0.2320
-6 6 5 1.5465 -0.0142
-6 6 6 0.6956 -0.0705
-6 6 7 1.5804 -0.1833
-6 6 8 0.7957 -0.0431
-6 7 1 -0.6507 0.0322
-6 7 2 -2.3337 -0.4342
-6 7 3 -0.1785 0.0532
-6 7 4 -2.0156 0.0710
-6 7 5 -0.6310 0.2996
-6 7 6 -1.6651 -0.1543
-6 7 7 -0.6857 0.1040
-6 7 8 3.2039 -0.0548
-6 7 9 2.0046 0.0848
-6 8 1 1.1923 0.4693
-6 8 2 2.6830 -0.3076
-6 8 3 0.2816 -0.2149
-6 8 4 2.1140 -0.2719
-6 8 5 0.0431 0.0968
-6 8 6 1.0307 0.2383
-6 8 7 -1.6127 0.1360
-6 9 1 -2.5923 0.4228
-6 9 2 -0.2250 0.1921
-6 9 3 0.7309 -0.0801
-6 9 4 -2.0517 0.1249
-6 9 5 -0.0478 -0.0686
-6 10 1 -0.6421 0.2659
-6 10 2 -1.7071 0.5107
-5 -13 1 -0.7724 0.4465
-5 -12 1 -0.3337 -0.9409
-5 -12 2 -0.1470 0.0371
-5 -11 1 -2.0415 -0.5968
-5 -11 2 -0.3092 0.5059
-5 -11 3 -1.3243 1.3433
-5 -11 4 0.9785 0.2299
-5 -10 1 0.9958 -0.4273
-5 -10 2 2.1487 -0.9655
-5 -10 3 0.9083 -0.1038
-5 -10 4 -4.6870 0.4774
-5 -10 5 1.9738 0.6827
-5 -9 1 -0.5171 0.7190
-5 -9 2 -3.9784 -0.7006
-5 -9 3 2.8858 -0.4361
-5 -9 4 3.5738 -0.1019
-5 -9 5 -2.9983 -0.0080
-5 -9 6 0.4233 0.1555
-5 -8 1 2.7013 1.2731
-5 -8 2 0.5628 0.3184
-5 -8 3 -2.5120 -0.1614
-5 -8 4 -1.0361 -0.3553
-5 -8 5 1.5660 0.0983
-5 -8 6 -0.8185 0.0235
-5 -8 7 -3.1476 -0.1202
-5 -7 1 -0.4082 0.0583
-5 -7 2 -0.5037 0.5925
-5 -7 3 1.1424 0.0376
-5 -7 4 1.0512 0.0373
-5 -7 5 -1.1822 -0.3203
-5 -7 6 -0.0933 0.4013
-5 -7 7 0.9794 0.0042
-5 -7 8 2.9294 -0.2584
-5 -6 1 1.8580 -0.9654
-5 -6 2 1.6712 0.4825
-5 -6 3 -4.6539 0.0178
-5 -6 4 2.2078 0.2780
-5 -6 5 0.9915 -0.2866
-5 -6 6 0.0996 -0.2969
-5 -6 7 1.0342 0.3020
-5 -6 8 -3.6161 0.0115
-5 -6 9 1.5331 -0.1494
-5 -5 1 -3.3969 -1.0097
-5 -5 2 2.6825 -0.0342
-5 -5 3 4.2785 0.1438
-5 -5 4 -6.0294 0.1018
-5 -5 5 1.5327 0.2529
-5 -5 6 -1.2735 -0.1901
-5 -5 7 -4.2093 -0.0953
-5 -5 8 5.7755 0.0899
-5 -5 9 -0.2467 0.2662
-5 -4 1 -0.6739 -0.0355
-5 -4 2 -3.0768 -0.7150
-5 -4 3 -1.2417 0.1080
-5 -4 4 5.2575 -0.0966
-5 -4 5 -1.4063 0.3477
-5 -4 6 3.5213 -0.0932
-5 -4 7 1.1482 0.0723
-5 -4 8 -6.9893 -0.0564
-5 -4 9 3.0521 -0.0716
-5 -4 10 -2.6833 0.4043
-5 -3 1 -0.6296 1.2275
-5 -3 2 2.2131 -0.5925
-5 -3 3 -0.1229 -0.0895
-5 -3 4 -3.3603 -0.1955
-5 -3 5 -1.7238 0.0443
-5 -3 6 0.2777 0.1230
-5 -3 7 3.5339 -0.1883
-5 -3 8 0.2722 -0.0496
-5 -3 9 -0.0344 -0.0873
-5 -3 10 3.3689 0.2284
-5 -3 11 -2.6069 0.3411
-5 -2 1 2.0834 0.9518
-5 -2 2 -3.3106 0.4145
-5 -2 3 2.5029 -0.2334
-5 -2 4 0.3368 -0.1603
-5 -2 5 3.2400 -0.0571
-5 -2 6 -6.6782 0.2193
-5 -2 7 0.4553 0.0402
-5 -2 8 0.9343 0.1319
-5 -2 9 -6.2503 -0.2324
-5 -2 10 3.4771 -0.1384
-5 -2 11 3.0252 0.3974
-5 -1 1 0.1172 -0.4572
-5 -1 2 0.3906 0.7599
-5 -1 3 -1.5555 0.0031
-5 -1 4 2.0970 0.0632
-5 -1 5 -2.1747 -0.3819
-5 -1 6 6.0309 0.1153
-5 -1 7 -3.9079 0.0385
-5 -1 8 5.3168 0.0725
-5 -1 9 2.7657 0.0516
-5 -1 10 -7.3536 -0.2385
-5 -1 11 -2.3895 0.2266
-5 -1 12 3.3605 0.7348
-5 0 1 1.2850 -1.3037
-5 0 2 0.5768 0.3597
-5 0 3 -1.4465 0.2160
-5 0 4 -1.8603 0.2560
-5 0 5 1.1382 -0.2216
-5 0 6 -0.5738 -0.1573
-5 0 7 -0.0472 -0.0481
-5 0 8 -4.8102 0.0332
-5 0 9 1.4740 0.1828
-5 0 10 4.2000 -0.1363
-5 0 11 2.9303 -0.2447
-5 0 12 -4.5072 0.1450
-5 1 1 -0.1902 -0.6273
-5 1 2 1.2887 -0.5542
-5 1 3 0.9809 0.1405
-5 1 4 1.0505 0.1786
-5 1 5 -1.9543 0.3054
-5 1 6 -1.2755 -0.2538
-5 1 7 2.8324 0.0385
-5 1 8 0.1363 -0.1354
-5 1 9 1.6883 0.0948
-5 1 10 -1.6723 -0.0048
-5 1 11 -3.5270 -0.1913
-5 1 12 0.8732 0.0090
-5 2 1 -2.6503 0.7109
-5 2 2 0.8560 -0.7780
-5 2 3 -0.3819 -0.0082
-5 2 4 -0.4722 -0.2025
-5 2 5 1.5749 0.4099
-5 2 6 0.3803 -0.0449
-5 2 7 -1.3691 0.1104
-5 2 8 -0.2663 -0.1590
-5 2 9 -4.1303 0.0935
-5 2 10 2.7127 0.1251
-5 2 11 3.1702 0.0256
-5 2 12 2.8556 -0.0028
-5 2 13 -0.4841 0.0452
-5 3 1 -0.6607 1.2266
-5 3 2 -1.9143 -0.1411
-5 3 3 2.6331 -0.1719
-5 3 4 0.1507 -0.2069
-5 3 5 -0.3577 -0.0497
-5 3 6 -0.4346 0.2677
-5 3 7 0.8122 -0.2442
-5 3 8 1.5354 0.1209
-5 3 9 0.4866 -0.2153
-5 3 10 -1.2998 0.0849
-5 3 11 0.4131 -0.1027
-5 3 12 -7.0694 0.0260
-5 3 13 2.2437 0.2239
-5 4 1 3.1096 0.2978
-5 4 2 -1.8008 0.6147
-5 4 3 -3.5927 -0.2576
-5 4 4 0.7877 -0.0060
-5 4 5 0.0438 -0.3472
-5 4 6 0.2763 0.1680
-5 4 7 -0.6984 0.1861
-5 4 8 0.1051 0.0973
-5 4 9 1.4652 -0.0755
-5 4 10 -5.2114 0.0930
-5 4 11 1.6849 -0.1819
-5 4 12 11.2252 0.0444
-5 5 1 -2.0559 -0.8626
-5 5 2 3.3390 0.6769
-5 5 3 1.3215 0.0902
-5 5 4 -0.7470 0.1629
-5 5 5 -0.0499 -0.1649
-5 5 6 -0.5141 -0.1174
-5 5 7 0.3875 -0.0648
-5 5 8 0.1158 -0.0766
-5 5 9 1.4927 0.0843
-5 6 1 2.3838 -0.8396
-5 6 2 -1.5194 -0.0617
-5 6 3 -0.1328 0.2732
-5 6 4 -0.1638 0.1287
-5 6 5 1.0730 0.0758
-5 6 6 -0.3709 -0.1574
-5 6 7 -2.0159 -0.0098
-5 6 8 -1.7579 0.1590
-5 6 9 -0.8422 0.0432
-5 7 1 -1.9150 -0.0390
-5 7 2 0.1204 -0.6704
-5 7 3 0.5270 0.0125
-5 7 4 -0.6930 -0.0553
-5 7 5 -0.3155 0.2232
-5 7 6 2.9433 -0.0887
-5 7 7 2.2066 0.1061
-5 7 8 0.2957 -0.3334
-5 7 9 -1.9962 -0.0281
-5 7 10 -2.3291 0.0562
-5 8 1 1.5605 0.6596
-5 8 2 -0.2863 -0.2737
-5 8 3 -0.0390 -0.0627
-5 8 4 1.4349 -0.0685
-5 8 5 -2.0631 0.2732
-5 8 6 -2.8216 0.0640
-5 8 7 0.0354 -0.1427
-5 8 8 1.2384 0.0701
-5 8 9 1.8164 0.0100
-5 8 10 2.2579 -0.3889
-5 9 1 -0.5420 0.6353
-5 9 2 1.1457 0.1855
-5 9 3 -1.4621 -0.1293
-5 9 4 -1.1611 -0.2025
-5 9 5 1.8238 -0.3215
-5 9 6 0.8718 0.2588
-5 9 7 -0.8537 0.1309
-5 9 8 -0.8395 0.3224
-5 9 9 -1.6046 -0.2810
-5 10 1 -2.3301 -0.1550
-5 10 2 1.0803 0.2923
-5 10 3 1.4555 -0.0670
-5 10 4 1.6775 0.0484
-5 10 5 0.2420 -0.2495
-5 10 6 -0.5249 -0.0089
-5 10 7 -0.1330 0.0420
-5 11 1 0.5886 -0.6533
-5 11 2 -2.5743 0.4109
-5 11 3 0.4935 0.3520
-4 -13 1 1.3963 0.8315
-4 -13 2 0.6830 0.3831
-4 -12 1 -1.5224 -0.6540
-4 -12 2 0.1899 0.0363
-4 -12 3 0.4640 -0.3339
-4 -12 4 3.4301 -0.0004
-4 -11 1 -1.0007 -0.5017
-4 -11 2 1.3285 0.6779
-4 -11 3 -1.1524 0.1118
-4 -11 4 -2.2157 -0.1379
-4 -11 5 0.7236 -0.2099
-4 -10 1 -1.3900 -0.7122
-4 -10 2 -0.2894 -0.6081
-4 -10 3 0.3659 0.5210
-4 -10 4 -1.1772 0.1196
-4 -10 5 0.4811 0.4429
-4 -10 6 -0.4799 0.4414
-4 -10 7 -1.0611 0.3368
-4 -9 1 0.5527 0.6014
-4 -9 2 -1.5063 -0.7995
-4 -9 3 3.5828 -0.1417
-4 -9 4 0.5991 0.0192
-4 -9 5 -1.6199 0.0307
-4 -9 6 1.3396 -0.0191
-4 -9 7 1.3072 0.1261
-4 -8 1 2.9779 1.3629
-4 -8 2 -2.3991 -0.1481
-4 -8 3 -2.3531 -0.3824
-4 -8 4 0.6442 -0.3385
-4 -8 5 0.9769 -0.2317
-4 -8 6 -1.6244 -0.0363
-4 -8 7 -0.4698 -0.2959
-4 -8 8 2.2105 -0.1208
-4 -7 1 -0.0843 0.3133
-4 -7 2 2.5049 1.0189
-4 -7 3 -0.2115 -0.1613
-4 -7 4 -0.4094 0.2681
-4 -7 5 -1.1556 -0.0292
-4 -7 6 0.4185 0.3214
-4 -7 7 0.0118 0.0328
-4 -7 8 -0.4118 -0.2808
-4 -7 9 -0.1647 -0.3076
-4 -6 1 -1.1887 -1.4002
-4 -6 2 -0.4535 0.7267
-4 -6 3 -0.2173 0.2370
-4 -6 4 3.3358 -0.1283
-4 -6 5 -0.5927 -0.3520
-4 -6 6 1.8668 -0.1155
-4 -6 7 -0.4891 0.2291
-4 -6 8 1.0500 0.1514
-4 -6 9 -0.2006 -0.1959
-4 -6 10 -2.5946 -0.6402
-4 -5 1 0.9562 -1.2870
-4 -5 2 1.5366 -0.4286
-4 -5 3 -1.9629 0.3908
-4 -5 4 -3.8439 0.2997
-4 -5 5 2.3905 0.0545
-4 -5 6 -4.7126 -0.3982
-4 -5 7 0.9020 0.0910
-4 -5 8 0.8440 0.0991
-4 -5 9 3.8005 0.3529
-4 -5 10 2.5386 -0.1765
-4 -5 11 -2.6147 -0.2141
-4 -4 1 -2.3753 0.4536
-4 -4 2 -1.1231 -1.0867
-4 -4 3 2.5926 0.0378
-4 -4 4 2.7192 0.1216
-4 -4 5 -1.1259 0.5385
-4 -4 6 3.4922 -0.1299
-4 -4 7 -3.0041 -0.2966
-4 -4 8 -3.1268 -0.1488
-4 -4 9 -1.3899 0.0681
-4 -4 10 -2.3302 0.3036
-4 -4 11 0.6269 -0.5007
-4 -3 1 1.1063 1.5700
-4 -3 2 2.1997 -0.4683
-4 -3 3 -2.5106 -0.3984
-4 -3 4 -2.6424 -0.2829
-4 -3 5 1.8177 0.1860
-4 -3 6 1.0704 0.3384
-4 -3 7 3.0555 0.0417
-4 -3 8 -0.2970 -0.0572
-4 -3 9 -0.5498 -0.1090
-4 -3 10 3.3499 0.2398
-4 -3 11 0.7560 0.1881
-4 -3 12 3.0261 -0.1116
-4 -2 1 -0.3728 0.9267
-4 -2 2 -3.7184 0.6821
-4 -2 3 3.4315 -0.3629
-4 -2 4 -0.3893 -0.2786
-4 -2 5 -1.3432 -0.3100
-4 -2 6 -4.4324 0.2312
-4 -2 7 1.6066 0.0135
-4 -2 8 2.2353 0.0913
-4 -2 9 0.0467 -0.2093
-4 -2 10 -1.6891 -0.0161
-4 -2 11 -2.5528 0.1539
-4 -2 12 -0.6921 -0.2678
-4 -1 1 0.2576 -0.7215
-4 -1 2 3.0897 1.0540
-4 -1 3 -1.4551 0.1367
-4 -1 4 0.5713 0.1432
-4 -1 5 -0.4266 -0.3928
-4 -1 6 4.8343 -0.0165
-4 -1 7 -5.4026 0.0616
-4 -1 8 0.4718 0.0391
-4 -1 9 -2.0376 0.0082
-4 -1 10 0.4902 -0.0725
-4 -1 11 1.3736 0.0924
-4 -1 12 1.4102 0.1378
-4 -1 13 -0.2254 -0.0626
-4 0 1 0.6235 -1.6608
-4 0 2 -3.6085 0.3429
-4 0 3 0.8717 0.2817
-4 0 4 1.4492 0.2622
-4 0 5 0.3823 -0.0419
-4 0 6 -1.7212 -0.2205
-4 0 7 3.0087 0.0013
-4 0 8 -1.3233 0.0741
-4 0 9 3.8185 0.1045
-4 0 10 0.4306 -0.0991
-4 0 11 -0.7342 0.1490
-4 0 12 -4.4533 -0.0876
-4 0 13 3.7655 -0.0610
-4 1 1 2.2895 -0.6529
-4 1 2 3.2395 -0.8473
-4 1 3 -1.9223 0.2789
-4 1 4 -1.4123 -0.0182
-4 1 5 -1.8424 0.4051
-4 1 6 0.8883 -0.2404
-4 1 7 0.5777 0.0732
-4 1 8 -0.7528 -0.1565
-4 1 9 -2.4397 0.0474
-4 1 10 -0.4908 -0.0653
-4 1 11 0.2136 0.0727
-4 1 12 1.5537 0.2817
-4 1 13 -3.3002 -0.1245
-4 2 1 -6.0067 1.1047
-4 2 2 -0.0812 -1.0267
-4 2 3 1.3401 0.0770
-4 2 4 1.8366 -0.2111
-4 2 5 1.7142 0.2697
-4 2 6 -1.7786 0.0842
-4 2 7 -0.2526 -0.1449
-4 2 8 0.5388 -0.0430
-4 2 9 0.1555 -0.0011
-4 2 10 1.8227 -0.1306
-4 2 11 3.2998 -0.1637
-4 2 12 -2.0116 0.1575
-4 2 13 -1.4635 -0.0152
-4 3 1 4.1047 1.4831
-4 3 2 -1.8978 -0.0128
-4 3 3 0.7140 -0.3712
-4 3 4 -1.9325 -0.0096
-4 3 5 -0.7108 -0.2140
-4 3 6 0.3588 0.3199
-4 3 7 0.4194 0.0144
-4 3 8 0.7539 0.1659
-4 3 9 -0.9550 -0.0698
-4 3 10 -3.6759 0.1416
-4 3 11 -1.7758 -0.2541
-4 3 12 3.0938 0.1169
-4 4 1 0.3250 0.0278
-4 4 2 -0.7076 0.9056
-4 4 3 -1.9667 -0.2995
-4 4 4 3.0129 0.0351
-4 4 5 0.9375 -0.2858
-4 4 6 -0.2543 0.0769
-4 4 7 -0.7142 0.0306
-4 4 8 -0.1036 0.0267
-4 4 9 2.0516 -0.0128
-4 4 10 1.6237 0.1457
-4 4 11 1.0847 -0.1653
-4 5 1 -2.2020 -1.1132
-4 5 2 4.3014 0.6326
-4 5 3 -0.4412 0.0848
-4 5 4 -3.3119 0.1782
-4 5 5 0.2779 -0.1479
-4 5 6 0.1860 -0.2142
-4 5 7 0.0334 -0.0798
-4 5 8 0.0649 -0.0255
-4 5 9 -1.9477 0.1672
-4 6 1 0.7287 -0.8496
-4 6 2 -4.2729 -0.1705
-4 6 3 2.4515 0.3159
-4 6 4 0.8990 -0.0317
-4 6 5 -0.4537 0.2178
-4 6 6 0.0560 -0.1049
-4 6 7 -0.2481 0.1095
-4 6 8 1.1198 -0.1111
-4 6 9 3.4965 -0.0252
-4 6 10 3.1130 0.1376
-4 7 1 1.5171 0.1195
-4 7 2 1.9346 -0.7125
-4 7 3 -1.7321 0.1178
-4 7 4 0.1112 0.0205
-4 7 5 0.5354 0.2950
-4 7 7 -1.6683 -0.0346
-4 7 8 -3.3344 -0.1769
-4 7 9 -2.7411 0.0524
-4 7 10 -0.0226 0.0377
-4 7 11 2.3238 0.1313
-4 8 1 -0.6956 0.8868
-4 8 2 -0.3675 -0.4092
-4 8 3 1.4168 -0.1198
-4 8 4 -0.3864 -0.2281
-4 8 5 -1.3752 -0.0736
-4 8 6 0.7424 0.0157
-4 8 7 3.4394 0.1013
-4 8 8 2.1955 0.0781
-4 8 9 -0.7822 -0.2392
-4 8 10 -1.0706 -0.1334
-4 8 11 -0.7424 0.2141
-4 8 12 -1.0696 -0.3547
-4 9 1 -0.0184 0.6680
-4 9 2 -0.4341 0.2995
-4 9 3 -1.5693 -0.2509
-4 9 4 1.0369 0.0287
-4 9 5 0.6695 -0.0985
-4 9 6 -0.8889 0.2323
-4 9 7 -2.1701 0.0144
-4 9 8 0.0678 0.1841
-4 9 9 1.8493 -0.2501
-4 9 10 -0.5569 0.2162
-4 9 11 1.5996 -0.7300
-4 9 12 1.6952 0.4581
-4 10 1 -0.9809 -0.4122
-4 10 2 1.9947 0.6357
-4 10 3 0.1148 0.0852
-4 10 4 -0.4786 0.0946
-4 10 5 -0.5911 -0.2184
-4 10 6 -0.9284 -0.1580
-4 10 7 1.1401 -0.0985
-4 10 8 -0.9613 0.1918
-4 10 9 -0.7135 0.4781
-4 10 10 0.4882 -0.4963
-4 11 1 0.0805 -0.6645
-4 11 2 -1.3413 0.0391
-4 11 3 1.8653 0.0640
-4 11 4 -1.0191 0.0503
-4 11 5 1.5902 0.0253
-4 11 6 1.1740 -0.2767
-4 11 7 -0.3948 0.0103
-4 11 8 1.0254 -0.1645
-4 12 1 0.0179 -0.4915
-4 12 2 -1.2952 -0.4471
-4 12 3 -1.0785 0.0977
-4 12 4 1.6095 0.1575
-3 -13 1 -2.4720 0.1561
-3 -12 1 1.6444 -0.2759
-3 -12 2 1.3627 0.1556
-3 -12 3 4.9160 -0.2242
-3 -12 4 0.1374 -0.0172
-3 -12 5 -4.5039 0.1461
-3 -12 6 -0.4099 0.4641
-3 -11 1 -2.0961 -0.7535
-3 -11 2 0.2672 0.1439
-3 -11 3 -1.7823 0.0222
-3 -11 4 0.9365 0.0898
-3 -11 5 3.3076 -0.4183
-3 -11 6 0.1285 -0.8030
-3 -11 7 3.2437 -0.4972
-3 -10 1 -1.4669 -0.1619
-3 -10 2 -1.1883 -0.4619
-3 -10 3 0.0811 0.2258
-3 -10 4 -0.2106 0.1434
-3 -10 5 -1.9720 0.6925
-3 -10 6 -1.0132 0.2173
-3 -10 7 -1.9338 -0.3654
-3 -10 8 -1.4225 -0.6932
-3 -9 1 0.9344 0.6629
-3 -9 2 0.1966 -0.5627
-3 -9 3 1.2245 -0.0152
-3 -9 4 -0.8953 -0.2028
-3 -9 5 2.2564 0.1078
-3 -9 6 1.1786 0.2967
-3 -9 7 -0.0960 0.3965
-3 -9 8 1.4152 0.2885
-3 -9 9 1.1585 -0.0039
-3 -8 1 2.4967 1.1911
-3 -8 2 -1.9293 -0.0864
-3 -8 3 -0.6405 -0.5270
-3 -8 4 -0.0253 -0.1890
-3 -8 5 -1.0081 -0.2714
-3 -8 6 -0.0298 0.1896
-3 -8 7 1.1684 -0.0406
-3 -8 8 -1.8521 0.1264
-3 -8 9 -0.8448 0.2078
-3 -8 10 3.6904 0.7513
-3 -7 1 -0.8015 0.0261
-3 -7 2 1.9714 1.0978
-3 -7 3 0.6017 -0.1060
-3 -7 4 -1.5112 -0.0296
-3 -7 5 -1.0948 -0.2897
-3 -7 6 0.6559 -0.1184
-3 -7 7 -0.0106 -0.0449
-3 -7 8 1.5296 -0.1059
-3 -7 9 0.2920 -0.0987
-3 -7 10 -0.0373 -0.1038
-3 -7 11 6.4010 0.6344
-3 -6 1 -1.5847 -1.3979
-3 -6 2 -0.7145 0.8402
-3 -6 3 0.5355 0.4206
-3 -6 4 4.6405 0.0728
-3 -6 5 -2.6838 -0.1330
-3 -6 6 0.4125 -0.0948
-3 -6 7 -2.1778 0.0575
-3 -6 8 0.3108 0.1130
-3 -6 9 -4.7969 -0.0613
-3 -6 10 -3.3646 -0.1723
-3 -6 11 -1.5912 -0.1201
-3 -5 1 3.3498 -1.3613
-3 -5 2 1.1245 -0.6405
-3 -5 3 -2.8812 0.5363
-3 -5 4 -1.5667 0.2200
-3 -5 5 3.8335 0.1818
-3 -5 6 -2.8168 -0.1023
-3 -5 7 4.9807 0.0529
-3 -5 8 -0.3474 -0.1388
-3 -5 9 10.8673 0.1880
-3 -5 10 0.4154 -0.0306
-3 -5 11 -2.4120 -0.0490
-3 -5 12 0.1599 -0.1766
-3 -4 1 -9.4678 0.3596
-3 -4 2 -1.5518 -1.4462
-3 -4 3 3.5047 0.0031
-3 -4 4 0.1184 0.0781
-3 -4 5 -1.9457 0.1940
-3 -4 6 0.6482 -0.1989
-3 -4 7 -4.2265 -0.0919
-3 -4 8 -2.1885 0.0413
-3 -4 9 -10.6701 -0.0321
-3 -4 10 3.7512 -0.0220
-3 -4 11 4.2894 -0.0267
-3 -4 12 0.7269 -0.1540
-3 -3 1 14.8219 2.1663
-3 -3 2 -1.9843 -0.4149
-3 -3 3 -5.4021 -0.5281
-3 -3 4 0.9762 -0.0419
-3 -3 5 3.8909 0.2162
-3 -3 6 -1.7987 0.2254
-3 -3 7 2.0009 -0.0327
-3 -3 8 4.1315 -0.0886
-3 -3 9 4.7801 -0.0440
-3 -3 10 -4.5302 0.0382
-3 -3 11 -3.0297 -0.1291
-3 -3 12 0.3433 0.1607
-3 -3 13 -2.8856 -0.4180
-3 -2 1 -8.9811 0.9467
-3 -2 2 6.0247 0.9363
-3 -2 3 3.6989 -0.5245
-3 -2 4 -4.1817 -0.2021
-3 -2 5 -0.3060 -0.1974
-3 -2 6 2.9500 0.3193
-3 -2 7 -1.9440 0.0395
-3 -2 8 -1.4063 0.1232
-3 -2 9 -0.1915 -0.0414
-3 -2 10 0.8167 0.0822
-3 -2 11 0.1751 -0.1197
-3 -2 12 1.8829 -0.0186
-3 -2 13 3.6035 0.0149
-3 -1 1 -0.7590 -1.1678
-3 -1 2 -2.3922 1.2753
-3 -1 3 -1.6843 0.0180
-3 -1 4 0.4593 0.0038
-3 -1 5 -1.7151 -0.4220
-3 -1 6 0.8992 -0.1878
-3 -1 7 -1.8380 0.0736
-3 -1 8 -0.8009 0.0861
-3 -1 9 0.5285 0.0453
-3 -1 10 2.1253 0.0802
-3 -1 11 -0.3460 0.0207
-3 -1 12 -2.8219 -0.1744
-3 -1 13 -2.0105 0.2630
-3 0 1 1.8441 -1.8321
-3 0 2 -1.2231 0.2557
-3 0 3 5.7054 0.6006
-3 0 4 0.8127 0.0878
-3 0 5 -2.4482 0.1281
-3 0 6 0.4883 -0.2902
-3 0 7 3.9402 -0.0769
-3 0 8 -0.5318 -0.1191
-3 0 9 -0.6777 0.0476
-3 0 10 -2.1482 0.0094
-3 0 11 -0.9907 0.2024
-3 0 12 2.7658 -0.2388
-3 0 13 2.5665 -0.1702
-3 0 14 -0.2341 -0.0876
-3 1 1 2.0992 -0.3884
-3 1 2 -1.2965 -1.2175
-3 1 3 -6.4618 0.4238
-3 1 4 2.1147 0.0555
-3 1 5 1.6324 0.4772
-3 1 6 -1.8622 -0.0105
-3 1 7 -1.6491 -0.0180
-3 1 8 0.1425 -0.1283
-3 1 9 0.8169 0.0042
-3 1 10 3.5608 -0.0406
-3 1 11 -0.2786 0.1877
-3 1 12 -3.9964 0.1886
-3 1 13 0.2603 -0.1362
-3 2 1 -4.2358 1.5391
-3 2 2 5.0416 -1.0971
-3 2 3 4.0512 -0.2143
-3 2 4 -1.1184 -0.1440
-3 2 5 -0.8319 0.0031
-3 2 6 0.3180 0.2224
-3 2 7 1.0306 0.0153
-3 2 8 -0.5119 0.0461
-3 2 9 -1.8315 -0.1958
-3 2 10 -2.1389 -0.0285
-3 2 11 4.0903 0.0209
-3 2 12 -2.4472 0.2464
-3 3 1 1.0299 1.2861
-3 3 2 -7.5438 0.4778
-3 3 3 -1.6903 -0.5383
-3 3 4 0.4079 -0.0683
-3 3 5 1.1027 -0.2330
-3 3 6 -0.2944 0.1742
-3 3 7 0.7897 0.0314
-3 3 8 0.4018 0.0833
-3 3 9 0.0849 -0.1100
-3 3 10 -0.0924 -0.1767
-3 3 11 -0.4338 -0.2852
-3 3 12 5.2990 0.1120
-3 4 1 4.8152 -0.2872
-3 4 2 4.5303 1.0595
-3 4 3 -0.7750 -0.0684
-3 4 4 0.8959 0.0797
-3 4 5 -0.1979 -0.2579
-3 4 6 -1.6610 -0.0263
-3 4 7 -0.9411 0.0239
-3 4 8 1.9967 0.3083
-3 4 9 0.3839 0.2111
-3 4 10 -1.9802 -0.0166
-3 5 1 -5.6858 -1.4088
-3 5 2 1.3649 0.4096
-3 5 3 -0.4255 0.2778
-3 5 4 -1.8298 0.1161
-3 5 5 1.3041 -0.0939
-3 5 6 2.0536 -0.1911
-3 5 7 -1.2321 -0.0987
-3 5 8 -1.5342 -0.2169
-3 5 9 0.9446 0.2475
-3 5 10 1.9590 0.0355
-3 6 1 1.9224 -0.7698
-3 6 2 -3.3816 -0.5135
-3 6 3 2.0362 0.2414
-3 6 4 0.6465 0.1028
-3 6 5 -1.6202 0.2691
-3 6 6 -0.6162 -0.1492
-3 6 7 1.2859 -0.0270
-3 6 8 0.2304 -0.1917
-3 6 9 -0.9881 0.0301
-3 6 10 -0.1197 0.2057
-3 6 11 -1.0508 -0.0214
-3 7 1 1.3038 0.6500
-3 7 2 2.2060 -0.7757
-3 7 3 -2.4258 -0.0027
-3 7 4 0.2789 -0.0529
-3 7 5 2.0204 0.2762
-3 7 6 -0.7243 0.0636
-3 7 7 -1.0995 0.0590
-3 7 8 1.2652 -0.1220
-3 7 9 1.1058 -0.1955
-3 7 10 0.3530 -0.0065
-3 7 11 2.7225 0.1230
-3 7 12 0.8825 -0.1535
-3 8 1 -0.9635 1.0831
-3 8 2 0.2984 -0.1957
-3 8 3 1.7346 -0.2035
-3 8 4 -2.2168 -0.2149
-3 8 5 -1.2433 0.0065
-3 8 6 2.4454 0.2343
-3 8 7 -1.0524 0.1211
-3 8 8 -2.6033 0.0449
-3 8 9 -0.6766 -0.1322
-3 8 10 -0.1402 0.0693
-3 8 11 -1.3629 0.0195
-3 8 12 -1.0980 0.1506
-3 9 1 -1.0218 0.3010
-3 9 2 -0.8366 0.5083
-3 9 3 0.8052 -0.2587
-3 9 4 1.6709 -0.0363
-3 9 5 -0.9266 -0.3234
-3 9 6 -0.3527 -0.0328
-3 9 7 2.3709 0.0024
-3 9 8 1.0842 0.2225
-3 9 9 0.2104 -0.1490
-3 9 10 -0.8982 -0.0915
-3 9 11 2.1544 -0.1703
-3 9 12 1.3898 0.2462
-3 10 1 0.7613 -0.4414
-3 10 2 -0.6484 0.6890
-3 10 3 -0.6892 0.1643
-3 10 4 0.9098 0.1031
-3 10 5 -0.5293 -0.1364
-3 10 6 -1.2561 -0.1163
-3 10 7 0.2493 -0.0156
-3 10 8 -1.0464 0.1951
-3 10 9 0.2850 0.1019
-3 10 10 0.5220 -0.0701
-3 10 11 -3.2893 0.2074
-3 10 12 0.9542 -0.8352
-3 11 1 0.1692 -1.0194
-3 11 2 0.1267 -0.1751
-3 11 3 -0.8311 0.2235
-3 11 4 -0.6412 0.1146
-3 11 5 1.5226 0.2179
-3 11 6 -1.0606 -0.0708
-3 11 7 0.3040 -0.2057
-3 11 8 2.2665 -0.2284
-3 11 9 -1.8305 0.2009
-3 11 10 1.0225 0.0234
-3 11 11 1.4299 0.0521
-3 12 1 1.6489 -0.0135
-3 12 2 0.4231 -0.4669
-3 12 3 0.3911 0.0345
-3 12 4 0.3944 0.0760
-3 12 5 0.4513 0.0125
-3 12 6 0.4330 0.0874
-3 12 7 -3.6712 0.0244
-3 12 8 -0.0815 0.1497
-3 12 9 2.1992 -0.1962
-2 -13 1 1.6367 0.6180
-2 -13 2 2.0567 0.8512
-2 -12 1 -1.9930 -0.8145
-2 -12 2 -0.4038 0.4109
-2 -12 3 3.5938 0.2705
-2 -12 4 -6.7266 0.1079
-2 -12 5 -4.6053 0.4920
-2 -11 1 2.4867 -0.9764
-2 -11 2 1.2125 -0.4129
-2 -11 3 -0.0243 0.2454
-2 -11 4 5.1352 0.1022
-2 -11 5 0.8845 -0.4217
-2 -11 6 -1.4914 -0.6065
-2 -11 7 3.3524 -0.3351
-2 -11 8 1.5845 0.6302
-2 -10 1 -4.8386 0.0889
-2 -10 2 -1.8089 -0.8473
-2 -10 3 0.0130 0.0784
-2 -10 4 -0.7898 0.2349
-2 -10 5 -0.5924 0.2577
-2 -10 6 -1.3692 -0.0962
-2 -10 7 -3.4992 -0.1760
-2 -10 8 -0.3245 -0.4019
-2 -10 9 2.6602 -0.0806
-2 -9 1 4.3576 1.4064
-2 -9 2 0.1179 -0.4066
-2 -9 3 -1.3568 -0.4731
-2 -9 4 0.2967 -0.0433
-2 -9 5 2.8949 0.3879
-2 -9 6 1.8239 0.2448
-2 -9 7 -1.0032 -0.0800
-2 -9 8 0.4033 -0.2668
-2 -9 9 -0.9517 -0.3696
-2 -9 10 0.8812 -0.6258
-2 -8 1 -1.2752 1.0088
-2 -8 2 0.2288 0.5192
-2 -8 3 -0.2025 -0.4136
-2 -8 4 -2.1461 -0.2399
-2 -8 5 -0.9657 -0.0783
-2 -8 6 0.7154 0.3732
-2 -8 7 2.8903 0.2817
-2 -8 8 -4.2073 0.2696
-2 -8 9 0.1972 -0.0428
-2 -8 10 -0.5646 0.2180
-2 -8 11 0.4135 -0.3143
-2 -7 1 1.4682 -0.5992
-2 -7 2 1.4239 0.9639
-2 -7 3 1.8845 0.0292
-2 -7 4 -1.7622 -0.3085
-2 -7 5 -0.5998 -0.4069
-2 -7 6 1.1783 -0.1297
-2 -7 7 -0.8937 0.0766
-2 -7 8 5.4406 0.2529
-2 -7 9 -0.3914 0.1156
-2 -7 10 0.4419 -0.2186
-2 -7 11 -0.0934 0.3988
-2 -6 1 -4.0914 -1.3069
-2 -6 2 -0.7563 0.5856
-2 -6 3 0.9173 0.4249
-2 -6 4 4.1116 0.1375
-2 -6 5 -5.4519 -0.2665
-2 -6 6 -1.0878 -0.2594
-2 -6 7 -0.7846 -0.1788
-2 -6 8 -3.6468 -0.0957
-2 -6 9 -0.9289 0.2075
-2 -6 10 1.4144 0.1761
-2 -6 11 1.1442 -0.1849
-2 -6 12 3.2554 0.4136
-2 -5 1 6.3654 -0.9478
-2 -5 2 -0.8388 -0.6333
-2 -5 3 -2.4030 0.5796
-2 -5 4 -0.3773 0.3362
-2 -5 5 6.1145 0.3947
-2 -5 6 -0.9070 -0.1249
-2 -5 7 3.2340 -0.1804
-2 -5 8 0.6145 -0.1775
-2 -5 9 3.3404 -0.0531
-2 -5 10 -5.1034 -0.0443
-2 -5 11 -2.6328 0.0874
-2 -5 12 -4.8797 -0.3446
-2 -5 13 -3.8270 -0.0555
-2 -4 1 -14.8591 0.3263
-2 -4 2 3.9251 -1.1965
-2 -4 3 4.3678 -0.0361
-2 -4 4 0.7274 0.0018
-2 -4 5 -4.9402 0.2455
-2 -4 6 -0.8343 0.2807
-2 -4 7 -1.1056 0.1751
-2 -4 8 -1.1782 -0.1569
-2 -4 9 -3.3861 -0.0196
-2 -4 10 9.6084 -0.0003
-2 -4 11 3.7915 0.1932
-2 -4 12 3.1990 0.1763
-2 -4 13 -1.3361 0.5339
-2 -3 1 18.4431 1.6613
-2 -3 2 -16.7399 -0.5346
-2 -3 3 -6.0258 -0.5719
-2 -3 4 2.8446 -0.2241
-2 -3 5 6.1907 -0.1651
-2 -3 6 -3.6904 0.0834
-2 -3 7 1.4282 0.1479
-2 -3 8 4.0645 0.0521
-2 -3 9 -2.9399 -0.2064
-2 -3 10 -8.9985 -0.0911
-2 -3 11 -1.4529 -0.2282
-2 -3 12 1.7868 0.1322
-2 -3 13 2.2919 -0.4065
-2 -2 1 -0.6767 1.0610
-2 -2 2 22.7961 0.9992
-2 -2 3 -2.9168 -0.4192
-2 -2 4 -6.7183 0.0991
-2 -2 5 1.7789 -0.2749
-2 -2 6 4.2731 -0.0322
-2 -2 7 -6.3722 -0.0071
-2 -2 8 0.7132 0.2692
-2 -2 9 5.2361 0.0248
-2 -2 10 2.5233 -0.0625
-2 -2 11 -0.7420 -0.1920
-2 -2 12 -3.0476 -0.0977
-2 -2 13 1.4539 -0.1417
-2 -1 1 -14.1161 -1.2522
-2 -1 2 -9.3087 1.2959
-2 -1 3 7.1995 0.1541
-2 -1 4 0.6714 0.0628
-2 -1 5 -4.4744 -0.0550
-2 -1 6 2.3465 -0.1468
-2 -1 7 2.2317 0.0107
-2 -1 8 -3.1003 0.1138
-2 -1 9 -0.3628 0.1803
-2 -1 10 -0.4570 0.1507
-2 -1 11 2.4115 0.0384
-2 -1 12 0.1509 -0.0718
-2 -1 13 -3.1430 0.1969
-2 0 1 8.5789 -1.6350
-2 0 2 -0.0177 -0.3287
-2 0 3 -0.2212 0.5552
-2 0 4 -0.5004 -0.1287
-2 0 5 -0.6421 0.1913
-2 0 6 -0.0175 -0.2802
-2 0 7 1.2672 -0.1956
-2 0 8 -1.0989 -0.2171
-2 0 9 -0.4063 0.1858
-2 0 10 -0.5926 0.0290
-2 0 11 -4.1933 0.0557
-2 0 12 6.6712 -0.1111
-2 1 1 0.0231 0.2446
-2 1 2 -3.1972 -1.2403
-2 1 3 -1.8423 0.2259
-2 1 4 4.9762 0.1896
-2 1 5 -0.4251 0.2734
-2 1 6 -2.7237 0.0860
-2 1 7 0.9573 -0.0896
-2 1 8 1.8310 -0.1486
-2 1 9 1.1379 -0.1721
-2 1 10 3.2044 0.1185
-2 1 11 -1.5903 0.1633
-2 1 13 6.3776 0.0536
-2 2 1 -0.9070 1.3863
-2 2 2 8.4297 -0.3974
-2 2 3 -0.9210 -0.4100
-2 2 4 -4.6556 -0.0248
-2 2 5 1.0501 0.1336
-2 2 6 1.4943 0.4016
-2 2 7 -1.1969 0.0680
-2 2 8 -2.5613 -0.0531
-2 2 9 -2.3304 -0.2319
-2 2 10 -0.2173 0.0563
-2 2 15 -6.9569 -0.2249
-2 3 1 -5.5282 0.8495
-2 3 2 -8.8574 0.5788
-2 3 3 4.6586 -0.5853
-2 3 4 2.9119 -0.3294
-2 3 5 0.0845 -0.2941
-2 3 6 -0.7700 0.0910
-2 3 7 1.9295 0.1570
-2 3 8 1.4190 0.1937
-2 3 10 -1.4983 -0.3005
-2 4 1 8.5995 -0.5407
-2 4 2 1.2575 0.9671
-2 4 3 -4.7413 0.2826
-2 4 4 -0.3385 -0.0415
-2 4 5 -1.3946 -0.3664
-2 4 6 -0.9734 -0.0931
-2 4 7 -0.0114 0.1122
-2 4 8 1.2710 0.1821
-2 4 9 -1.2192 0.1646
-2 5 1 -2.8282 -1.4216
-2 5 2 3.2093 0.2941
-2 5 3 0.2836 0.4901
-2 5 4 0.8978 0.2846
-2 5 5 2.4651 0.0121
-2 5 6 0.3346 -0.3167
-2 5 7 -1.9999 -0.1477
-2 5 8 -0.0415 -0.0467
-2 5 9 2.1977 0.3029
-2 5 10 -0.1119 0.0890
-2 6 1 -0.8891 -0.6464
-2 6 2 -1.6971 -0.8329
-2 6 3 0.3826 0.1192
-2 6 4 -1.8179 0.2005
-2 6 5 -1.2222 0.2131
-2 6 6 -0.1463 -0.1147
-2 6 7 0.9760 -0.1172
-2 6 8 -0.1854 -0.0833
-2 6 9 -1.0681 0.0829
-2 6 10 1.3599 0.1870
-2 6 11 0.7445 0.1227
-2 7 1 1.1517 0.9389
-2 7 2 1.0692 -0.9118
-2 7 3 -0.5702 -0.1601
-2 7 4 1.2418 -0.0753
-2 7 5 1.9185 0.3875
-2 7 6 -0.3021 0.1612
-2 7 7 -0.8678 -0.0160
-2 7 8 0.1137 -0.3366
-2 7 9 -0.2104 -0.2204
-2 7 10 -1.0981 0.1678
-2 7 11 1.5796 -0.0178
-2 7 12 0.7082 0.0719
-2 8 1 -0.4958 1.2738
-2 8 2 1.3090 0.1326
-2 8 3 0.4267 -0.3269
-2 8 4 -3.0160 -0.1866
-2 8 5 -0.8226 -0.0577
-2 8 6 2.2396 0.1859
-2 8 7 -1.1028 0.0830
-2 8 8 0.4359 0.1423
-2 8 9 1.7853 -0.1811
-2 8 10 -0.3882 -0.1646
-2 8 11 -1.2075 0.0349
-2 8 12 0.0051 0.0138
-2 8 13 1.0403 -0.0372
-2 9 1 -2.7190 0.1286
-2 9 2 -1.8202 0.7686
-2 9 3 2.2831 -0.2194
-2 9 4 1.1900 -0.1847
-2 9 5 -1.2645 -0.2747
-2 9 6 -0.2414 0.1308
-2 9 7 1.7005 0.1817
-2 9 8 -2.6405 0.2184
-2 9 9 -0.9590 -0.0131
-2 9 10 1.0445 -0.0130
-2 9 11 0.8397 0.0052
-2 9 12 -1.0112 -0.0725
-2 9 13 -1.7268 -0.1097
-2 10 1 3.5290 -0.9386
-2 10 2 -1.0498 0.4052
-2 10 3 -0.2143 0.3342
-2 10 4 1.1562 0.1054
-2 10 5 -1.6630 -0.2562
-2 10 6 -0.6518 -0.1929
-2 10 7 0.6886 -0.1183
-2 10 8 1.5918 0.0025
-2 10 9 0.1854 0.1410
-2 10 10 -1.1057 0.0854
-2 10 11 -0.1348 -0.1740
-2 11 1 -2.0149 -0.5621
-2 11 2 0.3626 -0.1713
-2 11 3 -2.0039 0.2666
-2 11 4 2.0351 0.2443
-2 11 5 2.9227 0.1844
-2 11 6 -1.7241 -0.2506
-2 11 7 0.3467 -0.1390
-2 11 8 -0.0916 -0.0684
-2 11 9 -1.3645 -0.0461
-2 11 10 1.1600 -0.1645
-2 11 11 -2.5416 0.5057
-2 12 1 4.1998 0.1091
-2 12 2 -0.8351 -0.5707
-2 12 3 -0.6224 -0.1573
-2 12 4 -3.4705 0.0658
-2 12 5 -0.3332 0.1923
-2 12 6 1.3163 0.3300
-2 12 7 -2.8696 0.1667
-2 12 8 2.2517 0.0074
-2 12 9 2.0666 0.0392
-2 12 10 0.0298 0.1907
-2 12 11 2.3648 -0.4160
-2 13 1 -4.9546 0.4487
-2 13 2 4.9359 -0.0741
-2 13 3 0.6973 -0.3385
-2 13 4 2.0037 -0.3131
-2 13 5 -0.9165 -0.0140
-2 13 6 1.0649 -0.1583
-2 13 7 1.4514 -0.1613
-2 13 8 -4.6832 -0.0655
-1 -13 1 -0.1992 0.1010
-1 -13 2 -2.1750 0.4949
-1 -13 3 0.4523 -0.4523
-1 -12 1 2.3892 -0.5834
-1 -12 2 0.5994 0.7307
-1 -12 3 0.5085 0.4308
-1 -12 4 -2.5581 0.2856
-1 -12 5 1.1751 0.6147
-1 -12 6 0.5131 0.4011
-1 -11 1 -1.1988 -0.9736
-1 -11 2 -0.0867 -0.3984
-1 -11 3 -0.4388 0.7023
-1 -11 4 1.4828 0.1625
-1 -11 5 -0.2985 -0.1490
-1 -11 6 0.8424 -0.2790
-1 -11 7 2.6402 0.3076
-1 -11 8 3.0856 0.7891
-1 -10 1 -1.3069 -0.1262
-1 -10 2 0.5559 -0.9574
-1 -10 3 1.1877 -0.1895
-1 -10 4 -0.6237 0.0784
-1 -10 5 -1.5034 0.1292
-1 -10 6 -1.7671 0.2238
-1 -10 7 -3.2072 -0.0548
-1 -10 8 0.1861 -0.3665
-1 -10 9 6.0556 0.0219
-1 -10 10 -0.2905 0.9069
-1 -9 1 2.0960 1.2558
-1 -9 2 -2.6545 -0.5529
-1 -9 3 -0.9232 -0.4572
-1 -9 4 1.5376 0.1179
-1 -9 5 1.7594 0.1161
-1 -9 6 1.7534 -0.1150
-1 -9 7 -0.8136 -0.2316
-1 -9 8 -0.1821 -0.0357
-1 -9 9 -2.2874 -0.1697
-1 -9 10 0.3780 -0.1776
-1 -8 1 0.3000 1.2540
-1 -8 2 2.2671 0.5506
-1 -8 3 -1.8768 -0.4220
-1 -8 4 -0.2804 -0.2564
-1 -8 5 0.7576 0.0599
-1 -8 6 -0.6551 0.1922
-1 -8 7 1.5958 0.2179
-1 -8 8 -4.8507 0.0285
-1 -8 9 1.7607 -0.3104
-1 -8 10 1.9475 -0.2857
-1 -8 11 4.9668 -0.0852
-1 -8 12 -3.7891 -0.2584
-1 -7 1 -0.3350 -0.3408
-1 -7 2 0.8880 1.0409
-1 -7 3 -0.1425 0.1630
-1 -7 4 -3.5167 -0.2238
-1 -7 5 0.5110 -0.2133
-1 -7 6 3.0062 0.1525
-1 -7 7 -0.5482 0.1190
-1 -7 8 6.0444 0.2572
-1 -7 9 -4.0473 0.2011
-1 -7 10 -3.8248 -0.0898
-1 -7 11 -1.7099 -0.3817
-1 -7 12 3.1631 -0.1813
-1 -7 13 -1.5037 -0.4738
-1 -6 1 -0.9834 -1.4340
-1 -6 2 2.9070 0.3295
-1 -6 3 3.8686 0.2879
-1 -6 4 -0.4484 0.1121
-1 -6 5 -5.7194 -0.2404
-1 -6 6 -0.6734 -0.3299
-1 -6 7 1.6141 -0.1645
-1 -6 8 -4.8963 0.1484
-1 -6 9 6.0669 0.3377
-1 -6 10 2.0803 0.2146
-1 -6 11 -2.3642 0.2944
-1 -6 12 0.3225 -0.1771
-1 -6 13 0.1951 -0.4759
-1 -5 1 -1.9974 -0.9375
-1 -5 2 -7.4366 -0.6868
-1 -5 3 0.9575 0.3592
-1 -5 4 5.0386 0.2514
-1 -5 5 3.2374 0.1641
-1 -5 6 -2.7812 -0.1162
-1 -5 7 -0.4576 -0.2509
-1 -5 8 1.9121 -0.3621
-1 -5 9 -3.9167 -0.0641
-1 -5 10 1.2966 0.0645
-1 -5 11 1.2807 0.1603
-1 -5 12 -3.1832 0.2654
-1 -4 1 0.3423 0.9276
-1 -4 2 9.6989 -0.7299
-1 -4 3 -3.3509 -0.0976
-1 -4 4 -1.6036 0.0309
-1 -4 5 -3.5122 0.4043
-1 -4 6 1.8666 0.2245
-1 -4 7 2.1721 0.0628
-1 -4 8 -2.3096 -0.2712
-1 -4 9 0.7915 -0.1006
-1 -4 10 0.0988 -0.1174
-1 -4 11 0.2853 -0.0040
-1 -4 12 1.7970 0.1130
-1 -4 13 -5.2035 0.2278
-1 -3 1 -4.3266 1.1948
-1 -3 2 -18.6023 0.0718
-1 -3 3 5.4026 -0.4669
-1 -3 4 4.3667 -0.2558
-1 -3 5 6.2753 -0.0122
-1 -3 6 -6.2651 0.3491
-1 -3 7 0.0271 0.3200
-1 -3 8 3.9500 0.1324
-1 -3 9 -4.2550 -0.1881
-1 -3 10 2.1230 0.0040
-1 -3 11 0.2499 -0.1180
-1 -3 12 0.6888 0.1934
-1 -2 1 22.4549 -0.6453
-1 -2 2 14.5804 0.5932
-1 -2 3 -16.1512 -0.1322
-1 -2 4 -5.4242 -0.2376
-1 -2 5 1.1530 -0.6247
-1 -2 6 4.6980 -0.1251
-1 -2 7 -5.0256 0.1376
-1 -2 8 2.1665 0.2326
-1 -2 9 2.3020 -0.0902
-1 -2 10 -6.3355 -0.1246
-1 -2 11 2.2775 -0.2119
-1 -2 12 -2.6497 -0.2777
-1 -1 1 -25.2557 -0.3985
-1 -1 2 5.2605 0.6528
-1 -1 3 16.1290 0.5518
-1 -1 4 -2.7904 0.2410
-1 -1 5 -3.5848 -0.0487
-1 -1 6 2.7735 -0.3916
-1 -1 7 0.8557 -0.0968
-1 -1 8 -2.8232 0.2098
-1 -1 9 2.9166 0.2905
-1 -1 10 2.0760 0.0732
-1 -1 11 -0.3715 0.0060
-1 -1 12 0.6641 -0.1017
-1 0 1 9.1235 -0.1397
-1 0 2 -12.2336 -0.8377
-1 0 3 -5.1596 0.3874
-1 0 4 3.7459 0.2756
-1 0 5 -0.0689 0.3104
-1 0 6 -1.8222 -0.2125
-1 0 7 0.7388 -0.1955
-1 0 8 -1.2154 -0.1577
-1 0 9 0.2404 0.1572
-1 0 10 -1.1764 0.0964
-1 1 1 3.2129 0.0201
-1 1 2 4.4873 -0.7732
-1 1 3 0.4713 -0.3634
-1 1 4 1.2515 0.1379
-1 1 5 -0.9216 0.2960
-1 1 6 0.1181 0.2015
-1 1 7 1.5457 -0.2186
-1 1 8 0.0281 -0.1800
-1 1 9 -1.0776 -0.1740
-1 2 1 -2.9999 0.7636
-1 2 2 5.6523 0.3570
-1 2 3 -4.1651 -0.6091
-1 2 4 -4.0256 -0.1157
-1 2 5 2.6822 0.0335
-1 2 6 0.0451 0.3183
-1 2 7 -1.3483 0.0187
-1 2 8 -0.3299 -0.0304
-1 2 9 0.5915 -0.1622
-1 2 10 0.0755 -0.0370
-1 3 1 -7.0474 0.4954
-1 3 2 -5.8963 0.3853
-1 3 3 10.9968 -0.1846
-1 3 4 1.3164 -0.3813
-1 3 5 -3.1290 -0.1230
-1 3 6 -0.1140 0.2156
-1 3 7 1.5682 0.2851
-1 3 8 -0.4083 0.0446
-1 3 9 -1.6399 -0.0514
-1 3 10 -0.5420 -0.2144
-1 3 11 -3.0139 0.0128
-1 3 12 1.7545 -0.1536
-1 3 16 -3.5249 -0.2479
-1 4 1 8.0971 -0.1900
-1 4 2 -3.4511 0.7196
-1 4 3 -7.7100 0.3560
-1 4 4 3.0572 -0.1699
-1 4 5 -0.0144 -0.3145
-1 4 6 0.0222 -0.2124
-1 4 7 0.5635 0.1629
-1 4 8 0.7500 0.0491
-1 4 9 -0.6672 0.1616
-1 4 10 0.0583 -0.0913
-1 4 11 2.6962 -0.0786
-1 4 12 -1.0021 -0.0785
-1 4 13 0.0806 0.0876
-1 4 15 1.1873 -0.0194
-1 4 16 -0.6717 0.0579
-1 5 1 0.4440 -1.3931
-1 5 2 3.0497 0.2986
-1 5 3 -0.5341 0.4371
-1 5 4 -0.0001 0.1820
-1 5 5 1.7825 -0.1492
-1 5 6 -2.0908 -0.3170
-1 5 7 -1.0642 -0.0853
-1 5 8 1.5089 0.1539
-1 5 9 0.8253 0.0556
-1 5 10 -0.5524 0.1200
-1 5 11 -2.0880 -0.0863
-1 5 12 1.4556 0.0635
-1 5 13 -1.6434 -0.3864
-1 5 14 2.9507 0.2197
-1 5 15 1.8417 0.2029
-1 5 16 -0.6520 -0.1656
-1 6 1 -1.1357 -0.7004
-1 6 2 2.3765 -0.7864
-1 6 3 -0.3904 0.2237
-1 6 4 -2.4744 0.3708
-1 6 5 0.5743 0.2538
-1 6 6 1.7221 -0.0360
-1 6 7 -0.1942 -0.1783
-1 6 8 -0.4615 -0.0464
-1 6 9 -0.6178 0.0597
-1 6 10 0.0009 0.0788
-1 6 11 0.8692 0.0324
-1 6 12 -1.7794 -0.1318
-1 6 13 1.3857 -0.0162
-1 6 14 -3.1398 -0.1781
-1 6 15 -0.9531 0.0586
-1 7 1 -0.7833 0.8754
-1 7 2 -1.4351 -0.8982
-1 7 3 2.1539 -0.1446
-1 7 4 1.0017 -0.0392
-1 7 5 -1.1821 0.3300
-1 7 6 -1.0236 0.0677
-1 7 7 -0.4868 -0.1243
-1 7 8 -0.3316 -0.1911
-1 7 9 1.6166 -0.0551
-1 7 10 -0.0878 0.1077
-1 7 11 0.3728 0.0654
-1 7 12 1.9241 0.2240
-1 7 13 -0.6013 0.0621
-1 7 14 0.4071 -0.1757
-1 7 15 2.0023 0.0698
-1 8 1 0.2057 1.2198
-1 8 2 1.5972 0.0713
-1 8 3 -2.4551 -0.4352
-1 8 4 -0.9848 -0.2169
-1 8 5 2.3325 -0.0777
-1 8 6 1.0583 0.2363
-1 8 7 -0.0091 0.1003
-1 8 8 0.4083 0.0254
-1 8 9 -1.5166 -0.1319
-1 8 10 -0.3071 -0.1158
-1 8 11 -0.2182 0.1155
-1 8 12 -2.0124 0.0145
-1 8 13 0.9329 0.0113
-1 8 14 -0.3630 -0.0068
-1 8 15 -2.0218 -0.0162
-1 9 1 -1.9196 0.0910
-1 9 2 -1.5440 0.6316
-1 9 3 4.5456 -0.1652
-1 9 4 -0.9147 -0.0894
-1 9 5 -2.3958 -0.1876
-1 9 6 0.5372 0.1414
-1 9 7 -0.2034 0.1324
-1 9 8 -0.8919 0.0623
-1 9 9 1.6068 -0.0739
-1 9 10 -0.1434 -0.1179
-1 9 11 -0.5310 -0.2859
-1 9 12 1.8255 -0.1365
-1 9 13 -0.1548 0.1739
-1 9 14 1.6161 0.1521
-1 9 15 -0.9586 -0.0205
-1 10 1 2.2475 -0.6104
-1 10 2 -1.5024 0.4628
-1 10 3 -2.8196 0.3158
-1 10 4 1.4493 0.0859
-1 10 5 -0.3777 -0.1769
-1 10 6 0.1570 -0.1875
-1 10 7 0.9448 -0.0332
-1 10 8 0.6027 0.1545
-1 10 9 -0.6633 0.2859
-1 10 10 0.4161 0.0804
-1 10 11 1.3179 0.1317
-1 10 12 -1.8192 0.1287
-1 10 13 -2.4571 -0.0956
-1 10 14 -0.7685 -0.3073
-1 11 1 0.0067 -0.4586
-1 11 2 1.8361 -0.2461
-1 11 3 0.6601 0.0604
-1 11 4 1.5903 0.0569
-1 11 5 0.0255 -0.0151
-1 11 6 -2.3056 -0.1808
-1 11 7 -0.2355 -0.0682
-1 11 8 -0.7817 -0.2284
-1 11 9 0.0378 -0.0739
-1 11 10 -1.0072 0.1165
-1 11 11 -1.9279 0.0191
-1 12 1 0.3304 -0.0032
-1 12 2 -2.1049 -0.1699
-1 12 3 -1.0768 -0.0115
-1 12 4 -1.7646 0.2039
-1 12 5 2.7963 0.3154
-1 12 6 2.8135 0.1565
-1 12 7 -1.5145 0.0639
-1 12 8 1.1660 0.0070
-1 12 9 0.8960 -0.0955
-1 12 10 1.8668 0.0189
-1 12 11 -2.0368 -0.0620
-1 13 1 -0.2407 0.1221
-1 13 2 3.8939 -0.1160
-1 13 3 -1.0438 -0.1800
-1 13 4 0.1220 -0.2466
-1 13 5 -4.3614 -0.0531
-1 13 6 -0.9934 0.0257
-1 13 7 2.8053 -0.0835
-1 13 8 -2.5772 0.0287
-1 13 9 -0.9017 -0.2288
-1 13 10 0.8417 -0.1092
0 -13 1 -2.6691 -0.2847
0 -13 2 -1.2970 0.2941
0 -13 3 2.0666 -0.6141
0 -12 1 4.8586 -0.4529
0 -12 2 -2.2855 0.0952
0 -12 3 -1.3006 0.1207
0 -12 4 -0.0043 -0.1445
0 -12 5 0.5585 -0.4917
0 -12 6 -3.6311 -0.8654
0 -11 1 -2.7141 -0.2644
0 -11 2 3.8271 0.2167
0 -11 3 0.5612 0.5364
0 -11 4 0.4767 0.1237
0 -11 5 2.3546 0.1873
0 -11 6 3.1492 -0.0634
0 -11 7 0.8045 0.3485
0 -11 8 0.1420 -0.2080
0 -11 9 -8.2898 -1.1315
0 -10 1 -0.7306 -0.4413
0 -10 2 -2.5308 -0.4841
0 -10 3 0.5226 0.0262
0 -10 4 -1.6766 0.2297
0 -10 5 -3.7808 0.2798
0 -10 6 0.3663 0.2486
0 -10 7 -0.3961 -0.0962
0 -10 8 2.1792 0.2569
0 -10 9 8.3085 0.2630
0 -10 10 -2.9707 0.1591
0 -9 1 1.7177 0.2052
0 -9 2 -1.4232 -0.5925
0 -9 3 0.3986 -0.2878
0 -9 4 1.8780 -0.0267
0 -9 5 2.6584 0.0358
0 -9 6 -1.3021 -0.0682
0 -9 7 -0.5530 -0.0932
0 -9 8 -1.4393 0.1685
0 -9 9 -4.8452 -0.0179
0 -9 10 1.7277 0.1270
0 -9 11 -2.0663 0.9386
0 -8 1 1.3805 1.0590
0 -8 2 1.1797 -0.1156
0 -8 3 -2.3246 -0.2245
0 -8 4 1.2501 -0.2805
0 -8 5 -2.4286 -0.1354
0 -8 6 -0.0808 0.1268
0 -8 7 -0.6748 0.0943
0 -8 8 -0.6870 -0.2281
0 -8 9 4.7516 -0.1854
0 -8 10 0.5533 -0.2266
0 -8 11 0.4673 -0.1066
0 -7 1 -1.5097 0.8034
0 -7 2 2.5526 0.7238
0 -7 3 -1.9654 -0.0248
0 -7 4 -1.5452 -0.0494
0 -7 5 5.2747 -0.0539
0 -7 6 2.6310 -0.0119
0 -7 7 -0.4067 -0.0249
0 -7 8 0.5748 0.2378
0 -7 9 -5.0750 0.1429
0 -7 10 -1.0096 -0.1560
0 -6 1 1.1538 -0.9169
0 -6 2 0.6750 0.5490
0 -6 3 2.6885 0.2746
0 -6 4 -6.2325 0.2101
0 -6 5 -4.6179 -0.1994
0 -6 6 0.8746 -0.1173
0 -6 7 2.4900 -0.0256
0 -6 8 -3.3907 0.1056
0 -6 9 5.9780 0.1253
0 -6 10 -3.2956 0.1478
0 -5 1 -5.4391 -1.4111
0 -5 2 -1.0111 -0.4057
0 -5 3 6.8739 0.0983
0 -5 4 7.2173 0.3014
0 -5 5 -3.7103 0.1633
0 -5 6 -3.3199 -0.0263
0 -5 7 1.3737 -0.1776
0 -5 8 4.2326 -0.2189
0 -5 9 -3.9089 0.2012
0 -5 10 6.3702 0.1733
0 -5 11 -3.0139 0.2487
0 -5 12 -6.8716 0.3533
0 -4 1 4.8890 0.6730
0 -4 2 -2.6322 -0.7039
0 -4 3 -10.2881 -0.4006
0 -4 4 0.0599 -0.2222
0 -4 5 4.7314 0.3088
0 -4 6 0.7986 -0.0193
0 -4 7 -2.7067 -0.0192
0 -4 8 -4.5872 -0.2673
0 -4 9 1.5017 -0.2257
0 -4 10 -1.0165 -0.0937
0 -3 1 -8.9844 1.4450
0 -3 2 1.4996 0.4969
0 -3 3 11.8534 -0.2219
0 -3 4 -0.2689 -0.1951
0 -3 5 -1.6945 0.0269
0 -3 6 -3.1649 0.3221
0 -3 7 3.7816 0.2362
0 -3 8 4.1808 0.0392
0 -3 9 -4.7699 -0.1834
0 -3 10 1.1676 -0.1254
0 -2 1 18.4217 -1.3587
0 -2 2 -11.1623 1.0101
0 -2 3 -16.6170 0.3433
0 -2 4 2.6342 -0.3006
0 -2 5 5.2742 -0.2300
0 -2 6 2.2290 0.0625
0 -2 7 -4.8560 0.1456
0 -2 8 1.2692 0.2131
0 -2 9 1.6431 0.0568
0 -2 13 1.7638 0.1501
0 -1 2 25.6624 -0.7771
0 -1 3 9.3679 0.4735
0 -1 4 -10.0319 -0.0800
0 -1 5 -4.4677 -0.4098
0 -1 6 2.5841 -0.3300
0 -1 7 0.2367 0.0153
0 -1 8 -1.3164 0.1239
0 0 3 3.1608 0.3983
0 0 4 9.8257 0.5481
0 0 5 -0.2659 0.1535
0 0 6 -2.2738 -0.2017
0 0 7 1.9328 -0.1380
0 0 8 -0.2743 -0.0089
0 0 9 0.6253 0.1180
0 0 10 1.2420 0.2177
0 0 15 1.9986 0.1583
0 1 2 13.2496 0.2221
0 1 3 -7.7080 -0.4261
0 1 4 -3.5162 0.3516
0 1 5 0.5568 0.2482
0 1 6 0.3494 0.0372
0 1 7 -1.7636 -0.3397
0 1 8 -1.2130 -0.0947
0 1 9 -0.4322 -0.1305
0 1 10 1.0791 -0.0257
0 1 11 -1.8648 0.1302
0 1 12 -0.7046 0.2552
0 1 15 1.8884 0.0629
0 1 16 -1.7290 0.2895
0 2 0 11.2138 2.5200
0 2 1 -16.0272 -1.1144
0 2 2 -0.0733 -0.0053
0 2 3 1.5265 -0.8329
0 2 4 -1.1566 0.0172
0 2 5 3.1895 0.0468
0 2 6 0.6014 0.3954
0 2 7 0.8485 0.0537
0 2 8 0.3563 -0.0642
0 2 9 0.3057 -0.1193
0 2 10 -0.1439 -0.0884
0 2 11 1.8507 0.0518
0 2 12 -1.3136 0.1671
0 2 13 -1.5676 0.1856
0 2 14 5.7574 -0.1162
0 2 15 -1.4090 -0.1526
0 2 16 2.2041 0.0839
0 3 0 -3.2248 0.0419
0 3 1 2.6277 1.1344
0 3 2 -1.3549 0.2246
0 3 3 8.2992 -0.1555
0 3 4 -2.2070 -0.3949
0 3 5 -5.3258 0.1240
0 3 6 0.8799 0.0539
0 3 7 1.1150 0.2666
0 3 8 -0.9917 -0.0680
0 3 9 -0.4341 0.1084
0 3 10 1.0607 -0.2177
0 3 11 -2.1558 -0.1555
0 3 12 1.1539 -0.0498
0 3 13 1.8522 0.3146
0 3 14 -3.0612 0.0232
0 3 15 -0.0696 -0.2720
0 3 16 1.9712 0.1151
0 4 0 6.7846 -1.3260
0 4 1 1.0188 0.5153
0 4 2 -5.6061 0.6761
0 4 3 -6.6573 0.3244
0 4 4 6.3391 -0.4358
0 4 5 1.4460 -0.2150
0 4 6 -2.0895 -0.2671
0 4 7 -0.5397 0.1605
0 4 8 0.5953 0.0279
0 4 9 -1.3235 0.1104
0 4 10 0.1788 0.0196
0 4 11 2.5638 -0.0707
0 4 12 -1.5016 -0.1076
0 4 13 -1.9162 -0.0129
0 4 14 0.4462 0.1472
0 4 15 -1.3457 -0.0630
0 4 16 -1.7947 -0.1345
0 4 17 -1.0435 0.0283
0 5 0 -3.6227 -0.7925
0 5 1 2.2806 -1.3054
0 5 2 3.8285 0.4283
0 5 3 0.9030 0.3644
0 5 4 -2.8072 0.1275
0 5 5 1.7642 -0.0872
0 5 6 0.8497 -0.0124
0 5 7 0.2960 -0.0788
0 5 8 1.0918 0.1315
0 5 9 0.0513 -0.0457
0 5 10 -0.5042 0.2560
0 5 11 -1.4461 -0.0944
0 5 12 0.7665 -0.0800
0 5 13 1.9614 -0.1208
0 5 14 2.3066 0.2936
0 5 15 -0.1803 0.0065
0 5 16 -0.7044 -0.0674
0 5 17 0.7946 0.2926
0 6 0 0.5883 1.0882
0 6 1 -0.1666 -1.0143
0 6 2 -0.4605 -0.4737
0 6 3 -1.6686 0.3084
0 6 4 -0.1138 0.2886
0 6 5 -1.4510 0.0156
0 6 6 0.2217 -0.0869
0 6 7 -0.5645 -0.1902
0 6 8 -0.6981 -0.0134
0 6 9 -0.0720 -0.0717
0 6 10 -0.1228 0.0345
0 6 11 1.2684 0.0865
0 6 12 -0.9419 -0.0474
0 6 13 -1.5806 -0.1227
0 6 14 -0.7526 -0.0635
0 6 15 1.8586 0.1094
0 6 16 -0.2370 -0.0392
0 7 0 -1.4410 1.3660
0 7 1 -0.0535 0.3809
0 7 2 1.6085 -0.7324
0 7 3 1.9060 -0.0020
0 7 4 -0.1697 0.0065
0 7 5 0.1942 0.1622
0 7 6 -0.6840 0.0555
0 7 7 1.0901 -0.0238
0 7 8 0.7809 -0.0256
0 7 9 0.7480 -0.0671
0 7 10 -1.1082 -0.0519
0 7 11 0.6112 0.2425
0 7 12 0.7578 0.0662
0 7 13 -1.1906 -0.0691
0 7 14 -1.2798 -0.1096
0 7 15 0.9628 0.0049
0 8 0 -0.2877 -0.0492
0 8 1 -1.4400 0.9164
0 8 2 -0.2665 -0.2501
0 8 3 -1.5103 -0.2685
0 8 4 0.5705 -0.0447
0 8 5 1.3467 0.0595
0 8 6 -1.1920 0.1257
0 8 7 -1.1706 0.0336
0 8 8 -0.4349 -0.0016
0 8 9 -0.2210 0.0884
0 8 10 0.9046 -0.1363
0 8 11 -1.7381 -0.1107
0 8 12 0.2769 0.1308
0 8 13 2.7403 -0.0190
0 8 14 -0.2242 -0.0167
0 8 15 -2.3246 0.2720
0 9 0 0.7639 -0.8867
0 9 1 -0.6549 0.4378
0 9 2 -1.0019 0.1715
0 9 3 3.5170 -0.1737
0 9 4 -2.0286 -0.0277
0 9 5 -0.5700 -0.1542
0 9 6 2.6056 0.1104
0 9 7 -0.6123 0.0113
0 9 8 0.3737 -0.0192
0 9 9 -0.1315 -0.0681
0 9 10 -0.1487 -0.0422
0 9 11 1.6903 -0.0663
0 9 12 0.4307 0.0156
0 9 13 -1.8837 0.2459
0 9 14 1.6768 -0.1359
0 9 15 0.5797 -0.0906
0 10 0 0.8786 -0.4263
0 10 1 2.5924 0.0638
0 10 2 -1.6738 0.3989
0 10 3 -3.1817 0.0149
0 10 4 2.6471 0.0416
0 10 5 -0.7707 -0.0966
0 10 6 -1.3839 -0.1405
0 10 7 1.1163 0.0571
0 10 8 0.0370 0.0419
0 10 9 0.0904 0.1653
0 10 10 -1.2446 0.0394
0 10 11 -1.3123 0.0055
0 10 12 -2.5012 -0.1104
0 10 13 0.1942 -0.1073
0 10 14 -0.1116 -0.0011
0 10 15 0.0351 -0.0337
0 11 0 -1.2592 -0.1956
0 11 1 -0.8513 -0.3477
0 11 2 2.4659 0.2544
0 11 3 0.4345 -0.0786
0 11 4 -1.0289 -0.0367
0 11 5 -0.0564 0.0234
0 11 6 0.7612 0.0063
0 11 7 -0.8624 -0.0281
0 11 8 -0.4843 -0.0607
0 11 9 1.2356 -0.0083
0 11 10 0.7087 0.0106
0 11 11 2.0725 -0.1301
0 11 12 5.9030 0.0382
0 11 13 -2.1876 -0.0227
0 11 14 -1.9848 0.1546
0 12 0 -0.8535 -0.1073
0 12 1 0.2620 -0.5189
0 12 2 -0.3020 -0.0003
0 12 3 -0.1182 0.1502
0 12 4 0.2571 0.1487
0 12 5 1.3125 0.0982
0 12 6 -1.2800 -0.0032
0 12 7 -0.2700 0.0495
0 12 8 0.3331 -0.0341
0 12 9 -0.0093 0.0161
0 12 10 -0.6335 0.2406
0 13 0 0.2393 0.7129
0 13 1 -1.1410 -0.1504
0 13 2 0.5533 -0.1243
0 13 3 0.0716 0.0844
0 13 4 -0.6186 -0.1751
0 13 5 -0.8848 -0.1203
0 13 6 2.4165 -0.0757
0 13 7 1.3027 -0.1995
0 13 8 -2.4496 -0.1148
0 13 9 -0.3361 -0.3080
0 13 10 4.1105 0.0056
0 14 2 0.1078 -0.2947
0 14 3 -0.0120 -0.1091
0 14 4 -0.2582 0.1429
0 14 5 -0.1471 0.2039
0 14 6 -2.3418 0.2063
0 14 7 -0.4300 0.6456
0 14 8 2.7050 0.2048
0 14 9 -1.9431 0.0973
1 -13 0 -1.4765 0.0245
1 -13 1 1.8803 0.1175
1 -13 2 -0.9641 0.2458
1 -13 3 -0.1408 0.2667
1 -12 0 -0.5039 -0.4516
1 -12 1 1.0772 -0.1560
1 -12 2 -2.1782 -0.0441
1 -12 3 -0.4492 -0.1788
1 -12 4 -2.0544 -0.3535
1 -12 5 2.8768 -0.2507
1 -12 6 -2.6890 0.2151
1 -12 7 -3.8183 1.3383
1 -11 0 -1.4044 -0.2839
1 -11 1 -0.0541 -0.1705
1 -11 2 4.1863 0.2199
1 -11 3 -0.6653 0.0843
1 -11 4 0.0440 -0.0866
1 -11 5 -2.7292 -0.3276
1 -11 6 3.4922 -0.6088
1 -11 7 -0.2283 -0.2999
1 -11 8 -4.3381 -0.2116
1 -11 9 -4.9275 -0.3705
1 -10 0 1.4767 0.2844
1 -10 1 -2.8275 -0.4101
1 -10 2 -1.9038 0.0828
1 -10 3 1.9015 0.2165
1 -10 4 0.0267 0.2783
1 -10 5 1.0060 0.3129
1 -10 6 0.0632 -0.0735
1 -10 7 1.3075 -0.0683
1 -10 8 2.9185 0.2240
1 -10 9 2.6975 -0.4586
1 -10 10 -5.0374 -0.8240
1 -9 0 0.5969 0.9492
1 -9 1 2.6710 -0.5513
1 -9 2 -2.7296 -0.4016
1 -9 3 0.0585 0.0303
1 -9 4 0.9582 0.1577
1 -9 5 0.5768 0.2207
1 -9 6 -2.9636 0.1698
1 -9 7 0.0910 -0.0952
1 -9 8 -0.4370 0.1042
1 -9 9 -1.3225 0.1992
1 -9 10 3.0283 0.3417
1 -9 11 -1.8740 0.0162
1 -8 0 -0.6376 0.6879
1 -8 1 0.4662 0.6740
1 -8 2 2.0418 -0.5060
1 -8 3 -3.0805 -0.1968
1 -8 4 -0.3613 -0.4245
1 -8 5 -2.0004 0.0029
1 -8 6 3.6044 0.2099
1 -8 7 -2.9421 0.0849
1 -8 8 1.5155 -0.0274
1 -8 9 1.8459 0.0048
1 -8 10 -1.8409 -0.0262
1 -8 11 0.3369 0.4286
1 -8 12 -1.4103 0.4501
1 -7 0 0.0967 -0.7344
1 -7 1 0.2299 1.2248
1 -7 2 2.3278 0.0131
1 -7 3 0.1255 -0.0432
1 -7 4 0.5672 -0.0996
1 -7 5 3.2358 -0.2899
1 -7 6 -1.3496 -0.1169
1 -7 7 0.8901 0.0702
1 -7 8 -3.4320 0.0628
1 -7 9 -0.7949 -0.0627
1 -7 10 0.7638 -0.3246
1 -7 11 1.5542 -0.2200
1 -7 12 -3.5674 -0.0204
1 -6 0 -0.3693 -1.4593
1 -6 1 -1.6038 0.0427
1 -6 2 -1.8914 0.6412
1 -6 3 1.7831 0.1701
1 -6 4 -3.4677 0.3048
1 -6 5 -1.5681 -0.2307
1 -6 6 2.2091 -0.1454
1 -6 7 1.5598 -0.1682
1 -6 8 -0.1013 0.1209
1 -6 9 3.2154 0.1981
1 -6 10 -2.2452 0.1358
1 -6 11 1.4164 -0.0583
1 -6 12 8.9322 -0.0296
1 -6 13 -1.3977 0.2404
1 -5 0 -4.0727 -0.4924
1 -5 1 1.3538 -1.1559
1 -5 2 3.8653 0.2934
1 -5 3 1.0529 -0.0455
1 -5 4 1.2261 0.4645
1 -5 5 -4.1381 0.2655
1 -5 6 -1.6034 0.0354
1 -5 7 3.2364 -0.1077
1 -5 8 -0.1377 -0.1559
1 -5 9 -4.9772 0.1202
1 -5 10 2.1423 0.1270
1 -5 11 -9.4114 -0.0404
1 -5 12 -4.6424 -0.1826
1 -5 13 6.0302 -0.2306
1 -4 0 5.0650 1.5178
1 -4 1 -5.2296 -0.6172
1 -4 2 -6.3222 -0.6056
1 -4 3 -0.0884 -0.4712
1 -4 4 3.3259 -0.1897
1 -4 5 5.6832 0.2995
1 -4 12 -2.6490 0.1246
1 -4 13 -6.4415 -0.3224
1 -4 14 1.9175 -0.2203
1 -3 0 -0.1831 0.8566
1 -3 1 3.0244 0.8936
1 -3 2 5.5572 0.0535
1 -3 3 1.8351 -0.1286
1 -3 4 -4.0785 -0.4960
1 -3 5 -5.2025 -0.0322
1 -3 12 3.2509 0.2489
1 -3 13 4.4184 0.4397
1 -3 14 -3.5609 -0.2527
1 -2 0 6.6303 -1.5108
1 -2 1 1.8439 0.5277
1 -2 2 -13.8636 0.9670
1 -2 3 -3.7617 0.4475
1 -2 4 8.9245 -0.0863
1 -2 5 6.1257 -0.0758
1 -2 6 -5.2192 -0.0280
1 -2 7 -1.0641 0.1231
1 -2 8 3.6558 0.1883
1 -2 12 -3.8119 0.0232
1 -2 13 0.1748 0.0539
1 -2 14 0.0359 0.3759
1 -2 15 -4.3693 -0.0759
1 -1 0 -19.6550 0.8158
1 -1 1 7.2329 -1.8137
1 -1 2 22.1349 -0.4746
1 -1 3 -5.9384 0.2716
1 -1 4 -14.1128 -0.1389
1 -1 5 -1.9116 -0.0865
1 -1 6 6.7138 -0.0127
1 -1 7 -2.0686 -0.0441
1 -1 8 -1.9206 0.0836
1 -1 9 0.6144 0.0821
1 -1 10 -2.2727 0.0750
1 -1 11 -1.5089 -0.1043
1 -1 12 2.2491 -0.2898
1 -1 13 -2.9848 -0.0024
1 -1 14 3.7960 0.1903
1 -1 15 -1.0022 0.0914
1 0 1 -23.3771 1.1351
1 0 2 -16.7650 -0.7845
1 0 3 17.5669 0.4320
1 0 4 10.4202 0.0736
1 0 5 -4.3994 -0.1993
1 0 6 -4.1243 -0.0613
1 0 8 -0.1336 0.0619
1 0 9 -0.5014 0.0798
1 0 10 1.3982 0.1700
1 0 11 -1.0945 0.0539
1 0 12 1.6267 -0.0468
1 0 13 1.2887 -0.1677
1 0 14 -0.8483 -0.0669
1 0 15 0.4429 0.3492
1 0 16 0.2912 0.1048
1 1 1 33.1634 0.6605
1 1 2 2.7525 0.1770
1 1 3 -19.6107 -0.0337
1 1 4 -1.9030 0.5093
1 1 5 4.4541 -0.1785
1 1 6 -0.3695 -0.0325
1 1 7 -4.0954 -0.1722
1 1 8 2.0031 -0.0358
1 1 9 1.4427 -0.0459
1 1 10 -0.7345 0.0470
1 1 11 0.4347 0.1965
1 1 12 -0.7789 0.0414
1 1 13 -1.9204 -0.1776
1 1 14 -1.0790 -0.1733
1 1 15 4.0725 0.0670
1 1 16 -1.0493 0.0954
1 2 0 -8.0943 1.0467
1 2 1 -26.0927 -1.5335
1 2 2 9.1770 -0.1238
1 2 3 10.6191 -0.7329
1 2 4 -2.0779 0.5733
1 2 5 0.4362 0.2015
1 2 6 0.6950 0.1267
1 2 7 0.4638 -0.0934
1 2 8 -2.6845 -0.1501
1 2 9 -0.0612 -0.1113
1 2 10 0.6250 -0.0894
1 2 11 -1.4954 0.0881
1 2 12 0.2365 0.1130
1 2 13 2.7031 0.1451
1 2 14 -0.9700 -0.1731
1 2 15 -4.1800 -0.1471
1 2 16 0.7119 0.1432
1 3 0 10.2424 0.7407
1 3 1 10.7148 1.1748
1 3 2 -7.7599 -0.1673
1 3 3 -0.0704 -0.4286
1 3 4 -1.4017 -0.3645
1 3 5 -1.8876 0.3466
1 3 6 2.1365 0.0403
1 3 7 1.1553 0.3256
1 3 8 0.0443 -0.0921
1 3 9 0.2435 0.0799
1 3 10 0.6659 -0.2416
1 3 11 0.1880 -0.0478
1 3 12 -0.0041 0.1058
1 3 13 -0.4452 0.1351
1 3 14 0.9798 0.0456
1 3 15 2.6090 -0.0953
1 3 16 -0.4712 0.0887
1 4 0 -2.8276 -0.7868
1 4 1 -6.0062 0.9766
1 4 2 0.5191 0.5186
1 4 3 -1.9437 -0.0052
1 4 4 4.3792 -0.7470
1 4 5 -0.4934 -0.0554
1 4 6 -2.7876 -0.2022
1 4 7 0.2635 0.1934
1 4 8 0.7056 0.0921
1 4 9 -1.2654 0.0764
1 4 10 0.9817 0.0015
1 4 11 0.3790 -0.1436
1 4 12 -0.8496 -0.0993
1 4 13 -0.8912 0.0186
1 4 14 0.0186 0.0582
1 4 15 -0.5543 -0.0421
1 4 16 1.4051 -0.0128
1 4 17 -0.9293 0.2157
1 5 0 4.0990 -1.7239
1 5 1 4.9975 -0.5633
1 5 2 1.4675 0.8184
1 5 3 0.0405 0.4654
1 5 4 -3.4873 0.1240
1 5 5 2.2933 -0.1550
1 5 6 1.6352 -0.0187
1 5 7 -1.7307 -0.2046
1 5 8 -0.2186 0.1306
1 5 9 -0.3783 0.0088
1 5 10 -0.4852 0.2147
1 5 11 -0.3081 -0.1575
1 5 12 -0.3459 -0.0264
1 5 13 2.0326 0.0053
1 5 14 -1.3500 0.1163
1 5 15 -1.8076 -0.0794
1 5 16 0.4035 0.0223
1 5 17 2.1660 0.0305
1 6 0 -4.0665 0.1252
1 6 1 -2.0108 -1.3746
1 6 2 -1.5228 -0.0888
1 6 3 1.0663 0.3204
1 6 4 1.3640 0.2318
1 6 5 -2.9821 -0.0372
1 6 6 1.0326 0.0287
1 6 7 1.9028 -0.2043
1 6 8 -0.1382 -0.0009
1 6 9 0.5106 -0.1132
1 6 10 -0.2273 0.1380
1 6 11 1.3988 0.0794
1 6 12 0.9686 -0.0260
1 6 13 -2.0866 -0.1579
1 6 14 2.4075 0.0914
1 6 15 0.8818 -0.1122
1 6 16 -2.8728 -0.0971
1 7 0 2.2547 1.7399
1 7 1 1.9272 -0.5258
1 7 2 1.0083 -0.6137
1 7 3 -1.2522 -0.0106
1 7 4 0.4060 -0.0135
1 7 5 1.2020 0.0773
1 7 6 -2.3500 0.1254
1 7 7 0.5705 0.0497
1 7 8 0.2516 -0.0676
1 7 9 -0.7997 -0.0170
1 7 10 -0.6105 -0.0684
1 7 11 -0.1762 0.2178
1 7 12 -2.6205 -0.0820
1 7 13 2.4726 0.0866
1 7 14 -1.0788 -0.1097
1 7 15 1.3999 0.3389
1 7 16 1.9996 -0.1575
1 8 0 -3.0132 0.9997
1 8 1 -1.9520 0.6394
1 8 2 0.4495 -0.4210
1 8 3 0.2158 -0.0363
1 8 4 -0.7155 0.0085
1 8 5 0.3846 0.0313
1 8 6 -0.0535 -0.0402
1 8 7 -1.1447 0.0688
1 8 8 0.6447 -0.0354
1 8 9 1.2948 -0.0053
1 8 10 -0.0910 -0.1501
1 8 11 -0.2471 -0.0591
1 8 12 2.9118 0.1214
1 8 13 -4.2343 -0.0722
1 8 14 0.2773 0.0097
1 8 15 -1.6781 -0.1946
1 9 0 2.2625 -0.5442
1 9 1 0.3238 0.9825
1 9 2 -0.4514 -0.2506
1 9 3 2.1932 -0.0182
1 9 4 -0.0215 0.0026
1 9 5 -0.1515 -0.0367
1 9 6 1.0135 0.0690
1 9 7 -0.6014 0.0091
1 9 8 -0.2479 0.0861
1 9 9 -1.2284 0.0142
1 9 10 0.9129 -0.0758
1 9 11 0.2914 0.0342
1 9 12 -0.7278 -0.0808
1 9 13 2.9861 0.0558
1 9 14 -0.2396 0.0147
1 9 15 -0.0560 0.2875
1 10 0 -0.6109 -1.0921
1 10 1 0.3503 0.4102
1 10 2 -2.8745 0.3016
1 10 3 -1.9770 -0.2120
1 10 4 1.4167 -0.0641
1 10 5 -0.2552 -0.0701
1 10 6 -0.3626 -0.0432
1 10 7 1.3295 -0.0231
1 10 8 0.1046 -0.0475
1 10 9 0.4414 0.1898
1 10 10 -1.6748 0.1188
1 10 11 0.0313 -0.0503
1 10 12 -0.2788 0.1525
1 10 13 -0.6294 -0.0277
1 10 14 1.1049 -0.2123
1 10 15 1.6525 -0.1076
1 11 0 1.1721 -0.4943
1 11 1 1.8688 -0.3415
1 11 2 3.2020 0.4042
1 11 3 -1.7419 -0.1295
1 11 4 0.1246 0.1245
1 11 5 0.0954 -0.0970
1 11 6 0.0266 0.0406
1 11 7 -2.2265 0.0305
1 11 8 0.1324 -0.0185
1 11 9 0.9496 -0.1967
1 11 10 0.4759 -0.0848
1 11 11 0.0132 -0.0735
1 11 12 1.2380 -0.1451
1 11 13 -3.0189 -0.0664
1 11 14 -2.1455 0.4067
1 12 0 -4.5820 0.0623
1 12 1 -0.9426 -0.5577
1 12 2 0.2190 0.2694
1 12 3 0.8040 0.2128
1 12 4 -1.7455 0.1506
1 12 5 1.2673 0.0502
1 12 6 -0.3577 -0.0261
1 12 7 2.9699 -0.0654
1 12 8 -0.3567 -0.0142
1 12 9 -0.5394 0.1200
1 12 10 -0.6354 0.0295
1 12 11 -2.1098 -0.0725
1 12 12 1.7370 0.3257
1 12 13 5.6581 0.0543
1 13 0 4.4312 0.6270
1 13 1 -2.0725 -0.4312
1 13 2 1.4473 -0.2748
1 13 3 0.8011 -0.1757
1 13 4 -0.0786 -0.2233
1 13 5 -0.5141 -0.0041
1 13 6 -0.0937 -0.0889
1 13 7 -3.6559 0.1396
1 13 8 0.2067 0.0444
1 13 9 1.7550 0.1482
1 14 1 -0.8400 0.2443
1 14 2 -2.3252 -0.1415
1 14 3 0.6794 0.2257
1 14 4 -0.0144 0.1652
1 14 5 0.1369 0.2340
1 14 6 2.2879 -0.0383
1 14 7 1.8069 -0.0515
1 14 8 -1.6593 -0.4030
1 14 9 -2.9001 -0.6114
2 -13 0 0.3575 -0.0381
2 -13 1 0.8036 0.2537
2 -13 2 -2.6725 0.1615
2 -12 0 -1.5587 -0.7050
2 -12 1 1.6631 0.3732
2 -12 2 -0.6176 0.3865
2 -12 3 0.0699 0.2246
2 -12 4 -1.5040 0.2676
2 -12 5 3.3667 0.0465
2 -12 6 -2.7090 0.3076
2 -11 0 -1.1067 -0.5804
2 -11 1 0.5973 -0.4649
2 -11 2 1.4662 0.1786
2 -11 3 -2.1971 0.0475
2 -11 4 0.3660 -0.0911
2 -11 5 -3.9399 -0.1695
2 -11 6 5.7060 -0.1464
2 -11 7 0.2207 0.3692
2 -11 8 -2.7996 1.1275
2 -11 9 -0.3265 0.3577
2 -10 0 1.1512 0.3400
2 -10 1 -3.3204 -0.7322
2 -10 2 0.7458 -0.1642
2 -10 3 0.9895 0.0572
2 -10 4 0.7046 0.1476
2 -10 5 2.8365 -0.0644
2 -10 6 -5.9955 -0.3267
2 -10 7 -0.1360 -0.3050
2 -10 8 0.4069 -0.4366
2 -10 9 -0.1728 0.0412
2 -10 10 -0.5219 0.5776
2 -9 0 1.3460 1.1033
2 -9 1 2.7683 -0.2241
2 -9 2 -2.5324 -0.1181
2 -9 3 1.6775 0.0687
2 -9 4 -0.8360 0.1277
2 -9 5 0.0921 0.1967
2 -9 6 3.3440 0.0538
2 -9 7 0.6609 -0.2270
2 -9 8 0.5210 -0.0965
2 -9 9 -0.6836 -0.3031
2 -9 10 -1.6181 0.1133
2 -9 11 -1.2890 0.3857
2 -8 0 -1.7415 0.7036
2 -8 1 -0.0069 0.5211
2 -8 2 1.5913 -0.4133
2 -8 3 -4.2528 -0.0906
2 -8 4 0.1033 -0.1313
2 -8 5 -0.3028 0.2398
2 -8 6 0.4347 0.2817
2 -8 7 -1.7447 0.3895
2 -8 8 1.8504 0.1405
2 -8 9 0.4839 -0.2164
2 -8 10 2.4381 -0.3044
2 -8 11 1.0293 0.1726
2 -8 12 -1.4517 0.0891
2 -7 0 0.5042 -0.6076
2 -7 1 -0.4528 0.8607
2 -7 2 1.0173 -0.2482
2 -7 3 2.4720 -0.0195
2 -7 4 -1.3650 -0.3066
2 -7 5 -0.1018 -0.2334
2 -7 6 -0.1952 -0.0312
2 -7 7 -0.8851 0.0087
2 -7 8 -3.3391 0.1582
2 -7 9 1.0686 0.2339
2 -7 10 -3.6185 -0.1905
2 -7 11 -0.0848 0.0727
2 -7 12 0.0243 0.1968
2 -6 0 0.5721 -1.5183
2 -6 1 -0.6762 0.4425
2 -6 2 -0.3247 0.4596
2 -6 3 1.9259 0.0949
2 -6 4 0.9984 0.1250
2 -6 5 -2.5527 -0.4246
2 -6 6 1.6313 -0.3078
2 -6 7 3.3074 -0.1342
2 -6 8 1.2345 0.1431
2 -6 9 1.3177 0.1002
2 -6 10 1.2793 0.0472
2 -6 11 0.6048 -0.2740
2 -6 12 -0.0131 0.1171
2 -6 13 -4.0615 -0.0564
2 -5 0 -2.3916 -0.4869
2 -5 1 2.2041 -0.7151
2 -5 2 0.0228 0.4444
2 -5 3 -4.1643 -0.0142
2 -5 4 1.1755 0.6263
2 -5 5 2.3658 0.2400
2 -5 6 -3.2437 0.0553
2 -5 7 0.5040 -0.2689
2 -5 8 -3.5114 -0.1297
2 -5 9 -1.9426 0.0950
2 -5 10 0.9545 0.1483
2 -5 11 -2.9969 -0.0550
2 -5 12 5.0380 0.0098
2 -5 13 4.3757 0.3698
2 -4 0 -0.1107 1.1679
2 -4 1 -5.8515 -1.2712
2 -4 2 0.0983 -0.1945
2 -4 3 5.1425 -0.3993
2 -4 4 -2.3768 0.0704
2 -4 5 0.7164 0.3064
2 -4 6 -0.8478 0.1527
2 -4 7 -1.5769 0.0089
2 -4 8 6.6391 -0.2264
2 -4 9 -0.0317 -0.0337
2 -4 10 1.4972 0.0547
2 -4 11 -1.1794 0.1054
2 -4 12 -7.0201 -0.2752
2 -4 13 -0.9795 -0.0794
2 -4 14 5.1528 -0.1037
2 -3 0 4.3985 1.1913
2 -3 1 5.2486 0.4313
2 -3 2 -0.6887 -0.2994
2 -3 3 -2.6901 -0.1517
2 -3 4 0.3978 -0.5984
2 -3 5 -2.5871 0.1353
2 -3 6 4.7227 -0.0193
2 -3 7 -1.3924 0.2904
2 -3 8 -4.9168 -0.0656
2 -3 9 -0.7627 -0.0907
2 -3 10 -0.0177 -0.0376
2 -3 11 3.7246 0.1084
2 -3 12 2.2077 0.0028
2 -3 13 -0.7287 -0.1219
2 -3 14 -5.5779 -0.0601
2 -2 0 -0.4497 -0.0173
2 -2 1 -3.7387 1.1814
2 -2 2 -4.1110 0.0783
2 -2 3 2.7254 0.2789
2 -2 4 5.3762 -0.2891
2 -2 5 1.3151 -0.1136
2 -2 6 -5.7859 0.0464
2 -2 7 2.4345 0.0486
2 -2 8 2.5886 0.0560
2 -2 9 0.4132 -0.0498
2 -2 10 -0.6814 -0.0653
2 -2 11 -0.0075 0.0989
2 -2 12 -0.6627 0.2267
2 -2 13 1.1436 -0.0342
2 -2 14 1.6076 0.2403
2 -2 15 -2.1739 -0.1310
2 -1 0 -6.2973 -1.5168
2 -1 1 10.7109 -0.0080
2 -1 2 6.2613 0.4604
2 -1 3 -10.7537 0.1277
2 -1 4 -6.9219 0.0521
2 -1 5 3.6781 -0.0841
2 -1 6 5.6007 -0.0869
2 -1 7 -3.6283 0.0047
2 -1 8 -1.1010 0.1920
2 -1 9 0.1934 -0.0954
2 -1 10 -1.8492 -0.0906
2 -1 11 0.9899 -0.2287
2 -1 12 -0.6940 0.0803
2 -1 13 -0.1719 0.0397
2 -1 14 2.0065 -0.0550
2 -1 15 -1.6296 0.1634
2 0 0 4.4285 -0.9943
2 0 1 -21.0440 -0.8454
2 0 2 2.4012 0.1312
2 0 3 16.6844 0.4459
2 0 4 0.0766 -0.0881
2 0 5 -7.4387 -0.1971
2 0 6 -1.6907 0.0388
2 0 7 5.3596 -0.1499
2 0 8 -1.5230 0.1477
2 0 9 -0.6213 0.1660
2 0 10 1.0295 0.0444
2 0 11 -1.7474 -0.1579
2 0 12 3.1913 -0.1213
2 0 13 -2.7293 -0.0116
2 0 14 -1.5178 -0.0494
2 0 15 1.6003 0.1756
2 0 16 -0.4745 -0.0192
2 1 0 10.6290 1.4151
2 1 1 22.4003 -0.6299
2 1 2 -15.3864 -0.7004
2 1 3 -12.4847 0.2499
2 1 4 7.1296 0.4359
2 1 5 4.1437 -0.1698
2 1 6 -2.4376 0.0224
2 1 7 -2.4430 -0.1908
2 1 8 4.6213 -0.0927
2 1 9 0.2968 0.1240
2 1 10 -1.0148 0.2037
2 1 11 0.5759 0.1037
2 1 12 -1.7137 -0.0873
2 1 13 2.2074 0.0353
2 1 14 1.5205 -0.1135
2 1 15 -0.7095 0.0245
2 1 16 -0.1329 0.1688
2 2 0 -22.4019 1.2472
2 2 1 -9.4116 0.1742
2 2 2 20.3761 -0.3144
2 2 3 2.5181 -0.6324
2 2 4 -6.2780 0.5811
2 2 5 0.4966 0.1313
2 2 6 0.3302 0.0368
2 2 7 -1.5771 -0.0126
2 2 8 -2.9379 -0.2466
2 2 9 1.6976 -0.1303
2 2 10 0.5294 0.0136
2 2 11 -1.2276 0.1807
2 2 12 0.9374 -0.0300
2 2 13 -0.2721 0.0336
2 2 14 -2.5039 -0.0207
2 2 15 1.4713 -0.1546
2 2 16 -0.7399 -0.0261
2 3 0 12.8119 0.0175
2 3 1 -2.1388 0.9279
2 3 2 -13.7534 -0.0184
2 3 3 3.4202 -0.3729
2 3 4 1.2165 -0.3676
2 3 5 0.2830 0.2462
2 3 6 1.5234 0.0796
2 3 7 0.4432 0.2825
2 3 8 -0.3132 -0.1227
2 3 9 -0.4800 -0.0855
2 3 10 0.0489 -0.1866
2 3 11 0.4241 0.0543
2 3 12 -0.7223 0.0499
2 3 13 -0.1032 0.0050
2 3 14 1.5425 0.0286
2 3 15 -1.0281 0.0152
2 3 16 0.7229 0.0864
2 4 0 -0.9982 -0.9177
2 4 1 1.6581 0.7811
2 4 2 5.6686 0.2006
2 4 3 -2.9603 -0.0176
2 4 4 1.9266 -0.4623
2 4 5 -1.2159 0.0501
2 4 6 0.2683 -0.2032
2 4 7 0.9232 0.2873
2 4 8 -0.1044 0.1670
2 4 9 -0.2836 0.0356
2 4 10 1.3208 -0.1167
2 4 11 -0.4179 -0.0333
2 4 12 0.3744 0.0346
2 4 13 0.1890 0.0096
2 4 14 -0.3560 0.0833
2 4 15 -0.3589 -0.0103
2 4 16 -0.8142 0.0437
2 4 17 -0.3361 0.0542
2 5 0 1.0957 -1.4618
2 5 1 -0.0438 -0.1174
2 5 2 -1.8993 0.6939
2 5 3 -1.1403 0.2091
2 5 4 -2.5887 0.0554
2 5 5 1.6040 -0.2238
2 5 6 -0.9303 -0.0823
2 5 7 -1.0502 -0.1887
2 5 8 0.6012 0.2092
2 5 9 -0.9625 0.0247
2 5 10 -0.1720 0.0839
2 5 11 -0.0841 -0.1813
2 5 12 -0.5796 0.0177
2 5 13 0.7496 -0.0881
2 5 14 -0.2809 0.0415
2 5 15 1.8320 -0.1058
2 5 16 1.6106 0.0181
2 5 17 0.1201 0.1811
2 6 0 -1.6562 -0.2555
2 6 1 0.6837 -0.9876
2 6 2 2.1596 0.2861
2 6 3 3.3862 0.2034
2 6 4 -0.4428 0.2022
2 6 5 -1.6196 -0.0186
2 6 6 1.9886 -0.0309
2 6 7 0.7356 -0.3324
2 6 8 -0.4728 0.0561
2 6 9 0.7325 0.0192
2 6 10 -0.7882 0.1566
2 6 11 1.0489 -0.0659
2 6 12 0.2274 0.1047
2 6 13 -1.8702 -0.1158
2 6 14 0.2932 -0.0002
2 6 15 -1.9874 0.0479
2 6 16 -1.8661 0.0283
2 6 17 0.7406 0.0025
2 7 0 1.5129 1.3346
2 7 1 -1.3346 -1.1296
2 7 2 -2.3875 -0.3033
2 7 3 -0.2344 -0.0131
2 7 4 1.1604 0.0945
2 7 5 -0.8080 0.2213
2 7 6 -1.3153 0.1718
2 7 7 0.6599 0.0100
2 7 8 -0.6801 -0.1771
2 7 9 -0.4457 0.0266
2 7 10 0.7788 0.0012
2 7 11 -0.4812 0.1325
2 7 12 -1.2311 -0.1268
2 7 13 4.6044 0.2365
2 7 14 -2.3841 -0.1907
2 7 15 0.7544 0.0343
2 8 0 -2.9060 1.3685
2 8 1 1.7137 0.3303
2 8 2 -0.0516 -0.5586
2 8 3 -0.9520 -0.0559
2 8 4 1.5335 -0.1365
2 8 5 1.1276 0.0448
2 8 6 -0.7503 0.0555
2 8 7 0.2841 0.0959
2 8 8 1.9633 -0.1237
2 8 9 0.1120 -0.0484
2 8 10 -0.7753 -0.0440
2 8 11 0.8365 0.0257
2 8 12 -0.0226 -0.0742
2 8 13 -5.3637 0.0633
2 8 14 7.3888 0.1445
2 8 15 -1.5840 0.0559
2 9 0 2.2856 -0.0689
2 9 1 -1.4170 1.1741
2 9 2 0.7791 -0.1678
2 9 3 0.0024 0.1235
2 9 4 -2.4624 -0.2973
2 9 5 -1.0258 -0.0596
2 9 6 0.5824 0.0129
2 9 7 -1.6161 0.1349
2 9 8 -1.6652 0.0558
2 9 9 -0.6590 -0.0690
2 9 10 -0.0611 -0.1417
2 9 11 0.5448 0.0829
2 9 12 1.8387 0.0111
2 9 13 0.2057 -0.1408
2 9 14 -7.6645 0.0450
2 9 15 2.7253 -0.1399
2 10 0 0.1839 -1.3638
2 10 1 0.9294 0.3967
2 10 2 -0.6617 0.1260
2 10 3 1.1546 0.0416
2 10 4 3.0405 0.0610
2 10 5 1.1632 -0.1257
2 10 6 0.0281 -0.0501
2 10 7 1.8310 -0.0088
2 10 8 1.4758 0.1537
2 10 9 1.6849 0.1441
2 10 10 -0.5869 0.1255
2 10 11 -2.3914 -0.0940
2 10 12 0.3250 -0.0172
2 10 13 2.5944 -0.0524
2 10 14 3.6112 -0.0598
2 11 0 -0.5605 -0.6374
2 11 1 -0.4408 -0.3638
2 11 2 -1.1174 0.2496
2 11 3 -3.1336 0.0049
2 11 4 -0.1916 0.3163
2 11 5 -1.6825 -0.1869
2 11 6 -0.8787 0.0914
2 11 7 -1.5514 -0.1274
2 11 8 -1.3151 -0.0657
2 11 9 -1.3599 -0.0898
2 11 10 2.0261 -0.1123
2 11 11 1.7469 -0.0042
2 11 12 -1.3655 0.1365
2 11 13 -1.5252 0.0191
2 11 14 -0.9476 0.2316
2 12 0 -0.0501 0.4822
2 12 1 2.8422 -0.5057
2 12 2 2.5109 0.0355
2 12 3 0.7195 -0.2754
2 12 4 -2.0215 0.1297
2 12 5 4.0086 -0.0279
2 12 6 -0.1943 -0.1068
2 12 7 1.7541 -0.1146
2 12 8 0.4013 -0.0534
2 12 9 -0.6878 0.0349
2 12 10 -2.4211 0.2283
2 12 11 -0.6851 0.1237
2 12 12 0.8111 0.0403
2 12 13 0.8255 -0.3150
2 13 0 -1.9867 0.5104
2 13 1 -3.4842 0.1210
2 13 2 0.8453 0.1091
2 13 3 -0.1922 -0.0342
2 13 4 0.6190 0.0274
2 13 5 -2.7896 0.2803
2 13 6 0.2253 0.0724
2 13 7 -1.9227 0.4601
2 13 8 3.2287 0.0035
2 13 9 1.8460 0.0169
2 13 10 0.8203 -0.4395
2 13 11 -0.2036 -0.3755
2 13 12 -0.5219 0.0222
2 14 2 -0.7661 -0.0927
2 14 3 2.3335 0.0144
2 14 4 -2.0064 -0.3307
2 14 5 2.2789 0.0365
2 14 6 0.9495 -0.3308
2 14 7 -2.2391 -0.4197
2 14 8 -4.6160 -0.0518
3 -12 0 -4.7303 -0.7016
3 -12 1 4.2069 0.1949
3 -12 2 -2.7776 0.2675
3 -12 3 0.8999 0.0900
3 -12 4 0.6584 -0.3363
3 -12 5 -0.7051 -0.6782
3 -11 0 2.3349 -0.3358
3 -11 1 -1.3222 -0.5007
3 -11 2 1.0391 0.2108
3 -11 3 -2.6230 0.3948
3 -11 4 1.9278 0.4546
3 -11 5 0.1131 0.2032
3 -11 6 2.6558 0.2213
3 -11 7 0.5910 0.0800
3 -11 8 -0.1969 -0.2100
3 -10 0 -1.4019 0.3925
3 -10 1 -0.8597 -0.7449
3 -10 2 0.2167 -0.1188
3 -10 3 -0.2525 0.0017
3 -10 4 0.2250 0.0334
3 -10 5 0.6589 0.0702
3 -10 6 -5.1089 0.0925
3 -10 7 -1.4956 -0.1093
3 -10 8 1.3461 -0.0158
3 -10 9 5.1156 0.3829
3 -9 0 2.4393 1.0356
3 -9 1 2.0079 -0.0234
3 -9 2 -0.1272 -0.4996
3 -9 3 0.0300 -0.2116
3 -9 4 -2.2408 -0.0684
3 -9 5 1.9405 -0.1094
3 -9 6 4.1442 -0.0781
3 -9 7 -1.0868 0.1315
3 -9 8 -3.3893 -0.1918
3 -9 9 -4.8938 -0.3115
3 -9 10 -1.5695 0.3535
3 -9 11 2.5698 1.1310
3 -8 0 -2.6923 0.5228
3 -8 1 -0.0011 0.7048
3 -8 2 1.1063 -0.0436
3 -8 3 -0.7728 0.0084
3 -8 4 0.6685 -0.0288
3 -8 5 -0.3657 0.0850
3 -8 6 0.2984 0.1060
3 -8 7 3.3573 0.1026
3 -8 8 1.7622 -0.1071
3 -8 9 0.9022 -0.4294
3 -8 10 2.1300 -0.5089
3 -8 11 -2.4462 0.1144
3 -8 12 -1.1630 1.2807
3 -7 0 -0.3512 -0.9382
3 -7 1 -1.7545 0.6177
3 -7 2 0.1409 0.0838
3 -7 3 1.4848 0.0665
3 -7 4 -2.1026 -0.1253
3 -7 5 -1.8576 0.0225
3 -7 6 -1.4144 -0.0649
3 -7 7 -4.0750 0.2434
3 -7 8 2.6704 0.4258
3 -7 9 0.7133 0.1930
3 -7 10 -3.9667 -0.2234
3 -7 11 3.0741 -0.2913
3 -7 12 2.2174 -0.3027
3 -6 0 1.7231 -1.2573
3 -6 1 -0.0358 0.0720
3 -6 2 0.1738 0.1872
3 -6 3 0.9717 0.0581
3 -6 4 1.7948 -0.0927
3 -6 5 -1.1682 -0.3330
3 -6 6 3.0967 -0.2201
3 -6 7 3.0644 -0.1358
3 -6 8 -4.2733 0.1620
3 -6 9 0.8818 0.2269
3 -6 10 1.6106 0.1366
3 -6 11 -3.0391 -0.1900
3 -6 12 -2.2244 0.0148
3 -6 13 3.1816 -0.3625
3 -5 0 1.4767 0.0033
3 -5 1 1.4401 -0.8392
3 -5 2 -1.5774 0.2323
3 -5 3 -2.2807 0.1349
3 -5 4 2.3104 0.5166
3 -5 5 1.6904 0.0357
3 -5 6 -5.3731 -0.0414
3 -5 7 0.0895 -0.4277
3 -5 8 0.7340 -0.1442
3 -5 9 0.9619 0.0052
3 -5 10 -0.1264 0.2051
3 -5 11 1.2627 0.0791
3 -5 12 2.1030 -0.0174
3 -5 13 -5.8537 0.2055
3 -4 0 -6.1448 1.0749
3 -4 1 -2.2732 -0.6951
3 -4 2 2.3078 -0.1726
3 -4 3 2.7141 -0.3532
3 -4 4 -4.2454 0.3318
3 -4 5 1.6086 0.3201
3 -4 6 2.7341 0.1456
3 -4 7 -0.9442 -0.0114
3 -4 8 2.2781 -0.1362
3 -4 9 -2.3664 -0.0106
3 -4 10 1.8031 -0.0264
3 -4 11 -2.9805 0.1519
3 -4 12 1.0908 -0.0327
3 -4 13 6.5783 0.2601
3 -4 14 -0.7157 0.0564
3 -3 0 7.3573 1.3109
3 -3 1 1.6827 0.3143
3 -3 2 -3.5490 -0.3105
3 -3 3 -2.2729 -0.3345
3 -3 4 2.2700 -0.5324
3 -3 5 -2.2970 0.2383
3 -3 6 0.9755 0.1366
3 -3 7 -0.9094 0.2701
3 -3 8 -2.7629 -0.2237
3 -3 9 0.7800 -0.0620
3 -3 10 0.0789 -0.1061
3 -3 11 1.7362 -0.0171
3 -3 12 -4.6949 -0.2084
3 -3 13 -2.3468 -0.2001
3 -3 14 1.9766 0.3694
3 -2 0 -3.2223 -0.3051
3 -2 1 -1.5802 1.0600
3 -2 2 2.4978 0.0267
3 -2 3 2.9047 0.2194
3 -2 4 0.5481 -0.4869
3 -2 5 -0.3960 -0.0268
3 -2 6 -1.3914 -0.0175
3 -2 7 1.5029 0.1175
3 -2 8 2.4840 0.0857
3 -2 9 -0.7503 -0.0243
3 -2 10 0.1507 -0.0444
3 -2 11 1.3795 0.1301
3 -2 12 1.3463 0.1764
3 -2 13 -0.9957 -0.2343
3 -2 14 -1.4394 -0.1082
3 -2 15 -0.8189 0.2768
3 -1 0 -0.0759 -1.8705
3 -1 1 5.8229 0.6657
3 -1 2 -3.1146 0.3250
3 -1 3 -6.0269 0.3114
3 -1 4 0.7179 -0.0608
3 -1 5 3.1940 -0.3950
3 -1 6 0.4709 0.0041
3 -1 7 -1.7161 0.0969
3 -1 8 -1.7930 0.1968
3 -1 9 0.8646 -0.0864
3 -1 10 -2.0696 0.0048
3 -1 11 1.8673 -0.1307
3 -1 12 0.2312 0.2514
3 -1 13 0.8625 0.0218
3 -1 14 -0.1428 -0.0539
3 -1 15 -0.0466 -0.0953
3 0 0 -3.2374 -1.0229
3 0 1 -9.1690 -1.0690
3 0 2 9.3385 0.5781
3 0 3 5.4188 0.1993
3 0 4 -5.7074 0.4162
3 0 5 -2.9306 -0.2287
3 0 6 1.7666 -0.1732
3 0 7 2.3758 -0.1825
3 0 8 -0.7878 0.1794
3 0 9 -0.8189 0.0850
3 0 10 0.7713 -0.0495
3 0 11 -2.9814 -0.2467
3 0 12 2.1887 -0.0701
3 0 13 -1.4396 0.1603
3 0 14 1.3933 -0.0730
3 0 15 -1.2317 0.1538
3 0 16 -2.1449 0.0340
3 1 0 10.6041 1.3083
3 1 1 4.8052 -1.4265
3 1 2 -14.9412 -0.4586
3 1 3 1.1227 0.0292
3 1 4 7.3007 0.3519
3 1 5 -1.5421 0.2634
3 1 6 -2.2667 -0.1101
3 1 7 0.2090 -0.3140
3 1 8 2.8028 -0.0458
3 1 9 -0.4601 0.1863
3 1 10 -0.4971 0.1817
3 1 11 0.7452 0.0479
3 1 12 -1.3244 -0.1611
3 1 13 0.9577 -0.0044
3 1 14 -0.7899 -0.0330
3 1 15 0.5498 0.0140
3 1 16 0.4400 0.0086
3 2 0 -11.0505 2.0223
3 2 1 4.4518 0.2447
3 2 2 14.0119 -0.6518
3 2 3 -6.9397 -0.3105
3 2 4 -2.6646 0.0024
3 2 5 3.1917 0.2527
3 2 6 -1.6327 0.3393
3 2 7 -1.2552 -0.0068
3 2 8 -0.2176 -0.3770
3 2 9 1.6949 -0.0541
3 2 10 0.3500 0.1103
3 2 11 -0.7263 0.1848
3 2 12 -0.1388 -0.0553
3 2 13 0.3580 0.0380
3 2 14 -0.2474 -0.0709
3 2 15 2.0870 -0.0941
3 2 16 -1.2466 0.0485
3 3 0 1.5160 0.1133
3 3 1 -8.9077 1.3893
3 3 2 -8.8159 -0.0741
3 3 3 8.1824 -0.2233
3 3 4 -1.5202 -0.3880
3 3 5 -0.0231 -0.0661
3 3 6 1.7356 0.1450
3 3 7 -1.2090 0.3333
3 3 8 -1.0730 -0.0679
3 3 9 -0.4392 -0.2194
3 3 10 -0.0703 -0.1621
3 3 11 1.3949 0.0615
3 3 12 0.2405 0.0420
3 3 13 -0.8425 0.0893
3 3 14 -0.4287 0.0282
3 3 15 -2.1388 0.0136
3 3 16 2.6879 0.0354
3 4 0 5.2506 -1.6257
3 4 1 6.7926 0.7151
3 4 2 3.2582 0.2568
3 4 3 -5.9706 0.1466
3 4 4 3.3064 -0.2441
3 4 5 -1.2636 -0.1735
3 4 6 0.8302 -0.2324
3 4 7 0.2783 0.2944
3 4 8 -0.0626 0.1803
3 4 9 0.3684 0.0530
3 4 10 -0.2075 -0.1460
3 4 11 -1.4542 0.0259
3 4 12 0.4356 -0.0565
3 4 13 0.9091 -0.0740
3 4 14 0.3739 0.1720
3 4 15 -0.7353 -0.1175
3 4 16 -1.3923 0.0184
3 5 0 -4.3536 -1.3237
3 5 1 -3.4157 -0.3741
3 5 2 -0.3906 0.4964
3 5 3 0.1134 0.2462
3 5 4 -2.0423 0.2977
3 5 5 2.3160 -0.2126
3 5 6 -0.8393 -0.1537
3 5 7 0.8432 -0.1715
3 5 8 -0.1556 0.1796
3 5 9 -0.4903 0.0256
3 5 10 1.0844 0.0737
3 5 11 -0.3761 -0.1413
3 5 12 -0.3708 0.0632
3 5 13 -0.3318 -0.1295
3 5 14 1.0223 0.0576
3 5 15 1.6369 0.0548
3 5 16 -1.9036 0.1580
3 5 17 -2.8741 0.1712
3 6 0 2.5902 0.2685
3 6 1 1.4822 -0.8512
3 6 2 2.3451 0.0319
3 6 3 1.8134 -0.1214
3 6 4 -2.8346 0.3036
3 6 5 -1.4985 0.0759
3 6 6 1.4927 -0.0772
3 6 7 -0.3534 -0.2685
3 6 8 -0.1264 0.0947
3 6 9 -0.0856 0.0268
3 6 10 -0.4157 0.0995
3 6 11 1.3440 -0.0398
3 6 12 0.0387 0.1815
3 6 13 0.1803 -0.1403
3 6 14 -1.1428 -0.0774
3 6 15 -0.1686 0.0262
3 6 16 1.5685 -0.1026
3 6 17 1.2530 0.0629
3 7 0 -1.0500 1.2471
3 7 1 -1.3854 -0.6920
3 7 2 -2.2809 -0.1567
3 7 3 1.7017 -0.2225
3 7 4 1.3857 0.0968
3 7 5 -1.1931 0.2980
3 7 6 -0.6593 0.0509
3 7 7 0.0523 -0.0222
3 7 8 0.0441 -0.1428
3 7 9 0.3561 0.0123
3 7 10 0.0776 -0.0143
3 7 11 -1.2778 0.0335
3 7 12 -1.6397 -0.1440
3 7 13 0.5673 0.1513
3 7 14 -1.1378 -0.1484
3 7 15 1.6034 -0.0941
3 7 16 0.7372 -0.2215
3 8 0 -2.1201 0.7548
3 8 1 1.8706 0.4496
3 8 2 -0.9132 -0.1424
3 8 3 0.5390 -0.0502
3 8 4 3.1637 -0.2935
3 8 5 -0.1351 0.1783
3 8 6 -0.5702 0.1514
3 8 7 1.4002 -0.0481
3 8 8 0.0198 -0.1576
3 8 9 -1.5519 0.0512
3 8 10 0.4177 -0.0622
3 8 11 2.0077 0.0896
3 8 12 1.1628 0.0662
3 8 13 -0.2121 0.2864
3 8 14 2.9675 -0.0653
3 8 15 -5.7479 0.3265
3 9 0 1.5224 -0.2332
3 9 1 -2.4074 0.6149
3 9 2 0.6980 -0.1216
3 9 3 -4.0001 0.0671
3 9 4 -2.9594 -0.4777
3 9 5 1.2981 -0.0380
3 9 6 0.5673 0.0402
3 9 7 -2.2727 0.2625
3 9 8 1.0463 0.0266
3 9 9 1.9984 -0.0307
3 9 10 -1.6420 -0.0306
3 9 11 0.6484 -0.1037
3 9 12 -0.1306 -0.1150
3 9 13 -2.7197 -0.2461
3 9 14 -0.5728 0.1953
3 10 0 2.9572 -0.9785
3 10 1 1.5734 0.2857
3 10 2 0.2625 0.1817
3 10 3 3.0600 0.4735
3 10 4 2.3738 0.0293
3 10 5 -1.6742 -0.2410
3 10 6 -0.2816 0.0226
3 10 7 1.7005 -0.0006
3 10 8 -1.9714 0.0444
3 10 9 -0.7832 -0.0683
3 10 10 -0.5971 0.1078
3 10 11 -4.4117 -0.0292
3 10 12 3.1055 -0.1073
3 10 13 2.5215 0.2240
3 10 14 -2.6599 -0.0029
3 11 0 -3.3280 -0.3985
3 11 1 -0.1847 -0.3851
3 11 2 0.2730 -0.0454
3 11 3 -1.3561 -0.0478
3 11 4 -0.6640 0.3402
3 11 5 0.5824 -0.2561
3 11 6 -0.0145 -0.0780
3 11 7 0.6986 -0.2033
3 11 8 0.4936 0.1576
3 11 9 1.1906 0.0260
3 11 10 5.3299 -0.0428
3 11 11 2.4199 0.1254
3 11 12 -4.8429 0.2049
3 11 13 0.7617 -0.4584
3 12 0 2.8530 0.5448
3 12 1 -0.9823 -0.4248
3 12 2 -2.1583 -0.0568
3 12 3 -0.3026 -0.2030
3 12 4 0.1489 0.3356
3 12 5 1.7711 0.1210
3 12 6 -2.7388 0.1606
3 12 7 -0.2583 0.0024
3 12 8 0.8118 -0.0250
3 12 9 -4.8808 -0.0072
3 12 10 -4.5219 0.2428
3 12 11 1.9568 -0.0664
3 12 12 1.9989 -0.2374
3 13 0 -2.8362 0.4729
3 13 1 4.6911 0.3397
3 13 2 2.4072 -0.0538
3 13 3 -1.0307 -0.3090
3 13 4 0.0476 -0.2090
3 13 5 -0.8458 -0.0542
3 13 6 2.5978 -0.1687
3 13 7 -1.3149 0.0929
3 13 8 2.6355 -0.3389
3 13 9 3.2536 -0.1072
3 13 10 -0.7955 -0.6411
3 13 11 -1.3053 0.3774
3 14 3 1.0835 0.3188
3 14 4 -2.5979 0.1331
3 14 5 2.5007 0.3543
3 14 6 -1.3063 -0.0819
3 14 7 -1.8120 0.2071
3 14 8 -1.6266 0.4581
3 14 9 3.2408 0.4195
3 14 10 0.2894 0.3298
4 -12 0 0.3913 -0.7051
4 -12 1 4.8870 -0.3506
4 -12 2 -3.1720 -0.2156
4 -12 3 2.2690 0.0913
4 -11 0 -0.7368 -0.2320
4 -11 1 -2.9420 -0.4351
4 -11 2 1.3747 0.1197
4 -11 3 -2.4269 0.1364
4 -11 4 2.6312 -0.0985
4 -11 5 2.2907 -0.1236
4 -11 6 -0.5376 0.2551
4 -11 7 -0.3801 -1.0608
4 -11 8 -1.6222 -1.0313
4 -10 0 1.2444 0.7327
4 -10 1 0.9981 -0.2776
4 -10 2 -1.0969 0.0173
4 -10 3 1.0268 -0.0294
4 -10 4 -0.3291 0.2147
4 -10 5 -1.1698 0.2346
4 -10 6 0.0083 0.2317
4 -10 7 -1.6348 0.4624
4 -10 8 4.1450 -0.0565
4 -9 0 0.2050 0.6696
4 -9 1 0.8903 -0.0628
4 -9 2 -0.3495 -0.4637
4 -9 3 -3.5491 -0.0485
4 -9 4 -0.4240 -0.1189
4 -9 5 2.0466 -0.1470
4 -9 6 -0.2131 0.1102
4 -9 7 1.1851 0.1932
4 -9 8 -6.5861 -0.1303
4 -9 9 -3.0648 0.0075
4 -8 0 -1.1661 0.1055
4 -8 1 1.8877 0.6562
4 -8 2 2.3336 -0.0516
4 -8 3 2.3655 -0.1255
4 -8 4 -1.4905 -0.1104
4 -8 5 0.9616 -0.0544
4 -8 6 1.1425 -0.0766
4 -8 7 0.0094 0.0932
4 -8 8 1.9368 0.1437
4 -8 9 -1.0113 -0.0038
4 -8 10 -1.6966 0.1119
4 -8 11 -1.7457 -0.1934
4 -7 0 -2.5452 -0.9183
4 -7 1 -3.0508 0.6551
4 -7 2 -0.2031 0.2806
4 -7 3 -0.1689 0.0271
4 -7 4 -0.5407 -0.0738
4 -7 5 -3.1748 -0.0919
4 -7 6 -0.0083 -0.1444
4 -7 7 1.0851 0.1745
4 -7 8 4.6225 0.0723
4 -7 9 -1.7058 -0.0839
4 -7 10 -2.3123 -0.0635
4 -7 11 1.2298 -0.4198
4 -7 12 0.0864 -0.2204
4 -6 0 3.2550 -0.9494
4 -6 1 0.4512 -0.4533
4 -6 2 0.0695 0.3176
4 -6 3 0.7249 0.2757
4 -6 4 1.3238 0.0894
4 -6 5 0.9537 -0.1114
4 -6 6 -0.2112 -0.1650
4 -6 7 -1.7803 -0.0921
4 -6 8 -4.1364 0.2784
4 -6 9 4.3710 0.1700
4 -6 10 1.6138 0.1014
4 -6 11 -1.2767 -0.0179
4 -6 12 -1.0717 -0.3876
4 -5 0 0.3304 0.2518
4 -5 1 -0.7207 -0.8822
4 -5 2 -1.0594 -0.0671
4 -5 3 -1.0619 0.0157
4 -5 4 0.6679 0.3356
4 -5 5 -0.1488 0.1160
4 -5 6 -1.5497 -0.1031
4 -5 7 0.6114 -0.3969
4 -5 8 1.9990 -0.1047
4 -5 9 -1.4146 0.0321
4 -5 10 -2.3673 0.2175
4 -5 11 1.1556 0.1833
4 -5 12 0.5661 -0.2286
4 -5 13 -4.8272 -0.3304
4 -4 0 -3.2018 1.3151
4 -4 1 1.7990 -0.2802
4 -4 2 2.0677 -0.4047
4 -4 3 2.0532 -0.2213
4 -4 4 -2.3312 0.1359
4 -4 5 1.8180 0.2156
4 -4 6 1.2968 0.2176
4 -4 7 -0.3531 -0.0429
4 -4 8 -1.2320 -0.1741
4 -4 9 0.9501 -0.1230
4 -4 10 2.7574 -0.0345
4 -4 11 -2.8907 0.3414
4 -4 12 2.1979 0.2107
4 -4 13 2.3115 -0.0079
4 -3 0 3.4568 0.9370
4 -3 1 -3.8496 0.5200
4 -3 2 -4.2176 -0.1560
4 -3 3 -0.9712 -0.3445
4 -3 4 2.5392 -0.2437
4 -3 5 -1.9109 0.1693
4 -3 6 0.7724 0.2298
4 -3 7 -0.5430 0.1955
4 -3 8 -1.1372 -0.0971
4 -3 9 -0.3744 -0.0366
4 -3 10 0.4121 -0.3135
4 -3 11 0.4270 -0.0526
4 -3 12 -2.8884 0.1674
4 -3 13 2.6560 -0.0242
4 -3 14 4.8769 -0.0308
4 -2 0 0.5500 -0.7376
4 -2 1 4.6962 1.0209
4 -2 2 2.5453 0.1448
4 -2 3 -0.6539 0.0515
4 -2 4 -1.4251 -0.5247
4 -2 5 -0.0202 -0.0930
4 -2 6 -0.1304 -0.1045
4 -2 7 1.3557 0.2544
4 -2 8 1.4806 0.0338
4 -2 9 -2.2111 0.0442
4 -2 10 1.0737 -0.0484
4 -2 11 1.4236 -0.1300
4 -2 12 -1.2894 0.0728
4 -2 13 -3.2967 0.0493
4 -2 14 -1.9939 -0.0336
4 -1 0 -2.4301 -1.6635
4 -1 1 -0.2849 0.2605
4 -1 2 -1.5508 0.3704
4 -1 3 -0.7521 0.5052
4 -1 4 2.0516 -0.1042
4 -1 5 1.0647 -0.3385
4 -1 6 -1.5486 -0.0540
4 -1 7 -0.2570 -0.0191
4 -1 8 -0.6224 0.2309
4 -1 9 1.7664 0.0517
4 -1 10 -3.2913 0.0200
4 -1 11 2.5146 -0.2071
4 -1 12 0.9178 -0.0593
4 -1 13 0.6751 0.0112
4 -1 14 0.7424 0.0614
4 -1 15 -2.0496 -0.0691
4 -1 16 2.6284 0.0102
4 0 0 -1.1625 -0.5421
4 0 1 -1.6965 -0.9642
4 0 2 5.1602 0.1867
4 0 3 0.2908 0.1483
4 0 4 -4.7857 0.6333
4 0 5 0.0173 -0.2225
4 0 6 2.6265 -0.1412
4 0 7 -0.1012 -0.1935
4 0 8 -0.4852 0.0527
4 0 9 -0.7554 0.1005
4 0 10 1.9262 0.2104
4 0 11 -3.2345 -0.0872
4 0 12 2.8991 0.0010
4 0 13 -0.4580 -0.0275
4 0 14 -0.3100 -0.0267
4 0 15 0.2258 0.1376
4 0 16 -1.5508 -0.1182
4 1 0 2.7541 1.1379
4 1 1 -1.0556 -0.9404
4 1 2 -7.2497 -0.1809
4 1 3 3.7187 -0.3936
4 1 4 5.2489 0.3720
4 1 5 -3.2146 0.3127
4 1 6 -2.1399 -0.0915
4 1 7 1.0613 -0.1925
4 1 8 1.6443 -0.1204
4 1 9 -0.4376 -0.0214
4 1 10 -1.2593 0.1300
4 1 11 0.9977 0.1773
4 1 12 -2.7567 -0.1187
4 1 13 -0.1033 -0.0321
4 1 14 0.7001 -0.0833
4 1 15 0.4056 -0.0417
4 1 16 -0.8089 0.0673
4 2 0 -2.0026 1.5176
4 2 1 3.6763 -0.0509
4 2 2 6.5282 -0.3013
4 2 3 -7.2519 -0.1393
4 2 4 -1.7869 -0.3449
4 2 5 4.0119 0.4008
4 2 6 -1.0432 0.1849
4 2 7 -0.5262 -0.0037
4 2 8 -0.4627 -0.2168
4 2 9 1.1996 -0.1189
4 2 10 0.7352 -0.0735
4 2 11 -1.1218 0.0811
4 2 12 1.6876 0.0430
4 2 13 1.6480 0.1014
4 2 14 -1.3283 -0.0878
4 2 15 2.0070 0.0112
4 2 16 0.4151 -0.0673
4 3 0 0.9557 0.3212
4 3 1 -6.6052 1.1151
4 3 2 -3.6032 -0.2976
4 3 3 8.9905 0.0108
4 3 4 -1.8242 -0.3935
4 3 5 -1.3404 -0.0516
4 3 6 1.4789 0.2367
4 3 7 -1.2619 0.2336
4 3 8 0.0139 0.0270
4 3 9 -0.7830 -0.0425
4 3 10 0.7052 -0.1458
4 3 11 1.8174 0.0603
4 3 12 -2.6934 0.0390
4 3 13 -1.9032 0.1085
4 3 14 -0.2272 0.0291
4 3 15 -2.1453 -0.0409
4 3 16 3.4228 0.0318
4 4 0 2.2127 -1.4917
4 4 1 6.9709 0.8743
4 4 2 -1.6650 0.2333
4 4 3 -7.4812 0.1745
4 4 4 3.9680 -0.2547
4 4 5 -0.6874 -0.2753
4 4 6 -0.5563 -0.0331
4 4 7 0.3000 0.1872
4 4 8 0.8095 0.0764
4 4 9 0.0698 0.0325
4 4 10 -2.1764 -0.0863
4 4 11 0.2210 -0.1066
4 4 12 3.4353 -0.1169
4 4 13 0.6913 -0.0524
4 4 14 0.7315 0.1632
4 4 15 -1.3975 -0.0469
4 4 16 -2.5317 -0.0114
4 5 0 -2.8589 -1.3822
4 5 1 -3.8025 -0.4322
4 5 2 3.4014 0.4882
4 5 3 3.0077 0.2636
4 5 4 -2.4484 0.2653
4 5 5 2.5235 -0.4137
4 5 6 0.4290 -0.1934
4 5 7 -0.5241 -0.0768
4 5 8 -1.6419 0.1432
4 5 9 1.4553 0.0633
4 5 10 0.5400 0.1379
4 5 11 -2.6539 -0.0661
4 5 12 -1.1860 0.0238
4 5 13 1.1858 -0.0790
4 5 14 0.6748 0.0480
4 5 15 1.1680 0.0447
4 5 16 -1.0513 0.2858
4 6 0 1.6040 0.5345
4 6 1 2.4876 -1.1085
4 6 2 -1.0299 -0.0442
4 6 3 -2.3160 0.0061
4 6 4 -1.2881 0.5645
4 6 5 -1.7230 0.0469
4 6 6 1.1041 -0.1298
4 6 7 0.7976 -0.2002
4 6 8 -0.0084 0.0690
4 6 9 -0.2642 -0.0183
4 6 10 1.9852 0.1079
4 6 11 1.0232 0.0619
4 6 12 -0.6297 0.0598
4 6 13 -2.0067 -0.2157
4 6 14 -0.6179 -0.0324
4 6 15 0.1702 -0.0513
4 6 16 -0.1736 -0.0326
4 7 0 -1.2180 1.4029
4 7 1 -1.9220 -0.3447
4 7 2 0.4663 -0.4572
4 7 3 3.1881 -0.3062
4 7 4 0.3972 0.2217
4 7 5 0.1419 0.4097
4 7 6 -0.8124 0.0098
4 7 7 0.5841 -0.0068
4 7 8 0.4148 -0.2227
4 7 9 -1.7673 -0.0874
4 7 10 -1.0003 -0.0970
4 7 11 0.3620 0.0905
4 7 12 -0.2894 0.0517
4 7 13 2.2442 0.0878
4 7 14 1.1246 -0.0399
4 7 15 2.5666 -0.1322
4 7 16 -0.1865 -0.2623
4 8 0 -2.2151 0.5644
4 8 1 2.1014 0.7630
4 8 2 -0.2572 -0.0876
4 8 3 0.2985 -0.4329
4 8 4 0.2562 -0.4535
4 8 5 -1.5294 0.2219
4 8 7 -0.7817 0.0144
4 8 8 -0.1996 0.0454
4 8 9 0.7555 0.1204
4 8 10 0.9630 -0.1190
4 8 11 0.2210 0.0157
4 8 12 0.2525 0.0380
4 8 13 -2.3276 0.2223
4 8 14 -3.7777 -0.3325
4 8 15 -3.0268 0.5159
4 9 0 1.9510 -0.7082
4 9 1 -3.3037 0.6244
4 9 2 -0.8163 0.2109
4 9 3 -2.3843 0.2374
4 9 4 1.8233 -0.4208
4 9 5 2.1503 -0.0291
4 9 6 1.4144 0.1014
4 9 7 -0.0266 0.2159
4 9 8 1.7048 0.0464
4 9 9 -0.0168 -0.0160
4 9 10 -3.1161 -0.0442
4 9 11 1.7765 -0.2170
4 9 12 -0.5579 -0.0007
4 9 13 1.6067 -0.0476
4 9 14 4.8455 0.4466
4 10 0 1.3644 -0.9433
4 10 1 0.9397 -0.0089
4 10 2 1.2545 0.3179
4 10 3 1.6857 0.3558
4 10 4 -1.7497 -0.0251
4 10 5 -2.5121 -0.1705
4 10 6 -0.7612 -0.0992
4 10 7 -0.2465 -0.2375
4 10 8 -3.0579 -0.1168
4 10 9 1.8797 0.0718
4 10 10 2.3624 0.2043
4 10 11 -3.6994 0.0463
4 10 12 3.8166 -0.1910
4 10 13 -1.2096 0.0990
4 11 0 1.2164 -0.2689
4 11 1 0.6153 -0.5897
4 11 2 -1.1411 -0.1077
4 11 3 -1.6774 0.0547
4 11 4 0.9670 0.2072
4 11 5 1.4178 -0.1783
4 11 6 0.1786 0.1449
4 11 7 2.2570 0.0519
4 11 8 -0.2826 0.1977
4 11 9 -1.8455 -0.1074
4 11 10 0.8844 0.0717
4 11 11 0.1456 -0.0816
4 11 12 -5.6462 0.1413
4 12 0 -2.0304 0.8655
4 12 1 -1.1887 -0.3662
4 12 2 0.8539 -0.0929
4 12 3 3.0665 -0.0329
4 12 4 0.3502 0.2573
4 12 5 -0.4458 0.0446
4 12 6 -2.3164 0.0944
4 12 7 0.7107 -0.0570
4 12 8 3.5726 -0.0797
4 12 9 -2.7032 -0.2608
4 12 10 0.9250 0.1040
4 12 11 4.1466 0.2033
4 13 0 1.6806 0.1957
4 13 1 3.4033 0.2409
4 13 2 -4.1106 -0.1683
4 13 3 -4.0550 -0.2583
4 13 4 0.2163 -0.1347
4 13 5 1.5780 -0.1687
4 13 6 0.3039 -0.1253
4 13 7 -4.3567 0.0004
4 13 8 -0.3271 0.0896
4 13 9 2.0143 0.4013
4 13 10 -4.8277 -0.5216
4 14 4 -1.5814 0.1825
4 14 5 0.9124 0.1995
4 14 6 1.6077 -0.1165
4 14 7 1.7314 0.1510
4 14 8 0.3244 -0.3217
5 -11 0 -0.5517 0.2116
5 -11 1 0.2731 -0.4330
5 -11 2 0.7277 -0.2497
5 -11 3 0.5189 -0.4416
5 -11 4 1.9128 -0.4673
5 -11 5 0.9573 0.4204
5 -11 6 -0.6645 0.3940
5 -10 0 1.7927 0.5383
5 -10 1 -1.0585 -0.0971
5 -10 2 -0.2923 -0.0201
5 -10 3 -0.2420 0.1163
5 -10 4 -0.5432 0.2189
5 -10 5 -1.0275 -0.2149
5 -10 6 1.5520 0.4957
5 -10 7 -0.0418 0.7707
5 -9 0 -0.4542 0.5438
5 -9 1 0.6499 0.0852
5 -9 2 -1.1530 -0.1627
5 -9 3 -0.9190 -0.1374
5 -9 4 1.4028 -0.1449
5 -9 5 0.7310 -0.0735
5 -9 6 -0.5786 -0.2326
5 -9 7 2.5417 0.1190
5 -9 8 -5.6354 0.3479
5 -8 0 0.2349 -0.1782
5 -8 1 1.9384 0.6390
5 -8 2 -0.2443 -0.0089
5 -8 3 -0.1370 0.0274
5 -8 4 -1.9525 -0.0939
5 -8 5 1.7187 0.0294
5 -8 6 -1.7638 -0.0038
5 -8 7 -1.5508 0.0900
5 -8 8 4.4138 0.0187
5 -8 9 -3.1249 0.1536
5 -8 10 0.4679 -0.0033
5 -8 11 0.9949 -0.9414
5 -7 0 -2.5705 -0.8528
5 -7 1 0.4565 0.2160
5 -7 2 1.9742 0.1625
5 -7 3 -0.4459 0.0070
5 -7 4 -0.0238 -0.0188
5 -7 5 -2.0375 -0.1501
5 -7 6 3.1431 -0.0893
5 -7 7 1.2165 0.0587
5 -7 8 -1.0301 0.1681
5 -7 9 -1.5865 0.1041
5 -7 10 -1.8667 0.2595
5 -7 11 0.3464 -0.5701
5 -6 0 1.5723 -0.5794
5 -6 1 -2.0442 -0.3511
5 -6 2 0.7652 0.3715
5 -6 3 0.8642 0.1427
5 -6 4 0.3037 0.1175
5 -6 5 0.1935 -0.0984
5 -6 6 -2.1222 -0.1827
5 -6 7 -0.2573 -0.1637
5 -6 8 1.3256 0.0640
5 -6 9 2.3226 0.0656
5 -6 10 -0.5437 0.2901
5 -6 11 -0.7091 0.2593
5 -6 12 -1.7396 -0.7547
5 -5 0 -2.0982 0.3281
5 -5 1 -0.2968 -0.7518
5 -5 2 -1.1864 -0.0877
5 -5 3 -0.3896 0.0642
5 -5 4 0.6639 0.2340
5 -5 5 0.0756 0.2170
5 -5 6 -0.8847 -0.0494
5 -5 7 -0.9838 -0.2129
5 -5 8 1.7690 -0.1674
5 -5 9 0.2184 -0.0765
5 -5 10 -1.3258 0.1394
5 -5 11 1.1616 0.4390
5 -5 12 1.2819 -0.2527
5 -4 0 2.8029 1.1700
5 -4 1 -0.2664 -0.3291
5 -4 2 1.4299 -0.3882
5 -4 3 1.3052 -0.1212
5 -4 4 -1.9419 -0.0068
5 -4 5 1.6815 0.2163
5 -4 6 0.9237 0.2285
5 -4 7 -1.0540 -0.0393
5 -4 8 -3.1545 -0.1171
5 -4 9 2.2184 -0.1547
5 -4 10 1.3645 -0.1923
5 -4 11 -2.7288 0.2536
5 -4 12 0.4566 0.4117
5 -4 13 1.8954 -0.2404
5 -3 0 -1.1267 0.7097
5 -3 1 -1.3564 0.7003
5 -3 2 -2.9567 -0.2827
5 -3 3 0.3598 -0.2054
5 -3 4 1.9939 -0.2223
5 -3 5 -1.8028 -0.0579
5 -3 6 2.0496 0.2181
5 -3 7 -0.4482 0.2406
5 -3 8 -0.0992 -0.0053
5 -3 9 -1.3004 -0.1603
5 -3 10 1.1408 -0.2447
5 -3 11 1.0105 -0.0399
5 -3 12 0.0543 0.3090
5 -3 13 0.2709 -0.0021
5 -2 0 3.9640 -0.8845
5 -2 1 2.9782 0.9120
5 -2 2 -0.2110 0.1760
5 -2 3 -1.7283 -0.0154
5 -2 4 -0.6152 -0.2384
5 -2 5 0.2138 -0.1072
5 -2 6 -0.8567 -0.0883
5 -2 7 2.6852 0.2045
5 -2 8 -0.7391 0.1819
5 -2 9 -0.8327 0.1944
5 -2 10 0.5490 -0.1840
5 -2 11 -0.7611 -0.2084
5 -2 12 -1.9673 0.1182
5 -2 13 0.5189 0.2539
5 -2 14 0.4214 -0.1471
5 -2 15 1.1852 -0.3811
5 -1 0 -5.0971 -1.2571
5 -1 1 0.7884 0.0565
5 -1 2 1.6645 0.4334
5 -1 3 0.1328 0.2647
5 -1 4 0.6233 -0.0478
5 -1 5 -0.3954 -0.2813
5 -1 6 -0.9532 -0.2702
5 -1 7 -0.0141 -0.0731
5 -1 8 0.8213 0.1441
5 -1 9 -0.5050 0.1406
5 -1 10 -1.3317 0.0475
5 -1 11 2.7324 -0.3115
5 -1 12 0.1478 -0.1879
5 -1 13 -0.8475 0.2008
5 -1 14 0.4993 0.1749
5 -1 15 -3.0480 0.1306
5 -1 16 2.2908 -0.2840
5 0 0 1.4501 -0.3963
5 0 1 -1.5270 -0.8981
5 0 2 0.8019 0.1846
5 0 3 -0.5074 0.2246
5 0 4 -2.2218 0.4082
5 0 5 1.3463 0.0441
5 0 6 0.8525 -0.0524
5 0 7 -0.9014 -0.2962
5 0 8 0.3869 -0.0471
5 0 9 0.4407 0.1278
5 0 10 0.8933 0.2844
5 0 11 -2.0384 -0.0198
5 0 12 2.6743 -0.1323
5 0 13 -1.0463 -0.2580
5 0 14 0.1671 0.0804
5 0 15 3.2868 0.0818
5 0 16 -5.0350 0.2131
5 1 0 -1.0777 1.1320
5 1 1 0.2999 -0.8195
5 1 2 -1.6421 -0.2876
5 1 3 3.2415 -0.2290
5 1 4 3.1616 0.3479
5 1 5 -3.5774 0.1609
5 1 6 -1.2878 0.1844
5 1 7 1.1356 -0.1137
5 1 8 0.6760 -0.2119
5 1 9 -1.1432 -0.0663
5 1 10 -1.2246 0.2150
5 1 11 0.1022 0.2139
5 1 12 -2.9128 -0.0559
5 1 13 1.8009 -0.0617
5 1 14 -0.2563 -0.2116
5 1 15 -0.4288 -0.0510
5 1 16 4.0696 0.0714
5 2 0 -0.6219 1.2795
5 2 1 0.3482 0.2631
5 2 2 1.2800 -0.4120
5 2 3 -5.7531 -0.3286
5 2 4 -0.7356 -0.2201
5 2 5 5.4074 0.2114
5 2 6 -0.4691 -0.0333
5 2 7 -1.3813 0.2226
5 2 8 -0.3525 -0.1284
5 2 9 2.1708 -0.2603
5 2 10 0.7342 -0.1178
5 2 11 0.5294 0.1379
5 2 12 1.9752 0.1646
5 2 13 -1.0597 0.1729
5 2 14 -1.3827 -0.0841
5 2 15 0.1067 -0.1787
5 2 16 -2.4780 -0.1476
5 3 0 1.6655 -0.1915
5 3 1 -3.2977 0.9682
5 3 2 2.1376 0.0609
5 3 3 5.1482 -0.0412
5 3 4 -2.9720 -0.4325
5 3 5 -3.2244 0.1387
5 3 6 1.9061 0.0825
5 3 7 -0.1485 0.1011
5 3 8 -0.2566 0.1123
5 3 9 -1.6686 0.0169
5 3 10 1.0451 -0.2796
5 3 11 -0.4977 -0.0002
5 3 12 -2.5260 -0.0337
5 3 13 1.2185 0.0977
5 3 14 1.2917 0.2011
5 3 15 0.2413 0.0584
5 4 0 2.8590 -1.1685
5 4 1 1.0421 0.5611
5 4 2 -5.1390 0.2610
5 4 3 -1.2152 0.3082
5 4 4 3.3725 -0.2502
5 4 5 -0.0024 -0.2085
5 4 6 -1.2692 0.0654
5 4 7 1.0106 0.0256
5 4 8 0.9721 0.0830
5 4 9 -0.8489 0.0589
5 4 10 -2.2791 0.0617
5 4 11 2.9405 -0.1576
5 4 12 1.7495 -0.0908
5 4 13 -2.7924 -0.0776
5 4 14 0.0002 0.0785
5 4 15 -2.6592 0.1543
5 5 0 -1.4556 -1.0359
5 5 1 2.2294 -0.4675
5 5 2 2.6024 0.2991
5 5 3 0.5030 0.2045
5 5 4 -1.4074 0.2036
5 5 5 1.4393 -0.3517
5 5 6 0.0684 -0.0684
5 5 7 -1.8541 -0.0195
5 5 8 -0.3687 0.1450
5 5 9 3.3115 0.0899
5 5 10 -0.9650 0.0486
5 5 11 -2.7422 -0.0349
5 5 12 1.7756 0.0088
5 5 13 3.0612 -0.0943
5 5 14 -1.2164 -0.0593
5 5 15 1.7527 -0.0154
5 6 0 -1.3487 0.4451
5 6 1 0.9835 -1.0181
5 6 2 -2.4822 0.0156
5 6 3 -3.0447 -0.0046
5 6 4 1.3990 0.3653
5 6 5 -1.3394 -0.1144
5 6 6 1.0409 -0.0385
5 6 7 1.4994 -0.1930
5 6 8 -0.8254 -0.0350
5 6 9 -0.8104 -0.0551
5 6 10 1.7491 0.1323
5 6 11 -1.8878 0.0521
5 6 12 -1.2804 0.0306
5 6 13 -2.5264 -0.1175
5 6 14 3.0606 -0.0119
5 6 15 -0.6862 -0.1089
5 7 0 -1.1086 1.3633
5 7 1 -1.3180 -0.2233
5 7 2 4.1972 -0.3259
5 7 3 2.0839 -0.0499
5 7 4 -2.1017 0.3074
5 7 5 1.9573 0.2645
5 7 6 -0.9317 -0.1032
5 7 7 -1.2346 -0.0171
5 7 8 -0.9090 -0.1849
5 7 9 -0.6146 0.0844
5 7 10 2.1403 -0.0241
5 7 11 1.4681 0.1772
5 7 12 -1.1013 0.0228
5 7 13 2.8749 0.0609
5 7 14 -3.1188 -0.0283
5 7 15 2.0735 -0.0988
5 7 16 -1.9063 -0.0793
5 8 0 0.3465 0.5054
5 8 1 1.0672 0.4230
5 8 2 -1.7718 -0.4206
5 8 3 -0.5873 -0.2532
5 8 4 -0.1343 -0.1964
5 8 5 -2.0346 0.2342
5 8 6 1.1910 0.0584
5 8 7 2.5953 0.1955
5 8 8 1.4101 -0.1172
5 8 9 -1.2831 -0.1520
5 8 10 -1.1087 -0.1751
5 8 11 0.7566 -0.0989
5 8 12 0.6657 0.0463
5 8 13 -2.6278 0.2198
5 8 14 0.3475 -0.2425
5 8 15 -0.0749 0.2742
5 9 0 -1.9129 -0.4155
5 9 1 -2.5887 0.9737
5 9 2 0.3788 -0.1013
5 9 3 1.3922 -0.1923
5 9 4 1.5059 -0.3326
5 9 5 -0.1669 0.1043
5 9 6 -1.1859 0.0432
5 9 7 -3.1776 0.1400
5 9 8 0.5411 0.2636
5 9 9 0.0240 0.0032
5 9 10 -2.5289 -0.0588
5 9 11 1.3582 0.0078
5 9 12 -1.4608 0.0182
5 9 13 2.7006 -0.2119
5 10 0 3.9958 -1.1565
5 10 1 0.6689 0.2884
5 10 2 0.9947 0.7461
5 10 3 -1.1327 0.1306
5 10 4 -0.7738 -0.1332
5 10 5 1.5655 -0.2558
5 10 6 1.1253 -0.1714
5 10 7 1.7789 -0.1895
5 10 8 -0.9508 -0.0343
5 10 9 3.5599 0.2190
5 10 10 2.3547 0.1250
5 10 11 -3.2009 -0.1566
5 10 12 3.0575 -0.0590
5 11 0 -1.2101 -0.3474
5 11 1 -2.3896 -0.6574
5 11 2 -2.6409 0.1283
5 11 3 0.7374 0.2335
5 11 4 0.7705 0.1186
5 11 5 -2.8436 -0.0257
5 11 6 -0.3392 0.1227
5 11 7 0.1630 -0.1932
5 11 8 -2.4554 0.1244
5 11 9 -3.3305 -0.0661
5 11 10 0.0706 0.0789
5 11 11 2.4804 -0.1732
5 12 0 3.0423 0.1286
5 12 1 4.1188 -0.8689
5 12 2 1.7989 -0.1524
5 12 3 -0.4343 0.0996
5 12 4 -0.7162 0.3186
5 12 5 2.8199 0.1429
5 12 6 -1.3883 0.2138
5 12 7 2.1412 0.0778
5 12 8 3.8393 -0.4423
5 12 9 -1.9178 -0.3198
5 12 10 -0.0644 0.3571
5 12 11 -1.6187 0.3068
5 13 0 -4.0264 1.4457
5 13 1 -1.5950 0.4304
5 13 2 -2.7253 -0.2743
5 13 3 1.0495 -0.4783
5 13 4 1.1486 -0.3757
5 13 5 -0.9747 -0.2570
5 13 6 -0.7565 -0.0939
5 13 7 -3.6628 0.1690
5 13 8 0.7045 0.6743
6 -10 0 2.6407 0.7147
6 -10 1 -1.7626 0.1272
6 -10 2 -0.1443 -0.0198
6 -10 3 -0.8372 -0.0718
6 -10 4 1.8427 -0.0981
6 -10 5 -1.1163 -0.3998
6 -10 6 -0.0393 0.7833
6 -9 0 1.0736 0.3573
6 -9 1 1.1895 0.2542
6 -9 2 0.4307 -0.0851
6 -9 3 -0.1423 -0.0981
6 -9 4 -1.4294 0.0229
6 -9 5 1.0956 -0.0744
6 -9 6 0.3166 -0.3803
6 -9 7 -0.9239 0.7219
6 -8 0 -2.7087 -0.3272
6 -8 1 0.1720 0.3937
6 -8 2 -2.7720 -0.0277
6 -8 3 2.0064 0.0046
6 -8 4 1.4586 -0.1303
6 -8 5 0.5910 0.0716
6 -8 6 -1.9113 -0.1912
6 -8 7 2.3033 -0.1965
6 -7 0 2.4769 -0.5553
6 -7 1 1.8490 0.1648
6 -7 2 0.9200 0.3122
6 -7 3 -4.0744 0.0472
6 -7 4 -1.6934 0.0146
6 -7 5 -0.2959 -0.1027
6 -7 6 2.9077 -0.0400
6 -7 7 -1.5349 -0.1491
6 -7 8 0.0761 0.1972
6 -7 9 -0.8438 0.1522
6 -7 10 -1.7845 0.1547
6 -7 11 3.1629 -0.8958
6 -6 0 -3.1410 -0.4894
6 -6 1 0.3322 -0.3578
6 -6 2 3.2959 0.1201
6 -6 3 1.8556 0.1225
6 -6 4 0.3425 0.1432
6 -6 5 -1.1875 0.0292
6 -6 6 -1.6087 -0.0043
6 -6 7 1.0074 -0.1700
6 -6 8 0.6840 -0.1244
6 -6 9 -0.4642 0.1603
6 -6 10 -0.7506 0.3947
6 -6 11 -0.1713 0.2904
6 -5 0 -0.5320 0.2967
6 -5 1 -2.7268 -0.5807
6 -5 2 -2.0854 -0.0476
6 -5 3 1.3591 -0.0715
6 -5 4 0.7267 0.0521
6 -5 5 0.2076 0.1341
6 -5 6 -1.4562 0.0741
6 -5 7 0.2617 -0.0821
6 -5 8 2.4306 -0.2508
6 -5 9 1.4944 -0.0306
6 -5 10 -2.6826 0.1911
6 -5 11 -1.3086 0.4563
6 -5 12 0.4120 -0.1521
6 -4 0 1.9852 1.0328
6 -4 1 -0.3598 -0.1787
6 -4 2 1.5013 -0.1984
6 -4 3 -1.6288 0.0148
6 -4 4 -0.3881 0.0171
6 -4 5 2.0911 0.0115
6 -4 6 0.3696 0.0384
6 -4 7 -3.1752 0.1118
6 -4 8 -1.9874 -0.0779
6 -4 9 2.2875 -0.3162
6 -4 10 2.5126 -0.1446
6 -4 11 -0.8719 0.3352
6 -4 12 -0.9068 0.5345
6 -3 0 -0.0629 0.3030
6 -3 1 0.3466 0.5124
6 -3 2 -2.6203 -0.3179
6 -3 3 1.3821 -0.1033
6 -3 4 -0.3491 -0.2043
6 -3 5 -0.8306 0.1492
6 -3 6 2.7856 0.1804
6 -3 7 -0.1095 0.1251
6 -3 8 -0.7545 -0.0045
6 -3 9 -1.3995 -0.1472
6 -3 10 1.2596 -0.2813
6 -3 11 1.6589 -0.1176
6 -3 12 -0.0281 0.1420
6 -3 13 -1.8250 -0.0958
6 -2 0 2.6976 -0.6070
6 -2 1 -0.1720 0.7394
6 -2 2 0.9766 0.1066
6 -2 3 -0.4986 -0.0198
6 -2 4 -0.4471 -0.1498
6 -2 5 -0.9066 -0.2422
6 -2 6 -1.1619 0.0108
6 -2 7 2.7572 0.1755
6 -2 8 -1.2735 0.2643
6 -2 9 0.0930 0.0821
6 -2 10 -3.2421 -0.1563
6 -2 11 0.3526 -0.1596
6 -2 12 1.7717 0.1249
6 -2 13 1.9193 0.1892
6 -1 0 -3.2498 -1.0079
6 -1 1 3.3303 0.0089
6 -1 2 -0.8989 0.3842
6 -1 3 0.4002 0.1476
6 -1 4 0.9989 0.0399
6 -1 5 -0.4859 -0.2731
6 -1 6 1.0389 -0.2800
6 -1 7 -0.8083 0.0348
6 -1 8 0.1462 0.2039
6 -1 9 0.2865 0.2223
6 -1 10 2.5496 -0.0262
6 -1 11 -3.7097 -0.2354
6 -1 12 -0.4149 -0.0356
6 -1 13 -0.2259 0.0435
6 -1 14 2.1511 -0.2023
6 0 0 0.6817 -0.1915
6 0 1 -3.0649 -0.7966
6 0 2 1.3082 0.2145
6 0 3 -1.8667 0.1334
6 0 4 0.3357 0.2793
6 0 5 0.5383 0.1174
6 0 6 -2.1616 -0.1544
6 0 7 2.3831 -0.3801
6 0 8 1.0157 -0.1034
6 0 9 -1.2040 0.1637
6 0 10 1.4760 0.2237
6 0 11 2.4780 -0.0046
6 0 12 -1.5993 -0.1599
6 0 13 -1.2026 0.0562
6 0 14 -1.5803 0.0837
6 0 15 0.9957 -0.1466
6 1 0 -0.8262 1.0136
6 1 1 2.1763 -0.6187
6 1 2 -0.6811 -0.2711
6 1 3 2.4322 -0.0357
6 1 4 -1.0810 0.2846
6 1 5 -0.7661 0.1906
6 1 6 -0.1172 0.1071
6 1 7 -2.6500 -0.1930
6 1 8 0.5149 -0.1716
6 1 9 -1.1338 -0.0362
6 1 10 -1.7825 0.1716
6 1 11 0.0285 0.0284
6 1 12 1.5091 -0.0544
6 1 13 3.1559 -0.0712
6 1 14 0.4117 -0.0669
6 1 15 0.6904 -0.1353
6 2 0 -0.9549 0.9481
6 2 1 -0.2964 0.2029
6 2 2 0.5957 -0.5203
6 2 3 -2.5572 -0.2518
6 2 4 1.9626 -0.1199
6 2 5 2.3489 0.2113
6 2 6 0.1183 0.2922
6 2 7 0.8008 0.2191
6 2 8 0.1053 -0.2002
6 2 9 1.4444 -0.1328
6 2 10 -0.3459 -0.0383
6 2 11 0.3345 0.1427
6 2 12 -2.9005 0.0658
6 2 13 -2.5385 0.0612
6 2 14 -0.0383 -0.0159
6 2 15 -1.1878 -0.1464
6 3 0 -0.3502 -0.2297
6 3 1 -2.1837 1.0684
6 3 2 2.1384 0.0152
6 3 3 0.3055 -0.2644
6 3 4 -2.2050 -0.4266
6 3 5 -1.2009 0.0160
6 3 6 1.1839 -0.0297
6 3 7 -0.9693 0.2622
6 3 8 0.4223 -0.0708
6 3 9 -0.0991 -0.1155
6 3 10 0.9385 -0.0491
6 3 11 -0.3799 0.0903
6 3 12 2.0149 -0.0034
6 3 13 0.5372 0.0319
6 3 14 0.6582 0.1268
6 3 15 0.4821 -0.0099
6 4 0 4.3575 -1.1529
6 4 1 -2.9749 0.4676
6 4 2 -1.3489 0.4638
6 4 3 2.3704 0.2206
6 4 4 -0.9451 -0.1941
6 4 5 -0.0743 -0.2973
6 4 6 -0.4063 -0.1507
6 4 7 0.2416 0.0450
6 4 8 -1.0607 0.3386
6 4 9 -0.7267 -0.0950
6 4 10 -0.7409 -0.1388
6 4 11 2.8078 -0.1218
6 4 12 -1.1700 -0.0539
6 4 13 -0.9289 0.0702
6 4 14 0.5323 0.1047
6 4 15 -1.0028 0.2613
6 5 0 0.7823 -0.7977
6 5 1 4.4229 -0.6269
6 5 2 -3.0327 0.4198
6 5 3 1.2424 0.3815
6 5 4 2.1266 0.2354
6 5 5 -0.9017 -0.0450
6 5 6 -0.1949 -0.0121
6 5 7 0.7629 -0.1160
6 5 8 0.5264 0.1555
6 5 9 1.2220 0.1665
6 5 10 -2.8497 -0.0051
6 5 11 -2.1180 -0.0842
6 5 12 2.7763 0.0492
6 5 13 -0.6805 -0.2095
6 5 14 -2.2037 0.0401
6 6 0 -3.6297 0.4311
6 6 1 1.4209 -0.9210
6 6 2 -0.7048 -0.2154
6 6 3 -3.4857 -0.1573
6 6 4 1.3126 0.2449
6 6 5 0.6685 -0.0205
6 6 6 0.0490 0.0004
6 6 7 -0.1461 -0.3245
6 6 8 0.4090 -0.1019
6 6 9 0.7410 0.0597
6 6 10 2.4836 0.1829
6 6 11 -1.8572 0.0594
6 6 12 0.8696 -0.0546
6 6 13 0.9640 -0.1597
6 6 14 2.6565 -0.2587
6 7 0 0.2041 1.1778
6 7 1 -0.5142 -0.2105
6 7 2 3.6199 -0.2104
6 7 3 -0.2952 -0.0787
6 7 4 -2.0683 0.0348
6 7 5 1.3349 0.0730
6 7 6 -1.1444 0.1120
6 7 7 -2.4357 0.1199
6 7 8 -1.0510 -0.1288
6 7 9 0.2882 0.0272
6 7 10 1.2838 -0.0280
6 7 11 -1.2356 0.0998
6 7 12 -2.8402 0.0349
6 7 13 2.2025 0.3826
6 7 14 -3.4966 -0.0013
6 8 0 -0.7206 0.5383
6 8 1 -0.1488 0.5061
6 8 2 -0.3388 -0.2176
6 8 3 -0.0281 0.1595
6 8 4 0.2091 -0.1714
6 8 5 -0.9735 0.0391
6 8 6 3.6168 -0.0475
6 8 7 3.7667 0.1299
6 8 8 -1.8873 -0.1973
6 8 9 -2.4439 -0.0555
6 8 10 1.1715 -0.1476
6 8 11 3.0723 0.0533
6 8 12 -0.5325 0.0580
6 8 13 -2.3827 -0.1468
6 8 14 2.8473 -0.0132
6 9 0 -1.3390 -0.5814
6 9 1 -0.8310 0.4871
6 9 2 0.7799 -0.2751
6 9 3 2.3377 -0.0848
6 9 4 -1.5059 0.1051
6 9 5 -1.1842 0.1389
6 9 6 -3.1565 -0.0592
6 9 7 -1.3963 0.1702
6 9 8 4.7530 0.1000
6 9 9 -0.4489 -0.1208
6 9 10 -3.3887 -0.0075
6 9 11 1.2335 -0.0521
6 9 12 0.4347 -0.1108
6 9 13 2.3126 -0.0635
6 9 14 -1.3474 0.3945
6 10 0 2.3246 -0.3516
6 10 1 -2.3487 0.3138
6 10 2 -0.6100 0.0630
6 10 3 -1.4297 -0.2012
6 10 4 3.0257 -0.1445
6 10 5 1.3477 -0.1162
6 10 6 -0.5247 0.0134
6 10 7 -1.3389 -0.0743
6 10 8 -3.4619 0.1547
6 10 9 3.5742 0.1270
6 10 10 0.9280 0.0572
6 10 11 -3.7961 -0.1550
6 11 0 0.3024 -0.4343
6 11 1 1.2988 0.2161
6 11 2 -0.3882 0.4822
6 11 3 1.4082 -0.0993
6 11 4 -2.1149 -0.0575
6 11 5 -0.8456 -0.1739
6 11 6 4.1557 -0.0172
6 11 7 1.8715 -0.0476
6 11 8 0.3203 0.3703
6 11 9 -2.3584 -0.0463
6 11 10 1.6075 -0.1275
6 11 11 4.3572 -0.1300
6 12 1 -0.6936 -0.7349
6 12 2 -1.5421 0.5201
6 12 3 -1.9281 0.3969
6 12 4 1.0086 0.4080
6 12 5 0.8678 0.1445
6 12 6 -5.7870 -0.2092
6 12 7 -0.1809 -0.5171
6 12 8 0.0871 -0.8723
6 12 9 -1.3784 0.2632
6 13 4 -0.9711 -0.2188
6 13 5 -0.6585 0.3254
6 13 6 4.3260 0.6179
7 -9 1 1.0547 0.3110
7 -9 2 -1.1507 -0.1315
7 -9 3 -3.3778 -0.0297
7 -9 4 0.2051 -0.3052
7 -9 5 2.4082 -0.2771
7 -9 6 -1.0497 -0.1836
7 -8 0 -3.7551 -0.2452
7 -8 1 1.7699 0.3875
7 -8 2 0.7580 0.2612
7 -8 3 4.9412 0.1249
7 -8 4 -2.1642 0.2104
7 -8 5 -0.8624 0.0825
7 -8 6 -0.4177 -0.2984
7 -8 7 1.4309 0.0950
7 -8 8 -2.4444 0.5714
7 -7 0 1.9403 -0.4532
7 -7 1 -2.3200 -0.0179
7 -7 2 -0.9743 -0.0228
7 -7 3 -4.1008 -0.0855
7 -7 4 2.0309 -0.1773
7 -7 5 0.8919 -0.0709
7 -7 6 2.9347 -0.1434
7 -7 7 -0.5101 -0.5142
7 -7 8 1.6143 0.4239
7 -7 9 -3.3566 0.4070
7 -6 0 -0.9631 -0.4078
7 -6 1 3.1675 -0.1989
7 -6 2 0.2845 0.2579
7 -6 3 1.4584 0.1709
7 -6 4 -1.4060 0.1633
7 -6 5 -2.1794 0.1245
7 -6 6 -2.2981 0.1762
7 -6 7 1.4507 -0.1525
7 -6 8 1.2472 -0.5252
7 -6 9 0.9669 0.2713
7 -6 10 -1.7523 0.4777
7 -5 0 -0.5898 0.3858
7 -5 1 -2.2074 -0.4649
7 -5 2 1.3985 -0.1603
7 -5 3 0.6057 0.0120
7 -5 4 0.2250 0.1394
7 -5 5 0.7271 -0.0363
7 -5 6 -0.5522 0.0329
7 -5 7 -0.9654 0.0157
7 -5 8 0.8197 -0.0772
7 -5 9 1.7777 -0.1395
7 -5 10 -1.9482 -0.0361
7 -4 0 0.2799 0.6181
7 -4 1 0.4250 -0.0716
7 -4 2 -0.3506 -0.2245
7 -4 3 -1.0323 -0.2323
7 -4 4 1.9842 -0.0439
7 -4 5 0.6524 0.1362
7 -4 6 0.0696 0.0660
7 -4 7 -1.8379 0.1453
7 -4 8 -1.8486 -0.1180
7 -4 9 -0.2707 -0.1098
7 -4 10 3.2909 0.2261
7 -4 11 -1.0952 0.1508
7 -3 0 -0.0565 0.2210
7 -3 1 -1.5384 0.5318
7 -3 2 -1.0467 0.0022
7 -3 3 0.7686 -0.0450
7 -3 4 -2.0032 -0.2232
7 -3 5 1.0640 0.1114
7 -3 6 1.5616 0.0781
7 -3 7 1.0936 0.0426
7 -3 8 1.2264 -0.0971
7 -3 9 -0.6030 -0.2338
7 -3 10 -0.5101 -0.1343
7 -3 11 2.1163 0.3949
7 -2 0 1.7294 -0.6262
7 -2 1 0.8237 0.3638
7 -2 2 0.7598 0.0935
7 -2 3 -0.5931 0.1084
7 -2 4 -0.3363 -0.1925
7 -2 5 -1.4402 -0.2179
7 -2 6 -1.0138 0.0452
7 -2 7 0.1721 0.1996
7 -2 8 -0.7858 0.2432
7 -2 9 0.8187 -0.1247
7 -2 10 -3.8329 -0.3395
7 -2 11 3.5085 -0.2142
7 -2 12 2.6638 0.7183
7 -1 0 -0.8716 -0.6707
7 -1 1 1.7250 -0.1135
7 -1 2 -1.6139 0.2624
7 -1 3 1.3704 0.1959
7 -1 4 0.5359 0.0186
7 -1 5 -0.1414 -0.2587
7 -1 6 1.7106 -0.1036
7 -1 7 -1.9856 0.0971
7 -1 8 -1.1586 0.2683
7 -1 9 2.4347 0.1417
7 -1 10 1.9792 -0.1065
7 -1 11 -8.8356 -0.2589
7 -1 12 5.5083 -0.1877
7 0 0 -0.2908 0.0836
7 0 1 -1.3168 -0.6347
7 0 2 1.8820 0.0647
7 0 3 -2.1294 0.1099
7 0 4 1.9491 0.3968
7 0 5 -0.3348 -0.0293
7 0 6 -0.9488 -0.2645
7 0 7 5.1975 -0.3297
7 0 8 -1.5726 0.0655
7 0 9 -2.9885 0.3522
7 0 10 3.7631 0.2165
7 0 11 1.2550 -0.0616
7 0 12 -9.8616 -0.1350
7 0 13 1.1743 0.1974
7 1 0 -0.3530 0.8373
7 1 1 0.5920 -0.3892
7 1 2 -0.9594 -0.3350
7 1 3 1.3727 -0.1124
7 1 4 -3.2807 0.2331
7 1 5 1.0834 0.1930
7 1 6 -1.9419 -0.0860
7 1 7 -2.9652 -0.2324
7 1 8 3.8448 -0.2086
7 1 9 -1.1999 0.0229
7 1 10 0.0884 0.1084
7 1 11 4.6682 0.0659
7 1 12 4.6900 -0.0639
7 1 13 -1.1711 0.0107
7 1 14 -0.5946 0.2610
7 2 0 -0.7996 0.6741
7 2 1 0.9464 0.3068
7 2 2 -0.2036 -0.2564
7 2 3 -0.8705 -0.2248
7 2 4 2.5933 -0.1258
7 2 5 -0.6833 0.4185
7 2 6 1.4801 0.3869
7 2 7 0.2400 -0.0003
7 2 8 -1.5302 -0.3383
7 2 9 -0.6961 -0.1715
7 2 10 -3.6350 0.0112
7 2 11 -0.6635 0.1299
7 2 12 -2.9861 0.0250
7 2 13 1.9068 -0.0632
7 2 14 1.6280 0.1272
7 3 0 -0.6783 -0.3378
7 3 1 -1.1972 0.7873
7 3 2 3.0860 -0.0838
7 3 3 0.0765 -0.1460
7 3 4 -1.1322 -0.3545
7 3 5 0.7239 -0.0346
7 3 6 -0.3734 0.1449
7 3 7 -1.1308 0.3895
7 3 8 2.3693 -0.0536
7 3 9 2.1718 -0.0200
7 3 10 0.1118 0.0029
7 3 11 -1.4470 -0.0301
7 3 12 1.5372 0.0255
7 3 13 -2.9269 -0.1676
7 3 14 1.7890 -0.0455
7 4 0 2.5176 -0.8764
7 4 1 -3.7141 0.4247
7 4 2 -2.0192 0.2966
7 4 3 0.3230 0.0171
7 4 4 -0.2206 -0.2526
7 4 5 -0.0805 -0.4931
7 4 6 1.0600 -0.1412
7 4 7 0.1056 0.1901
7 4 8 -1.9089 0.3222
7 4 9 1.0605 -0.2128
7 4 10 1.4176 -0.1100
7 4 11 2.8980 -0.0348
7 4 12 -1.1556 0.0584
7 4 13 -0.3078 0.3516
7 4 14 -2.1875 -0.1496
7 5 0 0.4513 -0.7762
7 5 1 2.8585 -0.4402
7 5 2 -0.0925 0.6232
7 5 3 1.9175 0.3751
7 5 4 -1.1704 0.2650
7 5 5 -1.1573 0.0009
7 5 6 -0.7124 -0.2518
7 5 7 0.7285 -0.2132
7 5 8 -2.6275 0.1348
7 5 9 -1.3505 0.1219
7 5 10 -2.3074 0.0592
7 5 11 -1.4655 -0.1280
7 5 12 3.6453 -0.0035
7 5 13 -0.3849 -0.2027
7 6 0 1.3007 0.4734
7 6 1 0.7929 -0.8991
7 6 2 -4.5570 -0.2029
7 6 3 -0.2022 -0.0414
7 6 4 3.2867 0.3885
7 6 5 0.8403 0.1468
7 6 6 -0.0066 -0.0182
7 6 7 1.5877 -0.2270
7 6 8 4.2371 -0.0231
7 6 9 -0.0815 0.0921
7 6 10 1.0497 0.0579
7 6 11 -2.2086 0.1293
7 6 12 -0.2942 -0.3700
7 6 13 0.7346 -0.1037
7 7 0 -2.9895 1.0129
7 7 1 2.5662 -0.2718
7 7 2 4.9010 -0.3698
7 7 3 -3.5192 -0.2220
7 7 4 -1.3452 -0.1569
7 7 5 -0.1653 0.1760
7 7 6 -1.1734 0.2225
7 7 7 -3.5233 -0.0763
7 7 8 -1.4993 -0.0791
7 7 9 1.4831 -0.0348
7 7 10 1.5798 0.0448
7 7 11 -0.3624 0.0629
7 7 12 -1.3961 0.3844
7 7 13 2.0471 0.0698
7 8 0 -1.0063 0.1873
7 8 1 -1.7783 0.6341
7 8 2 -1.1307 -0.0372
7 8 3 0.4200 0.0309
7 8 4 -0.2054 -0.3209
7 8 5 0.8175 -0.0023
7 8 6 2.6608 0.0736
7 8 7 2.0249 0.2354
7 8 8 -2.0299 -0.1505
7 8 9 -1.3619 -0.0605
7 8 10 -0.2235 -0.3039
7 8 11 1.7027 0.2929
7 8 12 -1.0383 -0.1222
7 8 13 -0.9978 -0.0240
7 9 0 0.0755 -0.2380
7 9 1 -0.5464 0.4123
7 9 2 2.7510 0.2277
7 9 3 2.3831 0.1983
7 9 4 -1.7417 -0.0710
7 9 5 -0.5120 -0.1381
7 9 6 -1.2648 -0.1173
7 9 7 0.5847 0.0092
7 9 8 2.6502 -0.0370
7 9 9 -1.4118 0.3057
7 9 10 -0.3862 0.0649
7 9 11 0.7558 -0.4926
7 9 12 -0.1866 0.1241
7 10 1 -2.1767 -0.7133
7 10 2 -2.3463 -0.5735
7 10 3 -1.0785 0.5306
7 10 4 2.5055 0.3236
7 10 5 -2.0747 -0.2014
7 10 6 -1.6738 -0.0217
7 10 7 -0.5930 0.0371
7 10 8 -0.4203 0.0848
7 10 9 3.3585 -0.3881
7 11 4 -0.9879 0.2350
7 11 5 4.1559 0.3190
7 11 6 2.9170 0.2220
8 -8 5 1.5138 -0.1505
8 -7 0 0.1591 -0.7712
8 -7 1 -1.8195 -0.0291
8 -7 2 1.1631 0.0328
8 -7 3 -0.3755 0.1876
8 -7 4 3.1225 -0.2847
8 -7 5 -1.7993 -0.0965
8 -6 0 -0.8737 -0.3304
8 -6 1 0.5027 -0.2569
8 -6 2 -1.2644 0.0101
8 -6 3 2.6550 0.0960
8 -6 4 -1.5021 0.5760
8 -6 5 0.5474 0.0492
8 -6 6 -1.5832 -0.0776
8 -6 7 2.5004 -0.3365
8 -6 8 1.6107 -0.7424
8 -5 0 0.7037 0.4823
8 -5 1 -1.0773 -0.2634
8 -5 2 -0.5573 -0.1503
8 -5 3 -3.1345 -0.1570
8 -5 4 0.6491 -0.1249
8 -5 5 -0.1060 0.0828
8 -5 6 0.8210 0.1559
8 -5 7 -2.0650 0.1237
8 -5 8 1.4556 0.1964
8 -5 9 2.4554 -0.2577
8 -4 0 1.8353 0.4367
8 -4 1 2.3469 0.0718
8 -4 2 1.3710 -0.0977
8 -4 3 1.5957 -0.1842
8 -4 4 0.0621 0.0705
8 -4 5 -1.1850 0.2069
8 -4 6 -0.6644 -0.0166
8 -4 7 -0.6848 -0.1123
8 -4 8 -3.8340 -0.4222
8 -4 9 -0.4990 0.0353
8 -4 10 4.5073 0.1447
8 -3 0 -3.2109 -0.0210
8 -3 1 -2.0837 0.3812
8 -3 2 -0.3166 0.0469
8 -3 3 0.5964 -0.1252
8 -3 4 0.1063 -0.2245
8 -3 5 1.7206 0.0425
8 -3 6 1.0124 0.2391
8 -3 7 2.5239 0.2304
8 -3 8 2.6884 -0.0059
8 -3 9 -3.0295 -0.2597
8 -3 10 -3.5841 0.2541
8 -2 0 1.3630 -0.5212
8 -2 1 0.5249 0.2999
8 -2 2 -1.4357 0.1664
8 -2 3 -0.8418 0.1369
8 -2 4 0.8332 -0.3536
8 -2 5 -1.6078 -0.1995
8 -2 6 -2.0994 -0.0646
8 -2 7 -1.5810 0.2567
8 -2 8 0.7107 0.2145
8 -2 9 3.1257 -0.2807
8 -2 10 -2.4481 -0.5708
8 -1 0 0.0007 -0.5847
8 -1 1 0.5928 -0.2632
8 -1 2 0.4886 0.3007
8 -1 3 -1.2753 0.2627
8 -1 4 -0.7975 0.0898
8 -1 5 2.3710 -0.1707
8 -1 6 2.1761 -0.1194
8 -1 7 -1.7797 -0.1123
8 -1 8 -1.5181 0.2373
8 -1 9 3.0083 0.1718
8 -1 10 2.2584 -0.1104
8 0 0 1.1767 0.2724
8 0 1 0.1399 -0.6110
8 0 2 1.5534 -0.1078
8 0 3 0.9940 0.1880
8 0 4 -0.2112 0.3560
8 0 5 -2.2620 -0.1493
8 0 6 -0.4375 -0.1006
8 0 7 2.7929 -0.1663
8 0 8 -3.6398 0.1335
8 0 9 -3.7241 0.2951
8 0 10 2.4368 0.1631
8 0 11 -0.8731 -0.2341
8 1 0 -1.7608 0.7870
8 1 1 -0.3691 -0.2776
8 1 2 -0.7979 -0.3520
8 1 3 0.0878 -0.1272
8 1 4 0.0450 0.2120
8 1 5 1.8921 0.1825
8 1 6 -0.6680 -0.0567
8 1 7 0.9473 -0.1839
8 1 8 4.4707 -0.1632
8 1 9 -1.2182 0.1021
8 1 10 1.7757 0.1702
8 1 11 3.1910 0.4342
8 2 0 -0.7124 0.5589
8 2 1 0.0656 0.4338
8 2 2 -0.5723 -0.2826
8 2 3 0.3593 -0.2809
8 2 4 -0.9997 -0.0423
8 2 5 -1.2260 0.2934
8 2 6 0.3489 0.1019
8 2 7 -1.6951 0.0017
8 2 8 -0.4171 -0.4119
8 2 9 -1.2337 -0.1521
8 2 10 -3.4217 0.0097
8 2 11 3.2468 0.0464
8 2 12 0.3840 0.2737
8 2 13 2.9179 -0.1829
8 3 0 2.0631 -0.3770
8 3 1 0.5096 0.7129
8 3 2 1.0729 0.0867
8 3 3 -0.8312 -0.1288
8 3 4 1.3300 -0.2634
8 3 5 -0.4146 0.0742
8 3 6 -0.9205 0.1633
8 3 7 -1.0662 0.2132
8 3 8 2.1253 0.0961
8 3 9 2.7334 -0.1058
8 3 10 -2.4961 -0.2267
8 3 11 -3.6415 0.0128
8 3 12 2.1689 0.1236
8 3 13 -1.1799 -0.0728
8 4 0 -2.4518 -0.9184
8 4 1 -2.2536 0.1783
8 4 2 0.8562 0.2553
8 4 3 1.7608 0.1020
8 4 4 0.5931 -0.2825
8 4 5 0.5841 -0.2525
8 4 6 2.4428 0.0615
8 4 7 0.1535 0.1947
8 4 8 -3.1006 0.1828
8 4 9 1.4607 0.0600
8 4 10 3.0567 -0.0191
8 4 11 1.0110 -0.4705
8 4 12 -4.1490 0.1927
8 5 0 2.6519 -0.4672
8 5 1 0.4372 -0.3640
8 5 2 -1.7539 0.3264
8 5 3 -2.9491 0.1604
8 5 4 -1.8412 0.1662
8 5 5 0.6019 -0.2563
8 5 6 -2.5862 -0.1987
8 5 7 1.1707 -0.1057
8 5 8 -1.2109 0.0354
8 5 9 -0.2852 -0.0566
8 5 10 -0.7202 0.4641
8 5 11 0.9980 0.0877
8 5 12 5.5091 -0.4872
8 6 0 1.3821 0.5754
8 6 1 -0.5541 -0.5380
8 6 2 -1.8488 -0.0018
8 6 3 5.9898 0.0131
8 6 4 0.9343 0.3549
8 6 5 -0.8713 0.0738
8 6 6 1.7496 -0.2129
8 6 7 0.8397 -0.2053
8 6 8 1.5432 -0.0158
8 6 9 -3.6801 0.0890
8 6 10 0.3609 -0.2230
8 6 11 -2.1013 0.3417
8 7 0 -1.2825 0.4007
8 7 1 5.6955 -0.3095
8 7 2 1.6073 -0.3040
8 7 3 -8.0498 0.0050
8 7 4 0.9823 0.0855
8 7 5 -0.1866 0.2969
8 7 6 -1.4651 0.2389
8 7 7 -1.5188 0.1076
8 7 8 1.7243 0.0963
8 7 9 3.3735 -0.3370
8 7 10 -0.1552 -0.0211
8 8 1 -4.3284 0.5759
8 8 2 0.5605 0.0186
8 8 3 5.2612 -0.5071
8 8 4 -0.8930 -0.4154
8 8 5 1.1994 0.2024
8 8 6 1.1465 -0.0679
8 8 7 0.2484 -0.1875
8 8 8 -2.0862 -0.1739
8 8 10 0.3172 -0.1720
9 -6 4 -1.1135 0.6398
9 -5 1 -4.2032 -0.2797
9 -5 2 -2.0713 -0.3333
9 -5 3 -0.9123 -0.3795
9 -5 4 2.1205 0.1841
9 -5 5 -0.4147 0.8263
9 -4 2 -0.7965 0.0432
9 -4 3 -0.7781 -0.2962
9 -4 4 -2.1933 -0.3517
9 -4 5 -0.8379 -0.0374
9 -4 6 -1.7600 0.1642
9 -4 7 0.2654 -0.0518
9 -3 0 -3.0022 0.0788
9 -3 1 2.6442 0.6442
9 -3 2 1.3962 0.0491
9 -3 3 1.5650 0.1754
9 -3 4 0.6403 -0.0228
9 -3 5 0.5481 -0.2992
9 -3 6 1.8203 0.0263
9 -3 7 0.9511 0.3503
9 -2 0 -2.8440 -0.7796
9 -2 1 -3.2490 0.0335
9 -2 2 -0.7453 0.0752
9 -2 3 0.7252 -0.0911
9 -2 4 1.6398 -0.1949
9 -2 5 -3.3504 0.3622
9 -2 6 -2.5223 -0.0389
9 -2 7 -0.0745 0.0313
9 -1 0 2.7564 -0.3767
9 -1 1 1.3069 -0.0559
9 -1 2 -1.7185 0.3489
9 -1 3 -3.5916 0.1876
9 -1 4 2.4239 -0.0710
9 -1 5 5.5819 -0.4220
9 -1 6 0.3158 -0.0541
9 -1 7 -1.2714 0.0268
9 -1 8 -0.6967 0.1720
9 0 0 1.5324 0.1556
9 0 1 0.4087 -0.6825
9 0 2 3.1106 -0.0193
9 0 3 -0.3124 0.2101
9 0 4 -5.7619 0.1967
9 0 5 -1.8871 -0.0484
9 0 6 0.8898 -0.0594
9 0 7 1.2570 -0.2828
9 0 8 -1.7876 0.0324
9 1 0 -3.8143 0.7644
9 1 1 0.0412 -0.2923
9 1 2 -0.0014 -0.2861
9 1 3 3.1569 0.0270
9 1 4 2.8033 0.2183
9 1 5 -0.9249 0.1354
9 1 6 -0.4621 0.0265
9 1 7 0.2384 -0.0200
9 1 8 1.8665 -0.0787
9 2 0 2.0388 0.4842
9 2 1 -0.6940 0.4376
9 2 2 -1.1944 -0.3455
9 2 3 -1.5251 -0.1934
9 2 4 -1.6689 0.0209
9 2 5 3.0513 0.1011
9 2 6 -0.0692 0.0454
9 2 7 -1.0228 0.0971
9 2 8 0.9108 -0.2678
9 2 9 -0.2936 -0.0144
9 3 0 -0.2391 -0.1746
9 3 1 -1.0824 0.3920
9 3 2 0.1574 -0.0622
9 3 3 1.5669 -0.1963
9 3 4 0.6800 -0.1570
9 3 5 -5.4885 0.0355
9 3 6 2.0208 0.0254
9 3 7 -0.0585 -0.0481
9 3 8 0.6887 0.1159
9 3 9 1.9022 0.0536
9 3 10 -2.5549 -0.1339
9 3 11 -1.6552 -0.1434
9 4 0 -1.2654 -0.8975
9 4 1 2.2113 0.5958
9 4 2 1.0391 0.3796
9 4 3 -1.2193 0.0454
9 4 4 1.2726 -0.1995
9 4 5 2.9348 -0.0687
9 4 6 -2.4989 -0.0371
9 4 7 -0.4774 0.3828
9 4 8 -2.4153 -0.0605
9 4 9 1.3467 -0.1380
9 4 10 2.3668 0.0370
9 4 11 -1.5298 -0.4114
9 5 1 -3.7672 -0.7012
9 5 2 -2.2065 0.2338
9 5 3 0.1679 0.2169
9 5 4 0.6114 0.1909
9 5 5 0.6073 0.0097
9 5 6 0.6798 0.0258
9 5 7 1.5390 -0.4455
9 5 8 -0.2186 0.1602
9 5 9 -0.8481 0.0788
9 6 7 -0.6852 0.2474
9 6 8 0.2946 0.0718
10 0 1 1.5085 -0.4836
10 0 2 2.8177 0.0703
10 0 3 -3.9354 0.1092
10 0 4 -4.4837 0.1287
10 0 5 2.6651 -0.0880
10 0 6 1.8958 -0.2178
10 1 0 -2.7187 0.5035
10 1 1 1.0977 -0.2105
10 1 2 0.7362 -0.0945
10 1 3 2.9811 0.0032
10 1 4 -1.8418 0.0404
10 1 5 -2.8101 0.0196
10 4 6 -5.8640 -0.0240
10 4 7 3.3458 0.3701
0 0 0 0.0 0.0
;
_iucr_refine_fcf_details
;
data_iith07
_computing_structure_refinement   'olex2.refine (Bourhis et al., 2015)'
_shelx_refln_list_code            4
loop_
  _space_group_symop_id
  _space_group_symop_operation_xyz
  1  x,y,z
  2  -x,-y,-z

_space_group_crystal_system       triclinic
_space_group_IT_number            2
_space_group_name_H-M_alt         'P -1'
_space_group_name_Hall            '-P 1'
_symmetry_space_group_name_H-M    'P -1'
_symmetry_space_group_name_Hall   '-P 1'
_symmetry_Int_Tables_number       2
_cell_length_a                    7.6380(4)
_cell_length_b                    11.3080(4)
_cell_length_c                    13.1866(7)
_cell_angle_alpha                 77.900(4)
_cell_angle_beta                  78.288(4)
_cell_angle_gamma                 84.332(4)
_cell_volume                      1088.56(9)
loop_
  _refln_index_h
  _refln_index_k
  _refln_index_l
  _refln_F_squared_calc
  _refln_F_squared_meas
  _refln_F_squared_sigma
  _refln_F_squared_weight
  _refln_observed_status
-9 -4 1 64.451 -18.755 119.227 115.759 o
-9 -3 1 437.439 387.154 187.013 46.319 o
-9 -3 2 435.037 375.365 186.477 46.601 o
-9 -2 1 1714.300 1397.100 282.261 18.716 o
-9 -2 2 1820.980 1724.640 324.861 14.218 o
-9 -2 3 984.727 987.309 254.530 24.246 o
-9 -1 1 1978.920 1776.350 330.755 13.594 o
-9 -1 2 1987.360 1851.100 327.674 13.782 o
-9 -1 3 584.635 659.099 235.106 29.155 o
-9 -1 4 14.724 67.116 143.073 80.409 o
-9 0 1 883.348 653.473 211.260 35.240 o
-9 0 2 466.746 410.865 210.858 36.498 o
-9 0 3 34.399 228.273 168.124 58.176 o
-9 0 4 131.632 195.988 166.382 59.306 o
-9 0 5 453.734 566.531 210.456 36.530 o
-9 1 1 12.959 106.769 139.724 84.296 o
-9 1 2 5.590 -8.306 140.527 83.361 o
-9 2 1 36.882 176.832 287.887 19.858 o
-9 2 2 6.490 16.210 211.930 36.652 o
-8 -7 1 32.650 -20.764 117.084 120.073 o
-8 -6 1 508.829 381.126 187.683 45.829 o
-8 -6 2 438.891 406.445 194.247 42.961 o
-8 -5 1 2300.700 1902.950 332.631 13.097 o
-8 -5 2 864.227 704.245 202.419 38.214 o
-8 -5 3 107.203 288.423 168.124 58.056 o
-8 -4 1 2250.480 1707.360 310.527 14.946 o
-8 -4 2 310.354 275.027 154.460 68.185 o
-8 -4 3 220.051 174.152 150.441 72.308 o
-8 -4 4 203.928 250.779 162.363 62.083 o
-8 -3 1 544.184 351.788 160.756 61.933 o
-8 -3 2 19.105 32.821 98.597 169.309 o
-8 -3 3 526.287 384.877 163.167 60.171 o
-8 -3 4 1098.600 889.382 236.043 27.852 o
-8 -3 5 742.239 513.615 187.549 44.985 o
-8 -2 1 140.509 50.504 106.903 143.557 o
-8 -2 2 19.160 -1.742 111.591 132.193 o
-8 -2 3 925.061 723.938 197.462 39.813 o
-8 -2 4 1950.690 1489.670 290.432 17.385 o
-8 -2 5 1632.500 1286.180 269.936 20.517 o
-8 -2 6 1227.840 1213.570 270.070 21.179 o
-8 -1 1 150.500 202.686 124.050 106.354 o
-8 -1 2 28.523 48.093 105.295 148.428 o
-8 -1 3 1042.350 1297.570 257.076 23.464 o
-8 -1 4 2649.670 2313.950 336.650 12.289 o
-8 -1 5 2296.820 1918.490 318.297 14.143 o
-8 -1 6 2178.670 1670.250 299.944 15.999 o
-8 -1 7 1107.510 1020.530 251.315 24.613 o
-8 0 1 9.519 -60.551 101.410 160.073 o
-8 0 2 398.615 489.234 171.339 54.973 o
-8 0 3 1329.010 1350.080 256.138 23.081 o
-8 0 4 1070.350 1282.300 255.870 23.640 o
-8 0 5 1157.710 1007.400 236.311 27.542 o
-8 0 6 709.526 714.292 208.715 36.436 o
-8 0 7 305.495 258.013 157.675 65.508 o
-8 1 1 427.886 493.495 165.646 58.613 o
-8 1 2 993.876 1068.790 196.761 39.159 o
-8 1 3 732.571 725.874 164.751 57.059 o
-8 1 4 208.353 157.407 124.720 105.040 o
-8 1 5 105.655 122.710 125.256 104.663 o
-8 1 6 13.074 120.031 145.216 78.037 o
-8 1 7 66.867 143.877 133.695 91.958 o
-8 1 8 495.770 1270.110 402.560 10.046 o
-8 2 1 629.047 937.021 184.958 45.825 o
-8 2 2 698.111 856.807 177.083 49.638 o
-8 2 3 593.075 723.000 178.999 49.380 o
-8 2 4 159.590 292.207 143.006 79.977 o
-8 2 5 158.130 460.030 292.710 19.166 o
-8 3 1 873.087 942.700 329.684 14.796 o
-8 3 2 912.334 1336.820 387.556 10.707 o
-8 3 3 1406.680 1902.010 469.675 7.204 o
-8 3 4 548.205 531.566 314.814 16.454 o
-8 3 5 7.966 173.215 214.609 35.733 o
-8 3 6 28.785 286.547 260.960 24.158 o
-8 3 7 20.146 89.086 205.500 38.977 o
-8 4 1 1061.110 1057.530 262.628 22.684 o
-8 4 2 1894.590 2086.890 351.036 12.148 o
-8 4 3 1766.000 2143.010 513.213 5.990 o
-8 4 4 735.968 505.979 283.868 20.082 o
-8 4 5 153.557 98.999 242.474 27.972 o
-8 4 6 2.121 123.782 207.777 38.127 o
-8 4 7 217.129 214.341 219.968 33.918 o
-8 5 1 604.058 671.704 228.479 30.793 o
-8 5 2 1375.740 1547.830 306.319 16.395 o
-8 5 3 946.562 1063.920 271.905 21.367 o
-8 5 4 68.455 -55.193 216.753 35.035 o
-8 5 5 25.283 -122.844 247.028 26.977 o
-8 5 6 331.637 374.561 252.789 25.608 o
-8 6 1 351.201 335.517 162.343 61.567 o
-8 6 2 37.233 -132.707 156.971 66.805 o
-8 6 3 1.729 -106.501 235.373 29.715 o
-7 -9 1 726.793 801.636 271.142 21.854 o
-7 -8 1 540.491 557.689 215.949 34.592 o
-7 -8 2 81.953 237.785 207.107 38.328 o
-7 -8 3 6.224 107.037 181.386 50.028 o
-7 -7 1 61.443 25.453 139.322 84.776 o
-7 -7 2 248.886 296.863 172.009 55.220 o
-7 -7 3 118.580 352.457 186.343 47.241 o
-7 -7 4 30.686 161.158 165.311 60.201 o
-7 -6 1 47.028 16.343 94.578 183.948 o
-7 -6 2 849.929 1028.570 243.143 26.652 o
-7 -6 3 616.203 588.501 204.428 38.310 o
-7 -6 4 334.555 313.608 175.894 52.625 o
-7 -6 5 272.397 298.470 175.760 52.857 o
-7 -5 1 241.548 131.284 122.175 109.304 o
-7 -5 2 2790.590 2321.720 338.927 12.008 o
-7 -5 3 4102.710 3472.190 419.037 7.345 o
-7 -5 4 2720.520 2350.120 358.888 10.946 o
-7 -5 5 1463.580 1595.370 303.561 16.557 o
-7 -5 6 774.169 697.413 228.943 30.368 o
-7 -4 1 760.744 638.469 178.573 49.070 o
-7 -4 2 4929.820 4327.550 436.050 6.289 o
-7 -4 3 6698.510 5280.560 487.626 4.549 o
-7 -4 4 4752.100 3616.340 419.171 6.947 o
-7 -4 5 2716.650 2265.320 340.535 12.012 o
-7 -4 6 705.845 595.333 204.294 38.134 o
-7 -4 7 0.594 -18.755 123.782 107.441 o
-7 -3 1 841.117 677.854 188.218 44.007 o
-7 -3 2 3277.550 2906.870 350.984 10.618 o
-7 -3 3 3858.340 2918.260 360.227 9.683 o
-7 -3 4 1733.360 1695.040 288.691 17.735 o
-7 -3 5 1115.850 927.428 225.862 30.170 o
-7 -3 6 76.689 259.487 163.435 61.491 o
-7 -3 7 323.879 302.355 175.760 52.742 o
-7 -3 8 2099.730 2385.890 442.481 7.794 o
-7 -2 1 472.429 431.496 146.824 74.050 o
-7 -2 2 503.675 356.610 132.892 89.849 o
-7 -2 3 107.006 107.706 104.491 150.267 o
-7 -2 4 32.039 110.654 126.595 102.650 o
-7 -2 5 35.366 75.421 95.114 181.817 o
-7 -2 6 58.950 81.048 116.816 120.513 o
-7 -2 7 963.160 1457.660 890.186 2.067 o
-7 -2 8 1268.710 1903.210 779.398 2.679 o
-7 -1 1 219.279 202.151 101.008 159.074 o
-7 -1 2 491.027 396.531 139.724 81.500 o
-7 -1 3 160.541 151.512 122.710 108.752 o
-7 -1 4 71.094 128.605 122.710 109.137 o
-7 -1 5 18.651 129.810 128.873 99.062 o
-7 -1 6 9.825 348.323 434.108 8.733 o
-7 -1 7 492.140 1172.640 755.553 2.875 o
-7 -1 8 1635.650 2185.830 966.679 1.742 o
-7 -1 9 1561.420 1870.640 1108.550 1.330 o
-7 0 1 3122.580 3282.570 273.485 15.372 o
-7 0 2 3635.730 3296.170 344.018 10.414 o
-7 0 3 898.101 865.805 197.462 39.656 o
-7 0 4 15.165 64.302 104.759 149.960 o
-7 0 5 20.678 147.360 111.457 132.381 o
-7 0 6 25.122 398.960 724.139 3.139 o
-7 0 7 722.990 1247.650 849.796 2.271 o
-7 0 8 1248.090 1367.400 856.695 2.227 o
-7 0 9 1129.250 1026.120 234.838 27.908 o
-7 1 1 7194.270 7582.720 411.210 4.830 o
-7 1 2 5667.210 5840.900 362.431 6.966 o
-7 1 3 812.011 854.530 154.184 63.417 o
-7 1 4 93.416 132.103 88.046 211.370 o
-7 1 5 96.103 264.108 111.397 131.871 o
-7 1 6 628.524 1059.370 667.003 3.684 o
-7 1 7 724.234 1452.940 899.229 2.028 o
-7 1 8 750.565 733.304 815.970 2.466 o
-7 1 9 210.887 80.606 187.549 46.682 o
-7 1 10 14.458 -56.624 680.801 3.552 o
-7 2 1 3214.780 3575.790 290.297 13.731 o
-7 2 2 1847.540 2192.350 233.249 24.667 o
-7 2 3 0.129 -13.485 65.373 385.209 o
-7 2 4 950.528 991.177 171.435 50.862 o
-7 2 5 1483.100 1890.500 371.423 11.249 o
-7 2 6 1598.460 2105.230 456.581 7.535 o
-7 2 7 739.294 906.774 358.376 12.619 o
-7 2 8 206.908 102.168 196.189 42.665 o
-7 2 9 8.201 -3.653 281.457 20.781 o
-7 3 1 82.135 170.825 107.993 140.672 o
-7 3 2 4.367 97.363 121.401 111.667 o
-7 3 3 462.282 459.398 145.417 75.419 o
-7 3 4 1385.360 1416.090 204.763 34.179 o
-7 3 5 1960.420 2331.590 444.037 7.799 o
-7 3 6 1174.470 2077.080 692.121 3.387 o
-7 3 7 1154.870 1457.200 310.795 16.196 o
-7 3 8 184.893 96.791 225.728 32.259 o
-7 3 9 8.817 -616.097 523.930 5.997 o
-7 4 1 191.269 118.534 140.267 83.293 o
-7 4 2 21.618 -156.817 122.860 109.055 o
-7 4 3 281.679 192.038 141.018 81.945 o
-7 4 4 1463.790 1218.560 251.114 23.798 o
-7 4 5 1040.320 955.024 319.904 15.587 o
-7 4 6 1049.730 1246.930 366.925 11.876 o
-7 4 7 1489.420 1447.470 394.254 10.136 o
-7 4 8 1073.400 719.919 307.178 16.922 o
-7 5 1 11.603 -190.126 144.320 79.037 o
-7 5 2 2.115 -143.690 146.612 76.586 o
-7 5 3 320.390 376.542 156.628 66.112 o
-7 5 4 964.257 1194.800 244.846 25.957 o
-7 5 5 1005.990 813.914 211.997 34.451 o
-7 5 6 1161.460 1056.530 243.696 25.944 o
-7 5 7 882.965 904.386 312.938 16.386 o
-7 5 8 587.674 412.741 237.517 28.724 o
-7 6 1 2.784 -30.812 152.986 70.337 o
-7 6 2 183.727 156.070 181.118 50.035 o
-7 6 3 1038.200 818.541 209.872 35.005 o
-7 6 4 959.750 765.565 248.301 25.635 o
-7 6 5 490.416 471.289 181.441 48.891 o
-7 6 6 130.649 -42.209 133.615 92.085 o
-7 6 7 62.566 71.135 188.486 46.319 o
-7 6 8 4.838 -30.008 172.277 55.467 o
-7 7 1 298.447 152.584 169.865 56.660 o
-7 7 2 743.195 802.440 288.691 19.320 o
-7 7 3 958.292 1229.920 339.597 13.851 o
-7 7 4 752.872 991.864 304.900 17.295 o
-7 7 5 55.892 33.927 140.413 83.465 o
-7 7 6 0.492 -195.185 214.877 35.654 o
-7 7 7 49.448 -2.813 176.698 52.720 o
-7 7 8 403.020 482.670 255.468 24.998 o
-7 8 1 683.066 671.692 262.836 23.331 o
-7 8 2 402.483 606.318 277.304 21.212 o
-7 8 3 709.225 1092.600 321.914 15.549 o
-6 -11 1 54.999 218.226 188.352 46.353 o
-6 -10 1 2.146 -3.081 134.633 90.820 o
-6 -10 2 51.894 101.812 156.201 67.430 o
-6 -10 3 61.825 124.318 170.133 56.830 o
-6 -9 1 289.448 341.338 175.760 52.775 o
-6 -9 2 361.211 188.754 166.784 58.558 o
-6 -9 3 247.830 299.006 204.160 39.283 o
-6 -9 4 417.075 487.492 210.188 36.745 o
-6 -8 1 4354.270 4085.080 460.834 6.083 o
-6 -8 2 3459.280 3675.550 445.026 6.917 o
-6 -8 3 1983.200 2219.370 351.520 12.000 o
-6 -8 4 1091.820 1106.400 286.280 19.185 o
-6 -8 5 672.541 510.132 216.485 34.232 o
-6 -7 1 9393.240 9085.790 651.999 2.347 o
-6 -7 2 8256.680 8282.550 645.971 2.588 o
-6 -7 3 3700.930 3284.650 419.573 7.598 o
-6 -7 4 911.233 1010.350 257.210 23.854 o
-6 -7 5 163.453 139.858 142.939 80.268 o
-6 -7 6 2.840 -43.672 148.297 74.855 o
-6 -6 1 5357.990 4914.840 473.024 5.299 o
-6 -6 2 3488.200 3758.340 424.798 7.434 o
-6 -6 3 1506.630 1439.970 284.002 18.768 o
-6 -6 4 175.806 429.084 190.362 45.158 o
-6 -6 5 50.591 159.282 170.669 56.470 o
-6 -6 6 859.379 706.656 249.842 25.517 o
-6 -6 7 1555.930 872.369 274.223 20.362 o
-6 -5 1 896.083 718.445 192.237 41.998 o
-6 -5 2 752.548 666.735 192.639 42.441 o
-6 -5 3 160.554 207.241 129.944 96.922 o
-6 -5 4 100.362 94.578 122.576 109.339 o
-6 -5 5 211.622 228.407 178.573 51.381 o
-6 -5 6 1880.850 1653.780 310.393 15.417 o
-6 -5 7 2680.070 2520.390 393.986 9.284 o
-6 -5 8 1450.810 1598.560 579.994 4.791 o
-6 -4 1 619.339 445.562 148.431 71.447 o
-6 -4 2 740.360 599.620 168.526 54.982 o
-6 -4 3 409.978 206.169 146.154 75.738 o
-6 -4 4 7.973 -3.215 89.889 203.735 o
-6 -4 5 79.189 86.942 113.601 127.351 o
-6 -4 6 2342.710 2194.450 347.099 11.988 o
-6 -4 7 5684.400 5738.100 1063.740 1.332 o
-6 -4 8 3742.680 4123.540 1215.780 1.079 o
-6 -4 9 2226.920 2646.110 1258.450 1.028 o
-6 -3 1 5746.440 4868.490 405.641 6.337 o
-6 -3 2 1450.400 1256.040 222.245 29.640 o
-6 -3 3 18.967 125.658 114.539 125.391 o
-6 -3 4 35.433 136.509 130.614 96.409 o
-6 -3 5 132.685 220.236 139.858 83.802 o
-6 -3 6 2350.310 2870.760 455.743 7.217 o
-6 -3 7 4294.980 4760.590 1034.130 1.453 o
-6 -3 8 2223.910 2910.120 890.789 2.025 o
-6 -3 9 1361.590 1290.590 791.522 2.604 o
-6 -2 1 5274.420 4554.750 380.188 7.293 o
-6 -2 2 18.536 29.472 74.618 295.585 o
-6 -2 3 1134.310 1108.810 207.107 35.062 o
-6 -2 4 454.848 500.755 162.631 60.619 o
-6 -2 5 496.189 701.449 433.036 8.731 o
-6 -2 6 929.940 1278.660 413.813 9.421 o
-6 -2 7 941.549 1069.540 577.985 4.882 o
-6 -2 8 384.825 406.172 160.155 62.973 o
-6 -2 9 60.990 214.375 322.517 15.820 o
-6 -2 10 19.140 -120.955 131.170 95.676 o
-6 -1 1 1357.020 1198.700 193.845 38.264 o
-6 -1 2 971.679 714.426 161.158 57.792 o
-6 -1 3 2854.210 2700.570 307.446 13.755 o
-6 -1 4 1833.580 1998.150 204.840 30.840 o
-6 -1 5 841.378 1142.340 427.611 8.865 o
-6 -1 6 372.083 417.855 353.998 13.086 o
-6 -1 7 30.767 153.863 205.366 39.018 o
-6 -1 8 42.330 101.469 118.189 117.747 o
-6 -1 9 13.422 -6.430 128.337 99.949 o
-6 -1 10 167.688 235.775 164.775 60.374 o
-6 0 1 95.693 86.046 61.255 435.553 o
-6 0 2 1181.480 1110.880 149.690 61.654 o
-6 0 3 4175.700 3795.370 270.980 13.073 o
-6 0 4 4737.290 4960.870 663.520 3.200 o
-6 0 5 2050.030 2382.420 418.367 8.665 o
-6 0 6 955.136 924.519 172.456 50.497 o
-6 0 7 689.864 473.043 283.399 20.190 o
-6 0 8 11.120 26.257 100.338 163.499 o
-6 0 9 79.983 -25.989 128.203 100.104 o
-6 0 10 15.130 -31.555 461.169 7.740 o
-6 0 11 99.515 116.012 141.599 81.960 o
-6 1 1 45.553 39.617 59.748 460.369 o
-6 1 2 765.717 716.213 126.613 92.337 o
-6 1 3 4830.110 4926.750 304.880 9.760 o
-6 1 4 7031.640 7828.290 664.604 2.689 o
-6 1 5 4850.470 4003.710 840.456 2.129 o
-6 1 6 5332.290 4089.240 1438.920 0.766 o
-6 1 7 2242.000 1684.190 255.066 20.945 o
-6 1 8 0.032 -53.696 109.381 137.595 o
-6 1 9 151.769 44.074 114.940 124.202 o
-6 1 10 221.729 297.398 157.943 65.479 o
-6 1 11 594.945 484.143 191.032 43.910 o
-6 2 1 31.972 17.093 69.737 338.335 o
-6 2 2 1620.570 1677.780 160.168 48.047 o
-6 2 3 6521.430 6178.960 337.450 6.710 o
-6 2 4 5298.100 5475.400 369.507 7.206 o
-6 2 5 3854.480 3319.630 897.211 1.941 o
-6 2 6 3931.270 3500.730 341.204 10.139 o
-6 2 7 490.065 219.134 191.260 44.382 o
-6 2 8 282.902 228.413 104.479 147.771 o
-6 2 9 1791.510 1474.800 258.013 21.754 o
-6 2 10 1008.930 691.097 859.910 2.218 o
-6 2 11 739.515 240.693 593.859 4.654 o
-6 2 12 286.733 89.621 121.639 110.097 o
-6 3 1 689.987 815.812 113.865 112.134 o
-6 3 2 2929.960 2999.720 205.240 23.500 o
-6 3 3 2695.850 2853.320 203.469 25.099 o
-6 3 4 554.489 735.777 152.851 66.990 o
-6 3 5 217.209 134.294 81.511 243.554 o
-6 3 6 14.590 -19.704 64.218 399.151 o
-6 3 7 41.161 65.196 78.302 268.162 o
-6 3 8 1551.950 1731.340 209.623 31.500 o
-6 3 9 2505.970 1277.600 1029.310 1.533 o
-6 3 10 1533.430 777.287 505.243 6.319 o
-6 3 11 339.903 -1182.900 736.798 3.031 o
-6 4 1 2186.720 2059.750 166.903 38.660 o
-6 4 2 1762.340 1715.930 151.956 50.094 o
-6 4 3 368.050 274.155 79.043 249.015 o
-6 4 4 102.342 120.913 70.205 331.463 o
-6 4 5 502.397 454.958 85.663 203.330 o
-6 4 6 270.447 162.196 68.561 337.584 o
-6 4 7 680.866 458.824 244.617 26.980 o
-6 4 8 1291.180 728.060 570.416 5.000 o
-6 4 9 496.430 -606.452 626.278 4.193 o
-6 5 1 1078.920 869.288 258.549 23.481 o
-6 5 2 1408.020 1425.500 347.501 12.946 o
-6 5 3 946.145 1084.300 289.227 18.965 o
-6 5 4 14.341 21.166 138.652 85.628 o
-6 5 5 332.416 221.587 139.300 83.632 o
-6 5 6 131.276 87.672 108.786 138.592 o
-6 5 7 194.978 166.230 113.582 126.525 o
-6 5 8 565.839 636.484 470.479 7.400 o
-6 6 1 1755.920 1798.460 368.801 11.272 o
-6 6 2 3984.380 4229.890 539.872 4.780 o
-6 6 3 2681.800 2913.300 457.217 7.053 o
-6 6 4 460.461 321.914 178.975 50.526 o
-6 6 5 4.459 -40.591 140.394 83.520 o
-6 6 6 23.719 100.740 171.205 56.148 o
-6 6 7 144.258 89.058 116.652 120.528 o
-6 6 8 684.365 624.917 169.215 54.786 o
-6 7 1 1997.180 2349.310 414.616 8.840 o
-6 7 2 2707.780 3360.070 483.206 6.310 o
-6 7 3 1899.550 2068.930 419.305 8.753 o
-6 7 4 81.539 9.913 127.533 101.148 o
-6 7 5 110.808 190.898 162.363 62.304 o
-6 7 6 471.916 593.993 231.890 30.142 o
-6 7 7 1107.960 1519.950 338.391 13.779 o
-6 7 8 954.598 1213.710 299.408 17.679 o
-6 7 9 192.990 185.405 185.405 47.728 o
-6 8 1 492.701 467.398 205.902 38.154 o
-6 8 2 468.224 414.482 208.313 37.377 o
-6 8 3 23.803 15.942 127.935 100.570 o
-6 8 4 247.313 377.241 200.543 40.659 o
-6 8 5 776.952 841.959 260.960 23.470 o
-6 8 6 1152.880 1577.820 340.803 13.548 o
-6 8 7 1045.060 1390.540 325.933 14.892 o
-6 9 1 70.993 230.015 170.937 56.245 o
-6 9 2 106.024 212.600 194.783 43.316 o
-6 9 3 288.071 332.899 196.390 42.359 o
-6 9 4 695.498 615.695 221.575 32.580 o
-6 9 5 966.471 1079.740 281.055 20.022 o
-6 10 1 29.781 72.340 166.248 59.549 o
-6 10 2 112.142 210.724 179.109 51.209 o
-5 -13 1 5.652 55.997 150.709 72.474 o
-5 -12 1 123.902 292.174 189.022 45.941 o
-5 -12 2 265.955 142.135 175.626 53.093 o
-5 -11 1 1776.670 1985.740 349.376 12.379 o
-5 -11 2 1025.650 957.168 245.019 26.025 o
-5 -11 3 641.390 685.490 234.570 29.188 o
-5 -11 4 562.576 454.136 218.762 33.773 o
-5 -10 1 3751.130 3564.360 450.385 6.680 o
-5 -10 2 874.755 920.194 247.564 25.793 o
-5 -10 3 116.534 359.825 185.003 47.923 o
-5 -10 4 24.240 68.589 143.475 79.953 o
-5 -10 5 16.609 41.395 138.786 85.458 o
-5 -9 1 2292.190 2434.780 350.984 11.698 o
-5 -9 2 193.362 287.619 175.894 52.932 o
-5 -9 3 12.853 116.280 128.471 99.699 o
-5 -9 4 2.660 -209.251 140.394 83.520 o
-5 -9 5 515.005 393.048 214.609 35.192 o
-5 -9 6 355.067 329.550 196.122 42.375 o
-5 -8 1 1994.440 1872.400 301.551 15.958 o
-5 -8 2 226.259 221.709 158.345 65.236 o
-5 -8 3 32.403 149.503 139.858 84.091 o
-5 -8 4 627.999 638.737 219.566 33.266 o
-5 -8 5 2321.810 2284.070 380.858 10.154 o
-5 -8 6 2451.780 2526.410 409.392 8.792 o
-5 -8 7 1296.000 1321.150 337.454 13.796 o
-5 -7 1 2518.690 2559.640 332.899 12.532 o
-5 -7 2 439.436 561.574 191.969 43.793 o
-5 -7 3 32.681 -26.391 107.037 143.669 o
-5 -7 4 1775.230 1929.880 325.263 14.133 o
-5 -7 5 6290.240 6539.950 592.654 3.420 o
-5 -7 6 7297.360 7482.250 667.003 2.662 o
-5 -7 7 3283.770 3219.810 464.987 6.577 o
-5 -7 8 920.475 1087.510 301.283 17.546 o
-5 -6 1 1416.960 1481.770 255.334 22.921 o
-5 -6 2 13.240 -51.576 110.520 134.772 o
-5 -6 3 655.159 578.721 190.228 43.950 o
-5 -6 4 844.311 1146.460 266.185 22.332 o
-5 -6 5 4855.080 5194.690 512.142 4.823 o
-5 -6 6 6282.570 6435.060 606.854 3.314 o
-5 -6 7 2258.590 2450.190 388.360 9.793 o
-5 -6 8 446.013 909.111 634.316 4.080 o
-5 -6 9 121.617 445.197 652.200 3.869 o
-5 -5 1 94.208 105.965 93.506 187.618 o
-5 -5 2 1078.370 1069.960 220.102 31.567 o
-5 -5 3 42.511 64.034 124.586 106.005 o
-5 -5 4 65.316 89.487 143.475 79.905 o
-5 -5 5 1173.350 1329.720 265.783 21.819 o
-5 -5 6 1318.720 1381.120 214.332 31.852 o
-5 -5 7 509.848 592.444 234.905 29.342 o
-5 -5 8 45.296 261.509 387.556 10.957 o
-5 -5 9 169.618 449.627 693.595 3.420 o
-5 -4 1 1604.510 1320.340 215.949 30.523 o
-5 -4 2 2973.060 2776.120 317.627 12.866 o
-5 -4 3 161.945 134.901 101.142 159.755 o
-5 -4 4 70.777 75.957 99.937 164.553 o
-5 -4 5 297.175 476.530 245.287 27.177 o
-5 -4 6 88.306 177.051 170.133 56.786 o
-5 -4 7 94.916 149.949 239.325 28.721 o
-5 -4 8 51.303 115.866 260.291 24.292 o
-5 -4 9 94.510 -21.463 408.655 9.857 o
-5 -4 10 437.584 147.203 171.188 55.471 o
-5 -3 1 2475.270 2200.880 260.693 19.107 o
-5 -3 2 8196.380 8133.850 509.462 3.476 o
-5 -3 3 6426.480 6242.960 470.211 4.692 o
-5 -3 4 3353.810 3486.080 372.820 9.355 o
-5 -3 5 1690.710 2015.290 379.116 10.683 o
-5 -3 6 970.172 821.222 182.344 45.776 o
-5 -3 7 132.028 135.643 108.450 139.294 o
-5 -3 8 13.451 10.831 124.050 106.974 o
-5 -3 9 48.197 -142.001 163.971 61.221 o
-5 -3 10 617.228 576.444 254.664 24.935 o
-5 -3 11 2198.340 2578.530 459.226 7.214 o
-5 -2 1 7254.070 7135.960 437.658 4.595 o
-5 -2 2 21530.700 19646.000 752.606 0.838 o
-5 -2 3 18077.100 17734.500 512.314 1.270 o
-5 -2 4 9575.720 9349.420 446.768 3.369 o
-5 -2 5 4813.860 3630.240 2080.780 0.375 o
-5 -2 6 2813.220 1660.950 486.823 6.433 o
-5 -2 7 312.890 346.161 141.867 80.451 o
-5 -2 8 955.516 746.175 216.753 33.261 o
-5 -2 9 204.520 -8.119 298.135 18.508 o
-5 -2 10 741.964 502.094 187.415 45.068 o
-5 -2 11 1357.980 1365.620 325.933 14.677 o
-5 -1 1 6398.750 5937.120 387.556 5.984 o
-5 -1 2 21127.500 20050.800 724.339 0.864 o
-5 -1 3 15411.100 15823.600 1403.530 0.600 o
-5 -1 4 4987.300 4498.580 1107.210 1.266 o
-5 -1 5 3907.590 2719.500 1423.560 0.797 o
-5 -1 6 52.990 62.025 102.884 155.375 o
-5 -1 7 2900.480 1851.100 1501.330 0.724 o
-5 -1 8 4217.180 3538.910 400.684 7.781 o
-5 -1 9 1422.220 718.415 651.262 3.840 o
-5 -1 10 154.447 263.385 290.566 19.471 o
-5 -1 11 61.770 -104.370 243.947 27.660 o
-5 -1 12 18.618 78.101 143.877 79.507 o
-5 0 1 2305.460 2216.380 181.953 33.128 o
-5 0 2 5158.330 5370.030 286.243 9.713 o
-5 0 3 747.512 711.966 99.019 142.680 o
-5 0 4 34.678 29.738 57.705 493.867 o
-5 0 5 113.069 167.588 97.257 173.028 o
-5 0 6 1353.350 1262.200 209.251 33.331 o
-5 0 7 3889.840 2517.120 1899.930 0.451 o
-5 0 8 4209.710 2991.200 2232.900 0.327 o
-5 0 9 1641.250 793.453 1043.440 1.504 o
-5 0 10 698.881 703.441 204.294 38.013 o
-5 0 11 252.964 366.524 192.773 43.978 o
-5 0 12 34.727 -37.510 127.399 101.416 o
-5 1 1 709.127 615.950 90.380 170.753 o
-5 1 2 105.970 76.727 54.323 552.300 o
-5 1 3 940.265 796.623 104.092 122.986 o
-5 1 4 334.452 370.856 91.379 188.467 o
-5 1 5 4.876 26.033 57.257 502.069 o
-5 1 6 258.563 216.409 153.411 69.383 o
-5 1 7 3866.520 2781.340 1026.740 1.505 o
-5 1 8 4521.260 4318.170 415.956 6.960 o
-5 1 9 3361.490 3139.430 370.944 9.559 o
-5 1 10 1672.010 1583.180 278.644 19.080 o
-5 1 11 655.388 737.602 221.843 32.465 o
-5 1 12 18.169 47.557 125.524 104.464 o
-5 2 1 3044.620 3027.750 182.342 26.204 o
-5 2 2 2255.270 2195.440 159.470 39.733 o
-5 2 3 22.771 39.121 54.760 548.513 o
-5 2 4 81.263 76.824 49.783 658.814 o
-5 2 5 37.983 36.461 57.142 503.470 o
-5 2 6 353.092 251.739 121.529 109.052 o
-5 2 7 2441.960 2723.120 238.383 21.265 o
-5 2 8 3637.740 3335.730 278.606 13.988 o
-5 2 9 3066.510 2859.580 339.731 11.417 o
-5 2 10 2221.200 1620.020 278.778 18.131 o
-5 2 11 1020.290 676.515 196.524 39.910 o
-5 2 12 5.603 0.268 120.433 113.500 o
-5 2 13 555.082 209.385 132.222 90.940 o
-5 3 1 14585.900 15068.200 613.083 1.535 o
-5 3 2 8835.700 8564.550 300.786 4.908 o
-5 3 3 145.108 224.225 61.325 427.040 o
-5 3 4 620.822 541.196 134.080 86.152 o
-5 3 5 381.576 349.740 75.962 265.054 o
-5 3 6 979.922 988.114 139.306 73.171 o
-5 3 7 2296.170 2235.080 210.925 26.954 o
-5 3 8 2873.240 2358.250 231.168 21.432 o
-5 3 9 625.372 482.050 121.434 104.095 o
-5 3 10 82.015 73.144 95.650 179.543 o
-5 3 11 11.505 -157.943 134.901 90.459 o
-5 3 12 694.322 86.808 108.778 130.577 o
-5 3 13 1100.220 673.299 219.566 32.186 o
-5 4 1 9800.280 9685.440 313.992 4.077 o
-5 4 2 3222.150 3002.140 127.296 34.328 o
-5 4 3 224.695 237.481 65.481 369.470 o
-5 4 4 3419.130 3024.160 307.915 12.720 o
-5 4 5 2187.040 1741.960 684.485 3.417 o
-5 4 6 2080.300 2008.680 168.382 39.294 o
-5 4 7 1606.860 1535.120 169.710 44.703 o
-5 4 8 124.612 50.660 117.151 119.670 o
-5 4 9 420.911 163.332 246.359 26.964 o
-5 4 10 605.087 78.721 407.181 9.894 o
-5 4 11 187.381 -314.680 665.931 3.712 o
-5 4 12 234.889 -1352.230 911.084 1.983 o
-5 5 1 472.490 435.799 87.210 198.723 o
-5 5 2 2.724 -6.436 35.835 1281.930 o
-5 5 3 2259.260 1779.690 593.558 4.493 o
-5 5 4 3945.870 3765.660 215.616 17.357 o
-5 5 5 2739.230 2710.820 198.937 25.950 o
-5 5 6 2186.460 2357.420 200.220 29.289 o
-5 5 7 744.403 773.236 248.636 25.867 o
-5 5 8 21.465 -119.043 121.374 111.742 o
-5 5 9 417.471 447.571 203.758 39.100 o
-5 6 1 218.681 443.017 185.673 47.373 o
-5 6 2 157.772 219.834 153.924 69.185 o
-5 6 3 2078.320 2148.370 354.333 11.784 o
-5 6 4 2486.300 2800.900 400.416 9.053 o
-5 6 5 2254.570 2356.950 378.312 10.296 o
-5 6 6 1421.190 1778.760 346.295 12.910 o
-5 6 7 1335.270 998.095 873.240 2.145 o
-5 6 8 443.622 370.007 174.018 53.371 o
-5 6 9 1.492 -97.927 154.996 68.525 o
-5 7 1 10.933 38.581 114.405 125.764 o
-5 7 2 77.429 68.991 119.093 115.922 o
-5 7 3 1033.080 1109.480 260.827 22.986 o
-5 7 4 1786.150 2088.220 349.108 12.352 o
-5 7 5 1429.780 1529.990 309.455 16.042 o
-5 7 6 2334.670 2517.040 389.699 9.670 o
-5 7 7 2816.310 2924.150 424.262 7.989 o
-5 7 8 717.081 725.009 217.556 33.603 o
-5 7 9 84.019 116.280 134.097 91.401 o
-5 7 10 465.643 522.725 230.953 30.434 o
-5 8 1 68.958 130.212 133.561 92.151 o
-5 8 2 442.482 360.495 174.822 52.908 o
-5 8 3 1746.880 2113.540 362.773 11.529 o
-5 8 4 1799.950 1946.750 352.056 12.204 o
-5 8 5 501.961 809.540 239.258 28.181 o
-5 8 6 626.372 770.691 236.445 28.698 o
-5 8 7 314.381 473.560 205.902 38.438 o
-5 8 8 3.825 -36.974 129.409 98.302 o
-5 8 9 549.275 679.328 228.273 30.924 o
-5 8 10 509.510 392.512 197.462 41.466 o
-5 9 1 450.179 456.145 204.562 38.734 o
-5 9 2 1137.030 1254.700 298.336 17.619 o
-5 9 3 1574.220 1988.280 346.965 12.685 o
-5 9 4 608.130 656.822 226.532 31.318 o
-5 9 5 50.173 173.482 150.173 72.910 o
-5 9 6 65.091 43.940 126.997 102.002 o
-5 9 7 277.480 219.030 151.914 70.680 o
-5 9 8 673.363 655.616 226.934 31.104 o
-5 9 9 893.600 1175.260 280.921 20.066 o
-5 10 1 598.623 488.028 202.954 39.009 o
-5 10 2 962.093 1302.120 308.919 16.606 o
-5 10 3 1087.380 1346.460 318.431 15.558 o
-5 10 4 212.335 339.731 197.194 42.110 o
-5 10 5 98.196 32.955 136.509 88.253 o
-5 10 6 407.719 292.978 166.382 58.542 o
-5 10 7 365.789 441.811 194.917 42.778 o
-5 11 1 356.007 388.895 202.017 39.916 o
-5 11 2 340.719 360.093 191.835 44.269 o
-5 11 3 555.564 745.908 255.736 24.708 o
-4 -13 1 146.081 61.355 122.175 109.960 o
-4 -13 2 107.026 273.687 163.167 61.637 o
-4 -12 1 77.260 142.001 150.039 73.026 o
-4 -12 2 8.455 -79.306 137.982 86.465 o
-4 -12 3 6.632 -5.760 130.748 96.297 o
-4 -12 4 37.423 113.735 136.777 87.937 o
-4 -11 1 24.536 149.905 139.858 84.101 o
-4 -11 2 247.951 310.259 178.305 51.406 o
-4 -11 3 632.845 602.969 214.073 34.974 o
-4 -11 4 1463.340 1726.650 328.746 14.219 o
-4 -11 5 1493.520 967.349 266.051 21.562 o
-4 -10 1 24.538 -65.508 107.573 142.250 o
-4 -10 2 1158.130 1299.980 280.787 19.716 o
-4 -10 3 3538.570 3476.350 418.099 7.677 o
-4 -10 4 4868.540 4827.500 512.008 4.876 o
-4 -10 5 3375.800 3329.390 432.835 7.365 o
-4 -10 6 1134.140 777.255 251.985 24.645 o
-4 -10 7 155.701 137.848 195.318 43.071 o
-4 -9 1 231.144 256.004 138.116 85.475 o
-4 -9 2 664.040 802.172 207.375 36.895 o
-4 -9 3 2984.260 2800.370 378.178 9.662 o
-4 -9 4 4185.690 3963.840 449.715 6.421 o
-4 -9 5 3426.730 3407.620 435.381 7.251 o
-4 -9 6 735.068 611.274 228.006 30.754 o
-4 -9 7 21.698 -27.462 153.388 69.967 o
-4 -8 1 171.086 314.412 160.622 63.431 o
-4 -8 2 52.506 98.195 116.280 121.620 o
-4 -8 3 28.388 87.746 133.160 92.803 o
-4 -8 4 1115.370 1094.880 245.153 25.708 o
-4 -8 5 1862.460 2230.490 368.533 11.090 o
-4 -8 6 194.510 463.915 203.222 39.612 o
-4 -8 7 63.025 -85.871 176.296 52.957 o
-4 -8 8 259.710 140.795 178.171 51.605 o
-4 -7 1 114.746 253.325 133.561 91.856 o
-4 -7 2 118.492 174.018 130.480 96.353 o
-4 -7 3 30.516 151.379 132.758 93.320 o
-4 -7 4 1405.850 1599.790 281.859 19.060 o
-4 -7 5 1766.930 1946.620 320.842 14.488 o
-4 -7 6 514.911 575.104 203.892 38.745 o
-4 -7 7 17.270 7.234 150.173 72.995 o
-4 -7 8 431.063 670.986 448.710 8.142 o
-4 -7 9 1954.350 2481.160 944.173 1.817 o
-4 -6 1 9547.570 11289.800 631.101 2.265 o
-4 -6 2 5181.450 5548.090 460.968 5.441 o
-4 -6 3 2583.140 3058.520 357.414 10.844 o
-4 -6 4 2329.800 2441.750 329.550 13.009 o
-4 -6 5 1702.440 2187.750 318.699 14.607 o
-4 -6 6 566.237 565.266 142.567 77.103 o
-4 -6 7 132.034 220.476 255.267 25.231 o
-4 -6 8 496.889 643.183 448.978 8.128 o
-4 -6 9 2410.220 2435.330 578.855 4.653 o
-4 -6 10 4098.430 3603.310 1037.880 1.461 o
-4 -5 1 35489.700 40411.200 1135.070 0.289 o
-4 -5 2 19635.500 22876.600 880.675 0.766 o
-4 -5 3 5562.450 6981.630 516.830 4.290 o
-4 -5 4 1549.940 1789.880 276.768 19.343 o
-4 -5 5 556.173 703.910 155.933 64.585 o
-4 -5 6 513.653 636.485 158.393 63.138 o
-4 -5 7 1259.850 1038.460 306.575 16.714 o
-4 -5 8 249.968 174.257 132.806 92.488 o
-4 -5 9 558.662 331.382 398.273 10.330 o
-4 -5 10 1554.440 1975.290 420.109 8.865 o
-4 -5 11 724.236 757.830 295.121 18.532 o
-4 -4 1 27585.500 30050.600 933.188 0.476 o
-4 -4 2 10838.400 11971.100 606.050 2.138 o
-4 -4 3 1889.500 1979.840 266.855 19.831 o
-4 -4 4 218.989 374.557 109.472 134.726 o
-4 -4 5 251.877 433.111 188.084 46.128 o
-4 -4 6 4295.530 2936.160 2011.260 0.402 o
-4 -4 7 2346.300 1857.270 307.312 15.006 o
-4 -4 8 103.760 164.507 139.054 84.921 o
-4 -4 9 31.341 -159.684 166.248 59.559 o
-4 -4 10 191.848 155.533 418.233 9.406 o
-4 -4 11 28.992 45.849 265.180 23.409 o
-4 -3 1 8286.650 8795.900 480.928 3.576 o
-4 -3 2 2048.450 2125.060 254.530 20.955 o
-4 -3 3 58.897 136.172 95.851 178.736 o
-4 -3 4 43.799 131.457 84.203 231.628 o
-4 -3 5 1927.400 1466.040 994.476 1.648 o
-4 -3 6 7366.930 7554.860 544.695 3.477 o
-4 -3 7 3656.000 2492.920 2097.330 0.371 o
-4 -3 8 900.277 865.537 229.345 29.861 o
-4 -3 9 324.300 89.746 240.263 28.422 o
-4 -3 10 130.034 100.269 520.782 6.069 o
-4 -3 11 74.309 46.159 283.399 20.494 o
-4 -3 12 29.989 99.211 244.684 27.492 o
-4 -2 1 1524.140 1415.050 188.888 38.493 o
-4 -2 2 69.645 92.971 64.570 393.030 o
-4 -2 3 65.205 177.501 99.937 164.276 o
-4 -2 4 172.410 96.045 69.774 333.408 o
-4 -2 5 2144.520 1968.190 262.032 19.932 o
-4 -2 6 10229.800 9665.450 583.946 2.480 o
-4 -2 7 14102.400 9529.350 7071.250 0.033 o
-4 -2 8 4903.390 3368.200 2696.680 0.224 o
-4 -2 9 2765.470 2824.620 391.709 9.234 o
-4 -2 10 878.573 996.419 258.951 23.601 o
-4 -2 11 31.296 197.998 179.913 50.821 o
-4 -2 12 305.864 251.985 175.894 52.756 o
-4 -1 1 4810.060 4829.110 321.378 9.271 o
-4 -1 2 1056.520 945.781 150.173 63.607 o
-4 -1 3 5.252 -23.652 54.384 556.587 o
-4 -1 4 78.898 95.114 78.502 266.145 o
-4 -1 5 2469.220 2905.930 292.710 15.303 o
-4 -1 6 13063.000 9617.930 6947.340 0.034 o
-4 -1 7 16832.100 14749.500 730.234 1.204 o
-4 -1 8 7020.240 7027.980 555.680 3.527 o
-4 -1 9 2645.370 2538.470 356.744 11.043 o
-4 -1 10 126.772 108.644 146.824 76.200 o
-4 -1 11 811.845 821.999 240.196 27.518 o
-4 -1 12 2183.080 2027.940 387.020 10.018 o
-4 -1 13 1226.140 979.138 293.915 18.175 o
-4 0 1 7575.780 6827.270 281.188 6.560 o
-4 0 2 764.378 657.814 97.794 146.137 o
-4 0 3 3164.160 3155.030 203.678 22.402 o
-4 0 4 1551.990 1445.300 148.141 56.166 o
-4 0 5 1541.010 1434.860 154.378 52.947 o
-4 0 6 6495.350 6057.690 414.750 5.467 o
-4 0 7 3407.110 3625.580 350.850 10.170 o
-4 0 8 1024.690 901.975 193.309 40.680 o
-4 0 9 25.806 175.358 154.862 68.591 o
-4 0 10 163.758 75.421 134.231 91.073 o
-4 0 11 1780.270 1725.050 326.067 14.160 o
-4 0 12 2946.400 3135.950 442.883 7.312 o
-4 0 13 2115.000 1185.040 300.346 16.357 o
-4 1 1 1137.760 1206.120 119.755 88.248 o
-4 1 2 7609.070 5967.020 2130.520 0.350 o
-4 1 3 8820.870 8997.140 332.646 4.533 o
-4 1 4 1824.510 1927.660 162.603 43.893 o
-4 1 5 326.620 298.324 75.175 275.585 o
-4 1 6 461.637 486.272 98.742 157.428 o
-4 1 7 63.275 100.975 59.819 457.702 o
-4 1 8 1126.340 1153.960 222.111 30.792 o
-4 1 9 459.203 608.863 175.626 51.973 o
-4 1 10 231.363 242.741 156.067 67.099 o
-4 1 11 1447.340 1247.730 264.577 21.630 o
-4 1 12 2739.210 1953.050 346.295 11.795 o
-4 1 13 1163.710 834.323 253.325 24.305 o
-4 2 1 696.475 600.594 96.052 154.720 o
-4 2 2 6096.600 5904.040 251.479 9.157 o
-4 2 3 9227.770 9310.470 324.383 4.337 o
-4 2 4 3539.820 3788.250 194.721 20.593 o
-4 2 5 1098.460 1121.530 114.907 96.147 o
-4 2 6 729.448 732.279 115.122 110.031 o
-4 2 7 108.187 102.784 61.522 430.809 o
-4 2 8 1224.930 1235.070 167.751 49.928 o
-4 2 9 39.345 42.106 70.107 334.587 o
-4 2 10 37.125 -38.447 96.856 175.448 o
-4 2 11 845.883 632.307 182.458 46.751 o
-4 2 12 1422.060 978.468 247.028 24.859 o
-4 2 13 1164.180 891.392 244.617 25.914 o
-4 3 1 25.237 -9.913 35.902 1276.260 o
-4 3 2 5224.180 4860.730 248.569 11.339 o
-4 3 3 12543.600 11996.300 233.393 3.027 o
-4 3 4 8789.140 8318.920 316.541 4.859 o
-4 3 5 6741.050 6917.720 357.682 5.964 o
-4 3 6 5548.970 5926.690 274.649 9.219 o
-4 3 7 1130.880 1032.910 138.713 71.254 o
-4 3 8 92.675 105.919 80.731 251.418 o
-4 3 9 332.501 286.655 96.951 169.334 o
-4 3 10 402.379 291.504 127.399 98.823 o
-4 3 11 630.924 440.605 147.895 71.874 o
-4 3 12 1325.850 943.235 245.957 25.290 o
-4 4 1 156.275 137.599 28.224 1895.100 o
-4 4 2 7869.890 7490.380 348.572 5.251 o
-4 4 3 14584.100 13965.700 484.862 1.835 o
-4 4 4 11094.400 10763.300 465.327 2.731 o
-4 4 5 8306.310 8860.970 356.138 4.602 o
-4 4 6 7693.750 8153.840 363.559 4.998 o
-4 4 7 518.033 575.956 115.368 115.651 o
-4 4 8 1701.120 1722.230 192.130 35.588 o
-4 4 9 3105.260 2392.850 233.275 20.386 o
-4 4 10 1401.200 988.247 221.977 30.269 o
-4 4 11 926.819 653.741 197.864 39.776 o
-4 5 1 2391.610 1820.810 233.163 23.557 o
-4 5 2 6747.530 5790.800 1203.520 1.041 o
-4 5 3 6067.360 5994.430 234.264 9.581 o
-4 5 4 2295.810 2460.800 169.397 35.485 o
-4 5 5 1428.720 1528.800 152.864 54.487 o
-4 5 6 869.705 801.107 121.820 96.064 o
-4 5 7 1013.580 1025.350 145.004 67.630 o
-4 5 8 4794.580 4940.620 330.614 8.926 o
-4 5 9 3410.780 3768.250 776.116 2.563 o
-4 6 1 2221.560 2426.070 219.453 25.346 o
-4 6 2 3594.570 3122.200 231.007 18.052 o
-4 6 3 242.839 323.521 172.277 55.035 o
-4 6 4 878.309 1196.560 247.028 25.672 o
-4 6 5 732.044 777.925 213.270 34.824 o
-4 6 6 995.512 835.797 223.987 31.053 o
-4 6 7 1559.510 2213.740 334.506 13.492 o
-4 6 8 3069.150 3461.340 435.113 7.412 o
-4 6 9 2081.970 2092.240 354.869 11.771 o
-4 6 10 1759.340 1820.560 337.454 13.274 o
-4 7 1 1551.660 1759.470 316.421 15.167 o
-4 7 2 981.407 860.982 217.690 32.776 o
-4 7 3 12.090 22.372 88.282 211.204 o
-4 7 4 892.749 964.268 226.532 30.482 o
-4 7 5 1249.140 1353.160 261.898 22.286 o
-4 7 7 509.519 783.551 207.643 37.184 o
-4 7 8 1110.130 1389.600 281.859 19.579 o
-4 7 9 980.738 793.812 718.914 3.169 o
-4 7 10 859.640 841.492 597.275 4.585 o
-4 7 11 643.442 612.614 214.073 34.943 o
-4 8 1 2912.300 2852.210 396.129 8.961 o
-4 8 2 3566.980 3737.840 441.945 6.935 o
-4 8 3 907.639 1056.700 240.598 27.066 o
-4 8 4 4.521 -6.698 93.238 189.363 o
-4 8 5 175.776 211.260 137.714 86.289 o
-4 8 6 67.486 147.092 139.456 84.524 o
-4 8 7 741.352 912.692 230.417 29.859 o
-4 8 8 1180.520 1153.420 262.836 22.404 o
-4 8 9 680.776 621.590 202.552 38.801 o
-4 8 10 249.097 214.609 146.556 76.005 o
-4 8 11 296.359 320.038 158.077 65.107 o
-4 8 12 73.635 132.222 142.537 80.917 o
-4 9 1 2926.050 2962.060 423.860 7.941 o
-4 9 2 3848.080 4154.340 484.277 5.786 o
-4 9 3 1837.040 1961.890 329.282 13.750 o
-4 9 4 29.410 54.255 99.803 165.198 o
-4 9 5 187.597 332.229 154.862 68.138 o
-4 9 6 649.961 834.859 226.934 30.990 o
-4 9 7 1159.520 1410.500 303.427 16.968 o
-4 9 8 1091.640 1136.280 259.889 23.036 o
-4 9 9 259.097 435.917 179.645 50.503 o
-4 9 10 5.725 15.674 115.610 123.164 o
-4 9 11 19.824 -27.462 105.027 149.232 o
-4 9 12 102.896 75.287 122.844 108.885 o
-4 10 1 1118.760 1125.020 279.447 20.048 o
-4 10 2 831.535 1064.470 267.793 22.139 o
-4 10 3 71.461 191.835 152.048 71.085 o
-4 10 4 439.214 486.689 192.505 43.642 o
-4 10 5 1291.380 1570.850 303.293 16.777 o
-4 10 6 1213.070 1676.820 318.297 15.342 o
-4 10 7 1146.370 1668.510 324.057 14.885 o
-4 10 8 480.076 608.327 201.481 39.697 o
-4 10 9 2.761 -52.916 116.816 120.637 o
-4 10 10 299.201 344.955 173.081 54.378 o
-4 11 1 20.971 -150.039 146.020 77.206 o
-4 11 2 51.775 -33.625 121.103 112.219 o
-4 11 3 585.479 483.875 204.964 38.298 o
-4 11 4 1082.510 1284.570 297.265 17.778 o
-4 11 5 1222.420 1580.770 324.057 14.860 o
-4 11 6 577.635 839.548 246.091 26.562 o
-4 11 7 454.476 627.216 219.164 33.684 o
-4 11 8 307.930 478.785 202.419 39.764 o
-4 12 1 195.406 106.233 148.163 74.691 o
-4 12 2 290.628 236.579 159.684 63.963 o
-4 12 3 374.095 443.285 202.686 39.585 o
-4 12 4 689.135 686.428 225.862 31.338 o
-3 -13 1 1629.240 2493.990 576.578 4.782 o
-3 -12 1 902.005 1036.880 228.541 29.875 o
-3 -12 2 1085.120 976.860 239.392 27.061 o
-3 -12 3 1116.230 1295.960 270.472 21.218 o
-3 -12 4 716.036 635.790 217.556 33.698 o
-3 -12 5 140.823 -49.968 164.105 61.064 o
-3 -12 6 8.370 -97.525 156.603 67.125 o
-3 -11 1 62.896 61.221 106.635 144.615 o
-3 -11 2 347.572 369.203 160.220 63.137 o
-3 -11 3 1356.480 1342.850 272.079 20.609 o
-3 -11 4 1192.170 1190.530 264.577 22.082 o
-3 -11 5 22.954 -46.887 157.809 66.102 o
-3 -11 6 142.291 -8.708 156.067 67.507 o
-3 -11 7 445.171 382.867 229.345 30.958 o
-3 -10 1 77.742 99.401 118.290 117.456 o
-3 -10 2 787.380 924.882 206.169 36.804 o
-3 -10 3 2389.170 2469.610 333.569 12.667 o
-3 -10 4 1868.110 1847.220 308.651 15.478 o
-3 -10 5 64.689 102.080 125.390 104.577 o
-3 -10 6 286.451 224.924 156.335 66.737 o
-3 -10 7 1089.860 1026.960 299.542 17.628 o
-3 -10 8 1728.530 2232.100 429.754 8.390 o
-3 -9 1 3263.180 3818.090 375.767 9.183 o
-3 -9 2 2136.740 2435.590 316.287 14.185 o
-3 -9 3 2275.810 2250.990 308.517 14.745 o
-3 -9 4 1427.100 1557.590 281.055 19.160 o
-3 -9 5 0.345 -40.725 119.093 116.068 o
-3 -9 6 923.562 841.825 228.943 29.938 o
-3 -9 7 2087.650 2204.100 386.618 10.041 o
-3 -9 8 2950.220 3167.700 480.124 6.337 o
-3 -9 9 2527.780 3090.930 496.870 6.086 o
-3 -8 1 7092.730 7881.860 531.164 3.615 o
-3 -8 2 727.803 902.243 199.203 39.515 o
-3 -8 3 174.515 281.055 139.992 83.400 o
-3 -8 4 278.668 395.058 163.569 60.796 o
-3 -8 5 49.917 23.712 108.108 140.788 o
-3 -8 6 413.601 258.013 168.660 57.031 o
-3 -8 7 324.431 250.109 168.258 57.563 o
-3 -8 8 756.046 955.778 256.741 24.180 o
-3 -8 9 1147.260 1975.970 359.022 12.159 o
-3 -8 10 641.678 1256.980 387.690 10.788 o
-3 -7 1 3221.090 3722.170 349.242 10.371 o
-3 -7 2 34.606 46.351 89.889 203.617 o
-3 -7 3 25.531 15.406 100.071 164.364 o
-3 -7 4 9.417 -7.904 89.755 204.342 o
-3 -7 5 1010.480 1244.520 242.206 26.357 o
-3 -7 6 420.141 556.121 139.861 81.275 o
-3 -7 7 65.760 75.880 116.289 121.595 o
-3 -7 8 134.743 226.245 432.969 8.777 o
-3 -7 9 684.385 1235.290 290.767 18.931 o
-3 -7 10 359.231 638.991 214.276 35.349 o
-3 -7 11 41.989 627.752 410.196 9.773 o
-3 -6 1 2888.440 3274.870 316.421 12.734 o
-3 -6 2 74.748 120.835 105.697 147.012 o
-3 -6 3 153.550 125.792 120.835 112.234 o
-3 -6 4 2327.600 2364.590 301.149 15.211 o
-3 -6 5 5446.470 5870.800 440.136 5.605 o
-3 -6 6 1728.480 1909.240 233.766 25.368 o
-3 -6 7 437.880 505.844 155.175 66.491 o
-3 -6 8 628.591 339.483 248.904 26.189 o
-3 -6 9 776.859 727.489 592.118 4.671 o
-3 -6 10 351.978 695.269 254.932 25.061 o
-3 -6 11 5.526 103.688 182.860 49.225 o
-3 -5 1 1851.330 2162.170 253.459 21.525 o
-3 -5 2 21.900 49.834 80.244 255.535 o
-3 -5 3 441.785 567.736 151.111 69.803 o
-3 -5 4 8242.650 8523.680 1108.810 1.134 o
-3 -5 5 22463.600 20918.900 3225.630 0.138 o
-3 -5 6 13296.100 10707.300 7463.030 0.029 o
-3 -5 7 6874.800 6263.190 539.872 3.793 o
-3 -5 8 953.746 1358.660 272.347 21.114 o
-3 -5 9 953.422 1140.580 764.930 2.798 o
-3 -5 10 2.006 143.073 224.388 32.690 o
-3 -5 11 717.433 835.127 284.538 19.883 o
-3 -5 12 508.095 259.219 199.605 40.727 o
-3 -4 1 370.744 317.627 100.740 156.073 o
-3 -4 2 382.101 561.976 138.786 82.777 o
-3 -4 3 3053.090 3716.010 338.391 11.061 o
-3 -4 4 11825.900 9912.420 6738.290 0.036 o
-3 -4 5 24209.300 26640.200 944.575 0.568 o
-3 -4 6 21969.400 14889.900 11802.200 0.012 o
-3 -4 7 2886.990 3561.950 400.684 8.594 o
-3 -4 8 71.617 284.996 564.387 5.167 o
-3 -4 9 848.244 2555.390 3611.180 0.126 o
-3 -4 10 1142.360 937.769 521.452 5.973 o
-3 -4 11 1899.410 1554.900 1534.010 0.697 o
-3 -4 12 465.304 137.652 450.719 8.087 o
-3 -3 1 461.691 194.917 73.814 279.330 o
-3 -3 2 3817.810 4481.470 333.569 10.068 o
-3 -3 3 925.355 1143.910 184.467 44.230 o
-3 -3 4 2513.410 2899.370 296.729 14.911 o
-3 -3 5 9973.650 9512.330 545.365 2.716 o
-3 -3 6 4616.120 3145.730 2418.510 0.279 o
-3 -3 7 91.086 8.708 109.180 137.952 o
-3 -3 8 149.785 217.021 142.537 80.650 o
-3 -3 9 1019.720 1533.210 303.829 16.997 o
-3 -3 10 3526.760 2902.720 415.822 7.908 o
-3 -3 11 4138.860 3547.480 494.191 5.600 o
-3 -3 12 869.623 492.449 232.426 29.505 o
-3 -3 13 44.222 -80.110 216.485 35.124 o
-3 -2 1 7405.740 8295.410 409.124 4.607 o
-3 -2 2 8921.600 8785.450 441.141 3.684 o
-3 -2 3 783.721 841.423 150.307 66.765 o
-3 -2 4 1777.160 1574.600 208.715 31.107 o
-3 -2 5 980.606 954.622 174.956 48.944 o
-3 -2 6 255.349 258.147 107.706 139.380 o
-3 -2 7 12.377 18.085 89.889 203.721 o
-3 -2 8 678.660 398.943 126.059 96.902 o
-3 -2 9 252.772 217.958 147.762 74.761 o
-3 -2 10 2732.440 2970.230 410.196 8.504 o
-3 -2 11 5161.030 4650.400 543.757 4.385 o
-3 -2 12 2002.470 1646.940 348.305 12.407 o
-3 -2 13 289.342 188.486 158.345 65.113 o
-3 -1 1 12107.700 12264.400 545.632 2.135 o
-3 -1 2 8559.410 9021.260 522.524 3.189 o
-3 -1 3 1135.670 1142.210 106.796 105.856 o
-3 -1 4 913.889 949.398 152.450 63.352 o
-3 -1 5 1966.290 2339.270 252.253 21.206 o
-3 -1 6 517.066 591.850 148.699 71.413 o
-3 -1 7 111.294 52.394 95.248 180.921 o
-3 -1 8 12.529 -82.387 111.190 133.153 o
-3 -1 9 78.869 180.716 143.341 79.963 o
-3 -1 10 3518.970 3691.360 435.783 7.131 o
-3 -1 11 7348.850 6350.930 604.978 3.144 o
-3 -1 12 3845.840 2758.300 436.050 7.189 o
-3 -1 13 1114.100 693.796 238.053 27.572 o
-3 0 1 27767.200 28297.100 489.825 0.601 o
-3 0 2 45265.400 45883.100 586.381 0.236 o
-3 0 3 25218.800 25560.700 965.875 0.551 o
-3 0 4 13118.000 13059.000 372.556 2.392 o
-3 0 5 6880.830 6968.970 288.009 6.980 o
-3 0 6 615.635 618.642 135.437 84.159 o
-3 0 7 823.291 1219.070 203.356 37.181 o
-3 0 8 713.035 847.720 195.854 40.952 o
-3 0 9 1084.660 1053.090 223.853 30.596 o
-3 0 10 2894.430 2536.730 358.620 10.741 o
-3 0 11 3985.780 3671.670 450.251 6.560 o
-3 0 12 1477.500 1396.840 311.599 15.855 o
-3 0 13 156.820 -128.203 203.490 39.722 o
-3 0 14 10.420 -191.969 227.470 31.816 o
-3 1 1 39638.500 38341.400 7416.860 0.027 o
-3 1 2 65844.700 68967.000 816.003 0.110 o
-3 1 3 24235.700 26568.700 411.358 0.758 o
-3 1 4 12278.700 12014.900 352.461 2.743 o
-3 1 5 5184.880 5174.240 244.879 11.280 o
-3 1 6 340.778 348.606 81.048 236.990 o
-3 1 7 8458.390 8860.800 367.786 4.429 o
-3 1 8 6667.170 6557.230 476.507 4.475 o
-3 1 9 1312.160 1449.480 252.923 23.559 o
-3 1 10 275.955 259.621 137.178 86.405 o
-3 1 11 374.881 263.908 156.201 66.475 o
-3 1 12 0.617 -148.163 189.826 45.685 o
-3 1 13 283.054 185.405 156.335 66.806 o
-3 2 1 14389.800 13869.300 289.038 2.253 o
-3 2 2 17849.000 18818.500 295.349 1.438 o
-3 2 3 2906.740 2699.300 112.050 42.937 o
-3 2 4 618.921 552.748 69.868 273.349 o
-3 2 5 177.681 204.468 100.673 160.659 o
-3 2 6 6935.310 7227.000 399.545 5.177 o
-3 2 7 15119.100 15403.100 575.238 1.536 o
-3 2 8 5793.100 5799.120 317.138 7.910 o
-3 2 9 374.879 350.066 98.530 162.372 o
-3 2 10 118.493 27.195 91.497 196.059 o
-3 2 11 3.319 -61.891 126.729 102.502 o
-3 2 12 386.634 291.370 174.420 53.404 o
-3 3 1 1164.990 1135.470 230.273 28.730 o
-3 3 2 49.803 40.569 16.761 5717.680 o
-3 3 3 3581.780 3620.510 112.540 30.460 o
-3 3 4 711.666 757.984 76.051 220.177 o
-3 3 5 22.777 9.305 42.918 893.223 o
-3 3 6 4681.470 4758.880 276.241 11.178 o
-3 3 7 7125.960 7922.540 383.126 5.117 o
-3 3 8 6168.750 6525.890 479.723 4.615 o
-3 3 9 2636.050 2516.980 230.981 21.967 o
-3 3 10 1832.620 1408.890 263.372 20.964 o
-3 3 11 153.812 57.523 137.580 86.754 o
-3 3 12 366.297 405.239 474.364 7.301 o
-3 4 1 3163.610 2720.050 105.856 40.819 o
-3 4 2 38.821 24.158 17.419 5360.410 o
-3 4 3 2163.140 2195.120 85.726 73.226 o
-3 4 4 96.001 104.995 32.492 1514.340 o
-3 4 5 246.446 354.037 61.932 402.424 o
-3 4 6 1478.120 1558.620 162.472 48.922 o
-3 4 7 7082.990 7688.600 377.150 5.273 o
-3 4 8 7540.600 8090.900 635.120 2.769 o
-3 4 9 5001.580 4946.060 468.336 5.508 o
-3 4 10 2800.350 2618.310 328.612 12.469 o
-3 5 1 11577.400 6632.580 6733.060 0.036 o
-3 5 2 2818.950 2735.910 89.938 49.827 o
-3 5 3 386.896 393.455 42.914 707.617 o
-3 5 4 712.181 739.067 53.658 362.236 o
-3 5 5 311.956 283.657 49.171 607.269 o
-3 5 6 1936.880 2172.430 187.055 34.298 o
-3 5 7 7516.590 7838.330 594.395 3.052 o
-3 5 8 4687.950 5047.200 477.043 5.458 o
-3 5 9 1274.470 1131.860 246.358 25.128 o
-3 5 10 458.523 579.525 190.362 44.451 o
-3 6 1 11878.300 10456.700 408.897 2.820 o
-3 6 2 1603.920 1797.980 151.082 51.863 o
-3 6 3 1517.380 1471.760 126.584 70.806 o
-3 6 4 4850.350 4473.790 245.827 12.479 o
-3 6 5 2616.000 2500.090 162.976 34.416 o
-3 6 6 3609.120 3733.960 389.297 8.476 o
-3 6 7 1579.720 1717.280 281.457 18.775 o
-3 6 8 28.959 -73.010 103.018 155.101 o
-3 6 9 495.469 655.080 198.266 40.876 o
-3 6 10 202.473 240.330 138.250 85.468 o
-3 6 11 570.123 687.098 210.858 36.062 o
-3 7 1 1724.730 1424.160 261.228 21.465 o
-3 7 2 32.624 -18.954 62.092 426.823 o
-3 7 3 5212.720 4619.460 258.616 11.167 o
-3 7 4 5738.950 5854.460 493.655 4.696 o
-3 7 5 2654.460 3107.410 360.495 10.610 o
-3 7 6 1659.860 1764.830 277.974 19.038 o
-3 7 7 260.510 299.140 129.007 97.513 o
-3 7 8 764.434 845.308 206.169 36.984 o
-3 7 9 2011.230 2169.270 318.699 14.289 o
-3 7 10 901.294 1035.540 238.589 27.533 o
-3 7 11 703.140 718.177 203.892 38.126 o
-3 7 12 765.580 1004.460 240.464 27.386 o
-3 8 1 34.748 45.280 95.382 180.855 o
-3 8 2 818.383 561.038 187.683 44.560 o
-3 8 3 5047.760 4706.530 466.996 5.561 o
-3 8 4 3791.450 3424.100 393.316 8.322 o
-3 8 5 1551.420 1529.190 273.821 19.927 o
-3 8 6 1143.330 1387.190 254.396 23.680 o
-3 8 7 643.199 789.446 205.500 37.616 o
-3 8 8 8.829 -5.760 110.520 134.773 o
-3 8 9 522.015 627.618 190.898 43.974 o
-3 8 10 200.433 308.919 145.350 77.266 o
-3 8 11 190.964 214.609 130.212 96.372 o
-3 8 12 269.855 328.076 159.014 64.422 o
-3 9 1 200.478 77.833 106.099 145.187 o
-3 9 2 690.952 695.269 210.188 36.011 o
-3 9 3 1696.570 1669.580 306.374 15.985 o
-3 9 4 1350.620 1137.080 245.287 25.169 o
-3 9 5 1746.200 1969.800 311.867 15.260 o
-3 9 6 3332.630 3734.630 417.162 7.747 o
-3 9 7 1824.000 2309.130 335.444 13.154 o
-3 9 8 83.395 159.818 120.433 113.204 o
-3 9 9 94.135 112.529 130.614 96.314 o
-3 9 10 345.251 390.503 153.656 68.518 o
-3 9 11 524.781 513.079 183.664 47.577 o
-3 9 12 495.435 625.341 210.456 36.404 o
-3 10 1 80.042 -173.081 177.233 52.392 o
-3 10 2 786.608 817.846 227.738 30.543 o
-3 10 3 2200.760 2129.480 352.591 11.801 o
-3 10 4 1383.270 1332.130 288.691 18.431 o
-3 10 5 1370.320 1175.130 261.094 22.359 o
-3 10 6 1335.630 1455.240 282.395 19.185 o
-3 10 7 434.742 540.274 194.113 42.885 o
-3 10 8 10.787 90.023 106.501 145.081 o
-3 10 9 588.671 746.845 212.332 35.477 o
-3 10 10 1169.060 1500.120 292.710 18.106 o
-3 10 11 427.808 559.833 193.175 43.288 o
-3 10 12 591.354 661.511 210.322 36.224 o
-3 11 1 591.022 364.514 170.937 54.745 o
-3 11 2 1439.600 1314.050 302.891 16.798 o
-3 11 3 1696.190 1790.960 342.946 12.945 o
-3 11 4 442.231 328.344 179.377 50.344 o
-3 11 5 9.946 -18.889 131.150 95.707 o
-3 11 6 23.855 -13.128 100.472 163.064 o
-3 11 7 179.595 180.047 128.471 99.121 o
-3 11 8 679.441 944.307 242.741 27.071 o
-3 11 9 1314.370 1794.440 324.861 14.634 o
-3 11 10 637.238 927.294 241.670 27.378 o
-3 11 11 589.805 740.549 223.317 32.164 o
-3 12 1 817.654 622.393 227.336 30.773 o
-3 12 2 1142.380 1140.430 288.959 18.777 o
-3 12 3 473.530 404.971 184.200 47.606 o
-3 12 4 8.125 -51.040 124.586 106.059 o
-3 12 5 420.286 484.947 203.356 39.215 o
-3 12 6 532.356 369.605 186.611 46.300 o
-3 12 7 396.120 550.455 206.437 38.056 o
-3 12 8 841.759 1007.810 266.721 22.331 o
-3 12 9 616.847 725.813 225.594 31.501 o
-2 -13 1 1099.510 1274.790 415.152 9.319 o
-2 -13 2 1323.680 2114.480 538.532 5.523 o
-2 -12 1 960.286 1850.170 441.543 8.230 o
-2 -12 2 897.352 1575.680 453.466 7.851 o
-2 -12 3 231.545 598.682 365.452 12.289 o
-2 -12 4 449.326 1084.030 436.184 8.589 o
-2 -12 5 1218.020 1978.240 583.946 4.732 o
-2 -11 1 230.445 281.737 180.449 50.254 o
-2 -11 2 313.409 326.469 144.144 78.016 o
-2 -11 3 228.687 255.870 146.556 76.004 o
-2 -11 4 78.139 91.095 123.514 107.754 o
-2 -11 5 293.862 153.924 139.858 83.328 o
-2 -11 6 578.807 732.377 264.176 23.167 o
-2 -11 7 377.646 434.309 251.315 25.858 o
-2 -11 8 487.901 860.044 313.742 16.523 o
-2 -10 1 50.639 75.823 106.635 144.631 o
-2 -10 2 176.845 122.041 102.214 156.362 o
-2 -10 3 382.360 440.605 160.354 62.760 o
-2 -10 4 13.345 -52.782 130.212 97.090 o
-2 -10 5 197.768 94.846 123.648 107.075 o
-2 -10 6 104.087 21.434 138.652 85.548 o
-2 -10 7 720.389 813.425 277.036 20.956 o
-2 -10 8 1217.050 1426.570 378.848 11.061 o
-2 -10 9 233.748 220.102 248.904 26.500 o
-2 -9 1 8.443 2.813 77.967 270.807 o
-2 -9 2 90.135 111.859 92.971 189.790 o
-2 -9 3 957.463 894.205 189.022 42.718 o
-2 -9 4 2907.640 2983.900 360.763 10.439 o
-2 -9 5 1635.510 1720.760 301.953 16.455 o
-2 -9 6 623.477 477.847 188.620 44.934 o
-2 -9 7 1411.070 1891.290 378.178 10.908 o
-2 -9 8 1139.820 1422.960 346.563 13.171 o
-2 -9 9 180.561 306.910 216.753 34.922 o
-2 -9 10 185.521 455.107 268.328 22.787 o
-2 -8 1 2239.590 2172.750 254.664 20.425 o
-2 -8 2 4761.490 4865.010 391.575 7.252 o
-2 -8 3 12178.000 12162.700 643.158 1.853 o
-2 -8 4 13405.000 13419.800 705.585 1.533 o
-2 -8 5 5903.740 6124.130 514.821 4.338 o
-2 -8 6 1571.640 1790.550 307.848 15.916 o
-2 -8 7 260.177 409.678 123.091 106.488 o
-2 -8 8 296.812 408.465 155.196 67.349 o
-2 -8 9 10.156 159.489 261.898 23.997 o
-2 -8 10 397.691 638.538 239.392 28.363 o
-2 -8 11 827.005 1354.640 435.113 8.550 o
-2 -7 1 3570.920 4125.000 336.516 10.392 o
-2 -7 2 5316.820 6394.470 431.898 5.682 o
-2 -7 3 14224.300 15812.000 699.422 1.388 o
-2 -7 4 17581.500 18758.600 803.780 0.980 o
-2 -7 5 8103.470 8245.840 569.880 3.063 o
-2 -7 6 463.598 530.978 123.581 102.703 o
-2 -7 7 988.776 1031.690 178.790 46.783 o
-2 -7 8 483.819 385.204 159.500 63.094 o
-2 -7 9 580.485 518.976 185.471 46.498 o
-2 -7 10 642.896 413.736 339.865 14.126 o
-2 -7 11 121.079 -51.844 217.422 34.809 o
-2 -6 1 791.342 721.124 142.939 73.755 o
-2 -6 2 1522.970 1670.390 217.690 29.767 o
-2 -6 3 2795.460 2788.180 288.289 15.230 o
-2 -6 4 4594.950 5166.930 351.654 8.356 o
-2 -6 5 3949.610 3712.400 245.310 15.221 o
-2 -6 6 253.372 286.908 111.912 129.131 o
-2 -6 7 912.970 1118.060 236.713 27.847 o
-2 -6 8 441.637 884.426 253.459 25.190 o
-2 -6 9 1499.890 845.422 842.629 2.301 o
-2 -6 10 1599.900 851.716 898.291 2.025 o
-2 -6 11 188.469 -150.173 208.581 37.795 o
-2 -6 12 77.507 -264.979 264.711 23.490 o
-2 -5 1 69.658 66.848 59.614 461.265 o
-2 -5 2 1730.650 1849.500 215.949 29.049 o
-2 -5 3 85.974 116.671 56.267 515.144 o
-2 -5 4 4195.060 3570.710 1486.390 0.728 o
-2 -5 5 3703.580 2327.630 2011.860 0.403 o
-2 -5 6 23.311 -4.957 116.414 121.465 o
-2 -5 7 474.304 263.104 130.614 93.628 o
-2 -5 8 2012.550 1330.730 1311.500 0.951 o
-2 -5 9 5322.670 3614.110 2845.580 0.202 o
-2 -5 10 5493.650 4016.530 3253.770 0.154 o
-2 -5 11 1771.980 996.748 973.176 1.725 o
-2 -5 12 119.952 -188.696 220.437 33.864 o
-2 -5 13 20.031 -553.536 572.827 5.017 o
-2 -4 1 15802.300 15889.700 571.487 1.458 o
-2 -4 2 176.802 239.526 86.272 217.520 o
-2 -4 3 1211.980 937.719 511.070 6.207 o
-2 -4 4 7602.900 9218.150 489.368 3.644 o
-2 -4 5 3544.410 3775.490 336.248 10.617 o
-2 -4 6 30.685 -77.036 107.150 143.368 o
-2 -4 7 1229.860 1216.390 222.647 30.272 o
-2 -4 8 2119.850 2416.430 345.357 12.191 o
-2 -4 9 10108.800 10937.700 757.027 1.792 o
-2 -4 10 12978.500 11144.800 810.210 1.436 o
-2 -4 11 3901.170 3078.480 465.121 6.369 o
-2 -4 12 271.882 191.701 159.416 64.290 o
-2 -4 13 44.428 -132.222 228.139 31.627 o
-2 -3 1 46030.000 35678.100 30136.100 0.002 o
-2 -3 2 28781.400 32764.300 809.004 0.463 o
-2 -3 3 11621.100 13013.300 526.878 2.209 o
-2 -3 4 4497.880 4603.920 332.229 9.344 o
-2 -3 5 10.610 36.840 82.120 244.071 o
-2 -3 6 2047.330 2427.590 174.295 36.169 o
-2 -3 7 2365.370 3176.960 357.481 10.972 o
-2 -3 8 1943.140 2032.220 303.293 15.761 o
-2 -3 9 6428.660 5313.750 3186.050 0.160 o
-2 -3 10 4370.670 4419.620 2926.900 0.191 o
-2 -3 11 946.819 806.190 244.880 26.314 o
-2 -3 12 52.463 3.979 186.758 47.193 o
-2 -3 13 690.171 444.767 191.642 43.422 o
-2 -2 1 84846.000 84813.800 1155.970 0.068 o
-2 -2 2 9174.110 6785.230 6215.490 0.042 o
-2 -2 3 1082.230 1165.610 156.469 57.908 o
-2 -2 4 22.016 35.274 34.499 1380.560 o
-2 -2 5 1935.510 1967.900 136.246 53.634 o
-2 -2 6 9639.080 10367.800 531.298 2.767 o
-2 -2 7 1768.230 2215.840 142.319 51.399 o
-2 -2 8 99.051 124.318 107.840 141.106 o
-2 -2 9 129.209 181.520 120.433 112.964 o
-2 -2 10 475.880 382.733 165.177 58.968 o
-2 -2 11 4.635 -47.423 136.910 87.824 o
-2 -2 12 399.945 108.778 134.097 90.076 o
-2 -2 13 413.627 130.882 160.086 63.428 o
-2 -1 1 24293.800 24487.500 1608.630 0.367 o
-2 -1 2 1990.540 1871.660 110.368 67.553 o
-2 -1 3 67.284 110.789 34.789 1336.570 o
-2 -1 4 719.839 792.417 78.019 209.451 o
-2 -1 5 6776.880 7273.800 408.320 5.127 o
-2 -1 6 18511.900 20118.700 758.768 0.947 o
-2 -1 7 2987.190 3390.070 340.133 11.207 o
-2 -1 8 569.921 552.063 163.971 58.993 o
-2 -1 9 24.538 88.282 91.497 196.483 o
-2 -1 10 346.922 275.964 148.565 73.471 o
-2 -1 11 1.178 -116.414 177.099 52.487 o
-2 -1 12 231.210 -18.889 191.166 44.953 o
-2 -1 13 148.996 -237.785 227.872 31.684 o
-2 0 1 599.866 596.425 64.484 310.250 o
-2 0 2 460.641 513.758 49.968 509.740 o
-2 0 3 76.746 134.726 33.054 1467.050 o
-2 0 4 43.659 61.996 34.066 1408.900 o
-2 0 5 10151.000 10879.900 432.433 3.089 o
-2 0 6 25743.400 28441.200 883.354 0.539 o
-2 0 7 10576.700 10753.000 572.291 2.387 o
-2 0 8 2558.580 1680.350 1315.990 0.942 o
-2 0 9 2647.950 1454.640 1227.370 1.081 o
-2 0 10 728.496 638.335 170.401 53.800 o
-2 0 11 283.417 144.144 146.020 76.562 o
-2 0 12 173.933 25.185 165.981 59.648 o
-2 1 1 4768.620 5197.510 118.502 18.032 o
-2 1 2 22.459 48.010 21.402 3570.180 o
-2 1 3 15.472 60.237 22.149 3335.630 o
-2 1 4 223.693 259.039 39.805 934.290 o
-2 1 5 15386.200 17210.700 1060.250 0.847 o
-2 1 6 30491.600 32396.200 575.802 0.479 o
-2 1 7 30183.900 30539.700 591.446 0.500 o
-2 1 8 11377.200 10416.300 609.667 2.157 o
-2 1 9 3430.610 3083.570 366.791 9.699 o
-2 1 10 0.088 -96.588 133.829 91.915 o
-2 1 11 2120.770 1747.680 325.129 13.895 o
-2 1 13 746.069 444.222 559.565 5.235 o
-2 2 1 228.403 249.598 21.704 2537.980 o
-2 2 2 4974.130 5612.580 142.931 15.445 o
-2 2 3 1962.880 2117.030 85.695 80.949 o
-2 2 4 3109.350 3272.740 124.344 34.646 o
-2 2 5 9938.930 9942.460 283.960 4.146 o
-2 2 6 25684.500 27025.100 631.448 0.637 o
-2 2 7 11100.000 11342.000 587.295 2.209 o
-2 2 8 558.481 624.939 101.107 145.654 o
-2 2 9 7.885 13.359 77.498 274.086 o
-2 2 10 695.975 480.392 163.033 59.158 o
-2 2 15 62.832 227.336 521.653 6.049 o
-2 3 1 594.683 692.459 37.817 611.938 o
-2 3 2 14401.400 14608.200 169.968 2.354 o
-2 3 3 10305.800 11124.400 301.783 3.663 o
-2 3 4 2116.800 2268.420 104.865 63.221 o
-2 3 5 393.407 358.403 60.371 400.408 o
-2 3 6 2722.170 2943.180 214.749 23.138 o
-2 3 7 116.637 141.492 78.502 264.979 o
-2 3 8 1408.520 1385.180 229.211 27.987 o
-2 3 10 1221.350 1198.970 192.773 39.308 o
-2 4 1 2228.380 1784.120 126.997 54.898 o
-2 4 2 16101.900 15679.000 314.144 1.800 o
-2 4 3 10470.700 10987.900 157.074 4.249 o
-2 4 4 852.879 918.388 62.703 257.952 o
-2 4 5 153.785 218.681 39.274 1003.200 o
-2 4 6 99.722 122.333 55.560 527.002 o
-2 4 7 2381.740 2498.680 303.561 14.842 o
-2 4 8 3031.740 3126.080 240.799 18.700 o
-2 4 9 120.590 86.406 93.238 188.536 o
-2 5 1 1601.200 1688.790 203.758 32.905 o
-2 5 2 14672.300 13517.900 233.825 2.324 o
-2 5 3 13551.600 12945.500 158.862 2.762 o
-2 5 4 3151.940 3190.720 122.272 35.006 o
-2 5 5 3657.960 3814.320 169.268 22.634 o
-2 5 6 2987.990 3012.840 201.745 23.703 o
-2 5 7 67.874 64.302 76.627 279.686 o
-2 5 8 936.585 1034.470 138.306 74.366 o
-2 5 9 139.139 125.355 64.929 385.188 o
-2 5 10 461.601 386.198 99.290 157.255 o
-2 6 1 2266.280 2201.020 111.591 57.589 o
-2 6 2 15413.900 16011.000 385.144 1.772 o
-2 6 3 15023.300 15029.800 478.584 1.729 o
-2 6 4 11968.000 11667.100 198.141 3.358 o
-2 6 5 12975.200 13298.300 297.988 2.585 o
-2 6 6 5826.490 6006.330 272.516 8.888 o
-2 6 7 140.107 209.356 63.851 395.510 o
-2 6 8 2494.170 2659.350 210.086 25.347 o
-2 6 9 1810.080 1958.380 201.950 31.745 o
-2 6 10 1438.310 1790.350 185.995 38.877 o
-2 6 11 1191.560 1282.140 168.057 49.850 o
-2 7 1 4711.360 5086.990 428.348 6.371 o
-2 7 2 10996.800 11012.200 1067.750 1.078 o
-2 7 3 7579.680 7993.570 668.678 2.581 o
-2 7 4 5642.950 6477.290 571.286 3.753 o
-2 7 5 5231.760 5264.950 236.482 11.436 o
-2 7 6 430.871 490.640 88.904 192.435 o
-2 7 7 2152.660 2231.960 284.672 17.105 o
-2 7 8 5997.020 6321.640 312.858 7.578 o
-2 7 9 4277.590 4613.930 279.457 11.775 o
-2 7 10 1577.520 1722.330 185.024 38.555 o
-2 7 11 322.194 413.071 99.855 158.766 o
-2 7 12 0.704 -2.945 77.230 276.005 o
-2 8 1 4148.410 4131.410 165.168 20.017 o
-2 8 2 3879.700 4115.140 290.633 12.227 o
-2 8 3 298.505 211.960 109.247 135.293 o
-2 8 4 386.549 381.226 80.914 234.465 o
-2 8 5 751.530 768.342 100.235 138.538 o
-2 8 6 821.025 759.170 185.539 45.131 o
-2 8 7 3171.370 3392.230 222.019 19.831 o
-2 8 8 4337.320 4774.770 271.681 11.914 o
-2 8 9 2470.620 2787.180 217.651 23.989 o
-2 8 10 469.273 533.284 105.462 138.418 o
-2 8 11 520.780 563.979 116.101 114.347 o
-2 8 12 42.446 90.228 78.168 268.942 o
-2 8 13 716.122 678.524 178.841 49.039 o
-2 9 1 1221.390 1075.730 230.685 28.570 o
-2 9 2 113.357 61.623 107.171 142.961 o
-2 9 3 961.361 1151.020 143.542 68.690 o
-2 9 4 2068.730 2306.780 163.718 39.592 o
-2 9 5 1674.740 1655.210 148.452 53.189 o
-2 9 6 444.788 503.166 166.650 57.838 o
-2 9 7 1442.580 1746.670 163.037 48.114 o
-2 9 8 2701.050 2770.130 208.930 24.419 o
-2 9 9 669.974 687.838 113.771 114.265 o
-2 9 10 814.046 1070.710 142.632 71.776 o
-2 9 11 544.190 790.241 133.771 85.963 o
-2 9 12 46.939 78.794 69.713 337.992 o
-2 9 13 80.302 56.265 98.329 169.970 o
-2 10 1 1961.960 1529.990 285.208 17.908 o
-2 10 2 805.692 737.870 200.007 39.227 o
-2 10 3 18.957 -207.509 154.192 69.240 o
-2 10 4 792.985 838.744 220.771 32.385 o
-2 10 5 493.213 229.077 113.467 122.848 o
-2 10 6 294.576 158.345 109.180 135.836 o
-2 10 7 892.838 1035.130 232.828 28.861 o
-2 10 8 787.689 820.123 219.834 32.683 o
-2 10 9 463.545 538.532 178.841 50.269 o
-2 10 10 819.557 1009.150 228.407 30.114 o
-2 10 11 239.943 268.864 134.767 89.655 o
-2 11 1 2520.700 2483.950 366.791 10.642 o
-2 11 2 2664.350 2318.770 357.414 11.082 o
-2 11 3 328.034 255.736 130.078 95.620 o
-2 11 4 63.060 -55.193 117.084 120.036 o
-2 11 5 132.313 -82.923 125.122 104.986 o
-2 11 6 726.545 627.216 203.222 38.428 o
-2 11 7 1093.750 1269.170 270.338 21.287 o
-2 11 8 633.098 660.037 196.658 41.161 o
-2 11 9 268.937 456.949 169.062 56.896 o
-2 11 10 14.030 117.486 121.907 110.716 o
-2 11 11 13.137 0.938 100.874 161.776 o
-2 12 1 1974.140 1503.200 303.963 15.988 o
-2 12 2 895.882 693.662 213.671 34.401 o
-2 12 3 1.077 -198.266 162.899 62.037 o
-2 12 4 469.056 181.654 147.226 74.417 o
-2 12 5 993.973 957.436 252.387 24.649 o
-2 12 6 943.901 1069.030 259.755 23.323 o
-2 12 7 1150.380 1165.880 265.113 22.079 o
-2 12 8 172.937 206.437 136.509 87.830 o
-2 12 9 156.726 266.319 160.756 63.408 o
-2 12 10 360.015 675.577 218.360 34.031 o
-2 12 11 400.701 591.984 201.079 40.031 o
-2 13 1 25.348 48.897 126.729 102.480 o
-2 13 2 3.860 -67.919 152.048 71.207 o
-2 13 3 295.335 188.620 139.188 84.036 o
-2 13 4 806.821 578.855 219.164 33.094 o
-2 13 5 1001.270 1089.120 270.874 21.442 o
-2 13 6 533.918 406.980 191.300 44.052 o
-2 13 7 272.263 344.018 175.626 52.890 o
-2 13 8 56.691 201.749 150.843 72.238 o
-1 -13 1 377.398 339.731 247.832 26.617 o
-1 -13 2 267.655 535.049 286.681 19.931 o
-1 -13 3 35.348 150.977 258.281 24.671 o
-1 -12 1 135.605 110.386 191.835 44.670 o
-1 -12 2 445.412 662.047 293.380 18.937 o
-1 -12 3 1436.470 2061.560 477.445 6.957 o
-1 -12 4 1190.310 1901.340 479.723 6.956 o
-1 -12 5 619.046 841.691 374.159 11.631 o
-1 -12 6 693.520 1129.580 463.245 7.592 o
-1 -11 1 4279.710 4780.630 329.971 9.560 o
-1 -11 2 4288.810 5039.130 368.317 8.165 o
-1 -11 3 3702.150 4774.170 733.449 2.787 o
-1 -11 4 1454.180 1820.360 308.919 15.923 o
-1 -11 5 273.634 487.666 184.314 47.921 o
-1 -11 6 256.819 641.508 296.528 18.622 o
-1 -11 7 47.860 26.682 275.495 21.688 o
-1 -11 8 12.987 79.881 377.576 11.547 o
-1 -10 1 4190.500 5114.580 322.392 9.756 o
-1 -10 2 4357.480 5320.160 748.252 2.613 o
-1 -10 3 3826.020 4713.670 515.759 5.138 o
-1 -10 4 945.692 1223.900 269.333 21.663 o
-1 -10 5 22.629 358.352 200.141 41.038 o
-1 -10 6 156.034 374.159 220.638 33.700 o
-1 -10 7 29.922 74.350 168.660 57.858 o
-1 -10 8 17.837 -179.779 224.656 32.617 o
-1 -10 9 27.675 -207.911 281.457 20.780 o
-1 -10 10 189.227 65.531 300.279 18.243 o
-1 -9 1 762.073 723.194 125.875 93.314 o
-1 -9 2 1838.390 2258.890 269.802 19.293 o
-1 -9 3 3217.980 3911.860 386.216 8.791 o
-1 -9 4 1308.860 1559.600 278.242 19.685 o
-1 -9 5 55.145 302.757 182.190 49.504 o
-1 -9 6 606.363 857.231 272.213 21.768 o
-1 -9 7 102.054 280.787 227.470 31.764 o
-1 -9 8 440.072 593.591 284.404 20.160 o
-1 -9 9 737.745 903.723 177.599 49.059 o
-1 -9 10 281.516 438.512 330.554 15.017 o
-1 -8 1 422.305 369.471 122.308 106.318 o
-1 -8 2 1694.280 1976.900 244.885 23.446 o
-1 -8 3 5296.800 6705.930 476.909 4.930 o
-1 -8 4 2207.130 2971.980 353.931 11.378 o
-1 -8 5 349.857 271.678 115.342 120.694 o
-1 -8 6 1479.520 1867.580 344.018 12.999 o
-1 -8 7 1973.750 2318.810 240.732 22.889 o
-1 -8 8 5084.550 5451.500 463.781 5.453 o
-1 -8 9 3410.750 3837.370 359.159 9.717 o
-1 -8 10 980.326 789.779 219.646 32.319 o
-1 -8 11 73.554 205.951 271.811 22.268 o
-1 -8 12 136.488 345.893 361.031 12.617 o
-1 -7 1 2000.920 2509.130 237.651 23.004 o
-1 -7 2 2826.410 3072.980 276.232 15.921 o
-1 -7 3 9186.140 10589.300 555.412 2.712 o
-1 -7 4 2162.820 2332.570 296.595 15.868 o
-1 -7 5 1765.430 1926.360 172.359 40.845 o
-1 -7 6 4015.510 4799.260 298.185 11.162 o
-1 -7 7 8953.110 6152.060 3851.040 0.109 o
-1 -7 8 7058.920 5316.430 4919.470 0.068 o
-1 -7 9 6629.720 6108.730 677.854 2.776 o
-1 -7 10 751.961 310.125 200.945 39.620 o
-1 -7 11 98.197 -315.617 292.442 19.246 o
-1 -7 12 391.892 31.898 208.413 37.694 o
-1 -7 13 194.762 -291.102 328.746 15.225 o
-1 -6 1 5376.740 6417.380 350.448 7.229 o
-1 -6 2 2388.120 2333.640 231.489 23.000 o
-1 -6 3 1606.200 1739.110 214.743 30.020 o
-1 -6 4 114.383 177.817 69.127 340.315 o
-1 -6 5 3346.960 2763.150 620.250 3.952 o
-1 -6 6 2433.980 3045.920 370.275 10.328 o
-1 -6 7 1829.340 1188.140 1256.710 1.037 o
-1 -6 8 5307.430 5298.250 555.814 4.126 o
-1 -6 9 2416.160 2053.270 1972.270 0.421 o
-1 -6 10 26.843 -80.094 167.501 58.673 o
-1 -6 11 739.682 213.051 283.868 20.174 o
-1 -6 12 849.236 88.992 211.461 35.902 o
-1 -6 13 664.060 36.170 370.542 11.932 o
-1 -5 1 1348.150 1535.490 115.755 83.263 o
-1 -5 2 1295.330 964.000 138.652 69.401 o
-1 -5 3 137.359 79.480 47.278 722.066 o
-1 -5 4 127.981 110.798 149.503 73.495 o
-1 -5 5 1191.310 548.098 601.026 4.519 o
-1 -5 6 312.838 169.251 220.102 33.824 o
-1 -5 7 52.521 176.832 140.661 83.084 o
-1 -5 8 694.387 948.326 252.923 24.975 o
-1 -5 9 1075.930 1110.960 291.906 18.497 o
-1 -5 10 101.275 135.303 149.771 73.256 o
-1 -5 11 570.703 273.419 179.109 50.201 o
-1 -5 12 585.595 179.377 171.473 54.779 o
-1 -4 1 230.235 288.686 51.984 567.267 o
-1 -4 2 1386.830 1473.870 88.473 115.549 o
-1 -4 3 113.026 77.565 64.838 388.552 o
-1 -4 4 3455.420 2422.730 2254.000 0.322 o
-1 -4 5 6425.830 7140.110 470.613 4.527 o
-1 -4 6 271.728 234.570 119.763 113.075 o
-1 -4 7 70.940 117.620 120.031 114.072 o
-1 -4 8 404.287 487.220 154.173 67.560 o
-1 -4 9 2839.810 2325.100 1308.620 0.949 o
-1 -4 10 480.099 281.725 162.765 60.878 o
-1 -4 11 262.015 251.181 151.245 71.299 o
-1 -4 12 627.207 386.863 507.386 6.371 o
-1 -4 13 1037.660 1033.390 643.694 3.940 o
-1 -3 1 232.024 56.176 72.876 304.448 o
-1 -3 2 88.849 24.640 29.553 1854.010 o
-1 -3 3 1841.920 1025.370 917.515 1.937 o
-1 -3 4 21919.900 23635.300 708.532 0.776 o
-1 -3 5 36943.100 35924.700 24363.800 0.003 o
-1 -3 6 12865.800 13704.200 661.913 1.660 o
-1 -3 7 2098.930 2145.290 290.031 16.724 o
-1 -3 8 1856.110 2138.860 301.819 15.940 o
-1 -3 9 2310.840 2094.520 331.157 13.095 o
-1 -3 10 252.557 235.507 144.546 78.061 o
-1 -3 11 1590.480 1375.940 298.202 17.092 o
-1 -3 12 954.794 442.749 207.777 36.469 o
-1 -2 1 134.146 116.738 112.395 129.772 o
-1 -2 2 4858.040 6203.840 279.179 9.792 o
-1 -2 3 17555.000 15943.100 492.583 1.407 o
-1 -2 4 44925.000 47274.000 960.249 0.216 o
-1 -2 5 63980.000 74624.900 1392.150 0.100 o
-1 -2 6 24515.500 28570.100 904.252 0.556 o
-1 -2 7 5248.820 5547.510 311.666 8.722 o
-1 -2 8 51.914 152.986 123.648 107.509 o
-1 -2 9 1323.900 1070.370 233.900 27.608 o
-1 -2 10 3431.350 3819.560 463.379 6.448 o
-1 -2 11 3021.110 2238.530 378.178 9.833 o
-1 -2 12 413.499 -22.774 180.181 50.330 o
-1 -1 1 7906.730 9420.160 280.385 5.394 o
-1 -1 2 7644.550 7473.540 275.696 6.323 o
-1 -1 3 2191.120 2529.900 184.735 32.199 o
-1 -1 4 30934.100 33380.700 399.977 0.486 o
-1 -1 5 35911.700 39957.300 404.350 0.357 o
-1 -1 6 10038.600 10500.600 537.327 2.649 o
-1 -1 7 385.660 403.899 135.705 87.068 o
-1 -1 8 2210.380 2030.620 283.600 17.285 o
-1 -1 9 3937.220 3360.200 389.163 8.384 o
-1 -1 10 6771.330 5813.600 558.895 3.694 o
-1 -1 11 5007.020 4087.890 496.870 5.183 o
-1 -1 12 268.754 -31.079 326.067 15.469 o
-1 0 1 15462.200 16217.300 315.617 1.849 o
-1 0 2 11667.700 12164.600 175.798 3.434 o
-1 0 3 3121.280 3398.090 88.067 40.323 o
-1 0 4 136.370 159.173 23.549 2651.190 o
-1 0 5 3861.890 3538.870 169.065 22.332 o
-1 0 6 21.676 47.456 41.196 968.344 o
-1 0 7 2917.030 2937.280 311.867 13.208 o
-1 0 8 882.334 694.332 173.750 50.902 o
-1 0 9 1642.510 1251.750 246.091 24.250 o
-1 0 10 7517.240 7233.480 622.393 2.920 o
-1 1 1 9839.560 11006.400 270.097 4.035 o
-1 1 2 3593.350 3704.300 102.087 31.281 o
-1 1 3 2444.240 2739.490 92.802 56.155 o
-1 1 4 319.776 430.794 42.893 732.482 o
-1 1 5 2059.970 2187.870 139.815 48.841 o
-1 1 6 742.017 715.029 58.366 321.071 o
-1 1 7 87.496 75.435 45.280 794.292 o
-1 1 8 27.828 -34.027 113.467 127.853 o
-1 1 9 1171.020 984.764 213.805 33.156 o
-1 2 1 82994.200 84371.300 672.105 0.072 o
-1 2 2 31477.500 31924.400 249.741 0.504 o
-1 2 3 7952.010 7898.970 153.390 7.312 o
-1 2 4 10469.700 10667.400 200.156 4.162 o
-1 2 5 4591.720 4262.570 154.294 18.678 o
-1 2 6 21.942 38.478 48.051 712.254 o
-1 2 7 2224.160 2158.280 274.223 18.144 o
-1 2 8 757.546 679.328 159.148 60.877 o
-1 2 9 2109.460 2078.090 139.682 48.965 o
-1 2 10 7812.190 6937.020 553.804 3.375 o
-1 3 1 88633.800 91843.300 710.917 0.063 o
-1 3 2 79481.900 79068.600 838.772 0.079 o
-1 3 3 17931.600 18338.900 283.175 1.463 o
-1 3 4 17157.100 17235.500 279.215 1.608 o
-1 3 5 3699.100 3696.390 138.584 26.129 o
-1 3 6 3604.630 3776.280 189.031 20.925 o
-1 3 7 11310.900 12114.700 605.782 2.067 o
-1 3 8 3644.830 3491.370 418.635 7.600 o
-1 3 9 1681.250 1706.290 252.923 22.517 o
-1 3 10 2143.640 1967.520 287.083 17.088 o
-1 3 11 1065.700 1219.470 237.785 27.194 o
-1 3 12 48.512 -81.450 139.322 84.796 o
-1 3 16 2254.300 2013.070 490.574 6.436 o
-1 4 1 30075.900 30927.300 1365.760 0.342 o
-1 4 2 26833.500 26721.300 944.441 0.516 o
-1 4 3 9072.570 8580.620 315.504 4.654 o
-1 4 4 3712.900 3912.720 140.736 25.114 o
-1 4 5 465.944 577.700 67.543 306.389 o
-1 4 6 19645.600 20514.300 505.890 1.077 o
-1 4 7 16922.400 18428.100 720.053 1.104 o
-1 4 8 3815.180 4199.780 377.174 8.572 o
-1 4 9 43.001 45.881 56.568 513.467 o
-1 4 10 51.380 14.066 84.397 230.961 o
-1 4 11 117.569 -12.191 112.395 130.111 o
-1 4 12 1645.260 1533.750 268.596 20.469 o
-1 4 13 905.359 986.506 225.594 30.669 o
-1 4 15 297.463 325.933 232.158 30.373 o
-1 4 16 967.246 996.017 375.097 11.452 o
-1 5 1 4133.240 4527.560 167.588 19.069 o
-1 5 2 27.838 98.329 42.600 902.913 o
-1 5 3 1988.200 1982.120 91.675 78.253 o
-1 5 4 648.006 580.582 47.387 470.538 o
-1 5 5 1969.550 2045.210 118.175 61.638 o
-1 5 6 7515.560 7768.810 298.339 6.009 o
-1 5 7 10870.200 11454.400 555.010 2.351 o
-1 5 8 4423.130 4831.100 264.613 12.053 o
-1 5 9 552.742 674.452 114.409 115.795 o
-1 5 10 118.999 160.070 70.377 328.633 o
-1 5 11 31.634 -14.870 96.052 178.406 o
-1 5 12 1220.130 1225.090 233.498 27.760 o
-1 5 13 566.122 586.722 145.100 74.472 o
-1 5 14 14.388 -90.956 102.663 156.187 o
-1 5 15 164.657 66.178 199.471 41.316 o
-1 5 16 417.710 351.654 255.468 25.032 o
-1 6 1 38.261 86.272 44.074 843.374 o
-1 6 2 2181.270 1852.850 139.054 49.763 o
-1 6 3 4263.200 4115.240 143.647 21.242 o
-1 6 4 194.504 253.273 41.250 890.656 o
-1 6 5 408.221 377.560 42.900 701.224 o
-1 6 6 5437.950 5683.400 207.598 11.703 o
-1 6 7 10857.800 11954.200 327.867 3.222 o
-1 6 8 6284.030 6890.280 269.626 7.937 o
-1 6 9 2147.760 2584.360 175.291 34.607 o
-1 6 10 3336.590 3922.980 223.921 18.273 o
-1 6 11 33.966 75.692 54.023 562.659 o
-1 6 12 924.189 1024.690 130.749 82.178 o
-1 6 13 705.571 919.542 334.640 14.451 o
-1 6 14 425.425 438.782 140.254 81.242 o
-1 6 15 424.350 360.763 148.699 72.739 o
-1 7 1 3195.140 3080.250 310.259 12.844 o
-1 7 2 71.943 71.305 35.176 1312.940 o
-1 7 3 1377.050 1214.330 53.870 193.549 o
-1 7 4 499.506 510.266 50.316 492.545 o
-1 7 5 236.272 225.377 41.539 866.972 o
-1 7 6 5743.930 5472.270 166.341 12.662 o
-1 7 7 8878.730 9214.520 252.701 5.101 o
-1 7 8 4144.880 4509.230 209.663 16.101 o
-1 7 9 3039.730 3039.330 183.568 26.013 o
-1 7 10 1217.320 1452.880 137.594 67.719 o
-1 7 11 152.642 103.897 56.707 502.629 o
-1 7 12 1648.560 2119.360 201.133 32.346 o
-1 7 13 2366.050 2907.140 341.606 11.976 o
-1 7 14 1263.300 1340.570 255.066 23.390 o
-1 7 15 284.300 448.107 170.669 55.812 o
-1 8 1 7522.490 7160.670 276.775 6.531 o
-1 8 2 114.508 127.036 52.514 587.350 o
-1 8 3 3599.470 3559.830 194.321 20.852 o
-1 8 4 3057.340 2756.750 126.926 37.318 o
-1 8 5 2835.980 2715.580 217.021 22.823 o
-1 8 6 3864.570 3542.530 367.729 9.124 o
-1 8 7 1588.050 1571.110 155.016 51.366 o
-1 8 8 34.669 44.488 58.341 483.004 o
-1 8 9 4.124 9.657 52.753 591.523 o
-1 8 10 398.048 410.280 98.423 161.316 o
-1 8 11 661.219 930.092 136.172 80.902 o
-1 8 12 3417.930 3979.060 270.671 14.330 o
-1 8 13 2051.100 2570.490 317.359 14.123 o
-1 8 14 701.667 718.981 191.701 42.924 o
-1 8 15 126.401 352.056 158.746 64.989 o
-1 9 1 1170.790 1082.100 66.834 190.590 o
-1 9 2 961.559 1085.990 108.241 110.204 o
-1 9 3 6728.100 6029.510 390.905 5.718 o
-1 9 4 2671.900 2464.120 314.010 13.685 o
-1 9 5 1967.200 1695.310 264.711 20.236 o
-1 9 6 974.705 833.252 188.754 42.889 o
-1 9 7 7.059 -2.512 62.867 416.512 o
-1 9 8 1369.780 1527.160 159.244 51.709 o
-1 9 9 2417.230 3027.600 222.524 23.021 o
-1 9 10 678.851 856.094 127.356 91.643 o
-1 9 11 990.019 1181.310 153.926 60.413 o
-1 9 12 1158.250 1459.130 233.900 27.537 o
-1 9 13 691.119 844.638 195.051 41.353 o
-1 9 14 104.200 125.925 115.342 123.371 o
-1 9 15 73.698 180.984 140.394 83.358 o
-1 10 1 49.430 130.207 58.542 477.741 o
-1 10 2 1713.530 1692.020 139.782 57.035 o
-1 10 3 3634.700 3106.610 369.605 9.412 o
-1 10 4 3181.270 2574.640 335.712 11.665 o
-1 10 5 1077.380 791.723 189.960 42.023 o
-1 10 6 445.029 412.514 86.851 202.070 o
-1 10 7 51.925 9.126 52.719 591.355 o
-1 10 8 1025.580 1086.870 229.211 29.375 o
-1 10 9 1028.940 1254.860 150.264 62.159 o
-1 10 10 244.674 367.783 91.013 192.656 o
-1 10 11 376.717 559.925 113.918 121.126 o
-1 10 12 320.759 468.871 148.565 73.132 o
-1 10 13 235.994 249.708 124.586 104.808 o
-1 10 14 90.179 164.909 122.041 110.216 o
-1 11 1 279.895 417.162 186.745 46.750 o
-1 11 2 1146.120 1009.150 238.857 27.018 o
-1 11 3 1994.700 1628.590 295.657 16.689 o
-1 11 4 1288.260 1028.440 222.513 30.409 o
-1 11 5 1154.790 977.262 231.890 28.572 o
-1 11 6 1409.270 1394.420 273.419 20.305 o
-1 11 7 428.657 291.504 144.144 77.479 o
-1 11 8 27.946 23.979 106.233 145.842 o
-1 11 9 259.624 215.011 127.667 99.827 o
-1 11 10 428.854 528.351 173.215 53.646 o
-1 11 11 284.930 402.024 160.488 63.092 o
-1 12 1 205.261 164.641 144.412 78.493 o
-1 12 2 1015.530 1031.790 253.860 24.287 o
-1 12 3 1366.330 1183.570 263.908 21.919 o
-1 12 4 783.984 667.807 208.045 36.533 o
-1 12 5 1497.700 1074.250 251.583 23.794 o
-1 12 6 1461.800 964.000 239.526 26.234 o
-1 12 7 304.255 182.056 134.633 89.720 o
-1 12 8 87.066 56.800 102.616 156.054 o
-1 12 9 615.698 585.955 190.630 43.882 o
-1 12 10 465.226 620.652 190.228 44.441 o
-1 12 11 542.213 779.130 212.466 35.496 o
-1 13 1 727.400 682.945 229.613 30.290 o
-1 13 2 1212.320 1204.730 299.676 17.422 o
-1 13 3 703.024 732.645 247.832 26.110 o
-1 13 4 277.796 189.022 121.371 110.276 o
-1 13 5 39.495 3.081 144.011 79.368 o
-1 13 6 2.562 -83.995 136.241 88.690 o
-1 13 7 83.894 -26.391 121.371 111.677 o
-1 13 8 740.354 548.312 194.247 41.999 o
-1 13 9 717.221 711.881 218.226 33.418 o
-1 13 10 492.417 655.884 206.571 37.732 o
0 -13 1 785.390 1042.370 331.559 14.651 o
0 -13 2 582.833 743.228 310.527 16.846 o
0 -13 3 149.952 120.299 233.096 30.263 o
0 -12 1 620.287 1083.230 310.125 16.781 o
0 -12 2 1346.130 1374.600 349.778 12.838 o
0 -12 3 430.482 287.217 214.341 35.470 o
0 -12 4 6.125 -14.468 206.571 38.578 o
0 -12 5 130.686 202.552 243.277 27.779 o
0 -12 6 5.164 -55.595 253.057 25.707 o
0 -11 1 2678.370 2371.820 384.073 9.755 o
0 -11 2 1607.680 2291.580 399.211 9.675 o
0 -11 3 122.278 334.506 212.600 36.326 o
0 -11 4 819.153 996.821 307.312 16.987 o
0 -11 5 1901.400 2104.300 455.609 7.483 o
0 -11 6 1491.160 1947.960 455.207 7.626 o
0 -11 7 2083.310 2245.360 522.725 5.719 o
0 -11 8 1412.760 1561.070 455.341 7.686 o
0 -11 9 85.550 -94.310 223.987 32.806 o
0 -10 1 1505.700 1868.170 203.819 32.915 o
0 -10 2 2038.200 2234.810 234.656 23.777 o
0 -10 3 12.626 101.994 109.595 136.992 o
0 -10 4 2680.500 3915.170 356.374 10.444 o
0 -10 5 3967.510 5343.950 443.549 6.344 o
0 -10 6 3296.380 4373.130 422.480 7.440 o
0 -10 7 2469.280 3068.820 378.570 9.909 o
0 -10 8 844.604 989.038 238.833 27.624 o
0 -10 9 143.674 484.813 282.395 20.588 o
0 -10 10 181.756 383.671 281.591 20.709 o
0 -9 1 289.755 310.284 87.364 208.007 o
0 -9 2 1118.860 1151.860 167.567 51.178 o
0 -9 3 59.249 170.525 109.448 137.086 o
0 -9 4 1564.400 1838.400 293.514 17.341 o
0 -9 5 1917.220 2386.760 294.859 16.346 o
0 -9 6 1611.490 2392.360 308.173 15.502 o
0 -9 7 994.707 1677.670 273.036 20.751 o
0 -9 8 734.663 838.629 214.143 34.474 o
0 -9 9 207.158 107.710 460.499 7.759 o
0 -9 10 417.755 642.622 283.466 20.291 o
0 -9 11 302.005 421.716 286.815 19.921 o
0 -8 1 89.479 127.179 69.450 338.961 o
0 -8 2 422.485 606.053 118.194 111.843 o
0 -8 3 337.922 463.135 176.363 52.153 o
0 -8 4 77.888 156.773 124.422 106.100 o
0 -8 5 95.957 254.616 135.218 89.688 o
0 -8 6 149.825 353.321 167.722 58.206 o
0 -8 7 1253.890 1598.440 192.035 38.394 o
0 -8 8 1624.090 2030.860 294.451 17.038 o
0 -8 9 49.734 153.869 201.559 40.498 o
0 -8 10 382.166 109.817 250.196 26.184 o
0 -8 11 620.343 491.354 301.752 17.870 o
0 -7 1 126.800 98.427 44.246 822.375 o
0 -7 2 103.962 228.414 80.391 252.080 o
0 -7 3 90.100 109.671 73.016 307.063 o
0 -7 4 2109.980 3397.040 398.273 9.183 o
0 -7 5 2558.130 2316.830 313.340 13.970 o
0 -7 6 1006.340 503.084 347.300 13.398 o
0 -7 7 3108.670 1460.090 2090.700 0.375 o
0 -7 8 1824.480 2195.660 446.634 7.779 o
0 -7 9 4.429 -286.493 186.600 47.279 o
0 -7 10 1577.820 1652.570 442.749 8.060 o
0 -6 1 5105.240 5367.970 240.330 11.423 o
0 -6 2 6583.210 6671.910 807.531 2.078 o
0 -6 3 25025.900 33234.100 1040.220 0.464 o
0 -6 4 19096.100 23837.700 2583.820 0.205 o
0 -6 5 5032.490 2559.990 3564.760 0.129 o
0 -6 6 731.601 189.859 376.772 11.518 o
0 -6 7 1175.620 526.037 656.219 3.797 o
0 -6 8 954.828 516.502 637.196 4.034 o
0 -6 9 244.055 277.438 254.932 25.249 o
0 -6 10 3189.350 2988.990 519.510 5.467 o
0 -5 1 12429.900 12846.300 350.582 2.618 o
0 -5 2 23187.100 24060.100 1230.720 0.502 o
0 -5 3 42997.300 60201.300 8747.470 0.020 o
0 -5 4 35864.300 42647.700 1181.150 0.272 o
0 -5 5 7141.770 4431.660 4859.450 0.069 o
0 -5 6 17.257 85.871 114.405 125.727 o
0 -5 7 498.956 675.979 208.313 37.084 o
0 -5 8 327.852 223.451 141.465 81.145 o
0 -5 9 3171.190 2919.860 480.392 6.300 o
0 -5 10 799.740 627.764 216.820 33.751 o
0 -5 11 223.777 424.798 414.081 9.586 o
0 -5 12 446.947 961.454 494.191 6.707 o
0 -4 1 9150.320 8765.230 215.080 5.364 o
0 -4 2 11338.700 13829.400 1054.730 1.038 o
0 -4 3 14534.400 17706.200 1627.450 0.480 o
0 -4 4 16516.200 19866.400 743.094 1.064 o
0 -4 5 1670.520 2042.270 281.055 18.434 o
0 -4 6 2788.240 3197.440 374.427 9.823 o
0 -4 7 3648.400 4088.960 453.466 6.539 o
0 -4 8 1776.750 1757.060 335.712 13.412 o
0 -4 9 1766.950 1798.860 355.940 12.033 o
0 -4 10 741.746 354.601 171.339 53.870 o
0 -3 1 3754.810 3445.620 1238.970 1.043 o
0 -3 2 2817.080 3194.270 141.892 34.392 o
0 -3 3 2420.440 2234.180 282.395 16.874 o
0 -3 4 9681.070 10727.200 572.345 2.534 o
0 -3 5 1977.130 2270.410 278.510 18.020 o
0 -3 6 4149.470 4477.450 423.592 6.931 o
0 -3 7 1349.230 1249.070 238.857 26.299 o
0 -3 8 1550.470 1501.860 277.304 19.497 o
0 -3 9 8696.100 9401.540 761.581 1.970 o
0 -3 10 6147.380 5554.920 629.627 3.229 o
0 -2 1 5116.740 5447.880 189.826 13.326 o
0 -2 2 3154.730 3128.850 197.596 23.271 o
0 -2 3 524.243 702.292 87.746 187.283 o
0 -2 4 10772.100 12174.200 311.806 3.281 o
0 -2 5 2199.550 2916.510 298.470 15.225 o
0 -2 6 1329.880 2165.110 285.208 18.367 o
0 -2 7 1218.930 1253.900 236.043 27.181 o
0 -2 8 9417.420 9679.520 693.528 2.137 o
0 -2 9 24124.200 25078.500 1196.160 0.492 o
0 -2 13 19.659 -231.756 356.878 12.925 o
0 -1 2 6891.590 7261.830 363.375 5.684 o
0 -1 3 17487.900 19646.800 533.710 1.223 o
0 -1 4 9356.540 9993.360 283.541 4.406 o
0 -1 5 1616.100 1799.980 138.761 58.242 o
0 -1 6 3799.580 3845.820 371.078 8.932 o
0 -1 7 6174.240 6162.980 504.372 4.375 o
0 -1 8 9084.280 9183.450 663.520 2.330 o
0 0 3 2070.360 2062.460 118.124 59.549 o
0 0 4 130.893 153.041 37.230 1137.410 o
0 0 5 7951.370 8422.720 316.488 5.298 o
0 0 6 13216.600 12777.800 674.505 1.643 o
0 0 7 2174.440 2269.740 165.177 38.400 o
0 0 8 238.699 220.771 70.197 322.723 o
0 0 9 2014.270 2299.730 158.272 41.889 o
0 0 10 890.056 1177.810 241.134 26.873 o
0 0 15 2114.290 2204.900 565.459 4.922 o
0 1 2 5509.660 5009.290 278.644 9.738 o
0 1 3 340.315 392.590 37.307 913.732 o
0 1 4 7835.110 7314.210 205.788 7.148 o
0 1 5 16947.500 16046.300 513.012 1.431 o
0 1 6 16248.800 15965.600 416.492 1.631 o
0 1 7 148.971 145.752 44.074 817.972 o
0 1 8 1394.790 1321.950 138.250 65.513 o
0 1 9 12.048 -35.023 46.645 756.540 o
0 1 10 54.331 31.857 46.686 752.856 o
0 1 11 677.467 712.417 189.022 44.194 o
0 1 12 697.224 557.019 193.979 42.229 o
0 1 15 2529.820 2567.670 567.870 4.797 o
0 1 16 727.943 737.200 366.658 12.091 o
0 2 0 3241.710 3644.200 124.318 31.688 o
0 2 1 2393.740 2450.320 156.871 38.065 o
0 2 2 650.681 629.745 45.315 487.004 o
0 2 3 901.056 960.737 74.737 198.299 o
0 2 4 4321.610 4528.320 170.737 18.114 o
0 2 5 18608.800 19511.100 452.384 1.220 o
0 2 6 20757.600 22062.900 434.888 1.012 o
0 2 7 3349.950 3557.130 252.253 16.289 o
0 2 8 33.874 45.949 56.265 519.261 o
0 2 9 640.537 631.272 94.936 159.610 o
0 2 10 139.306 117.284 60.081 449.109 o
0 2 11 513.281 419.439 152.718 68.402 o
0 2 12 177.046 179.779 129.007 98.316 o
0 2 13 76.879 32.151 111.725 131.751 o
0 2 14 1495.960 1298.910 394.790 10.136 o
0 2 15 2820.850 3261.740 601.897 4.216 o
0 2 16 1131.420 1322.350 451.992 7.882 o
0 3 0 4395.720 4725.190 120.088 20.726 o
0 3 1 68.180 96.588 24.515 2653.870 o
0 3 2 828.111 766.538 120.969 98.446 o
0 3 3 244.749 234.912 31.669 1383.750 o
0 3 4 1535.520 1353.610 90.240 108.954 o
0 3 5 27137.100 27459.700 576.269 0.608 o
0 3 6 46448.900 50471.400 628.348 0.214 o
0 3 7 18639.100 20399.200 777.724 0.920 o
0 3 8 6298.750 6587.180 292.634 7.601 o
0 3 9 2808.740 2953.660 215.934 22.623 o
0 3 10 45.349 46.511 73.278 306.196 o
0 3 11 4286.720 4680.810 423.860 6.798 o
0 3 12 2505.860 2778.100 290.024 15.574 o
0 3 13 737.900 778.961 170.674 53.209 o
0 3 14 757.261 1087.590 199.743 38.911 o
0 3 15 874.656 893.517 192.606 41.590 o
0 3 16 251.328 460.834 300.614 18.150 o
0 4 0 10222.500 9815.060 294.518 3.990 o
0 4 1 494.888 571.353 68.991 292.560 o
0 4 2 5866.380 5940.380 278.453 8.725 o
0 4 3 759.303 787.524 46.969 401.674 o
0 4 4 5264.990 5110.020 145.684 15.206 o
0 4 5 33263.100 33715.300 1582.300 0.271 o
0 4 6 42848.100 46078.900 890.069 0.236 o
0 4 7 9302.440 9768.770 320.590 4.229 o
0 4 8 928.306 1069.870 98.234 129.651 o
0 4 9 175.414 118.200 49.219 658.273 o
0 4 10 3884.980 4392.280 315.204 10.831 o
0 4 11 8516.380 9399.360 472.398 3.490 o
0 4 12 4404.360 5262.030 372.259 7.876 o
0 4 13 626.544 749.713 169.648 54.496 o
0 4 14 98.885 74.335 95.176 181.207 o
0 4 15 15.866 54.608 178.037 51.931 o
0 4 16 159.064 303.719 132.968 92.390 o
0 4 17 518.080 862.991 363.576 12.334 o
0 5 0 7177.500 6872.750 185.709 8.450 o
0 5 1 4541.160 4875.460 206.839 14.685 o
0 5 2 14743.900 13792.400 677.787 1.462 o
0 5 3 6876.470 6929.680 630.699 2.993 o
0 5 4 2148.940 2122.720 92.438 70.918 o
0 5 5 5016.650 4680.840 196.171 14.251 o
0 5 6 2459.660 2258.320 167.031 35.609 o
0 5 7 9.622 30.493 47.250 737.069 o
0 5 8 521.792 565.251 80.531 222.273 o
0 5 9 819.687 1035.470 112.222 108.736 o
0 5 10 5604.990 6469.880 274.512 8.823 o
0 5 11 6588.500 7523.250 411.025 5.122 o
0 5 12 4720.060 5096.940 351.430 8.285 o
0 5 13 303.487 258.577 115.424 121.140 o
0 5 14 28.416 73.685 90.177 202.291 o
0 5 15 90.500 244.919 114.980 123.916 o
0 5 16 475.677 482.528 283.198 20.340 o
0 5 17 324.527 285.610 248.502 26.524 o
0 6 0 28.097 84.157 26.374 2343.120 o
0 6 1 11211.400 11738.800 348.438 3.068 o
0 6 2 16510.400 15840.600 427.932 1.594 o
0 6 3 3762.810 3756.600 197.194 19.557 o
0 6 4 58.920 59.180 27.621 2126.680 o
0 6 5 36.025 28.961 50.973 632.702 o
0 6 6 841.589 857.893 97.312 139.899 o
0 6 7 4460.990 4345.440 195.259 16.338 o
0 6 8 2540.570 2583.330 157.551 36.003 o
0 6 9 934.679 1072.620 110.863 107.104 o
0 6 10 568.485 770.708 103.560 136.963 o
0 6 11 4805.700 5367.550 255.931 11.327 o
0 6 12 1997.160 2426.210 243.269 22.292 o
0 6 13 400.186 451.304 117.424 114.752 o
0 6 14 64.963 75.594 121.036 112.257 o
0 6 15 55.917 113.539 102.076 157.721 o
0 6 16 165.733 157.541 144.680 78.326 o
0 7 0 61.486 53.311 36.282 1240.160 o
0 7 1 5736.140 5590.960 268.061 9.383 o
0 7 2 11356.200 10232.700 326.264 3.342 o
0 7 3 2918.380 2937.990 124.543 38.367 o
0 7 4 1079.140 1010.730 105.804 111.474 o
0 7 5 170.259 102.348 63.365 403.004 o
0 7 6 11.828 -6.720 47.356 734.003 o
0 7 7 2019.930 1812.400 123.503 59.995 o
0 7 8 1288.510 1239.740 111.318 93.668 o
0 7 9 50.587 77.962 49.182 677.366 o
0 7 10 713.842 830.130 103.430 131.576 o
0 7 11 2673.760 2902.050 188.455 27.561 o
0 7 12 1764.330 1979.990 213.305 29.242 o
0 7 13 761.238 1042.640 178.774 47.993 o
0 7 14 397.710 538.398 171.473 54.808 o
0 7 15 26.328 39.653 127.131 101.836 o
0 8 0 47.405 84.211 54.671 548.675 o
0 8 1 4482.990 4790.900 312.969 9.960 o
0 8 2 11925.900 10379.600 420.312 2.773 o
0 8 3 11873.900 10827.100 310.320 3.156 o
0 8 4 6848.090 6058.860 239.740 8.385 o
0 8 5 5600.670 4907.480 391.977 6.693 o
0 8 6 790.146 660.700 103.434 131.850 o
0 8 7 1066.350 902.549 80.245 169.411 o
0 8 8 1665.560 1508.720 125.033 68.684 o
0 8 9 695.412 806.987 95.982 150.598 o
0 8 10 1690.080 1957.920 176.727 39.791 o
0 8 11 858.396 1091.240 137.781 75.552 o
0 8 12 829.840 924.882 193.979 41.151 o
0 8 13 50.835 118.290 120.969 112.364 o
0 8 14 2.844 62.695 108.644 139.448 o
0 8 15 185.065 245.555 135.973 88.395 o
0 9 0 645.217 802.068 119.077 104.606 o
0 9 1 6568.190 7020.720 541.212 3.763 o
0 9 2 10130.100 9261.240 312.018 4.040 o
0 9 3 5607.930 5154.500 222.624 11.360 o
0 9 4 5235.490 4586.080 213.695 13.031 o
0 9 5 4964.300 4587.660 184.394 15.106 o
0 9 6 39.539 38.094 48.837 688.798 o
0 9 7 2586.650 2477.360 202.717 26.586 o
0 9 8 4893.480 4723.190 280.319 10.725 o
0 9 9 2560.680 2820.790 216.408 23.763 o
0 9 10 602.958 746.886 120.509 103.670 o
0 9 11 337.045 389.028 93.590 179.695 o
0 9 12 58.464 41.797 87.612 214.216 o
0 9 13 721.369 876.254 198.132 39.986 o
0 9 14 500.111 856.561 210.858 36.032 o
0 9 15 329.618 481.732 178.707 50.810 o
0 10 0 1945.780 2433.480 265.850 19.387 o
0 10 1 3687.800 3933.590 235.661 16.292 o
0 10 2 2396.330 2357.350 320.306 13.629 o
0 10 3 601.570 646.507 184.200 46.838 o
0 10 4 76.311 63.654 49.138 677.115 o
0 10 5 45.550 -15.254 61.303 437.711 o
0 10 6 1094.620 1057.560 134.701 75.186 o
0 10 7 4289.130 3933.890 274.290 12.572 o
0 10 8 3407.150 3184.090 240.253 17.646 o
0 10 9 1058.810 1141.410 148.855 63.469 o
0 10 10 294.235 522.682 109.962 131.371 o
0 10 11 13.025 55.154 62.608 419.721 o
0 10 12 624.556 581.803 166.650 56.834 o
0 10 13 1012.800 1295.960 246.492 25.450 o
0 10 14 448.148 624.939 189.424 44.850 o
0 10 15 131.932 304.766 153.790 69.267 o
0 11 0 1751.440 1514.190 313.608 15.341 o
0 11 1 638.238 691.384 223.183 32.160 o
0 11 2 82.257 169.414 75.879 283.960 o
0 11 3 1014.560 992.049 124.897 87.346 o
0 11 4 1547.420 1460.080 152.200 53.891 o
0 11 5 1076.380 860.092 120.539 92.696 o
0 11 6 867.260 747.674 121.328 97.336 o
0 11 7 1655.360 1655.520 176.183 41.346 o
0 11 8 1298.570 1154.620 152.512 58.236 o
0 11 9 761.459 790.709 129.375 88.304 o
0 11 10 430.760 486.454 103.947 143.756 o
0 11 11 102.106 277.170 117.888 117.755 o
0 11 12 11.824 -8.440 94.176 185.607 o
0 11 13 364.067 448.777 159.550 63.440 o
0 11 14 240.621 273.151 134.767 89.640 o
0 12 0 523.780 778.729 267.391 22.649 o
0 12 1 381.226 519.108 228.006 31.314 o
0 12 2 28.383 71.135 116.682 120.863 o
0 12 3 623.922 700.896 227.738 30.935 o
0 12 4 1207.080 1136.540 248.100 24.928 o
0 12 5 624.254 577.382 186.209 45.907 o
0 12 6 282.769 203.892 117.352 117.737 o
0 12 7 777.081 799.627 215.011 34.153 o
0 12 8 845.365 800.029 208.313 36.100 o
0 12 9 356.390 170.535 120.031 112.101 o
0 12 10 321.861 381.393 142.403 79.710 o
0 13 0 915.265 880.943 297.398 18.078 o
0 13 1 1389.220 1677.760 357.414 12.211 o
0 13 2 287.726 293.781 169.196 56.970 o
0 13 3 3.542 -44.208 114.940 124.606 o
0 13 4 280.747 333.970 161.158 62.696 o
0 13 5 178.691 169.464 140.929 82.476 o
0 13 6 594.060 540.944 183.128 47.579 o
0 13 7 886.556 696.743 203.356 37.823 o
0 13 8 178.308 101.142 104.625 149.371 o
0 13 9 28.243 -53.451 100.472 163.059 o
0 13 10 159.124 188.486 132.624 93.110 o
0 14 2 351.885 473.426 222.111 33.039 o
0 14 3 11.376 -45.012 139.992 84.000 o
0 14 4 346.507 245.153 163.703 60.719 o
0 14 5 448.660 370.542 182.458 48.614 o
0 14 6 618.591 627.082 213.671 35.106 o
0 14 7 360.769 163.167 119.227 113.582 o
0 14 8 22.834 -103.956 118.424 117.378 o
0 14 9 53.495 107.573 124.318 106.404 o
1 -13 0 183.170 111.323 147.762 75.119 o
1 -13 1 27.195 193.577 196.792 42.484 o
1 -13 2 217.616 308.383 214.341 35.679 o
1 -13 3 1207.710 1457.790 369.203 11.622 o
1 -12 0 93.290 169.464 156.603 67.002 o
1 -12 1 301.461 426.673 200.677 40.499 o
1 -12 2 12.907 252.253 187.147 46.966 o
1 -12 3 598.193 764.662 268.061 22.482 o
1 -12 4 688.688 952.077 315.484 16.225 o
1 -12 5 262.158 705.049 317.359 16.258 o
1 -12 6 388.378 782.346 307.178 17.288 o
1 -12 7 110.489 501.023 317.493 16.301 o
1 -11 0 649.173 611.810 204.428 38.205 o
1 -11 1 1111.250 1285.380 294.719 18.043 o
1 -11 2 119.591 199.471 197.194 42.261 o
1 -11 3 215.216 349.510 197.998 41.761 o
1 -11 4 592.782 929.169 285.342 19.831 o
1 -11 5 958.269 947.254 287.351 19.256 o
1 -11 6 652.942 949.398 333.970 14.524 o
1 -11 7 581.456 312.938 227.738 31.273 o
1 -11 8 1.574 -40.591 181.788 49.814 o
1 -11 9 279.001 129.141 222.111 33.256 o
1 -10 0 61.675 109.716 120.031 114.108 o
1 -10 1 18.074 52.246 142.671 80.864 o
1 -10 2 259.660 642.756 223.585 32.617 o
1 -10 3 1792.030 2174.490 354.601 11.969 o
1 -10 4 2389.530 2082.730 362.371 11.118 o
1 -10 5 1217.440 1126.090 176.445 46.184 o
1 -10 6 1047.270 910.548 165.793 53.622 o
1 -10 7 252.594 23.275 123.789 106.737 o
1 -10 8 607.557 261.687 332.229 14.810 o
1 -10 9 1589.750 1144.620 240.604 25.506 o
1 -10 10 1212.950 1236.090 264.084 22.093 o
1 -9 0 4374.530 4303.980 134.031 20.947 o
1 -9 1 5221.470 5118.280 187.760 13.559 o
1 -9 2 6377.440 5734.320 232.308 9.375 o
1 -9 3 7465.050 7272.410 292.082 6.314 o
1 -9 4 1944.030 1875.610 164.418 42.370 o
1 -9 5 159.549 168.498 90.987 196.840 o
1 -9 6 532.043 305.391 108.536 132.253 o
1 -9 7 0.096 -35.939 260.559 24.248 o
1 -9 8 644.714 413.288 285.811 19.901 o
1 -9 9 2359.460 1847.270 279.819 17.580 o
1 -9 10 1434.880 995.825 236.570 26.863 o
1 -9 11 397.286 320.708 311.063 16.936 o
1 -8 0 14298.400 13626.900 238.513 2.382 o
1 -8 1 9795.820 9485.600 202.097 4.818 o
1 -8 2 10879.200 9541.840 228.012 4.110 o
1 -8 3 6401.130 5922.980 256.491 8.639 o
1 -8 4 250.348 190.517 83.635 229.761 o
1 -8 5 378.199 337.546 99.904 158.189 o
1 -8 6 67.604 170.535 141.733 81.814 o
1 -8 7 25.666 99.241 77.789 271.689 o
1 -8 8 272.879 234.930 109.445 134.990 o
1 -8 9 664.945 313.020 249.440 26.056 o
1 -8 10 85.154 27.419 163.301 61.699 o
1 -8 11 212.237 88.424 203.021 39.849 o
1 -8 12 308.686 527.012 394.388 10.552 o
1 -7 0 4483.210 4142.580 137.793 20.544 o
1 -7 1 3462.730 3278.250 120.286 31.956 o
1 -7 2 4457.710 4002.520 142.600 20.652 o
1 -7 3 4392.300 3994.940 409.258 7.297 o
1 -7 4 161.808 126.741 86.056 220.148 o
1 -7 5 939.068 849.993 99.464 131.264 o
1 -7 6 318.888 209.557 124.795 103.998 o
1 -7 7 57.044 116.414 119.897 114.366 o
1 -7 8 319.509 165.987 332.564 14.854 o
1 -7 9 248.597 337.587 186.343 47.073 o
1 -7 10 204.426 71.584 237.718 29.089 o
1 -7 11 371.361 95.241 151.248 71.185 o
1 -7 12 497.880 612.078 449.581 8.108 o
1 -6 0 85.530 68.884 17.228 5188.200 o
1 -6 1 496.204 462.851 44.618 599.869 o
1 -6 2 5229.540 5127.990 205.139 12.808 o
1 -6 3 9387.660 9480.490 366.676 3.933 o
1 -6 4 260.823 218.020 68.123 340.453 o
1 -6 5 2476.590 2573.200 236.954 21.575 o
1 -6 6 2591.220 2236.580 237.299 21.691 o
1 -6 7 1682.350 1700.800 271.544 19.866 o
1 -6 8 4178.110 3876.360 423.726 7.072 o
1 -6 9 4638.070 3804.960 439.667 6.476 o
1 -6 10 818.807 1012.900 262.970 22.975 o
1 -6 11 204.111 428.281 215.145 35.375 o
1 -6 12 761.041 806.593 510.132 6.279 o
1 -6 13 14.862 -450.385 485.349 6.988 o
1 -5 0 788.796 712.204 38.806 488.272 o
1 -5 1 1642.010 1439.300 71.892 125.603 o
1 -5 2 6211.120 6056.290 217.624 9.749 o
1 -5 3 12807.300 13012.800 285.881 2.687 o
1 -5 4 262.394 349.324 136.107 87.579 o
1 -5 5 6729.880 8436.610 671.960 2.646 o
1 -5 6 8519.560 8255.450 1165.210 1.038 o
1 -5 7 14726.400 12478.300 641.818 1.587 o
1 -5 8 18682.600 17174.200 790.115 0.978 o
1 -5 9 6559.360 6711.290 526.878 3.943 o
1 -5 10 61.487 305.436 169.330 57.284 o
1 -5 11 892.790 631.503 228.139 30.414 o
1 -5 12 171.991 548.312 500.889 6.554 o
1 -5 13 244.942 851.739 585.821 4.788 o
1 -4 0 25363.700 25266.100 215.897 0.783 o
1 -4 1 6228.050 5968.950 226.953 9.554 o
1 -4 2 3640.400 4252.810 882.411 1.993 o
1 -4 3 3088.230 2435.560 538.260 5.208 o
1 -4 4 3271.300 2589.780 415.875 8.124 o
1 -4 5 14903.300 16964.600 942.834 0.987 o
1 -4 12 1569.720 2742.900 827.625 2.361 o
1 -4 13 1483.890 1304.800 601.093 4.476 o
1 -4 14 707.652 913.228 591.850 4.674 o
1 -3 0 35908.700 36152.100 508.458 0.374 o
1 -3 1 5879.970 6030.160 137.159 12.526 o
1 -3 2 44.108 27.907 20.595 3837.830 o
1 -3 3 431.943 417.689 46.163 606.236 o
1 -3 4 3895.180 4255.150 156.974 21.585 o
1 -3 5 2420.920 2330.160 200.945 28.054 o
1 -3 12 1404.890 2792.730 807.397 2.483 o
1 -3 13 735.514 1151.730 1112.030 1.329 o
1 -3 14 1306.840 2219.100 756.089 2.838 o
1 -2 0 257.334 215.891 22.298 2395.870 o
1 -2 1 226.849 228.544 25.368 2034.540 o
1 -2 2 426.428 409.726 38.822 793.590 o
1 -2 3 424.313 517.903 41.237 696.093 o
1 -2 4 8452.750 9256.550 223.548 5.609 o
1 -2 5 1510.430 1761.650 129.201 66.296 o
1 -2 6 1035.510 1107.470 160.220 56.252 o
1 -2 7 1031.020 1302.790 193.979 39.519 o
1 -2 8 2468.560 2233.700 107.439 55.170 o
1 -2 12 649.443 1592.820 615.159 4.316 o
1 -2 13 2300.950 3977.370 913.362 1.913 o
1 -2 14 3465.380 5950.110 1020.130 1.497 o
1 -2 15 1487.970 1695.170 613.552 4.285 o
1 -1 0 3210.430 3965.980 262.032 15.378 o
1 -1 1 2488.870 2585.620 131.485 43.733 o
1 -1 2 2981.790 3182.570 86.853 44.125 o
1 -1 3 4630.890 4937.460 136.144 18.236 o
1 -1 4 20111.500 20488.600 383.251 1.129 o
1 -1 5 25583.700 25842.600 789.379 0.602 o
1 -1 6 2381.960 2178.480 94.833 62.971 o
1 -1 7 770.024 820.161 66.883 255.013 o
1 -1 8 2526.550 2198.340 265.381 18.468 o
1 -1 9 1850.390 1806.900 261.094 20.848 o
1 -1 10 979.725 978.066 216.485 32.967 o
1 -1 11 1948.330 2203.560 329.952 13.482 o
1 -1 12 1364.410 2045.890 570.684 4.932 o
1 -1 13 5198.960 7252.370 1035.000 1.393 o
1 -1 14 4248.010 5577.560 971.502 1.623 o
1 -1 15 893.287 1305.200 495.530 6.613 o
1 0 1 5843.250 5039.970 181.118 12.438 o
1 0 2 12162.400 11555.800 313.876 2.958 o
1 0 3 35789.200 35925.200 530.789 0.375 o
1 0 4 70749.300 73124.700 629.810 0.098 o
1 0 5 70019.800 70471.200 2297.740 0.078 o
1 0 6 15750.100 14942.800 982.889 0.950 o
1 0 8 200.047 86.942 71.938 312.997 o
1 0 9 1178.780 1274.990 101.709 109.457 o
1 0 10 6073.520 5937.120 773.787 2.302 o
1 0 11 3169.150 3260.970 491.109 6.009 o
1 0 12 675.062 1027.160 347.434 13.414 o
1 0 13 1160.000 1229.490 643.493 3.933 o
1 0 14 1550.690 1676.280 511.606 6.100 o
1 0 15 15.322 49.700 289.763 19.606 o
1 0 16 338.180 493.387 358.218 12.780 o
1 1 1 14947.900 15610.100 290.566 2.005 o
1 1 2 12817.900 11907.200 299.408 2.785 o
1 1 3 8179.590 7810.430 227.542 6.341 o
1 1 4 83759.500 80179.300 1000.250 0.072 o
1 1 5 64794.900 62175.500 1306.090 0.111 o
1 1 6 3035.620 2932.820 94.241 43.634 o
1 1 7 1629.110 1723.810 105.595 82.386 o
1 1 8 1764.860 1784.480 120.029 67.315 o
1 1 9 6625.320 7024.540 473.906 4.439 o
1 1 10 11794.600 11806.800 862.574 1.384 o
1 1 11 2294.740 2214.270 265.789 18.897 o
1 1 12 13.463 -19.893 103.804 152.774 o
1 1 13 65.231 41.613 112.663 129.587 o
1 1 14 2.958 -81.758 131.422 95.312 o
1 1 15 195.818 287.619 281.189 20.777 o
1 1 16 353.321 305.168 299.944 18.224 o
1 2 0 9297.520 10226.600 314.680 4.172 o
1 2 1 16517.600 15811.600 302.221 1.751 o
1 2 2 5729.550 5375.680 189.290 12.045 o
1 2 3 206.273 178.869 28.933 1712.060 o
1 2 4 10032.400 8818.460 213.654 4.807 o
1 2 5 5491.310 5091.640 198.164 12.547 o
1 2 6 1812.620 2081.420 187.884 35.110 o
1 2 7 2345.310 2469.060 167.153 35.648 o
1 2 8 3337.530 3471.660 205.772 20.845 o
1 2 9 7492.920 8130.140 202.882 7.118 o
1 2 10 8286.190 8646.360 293.478 5.269 o
1 2 11 2172.060 2463.740 334.506 12.822 o
1 2 12 53.698 29.848 94.079 185.855 o
1 2 13 251.082 266.569 207.643 37.996 o
1 2 14 1.597 18.608 101.864 158.649 o
1 2 15 7.141 -23.289 117.204 119.838 o
1 2 16 293.410 309.481 151.579 70.768 o
1 3 0 13252.500 14212.800 291.064 2.440 o
1 3 1 15002.400 14221.300 240.638 2.184 o
1 3 2 1081.060 1080.700 60.208 223.469 o
1 3 3 6608.340 6285.790 136.211 10.698 o
1 3 4 31.422 43.412 21.063 3677.400 o
1 3 5 173.748 153.458 53.451 558.732 o
1 3 6 842.933 908.869 76.143 200.922 o
1 3 7 416.481 477.202 60.314 387.478 o
1 3 8 425.036 597.047 111.173 125.621 o
1 3 9 5062.250 5407.520 240.818 11.445 o
1 3 10 10620.200 11394.100 352.577 3.271 o
1 3 11 9299.560 10254.600 505.037 2.986 o
1 3 12 352.730 313.743 118.139 114.908 o
1 3 13 106.078 185.327 112.737 128.955 o
1 3 14 12.622 -6.350 90.789 199.712 o
1 3 15 399.467 551.662 171.047 55.046 o
1 3 16 623.530 603.385 174.213 52.147 o
1 4 0 16579.300 16562.400 334.763 1.660 o
1 4 1 22385.700 22871.400 331.874 0.947 o
1 4 2 3809.670 3506.350 150.977 24.630 o
1 4 3 136.933 131.391 23.586 2677.990 o
1 4 4 4797.420 4773.660 137.211 17.838 o
1 4 5 318.104 274.910 38.447 928.199 o
1 4 6 983.843 846.853 91.600 146.862 o
1 4 7 2361.230 2609.440 228.221 23.117 o
1 4 8 1021.940 1245.430 106.847 107.836 o
1 4 9 3142.530 3378.160 154.411 28.847 o
1 4 10 15258.900 17100.100 617.009 1.386 o
1 4 11 6736.400 7235.160 439.065 4.767 o
1 4 12 1341.600 1484.550 268.663 21.008 o
1 4 13 145.241 231.621 106.915 142.803 o
1 4 14 137.709 228.609 113.830 126.169 o
1 4 15 2037.300 2424.960 280.793 17.536 o
1 4 16 2134.360 2365.870 285.259 16.965 o
1 4 17 637.382 573.095 290.968 19.169 o
1 5 0 25138.200 26324.800 1119.180 0.493 o
1 5 1 61069.300 63758.700 1087.050 0.122 o
1 5 2 33533.200 31328.800 560.971 0.438 o
1 5 3 14522.100 13481.500 210.272 2.394 o
1 5 4 3625.860 3386.650 103.143 32.337 o
1 5 5 270.492 270.572 39.791 905.681 o
1 5 6 6284.380 5483.690 261.697 8.925 o
1 5 7 5326.120 4738.950 231.227 11.950 o
1 5 8 1557.810 1488.970 115.355 78.952 o
1 5 9 3426.200 3697.140 209.099 19.757 o
1 5 10 6180.880 6891.650 403.334 5.588 o
1 5 11 785.034 749.649 145.959 70.900 o
1 5 12 1.300 -0.142 78.619 266.336 o
1 5 13 681.913 712.635 154.752 64.603 o
1 5 14 1149.330 1414.490 217.400 31.556 o
1 5 15 2375.620 3081.970 308.843 14.044 o
1 5 16 2179.920 2378.850 280.975 17.310 o
1 5 17 346.129 463.379 270.740 22.314 o
1 6 0 30284.200 31680.200 520.609 0.499 o
1 6 1 39096.100 41790.900 1304.400 0.241 o
1 6 2 20087.000 19395.500 289.399 1.223 o
1 6 3 5546.120 5053.410 146.975 14.396 o
1 6 4 2347.750 2140.970 92.822 65.208 o
1 6 5 2082.730 1823.490 96.716 74.436 o
1 6 6 18747.400 16567.900 390.868 1.380 o
1 6 7 10127.000 9469.810 276.644 4.211 o
1 6 8 1089.070 1015.210 123.008 87.754 o
1 6 9 64.700 52.949 38.052 1127.740 o
1 6 10 192.793 181.659 55.112 522.304 o
1 6 11 265.770 301.228 68.148 336.585 o
1 6 12 2144.040 2125.240 230.941 24.220 o
1 6 13 641.662 829.998 163.031 58.442 o
1 6 14 672.090 863.492 168.495 54.647 o
1 6 15 913.667 1088.900 190.946 41.691 o
1 6 16 684.225 1074.690 202.884 38.032 o
1 7 0 6066.480 6588.580 359.290 6.486 o
1 7 1 4865.600 4898.290 404.636 6.863 o
1 7 2 228.763 272.498 42.639 819.958 o
1 7 3 258.565 216.411 36.122 1100.230 o
1 7 4 29.029 41.702 29.552 1877.400 o
1 7 5 5286.870 4950.430 153.355 15.066 o
1 7 6 11189.800 9571.980 252.128 3.857 o
1 7 7 6619.940 5840.910 266.776 8.202 o
1 7 8 570.279 499.730 73.260 260.298 o
1 7 9 39.500 41.870 40.775 987.052 o
1 7 10 26.598 46.957 45.172 805.355 o
1 7 11 958.983 1154.340 117.660 95.697 o
1 7 12 1504.170 1764.080 208.343 31.959 o
1 7 13 333.377 287.954 171.272 55.506 o
1 7 14 23.702 -13.203 89.131 207.198 o
1 7 15 374.580 597.074 192.371 43.722 o
1 7 16 524.860 609.801 214.877 34.913 o
1 8 0 113.719 162.468 63.141 407.388 o
1 8 1 472.328 493.989 64.290 338.060 o
1 8 2 1926.470 1919.570 104.319 72.397 o
1 8 3 1387.780 1306.320 82.846 128.692 o
1 8 4 655.670 555.350 54.454 391.482 o
1 8 5 2281.930 1990.470 145.869 45.024 o
1 8 6 6475.300 5827.320 197.995 9.997 o
1 8 7 5842.990 4941.300 196.015 12.034 o
1 8 8 1965.050 1746.070 128.989 58.580 o
1 8 9 960.484 898.582 100.061 128.202 o
1 8 10 468.916 503.006 83.707 212.535 o
1 8 11 401.150 461.129 111.254 127.166 o
1 8 12 1027.970 1220.000 233.364 28.248 o
1 8 13 192.713 367.461 137.446 86.220 o
1 8 14 125.510 66.848 98.329 169.633 o
1 8 15 219.176 444.490 165.043 59.827 o
1 9 0 392.821 375.667 94.987 173.243 o
1 9 1 6.617 24.799 49.225 679.230 o
1 9 2 1476.740 1432.860 142.206 60.817 o
1 9 3 1719.900 1754.390 153.311 49.729 o
1 9 4 247.284 239.583 54.744 516.265 o
1 9 5 676.750 665.296 81.631 202.891 o
1 9 6 5072.120 4681.710 259.419 11.313 o
1 9 7 6489.130 5991.670 298.979 7.571 o
1 9 8 3688.990 3473.140 238.394 16.674 o
1 9 9 1773.070 1567.000 168.078 43.838 o
1 9 10 280.064 242.506 76.554 270.325 o
1 9 11 411.862 465.656 150.039 71.255 o
1 9 12 1587.900 2079.650 292.844 17.223 o
1 9 13 1382.770 1524.900 271.678 20.486 o
1 9 14 545.035 511.740 162.096 60.550 o
1 9 15 232.499 355.539 163.569 60.983 o
1 10 0 4238.550 4817.180 289.010 11.244 o
1 10 1 1238.990 1207.750 146.685 62.475 o
1 10 2 876.950 754.010 113.050 109.614 o
1 10 3 2140.140 1945.840 167.927 39.203 o
1 10 4 1284.960 1307.730 110.935 93.235 o
1 10 5 1989.490 2136.380 141.560 49.368 o
1 10 6 3522.680 3536.520 212.887 19.330 o
1 10 7 1247.650 1127.820 140.201 67.670 o
1 10 8 74.130 58.598 57.206 500.713 o
1 10 9 36.781 -40.303 69.236 343.282 o
1 10 10 22.056 4.529 61.956 428.768 o
1 10 11 1270.130 1554.910 252.521 23.607 o
1 10 12 2365.220 3208.290 363.710 10.641 o
1 10 13 1328.980 1815.870 285.342 18.593 o
1 10 14 313.007 293.781 126.193 101.457 o
1 10 15 35.001 30.544 109.314 137.722 o
1 11 0 2679.700 2618.540 233.592 21.321 o
1 11 1 80.744 94.145 77.547 272.695 o
1 11 2 1184.220 1210.360 246.626 25.178 o
1 11 3 3356.330 3107.550 390.101 8.827 o
1 11 4 1359.470 1494.760 162.837 50.138 o
1 11 5 1126.550 1125.960 143.745 66.580 o
1 11 6 381.647 306.146 76.174 265.115 o
1 11 7 144.042 83.180 60.577 442.702 o
1 11 8 883.298 787.583 132.329 83.007 o
1 11 9 592.210 481.329 106.557 133.387 o
1 11 10 834.529 846.958 137.116 78.193 o
1 11 11 1061.490 1207.140 231.756 28.552 o
1 11 12 1226.750 1521.550 264.979 21.707 o
1 11 13 284.132 757.696 201.347 39.990 o
1 11 14 56.713 16.745 118.959 116.280 o
1 12 0 3.609 -134.231 181.654 49.888 o
1 12 1 64.369 12.592 128.337 99.907 o
1 12 2 1400.050 1545.530 310.393 15.973 o
1 12 3 2565.980 2918.970 351.453 11.231 o
1 12 4 1143.480 1153.200 158.102 56.363 o
1 12 5 567.400 676.209 123.704 99.955 o
1 12 6 11.175 -34.824 70.532 330.905 o
1 12 7 740.714 579.825 198.333 40.301 o
1 12 8 926.090 833.347 139.661 74.586 o
1 12 9 1035.610 853.012 139.861 72.830 o
1 12 10 388.223 378.531 99.191 159.617 o
1 12 11 214.728 508.123 164.909 59.846 o
1 12 12 279.176 330.086 155.799 67.044 o
1 12 13 247.144 617.839 192.505 43.901 o
1 13 0 64.513 56.532 177.099 52.467 o
1 13 1 399.542 434.845 219.968 33.646 o
1 13 2 1238.080 1625.380 350.716 12.763 o
1 13 3 726.558 952.479 290.031 19.103 o
1 13 4 750.795 783.819 237.651 28.219 o
1 13 5 470.747 490.708 193.041 43.328 o
1 13 6 190.037 74.618 128.739 98.888 o
1 13 7 11.928 -2.545 113.735 127.260 o
1 13 8 356.087 393.316 164.507 59.868 o
1 13 9 488.771 285.342 137.446 84.599 o
1 14 1 483.674 690.581 316.287 16.297 o
1 14 2 656.370 804.717 299.944 17.979 o
1 14 3 570.052 779.800 277.304 21.049 o
1 14 4 671.370 683.079 241.536 27.529 o
1 14 5 579.526 599.620 217.021 34.155 o
1 14 6 406.424 367.595 191.166 44.444 o
1 14 7 9.498 -52.112 135.169 90.101 o
1 14 8 158.579 72.206 112.127 130.378 o
1 14 9 168.714 23.979 126.729 102.206 o
2 -13 0 44.452 26.927 144.546 78.772 o
2 -13 1 585.382 549.115 230.551 30.369 o
2 -13 2 799.978 899.296 304.365 17.354 o
2 -12 0 1234.190 1137.350 279.179 19.938 o
2 -12 1 1254.370 1028.170 273.151 20.822 o
2 -12 2 1102.170 985.970 278.912 20.221 o
2 -12 3 448.286 449.849 212.734 35.865 o
2 -12 4 18.822 48.361 161.560 63.063 o
2 -12 5 18.307 208.045 190.362 45.402 o
2 -12 6 48.392 2.277 157.809 66.094 o
2 -11 0 1463.930 1490.880 300.346 16.944 o
2 -11 1 1127.600 833.787 235.373 27.999 o
2 -11 2 1076.730 981.415 268.462 21.784 o
2 -11 3 23.822 156.603 148.967 74.134 o
2 -11 4 2.241 -4.153 154.058 69.362 o
2 -11 5 38.148 214.743 195.185 43.177 o
2 -11 6 160.526 284.672 202.419 40.050 o
2 -11 7 60.478 145.216 216.485 35.107 o
2 -11 8 584.227 630.699 283.868 20.141 o
2 -11 9 194.040 157.943 248.502 26.612 o
2 -10 0 883.963 736.664 206.571 36.661 o
2 -10 1 1199.200 1193.210 252.923 24.011 o
2 -10 2 1097.650 1127.700 258.549 23.259 o
2 -10 3 203.953 234.436 169.865 56.764 o
2 -10 4 1.434 29.740 111.859 131.562 o
2 -10 5 22.469 74.885 133.427 92.442 o
2 -10 6 46.731 329.014 204.428 39.332 o
2 -10 7 279.777 447.705 204.830 38.903 o
2 -10 8 744.366 730.770 276.768 21.010 o
2 -10 9 394.229 583.812 281.189 20.645 o
2 -10 10 586.928 447.571 249.975 25.956 o
2 -9 0 2092.000 1850.700 296.461 16.324 o
2 -9 1 3859.150 3196.900 385.412 8.622 o
2 -9 2 2243.390 2260.850 159.907 39.411 o
2 -9 3 5.118 117.133 71.657 320.241 o
2 -9 4 1837.170 1668.640 175.602 40.158 o
2 -9 5 1644.510 1651.710 187.826 37.444 o
2 -9 6 1125.350 1075.380 166.867 51.799 o
2 -9 7 2456.220 2139.770 242.794 21.479 o
2 -9 8 1861.490 1906.650 243.284 23.363 o
2 -9 9 680.971 636.257 161.771 59.666 o
2 -9 10 92.728 40.368 130.907 95.963 o
2 -9 11 13.361 -80.244 202.686 40.071 o
2 -8 0 2018.320 1939.430 72.861 91.376 o
2 -8 1 3584.510 3764.790 293.909 12.769 o
2 -8 2 1702.460 1543.450 133.801 61.852 o
2 -8 3 2422.810 2115.020 212.801 26.330 o
2 -8 4 8131.040 8210.260 564.722 3.094 o
2 -8 5 7664.590 7229.340 658.965 2.675 o
2 -8 6 4419.590 4047.970 375.566 8.225 o
2 -8 7 4347.030 3640.920 299.257 11.457 o
2 -8 8 1092.690 1179.830 194.015 39.505 o
2 -8 9 75.306 21.256 278.644 21.200 o
2 -8 10 465.703 324.473 156.545 65.671 o
2 -8 11 54.650 131.954 205.500 38.963 o
2 -8 12 94.134 -142.671 247.430 26.884 o
2 -7 0 840.634 835.724 45.677 379.263 o
2 -7 1 720.556 647.199 41.076 508.257 o
2 -7 2 134.825 128.205 26.501 2170.070 o
2 -7 3 2390.830 2359.090 105.321 56.309 o
2 -7 4 7042.010 7021.140 318.096 6.340 o
2 -7 5 4980.710 4799.050 581.468 3.961 o
2 -7 6 3324.550 2165.140 738.575 2.872 o
2 -7 7 2844.370 2589.010 245.883 19.404 o
2 -7 8 156.133 78.281 89.540 203.950 o
2 -7 9 1272.430 973.153 182.694 43.573 o
2 -7 10 624.425 683.582 174.925 51.561 o
2 -7 11 94.091 180.315 236.713 29.354 o
2 -7 12 120.062 -15.138 221.173 33.639 o
2 -6 0 378.704 357.682 48.897 581.023 o
2 -6 1 20.605 9.749 12.662 10209.200 o
2 -6 2 934.673 897.028 54.493 289.190 o
2 -6 3 181.340 252.420 55.272 516.118 o
2 -6 4 1444.880 1439.610 111.107 86.579 o
2 -6 5 298.564 279.160 89.688 197.928 o
2 -6 6 515.627 349.015 211.293 36.322 o
2 -6 7 932.323 993.820 155.716 60.624 o
2 -6 8 531.942 397.952 107.041 134.735 o
2 -6 9 327.883 230.221 106.051 142.825 o
2 -6 10 941.377 535.040 134.050 82.108 o
2 -6 11 641.621 792.888 245.189 26.702 o
2 -6 12 442.003 374.695 313.340 16.671 o
2 -6 13 341.751 458.958 405.507 9.983 o
2 -5 0 3339.880 2850.870 134.097 32.727 o
2 -5 1 1641.330 1755.190 83.769 102.583 o
2 -5 2 696.785 720.803 53.643 368.423 o
2 -5 3 193.416 155.070 37.850 1070.990 o
2 -5 4 755.230 442.295 285.486 19.868 o
2 -5 5 489.798 602.877 100.462 149.879 o
2 -5 6 1305.270 1091.840 142.213 65.581 o
2 -5 7 4684.950 3875.490 550.857 4.499 o
2 -5 8 2578.280 1968.560 252.253 20.151 o
2 -5 9 646.038 537.826 136.433 83.120 o
2 -5 10 3465.520 2634.560 309.656 12.817 o
2 -5 11 2157.100 2445.370 561.306 4.969 o
2 -5 12 2568.370 1873.480 514.821 5.827 o
2 -5 13 3075.740 3729.940 833.118 2.259 o
2 -4 0 15.104 39.094 20.176 4027.070 o
2 -4 1 2852.570 2800.630 115.749 42.059 o
2 -4 2 8938.200 9375.680 184.029 5.522 o
2 -4 3 18972.900 18789.600 452.764 1.219 o
2 -4 4 13813.300 14018.200 329.963 2.268 o
2 -4 5 3074.300 3331.770 222.936 20.154 o
2 -4 6 492.162 340.401 108.778 132.151 o
2 -4 7 4233.820 4236.720 456.547 6.192 o
2 -4 8 104.732 -97.391 159.952 64.305 o
2 -4 9 2862.720 2501.630 452.528 7.193 o
2 -4 10 5660.730 4978.080 703.039 2.796 o
2 -4 11 2757.430 2726.150 600.423 4.280 o
2 -4 12 3176.520 1647.910 2319.310 0.305 o
2 -4 13 2449.050 3508.770 806.057 2.439 o
2 -4 14 144.102 222.781 381.527 11.302 o
2 -3 0 10048.300 9270.500 314.182 4.059 o
2 -3 1 40570.000 41911.600 440.109 0.295 o
2 -3 2 27671.300 27390.600 261.935 0.657 o
2 -3 3 52241.400 52015.100 641.685 0.180 o
2 -3 4 31954.100 33613.300 367.097 0.468 o
2 -3 5 3379.980 3204.740 137.599 30.337 o
2 -3 6 227.769 195.246 55.315 512.764 o
2 -3 7 169.220 106.039 97.927 170.415 o
2 -3 8 650.794 758.345 131.100 88.047 o
2 -3 9 5076.920 4858.180 627.484 3.474 o
2 -3 10 2373.400 2103.490 451.054 7.478 o
2 -3 11 853.806 733.449 344.688 13.613 o
2 -3 12 1290.910 1008.340 455.475 7.764 o
2 -3 13 400.328 670.754 447.839 8.177 o
2 -3 14 224.770 603.906 467.130 7.531 o
2 -2 0 46262.200 44675.500 562.405 0.235 o
2 -2 1 13402.800 13493.000 256.820 2.557 o
2 -2 2 32750.600 32550.100 303.053 0.469 o
2 -2 3 40260.700 41703.700 487.511 0.296 o
2 -2 4 20218.200 20225.100 309.680 1.171 o
2 -2 5 450.952 471.662 57.873 409.448 o
2 -2 6 6708.360 7043.450 243.686 7.902 o
2 -2 7 2371.540 2058.060 146.293 43.482 o
2 -2 8 1996.670 1888.120 101.441 72.847 o
2 -2 9 3404.050 3442.600 156.273 26.634 o
2 -2 10 152.084 182.903 83.799 231.645 o
2 -2 11 305.222 348.893 151.576 70.645 o
2 -2 12 18.262 -106.769 258.549 24.626 o
2 -2 13 337.774 262.702 432.969 8.767 o
2 -2 14 15.703 156.469 323.253 15.752 o
2 -2 15 309.138 424.262 405.507 9.988 o
2 -1 0 5666.750 5237.980 157.685 13.430 o
2 -1 1 2683.330 2825.290 135.551 38.962 o
2 -1 2 230.927 241.439 28.935 1624.690 o
2 -1 3 15335.400 15286.500 202.911 2.077 o
2 -1 4 8690.650 8016.360 209.693 6.019 o
2 -1 5 1449.460 1536.620 80.975 121.427 o
2 -1 6 7171.390 6536.720 215.074 8.175 o
2 -1 7 948.721 892.572 72.239 206.081 o
2 -1 8 4081.320 4271.590 178.540 18.946 o
2 -1 9 6036.820 5802.760 265.680 8.933 o
2 -1 10 846.448 790.146 114.934 106.872 o
2 -1 11 3.738 -65.393 139.992 84.001 o
2 -1 12 13.552 16.238 108.175 140.671 o
2 -1 13 491.839 654.594 347.300 13.541 o
2 -1 14 39.691 658.296 403.765 10.086 o
2 -1 15 373.923 310.259 384.207 11.122 o
2 0 0 1323.790 1185.180 83.713 134.552 o
2 0 1 48.528 61.867 25.654 2467.670 o
2 0 2 2245.090 2241.230 92.971 66.471 o
2 0 3 1894.780 1837.160 72.111 99.983 o
2 0 4 3660.960 3803.330 83.426 32.279 o
2 0 5 21.183 31.013 18.559 4752.920 o
2 0 6 1156.490 1217.380 89.187 132.878 o
2 0 7 4639.510 4525.240 179.827 16.439 o
2 0 8 13670.700 13553.000 500.023 1.948 o
2 0 9 20921.400 20549.900 801.471 0.812 o
2 0 10 7536.470 6859.550 294.749 6.380 o
2 0 11 328.974 237.845 126.461 101.131 o
2 0 12 0.004 -92.897 118.694 116.851 o
2 0 13 10.061 -7.057 132.121 94.306 o
2 0 14 413.058 294.429 149.464 72.246 o
2 0 15 1358.500 1264.460 322.048 15.054 o
2 0 16 495.136 519.911 379.652 11.357 o
2 1 0 23388.700 23593.000 390.637 0.860 o
2 1 1 228.390 185.471 35.333 1179.950 o
2 1 2 1610.110 1430.930 71.161 129.001 o
2 1 3 14194.500 13703.400 253.376 2.370 o
2 1 4 4056.680 4057.310 152.170 21.701 o
2 1 5 1967.290 1874.070 110.155 68.196 o
2 1 6 7529.870 7446.780 236.741 6.967 o
2 1 7 8374.800 8521.090 325.996 4.936 o
2 1 8 18759.900 18207.500 1960.020 0.333 o
2 1 9 24566.400 25412.100 1801.540 0.315 o
2 1 10 10409.500 10380.300 1267.230 0.843 o
2 1 11 117.261 112.387 93.750 186.396 o
2 1 12 839.012 964.131 198.224 39.405 o
2 1 13 1485.060 1649.950 250.187 23.454 o
2 1 14 3081.230 3162.980 346.676 10.893 o
2 1 15 2453.200 2558.170 328.483 12.889 o
2 1 16 203.770 163.933 125.446 103.843 o
2 2 0 135558.000 132802.000 985.769 0.028 o
2 2 1 32568.600 31416.100 1021.270 0.378 o
2 2 2 2103.170 1907.500 143.341 48.638 o
2 2 3 1525.710 1481.100 136.643 63.363 o
2 2 4 2680.010 2766.740 214.743 23.648 o
2 2 5 9376.800 9063.020 435.783 3.539 o
2 2 6 12390.200 12637.000 364.871 2.608 o
2 2 7 1723.710 1778.690 151.403 50.434 o
2 2 8 3155.970 3071.570 281.524 14.886 o
2 2 9 8526.220 9283.060 619.524 2.611 o
2 2 10 278.887 340.962 116.929 117.925 o
2 2 11 1838.180 2001.250 239.963 23.840 o
2 2 12 1891.150 1959.220 247.469 22.560 o
2 2 13 2457.440 2470.300 286.870 16.187 o
2 2 14 3635.020 3504.810 347.068 10.177 o
2 2 15 1311.170 1526.870 297.131 17.436 o
2 2 16 41.706 80.410 116.420 121.373 o
2 3 0 60023.600 68800.600 4013.410 0.057 o
2 3 1 7067.990 6409.740 318.029 6.550 o
2 3 2 1767.370 1793.770 143.609 53.577 o
2 3 3 1637.780 1739.320 107.398 80.371 o
2 3 4 6801.150 6333.800 213.024 8.813 o
2 3 5 17607.200 16139.800 248.288 1.646 o
2 3 6 4821.860 4491.030 142.008 18.040 o
2 3 7 963.615 700.092 158.479 59.707 o
2 3 8 540.894 442.615 183.798 47.567 o
2 3 9 272.061 282.270 97.689 168.220 o
2 3 10 620.410 646.793 94.440 161.605 o
2 3 11 772.847 799.155 155.879 62.702 o
2 3 12 1753.650 1839.590 231.841 25.753 o
2 3 13 608.524 687.259 163.174 58.970 o
2 3 14 1683.700 2030.040 305.637 15.863 o
2 3 15 1496.880 1771.780 256.832 22.233 o
2 3 16 95.284 116.149 245.287 27.346 o
2 4 0 9060.300 10941.300 330.432 4.018 o
2 4 1 66.260 66.525 31.128 1674.600 o
2 4 2 810.662 691.893 72.875 228.175 o
2 4 3 964.571 887.216 74.955 195.039 o
2 4 4 5675.760 5328.150 193.628 12.062 o
2 4 5 21135.700 20193.000 303.572 1.112 o
2 4 6 5567.700 4981.640 187.803 12.892 o
2 4 7 102.686 24.020 32.670 1515.800 o
2 4 8 432.225 457.262 135.169 87.137 o
2 4 9 21.113 39.478 65.704 381.122 o
2 4 10 12.403 -18.639 67.516 361.120 o
2 4 11 1048.070 1038.420 165.020 53.574 o
2 4 12 76.070 97.608 96.352 176.902 o
2 4 13 198.923 265.659 111.316 131.195 o
2 4 14 1713.270 1949.110 254.754 21.896 o
2 4 15 2608.170 2958.210 316.937 13.252 o
2 4 16 530.863 647.040 175.973 51.435 o
2 4 17 14.422 -180.449 250.377 26.260 o
2 5 0 89.313 86.272 66.044 375.269 o
2 5 1 29.885 26.367 33.101 1498.840 o
2 5 2 350.203 357.237 56.297 461.461 o
2 5 3 521.870 509.820 60.350 365.754 o
2 5 4 9374.120 8972.660 248.032 4.915 o
2 5 5 21795.400 19939.000 319.870 1.070 o
2 5 6 17538.000 16036.400 424.463 1.483 o
2 5 7 3385.060 3137.380 170.225 25.761 o
2 5 8 2137.660 1961.270 123.583 56.547 o
2 5 9 812.490 831.500 120.584 98.649 o
2 5 10 679.765 646.928 76.828 224.435 o
2 5 11 3125.090 3103.130 346.764 10.875 o
2 5 12 707.846 913.795 167.296 55.023 o
2 5 13 557.880 567.255 144.211 75.498 o
2 5 14 1471.260 1742.660 235.246 26.068 o
2 5 15 1061.350 1261.880 211.800 33.641 o
2 5 16 75.852 123.143 108.966 138.332 o
2 5 17 107.397 392.914 258.281 24.629 o
2 6 0 759.620 789.044 144.680 72.113 o
2 6 1 1352.060 1344.700 118.643 82.687 o
2 6 2 2376.260 2501.730 146.209 41.051 o
2 6 3 1847.600 1732.890 126.997 61.860 o
2 6 4 8777.980 7887.510 234.741 5.767 o
2 6 5 28791.300 25715.000 328.051 0.639 o
2 6 6 26876.300 24302.700 340.129 0.721 o
2 6 7 5831.530 5164.000 196.531 11.812 o
2 6 8 784.045 684.865 78.313 207.358 o
2 6 9 154.515 138.190 46.913 724.580 o
2 6 10 4917.610 4802.640 203.856 13.975 o
2 6 11 4779.060 5033.770 467.197 5.599 o
2 6 12 2086.810 2424.410 306.709 15.026 o
2 6 13 291.443 292.295 115.738 120.445 o
2 6 14 126.256 144.976 154.862 68.483 o
2 6 15 6.261 0.533 99.543 166.135 o
2 6 16 177.728 185.534 116.251 120.881 o
2 6 17 321.952 560.368 296.193 18.655 o
2 7 0 299.840 345.357 96.588 170.647 o
2 7 1 5474.020 6537.730 258.669 9.369 o
2 7 2 7235.420 7793.550 268.772 6.622 o
2 7 3 2200.070 1999.020 130.581 52.060 o
2 7 4 4090.650 3721.090 155.461 22.075 o
2 7 5 9065.350 8693.910 198.090 5.575 o
2 7 6 3272.400 3002.170 124.696 34.311 o
2 7 7 34.636 32.467 42.914 892.133 o
2 7 8 311.382 231.914 51.224 570.839 o
2 7 9 1235.840 1156.890 109.192 99.124 o
2 7 10 5348.090 5480.220 234.082 11.130 o
2 7 11 6362.430 6240.410 381.351 6.021 o
2 7 12 1673.080 1700.960 212.778 30.296 o
2 7 13 16.326 54.961 88.373 210.715 o
2 7 14 93.607 87.305 88.957 207.326 o
2 7 15 293.319 215.899 109.454 134.833 o
2 8 0 607.902 691.652 146.556 72.287 o
2 8 1 10476.300 11063.500 532.638 2.539 o
2 8 2 5243.800 5819.440 246.535 10.594 o
2 8 3 943.822 1008.330 87.901 153.699 o
2 8 4 217.400 180.241 42.286 856.194 o
2 8 5 65.291 76.515 35.031 1324.980 o
2 8 6 1158.740 1043.440 78.259 162.291 o
2 8 7 2955.490 2923.690 158.652 31.095 o
2 8 8 908.582 799.238 90.115 155.944 o
2 8 9 783.864 660.620 86.795 177.010 o
2 8 10 3021.350 2637.100 171.186 29.338 o
2 8 11 2998.650 2900.480 257.095 17.463 o
2 8 12 823.413 939.506 160.961 58.194 o
2 8 13 64.616 169.618 186.008 47.536 o
2 8 14 89.965 167.186 140.795 82.865 o
2 8 15 66.540 -41.529 137.446 87.112 o
2 9 0 1150.250 1249.210 203.758 35.787 o
2 9 1 5302.770 5539.650 382.063 6.896 o
2 9 2 4242.690 4508.940 341.472 9.317 o
2 9 3 668.928 745.744 120.769 102.060 o
2 9 4 54.697 64.372 55.954 523.998 o
2 9 5 291.155 292.687 65.169 364.255 o
2 9 6 1247.930 1215.060 135.606 70.687 o
2 9 7 1694.970 1488.810 152.047 52.116 o
2 9 8 543.516 440.407 72.788 268.627 o
2 9 9 562.050 418.752 72.726 268.285 o
2 9 10 936.122 803.664 126.419 88.843 o
2 9 11 1637.860 1383.710 263.372 21.355 o
2 9 12 775.960 708.934 202.151 38.568 o
2 9 13 337.863 308.651 155.263 67.326 o
2 9 14 326.357 371.078 165.445 59.334 o
2 9 15 37.887 -82.655 141.465 82.251 o
2 10 0 371.927 441.141 139.054 82.993 o
2 10 1 3803.940 3869.160 388.828 8.312 o
2 10 2 5498.960 5635.060 475.503 5.072 o
2 10 3 2847.760 2937.580 225.240 21.310 o
2 10 4 2558.510 2442.970 209.680 25.602 o
2 10 5 403.736 396.091 76.029 261.478 o
2 10 6 88.985 118.810 56.033 519.147 o
2 10 7 1218.710 1371.470 131.961 72.920 o
2 10 8 1021.630 848.684 121.262 93.111 o
2 10 9 234.540 235.549 74.940 284.186 o
2 10 10 628.949 492.644 104.392 137.321 o
2 10 11 1284.720 1163.070 237.517 26.824 o
2 10 12 397.909 431.898 164.909 59.363 o
2 10 13 17.838 17.147 121.907 110.765 o
2 10 14 17.107 109.582 131.954 94.506 o
2 11 0 1322.350 1628.940 201.592 34.923 o
2 11 1 4396.320 4692.950 350.515 8.777 o
2 11 2 3763.270 4221.870 336.047 10.159 o
2 11 3 3453.050 3962.410 271.930 14.194 o
2 11 4 2394.200 2485.530 213.139 25.620 o
2 11 5 970.030 1161.640 124.117 87.434 o
2 11 6 86.596 141.692 64.467 392.769 o
2 11 7 2312.800 2370.860 175.273 34.198 o
2 11 8 1890.730 1534.460 167.549 43.177 o
2 11 9 616.386 444.839 105.390 135.955 o
2 11 10 498.938 563.717 170.937 54.715 o
2 11 11 51.640 -108.242 135.973 89.021 o
2 11 12 60.796 25.453 105.563 147.626 o
2 11 13 257.920 327.808 157.809 65.438 o
2 11 14 150.244 340.669 175.626 53.120 o
2 12 0 1205.730 1548.350 375.633 11.223 o
2 12 1 1738.780 1827.260 397.335 9.805 o
2 12 2 1633.460 2073.080 375.901 10.870 o
2 12 3 1044.030 1253.230 287.485 19.005 o
2 12 4 139.592 190.362 153.522 69.615 o
2 12 5 41.708 172.460 115.342 123.523 o
2 12 6 1105.990 1206.520 171.333 49.122 o
2 12 7 2248.950 2452.440 230.045 23.481 o
2 12 8 1243.610 1179.430 163.331 52.326 o
2 12 9 584.683 514.460 202.486 39.187 o
2 12 10 114.590 43.270 108.644 139.156 o
2 12 11 84.447 49.566 115.610 123.010 o
2 12 12 671.173 630.431 190.630 43.638 o
2 12 13 556.655 644.765 191.701 43.494 o
2 13 0 436.610 1003.380 343.080 13.839 o
2 13 1 178.961 195.586 219.432 34.112 o
2 13 2 1.659 -24.381 166.516 59.371 o
2 13 3 541.317 601.897 233.498 29.645 o
2 13 4 371.729 644.747 230.953 30.471 o
2 13 5 548.288 623.404 149.230 70.586 o
2 13 6 738.744 936.743 166.166 55.456 o
2 13 7 1215.030 1190.910 178.394 45.114 o
2 13 8 517.342 504.664 169.598 55.603 o
2 13 9 205.831 169.699 150.374 72.417 o
2 13 10 27.223 -10.985 104.089 151.926 o
2 13 11 22.748 -99.267 134.097 91.544 o
2 13 12 203.319 132.356 129.542 97.498 o
2 14 2 246.933 206.036 211.394 36.695 o
2 14 3 593.852 814.497 297.131 18.350 o
2 14 4 659.729 834.457 283.466 20.075 o
2 14 5 285.736 441.543 215.279 35.243 o
2 14 6 343.653 333.569 182.860 48.692 o
2 14 7 585.867 802.976 243.411 27.149 o
2 14 8 512.888 413.143 185.941 46.621 o
3 -12 0 991.913 693.528 215.145 33.708 o
3 -12 1 40.459 -75.287 174.688 53.942 o
3 -12 2 41.705 -57.202 155.665 67.930 o
3 -12 3 738.363 273.553 177.903 50.282 o
3 -12 4 784.952 510.400 217.422 33.725 o
3 -12 5 510.647 588.635 239.258 28.302 o
3 -11 0 135.127 -12.325 135.303 89.796 o
3 -11 1 20.415 71.001 116.548 121.153 o
3 -11 2 1323.490 817.712 253.191 24.076 o
3 -11 3 2873.490 2398.340 399.612 8.981 o
3 -11 4 1584.940 1279.220 302.355 16.719 o
3 -11 5 630.825 487.224 221.575 32.804 o
3 -11 6 637.715 428.683 204.160 38.540 o
3 -11 7 131.955 157.139 167.990 58.204 o
3 -11 8 6.921 -132.088 193.711 43.871 o
3 -10 0 49.696 -161.962 149.369 73.773 o
3 -10 1 5.344 -190.362 155.531 68.053 o
3 -10 2 1091.240 855.891 234.436 28.264 o
3 -10 3 1768.950 1407.020 296.729 17.015 o
3 -10 4 871.039 578.989 205.768 37.197 o
3 -10 5 421.404 297.934 168.928 56.767 o
3 -10 6 177.805 207.509 172.277 55.257 o
3 -10 7 4.283 -38.046 134.365 91.183 o
3 -10 8 75.486 -53.719 170.401 56.679 o
3 -10 9 4.426 -100.874 200.007 41.152 o
3 -9 0 567.735 493.387 156.871 64.425 o
3 -9 1 590.010 505.443 177.367 50.700 o
3 -9 2 38.761 -58.274 121.907 110.757 o
3 -9 3 788.699 554.608 195.185 41.451 o
3 -9 4 649.832 494.994 189.156 44.581 o
3 -9 5 774.228 498.717 107.800 125.549 o
3 -9 6 1174.660 732.159 305.637 17.008 o
3 -9 7 104.138 298.197 182.659 49.206 o
3 -9 8 205.443 177.041 161.359 62.930 o
3 -9 9 545.952 489.982 163.623 59.510 o
3 -9 10 343.371 372.552 194.113 43.231 o
3 -9 11 281.642 401.220 232.426 30.288 o
3 -8 0 566.613 561.199 102.884 141.834 o
3 -8 1 560.597 549.160 73.095 259.833 o
3 -8 2 656.152 548.690 81.249 210.145 o
3 -8 3 2499.250 2633.380 357.280 11.095 o
3 -8 4 1972.830 1986.140 185.204 35.160 o
3 -8 5 1587.990 1710.620 412.808 9.202 o
3 -8 6 1160.730 1358.840 323.454 15.042 o
3 -8 7 170.675 245.486 103.487 151.977 o
3 -8 8 1252.600 1446.090 289.897 18.374 o
3 -8 9 2797.820 2491.130 390.838 9.352 o
3 -8 10 1566.760 1960.420 369.605 11.288 o
3 -8 11 1063.470 994.945 294.049 18.305 o
3 -8 12 697.889 802.440 314.412 16.368 o
3 -7 0 1134.670 1137.960 237.718 27.147 o
3 -7 1 5208.040 4765.760 271.477 10.572 o
3 -7 2 6671.690 5825.100 249.661 8.527 o
3 -7 3 6723.950 6811.880 874.244 1.808 o
3 -7 4 1477.600 1536.860 341.874 13.270 o
3 -7 5 352.231 512.221 103.286 147.054 o
3 -7 6 431.641 473.238 159.483 63.145 o
3 -7 7 286.905 222.321 99.308 163.191 o
3 -7 8 4185.710 4193.070 549.115 4.602 o
3 -7 9 4216.540 3762.630 671.424 3.268 o
3 -7 10 1785.530 1349.180 362.639 11.749 o
3 -7 11 511.449 459.896 218.360 33.968 o
3 -7 12 304.841 276.902 225.058 32.322 o
3 -6 0 20001.700 18049.800 361.690 1.238 o
3 -6 1 16062.000 14913.800 234.681 1.954 o
3 -6 2 10044.100 9356.700 425.109 3.365 o
3 -6 3 6400.120 6552.040 533.222 3.942 o
3 -6 4 8.240 -36.216 32.484 1559.960 o
3 -6 5 898.897 697.799 238.209 27.921 o
3 -6 6 24.955 71.163 52.119 604.878 o
3 -6 7 367.329 493.845 120.486 109.355 o
3 -6 8 1726.880 1407.500 336.315 13.547 o
3 -6 9 1008.540 1039.980 292.107 18.570 o
3 -6 10 154.922 222.904 126.295 102.559 o
3 -6 11 500.449 628.020 253.325 25.281 o
3 -6 12 174.681 121.103 195.051 43.181 o
3 -6 13 286.492 311.599 239.124 28.650 o
3 -5 0 17284.100 16615.600 350.038 1.561 o
3 -5 1 2685.320 2425.720 103.982 50.747 o
3 -5 2 9527.790 9552.180 585.235 2.598 o
3 -5 3 2615.620 2886.670 206.510 24.907 o
3 -5 4 601.487 512.515 162.140 60.220 o
3 -5 5 1200.000 1075.840 114.416 94.666 o
3 -5 6 87.951 137.618 89.219 205.903 o
3 -5 7 26.483 53.674 66.547 371.396 o
3 -5 8 500.085 503.358 140.594 80.025 o
3 -5 9 266.181 309.663 132.980 91.783 o
3 -5 10 37.090 33.741 96.509 176.668 o
3 -5 11 308.380 165.445 171.071 55.836 o
3 -5 12 329.597 155.263 199.337 41.185 o
3 -5 13 73.456 219.298 252.923 25.715 o
3 -4 0 293.133 220.742 29.205 1517.690 o
3 -4 1 2235.650 2306.840 132.310 48.628 o
3 -4 2 12034.200 12255.100 638.268 1.877 o
3 -4 3 4487.200 5178.890 302.355 10.118 o
3 -4 4 2015.890 1815.980 107.699 69.266 o
3 -4 5 2738.980 3065.500 437.993 7.558 o
3 -4 6 551.737 816.372 187.415 45.181 o
3 -4 7 1001.910 1117.120 223.987 30.692 o
3 -4 8 3508.590 3676.090 422.654 7.506 o
3 -4 9 1649.840 1674.810 328.210 14.127 o
3 -4 10 209.485 245.689 177.233 52.147 o
3 -4 11 609.089 490.574 227.068 31.298 o
3 -4 12 676.317 457.619 224.121 32.030 o
3 -4 13 102.638 -229.613 281.457 20.777 o
3 -4 14 981.876 1066.750 458.422 7.714 o
3 -3 0 120.212 105.820 25.118 2444.070 o
3 -3 1 4446.460 4479.990 119.558 21.125 o
3 -3 2 6659.200 6608.700 178.277 9.512 o
3 -3 3 4723.130 4801.820 288.515 10.588 o
3 -3 4 1017.880 1074.860 88.829 145.253 o
3 -3 5 7813.510 7327.760 215.414 7.038 o
3 -3 6 8379.490 8225.580 513.061 3.392 o
3 -3 7 17163.400 16670.100 787.357 1.065 o
3 -3 8 15310.100 14400.800 492.832 1.708 o
3 -3 9 3611.070 3458.370 254.473 15.627 o
3 -3 10 1.877 51.318 105.306 148.434 o
3 -3 11 133.548 111.457 178.841 51.388 o
3 -3 12 5.831 -32.553 225.460 32.385 o
3 -3 13 762.639 746.577 366.791 12.072 o
3 -3 14 1960.620 1771.260 555.546 5.142 o
3 -2 0 6240.230 5579.450 145.274 12.002 o
3 -2 1 1918.010 1528.860 677.972 3.503 o
3 -2 2 6393.250 6202.670 164.717 10.591 o
3 -2 3 915.303 818.480 70.071 222.256 o
3 -2 4 7883.440 8106.420 216.032 6.599 o
3 -2 5 19257.600 19171.600 310.937 1.285 o
3 -2 6 16067.000 16720.000 785.426 1.123 o
3 -2 7 16253.300 15958.100 358.035 1.708 o
3 -2 8 11972.400 11807.500 480.053 2.402 o
3 -2 9 1104.610 1073.230 90.812 136.269 o
3 -2 10 1993.530 2096.070 128.680 55.381 o
3 -2 11 3245.550 3046.130 302.797 13.271 o
3 -2 12 848.419 938.575 190.358 42.530 o
3 -2 13 1318.820 1479.000 259.020 22.514 o
3 -2 14 838.888 475.838 361.969 12.408 o
3 -2 15 14.506 324.191 380.724 11.354 o
3 -1 0 4443.950 4290.040 140.108 20.219 o
3 -1 1 188.916 218.821 36.516 1127.510 o
3 -1 2 2.406 -0.920 26.191 2399.890 o
3 -1 3 233.531 202.730 34.519 1218.380 o
3 -1 4 10370.800 11029.800 250.188 3.903 o
3 -1 5 6642.940 6743.290 144.655 10.058 o
3 -1 6 1835.380 1893.640 104.805 74.825 o
3 -1 7 2556.690 2598.550 133.098 42.345 o
3 -1 8 4143.750 3879.780 161.997 20.860 o
3 -1 9 22.689 14.102 50.815 637.212 o
3 -1 10 4294.380 4163.810 203.609 16.575 o
3 -1 11 2459.810 2051.170 260.062 19.385 o
3 -1 12 1291.070 1151.460 210.467 33.422 o
3 -1 13 1493.870 1466.400 246.947 24.194 o
3 -1 14 506.364 415.004 157.625 64.379 o
3 -1 15 60.748 -52.153 190.496 45.358 o
3 0 0 1661.620 1620.070 117.102 73.466 o
3 0 1 4444.970 3953.370 178.330 18.192 o
3 0 2 472.906 527.595 57.855 399.601 o
3 0 3 2020.380 2097.080 91.591 75.537 o
3 0 4 4582.920 4541.240 123.858 20.029 o
3 0 5 218.575 244.028 30.312 1518.790 o
3 0 6 2973.330 3112.490 93.278 43.434 o
3 0 7 21.252 -36.004 36.051 1265.980 o
3 0 8 2278.490 2387.490 235.458 22.675 o
3 0 9 46.861 122.898 190.228 45.471 o
3 0 10 1775.910 1783.840 221.320 27.849 o
3 0 11 763.889 774.340 159.114 60.516 o
3 0 12 1605.760 1309.000 221.597 29.200 o
3 0 13 1941.520 2133.830 285.609 17.429 o
3 0 14 1771.270 1770.320 287.902 17.714 o
3 0 15 135.319 -49.548 429.486 8.923 o
3 0 16 52.021 77.699 129.409 98.233 o
3 1 0 28.831 28.525 24.171 2805.040 o
3 1 1 649.191 491.773 47.127 489.768 o
3 1 2 1114.970 1154.450 81.532 153.523 o
3 1 3 2734.540 2868.080 127.907 40.062 o
3 1 4 10987.600 10518.400 222.479 3.872 o
3 1 5 4139.580 4251.760 139.381 21.863 o
3 1 6 96.434 131.045 36.023 1233.140 o
3 1 7 284.638 214.189 85.134 220.491 o
3 1 8 2092.820 2046.830 279.581 17.896 o
3 1 9 88.503 248.028 102.710 155.105 o
3 1 10 592.807 528.046 134.240 86.346 o
3 1 11 2919.590 2815.140 605.447 4.187 o
3 1 12 1685.280 1913.610 252.741 22.302 o
3 1 13 5819.790 6223.910 463.848 5.008 o
3 1 14 3414.310 3672.900 373.669 9.204 o
3 1 15 273.017 99.617 139.665 83.757 o
3 1 16 201.425 97.668 190.027 45.476 o
3 2 0 86.659 34.964 51.040 628.202 o
3 2 1 1381.220 1243.850 155.129 55.287 o
3 2 2 7928.360 7410.450 332.899 5.425 o
3 2 3 28049.500 27118.600 659.367 0.568 o
3 2 4 54898.700 55064.600 634.290 0.163 o
3 2 5 18352.800 17915.900 307.870 1.424 o
3 2 6 3324.500 3056.880 119.253 34.483 o
3 2 7 342.932 239.712 69.572 319.956 o
3 2 8 202.881 86.538 65.654 374.416 o
3 2 9 1309.070 1021.440 462.910 7.517 o
3 2 10 5988.310 6033.360 482.603 4.726 o
3 2 11 1919.570 2063.540 527.748 5.659 o
3 2 12 1164.140 1417.780 318.766 15.442 o
3 2 13 3036.060 3288.230 519.309 5.472 o
3 2 14 1519.170 1735.130 464.250 7.361 o
3 2 15 18.483 -33.372 108.552 139.698 o
3 2 16 824.037 665.388 196.861 40.489 o
3 3 0 581.379 343.616 105.831 137.098 o
3 3 1 11766.100 12446.000 501.692 2.311 o
3 3 2 14326.800 14841.000 361.269 2.048 o
3 3 3 28348.200 27898.300 674.237 0.549 o
3 3 4 55940.700 54741.700 1001.110 0.151 o
3 3 5 27788.700 27446.800 733.851 0.550 o
3 3 6 497.640 655.482 143.207 76.647 o
3 3 7 554.138 499.186 119.495 108.314 o
3 3 8 2132.140 2054.760 198.312 30.750 o
3 3 9 7380.360 6881.790 556.550 3.455 o
3 3 10 7598.060 7508.070 1119.400 1.146 o
3 3 11 495.515 459.522 214.609 35.171 o
3 3 12 34.227 158.846 178.372 51.711 o
3 3 13 6.830 -45.620 86.900 217.993 o
3 3 14 0.511 -59.702 206.839 38.479 o
3 3 15 547.711 661.142 207.308 37.351 o
3 3 16 583.438 792.673 191.480 43.286 o
3 4 0 7427.850 10290.300 502.898 3.445 o
3 4 1 11396.100 11982.900 522.055 2.342 o
3 4 2 2685.770 2533.650 239.526 20.679 o
3 4 3 5922.910 5765.240 312.804 7.907 o
3 4 4 16916.800 16193.500 537.997 1.395 o
3 4 5 4707.960 4437.270 304.499 10.225 o
3 4 6 1907.700 1856.200 218.628 27.787 o
3 4 7 3045.630 2779.080 146.489 33.287 o
3 4 8 4983.650 4365.660 353.597 8.309 o
3 4 9 7673.480 6925.870 529.959 3.599 o
3 4 10 3956.990 3490.950 400.483 7.965 o
3 4 11 173.688 151.279 86.775 216.083 o
3 4 12 743.696 666.733 152.552 66.052 o
3 4 13 158.782 221.254 121.012 111.629 o
3 4 14 55.131 91.589 102.227 157.310 o
3 4 15 200.142 338.335 142.838 79.925 o
3 4 16 226.460 282.985 138.128 85.420 o
3 5 0 10996.900 12251.600 574.167 2.204 o
3 5 1 3137.130 3552.840 301.953 13.113 o
3 5 2 1463.560 1450.550 193.041 37.343 o
3 5 3 218.753 171.339 61.489 420.724 o
3 5 4 491.429 550.991 112.261 122.489 o
3 5 5 1035.530 961.187 146.690 66.408 o
3 5 6 1881.330 1808.240 210.992 29.629 o
3 5 7 819.189 758.292 84.991 177.639 o
3 5 8 1083.940 944.423 81.555 163.028 o
3 5 9 5751.200 5330.190 171.927 12.627 o
3 5 10 7764.240 6830.110 403.899 4.828 o
3 5 11 1345.070 1126.010 199.203 36.694 o
3 5 12 29.582 40.349 76.280 282.750 o
3 5 13 3.961 -0.609 90.930 199.100 o
3 5 14 12.508 18.637 85.636 224.456 o
3 5 15 293.666 325.670 307.044 17.407 o
3 5 16 336.498 418.487 147.639 74.084 o
3 5 17 164.912 399.880 283.332 20.458 o
3 6 0 8617.270 9745.960 526.878 3.068 o
3 6 1 2904.440 3014.580 296.729 14.222 o
3 6 2 93.777 110.654 76.895 276.932 o
3 6 3 129.183 73.680 73.814 299.983 o
3 6 4 50.634 40.591 53.585 571.891 o
3 6 5 268.640 246.091 86.406 214.228 o
3 6 6 871.579 788.256 107.386 119.188 o
3 6 7 817.535 781.247 81.388 189.190 o
3 6 8 1749.920 1510.960 112.471 76.272 o
3 6 9 6647.460 5899.420 330.265 6.855 o
3 6 10 7825.720 7090.230 671.759 2.591 o
3 6 11 2654.660 2266.190 268.596 17.785 o
3 6 12 272.045 292.467 111.102 130.728 o
3 6 13 16.254 46.688 79.707 259.027 o
3 6 14 396.855 582.308 158.301 63.973 o
3 6 15 1420.700 1724.080 243.056 24.758 o
3 6 16 959.429 1045.320 221.508 31.541 o
3 6 17 97.876 72.608 239.392 28.713 o
3 7 0 14402.200 15821.600 697.681 1.377 o
3 7 1 15843.500 17581.200 718.579 1.193 o
3 7 2 7390.920 7557.400 470.211 4.129 o
3 7 3 1434.280 1427.110 209.786 32.549 o
3 7 4 376.123 320.306 101.142 154.733 o
3 7 5 626.141 615.293 138.518 80.585 o
3 7 6 2791.730 2516.400 146.733 36.685 o
3 7 7 2239.400 2106.790 133.687 49.430 o
3 7 8 1544.560 1440.330 115.405 79.843 o
3 7 9 3072.190 2625.510 156.138 31.814 o
3 7 10 4580.220 3916.780 384.542 7.887 o
3 7 11 801.403 489.585 135.370 82.796 o
3 7 12 34.400 23.892 78.170 269.273 o
3 7 13 357.934 503.458 142.520 78.989 o
3 7 14 1481.350 1670.790 231.544 26.876 o
3 7 15 2106.010 2823.420 305.072 14.874 o
3 7 16 991.703 957.704 340.669 13.818 o
3 8 0 19020.500 19959.700 801.234 0.895 o
3 8 1 17801.800 19229.100 765.600 0.994 o
3 8 2 7048.730 7584.060 490.574 4.036 o
3 8 3 2732.270 2721.060 297.666 14.640 o
3 8 4 6.069 -9.511 102.348 157.154 o
3 8 5 2610.630 3017.520 330.086 12.367 o
3 8 6 8857.290 8700.060 275.748 5.076 o
3 8 7 3475.370 3285.350 175.028 24.239 o
3 8 8 166.414 222.677 59.930 444.755 o
3 8 9 119.515 71.248 72.976 307.147 o
3 8 10 98.763 78.715 71.553 319.838 o
3 8 11 437.700 368.991 171.138 55.169 o
3 8 12 860.229 890.337 162.885 56.850 o
3 8 13 649.448 826.334 162.157 59.000 o
3 8 14 588.729 744.644 178.171 49.795 o
3 8 15 1539.070 1964.710 326.469 14.237 o
3 9 0 4071.600 4427.080 396.665 7.708 o
3 9 1 3796.100 3793.300 356.208 9.515 o
3 9 2 931.603 857.499 172.679 50.728 o
3 9 3 27.615 95.516 100.740 162.082 o
3 9 4 290.682 349.510 131.820 93.087 o
3 9 5 4338.700 4951.920 305.334 10.332 o
3 9 6 6660.630 7075.020 280.810 7.256 o
3 9 7 1147.160 1181.580 142.002 67.293 o
3 9 8 15.991 91.332 51.951 608.745 o
3 9 9 3.999 -31.371 44.165 843.957 o
3 9 10 773.702 594.898 123.432 97.592 o
3 9 11 1260.330 1132.370 167.577 50.143 o
3 9 12 821.242 694.064 207.241 36.671 o
3 9 13 171.604 136.777 132.758 92.972 o
3 9 14 209.526 235.909 144.412 78.363 o
3 10 0 31.188 -6.296 87.746 213.774 o
3 10 1 13.679 71.938 90.425 201.243 o
3 10 2 483.115 559.967 160.354 62.023 o
3 10 3 898.486 765.064 168.660 53.480 o
3 10 4 393.414 460.023 125.040 101.693 o
3 10 5 3208.130 3855.140 391.508 8.627 o
3 10 6 3401.240 3801.020 220.613 18.564 o
3 10 7 1664.670 1571.760 144.681 55.843 o
3 10 8 311.355 343.048 93.608 181.016 o
3 10 9 3.122 -67.133 87.545 214.794 o
3 10 10 129.154 102.884 117.352 119.137 o
3 10 11 760.488 426.137 155.799 64.249 o
3 10 12 317.975 174.554 137.982 85.416 o
3 10 13 89.217 107.840 111.056 133.162 o
3 10 14 137.805 293.246 159.416 64.485 o
3 11 0 17.229 36.036 87.210 216.397 o
3 11 1 521.099 492.985 152.048 68.715 o
3 11 2 2011.630 2044.150 284.270 17.530 o
3 11 3 408.243 465.756 254.999 25.091 o
3 11 4 319.257 330.292 179.578 50.525 o
3 11 5 1285.320 1606.980 203.141 34.675 o
3 11 6 2572.300 3049.320 213.313 23.723 o
3 11 7 2498.340 2697.350 200.479 26.875 o
3 11 8 1251.450 1225.260 140.818 66.446 o
3 11 9 385.423 217.977 87.984 203.510 o
3 11 10 49.879 165.177 128.605 99.384 o
3 11 11 460.861 434.577 166.918 57.729 o
3 11 12 1087.090 706.120 220.370 31.956 o
3 11 13 351.584 317.761 149.771 72.195 o
3 12 0 152.075 354.065 151.111 71.610 o
3 12 1 97.293 277.825 125.818 103.474 o
3 12 2 526.247 800.230 163.929 58.597 o
3 12 3 558.288 785.891 190.563 43.780 o
3 12 4 875.589 920.109 160.744 58.011 o
3 12 5 1344.550 1632.320 191.478 38.011 o
3 12 6 1383.210 1939.740 184.097 39.409 o
3 12 7 709.752 855.286 166.527 55.667 o
3 12 8 214.737 130.979 99.535 164.311 o
3 12 9 7.709 -273.285 161.694 62.965 o
3 12 10 248.917 234.570 146.422 76.107 o
3 12 11 770.164 839.950 231.890 29.508 o
3 12 12 940.477 1132.390 263.908 22.589 o
3 13 0 481.564 970.832 433.371 8.704 o
3 13 1 103.336 480.794 279.046 21.096 o
3 13 2 1004.810 1425.770 394.656 10.292 o
3 13 3 1258.700 1699.590 397.737 10.006 o
3 13 4 591.192 900.903 285.610 19.806 o
3 13 5 325.932 606.502 434.711 8.685 o
3 13 6 111.216 171.175 116.018 121.805 o
3 13 7 53.869 117.444 113.551 127.495 o
3 13 8 102.665 101.082 88.729 208.216 o
3 13 9 126.350 -79.574 180.181 50.672 o
3 13 10 417.088 512.008 210.590 36.588 o
3 13 11 718.788 681.337 241.268 27.525 o
3 14 3 905.501 1300.780 387.422 10.722 o
3 14 4 217.823 132.758 200.007 41.035 o
3 14 5 120.969 239.986 224.991 32.467 o
3 14 6 73.866 226.491 165.712 59.840 o
3 14 7 527.662 623.824 181.453 48.520 o
3 14 8 660.951 631.467 199.672 39.931 o
3 14 9 297.736 4.287 172.813 54.888 o
3 14 10 216.954 417.831 223.451 32.801 o
4 -12 0 46.631 58.274 132.624 93.550 o
4 -12 1 69.844 -32.419 132.088 94.317 o
4 -12 2 662.741 541.614 239.526 28.086 o
4 -12 3 359.878 146.824 160.890 62.946 o
4 -11 0 28.404 -124.318 134.901 90.454 o
4 -11 1 982.281 828.161 263.640 22.775 o
4 -11 2 1466.330 1409.560 324.057 14.735 o
4 -11 3 1031.890 516.830 231.890 29.322 o
4 -11 4 167.953 -176.832 209.786 37.371 o
4 -11 5 9.128 -328.612 248.636 26.629 o
4 -11 6 129.265 -313.340 219.700 34.089 o
4 -11 7 729.627 251.717 167.320 56.693 o
4 -11 8 906.921 495.128 259.621 23.755 o
4 -10 0 991.930 904.788 274.491 21.021 o
4 -10 1 2227.860 2035.710 378.982 10.378 o
4 -10 2 1354.070 1156.370 290.031 18.407 o
4 -10 3 218.773 -10.583 170.535 56.473 o
4 -10 4 6.681 -184.200 195.051 43.270 o
4 -10 5 24.782 -111.056 173.616 54.612 o
4 -10 6 358.978 21.836 196.122 42.583 o
4 -10 7 1357.870 822.669 279.581 19.925 o
4 -10 8 1315.900 526.610 233.096 28.440 o
4 -9 0 2438.580 2225.800 373.356 10.462 o
4 -9 1 1206.080 1326.100 302.891 17.021 o
4 -9 2 538.798 328.880 167.588 57.181 o
4 -9 3 37.604 -182.056 163.167 61.828 o
4 -9 4 17.095 -88.550 165.445 60.142 o
4 -9 5 3.969 -292.040 202.419 40.178 o
4 -9 6 21.561 -222.647 192.237 44.545 o
4 -9 7 769.536 376.169 204.428 38.199 o
4 -9 8 145.994 -28.534 191.567 44.821 o
4 -9 9 47.083 -336.918 272.213 22.215 o
4 -8 0 1133.480 1022.140 248.770 25.043 o
4 -8 1 584.314 477.043 195.051 42.202 o
4 -8 2 1129.010 958.775 263.774 22.471 o
4 -8 3 16.189 35.790 54.190 560.276 o
4 -8 4 2.301 -33.668 170.267 56.784 o
4 -8 5 165.859 127.694 162.363 62.269 o
4 -8 6 19.191 -106.464 98.798 168.643 o
4 -8 7 397.490 294.519 120.433 110.288 o
4 -8 8 772.342 376.230 259.085 24.054 o
4 -8 9 372.875 102.578 230.417 30.858 o
4 -8 10 363.097 70.733 125.256 103.438 o
4 -8 11 82.857 -271.410 203.624 39.694 o
4 -7 0 927.794 645.971 204.428 37.399 o
4 -7 1 6200.710 5944.470 422.386 5.521 o
4 -7 2 1148.360 1001.540 114.913 96.407 o
4 -7 3 413.190 574.023 98.711 157.658 o
4 -7 4 906.219 874.612 264.042 22.773 o
4 -7 5 285.584 237.233 102.013 154.731 o
4 -7 6 1085.690 810.968 225.192 30.555 o
4 -7 7 2724.260 2495.250 532.638 5.377 o
4 -7 8 2427.900 1803.850 316.890 14.167 o
4 -7 9 280.620 -104.905 114.068 125.440 o
4 -7 10 88.701 -144.011 167.722 58.497 o
4 -7 11 11.246 6.832 127.801 100.788 o
4 -7 12 308.132 397.603 222.781 32.926 o
4 -6 0 3226.660 2198.890 321.843 12.642 o
4 -6 1 4492.890 4657.080 223.059 14.194 o
4 -6 2 1.830 6.841 40.103 1023.590 o
4 -6 3 4442.920 4715.840 322.048 9.710 o
4 -6 4 8152.640 8763.890 990.123 1.367 o
4 -6 5 6638.930 6935.810 1030.780 1.363 o
4 -6 6 4960.580 4976.900 806.392 2.257 o
4 -6 7 4217.200 4109.210 653.138 3.411 o
4 -6 8 305.431 99.375 142.269 80.618 o
4 -6 9 42.719 -113.564 123.456 107.991 o
4 -6 10 121.955 -210.188 148.029 75.053 o
4 -6 11 96.653 347.233 169.464 57.117 o
4 -6 12 730.472 832.582 279.581 20.568 o
4 -5 0 1109.720 1263.090 79.415 154.982 o
4 -5 1 135.675 139.420 37.945 1097.570 o
4 -5 2 259.192 238.042 64.690 375.135 o
4 -5 3 7980.250 8198.490 387.574 4.600 o
4 -5 4 11181.100 11998.200 918.787 1.302 o
4 -5 5 7312.810 8042.070 1211.900 0.997 o
4 -5 6 4204.640 4511.180 800.833 2.349 o
4 -5 7 1884.680 1673.280 474.163 6.994 o
4 -5 8 14.226 -99.410 125.545 104.444 o
4 -5 9 1996.300 1616.260 225.314 26.569 o
4 -5 10 1007.900 1025.620 252.119 24.624 o
4 -5 11 74.471 497.540 224.656 32.522 o
4 -5 12 218.029 277.840 226.532 31.967 o
4 -5 13 446.192 492.851 295.523 18.703 o
4 -4 0 278.557 336.712 39.756 882.774 o
4 -4 1 266.385 344.045 51.154 569.567 o
4 -4 2 84.803 35.346 44.748 816.042 o
4 -4 3 3573.780 3085.140 253.953 16.179 o
4 -4 4 4180.690 4348.340 450.588 6.319 o
4 -4 5 885.253 874.024 112.240 109.121 o
4 -4 6 647.368 665.521 93.404 163.128 o
4 -4 7 976.600 1040.650 120.636 92.785 o
4 -4 8 38.170 107.833 154.594 68.847 o
4 -4 9 1782.130 1681.230 173.507 41.264 o
4 -4 10 652.482 795.909 183.798 46.566 o
4 -4 11 94.671 455.609 230.551 30.885 o
4 -4 12 292.093 400.684 225.460 32.167 o
4 -4 13 230.676 237.919 251.181 26.021 o
4 -3 0 639.169 539.068 90.961 174.218 o
4 -3 1 554.814 417.851 66.781 311.203 o
4 -3 2 488.854 400.775 83.794 213.862 o
4 -3 3 319.380 334.885 78.436 253.676 o
4 -3 4 302.145 297.298 62.946 387.220 o
4 -3 5 33.670 -18.029 128.471 99.732 o
4 -3 6 1558.480 1512.330 134.889 63.757 o
4 -3 7 4366.400 4587.650 205.857 15.602 o
4 -3 8 19.701 -7.707 48.201 708.394 o
4 -3 9 2441.740 2259.100 154.243 39.249 o
4 -3 10 1787.910 1592.670 133.883 60.016 o
4 -3 11 1618.140 1791.910 226.803 27.239 o
4 -3 12 2556.330 2317.420 266.016 18.209 o
4 -3 13 1100.890 859.508 341.338 13.736 o
4 -3 14 21.953 -278.510 303.159 17.912 o
4 -2 0 1376.200 1260.590 140.661 64.518 o
4 -2 1 440.418 385.176 59.881 396.106 o
4 -2 2 2493.400 2398.890 180.854 31.587 o
4 -2 3 8205.320 8663.560 270.335 5.547 o
4 -2 4 4113.170 4247.550 190.864 17.934 o
4 -2 5 506.234 445.431 73.496 267.329 o
4 -2 6 1973.190 2186.240 152.156 45.061 o
4 -2 7 2543.520 2613.490 167.454 33.501 o
4 -2 8 117.883 78.295 78.511 265.559 o
4 -2 9 5017.400 4767.540 231.451 12.516 o
4 -2 10 4449.620 4402.110 321.572 9.895 o
4 -2 11 4523.570 4458.270 348.071 8.848 o
4 -2 12 3243.480 3267.160 322.161 11.960 o
4 -2 13 1987.650 1454.310 314.010 15.090 o
4 -2 14 9.953 -2.499 250.243 26.288 o
4 -1 0 11364.900 10272.000 409.660 2.964 o
4 -1 1 14034.100 13028.400 487.492 1.963 o
4 -1 2 25286.800 25904.700 1479.690 0.385 o
4 -1 3 31560.300 33685.300 708.255 0.429 o
4 -1 4 11721.400 12385.900 290.427 3.042 o
4 -1 5 167.873 142.267 52.478 580.632 o
4 -1 6 0.029 -17.943 36.300 1249.320 o
4 -1 7 31.540 18.792 43.884 853.762 o
4 -1 8 2121.300 2084.270 138.595 49.212 o
4 -1 9 5367.050 5476.920 218.826 11.643 o
4 -1 10 4544.190 3893.520 313.636 10.397 o
4 -1 11 813.966 655.065 351.386 13.135 o
4 -1 12 1828.890 1672.500 245.741 23.351 o
4 -1 13 258.790 190.068 122.582 108.271 o
4 -1 14 743.631 499.522 176.610 50.504 o
4 -1 15 1623.720 1614.000 293.915 17.366 o
4 -1 16 751.286 537.059 238.589 28.186 o
4 0 0 19134.200 18064.700 574.301 1.128 o
4 0 1 24835.900 22044.300 6334.620 0.039 o
4 0 2 35798.100 38440.400 608.160 0.352 o
4 0 3 33248.000 36509.500 525.307 0.406 o
4 0 4 3434.520 3242.960 132.285 30.552 o
4 0 5 1074.630 1128.570 80.640 159.428 o
4 0 6 4154.150 4677.140 179.202 17.872 o
4 0 7 1146.960 1141.600 75.693 165.799 o
4 0 8 2975.740 3367.730 262.872 16.462 o
4 0 9 3085.340 3298.860 274.120 15.378 o
4 0 10 24.141 -83.642 175.023 53.738 o
4 0 11 128.306 13.020 229.680 31.191 o
4 0 12 126.580 -84.850 193.242 44.057 o
4 0 13 13.305 -77.492 352.591 13.242 o
4 0 14 333.099 254.006 179.243 50.763 o
4 0 15 686.432 560.507 193.845 42.313 o
4 0 16 239.636 200.141 138.518 85.069 o
4 1 0 8671.650 7871.820 398.675 4.274 o
4 1 1 1224.500 1252.690 161.962 52.921 o
4 1 2 4581.800 4989.330 307.044 9.944 o
4 1 3 11191.500 11491.600 359.376 3.063 o
4 1 4 2490.170 2713.510 181.901 30.401 o
4 1 5 3955.410 4001.570 184.381 19.485 o
4 1 6 5445.690 5557.430 204.576 11.919 o
4 1 7 1467.800 1407.730 97.496 101.508 o
4 1 8 2953.380 2945.490 242.713 18.967 o
4 1 9 1840.890 2012.320 271.745 19.281 o
4 1 10 110.210 25.038 85.266 225.767 o
4 1 11 51.576 -57.661 178.238 51.812 o
4 1 12 26.507 -134.401 252.856 25.747 o
4 1 13 286.924 266.004 248.971 26.451 o
4 1 14 113.383 132.579 153.053 70.138 o
4 1 15 372.746 422.039 170.074 55.974 o
4 1 16 243.793 227.336 176.430 52.579 o
4 2 0 280.949 334.104 104.759 146.198 o
4 2 1 948.382 891.928 148.699 66.170 o
4 2 2 440.472 366.946 68.713 312.046 o
4 2 3 3413.150 3122.650 182.203 24.062 o
4 2 4 225.787 235.327 55.705 503.282 o
4 2 5 2914.750 3084.400 148.374 32.737 o
4 2 6 1692.590 1644.650 115.695 73.534 o
4 2 7 3512.990 3415.370 149.315 26.949 o
4 2 8 9317.690 9307.290 410.892 3.686 o
4 2 9 8091.670 8391.340 431.190 4.107 o
4 2 10 1243.800 1221.960 251.851 24.094 o
4 2 11 40.513 -66.663 96.722 175.927 o
4 2 12 6.051 -47.754 149.168 73.983 o
4 2 13 13.686 -2.711 100.228 163.870 o
4 2 14 378.296 439.485 150.642 70.951 o
4 2 15 998.173 1053.100 223.985 30.783 o
4 2 16 395.092 575.789 184.856 47.256 o
4 3 0 1318.640 1319.000 196.256 37.341 o
4 3 1 644.036 575.640 126.997 94.805 o
4 3 2 337.585 511.740 121.237 108.306 o
4 3 3 3652.890 3386.190 267.659 14.657 o
4 3 4 3.218 -19.425 53.050 584.955 o
4 3 5 1893.670 1747.120 137.949 55.005 o
4 3 6 4003.370 3877.090 168.815 20.905 o
4 3 7 8781.070 8295.120 241.505 5.557 o
4 3 8 17792.500 17833.100 780.269 1.014 o
4 3 9 14683.600 14047.100 541.909 1.707 o
4 3 10 1784.810 1690.040 267.994 20.159 o
4 3 11 319.621 147.487 104.558 147.607 o
4 3 12 288.549 134.928 233.029 30.215 o
4 3 13 1103.970 1284.370 236.110 27.397 o
4 3 14 2367.000 2752.360 314.367 13.861 o
4 3 15 1027.120 1382.320 259.353 23.035 o
4 3 16 172.862 184.794 140.458 83.022 o
4 4 0 21830.500 23271.700 798.689 0.738 o
4 4 1 4992.950 5343.130 387.690 7.038 o
4 4 2 896.076 865.805 160.890 57.967 o
4 4 3 35.385 29.786 47.920 715.766 o
4 4 4 1253.510 1232.860 175.760 45.896 o
4 4 5 5903.700 5685.540 370.408 6.690 o
4 4 6 6820.500 6895.760 295.243 6.939 o
4 4 7 4440.250 3907.660 173.419 18.651 o
4 4 8 7056.090 6704.220 210.759 8.289 o
4 4 9 4602.970 4384.330 297.150 10.689 o
4 4 10 38.710 111.464 81.259 248.836 o
4 4 11 1553.630 1262.330 194.916 36.757 o
4 4 12 2259.720 1879.850 350.850 11.958 o
4 4 13 2436.130 2354.780 365.586 10.813 o
4 4 14 2547.330 2899.140 401.354 8.956 o
4 4 15 449.485 586.088 166.893 57.484 o
4 4 16 97.251 191.770 154.259 69.027 o
4 5 0 19451.300 21498.400 808.870 0.843 o
4 5 1 2032.290 2563.120 284.404 17.056 o
4 5 2 2.774 -25.587 86.138 221.867 o
4 5 3 869.291 977.664 184.200 45.034 o
4 5 4 6601.720 5969.000 372.820 6.102 o
4 5 5 7087.860 6910.630 423.726 4.874 o
4 5 6 1336.870 1515.540 147.573 58.747 o
4 5 7 356.931 245.624 74.214 282.117 o
4 5 8 51.903 56.379 39.411 1053.670 o
4 5 9 338.436 364.232 48.733 596.337 o
4 5 10 566.763 608.116 136.329 83.714 o
4 5 11 1661.150 1640.690 240.330 24.747 o
4 5 12 1098.840 933.956 249.172 25.104 o
4 5 13 1380.830 1292.020 213.728 31.949 o
4 5 14 1443.920 1496.360 316.823 15.354 o
4 5 15 416.697 545.195 167.771 57.114 o
4 5 16 45.746 49.834 191.835 44.724 o
4 6 0 4597.010 4908.680 398.675 7.167 o
4 6 1 84.728 47.691 94.176 185.261 o
4 6 2 334.317 374.963 114.405 122.160 o
4 6 3 2428.590 2296.400 281.859 16.858 o
4 6 4 5267.760 5205.410 431.764 5.995 o
4 6 5 7220.680 6623.810 416.760 4.965 o
4 6 6 178.549 260.752 76.757 273.116 o
4 6 7 1177.770 1082.740 134.841 73.530 o
4 6 8 109.069 64.223 54.638 546.242 o
4 6 9 81.558 29.461 74.894 292.797 o
4 6 10 1290.330 1070.860 164.237 51.901 o
4 6 11 447.760 473.228 123.933 102.721 o
4 6 12 129.979 47.401 98.128 170.367 o
4 6 13 371.427 270.942 173.348 54.124 o
4 6 14 1490.740 1950.430 282.194 18.646 o
4 6 15 754.724 1183.990 221.608 31.847 o
4 6 16 69.250 26.257 206.036 38.771 o
4 7 0 201.524 204.026 109.984 134.631 o
4 7 1 97.769 112.261 94.444 183.865 o
4 7 2 520.679 579.257 169.999 55.179 o
4 7 3 1447.640 1631.400 244.483 24.547 o
4 7 4 6019.620 5974.360 477.177 4.797 o
4 7 5 9650.840 9620.840 628.288 2.378 o
4 7 6 1692.930 1906.030 247.162 23.169 o
4 7 7 209.630 232.737 81.021 245.129 o
4 7 8 151.444 183.581 56.419 503.836 o
4 7 9 100.610 84.462 47.405 723.211 o
4 7 10 506.544 324.544 94.605 171.717 o
4 7 11 699.108 357.062 251.181 25.647 o
4 7 12 324.174 212.079 99.898 160.714 o
4 7 13 786.745 368.848 130.340 89.806 o
4 7 14 1193.940 1057.340 309.589 16.451 o
4 7 15 729.952 562.154 199.270 39.992 o
4 7 16 8.046 -74.751 173.750 54.530 o
4 8 0 32.343 98.865 105.161 148.731 o
4 8 1 1186.400 1346.600 224.388 29.784 o
4 8 2 1103.860 1269.440 231.623 28.407 o
4 8 3 1011.800 1090.460 216.083 32.831 o
4 8 4 9345.620 9348.090 604.710 2.551 o
4 8 5 11902.700 12412.600 727.689 1.652 o
4 8 7 1664.790 1733.030 149.084 52.519 o
4 8 8 20.848 54.127 51.544 618.865 o
4 8 9 579.323 418.253 108.038 131.100 o
4 8 10 2150.300 1635.230 197.861 31.850 o
4 8 11 2258.530 1778.320 322.450 13.942 o
4 8 12 559.368 411.558 124.017 101.534 o
4 8 13 88.479 -3.046 87.872 212.894 o
4 8 14 46.261 -57.811 116.883 120.472 o
4 8 15 0.505 -126.729 178.573 51.624 o
4 9 0 658.405 910.013 208.715 36.319 o
4 9 1 3085.030 3128.850 359.423 10.292 o
4 9 2 1181.970 1354.230 228.541 28.805 o
4 9 3 2312.740 2220.580 308.919 14.684 o
4 9 4 4411.920 5179.690 462.307 5.807 o
4 9 5 4458.720 4554.350 452.394 6.114 o
4 9 6 1999.130 2129.210 336.382 13.012 o
4 9 7 56.072 193.898 85.303 225.204 o
4 9 8 228.902 176.696 62.848 402.187 o
4 9 9 1138.710 1041.400 152.966 60.262 o
4 9 10 3403.920 3119.820 269.388 15.294 o
4 9 11 2355.460 2161.740 245.957 21.296 o
4 9 12 214.199 201.044 101.928 156.330 o
4 9 13 15.054 -89.086 143.073 80.420 o
4 9 14 4.597 -111.056 150.441 72.737 o
4 10 0 1188.070 1229.520 250.243 24.480 o
4 10 1 2619.170 2558.300 333.703 12.379 o
4 10 2 1423.330 1542.720 260.827 21.983 o
4 10 3 741.792 671.692 180.449 48.115 o
4 10 4 184.750 286.280 167.588 58.296 o
4 10 5 151.972 39.653 122.978 108.549 o
4 10 6 185.071 437.604 156.871 66.271 o
4 10 7 674.376 933.307 132.628 84.668 o
4 10 8 380.014 582.416 100.103 154.404 o
4 10 9 1256.330 1202.250 173.819 46.869 o
4 10 10 2228.780 1988.820 301.551 15.572 o
4 10 11 941.468 1344.320 271.142 21.317 o
4 10 12 177.563 233.900 166.382 59.202 o
4 10 13 24.576 -119.495 133.829 91.910 o
4 11 0 969.866 1224.020 253.191 24.328 o
4 11 1 2501.160 2338.860 330.219 12.839 o
4 11 2 1265.010 1191.600 240.196 26.288 o
4 11 3 28.318 104.625 119.361 115.472 o
4 11 4 212.018 114.940 116.950 119.458 o
4 11 5 474.185 818.714 182.173 47.998 o
4 11 6 901.546 1386.580 175.145 48.000 o
4 11 7 946.266 1040.110 145.645 67.822 o
4 11 8 294.875 372.138 92.996 183.373 o
4 11 9 389.270 316.996 106.303 140.373 o
4 11 10 907.065 808.200 214.341 34.020 o
4 11 11 733.241 931.313 236.445 28.407 o
4 11 12 77.962 -15.272 110.520 134.679 o
4 12 0 830.865 839.682 221.575 32.076 o
4 12 1 1626.350 1554.380 285.342 18.364 o
4 12 2 1028.800 1140.560 243.009 26.258 o
4 12 3 291.247 458.690 176.162 52.396 o
4 12 4 114.082 116.891 221.709 33.462 o
4 12 5 41.660 198.930 133.216 92.615 o
4 12 6 536.517 1051.070 168.651 54.785 o
4 12 7 781.037 1003.150 162.123 57.509 o
4 12 8 437.666 403.857 113.055 123.186 o
4 12 9 142.549 176.272 103.835 151.621 o
4 12 10 499.882 253.795 114.144 121.152 o
4 12 11 541.461 535.585 198.935 40.640 o
4 13 0 665.023 682.945 216.485 34.078 o
4 13 1 1272.980 1460.470 286.012 18.811 o
4 13 2 1886.010 2897.490 586.491 4.575 o
4 13 3 1311.390 1996.590 504.104 6.290 o
4 13 4 401.470 1073.450 398.809 10.270 o
4 13 5 0.313 -2.545 211.930 36.652 o
4 13 6 335.577 785.497 248.234 26.392 o
4 13 7 492.847 1028.970 300.078 17.993 o
4 13 8 415.850 733.181 256.674 24.661 o
4 13 9 310.049 434.845 204.562 38.971 o
4 13 10 47.756 -282.796 220.905 33.732 o
4 14 4 139.205 182.994 263.774 23.635 o
4 14 5 21.351 129.195 240.330 28.497 o
4 14 6 526.328 889.786 375.968 11.537 o
4 14 7 944.501 1534.370 312.139 16.203 o
4 14 8 425.056 777.657 296.595 18.515 o
5 -11 0 343.070 255.334 181.118 49.706 o
5 -11 1 409.896 444.222 235.775 29.314 o
5 -11 2 187.756 185.271 170.401 56.477 o
5 -11 3 8.584 33.223 140.126 83.836 o
5 -11 4 9.118 -154.326 154.728 68.762 o
5 -11 5 85.002 -146.020 189.692 45.737 o
5 -11 6 572.631 383.269 249.708 26.054 o
5 -10 0 720.843 681.471 238.321 28.188 o
5 -10 1 287.865 108.108 122.978 107.666 o
5 -10 2 282.486 207.911 146.824 75.619 o
5 -10 3 502.371 467.934 217.422 34.265 o
5 -10 4 399.296 307.178 207.107 37.994 o
5 -10 5 773.575 549.115 254.798 24.761 o
5 -10 6 856.191 814.765 289.495 19.124 o
5 -10 7 526.226 113.869 189.692 45.142 o
5 -9 0 322.049 152.986 145.618 76.816 o
5 -9 1 492.544 485.081 208.179 37.323 o
5 -9 2 2605.180 2611.350 448.777 7.377 o
5 -9 3 2577.840 2549.050 447.973 7.422 o
5 -9 4 1222.610 1229.110 352.993 12.721 o
5 -9 5 848.003 770.557 264.042 22.901 o
5 -9 6 612.076 551.795 248.636 26.154 o
5 -9 7 36.006 -62.561 190.630 45.298 o
5 -9 8 31.302 -104.625 228.006 31.665 o
5 -8 0 59.394 145.216 150.977 72.143 o
5 -8 1 1081.010 1122.480 293.112 18.342 o
5 -8 2 2129.890 2156.670 396.263 9.589 o
5 -8 3 2862.590 2705.250 454.939 7.088 o
5 -8 4 1058.290 907.869 279.849 20.181 o
5 -8 5 310.946 58.542 174.688 53.656 o
5 -8 6 215.509 90.827 163.167 61.609 o
5 -8 7 36.146 -65.450 87.422 215.348 o
5 -8 8 302.015 89.924 236.847 29.257 o
5 -8 9 8.274 -116.414 140.661 83.202 o
5 -8 10 5.870 -101.678 169.999 56.963 o
5 -8 11 84.031 -170.401 161.426 63.150 o
5 -7 0 39.476 30.812 113.199 128.427 o
5 -7 1 124.198 140.316 70.837 324.593 o
5 -7 2 1003.330 1078.340 137.124 74.189 o
5 -7 3 1395.700 1523.800 165.918 48.199 o
5 -7 4 502.206 414.671 123.648 102.854 o
5 -7 5 418.790 314.595 102.019 151.305 o
5 -7 6 293.236 299.256 247.095 26.840 o
5 -7 7 0.824 42.030 89.602 205.027 o
5 -7 8 237.923 138.179 101.593 157.452 o
5 -7 9 145.378 214.475 154.460 68.740 o
5 -7 10 33.230 -88.550 132.222 94.155 o
5 -7 11 303.111 -36.170 134.499 90.348 o
5 -6 0 1147.140 1261.130 291.370 18.415 o
5 -6 1 49.569 178.067 69.326 340.589 o
5 -6 2 1022.510 1125.690 137.968 72.802 o
5 -6 3 1631.330 1718.440 172.962 42.490 o
5 -6 4 901.246 1030.910 145.199 68.766 o
5 -6 5 1183.790 1347.000 170.211 48.588 o
5 -6 6 1086.640 1012.060 310.795 16.429 o
5 -6 7 77.083 133.937 95.150 181.241 o
5 -6 8 2371.110 2436.660 294.183 15.696 o
5 -6 9 1822.560 1575.680 283.332 18.296 o
5 -6 10 875.775 761.849 218.360 32.971 o
5 -6 11 1102.610 872.503 241.536 26.677 o
5 -6 12 478.472 295.121 165.579 58.848 o
5 -5 0 595.690 520.334 80.416 219.225 o
5 -5 1 2082.090 2095.300 169.272 38.649 o
5 -5 2 4197.580 4433.080 318.810 10.276 o
5 -5 3 3631.660 3786.600 273.084 13.949 o
5 -5 4 854.412 959.710 135.201 79.095 o
5 -5 5 737.038 801.935 133.868 83.294 o
5 -5 6 248.188 279.103 97.731 168.577 o
5 -5 7 1787.210 2017.230 224.444 26.768 o
5 -5 8 5726.730 6183.740 395.651 6.160 o
5 -5 9 3641.980 4362.570 304.783 11.662 o
5 -5 10 1523.680 1542.660 192.015 37.105 o
5 -5 11 886.650 547.642 209.786 35.844 o
5 -5 12 85.134 -197.596 185.003 48.084 o
5 -4 0 8903.140 8836.750 734.381 2.079 o
5 -4 1 9139.760 9299.850 399.210 3.828 o
5 -4 2 8762.270 8080.070 549.079 3.078 o
5 -4 3 2366.810 2111.850 235.445 22.830 o
5 -4 4 69.501 34.501 33.999 1411.100 o
5 -4 5 259.739 187.700 44.577 760.357 o
5 -4 6 198.639 173.043 66.002 368.121 o
5 -4 7 1726.530 1707.190 124.021 66.231 o
5 -4 8 2717.060 3115.800 165.735 30.783 o
5 -4 9 1578.470 1563.440 185.819 38.774 o
5 -4 10 453.815 417.158 104.265 143.203 o
5 -4 11 44.208 -201.079 180.850 50.328 o
5 -4 12 20.089 -92.971 168.258 58.147 o
5 -4 13 586.977 255.468 165.445 58.586 o
5 -3 0 10685.300 11556.600 1424.430 0.682 o
5 -3 1 8342.610 8411.880 255.152 5.692 o
5 -3 2 5876.690 5452.700 194.519 11.498 o
5 -3 3 182.299 43.277 56.405 507.983 o
5 -3 4 2096.900 2131.510 133.985 51.144 o
5 -3 5 339.030 407.067 67.030 335.143 o
5 -3 6 47.523 163.862 56.008 520.839 o
5 -3 7 197.072 148.300 66.308 365.711 o
5 -3 8 894.683 968.279 175.526 49.118 o
5 -3 9 154.463 189.291 60.393 440.678 o
5 -3 10 7.123 89.609 56.505 514.984 o
5 -3 11 394.912 410.057 125.032 101.963 o
5 -3 12 92.035 118.663 144.078 79.180 o
5 -3 13 350.173 135.973 184.066 48.235 o
5 -2 0 1934.260 2035.720 150.969 46.774 o
5 -2 1 2642.830 2762.330 140.301 38.526 o
5 -2 2 5662.850 5639.830 222.527 10.835 o
5 -2 3 171.215 144.718 46.636 728.609 o
5 -2 4 1592.690 1700.660 131.487 63.848 o
5 -2 5 1559.990 1863.160 148.875 53.105 o
5 -2 6 98.817 106.054 66.266 372.108 o
5 -2 7 883.404 868.963 109.005 114.686 o
5 -2 8 1266.580 1382.010 136.017 68.722 o
5 -2 9 147.536 123.179 90.511 199.433 o
5 -2 10 63.500 -34.397 52.596 593.849 o
5 -2 11 862.173 772.737 108.664 117.364 o
5 -2 12 54.681 34.354 166.382 59.451 o
5 -2 13 181.290 162.676 168.325 57.901 o
5 -2 14 989.741 782.385 188.543 43.024 o
5 -2 15 612.357 811.282 265.515 22.873 o
5 -1 0 207.370 161.164 59.648 447.847 o
5 -1 1 2762.970 2826.500 152.132 34.320 o
5 -1 2 5069.820 5373.590 249.088 11.148 o
5 -1 3 262.468 306.048 80.214 246.440 o
5 -1 4 3427.650 3880.310 180.760 22.342 o
5 -1 5 5029.880 5401.840 227.791 12.021 o
5 -1 6 3699.200 4034.410 211.516 18.041 o
5 -1 7 8570.550 9279.550 297.445 4.887 o
5 -1 8 6097.350 6943.320 271.955 8.059 o
5 -1 9 632.228 687.016 96.284 154.929 o
5 -1 10 3.482 -68.668 102.081 157.977 o
5 -1 11 0.889 -182.734 116.058 122.217 o
5 -1 12 12.489 -98.978 116.076 122.178 o
5 -1 13 1332.040 977.536 247.832 24.890 o
5 -1 14 1631.870 1284.150 452.729 7.753 o
5 -1 15 907.580 925.552 278.912 20.459 o
5 -1 16 240.213 330.621 217.824 34.525 o
5 0 0 504.693 446.015 94.432 170.222 o
5 0 1 3132.420 2541.280 251.047 18.167 o
5 0 2 2193.470 2058.840 183.195 34.052 o
5 0 3 314.733 357.950 110.520 131.052 o
5 0 4 9586.440 10722.500 292.524 4.079 o
5 0 5 10789.400 11202.500 314.566 3.420 o
5 0 6 13100.400 14034.000 445.539 2.126 o
5 0 7 13444.000 13732.200 632.188 1.668 o
5 0 8 6591.240 7261.040 387.397 5.510 o
5 0 9 5.246 -3.712 77.854 271.595 o
5 0 10 1989.400 2117.600 238.441 23.491 o
5 0 11 1227.720 1273.230 198.544 37.105 o
5 0 12 516.527 633.689 157.257 64.009 o
5 0 13 1689.250 1534.400 426.472 8.643 o
5 0 14 629.534 518.447 346.965 13.548 o
5 0 15 5.474 -207.509 192.103 44.608 o
5 0 16 39.682 247.162 215.681 35.360 o
5 1 0 910.759 933.456 164.909 55.066 o
5 1 1 29.612 30.142 53.050 584.368 o
5 1 2 3.007 17.190 48.623 696.267 o
5 1 3 2138.960 2265.990 236.445 23.140 o
5 1 4 8260.110 7977.250 441.677 4.029 o
5 1 5 6606.600 7439.020 321.646 6.450 o
5 1 6 4839.480 5209.550 228.413 12.562 o
5 1 7 4754.160 4694.500 321.653 9.394 o
5 1 8 1530.950 1759.790 193.819 35.914 o
5 1 9 890.322 864.880 167.186 54.078 o
5 1 10 3747.870 3969.300 323.038 10.893 o
5 1 11 1434.230 1599.680 330.086 14.184 o
5 1 12 1421.640 1230.630 346.161 13.093 o
5 1 13 771.634 860.192 188.251 43.906 o
5 1 14 89.571 123.381 228.340 31.554 o
5 1 15 158.020 211.043 140.178 83.358 o
5 1 16 150.174 216.217 177.501 52.093 o
5 2 0 12.294 142.537 94.846 182.797 o
5 2 1 1504.480 1590.140 217.288 30.073 o
5 2 2 832.264 716.971 155.263 63.014 o
5 2 3 1354.350 1376.470 197.060 36.770 o
5 2 4 3061.130 3377.080 299.542 13.512 o
5 2 5 255.623 304.766 111.993 128.818 o
5 2 6 336.899 339.572 66.840 340.626 o
5 2 7 275.663 239.803 54.108 522.543 o
5 2 8 530.667 420.090 267.257 22.799 o
5 2 9 323.702 455.715 114.645 121.256 o
5 2 10 2219.450 2526.450 258.339 19.597 o
5 2 11 1167.660 1292.820 208.449 34.200 o
5 2 12 789.620 883.434 183.029 46.167 o
5 2 13 1177.540 1280.460 263.640 22.184 o
5 2 14 257.398 257.799 140.115 82.955 o
5 2 15 20.693 52.819 107.797 141.631 o
5 2 16 4.845 -94.980 140.795 83.044 o
5 3 0 584.308 343.616 132.758 89.282 o
5 3 1 1031.960 900.635 177.903 47.337 o
5 3 2 503.813 423.994 128.605 95.331 o
5 3 3 3051.340 2783.550 206.574 23.262 o
5 3 4 1889.310 2033.830 237.249 24.100 o
5 3 5 69.389 53.050 78.368 267.472 o
5 3 6 525.261 475.303 72.758 268.893 o
5 3 7 356.944 306.711 62.671 382.990 o
5 3 8 767.219 780.961 127.454 90.691 o
5 3 9 368.174 421.313 186.812 46.535 o
5 3 10 1384.240 1538.270 206.951 33.305 o
5 3 11 1017.150 1034.870 178.121 46.929 o
5 3 12 2303.970 2108.780 260.488 19.620 o
5 3 13 2882.610 3098.810 838.007 2.254 o
5 3 14 993.705 1364.720 312.402 16.204 o
5 3 15 2.147 39.711 157.340 66.496 o
5 4 0 69.672 62.695 74.618 294.899 o
5 4 1 1535.790 1369.370 219.030 29.936 o
5 4 2 4208.180 3902.350 361.433 8.916 o
5 4 3 11297.700 10672.900 630.699 2.080 o
5 4 4 12740.500 12502.400 578.855 1.940 o
5 4 5 2170.040 2201.550 255.200 20.487 o
5 4 6 50.555 73.276 80.445 253.959 o
5 4 7 311.978 336.512 86.727 209.712 o
5 4 8 17.923 -72.935 123.246 108.374 o
5 4 9 1778.560 1408.650 176.208 41.338 o
5 4 10 1782.810 1727.160 216.450 28.974 o
5 4 11 1218.650 1307.410 197.940 37.270 o
5 4 12 1717.340 1609.400 228.467 26.877 o
5 4 13 2628.840 2457.640 570.550 4.748 o
5 4 14 435.438 383.955 186.477 46.590 o
5 4 15 92.358 179.811 136.759 87.796 o
5 5 0 1593.910 1642.260 257.879 22.007 o
5 5 1 5467.830 5337.630 443.954 5.651 o
5 5 2 9431.030 9444.410 574.569 2.676 o
5 5 3 18051.900 18862.400 837.538 0.927 o
5 5 4 21536.100 21483.300 810.880 0.769 o
5 5 5 3906.560 3898.200 348.840 9.656 o
5 5 6 81.439 53.317 76.091 283.513 o
5 5 7 600.936 528.446 112.672 119.635 o
5 5 8 1971.220 1866.730 188.745 34.561 o
5 5 9 2545.930 2585.240 244.081 20.438 o
5 5 10 2530.920 1930.350 342.611 12.214 o
5 5 11 624.130 557.727 143.701 75.478 o
5 5 12 68.599 14.307 97.482 173.087 o
5 5 13 75.389 -102.528 108.563 139.581 o
5 5 14 2.995 87.897 104.078 151.929 o
5 5 15 582.865 609.773 174.667 52.046 o
5 6 0 4199.900 4389.040 410.062 7.273 o
5 6 1 3903.490 3692.430 380.188 8.592 o
5 6 2 3084.630 3327.250 359.959 10.183 o
5 6 3 9847.550 10766.200 644.363 2.209 o
5 6 4 7955.330 8259.370 599.486 2.902 o
5 6 5 918.698 819.601 201.079 38.333 o
5 6 6 560.589 661.779 171.071 54.158 o
5 6 7 2174.640 2370.640 246.693 21.400 o
5 6 8 3213.790 2969.560 241.661 18.328 o
5 6 9 3773.220 3211.680 265.790 14.721 o
5 6 10 1454.050 1247.240 171.358 46.363 o
5 6 11 91.534 -15.492 238.254 28.994 o
5 6 12 351.161 283.718 105.173 144.313 o
5 6 13 38.522 -3.006 97.454 173.298 o
5 6 14 138.338 14.037 103.019 154.676 o
5 6 15 323.232 225.971 125.751 102.350 o
5 7 0 2205.580 2368.600 317.761 14.031 o
5 7 1 413.491 459.092 144.546 76.632 o
5 7 2 173.041 215.145 135.437 89.201 o
5 7 3 433.325 476.373 172.009 54.459 o
5 7 4 84.871 56.666 104.089 151.685 o
5 7 5 100.989 81.986 121.907 110.559 o
5 7 6 1419.110 1315.920 241.938 25.454 o
5 7 7 1025.830 1156.720 152.707 61.012 o
5 7 8 1704.030 1675.620 185.541 37.739 o
5 7 9 3629.480 3159.200 258.944 15.579 o
5 7 10 1153.270 987.624 160.788 55.402 o
5 7 11 3.729 -11.469 93.366 188.847 o
5 7 12 104.525 -1.443 103.018 154.891 o
5 7 13 60.094 -271.687 140.320 83.586 o
5 7 14 94.684 -27.342 103.230 154.297 o
5 7 15 276.230 288.557 199.337 41.169 o
5 7 16 49.373 -232.292 232.292 30.506 o
5 8 0 2069.000 1867.180 302.221 15.803 o
5 8 1 414.534 264.979 131.284 93.210 o
5 8 2 292.312 403.765 155.933 66.749 o
5 8 3 532.699 631.235 182.860 47.769 o
5 8 4 27.592 10.047 93.640 187.709 o
5 8 5 589.026 454.403 179.645 49.554 o
5 8 6 505.471 481.330 163.435 59.855 o
5 8 7 533.519 800.458 139.945 79.048 o
5 8 8 1650.220 1654.690 197.672 34.432 o
5 8 9 3760.520 3367.120 272.532 14.136 o
5 8 10 2356.380 2055.950 227.066 24.259 o
5 8 11 298.926 79.924 154.661 68.355 o
5 8 12 1.530 -50.112 88.434 210.499 o
5 8 13 29.469 5.145 107.068 143.585 o
5 8 14 367.543 248.414 127.443 99.254 o
5 8 15 501.452 276.768 192.237 43.855 o
5 9 0 3950.530 4147.910 438.462 6.749 o
5 9 1 1673.880 1718.610 296.059 17.009 o
5 9 2 202.398 180.850 117.084 119.026 o
5 9 3 45.309 93.640 125.658 104.178 o
5 9 4 31.771 28.802 119.763 114.749 o
5 9 5 922.665 942.968 241.536 26.940 o
5 9 6 1224.000 1219.070 286.815 18.912 o
5 9 7 872.797 743.719 235.909 28.453 o
5 9 8 1143.030 1537.280 367.488 11.738 o
5 9 9 2244.910 2093.300 228.788 24.293 o
5 9 10 1867.770 1476.760 200.353 33.051 o
5 9 11 134.294 -19.099 93.037 189.622 o
5 9 12 10.772 2.009 98.867 168.414 o
5 9 13 390.215 274.903 123.165 105.759 o
5 10 0 6168.490 5651.640 530.896 4.147 o
5 10 1 4279.540 4015.150 457.886 6.191 o
5 10 2 1663.420 1539.100 282.395 18.671 o
5 10 3 204.711 56.265 135.303 89.546 o
5 10 4 293.782 409.392 199.471 41.009 o
5 10 5 1730.140 2177.310 353.529 12.079 o
5 10 6 1900.490 2215.080 363.844 11.333 o
5 10 7 533.578 698.623 154.805 65.655 o
5 10 8 269.123 261.416 176.899 52.227 o
5 10 9 161.805 88.014 123.514 107.483 o
5 10 10 5.908 12.451 161.225 63.331 o
5 10 11 47.481 -244.885 173.884 54.440 o
5 10 12 409.887 446.500 182.056 48.828 o
5 11 0 2296.590 2563.790 380.590 10.095 o
5 11 1 1664.980 1706.830 310.661 15.598 o
5 11 2 249.968 302.623 151.646 70.879 o
5 11 3 1.162 -22.774 128.873 99.121 o
5 11 4 524.095 282.796 160.756 62.185 o
5 11 5 2117.810 2552.000 399.345 9.360 o
5 11 6 1508.010 1717.140 343.080 13.099 o
5 11 7 250.616 552.348 167.725 57.708 o
5 11 8 2.537 -37.086 194.381 43.569 o
5 11 9 39.288 3.608 127.264 101.627 o
5 11 10 340.378 181.220 147.427 74.832 o
5 11 11 603.551 213.537 144.278 76.446 o
5 12 0 161.469 250.779 183.664 48.633 o
5 12 1 38.251 79.038 148.029 75.097 o
5 12 2 17.845 19.157 111.993 131.240 o
5 12 3 109.904 125.658 132.624 93.368 o
5 12 4 489.157 414.214 183.262 48.030 o
5 12 5 1279.980 1669.850 344.420 13.171 o
5 12 6 1262.000 2353.810 991.864 1.659 o
5 12 7 156.906 319.127 153.735 69.236 o
5 12 8 19.648 73.727 105.814 146.970 o
5 12 9 68.362 -49.640 101.724 158.987 o
5 12 10 255.400 141.488 101.203 158.390 o
5 12 11 342.059 29.338 217.288 34.734 o
5 13 0 145.370 309.857 199.873 41.076 o
5 13 1 321.011 406.846 194.113 43.240 o
5 13 2 504.932 481.866 217.422 34.250 o
5 13 3 234.511 129.542 143.609 79.332 o
5 13 4 319.972 435.475 501.358 6.539 o
5 13 5 863.482 1314.080 1333.670 0.924 o
5 13 6 763.698 2719.150 585.286 4.717 o
5 13 7 634.839 1198.740 599.486 4.553 o
5 13 8 132.562 213.270 209.786 37.336 o
6 -10 0 43.152 25.453 132.088 94.330 o
6 -10 1 142.953 295.523 207.509 38.124 o
6 -10 2 731.272 776.853 282.930 20.116 o
6 -10 3 215.726 146.288 198.802 41.528 o
6 -10 4 238.487 106.903 193.711 43.730 o
6 -10 5 111.725 -161.694 178.975 51.364 o
6 -10 6 1.502 -206.973 216.887 34.996 o
6 -9 0 48.169 192.103 172.545 55.240 o
6 -9 1 1428.170 1678.290 378.178 10.950 o
6 -9 2 1172.150 1517.670 377.509 11.137 o
6 -9 3 381.698 368.399 214.877 35.305 o
6 -9 4 145.117 90.291 155.799 67.676 o
6 -9 5 22.132 -47.557 182.324 49.521 o
6 -9 6 245.308 29.472 188.352 46.277 o
6 -9 7 966.442 984.898 361.299 12.325 o
6 -8 0 965.804 1299.710 345.759 13.355 o
6 -8 1 1980.220 2216.690 417.028 8.780 o
6 -8 2 576.401 809.272 272.079 21.834 o
6 -8 3 199.343 159.952 167.186 58.663 o
6 -8 4 1.625 3.885 158.077 65.880 o
6 -8 5 147.229 155.129 187.817 46.573 o
6 -8 6 1297.010 1067.550 367.059 11.801 o
6 -8 7 1799.970 1471.180 393.986 10.015 o
6 -7 0 1753.890 1583.180 357.682 12.002 o
6 -7 1 1166.860 1342.980 331.559 14.347 o
6 -7 2 349.937 259.085 196.122 42.438 o
6 -7 3 92.161 126.729 193.979 43.710 o
6 -7 4 107.081 45.101 77.212 275.030 o
6 -7 5 95.543 58.811 73.602 302.640 o
6 -7 6 456.041 564.110 138.732 82.220 o
6 -7 7 955.228 1022.380 177.125 47.808 o
6 -7 8 271.392 574.435 178.305 51.066 o
6 -7 9 52.895 68.586 122.911 108.891 o
6 -7 10 31.949 95.650 147.895 75.231 o
6 -7 11 23.843 231.087 162.363 62.381 o
6 -6 0 808.776 723.670 253.860 24.794 o
6 -6 1 896.833 915.773 284.806 19.662 o
6 -6 2 182.211 219.431 118.691 115.858 o
6 -6 3 51.570 29.471 63.720 404.826 o
6 -6 4 1.986 -7.222 62.566 420.539 o
6 -6 5 58.398 67.743 149.436 73.678 o
6 -6 6 135.517 174.740 110.118 134.973 o
6 -6 7 493.399 811.078 158.956 62.316 o
6 -6 8 349.732 506.238 167.186 57.826 o
6 -6 9 137.952 257.646 121.572 110.626 o
6 -6 10 148.714 192.773 159.416 64.560 o
6 -6 11 60.271 12.994 125.256 104.886 o
6 -5 0 1450.310 1130.380 292.174 18.061 o
6 -5 1 1366.740 1090.730 292.040 18.192 o
6 -5 2 110.138 116.088 99.066 167.055 o
6 -5 3 287.374 344.594 73.797 286.460 o
6 -5 4 88.753 203.572 93.171 188.514 o
6 -5 5 95.875 135.170 166.516 59.289 o
6 -5 6 790.180 826.998 124.368 93.911 o
6 -5 7 1842.340 2049.420 189.917 34.463 o
6 -5 8 634.510 899.080 133.370 84.595 o
6 -5 9 136.530 219.703 102.240 156.198 o
6 -5 10 278.533 162.004 95.763 175.979 o
6 -5 11 9.182 -122.175 143.341 80.121 o
6 -5 12 869.035 926.222 273.285 21.321 o
6 -4 0 1913.760 1747.040 218.192 28.061 o
6 -4 1 1891.530 2123.550 180.705 36.528 o
6 -4 2 155.970 135.775 54.977 532.108 o
6 -4 3 3786.670 4009.740 285.360 12.745 o
6 -4 4 4289.020 4567.870 251.664 13.188 o
6 -4 5 2732.090 2993.100 263.980 17.304 o
6 -4 6 3238.870 3221.580 223.234 19.761 o
6 -4 7 2592.380 2414.560 194.059 28.282 o
6 -4 8 179.837 285.541 83.752 229.835 o
6 -4 9 90.443 109.528 98.634 168.693 o
6 -4 10 49.745 48.768 80.784 251.952 o
6 -4 11 387.133 458.824 199.203 40.927 o
6 -4 12 869.106 1053.350 312.134 16.429 o
6 -3 0 651.602 722.907 109.565 122.257 o
6 -3 1 109.205 94.956 55.547 527.564 o
6 -3 2 3141.390 3083.190 134.856 33.325 o
6 -3 3 8336.430 9083.740 296.652 5.080 o
6 -3 4 8084.770 8114.810 324.820 5.220 o
6 -3 5 4357.780 4516.230 305.160 10.592 o
6 -3 6 3308.810 3658.000 218.902 19.257 o
6 -3 7 752.975 759.728 108.529 121.001 o
6 -3 8 275.129 323.843 78.997 252.780 o
6 -3 9 1157.950 1337.740 178.107 45.136 o
6 -3 10 581.508 572.725 122.845 101.852 o
6 -3 11 158.854 150.709 154.326 68.895 o
6 -3 12 559.398 712.283 268.462 22.469 o
6 -3 13 256.710 397.201 242.741 27.799 o
6 -2 0 25.780 78.127 60.203 453.453 o
6 -2 1 128.295 125.773 68.769 344.309 o
6 -2 2 1521.490 1691.690 126.507 68.649 o
6 -2 3 5263.340 5653.840 189.292 12.763 o
6 -2 4 3652.460 3934.780 182.932 20.994 o
6 -2 5 1870.240 2003.940 142.156 51.526 o
6 -2 6 883.842 849.055 100.494 131.326 o
6 -2 7 51.604 19.845 49.993 657.259 o
6 -2 8 887.489 1182.560 137.566 74.703 o
6 -2 9 1659.800 1848.730 230.303 26.321 o
6 -2 10 140.025 100.195 120.810 112.397 o
6 -2 11 44.719 34.905 133.896 91.794 o
6 -2 12 404.675 512.811 241.268 27.982 o
6 -2 13 65.436 95.516 196.926 42.430 o
6 -1 0 363.041 369.884 103.507 147.762 o
6 -1 1 77.336 83.154 74.857 292.730 o
6 -1 2 56.733 42.975 46.312 764.441 o
6 -1 3 744.079 771.716 90.199 165.400 o
6 -1 4 356.382 477.677 72.633 284.820 o
6 -1 5 97.629 120.342 49.170 671.053 o
6 -1 6 708.437 719.157 102.481 135.761 o
6 -1 7 774.472 664.857 105.820 127.202 o
6 -1 8 458.260 495.277 101.373 149.852 o
6 -1 9 1661.470 1837.610 203.401 32.376 o
6 -1 10 908.878 898.444 175.891 49.049 o
6 -1 11 664.129 953.577 189.031 43.800 o
6 -1 12 792.578 954.545 239.928 27.501 o
6 -1 13 339.568 377.488 138.073 84.589 o
6 -1 14 9.117 51.576 148.699 74.445 o
6 0 0 447.469 448.668 109.512 130.289 o
6 0 1 38.284 9.339 58.723 477.027 o
6 0 2 607.265 631.944 126.682 95.370 o
6 0 3 2419.110 2394.280 175.683 33.273 o
6 0 4 321.202 385.861 94.977 175.189 o
6 0 5 84.314 55.185 48.570 692.592 o
6 0 6 1740.580 1717.440 146.327 53.057 o
6 0 7 486.285 468.639 153.120 68.068 o
6 0 8 1102.160 1045.060 178.573 46.183 o
6 0 9 3683.700 4427.140 334.443 10.203 o
6 0 10 2935.600 3347.900 299.768 13.707 o
6 0 11 2471.230 2740.510 285.061 16.098 o
6 0 12 1827.350 2485.050 288.098 17.075 o
6 0 13 325.997 433.375 152.208 69.795 o
6 0 14 159.600 70.968 116.173 121.489 o
6 0 15 287.792 455.609 214.475 35.496 o
6 1 0 3995.430 3592.490 333.435 10.359 o
6 1 1 4468.460 4230.290 369.471 8.306 o
6 1 2 10216.300 9764.180 573.765 2.518 o
6 1 3 7155.690 7713.680 351.159 5.563 o
6 1 4 1225.810 1368.030 214.609 32.122 o
6 1 5 56.841 137.674 98.128 170.564 o
6 1 6 131.519 172.720 76.210 280.185 o
6 1 7 94.434 48.474 76.493 280.387 o
6 1 8 3060.180 3049.240 253.059 17.521 o
6 1 9 3829.080 4398.220 317.749 10.782 o
6 1 10 1856.470 2415.790 255.891 20.879 o
6 1 11 1790.680 2054.940 258.167 21.118 o
6 1 12 1279.030 1367.240 220.743 30.367 o
6 1 13 21.796 116.974 131.973 94.468 o
6 1 14 938.559 1039.470 218.943 32.302 o
6 1 15 978.830 1419.880 331.291 14.464 o
6 2 0 10838.000 9784.140 558.091 2.481 o
6 2 1 13424.600 13005.300 658.965 1.647 o
6 2 2 17244.000 16645.200 759.036 1.093 o
6 2 3 9498.290 9448.210 400.105 3.675 o
6 2 4 407.541 555.010 145.618 75.264 o
6 2 5 1179.870 1180.480 206.705 34.887 o
6 2 6 1113.780 1156.110 144.549 65.933 o
6 2 7 1416.920 1379.060 165.768 48.713 o
6 2 8 2104.970 2003.900 204.292 29.675 o
6 2 9 1205.050 1230.080 322.182 15.170 o
6 2 10 203.193 218.632 173.014 54.741 o
6 2 11 41.706 156.439 154.728 68.704 o
6 2 12 29.758 76.858 129.074 98.773 o
6 2 13 128.102 107.030 100.162 163.326 o
6 2 14 771.062 931.678 419.707 9.231 o
6 2 15 667.013 876.522 257.210 24.246 o
6 3 0 4750.740 4293.260 389.699 7.497 o
6 3 1 4558.140 4005.370 383.403 7.905 o
6 3 2 6320.180 5789.360 463.379 4.906 o
6 3 3 4346.560 3788.750 395.995 7.756 o
6 3 4 16.588 2.429 174.219 54.236 o
6 3 5 1856.780 1950.100 263.506 20.362 o
6 3 6 2535.130 2539.430 299.274 14.943 o
6 3 7 1011.680 1072.690 144.139 68.063 o
6 3 8 1130.400 1005.030 150.295 62.396 o
6 3 9 348.855 212.990 79.486 248.934 o
6 3 10 130.323 17.361 180.382 50.552 o
6 3 11 190.571 284.595 127.399 100.451 o
6 3 12 85.941 82.353 188.419 46.340 o
6 3 13 2.871 -76.068 177.702 52.132 o
6 3 14 252.445 264.450 127.769 99.556 o
6 3 15 307.569 851.471 274.759 21.587 o
6 4 0 61.459 0.000 88.684 209.171 o
6 4 1 215.654 129.141 118.558 116.195 o
6 4 2 1641.490 1463.820 248.636 23.572 o
6 4 3 604.348 621.858 177.099 50.565 o
6 4 4 90.039 186.882 124.854 105.281 o
6 4 5 1907.910 1750.770 251.047 22.231 o
6 4 6 1730.270 1945.410 275.562 19.068 o
6 4 7 1723.880 1773.910 191.487 35.503 o
6 4 8 3289.870 3469.910 266.691 15.377 o
6 4 9 1214.890 1118.090 163.142 52.943 o
6 4 10 81.707 -251.607 123.304 108.209 o
6 4 11 3.075 -8.908 127.399 101.427 o
6 4 12 16.577 64.536 128.672 99.410 o
6 4 13 23.670 9.701 92.687 191.599 o
6 4 14 410.647 249.063 167.789 57.639 o
6 4 15 324.444 574.702 231.489 30.418 o
6 5 0 62.467 42.600 82.521 241.389 o
6 5 1 152.262 187.549 129.007 98.406 o
6 5 2 74.178 176.430 125.925 103.570 o
6 5 3 109.229 44.610 88.684 208.661 o
6 5 4 105.900 27.730 118.691 116.686 o
6 5 5 2009.950 2080.850 216.827 27.320 o
6 5 6 2047.740 2180.120 284.672 17.319 o
6 5 7 5157.910 4894.980 346.898 8.123 o
6 5 8 7347.070 7357.570 380.668 5.178 o
6 5 9 2783.890 2675.870 294.384 14.852 o
6 5 10 43.405 -63.010 100.128 164.158 o
6 5 11 156.307 59.070 106.434 144.693 o
6 5 12 158.335 33.385 100.440 162.479 o
6 5 13 782.375 715.358 178.594 48.783 o
6 5 14 990.344 687.325 235.373 28.416 o
6 6 0 2347.640 2034.630 308.517 14.791 o
6 6 1 24.461 -4.287 106.099 146.228 o
6 6 2 12.907 34.964 119.093 116.057 o
6 6 3 29.969 96.454 118.691 116.783 o
6 6 4 1540.020 1255.370 269.266 20.788 o
6 6 5 2600.340 2456.750 383.269 9.813 o
6 6 6 2930.010 3198.640 276.044 15.619 o
6 6 7 3891.260 3936.120 276.436 13.140 o
6 6 8 4465.250 4343.310 302.378 10.681 o
6 6 9 1382.550 1445.580 188.283 39.422 o
6 6 10 16.464 -79.032 93.171 189.628 o
6 6 11 1040.500 561.106 149.615 66.197 o
6 6 12 1019.250 872.263 171.222 50.916 o
6 6 13 1209.660 983.003 195.851 38.756 o
6 6 14 680.429 445.719 167.789 56.157 o
6 7 0 2961.330 3015.920 379.652 9.540 o
6 7 1 200.906 43.136 98.999 166.769 o
6 7 2 61.973 221.977 150.307 72.730 o
6 7 3 1106.480 1165.080 266.989 21.849 o
6 7 4 2812.860 3053.020 406.846 8.560 o
6 7 5 1948.530 1714.330 329.148 13.771 o
6 7 6 395.936 156.737 185.539 47.380 o
6 7 7 80.552 291.537 110.085 135.028 o
6 7 8 345.603 456.010 122.159 106.959 o
6 7 9 54.751 161.145 91.358 196.626 o
6 7 10 446.106 479.712 128.381 95.981 o
6 7 11 955.659 679.413 181.520 46.585 o
6 7 12 1092.730 849.887 176.450 47.837 o
6 7 13 777.780 863.203 194.876 41.095 o
6 7 14 718.359 485.349 262.166 23.502 o
6 8 0 1377.130 1166.420 256.272 23.139 o
6 8 1 18.941 -71.670 126.863 102.282 o
6 8 2 452.014 344.018 144.680 76.616 o
6 8 3 1725.310 1917.680 329.282 13.871 o
6 8 4 1917.560 2086.480 350.046 12.193 o
6 8 5 873.198 826.419 247.430 25.893 o
6 8 6 6.715 -174.420 164.641 60.731 o
6 8 7 116.129 -231.489 200.543 40.913 o
6 8 8 90.314 165.879 108.680 138.872 o
6 8 9 284.832 315.370 116.647 118.559 o
6 8 10 443.864 549.629 160.287 62.293 o
6 8 11 259.631 195.356 99.501 163.282 o
6 8 12 295.360 297.867 133.754 90.596 o
6 8 13 584.399 490.692 156.022 65.010 o
6 8 14 344.487 91.095 169.196 57.074 o
6 9 0 109.385 230.953 162.230 62.379 o
6 9 1 78.866 15.942 110.386 134.983 o
6 9 2 419.054 476.909 169.330 56.208 o
6 9 3 1360.280 1509.770 304.633 16.600 o
6 9 4 2185.980 2818.050 415.018 8.635 o
6 9 5 1436.080 1594.300 335.176 13.783 o
6 9 6 21.205 17.951 175.224 53.614 o
6 9 7 90.808 9.377 166.382 59.439 o
6 9 8 13.213 -19.236 142.738 80.798 o
6 9 9 241.809 306.254 120.737 111.236 o
6 9 10 448.863 418.501 135.923 86.228 o
6 9 11 212.188 159.218 153.388 69.610 o
6 9 12 158.651 35.382 97.066 173.907 o
6 9 13 279.294 83.191 165.847 59.534 o
6 9 14 587.617 403.497 234.972 29.345 o
6 10 0 136.928 183.530 158.211 65.573 o
6 10 1 246.652 58.408 122.041 109.732 o
6 10 2 434.231 557.421 210.054 36.708 o
6 10 3 1276.730 1364.010 287.753 18.651 o
6 10 4 3619.090 4040.470 496.200 5.648 o
6 10 5 2790.170 3406.820 474.632 6.481 o
6 10 6 716.774 1019.330 288.959 19.223 o
6 10 7 60.235 159.896 330.755 15.044 o
6 10 8 110.051 191.252 165.780 59.769 o
6 10 9 295.986 233.539 120.111 112.223 o
6 10 10 743.606 493.552 238.589 28.227 o
6 10 11 572.224 254.079 117.781 113.000 o
6 11 0 484.158 816.104 258.147 24.290 o
6 11 1 788.691 592.252 222.245 32.236 o
6 11 2 614.104 871.833 265.917 22.775 o
6 11 3 1205.010 1072.910 260.693 22.776 o
6 11 4 1824.250 1832.750 357.146 11.908 o
6 11 5 1410.190 1935.230 382.331 10.674 o
6 11 6 786.800 723.938 294.049 18.634 o
6 11 7 29.499 35.202 141.599 82.091 o
6 11 8 183.488 183.827 139.243 84.436 o
6 11 9 940.971 880.666 211.090 34.822 o
6 11 10 956.341 862.322 328.478 14.879 o
6 11 11 239.420 15.004 261.496 24.044 o
6 12 1 702.101 557.957 221.441 32.659 o
6 12 2 298.031 390.369 204.696 38.967 o
6 12 3 278.427 132.222 168.928 57.348 o
6 12 4 269.502 97.257 148.163 74.501 o
6 12 5 119.682 17.415 145.082 78.122 o
6 12 6 49.246 142.001 188.754 46.179 o
6 12 7 177.100 393.316 246.358 27.035 o
6 12 8 306.551 427.477 263.238 23.626 o
6 12 9 690.297 770.423 310.661 16.771 o
6 13 4 103.975 44.878 157.407 66.380 o
6 13 5 177.490 239.258 193.845 43.664 o
6 13 6 162.053 -32.553 244.751 27.464 o
7 -9 1 179.470 130.346 173.616 54.460 o
7 -9 2 27.997 138.920 198.132 41.921 o
7 -9 3 24.285 126.059 232.158 30.537 o
7 -9 4 3.681 -22.238 193.979 43.750 o
7 -9 5 212.794 435.783 290.968 19.384 o
7 -9 6 344.171 586.625 295.791 18.692 o
7 -8 0 645.949 699.690 278.778 20.804 o
7 -8 1 18.006 65.776 175.894 53.203 o
7 -8 2 102.381 -15.942 179.913 50.835 o
7 -8 3 285.668 399.746 256.808 24.835 o
7 -8 4 160.490 259.755 210.590 37.020 o
7 -8 5 618.539 1227.910 389.833 10.681 o
7 -8 6 786.297 1082.420 389.833 10.657 o
7 -8 7 333.913 126.059 187.549 46.505 o
7 -8 8 2.596 -180.583 192.907 44.237 o
7 -7 0 4.481 -14.870 151.379 71.839 o
7 -7 1 297.726 365.452 198.400 41.476 o
7 -7 2 1530.590 1741.790 408.186 9.416 o
7 -7 3 1129.940 1366.020 359.691 12.280 o
7 -7 4 986.816 644.095 279.046 20.500 o
7 -7 5 798.977 1000.710 341.472 13.833 o
7 -7 6 576.095 459.995 287.954 19.635 o
7 -7 7 0.235 -164.641 186.879 47.138 o
7 -7 8 70.050 -50.638 149.101 74.027 o
7 -7 9 164.262 168.124 188.754 46.092 o
7 -6 0 166.165 65.776 152.986 70.168 o
7 -6 1 1895.990 1628.990 391.843 10.038 o
7 -6 2 3050.320 2981.890 517.500 5.540 o
7 -6 3 1911.130 2012.420 189.619 34.247 o
7 -6 4 512.501 414.322 102.984 145.132 o
7 -6 5 230.741 150.391 126.756 101.617 o
7 -6 6 25.877 2.128 110.865 133.925 o
7 -6 7 108.140 -53.703 80.881 251.009 o
7 -6 8 156.108 84.343 133.160 92.549 o
7 -6 9 26.459 -126.052 193.979 43.749 o
7 -6 10 62.095 212.734 164.641 60.641 o
7 -5 0 17.686 -16.505 157.139 66.667 o
7 -5 1 629.186 482.115 169.755 55.067 o
7 -5 2 1486.040 1296.170 238.602 25.960 o
7 -5 3 989.284 946.318 134.217 78.175 o
7 -5 4 260.742 158.075 103.725 150.708 o
7 -5 5 296.333 138.310 93.856 182.930 o
7 -5 6 17.280 2.447 76.299 282.755 o
7 -5 7 101.193 40.416 70.159 333.021 o
7 -5 8 189.291 119.958 92.033 192.349 o
7 -5 9 16.267 -28.831 107.651 142.047 o
7 -5 10 32.096 186.146 260.358 24.277 o
7 -4 0 71.713 46.579 214.207 35.867 o
7 -4 1 52.610 65.989 153.522 69.816 o
7 -4 2 912.568 1214.340 161.850 55.837 o
7 -4 3 808.754 983.231 115.418 104.669 o
7 -4 4 605.374 461.177 86.031 196.071 o
7 -4 5 431.083 381.890 109.134 132.110 o
7 -4 6 112.976 195.712 84.043 231.002 o
7 -4 7 419.936 428.431 101.113 152.481 o
7 -4 8 1200.040 974.868 174.182 47.866 o
7 -4 9 528.881 445.328 128.847 94.580 o
7 -4 10 344.825 767.172 158.425 63.674 o
7 -4 11 808.460 1143.380 277.572 20.640 o
7 -3 0 66.161 113.345 100.950 161.200 o
7 -3 1 617.913 770.283 136.682 81.844 o
7 -3 2 1974.510 2299.830 211.510 28.078 o
7 -3 3 1177.200 1246.280 126.901 79.463 o
7 -3 4 234.852 305.408 72.044 304.626 o
7 -3 5 379.614 325.998 91.212 188.385 o
7 -3 6 8.736 57.001 65.968 378.118 o
7 -3 7 2089.890 2467.370 202.441 29.032 o
7 -3 8 3299.460 3848.020 309.925 12.204 o
7 -3 9 1931.070 2217.210 235.344 24.019 o
7 -3 10 1004.400 1163.400 264.979 22.308 o
7 -3 11 301.696 792.125 253.592 25.326 o
7 -2 0 2952.440 3156.850 235.858 19.402 o
7 -2 1 4128.850 4790.420 293.568 11.217 o
7 -2 2 3195.820 3637.490 255.824 16.261 o
7 -2 3 349.938 447.674 71.774 292.914 o
7 -2 4 28.057 22.590 53.038 584.756 o
7 -2 5 15.633 56.338 64.277 398.184 o
7 -2 6 689.123 686.267 113.873 113.661 o
7 -2 7 2891.460 3341.190 228.289 20.140 o
7 -2 8 2802.680 3133.490 273.704 16.126 o
7 -2 9 844.832 829.820 146.865 69.088 o
7 -2 10 382.429 317.825 103.898 146.827 o
7 -2 11 35.104 425.467 196.256 42.644 o
7 -2 12 145.857 473.962 233.364 30.113 o
7 -1 0 5666.680 6258.740 374.431 6.577 o
7 -1 1 4620.070 4989.510 343.286 8.669 o
7 -1 2 1400.340 1568.640 200.862 34.923 o
7 -1 3 37.209 -2.591 68.360 352.125 o
7 -1 4 632.944 759.797 95.255 156.284 o
7 -1 5 262.133 292.322 78.029 260.236 o
7 -1 6 231.408 137.452 71.563 313.594 o
7 -1 7 810.598 833.855 126.949 90.151 o
7 -1 8 602.696 461.988 104.076 139.262 o
7 -1 9 51.735 -31.214 129.141 98.687 o
7 -1 10 27.670 -208.033 117.042 120.162 o
7 -1 11 235.993 622.259 238.455 28.736 o
7 -1 12 204.238 762.117 256.004 24.933 o
7 0 0 2214.780 2155.230 226.299 24.703 o
7 0 1 2270.200 2292.190 234.688 22.963 o
7 0 2 1085.260 1115.400 175.800 47.376 o
7 0 3 165.988 90.632 76.774 276.311 o
7 0 4 1048.180 1297.590 146.139 64.671 o
7 0 5 321.255 437.862 93.780 178.743 o
7 0 6 136.170 101.854 84.866 227.001 o
7 0 7 140.400 27.785 106.233 145.434 o
7 0 8 375.325 280.755 130.078 95.163 o
7 0 9 81.990 -26.884 102.329 157.069 o
7 0 10 1.897 -284.437 132.501 93.766 o
7 0 11 131.375 178.001 100.691 161.271 o
7 0 12 92.622 150.578 256.942 24.920 o
7 0 13 495.926 572.157 241.938 27.712 o
7 1 0 638.870 481.598 140.795 78.673 o
7 1 1 1890.040 1781.580 276.366 18.839 o
7 1 2 801.505 636.594 176.296 50.090 o
7 1 3 267.517 76.493 102.482 154.783 o
7 1 4 1922.530 1954.620 226.331 26.050 o
7 1 5 1604.010 2017.680 194.638 34.584 o
7 1 6 1437.490 1602.360 180.920 41.295 o
7 1 7 2585.730 2437.650 225.893 22.983 o
7 1 8 1014.130 1102.410 194.314 39.913 o
7 1 9 17.331 -10.778 206.973 38.428 o
7 1 10 0.584 -76.613 110.229 135.487 o
7 1 11 22.851 -6.657 110.488 134.844 o
7 1 12 279.773 289.189 124.276 104.849 o
7 1 13 897.041 1186.760 221.885 31.420 o
7 1 14 855.370 1228.850 298.336 17.878 o
7 2 0 539.341 448.643 141.599 78.840 o
7 2 1 813.294 703.843 186.745 44.727 o
7 2 2 89.737 97.391 101.008 160.921 o
7 2 3 943.190 660.841 181.386 46.755 o
7 2 4 4222.840 4595.000 314.053 10.345 o
7 2 5 5361.050 6123.090 481.397 4.948 o
7 2 6 4579.840 5592.730 321.500 9.105 o
7 2 7 5447.350 5819.400 336.835 7.734 o
7 2 8 1114.670 1120.250 159.090 56.182 o
7 2 9 173.509 4.637 144.278 78.916 o
7 2 10 229.955 231.390 258.415 24.589 o
7 2 11 341.734 105.502 108.032 138.427 o
7 2 12 535.709 342.202 319.368 16.028 o
7 2 13 1030.240 1107.560 206.820 35.520 o
7 2 14 323.934 621.322 225.996 31.874 o
7 3 0 10.353 -43.270 116.548 121.191 o
7 3 1 53.495 107.439 109.984 135.907 o
7 3 2 30.926 -32.553 93.105 189.879 o
7 3 3 1635.640 1324.490 267.391 20.835 o
7 3 4 5872.830 5840.670 574.301 3.743 o
7 3 5 3346.180 3499.630 283.713 14.016 o
7 3 6 4130.300 4411.550 292.312 11.546 o
7 3 7 2595.160 2816.240 242.145 20.213 o
7 3 8 42.621 120.685 76.961 277.232 o
7 3 9 910.379 752.339 149.112 66.946 o
7 3 10 1498.650 1417.290 204.322 33.816 o
7 3 11 829.082 761.119 228.006 30.447 o
7 3 12 641.838 334.231 131.325 90.562 o
7 3 13 217.304 90.210 135.504 89.181 o
7 3 14 14.502 160.086 182.458 49.431 o
7 4 0 94.191 106.903 109.046 138.081 o
7 4 1 369.852 265.783 138.920 83.741 o
7 4 2 425.320 359.691 163.435 60.451 o
7 4 3 2113.980 1920.230 327.808 13.615 o
7 4 4 1321.800 1226.170 278.108 19.913 o
7 4 5 238.812 212.772 168.258 57.802 o
7 4 6 230.352 260.431 330.086 15.083 o
7 4 7 283.491 476.636 122.273 107.328 o
7 4 8 4.913 131.756 85.037 227.428 o
7 4 9 871.852 879.855 165.288 55.300 o
7 4 10 1547.910 1218.180 188.463 39.065 o
7 4 11 711.875 530.220 209.586 36.353 o
7 4 12 432.663 336.252 138.831 83.194 o
7 4 13 232.319 55.859 127.224 101.104 o
7 4 14 3.130 -59.212 129.810 97.694 o
7 5 0 230.027 222.379 129.944 96.545 o
7 5 1 385.207 251.985 128.203 97.943 o
7 5 2 810.087 755.419 237.517 28.178 o
7 5 3 758.861 941.360 250.645 25.336 o
7 5 4 81.577 81.852 112.663 129.477 o
7 5 5 44.220 -3.617 174.286 54.190 o
7 5 6 49.172 48.601 105.283 148.412 o
7 5 7 78.097 304.770 113.250 127.601 o
7 5 8 14.978 92.448 88.318 210.906 o
7 5 9 491.853 546.921 138.318 82.453 o
7 5 10 624.064 594.248 143.449 75.566 o
7 5 11 609.829 466.125 147.719 72.101 o
7 5 12 1176.030 727.858 181.656 45.258 o
7 5 13 724.816 503.367 211.327 35.775 o
7 6 0 164.376 115.744 130.212 96.691 o
7 6 1 947.894 602.165 189.156 43.321 o
7 6 2 2095.380 1683.780 324.861 13.973 o
7 6 3 2114.560 2470.420 389.431 9.821 o
7 6 4 1039.800 1445.870 304.231 16.975 o
7 6 5 29.270 -112.797 152.048 71.203 o
7 6 6 9.780 -280.251 210.322 37.215 o
7 6 7 0.991 -24.947 213.489 36.119 o
7 6 8 222.898 252.800 112.543 128.215 o
7 6 9 716.778 772.920 159.746 60.409 o
7 6 10 833.802 696.241 161.054 58.948 o
7 6 11 661.726 566.000 156.736 63.717 o
7 6 12 1000.040 821.784 215.078 33.533 o
7 6 13 742.666 470.665 165.958 56.956 o
7 7 0 963.103 719.919 205.902 36.675 o
7 7 1 1742.650 1871.330 326.469 14.095 o
7 7 2 3271.770 4092.580 480.124 6.080 o
7 7 3 6160.920 6960.600 634.584 3.077 o
7 7 4 3567.990 3722.570 487.090 5.896 o
7 7 5 224.106 109.850 162.363 62.185 o
7 7 6 41.333 36.840 170.133 56.863 o
7 7 7 144.139 -144.278 195.318 43.118 o
7 7 8 667.181 707.540 169.668 54.383 o
7 7 9 1112.730 989.065 190.123 41.338 o
7 7 10 727.994 762.374 165.530 56.471 o
7 7 11 214.339 98.522 303.896 17.806 o
7 7 12 193.912 102.642 97.656 171.083 o
7 7 13 150.792 63.633 149.771 73.234 o
7 8 0 1353.790 1552.500 309.857 16.066 o
7 8 1 1988.790 1661.140 320.440 14.441 o
7 8 2 2981.320 2894.950 415.822 8.197 o
7 8 3 3779.140 4241.550 525.404 5.056 o
7 8 4 1917.370 2508.330 420.913 8.597 o
7 8 5 42.173 70.331 156.067 67.563 o
7 8 6 315.597 245.019 161.694 62.314 o
7 8 7 1026.430 922.203 299.944 17.679 o
7 8 8 1236.980 1600.910 238.316 26.254 o
7 8 9 977.763 1096.880 168.983 51.653 o
7 8 10 150.645 181.990 114.798 124.134 o
7 8 11 12.941 -62.342 107.304 142.971 o
7 8 12 53.688 81.718 154.996 68.489 o
7 8 13 51.463 44.208 156.201 67.450 o
7 9 0 694.793 632.173 236.579 28.668 o
7 9 1 383.020 409.928 178.975 50.615 o
7 9 2 225.155 272.615 167.722 58.136 o
7 9 3 453.889 284.538 163.971 60.098 o
7 9 4 161.318 276.232 191.567 44.703 o
7 9 5 49.431 134.097 174.554 53.995 o
7 9 6 437.865 668.477 264.042 23.329 o
7 9 7 858.870 797.751 289.093 19.181 o
7 9 8 1114.970 1340.810 300.681 17.338 o
7 9 9 684.184 900.625 199.538 39.528 o
7 9 10 78.900 109.427 158.356 65.581 o
7 9 11 38.110 40.859 147.226 75.931 o
7 9 12 110.969 413.009 231.087 30.745 o
7 10 1 36.696 60.551 146.556 76.622 o
7 10 2 8.986 -58.944 169.598 57.233 o
7 10 3 30.552 39.787 130.748 96.277 o
7 10 4 128.840 59.212 153.388 69.863 o
7 10 5 149.465 282.930 195.720 42.840 o
7 10 6 303.771 617.571 273.285 21.886 o
7 10 7 399.038 695.805 281.993 20.497 o
7 10 8 833.463 1339.000 426.070 8.910 o
7 10 9 1147.450 1269.300 386.350 10.704 o
7 11 4 133.243 75.555 143.877 79.366 o
7 11 5 519.208 644.363 267.927 22.615 o
7 11 6 427.386 860.848 313.608 16.562 o
8 -8 5 32.814 -100.740 250.779 26.175 o
8 -7 0 238.742 291.236 227.470 31.687 o
8 -7 1 685.559 681.203 290.164 19.210 o
8 -7 2 494.880 197.864 232.962 30.055 o
8 -7 3 194.878 -54.523 189.558 45.746 o
8 -7 4 42.206 -290.298 247.296 26.917 o
8 -7 5 0.603 -256.942 280.653 20.900 o
8 -6 0 633.843 525.751 188.765 44.763 o
8 -6 1 1019.970 820.906 237.261 27.805 o
8 -6 2 426.272 208.204 148.023 73.784 o
8 -6 3 6.846 -60.698 146.965 76.218 o
8 -6 4 7.658 -107.941 170.468 56.650 o
8 -6 5 275.584 318.476 156.115 66.808 o
8 -6 6 943.462 1048.180 233.850 28.505 o
8 -6 7 1403.770 1493.960 378.044 11.011 o
8 -6 8 429.425 751.802 277.170 21.174 o
8 -5 0 813.017 1058.690 252.442 24.833 o
8 -5 1 717.969 803.224 228.344 30.528 o
8 -5 2 27.072 -100.243 146.917 76.265 o
8 -5 3 14.627 25.494 121.405 111.682 o
8 -5 4 119.819 194.417 91.631 194.512 o
8 -5 5 320.638 425.895 114.330 122.154 o
8 -5 6 1144.950 1147.100 163.380 53.282 o
8 -5 7 590.291 656.998 161.734 60.170 o
8 -5 8 149.092 127.153 110.973 132.982 o
8 -5 9 26.397 2.576 96.651 176.205 o
8 -4 0 641.864 684.071 219.406 33.246 o
8 -4 1 140.549 379.253 194.917 43.154 o
8 -4 2 8.034 105.428 305.637 17.622 o
8 -4 3 86.976 204.989 141.672 81.811 o
8 -4 4 11.013 143.772 81.366 248.290 o
8 -4 5 53.508 39.452 87.106 216.749 o
8 -4 6 283.266 300.336 102.301 153.381 o
8 -4 7 262.703 420.408 139.831 82.845 o
8 -4 8 28.659 -33.301 98.692 168.994 o
8 -4 9 30.573 -111.270 110.922 133.784 o
8 -4 10 100.760 180.449 175.358 53.444 o
8 -3 0 762.341 976.726 341.204 13.875 o
8 -3 1 356.828 469.933 175.554 52.565 o
8 -3 2 0.715 74.868 186.812 47.169 o
8 -3 3 122.877 255.968 186.777 47.068 o
8 -3 4 30.538 42.536 67.017 366.222 o
8 -3 5 72.021 166.482 82.082 243.098 o
8 -3 6 433.494 544.596 123.686 102.841 o
8 -3 7 741.136 916.108 180.299 47.641 o
8 -3 8 334.211 281.941 123.932 104.985 o
8 -3 9 37.028 -31.548 93.077 189.980 o
8 -3 10 0.257 -34.193 96.993 174.987 o
8 -2 0 736.601 780.687 175.958 50.237 o
8 -2 1 228.214 135.028 222.647 33.126 o
8 -2 2 301.053 589.954 164.394 59.795 o
8 -2 3 1338.230 1916.880 258.228 22.189 o
8 -2 4 1005.480 1188.550 154.534 59.812 o
8 -2 5 909.265 1176.680 154.843 60.593 o
8 -2 6 1124.150 1276.620 198.771 37.473 o
8 -2 7 673.644 850.632 171.508 52.876 o
8 -2 8 28.172 100.346 95.003 182.218 o
8 -2 9 6.448 -59.763 97.897 171.771 o
8 -2 10 58.682 -326.067 196.390 42.677 o
8 -1 0 225.313 275.107 114.316 124.191 o
8 -1 1 109.272 175.303 115.302 123.314 o
8 -1 2 2350.960 2750.700 298.302 15.138 o
8 -1 3 3605.350 4215.760 368.805 9.022 o
8 -1 4 3054.110 3626.550 255.030 16.669 o
8 -1 5 2179.560 2414.910 218.926 25.620 o
8 -1 6 1413.720 1321.690 207.923 33.353 o
8 -1 7 95.332 267.149 116.615 120.394 o
8 -1 8 422.123 413.545 161.426 61.839 o
8 -1 9 266.313 172.143 144.814 77.843 o
8 -1 10 88.944 50.906 131.552 95.022 o
8 0 0 75.496 57.604 102.214 157.334 o
8 0 1 411.899 320.976 138.518 83.762 o
8 0 2 2073.560 2034.770 327.540 13.619 o
8 0 3 3513.130 3832.420 456.145 6.584 o
8 0 4 2407.160 2799.300 419.305 8.380 o
8 0 5 746.932 1021.390 134.437 80.997 o
8 0 6 485.093 451.413 114.255 119.522 o
8 0 7 32.111 -9.090 108.912 138.765 o
8 0 8 1023.650 904.788 235.909 28.019 o
8 0 9 659.281 571.889 205.232 37.938 o
8 0 10 127.905 88.282 157.943 65.880 o
8 0 11 132.120 42.198 160.220 64.045 o
8 1 0 39.902 -42.065 115.878 122.577 o
8 1 1 37.500 -29.204 106.233 145.845 o
8 1 2 550.477 468.871 191.701 43.752 o
8 1 3 1120.560 1032.990 261.362 22.825 o
8 1 4 201.454 112.127 127.935 100.003 o
8 1 5 324.660 433.516 112.406 126.124 o
8 1 6 171.282 176.996 86.919 215.165 o
8 1 7 11.490 9.137 81.421 248.306 o
8 1 8 384.915 567.619 131.295 92.097 o
8 1 9 785.504 1084.290 191.812 41.888 o
8 1 10 231.130 304.478 130.386 95.656 o
8 1 11 94.829 91.274 115.390 123.377 o
8 2 0 43.636 -117.620 136.643 88.156 o
8 2 1 75.035 -99.535 126.863 102.235 o
8 2 2 420.546 519.376 195.452 42.362 o
8 2 3 195.086 240.598 161.292 62.937 o
8 2 4 24.067 33.089 116.950 120.341 o
8 2 5 152.373 134.018 263.841 23.625 o
8 2 6 223.293 266.600 209.247 37.443 o
8 2 7 10.754 144.822 100.099 164.136 o
8 2 8 1022.270 1239.760 189.219 41.527 o
8 2 9 1601.210 1522.730 213.843 30.671 o
8 2 10 1035.250 1022.570 202.526 37.060 o
8 2 11 694.078 540.698 160.295 60.930 o
8 2 12 457.980 380.992 198.266 41.251 o
8 2 13 0.969 27.462 150.307 72.866 o
8 3 0 1200.390 907.869 217.288 32.210 o
8 3 1 1413.730 1138.690 241.268 25.800 o
8 3 2 1608.200 1738.980 328.076 14.146 o
8 3 3 633.738 770.959 242.474 27.313 o
8 3 4 199.420 383.135 196.658 42.328 o
8 3 5 3.677 -230.417 214.341 35.832 o
8 3 6 5.681 9.726 88.620 209.612 o
8 3 7 357.158 425.211 143.877 77.789 o
8 3 8 1457.230 1484.850 204.703 33.741 o
8 3 9 1429.780 1644.630 225.448 28.361 o
8 3 10 1250.280 698.040 438.529 8.401 o
8 3 11 1060.540 934.691 197.472 38.901 o
8 3 12 191.550 98.463 143.475 79.652 o
8 3 13 43.153 -172.813 185.271 47.955 o
8 4 0 3135.150 2576.650 363.174 10.305 o
8 4 1 3689.140 3455.450 433.773 7.160 o
8 4 2 4131.400 4282.270 498.343 5.409 o
8 4 3 1599.290 1650.430 330.487 14.000 o
8 4 4 0.129 -30.544 125.925 103.815 o
8 4 5 321.896 234.704 167.722 57.955 o
8 4 6 275.212 104.625 163.033 61.581 o
8 4 7 654.960 711.215 129.073 90.884 o
8 4 8 1277.580 1149.470 184.356 42.352 o
8 4 9 531.682 555.649 153.061 67.577 o
8 4 10 138.175 43.751 272.146 22.216 o
8 4 11 91.522 158.330 120.567 112.926 o
8 4 12 51.198 89.621 144.412 78.887 o
8 5 0 2825.490 2441.350 367.461 10.398 o
8 5 1 3124.140 2513.290 375.499 9.781 o
8 5 2 2493.740 2579.460 403.363 8.992 o
8 5 3 376.303 651.062 249.038 26.247 o
8 5 4 236.716 225.192 174.286 53.887 o
8 5 5 723.696 514.955 229.613 30.433 o
8 5 6 782.366 608.059 256.674 24.366 o
8 5 7 507.519 528.170 177.276 51.007 o
8 5 8 449.234 372.301 200.027 40.562 o
8 5 9 35.545 217.524 173.215 54.814 o
8 5 10 30.003 60.298 198.266 41.873 o
8 5 11 6.597 -8.733 201.012 40.742 o
8 5 12 39.952 234.838 206.303 38.647 o
8 6 0 416.447 202.552 127.533 98.895 o
8 6 1 560.634 303.427 153.254 68.000 o
8 6 2 522.031 192.505 149.905 71.526 o
8 6 3 242.557 253.191 176.698 52.401 o
8 6 4 202.246 467.666 228.273 31.429 o
8 6 5 825.491 992.668 294.585 18.441 o
8 6 6 713.968 553.670 218.762 33.423 o
8 6 7 714.018 1132.690 208.616 35.901 o
8 6 8 408.650 464.270 252.457 25.595 o
8 6 9 57.959 323.814 130.194 96.726 o
8 6 10 66.356 168.015 109.071 138.004 o
8 6 11 5.466 -65.190 173.482 54.698 o
8 7 0 9.890 -32.687 114.539 125.481 o
8 7 1 40.089 71.670 124.988 105.323 o
8 7 2 62.331 -152.316 166.918 59.074 o
8 7 3 84.234 323.923 197.864 41.956 o
8 7 4 263.626 592.654 254.396 25.263 o
8 7 5 866.386 1176.060 342.946 13.648 o
8 7 6 1189.880 1160.260 330.086 14.515 o
8 7 7 1540.160 1505.350 388.092 10.413 o
8 7 8 1109.830 1461.090 254.178 23.712 o
8 7 9 119.893 198.589 153.886 69.317 o
8 7 10 10.633 80.417 164.507 60.822 o
8 8 1 63.574 80.110 151.914 71.285 o
8 8 2 16.843 101.008 148.163 74.968 o
8 8 3 42.281 -45.280 153.790 69.596 o
8 8 4 536.352 640.612 275.562 21.385 o
8 8 5 855.530 1064.070 340.535 13.868 o
8 8 6 1053.660 1209.690 346.295 13.294 o
8 8 7 1621.820 2119.030 450.519 7.721 o
8 8 8 1283.440 1284.810 318.029 15.469 o
8 8 10 114.239 241.536 216.351 35.111 o
9 -6 4 175.196 527.279 296.059 18.723 o
9 -5 1 340.784 694.734 341.204 14.059 o
9 -5 2 728.958 1525.170 434.711 8.568 o
9 -5 3 520.989 1186.110 408.454 9.764 o
9 -5 4 284.005 925.954 354.601 13.010 o
9 -5 5 444.433 568.272 299.542 18.194 o
9 -4 2 1454.260 2523.330 551.929 5.224 o
9 -4 3 708.188 1061.790 385.680 10.907 o
9 -4 4 425.773 1091.670 344.554 13.711 o
9 -4 5 192.349 265.523 195.519 42.895 o
9 -4 6 5.882 9.913 110.654 134.446 o
9 -4 7 141.369 242.206 156.871 66.631 o
9 -3 0 423.598 778.327 345.089 13.715 o
9 -3 1 722.031 867.010 356.878 12.735 o
9 -3 2 866.498 1235.950 393.852 10.402 o
9 -3 3 408.492 558.493 297.800 18.423 o
9 -3 4 141.385 492.717 279.179 21.063 o
9 -3 5 35.117 116.137 99.888 164.788 o
9 -3 6 22.369 139.113 119.023 116.106 o
9 -3 7 176.090 326.738 137.058 86.877 o
9 -2 0 45.221 325.397 284.538 20.318 o
9 -2 1 436.012 561.306 322.316 15.735 o
9 -2 2 657.889 917.247 336.516 14.313 o
9 -2 3 312.623 552.197 281.189 20.691 o
9 -2 4 76.827 186.209 213.671 36.025 o
9 -2 5 179.186 161.292 189.826 45.564 o
9 -2 6 6.272 19.674 90.962 198.951 o
9 -2 7 243.825 326.015 117.955 116.348 o
9 -1 0 36.570 47.289 130.346 96.863 o
9 -1 1 411.443 572.559 203.356 39.152 o
9 -1 2 623.268 742.238 190.167 43.816 o
9 -1 3 273.267 359.512 156.717 66.240 o
9 -1 4 99.844 269.668 193.443 43.901 o
9 -1 5 0.539 -34.429 148.029 75.126 o
9 -1 6 178.293 219.907 131.248 94.913 o
9 -1 7 924.622 1405.670 561.507 5.160 o
9 -1 8 1168.330 1649.890 314.814 15.714 o
9 0 0 776.639 795.876 231.756 29.569 o
9 0 1 840.718 622.929 205.634 37.266 o
9 0 2 313.079 362.639 172.545 54.656 o
9 0 3 92.028 318.029 189.826 45.572 o
9 0 4 47.795 286.681 209.519 37.456 o
9 0 5 58.676 -41.529 154.326 69.107 o
9 0 6 621.459 681.404 167.161 56.261 o
9 0 7 1826.740 2241.770 280.196 18.115 o
9 0 8 1035.020 1385.580 294.719 18.069 o
9 1 0 1975.230 1633.150 314.010 15.007 o
9 1 1 977.552 702.503 217.958 32.912 o
9 1 2 273.689 333.167 178.707 51.105 o
9 1 3 69.810 36.572 142.671 80.831 o
9 1 4 412.023 449.313 209.117 37.155 o
9 1 5 137.853 25.051 170.937 56.278 o
9 1 6 412.671 442.615 144.728 76.503 o
9 1 7 652.289 778.082 185.349 45.859 o
9 1 8 382.991 583.142 220.504 33.413 o
9 2 0 1024.740 757.027 224.656 30.901 o
9 2 1 838.186 542.685 197.864 40.248 o
9 2 2 81.883 85.335 133.695 91.985 o
9 2 3 235.591 463.513 229.077 31.186 o
9 2 4 272.414 492.851 225.058 32.257 o
9 2 5 165.184 214.475 220.771 33.702 o
9 2 6 129.796 211.278 144.613 78.421 o
9 2 7 138.770 149.928 138.843 85.110 o
9 2 8 85.850 80.064 136.101 88.764 o
9 2 9 4.332 -207.375 219.700 34.106 o
9 3 0 562.713 349.778 165.445 58.488 o
9 3 1 465.665 414.214 191.300 44.206 o
9 3 2 2.130 -259.621 176.296 52.967 o
9 3 3 334.535 542.819 257.477 24.638 o
9 3 4 509.250 673.835 271.544 22.021 o
9 3 5 237.758 475.838 254.530 25.285 o
9 3 6 456.308 349.425 311.197 16.900 o
9 3 7 356.977 325.622 117.293 116.404 o
9 3 8 83.519 131.516 142.302 81.168 o
9 3 9 1.113 -93.372 158.746 65.325 o
9 3 10 1.033 -285.744 217.824 34.696 o
9 3 11 9.115 34.161 152.852 70.457 o
9 4 0 245.896 151.914 140.661 82.587 o
9 4 1 56.312 12.994 140.394 83.497 o
9 4 2 24.718 -201.749 217.958 34.652 o
9 4 3 589.395 747.515 295.791 18.536 o
9 4 4 1582.800 1833.560 413.143 9.167 o
9 4 5 1663.440 1500.250 390.369 10.245 o
9 4 6 1063.390 1026.960 345.089 13.425 o
9 4 7 731.240 859.527 318.029 15.973 o
9 4 8 22.557 -9.040 194.046 43.719 o
9 4 9 49.681 41.127 139.590 84.455 o
9 4 10 55.242 -126.327 162.631 62.231 o
9 4 11 181.311 213.002 183.664 48.632 o
9 5 1 0.250 -1.206 135.839 89.215 o
9 5 2 155.518 -56.934 141.197 82.430 o
9 5 3 1070.920 1262.070 330.889 14.490 o
9 5 4 1783.900 2100.540 429.084 8.419 o
9 5 5 1500.500 1569.250 394.656 10.088 o
9 5 6 1300.520 1111.760 333.435 14.181 o
9 5 7 593.088 644.566 262.568 23.472 o
9 5 8 9.741 107.974 160.354 64.007 o
9 5 9 388.787 305.704 193.845 43.329 o
9 6 7 47.797 178.305 174.822 53.816 o
9 6 8 81.118 247.832 176.028 53.026 o
10 0 1 2.430 -214.877 209.920 37.357 o
10 0 2 140.111 -31.615 186.879 47.100 o
10 0 3 352.009 430.826 239.124 28.561 o
10 0 4 330.070 566.933 279.046 20.997 o
10 0 5 241.939 358.486 244.617 27.396 o
10 0 6 225.854 298.202 219.700 33.965 o
10 1 0 1.348 -101.142 164.775 60.632 o
10 1 1 148.930 47.691 162.631 62.141 o
10 1 2 714.106 475.838 240.464 27.849 o
10 1 3 825.964 1276.800 349.644 13.138 o
10 1 4 968.055 1385.720 382.599 10.952 o
10 1 5 625.994 797.751 323.655 15.494 o
10 4 6 40.428 286.681 181.788 49.742 o
10 4 7 203.114 469.407 220.638 33.628 o
;
_olex2_submission_special_instructions 'No special instructions were received'
_oxdiff_exptl_absorpt_empirical_details
;
Empirical correction (ABSPACK) includes:
- Absorption correction using spherical harmonics
- Frame scaling
;
_oxdiff_exptl_absorpt_empirical_full_max 4.643
_oxdiff_exptl_absorpt_empirical_full_min 0.535
loop_
_space_group_symop_id
_space_group_symop_operation_xyz
1 x,y,z
2 -x,-y,-z
loop_
_atom_site_label
_atom_site_type_symbol
_atom_site_fract_x
_atom_site_fract_y
_atom_site_fract_z
_atom_site_U_iso_or_equiv
_atom_site_adp_type
_atom_site_occupancy
_atom_site_refinement_flags_posn
Bi1 Bi 0.27939(5) 0.95490(3) 0.93234(3) 0.03689(16) Uani 1.000000 .
Br2 Br 0.57582(16) 1.12131(10) 0.86121(9) 0.0490(3) Uani 1.000000 .
Se1 Se 0.51447(16) 0.75691(10) 0.90877(9) 0.0453(3) Uani 1.000000 .
Br3 Br -0.02344(16) 0.81870(11) 1.01141(12) 0.0606(4) Uani 1.000000 .
Br1 Br 0.20755(19) 0.99100(12) 0.73723(11) 0.0618(4) Uani 1.000000 .
N1 N 0.3788(12) 0.6667(7) 0.7549(7) 0.038(2) Uani 1.000000 .
N2 N 0.6000(12) 0.7849(8) 0.6814(7) 0.045(2) Uani 1.000000 .
C1 C 0.4946(13) 0.7363(9) 0.7749(8) 0.035(2) Uani 1.000000 .
C7 C 0.5471(16) 0.7452(10) 0.6001(10) 0.047(3) Uani 1.000000 .
C2 C 0.4057(16) 0.6700(10) 0.6470(9) 0.045(3) Uani 1.000000 .
C11 C 0.2409(17) 0.5987(10) 0.8344(10) 0.056(3) Uani 1.000000 .
H11a H 0.1982(17) 0.6441(10) 0.8903(10) 0.067(4) Uiso 1.000000 R
H11b H 0.1404(17) 0.5923(10) 0.8016(10) 0.067(4) Uiso 1.000000 R
C8 C 0.7540(18) 0.8610(11) 0.6718(11) 0.060(3) Uani 1.000000 .
H8 H 0.7579(18) 0.8731(11) 0.7427(11) 0.072(4) Uiso 1.000000 R
O1 O 0.3438(16) 0.4057(8) 0.8024(8) 0.083(3) Uani 1.000000 .
H1 H 0.41(2) 0.347(9) 0.821(6) 0.124(5) Uiso 1.000000 GR
C1aa C 0.528(2) 0.7130(13) 0.4337(12) 0.075(4) Uani 1.000000 .
H1aa H 0.570(2) 0.7265(13) 0.3611(12) 0.090(5) Uiso 1.000000 R
C6 C 0.6047(19) 0.7663(11) 0.4921(10) 0.061(4) Uani 1.000000 .
H6 H 0.6968(19) 0.8177(11) 0.4607(10) 0.073(4) Uiso 1.000000 R
C12 C 0.3038(19) 0.4762(11) 0.8814(11) 0.070(4) Uani 1.000000 .
H12 H 0.3153(19) 0.4497(11) 0.9516(11) 0.084(5) Uiso 1.000000 R
C10 C 0.723(2) 0.9846(12) 0.6045(12) 0.084(5) Uani 1.000000 .
H10a H 0.713(13) 0.9754(14) 0.535(3) 0.126(7) Uiso 1.000000 GR
H10b H 0.614(7) 1.023(4) 0.636(4) 0.126(7) Uiso 1.000000 GR
H10c H 0.821(6) 1.033(3) 0.599(6) 0.126(7) Uiso 1.000000 GR
C4 C 0.385(2) 0.6364(15) 0.4774(13) 0.080(5) Uani 1.000000 .
H4 H 0.332(2) 0.6017(15) 0.4340(13) 0.097(6) Uiso 1.000000 R
C3 C 0.3251(18) 0.6134(11) 0.5864(11) 0.063(4) Uani 1.000000 .
H3 H 0.2335(18) 0.5616(11) 0.6175(11) 0.075(5) Uiso 1.000000 R
C9 C 0.9268(18) 0.7938(13) 0.6329(14) 0.092(5) Uani 1.000000 .
H9a H 0.951(8) 0.727(6) 0.687(4) 0.138(8) Uiso 1.000000 GR
H9b H 0.916(6) 0.764(9) 0.571(6) 0.138(8) Uiso 1.000000 GR
H9c H 1.023(3) 0.848(3) 0.615(9) 0.138(8) Uiso 1.000000 GR
loop_
_atom_site_aniso_label
_atom_site_aniso_U_11
_atom_site_aniso_U_22
_atom_site_aniso_U_33
_atom_site_aniso_U_12
_atom_site_aniso_U_13
_atom_site_aniso_U_23
Bi1 0.0357(2) 0.0376(2) 0.0342(3) -0.00659(17) -0.00090(17) -0.00351(18)
Br2 0.0577(7) 0.0513(7) 0.0353(7) -0.0217(6) -0.0022(5) -0.0002(5)
Se1 0.0536(7) 0.0442(6) 0.0355(7) 0.0043(5) -0.0099(5) -0.0038(5)
Br3 0.0472(7) 0.0453(7) 0.0814(11) -0.0145(6) 0.0130(7) -0.0133(7)
Br1 0.0702(9) 0.0688(8) 0.0449(8) -0.0008(7) -0.0176(7) -0.0027(7)
N1 0.050(6) 0.026(4) 0.031(6) -0.001(4) 0.002(4) 0.003(4)
N2 0.050(6) 0.046(5) 0.037(6) -0.005(5) -0.003(5) -0.007(5)
C1 0.032(5) 0.042(6) 0.023(6) 0.002(5) 0.008(4) -0.000(5)
C7 0.053(7) 0.040(6) 0.045(8) 0.003(6) -0.009(6) -0.007(6)
C2 0.059(8) 0.044(6) 0.033(7) 0.015(6) -0.012(6) -0.013(6)
C11 0.059(8) 0.047(7) 0.056(9) -0.017(6) 0.004(6) -0.005(6)
C8 0.069(9) 0.055(8) 0.049(9) -0.015(7) 0.006(7) -0.004(7)
O1 0.124(10) 0.047(6) 0.071(7) -0.011(6) -0.010(6) -0.003(5)
C1aa 0.117(14) 0.067(9) 0.038(10) -0.000(10) -0.014(9) -0.005(8)
C6 0.082(10) 0.059(8) 0.029(8) 0.006(7) 0.008(7) -0.002(6)
C12 0.110(12) 0.052(8) 0.044(9) -0.013(8) -0.013(8) 0.002(6)
C10 0.090(12) 0.058(9) 0.081(12) -0.022(8) 0.024(9) 0.005(8)
C4 0.111(13) 0.084(11) 0.058(11) 0.031(10) -0.038(10) -0.036(9)
C3 0.071(9) 0.054(8) 0.064(10) 0.010(7) -0.017(8) -0.015(7)
C9 0.059(10) 0.069(10) 0.145(17) -0.010(8) -0.006(10) -0.022(11)
loop_
_atom_type_symbol
_atom_type_scat_dispersion_real
_atom_type_scat_dispersion_imag
_atom_type_scat_Cromer_Mann_a1
_atom_type_scat_Cromer_Mann_a2
_atom_type_scat_Cromer_Mann_a3
_atom_type_scat_Cromer_Mann_a4
_atom_type_scat_Cromer_Mann_b1
_atom_type_scat_Cromer_Mann_b2
_atom_type_scat_Cromer_Mann_b3
_atom_type_scat_Cromer_Mann_b4
_atom_type_scat_Cromer_Mann_c
_atom_type_scat_source
_atom_type_scat_dispersion_source
C 0.00347 0.00161 2.31000 1.02000 1.58860 0.86500 20.84390 10.20750 0.56870
51.65120 0.215599998832
'International Tables Volume C Table 6.1.1.4 (pp. 500-502)'
'Henke, Gullikson and Davis, At. Data and Nucl. Data Tables, 1993, 54, 2'
H 0.00000 0.00000 0.49300 0.32291 0.14019 0.04081 10.51090 26.12570 3.14236
57.79970 0.0030380000826
'International Tables Volume C Table 6.1.1.4 (pp. 500-502)'
'Henke, Gullikson and Davis, At. Data and Nucl. Data Tables, 1993, 54, 2'
Bi -3.98376 10.58997 33.36890 12.95100 16.58770 6.46920 0.70400 2.92380 8.79370
48.00930 13.5782003403
'International Tables Volume C Table 6.1.1.4 (pp. 500-502)'
'Henke, Gullikson and Davis, At. Data and Nucl. Data Tables, 1993, 54, 2'
O 0.01158 0.00611 3.04850 2.28680 1.54630 0.86700 13.27710 5.70110 0.32390
32.90890 0.250800013542
'International Tables Volume C Table 6.1.1.4 (pp. 500-502)'
'Henke, Gullikson and Davis, At. Data and Nucl. Data Tables, 1993, 54, 2'
N 0.00653 0.00323 12.21260 3.13220 2.01250 1.16630 0.00570 9.89330 28.99750
0.58260 -11.5290002823
'International Tables Volume C Table 6.1.1.4 (pp. 500-502)'
'Henke, Gullikson and Davis, At. Data and Nucl. Data Tables, 1993, 54, 2'
Br -0.28346 2.55990 17.17890 5.23580 5.63770 3.98510 2.17230 16.57960 0.26090
41.43280 2.95569992065
'International Tables Volume C Table 6.1.1.4 (pp. 500-502)'
'Henke, Gullikson and Davis, At. Data and Nucl. Data Tables, 1993, 54, 2'
Se -0.08110 2.30834 17.00060 5.81960 3.97310 4.35430 2.40980 0.27260 15.23720
43.81630 2.84089994431
'International Tables Volume C Table 6.1.1.4 (pp. 500-502)'
'Henke, Gullikson and Davis, At. Data and Nucl. Data Tables, 1993, 54, 2'
loop_
_geom_angle_atom_site_label_1
_geom_angle_atom_site_label_2
_geom_angle_atom_site_label_3
_geom_angle
_geom_angle_site_symmetry_1
_geom_angle_site_symmetry_3
_geom_angle_publ_flag
Se1 Bi1 Br2 91.33(4) . . ?
Se1 Bi1 Br2 73.73(3) . 2_677 ?
Br3 Bi1 Br2 173.29(3) . . ?
Br3 Bi1 Br2 93.16(4) . 2_677 ?
Br3 Bi1 Se1 94.85(4) . . ?
Br1 Bi1 Br2 168.32(4) . 2_677 ?
Br1 Bi1 Br2 91.77(4) . . ?
Br1 Bi1 Se1 94.88(4) . . ?
Br1 Bi1 Br3 90.30(5) . . ?
C1 Se1 Bi1 101.2(3) . . ?
C2 N1 C1 109.5(10) . . ?
C11 N1 C1 125.6(9) . . ?
C11 N1 C2 124.9(10) . . ?
C7 N2 C1 108.7(10) . . ?
C8 N2 C1 124.5(10) . . ?
C8 N2 C7 126.7(10) . . ?
N1 C1 Se1 125.3(8) . . ?
N2 C1 Se1 126.1(8) . . ?
N2 C1 N1 108.5(9) . . ?
C2 C7 N2 106.5(11) . . ?
C6 C7 N2 133.3(13) . . ?
C6 C7 C2 120.2(11) . . ?
C7 C2 N1 106.7(10) . . ?
C3 C2 N1 132.6(13) . . ?
C3 C2 C7 120.7(12) . . ?
C12 C11 N1 114.0(10) . . ?
C10 C8 N2 109.9(11) . . ?
C9 C8 N2 109.7(10) . . ?
C9 C8 C10 114.4(12) . . ?
C4 C1aa C6 122.4(15) . . ?
C1aa C6 C7 119.4(15) . . ?
O1 C12 C11 108.6(11) . . ?
C3 C4 C1aa 119.2(13) . . ?
C4 C3 C2 118.0(15) . . ?
loop_
_geom_bond_atom_site_label_1
_geom_bond_atom_site_label_2
_geom_bond_distance
_geom_bond_site_symmetry_2
_geom_bond_publ_flag
Bi1 Br2 2.9642(12) . ?
Bi1 Br2 3.0704(12) 2_677 ?
Bi1 Se1 2.7576(11) . ?
Bi1 Br3 2.8037(13) . ?
Bi1 Br1 2.6788(13) . ?
Se1 C1 1.867(10) . ?
N1 C1 1.338(13) . ?
N1 C2 1.389(13) . ?
N1 C11 1.474(14) . ?
N2 C1 1.367(13) . ?
N2 C7 1.389(13) . ?
N2 C8 1.495(15) . ?
C7 C2 1.401(17) . ?
C7 C6 1.379(16) . ?
C2 C3 1.385(15) . ?
C11 C12 1.471(16) . ?
C8 C10 1.516(17) . ?
C8 C9 1.507(17) . ?
O1 C12 1.409(14) . ?
C1aa C6 1.322(17) . ?
C1aa C4 1.41(2) . ?
C4 C3 1.39(2) . ?
loop_
_smtbx_masks_void_nr
_smtbx_masks_void_average_x
_smtbx_masks_void_average_y
_smtbx_masks_void_average_z
_smtbx_masks_void_volume
_smtbx_masks_void_count_electrons
_smtbx_masks_void_content
1 0.000 0.500 0.500 240.8 45.4 ?
