#------------------------------------------------------------------------------
#$Date: 2022-06-06 04:52:13 +0300 (Mon, 06 Jun 2022) $
#$Revision: 275789 $
#$URL: file:///home/coder/svn-repositories/cod/cif/7/06/14/7061444.cif $
#------------------------------------------------------------------------------
#
# This file is available in the Crystallography Open Database (COD),
# http://www.crystallography.net/
#
# All data on this site have been placed in the public domain by the
# contributors.
#
data_7061444
loop_
_publ_author_name
'Dou, Li'
'Shi, Huabin'
'Niu, Xue'
'Zhang, Hong'
'Zhang, Kankan'
'Wu, Zhibing'
_publ_section_title
;
 Design, synthesis and antifungal mechanism of novel acetophenone
 derivatives containing 1,3,4-thiadiazole-2-thioethers
;
_journal_issue                   19
_journal_name_full               'New Journal of Chemistry'
_journal_page_first              9017
_journal_page_last               9023
_journal_paper_doi               10.1039/D2NJ01709A
_journal_volume                  46
_journal_year                    2022
_chemical_formula_moiety         'C16 H11 Cl N2 O S2'
_chemical_formula_sum            'C16 H11 Cl N2 O S2'
_chemical_formula_weight         346.84
_space_group_crystal_system      triclinic
_space_group_IT_number           2
_space_group_name_Hall           '-P 1'
_space_group_name_H-M_alt        'P -1'
_atom_sites_solution_hydrogens   geom
_atom_sites_solution_primary     dual
_audit_creation_date             2021-05-07
_audit_creation_method
;
Olex2 1.3-alpha
(compiled 2020.02.04 svn.rd84adfe8 for OlexSys, GUI svn.r6032)
;
_audit_update_record
;
2021-05-10 deposited with the CCDC.	2022-04-13 downloaded from the CCDC.
;
_cell_angle_alpha                105.112(2)
_cell_angle_beta                 93.310(2)
_cell_angle_gamma                111.564(2)
_cell_formula_units_Z            2
_cell_length_a                   8.1736(4)
_cell_length_b                   8.9413(4)
_cell_length_c                   12.3309(6)
_cell_measurement_reflns_used    9881
_cell_measurement_temperature    273(2)
_cell_measurement_theta_max      71.966
_cell_measurement_theta_min      3.768
_cell_volume                     797.19(7)
_computing_cell_refinement       'SAINT V8.38A (Bruker, 2018)'
_computing_data_reduction        'SAINT V8.38A (Bruker, 2018)'
_computing_molecular_graphics    'Olex2 1.3-alpha (Dolomanov et al., 2009)'
_computing_publication_material  'Olex2 1.3-alpha (Dolomanov et al., 2009)'
_computing_structure_refinement  'SHELXL 2018/3 (Sheldrick, 2015)'
_computing_structure_solution    'SHELXT 2014/5 (Sheldrick, 2014)'
_diffrn_ambient_temperature      273.15
_diffrn_measured_fraction_theta_full 0.997
_diffrn_measured_fraction_theta_max 0.990
_diffrn_measurement_device_type  'Bruker APEX-II CCD'
_diffrn_measurement_method       '\f and \w scans'
_diffrn_radiation_type           CuK\a
_diffrn_radiation_wavelength     1.54178
_diffrn_reflns_av_R_equivalents  0.0672
_diffrn_reflns_av_unetI/netI     0.0427
_diffrn_reflns_Laue_measured_fraction_full 0.997
_diffrn_reflns_Laue_measured_fraction_max 0.990
_diffrn_reflns_limit_h_max       10
_diffrn_reflns_limit_h_min       -10
_diffrn_reflns_limit_k_max       11
_diffrn_reflns_limit_k_min       -11
_diffrn_reflns_limit_l_max       15
_diffrn_reflns_limit_l_min       -15
_diffrn_reflns_number            20086
_diffrn_reflns_point_group_measured_fraction_full 0.997
_diffrn_reflns_point_group_measured_fraction_max 0.990
_diffrn_reflns_theta_full        67.679
_diffrn_reflns_theta_max         72.569
_diffrn_reflns_theta_min         3.768
_diffrn_source_current           1.1
_diffrn_source_power             0.055
_diffrn_source_voltage           50.0
_diffrn_standards_number         0
_exptl_absorpt_coefficient_mu    4.585
_exptl_absorpt_correction_T_max  0.7536
_exptl_absorpt_correction_T_min  0.2359
_exptl_absorpt_correction_type   multi-scan
_exptl_crystal_colour            colourless
_exptl_crystal_colour_primary    colourless
_exptl_crystal_density_diffrn    1.445
_exptl_crystal_description       block
_exptl_crystal_F_000             356
_exptl_crystal_size_max          0.26
_exptl_crystal_size_mid          0.25
_exptl_crystal_size_min          0.22
_refine_diff_density_max         0.808
_refine_diff_density_min         -1.245
_refine_diff_density_rms         0.328
_refine_ls_extinction_method     none
_refine_ls_goodness_of_fit_ref   1.119
_refine_ls_hydrogen_treatment    constr
_refine_ls_matrix_type           full
_refine_ls_number_parameters     199
_refine_ls_number_reflns         3126
_refine_ls_number_restraints     0
_refine_ls_restrained_S_all      1.119
_refine_ls_R_factor_all          0.0984
_refine_ls_R_factor_gt           0.0953
_refine_ls_shift/su_max          0.000
_refine_ls_shift/su_mean         0.000
_refine_ls_structure_factor_coef Fsqd
_refine_ls_weighting_details
'w=1/[\s^2^(Fo^2^)+(0.1729P)^2^+0.2279P] where P=(Fo^2^+2Fc^2^)/3'
_refine_ls_weighting_scheme      calc
_refine_ls_wR_factor_gt          0.2294
_refine_ls_wR_factor_ref         0.2356
_reflns_Friedel_coverage         0.000
_reflns_number_gt                2825
_reflns_number_total             3126
_reflns_threshold_expression     'I > 2\s(I)'
_iucr_refine_instructions_details
;
TITL 20210428WUZHIBING_0m_a.res in P-1
    20210428wuzhibing_0m.res
    created by SHELXL-2018/3 at 21:31:59 on 07-May-2021
CELL 1.54178 8.1736 8.9413 12.3309 105.112 93.31 111.564
ZERR 2 0.0004 0.0004 0.0006 0.002 0.002 0.002
LATT 1
SFAC C H Cl N O S
UNIT 32 22 2 4 2 4

L.S. 4
PLAN  1 0 0
SIZE 0.26 0.25 0.22
TEMP 0
CONF
LIST 6
HTAB
BOND $H
MORE -1
fmap 2
acta
REM <olex2.extras>
REM <HklSrc "%.\\20210428WUZHIBING_0m.hkl">
REM </olex2.extras>

WGHT    0.172900    0.227900
FVAR       1.84072
CL1   3    0.708774    1.129722    0.951894    11.00000    0.10123    0.05892 =
         0.08953   -0.01002    0.03627    0.02810
S1    6    0.723689    0.366339    0.675584    11.00000    0.06954    0.05485 =
         0.03202    0.01089    0.01761    0.03273
S2    6    0.735663    0.027441    0.574988    11.00000    0.06567    0.04996 =
         0.03123    0.01401    0.01517    0.02587
O1    5    0.780568   -0.269487    0.441713    11.00000    0.12197    0.06801 =
         0.04810    0.02111    0.01931    0.05498
N1    4    0.754165    0.230624    0.458515    11.00000    0.06750    0.04850 =
         0.03529    0.01268    0.01754    0.02563
N2    4    0.760501    0.089693    0.384499    11.00000    0.06204    0.04846 =
         0.03612    0.01291    0.01782    0.02240
C1    1    0.714318    0.952750    0.854111    11.00000    0.06082    0.04542 =
         0.04243    0.00507    0.01830    0.01733
C2    1    0.875647    0.942442    0.841658    11.00000    0.05235    0.05576 =
         0.05479    0.00866    0.01200    0.01194
AFIX  43
H2    2    0.980476    1.028377    0.885794    11.00000   -1.20000
AFIX   0
C3    1    0.881365    0.803613    0.763148    11.00000    0.05481    0.06546 =
         0.05531    0.01690    0.02145    0.02478
AFIX  43
H3    2    0.990622    0.796213    0.754245    11.00000   -1.20000
AFIX   0
C4    1    0.725190    0.674831    0.697313    11.00000    0.07534    0.04882 =
         0.03416    0.01392    0.01789    0.02975
C5    1    0.563969    0.688227    0.712362    11.00000    0.06099    0.05235 =
         0.03874    0.00945    0.00394    0.01544
AFIX  43
H5    2    0.458449    0.601977    0.669347    11.00000   -1.20000
AFIX   0
C6    1    0.557237    0.826985    0.789878    11.00000    0.05157    0.05974 =
         0.04668    0.01306    0.01405    0.02380
AFIX  43
H6    2    0.448540    0.835687    0.798737    11.00000   -1.20000
AFIX   0
C7    1    0.732130    0.526875    0.608956    11.00000    0.11257    0.06176 =
         0.03930    0.01483    0.02615    0.04642
AFIX  23
H7A   2    0.841472    0.561842    0.577804    11.00000   -1.20000
H7B   2    0.631809    0.482101    0.547151    11.00000   -1.20000
AFIX   0
C8    1    0.740096    0.213986    0.560533    11.00000    0.04631    0.04613 =
         0.03085    0.01097    0.01187    0.01989
C9    1    0.751283   -0.026093    0.431573    11.00000    0.04468    0.04835 =
         0.03163    0.00985    0.01087    0.01805
C10   1    0.762615   -0.191402    0.378299    11.00000    0.05705    0.05090 =
         0.03522    0.01160    0.01170    0.02360
C11   1    0.757798   -0.254502    0.254481    11.00000    0.04452    0.04482 =
         0.03863    0.00346    0.01151    0.01312
C12   1    0.672723   -0.211398    0.174680    11.00000    0.05622    0.05688 =
         0.03644    0.00834    0.01116    0.01272
AFIX  43
H12   2    0.619035   -0.135720    0.198116    11.00000   -1.20000
AFIX   0
C13   1    0.668047   -0.282220    0.058872    11.00000    0.06908    0.07382 =
         0.03632    0.00928    0.00921    0.00405
AFIX  43
H13   2    0.609921   -0.255272    0.004500    11.00000   -1.20000
AFIX   0
C14   1    0.750906   -0.393280    0.025475    11.00000    0.07704    0.07453 =
         0.04645   -0.01170    0.02480   -0.00029
AFIX  43
H14   2    0.748591   -0.440112   -0.051664    11.00000   -1.20000
AFIX   0
C15   1    0.835999   -0.434720    0.104712    11.00000    0.06920    0.06134 =
         0.07249   -0.01683    0.02866    0.01745
AFIX  43
H15   2    0.892749   -0.507801    0.081436    11.00000   -1.20000
AFIX   0
C16   1    0.837297   -0.368026    0.218691    11.00000    0.05270    0.05466 =
         0.06204   -0.00218    0.01182    0.01926
AFIX  43
H16   2    0.891780   -0.399078    0.272297    11.00000   -1.20000
AFIX   0
HKLF 4




REM  20210428WUZHIBING_0m_a.res in P-1
REM wR2 = 0.2356, GooF = S = 1.119, Restrained GooF = 1.119 for all data
REM R1 = 0.0953 for 2825 Fo > 4sig(Fo) and 0.0984 for all 3126 data
REM 199 parameters refined using 0 restraints

END  
     
WGHT      0.1729      0.2279 

REM No hydrogen bonds found for HTAB generation

REM Highest difference peak  0.808,  deepest hole -1.245,  1-sigma level  0.328
Q1    1   1.0000  0.0000  0.5000  10.50000  0.05    0.81

  REM The information below was added by Olex2.
  REM
  REM R1 = 0.0953 for 2825 Fo > 4sig(Fo) and 0.0984 for all 20086 data
  REM n/a parameters refined using n/a restraints
  REM Highest difference peak 0.81, deepest hole -1.24
  REM Mean Shift 0, Max Shift 0.000.

  REM +++ Tabular Listing of Refinement Information +++
  REM R1_all = 0.0984
  REM R1_gt = 0.0953
  REM wR_ref = 0.2356
  REM GOOF = 1.119
  REM Shift_max = 0.000
  REM Shift_mean = 0
  REM Reflections_all = 20086
  REM Reflections_gt = 2825
  REM Parameters = n/a
  REM Hole = -1.24
  REM Peak = 0.81
  REM Flack = n/a

  
;
_cod_data_source_file            d2nj01709a2.cif
_cod_data_source_block           20210428wuzhibing_0m
_cod_depositor_comments          'Adding full bibliography for 7061444.cif.'
_cod_database_code               7061444
_shelx_shelxl_version_number     2018/3
_shelx_space_group_comment
;
The symmetry employed for this shelxl refinement is uniquely defined
by the following loop, which should always be used as a source of
symmetry information in preference to the above space-group names.
They are only intended as comments.
;
_shelx_estimated_absorpt_t_max   0.432
_shelx_estimated_absorpt_t_min   0.382
_olex2_refinement_description
;
1. Fixed Uiso
 At 1.2 times of:
  All C(H) groups, All C(H,H) groups
2.a Secondary CH2 refined with riding coordinates:
 C7(H7A,H7B)
2.b Aromatic/amide H refined with riding coordinates:
 C2(H2), C3(H3), C5(H5), C6(H6), C12(H12), C13(H13), C14(H14), C15(H15),
 C16(H16)
;
_olex2_submission_special_instructions 'No special instructions were received'
loop_
_space_group_symop_operation_xyz
'x, y, z'
'-x, -y, -z'
loop_
_atom_site_label
_atom_site_type_symbol
_atom_site_fract_x
_atom_site_fract_y
_atom_site_fract_z
_atom_site_U_iso_or_equiv
_atom_site_adp_type
_atom_site_occupancy
_atom_site_site_symmetry_order
_atom_site_calc_flag
_atom_site_refinement_flags_posn
_atom_site_refinement_flags_adp
_atom_site_refinement_flags_occupancy
_atom_site_disorder_assembly
_atom_site_disorder_group
Cl1 Cl 0.70877(17) 1.12972(14) 0.95189(11) 0.0902(5) Uani 1 1 d . . . . .
S1 S 0.72369(11) 0.36634(10) 0.67558(6) 0.0498(3) Uani 1 1 d . . . . .
S2 S 0.73566(10) 0.02744(10) 0.57499(6) 0.0474(3) Uani 1 1 d . . . . .
O1 O 0.7806(5) -0.2695(4) 0.4417(2) 0.0732(8) Uani 1 1 d . . . . .
N1 N 0.7542(4) 0.2306(3) 0.4585(2) 0.0493(6) Uani 1 1 d . . . . .
N2 N 0.7605(4) 0.0897(3) 0.3845(2) 0.0483(6) Uani 1 1 d . . . . .
C1 C 0.7143(5) 0.9528(4) 0.8541(3) 0.0520(7) Uani 1 1 d . . . . .
C2 C 0.8756(4) 0.9424(5) 0.8417(3) 0.0587(8) Uani 1 1 d . . . . .
H2 H 0.980476 1.028377 0.885794 0.070 Uiso 1 1 calc R U . . .
C3 C 0.8814(5) 0.8036(5) 0.7631(3) 0.0580(8) Uani 1 1 d . . . . .
H3 H 0.990622 0.796213 0.754245 0.070 Uiso 1 1 calc R U . . .
C4 C 0.7252(5) 0.6748(4) 0.6973(3) 0.0506(7) Uani 1 1 d . . . . .
C5 C 0.5640(5) 0.6882(4) 0.7124(3) 0.0539(8) Uani 1 1 d . . . . .
H5 H 0.458449 0.601977 0.669347 0.065 Uiso 1 1 calc R U . . .
C6 C 0.5572(4) 0.8270(4) 0.7899(3) 0.0525(7) Uani 1 1 d . . . . .
H6 H 0.448540 0.835687 0.798737 0.063 Uiso 1 1 calc R U . . .
C7 C 0.7321(7) 0.5269(5) 0.6090(3) 0.0672(10) Uani 1 1 d . . . . .
H7A H 0.841472 0.561842 0.577804 0.081 Uiso 1 1 calc R U . . .
H7B H 0.631809 0.482101 0.547151 0.081 Uiso 1 1 calc R U . . .
C8 C 0.7401(4) 0.2140(4) 0.5605(2) 0.0405(6) Uani 1 1 d . . . . .
C9 C 0.7513(4) -0.0261(4) 0.4316(2) 0.0420(6) Uani 1 1 d . . . . .
C10 C 0.7626(4) -0.1914(4) 0.3783(2) 0.0472(7) Uani 1 1 d . . . . .
C11 C 0.7578(4) -0.2545(4) 0.2545(3) 0.0458(7) Uani 1 1 d . . . . .
C12 C 0.6727(4) -0.2114(5) 0.1747(3) 0.0538(8) Uani 1 1 d . . . . .
H12 H 0.619035 -0.135720 0.198116 0.065 Uiso 1 1 calc R U . . .
C13 C 0.6680(5) -0.2822(5) 0.0589(3) 0.0686(11) Uani 1 1 d . . . . .
H13 H 0.609921 -0.255272 0.004500 0.082 Uiso 1 1 calc R U . . .
C14 C 0.7509(6) -0.3933(6) 0.0255(4) 0.0807(14) Uani 1 1 d . . . . .
H14 H 0.748591 -0.440112 -0.051664 0.097 Uiso 1 1 calc R U . . .
C15 C 0.8360(6) -0.4347(5) 0.1047(4) 0.0772(13) Uani 1 1 d . . . . .
H15 H 0.892749 -0.507801 0.081436 0.093 Uiso 1 1 calc R U . . .
C16 C 0.8373(5) -0.3680(5) 0.2187(3) 0.0611(9) Uani 1 1 d . . . . .
H16 H 0.891780 -0.399078 0.272297 0.073 Uiso 1 1 calc R U . . .
loop_
_atom_site_aniso_label
_atom_site_aniso_U_11
_atom_site_aniso_U_22
_atom_site_aniso_U_33
_atom_site_aniso_U_23
_atom_site_aniso_U_13
_atom_site_aniso_U_12
Cl1 0.1012(8) 0.0589(6) 0.0895(8) -0.0100(5) 0.0363(6) 0.0281(6)
S1 0.0695(5) 0.0548(5) 0.0320(4) 0.0109(3) 0.0176(3) 0.0327(4)
S2 0.0657(5) 0.0500(5) 0.0312(4) 0.0140(3) 0.0152(3) 0.0259(4)
O1 0.122(2) 0.0680(16) 0.0481(14) 0.0211(13) 0.0193(14) 0.0550(17)
N1 0.0675(15) 0.0485(14) 0.0353(12) 0.0127(11) 0.0175(11) 0.0256(12)
N2 0.0620(15) 0.0485(14) 0.0361(12) 0.0129(11) 0.0178(10) 0.0224(11)
C1 0.0608(17) 0.0454(16) 0.0424(16) 0.0051(13) 0.0183(13) 0.0173(13)
C2 0.0524(16) 0.0558(19) 0.0548(19) 0.0087(16) 0.0120(14) 0.0119(14)
C3 0.0548(17) 0.065(2) 0.0553(19) 0.0169(16) 0.0214(14) 0.0248(15)
C4 0.0753(19) 0.0488(17) 0.0342(15) 0.0139(13) 0.0179(13) 0.0297(15)
C5 0.0610(17) 0.0524(17) 0.0387(15) 0.0095(13) 0.0039(13) 0.0154(14)
C6 0.0516(16) 0.0597(19) 0.0467(17) 0.0131(14) 0.0140(13) 0.0238(14)
C7 0.113(3) 0.062(2) 0.0393(17) 0.0148(16) 0.0261(18) 0.046(2)
C8 0.0463(13) 0.0461(14) 0.0309(13) 0.0110(11) 0.0119(10) 0.0199(11)
C9 0.0447(13) 0.0484(15) 0.0316(13) 0.0099(12) 0.0109(10) 0.0180(12)
C10 0.0570(16) 0.0509(17) 0.0352(15) 0.0116(13) 0.0117(12) 0.0236(14)
C11 0.0445(14) 0.0448(15) 0.0386(15) 0.0035(12) 0.0115(11) 0.0131(12)
C12 0.0562(16) 0.0569(18) 0.0364(15) 0.0083(14) 0.0112(12) 0.0127(14)
C13 0.069(2) 0.074(2) 0.0363(16) 0.0093(16) 0.0092(14) 0.0041(18)
C14 0.077(2) 0.075(3) 0.046(2) -0.0117(19) 0.0248(19) 0.000(2)
C15 0.069(2) 0.061(2) 0.072(3) -0.017(2) 0.029(2) 0.0175(18)
C16 0.0527(16) 0.0547(18) 0.062(2) -0.0022(16) 0.0118(15) 0.0193(14)
loop_
_atom_type_symbol
_atom_type_description
_atom_type_scat_dispersion_real
_atom_type_scat_dispersion_imag
_atom_type_scat_source
C C 0.0181 0.0091 'International Tables Vol C Tables 4.2.6.8 and 6.1.1.4'
H H 0.0000 0.0000 'International Tables Vol C Tables 4.2.6.8 and 6.1.1.4'
Cl Cl 0.3639 0.7018 'International Tables Vol C Tables 4.2.6.8 and 6.1.1.4'
N N 0.0311 0.0180 'International Tables Vol C Tables 4.2.6.8 and 6.1.1.4'
O O 0.0492 0.0322 'International Tables Vol C Tables 4.2.6.8 and 6.1.1.4'
S S 0.3331 0.5567 'International Tables Vol C Tables 4.2.6.8 and 6.1.1.4'
loop_
_diffrn_refln_index_h
_diffrn_refln_index_k
_diffrn_refln_index_l
_diffrn_refln_intensity_net
_diffrn_refln_intensity_u
-1 0 0 897.51 82.09
-1 0 0 1074.39 82.19
1 0 0 1148.59 81.99
1 0 0 1011.1 82.89
2 0 0 5506.25 504.25
2 0 0 7244.48 505.65
-3 0 0 458.85 40.6
3 0 0 410.96 39.7
3 0 0 492.15 40.9
3 0 0 480.45 39
3 0 0 405.06 40.1
3 0 0 468.85 38.9
3 0 0 413.66 37.7
-4 0 0 8648.33 656.33
-4 0 0 8375.96 655.53
-4 0 0 8005.7 658.03
-4 0 0 8682.53 655.83
4 0 0 8374.36 659.43
4 0 0 7520.45 656.53
4 0 0 7253.27 659.83
4 0 0 9533.35 657.03
-5 0 0 1578.34 132.79
-5 0 0 1558.14 129.69
-5 0 0 1645.64 129.19
-5 0 0 1674.73 129.19
-5 0 0 1517.55 131.69
-5 0 0 1514.75 128.59
5 0 0 1386.16 133.19
5 0 0 1864.11 138.29
-6 0 0 1569.14 142.59
-6 0 0 1506.45 132.09
6 0 0 1850.11 140.69
-7 0 0 842.72 86.99
7 0 0 1177.38 87.99
7 0 0 1029.2 90.49
7 0 0 1088.39 90.49
7 0 0 940.81 81.99
-8 0 0 147.29 15.9
-8 0 0 169.68 18.7
-8 0 0 111.69 16
-9 0 0 11.5 4
-9 0 0 11.8 3.9
9 0 0 9.1 3
9 0 0 5.8 4.1
9 -1 0 10.5 3.9
9 -1 0 8.2 4
-9 1 0 7.9 3.3
-9 1 0 10.7 3.9
-9 1 0 4.1 2.7
8 -1 0 4 4.5
8 -1 0 1.1 2.5
8 -1 0 0.2 8.1
8 -1 0 -6.2 4.2
-8 1 0 0.2 3.5
-8 1 0 3.3 3.7
7 -1 0 152.58 20.8
7 -1 0 167.58 15.4
7 -1 0 124.49 17.4
7 -1 0 151.08 15.4
-7 1 0 128.89 17.7
-7 1 0 119.79 16.9
6 -1 0 131.49 17.7
6 -1 0 99.19 13.4
6 -1 0 129.39 15.2
6 -1 0 133.69 13.8
6 -1 0 144.29 18.3
6 -1 0 126.79 15.7
-6 1 0 125.29 16.1
-6 1 0 130.69 16.2
-6 1 0 116.29 16.7
5 -1 0 1218.48 100.89
5 -1 0 1193.18 101.49
5 -1 0 1141.79 103.99
5 -1 0 1389.16 108.39
5 -1 0 1105.69 102.29
5 -1 0 1153.38 103.49
-5 1 0 1151.08 100.09
-5 1 0 1317.27 100.29
-5 1 0 1296.97 103.99
-5 1 0 1341.97 100.69
4 -1 0 86.39 11.3
4 -1 0 67.49 8.6
4 -1 0 55.19 7.9
4 -1 0 68.79 9.7
4 -1 0 51.09 7.9
-4 1 0 86.29 9.2
-4 1 0 67.19 8.6
-4 1 0 72.19 9.4
-4 1 0 82.39 7.8
3 -1 0 3484.45 298.47
3 -1 0 3919.21 298.87
3 -1 0 3709.33 299.07
3 -1 0 4190.68 299.57
3 -1 0 3531.35 299.87
-3 1 0 3776.62 304.37
2 -1 0 420.86 40.7
2 -1 0 515.65 42.5
2 -1 0 444.06 41
2 -1 0 514.65 40.4
2 -1 0 568.14 42.1
2 -1 0 528.55 41.8
-2 1 0 467.35 41
-2 1 0 577.24 43.3
-2 1 0 546.45 42.7
1 -1 0 1314.17 103.29
1 -1 0 1253.87 102.99
1 -1 0 1456.45 102.79
-1 1 0 1164.58 103.19
-1 1 0 1184.98 102.99
-1 1 0 1418.26 103.39
0 -1 0 2125.39 153.88
0 1 0 1763.82 153.08
-1 -1 0 2026.6 162.38
1 1 0 2074.69 163.88
-2 -1 0 3320.57 247.88
-2 -1 0 3236.28 246.58
-2 -1 0 3166.18 246.28
2 1 0 2706.03 248.68
-3 -1 0 583.64 49.8
-3 -1 0 569.44 47.7
-3 -1 0 619.64 48.2
3 1 0 510.45 50.99
-4 -1 0 3302.37 255.67
-4 -1 0 3094.49 255.67
-4 -1 0 3307.77 256.37
-4 -1 0 3158.68 259.07
4 1 0 3163.08 261.57
-5 -1 0 4 3.1
-5 -1 0 8.7 5.1
-5 -1 0 15.6 4.5
-5 -1 0 0 4
-5 -1 0 2.2 2.3
5 1 0 1 3.6
5 1 0 19 7.8
5 1 0 6 3.4
5 1 0 2.1 4.7
5 1 0 7.2 6.3
5 1 0 5.1 4.6
5 1 0 12 5.5
5 1 0 14.2 6.4
-6 -1 0 416.36 43.7
-6 -1 0 541.35 47.4
-6 -1 0 496.35 47.9
-6 -1 0 432.36 42.4
6 1 0 594.14 42.4
-7 -1 0 2.2 3.8
-7 -1 0 6.1 4.9
7 1 0 -3 5.2
7 1 0 13.1 5.5
-8 -1 0 210.98 22.6
-8 -1 0 180.98 20.4
8 1 0 257.57 23.3
9 -2 0 118.99 16.8
-9 2 0 100.19 13.9
-9 2 0 100.39 12.7
8 -2 0 8.4 5.1
8 -2 0 9.1 6
8 -2 0 8.1 3.3
8 -2 0 5.9 5.5
8 -2 0 2.4 5.2
8 -2 0 4 3.6
-8 2 0 7.7 4.1
-8 2 0 0.9 4.7
7 -2 0 19.1 6.4
7 -2 0 30.7 6.4
7 -2 0 18.4 5.8
7 -2 0 18.7 7.9
7 -2 0 27.2 5.7
7 -2 0 44.4 9.9
7 -2 0 27.4 9.2
-7 2 0 23.4 7
-7 2 0 27.4 7
6 -2 0 61.19 9.8
6 -2 0 40.9 7.4
6 -2 0 33.3 7.6
6 -2 0 56.19 10.3
6 -2 0 49 16.3
6 -2 0 61.89 11.1
6 -2 0 62.89 8.9
6 -2 0 42.6 7.3
-6 2 0 40.7 7.8
-6 2 0 68.19 10.4
-6 2 0 67.59 9.9
5 -2 0 281.27 28.1
5 -2 0 338.27 33.1
5 -2 0 241.58 25.2
5 -2 0 273.07 26.2
-5 2 0 260.97 26.8
4 -2 0 94.49 11.3
4 -2 0 87.89 11.7
4 -2 0 91.79 10.8
4 -2 0 89.19 10.5
4 -2 0 109.89 13.7
4 -2 0 101.99 10.9
-4 2 0 97.19 9
-4 2 0 103.39 10.7
-4 2 0 111.79 17.8
3 -2 0 2076.39 168.68
3 -2 0 2099.79 169.38
3 -2 0 2245.88 171.98
3 -2 0 2377.46 171.08
3 -2 0 2217.48 172.18
-3 2 0 1972.8 169.08
-3 2 0 2027.3 172.58
-3 2 0 2064.89 168.28
2 -2 0 71.89 7.1
2 -2 0 58.09 7.2
2 -2 0 73.59 7.3
2 -2 0 66.69 6.2
-2 2 0 63.49 7.3
-2 2 0 47.4 6.7
1 -2 0 1424.16 111.89
1 -2 0 1577.24 112.09
1 -2 0 1458.65 111.59
1 -2 0 1449.76 111.49
-1 2 0 1330.87 111.99
-1 2 0 1386.26 112.29
-1 2 0 1238.28 111.69
0 -2 0 1201.88 87.59
0 -2 0 1213.28 87.19
0 -2 0 1151.78 87.59
0 2 0 945.61 87.39
0 2 0 914.01 86.99
1 2 0 3488.25 266.37
1 2 0 3167.78 266.47
-2 -2 0 34.9 4.7
-2 -2 0 34.6 5.7
-2 -2 0 33.2 4.6
2 2 0 29.2 4
2 2 0 51.19 9.4
2 2 0 26.6 8.4
-3 -2 0 1222.68 96.79
-3 -2 0 1300.97 96.59
-3 -2 0 1180.58 96.69
-3 -2 0 1196.78 99.29
3 2 0 1020.1 95.89
-4 -2 0 3 2.9
-4 -2 0 0.3 4.3
-4 -2 0 8.7 3.9
-4 -2 0 10.9 5.4
-4 -2 0 5.5 3.1
-4 -2 0 6.3 4
-4 -2 0 1.8 8.9
4 2 0 0.2 5
4 2 0 2.9 5.7
4 2 0 9.2 6.3
-5 -2 0 12.6 5.3
-5 -2 0 2.2 3
-5 -2 0 8.9 4.1
5 2 0 9.3 5.7
5 2 0 6.6 6.9
-6 -2 0 1.7 2.9
-6 -2 0 1.4 5.2
-6 -2 0 -6.7 3.9
-6 -2 0 1 3.6
6 2 0 2.9 5.5
6 2 0 -7.6 6.6
-7 -2 0 29.1 8.1
-7 -2 0 38.5 8.2
7 2 0 46.1 8.9
7 2 0 50.49 8.6
8 2 0 36.4 6.9
8 2 0 48.9 10.3
10 -3 0 3.7 3.1
-10 3 0 1.2 1.2
9 -3 0 169.48 17.9
9 -3 0 160.98 19.7
9 -3 0 145.99 14.1
-9 3 0 112.79 15.4
8 -3 0 40.5 8.8
8 -3 0 65.19 8.8
8 -3 0 73.09 12.3
8 -3 0 73.19 13
8 -3 0 50.59 8.6
8 -3 0 69.29 12.6
-8 3 0 73.39 14.9
-8 3 0 49.4 10.5
7 -3 0 267.37 30.2
7 -3 0 193.18 24.5
7 -3 0 220.08 24.3
7 -3 0 233.68 23.4
7 -3 0 240.78 29.4
7 -3 0 232.18 28.6
7 -3 0 279.67 27.4
-7 3 0 268.27 28.9
-7 3 0 290.07 26.5
6 -3 0 45.9 9.8
6 -3 0 40.2 7.9
6 -3 0 45.8 13.5
6 -3 0 41.6 8
6 -3 0 59.79 9.8
6 -3 0 43.3 7.7
-6 3 0 59.79 11
-6 3 0 73.59 13.5
-6 3 0 63.09 9.2
-6 3 0 62.29 13.2
5 -3 0 1076.69 89.39
5 -3 0 1020.4 86.19
5 -3 0 1139.49 88.49
5 -3 0 1010.9 87.69
5 -3 0 950.6 86.39
4 -3 0 114.69 12.6
4 -3 0 109.09 11.7
4 -3 0 97.19 9.1
4 -3 0 130.19 11.9
4 -3 0 97.89 10.2
4 -3 0 102.79 11.8
4 -3 0 83.89 14
-4 3 0 85.09 12.7
-4 3 0 114.89 15.4
3 -3 0 2679.73 213.98
3 -3 0 2857.01 215.48
3 -3 0 2717.13 215.78
3 -3 0 2986.3 214.88
-3 3 0 2227.08 215.68
2 -3 0 31 3.9
2 -3 0 36.1 4.7
2 -3 0 34.4 4.2
2 -3 0 33 3.4
2 -3 0 38.4 5.1
-2 3 0 24.7 2.9
-2 3 0 26.6 4.4
-2 3 0 27.5 5.2
-2 3 0 43.6 6
1 -3 0 2870.91 229.38
1 -3 0 2857.91 229.48
1 -3 0 2853.81 235.28
1 -3 0 2968.8 229.28
1 -3 0 2924.01 229.08
0 -3 0 1121.79 84.79
0 -3 0 965.2 86.49
0 -3 0 1118.79 85.69
0 -3 0 1042.6 86.09
0 3 0 1019.2 85.89
-1 -3 0 2437.16 186.68
-1 -3 0 2050.79 186.48
-1 -3 0 2522.95 185.28
-1 -3 0 2578.54 185.18
1 3 0 2014.2 185.28
-2 -3 0 4494.35 330.57
-2 -3 0 4187.58 330.67
-2 -3 0 3746.33 332.97
-2 -3 0 4218.28 333.27
-2 -3 0 3944.81 330.57
2 3 0 4370.56 328.67
-3 -3 0 404.46 37.6
-3 -3 0 424.36 38
-3 -3 0 431.36 37.8
-3 -3 0 446.86 38.3
-3 -3 0 447.16 41.6
-3 -3 0 408.36 39.6
-4 -3 0 890.11 87.99
-4 -3 0 925.21 91.99
-4 -3 0 1150.88 88.39
-4 -3 0 1061.59 87.89
-4 -3 0 1126.09 89.39
-4 -3 0 1202.78 92.09
-5 -3 0 36.7 9.3
-5 -3 0 35.4 7.4
-5 -3 0 47.1 8.2
-5 -3 0 38.7 10.2
-5 -3 0 48.5 8.4
-5 -3 0 35.9 7.7
5 3 0 68.79 13.1
5 3 0 47.7 9.8
5 3 0 48.2 13.1
5 3 0 68.79 11.8
-6 -3 0 98.59 16
-6 -3 0 97.59 11.6
-6 -3 0 124.89 15.9
6 3 0 119.79 18.6
6 3 0 131.69 15.7
-7 -3 0 44.9 7.7
-7 -3 0 39.2 8.2
7 3 0 35.7 7.2
7 3 0 44.4 7.9
7 3 0 57.39 12.8
-10 4 0 13 3.9
9 -4 0 13.4 3.5
9 -4 0 18 5.6
9 -4 0 12.5 4.2
-9 4 0 16.3 5.8
-9 4 0 11.7 4.2
8 -4 0 139.79 16.2
8 -4 0 137.29 15.5
8 -4 0 146.69 18.5
8 -4 0 148.39 17.5
-8 4 0 149.39 16.9
7 -4 0 116.29 18.4
7 -4 0 112.89 14.8
7 -4 0 149.88 18.3
7 -4 0 157.18 17.5
7 -4 0 128.39 16.6
7 -4 0 117.19 15.5
-7 4 0 151.88 18.8
-7 4 0 134.99 21.8
-7 4 0 153.28 16.6
6 -4 0 145.19 17.6
6 -4 0 170.48 20.3
6 -4 0 150.58 18.8
6 -4 0 180.68 19.2
6 -4 0 167.68 21.8
6 -4 0 177.88 18.7
-6 4 0 183.58 18.6
-6 4 0 209.48 23.9
-6 4 0 186.58 25
5 -4 0 219.58 23.6
5 -4 0 203.08 21.9
5 -4 0 211.98 21.9
5 -4 0 212.28 20
5 -4 0 205.48 22.4
-5 4 0 221.68 21.3
-5 4 0 250.47 28
4 -4 0 349.47 30.7
4 -4 0 355.36 31.3
4 -4 0 377.06 31.9
4 -4 0 328.27 32.1
4 -4 0 357.36 33.3
-4 4 0 335.77 38.2
3 -4 0 -1.2 1.3
3 -4 0 -0.5 1.8
3 -4 0 6.6 2.3
-3 4 0 2.5 3.1
-3 4 0 1.3 1.9
2 -4 0 553.64 46.4
2 -4 0 561.34 47.3
2 -4 0 624.44 49.3
2 -4 0 485.65 46.8
2 -4 0 603.84 47.4
-2 4 0 602.94 52.29
1 -4 0 39.8 4.9
1 -4 0 30.5 3.5
1 -4 0 43.3 4.8
1 -4 0 32.5 4.8
1 -4 0 35 4.9
1 -4 0 37.1 5.7
-1 4 0 43 6.3
-1 4 0 37.8 7.2
0 -4 0 13 4.1
0 -4 0 18.5 3.4
0 -4 0 16 3.8
0 -4 0 19.2 4.1
0 -4 0 25.1 3.8
0 4 0 20.1 3.9
-1 -4 0 427.16 34.1
-1 -4 0 344.37 36.2
-1 -4 0 377.66 34.2
-1 -4 0 421.06 34.5
-1 -4 0 390.46 36.2
-2 -4 0 3.3 2.4
-2 -4 0 10.8 5.2
-2 -4 0 7 4.5
-2 -4 0 6 3.2
-2 -4 0 1.4 3.2
-2 -4 0 14.8 5.2
2 4 0 14.4 9.4
2 4 0 -1.1 4.3
-3 -4 0 130.99 14.6
-3 -4 0 123.99 14.8
-3 -4 0 110.79 14.3
-3 -4 0 123.49 16.3
-3 -4 0 129.69 13.9
-3 -4 0 111.89 17.2
3 4 0 125.19 16.6
-4 -4 0 11 4.2
-4 -4 0 11.3 5.7
-4 -4 0 4.7 3.8
-4 -4 0 1.1 3.9
-4 -4 0 7 8.5
-4 -4 0 8 3.6
-4 -4 0 0.8 2.5
4 4 0 11.2 12.4
4 4 0 6 6.5
4 4 0 14.4 6.3
4 4 0 4.6 6.6
4 4 0 4.8 8.9
-5 -4 0 57.79 11.3
-5 -4 0 51.99 8.4
-5 -4 0 63.09 12.3
5 4 0 63.49 11.1
5 4 0 76.69 12.1
5 4 0 55.79 12.6
-6 -4 0 7.4 4.1
-6 -4 0 11.9 5.7
-6 -4 0 5.2 2.9
6 4 0 5.2 5.8
6 4 0 11.2 8.5
6 4 0 16.3 5.5
-7 -4 0 14.9 3.6
7 4 0 7.1 3.1
-10 5 0 21.9 6
-10 5 0 19.6 3.7
9 -5 0 69.69 8.7
9 -5 0 61.39 11.5
9 -5 0 64.09 11.1
-9 5 0 51.99 8.5
-9 5 0 54.99 11.6
8 -5 0 263.27 26.2
8 -5 0 185.98 23.7
8 -5 0 203.58 23.2
8 -5 0 268.37 26.4
8 -5 0 230.08 22.5
8 -5 0 206.98 27.3
-8 5 0 267.57 24.2
-8 5 0 220.38 24.4
-8 5 0 219.08 31.8
7 -5 0 98.29 14.9
7 -5 0 148.39 16.6
7 -5 0 109.39 18.6
7 -5 0 111.99 14.2
7 -5 0 115.49 16
-7 5 0 136.49 15.1
-7 5 0 96.59 16.9
6 -5 0 658.43 66.99
6 -5 0 759.02 61.29
6 -5 0 749.82 64.99
6 -5 0 696.73 63.49
6 -5 0 788.02 66.39
6 -5 0 589.24 62.59
-6 5 0 838.72 72.49
5 -5 0 142.69 16.9
5 -5 0 165.58 21.2
5 -5 0 167.18 19.2
5 -5 0 158.88 18
-5 5 0 185.48 26.6
-5 5 0 188.98 22.4
-5 5 0 161.08 17.2
-5 5 0 200.68 20.2
4 -5 0 2124.39 178.08
4 -5 0 2171.08 180.18
4 -5 0 2286.67 179.18
4 -5 0 2192.58 181.68
4 -5 0 2279.77 178.58
-4 5 0 2067.99 189.68
-4 5 0 2376.66 182.18
3 -5 0 1213.48 101.89
3 -5 0 1303.77 102.49
3 -5 0 1244.38 104.79
3 -5 0 1191.18 101.99
3 -5 0 1255.37 103.79
-3 5 0 1307.77 105.39
-3 5 0 1259.47 112.19
2 -5 0 786.32 62.99
2 -5 0 751.12 65.19
2 -5 0 736.03 62.89
2 -5 0 727.53 61.89
2 -5 0 736.93 62.39
-2 5 0 853.71 65.19
-2 5 0 706.93 67.49
1 -5 0 1882.41 156.58
1 -5 0 2018.2 156.08
1 -5 0 1944.81 155.58
1 -5 0 1906.41 156.18
1 -5 0 1914.51 158.58
1 -5 0 2080.49 155.78
-1 5 0 1830.02 158.98
0 -5 0 742.33 58.99
0 -5 0 706.13 59.29
0 -5 0 660.33 61.39
0 -5 0 729.53 59.09
0 -5 0 785.62 58.79
0 5 0 582.24 59.39
-1 -5 0 467.05 40.2
-1 -5 0 440.36 42.6
-1 -5 0 459.85 40.1
-1 -5 0 511.85 40.5
-1 -5 0 398.96 42.4
-1 -5 0 494.85 39.6
1 5 0 364.46 41.4
-2 -5 0 174.88 19.4
-2 -5 0 185.08 19.8
-2 -5 0 204.98 19.7
-2 -5 0 189.78 21.8
-2 -5 0 213.18 19.5
-2 -5 0 190.48 20.1
2 5 0 140.29 21.1
2 5 0 206.78 31
2 5 0 157.88 31.3
-3 -5 0 37.2 9.3
-3 -5 0 49.8 8.6
-3 -5 0 35.2 7.6
-3 -5 0 58.59 8.6
-3 -5 0 49 8.5
-3 -5 0 34.2 6.9
3 5 0 86.19 23.3
3 5 0 43.3 10.9
-4 -5 0 11.4 5.4
-4 -5 0 -10.8 11
-4 -5 0 11 6.2
-4 -5 0 8.5 7.2
-4 -5 0 8.4 7.4
4 5 0 14.6 11
-5 -5 0 3.5 3.4
-5 -5 0 -3.2 8.3
-5 -5 0 -0.4 2.2
-5 -5 0 0.9 2.5
5 5 0 -2.2 3.3
5 5 0 0.5 2.9
5 5 0 13.6 7.4
-6 -5 0 0.9 2.1
6 5 0 -0.9 2.5
6 5 0 -0.1 2.1
9 -6 0 68.89 10.8
9 -6 0 79.89 11.4
9 -6 0 103.49 15.9
9 -6 0 103.39 10.1
-9 6 0 73.59 10
-9 6 0 88.39 14.6
8 -6 0 96.79 15.2
8 -6 0 140.89 26.4
8 -6 0 134.19 14.4
8 -6 0 120.09 16.2
8 -6 0 110.89 16.2
-8 6 0 99.99 21.1
-8 6 0 151.28 16.5
7 -6 0 664.23 55.19
7 -6 0 567.94 56.59
7 -6 0 557.44 55.39
7 -6 0 728.83 63.79
-7 6 0 543.55 68.19
-7 6 0 690.33 64.49
6 -6 0 18 6
6 -6 0 24.4 7.5
6 -6 0 21.8 6.4
6 -6 0 12.2 7.2
6 -6 0 24.5 6.8
6 -6 0 23.7 7.1
6 -6 0 24.4 7.8
-6 6 0 25.1 12.2
-6 6 0 28.1 11.7
-6 6 0 21.3 12.9
-6 6 0 25.1 6.4
-6 6 0 26.1 9
-6 6 0 41.8 8.8
5 -6 0 2216.18 190.68
5 -6 0 2538.55 194.18
5 -6 0 2353.76 192.38
5 -6 0 2361.96 191.48
5 -6 0 2127.59 190.68
-5 6 0 2195.08 206.58
-5 6 0 2438.66 190.38
-5 6 0 2370.96 206.58
-5 6 0 2647.24 200.78
4 -6 0 91.29 10.7
4 -6 0 72.59 12.7
4 -6 0 90.79 12.2
4 -6 0 65.69 11.1
4 -6 0 80.69 10.9
4 -6 0 76.59 9.8
4 -6 0 64.19 12.9
-4 6 0 67.09 15.5
-4 6 0 85.79 15.8
-4 6 0 71.99 12.5
-4 6 0 83.59 16.1
-4 6 0 70.89 9.8
-4 6 0 80.69 13.5
-4 6 0 67.59 16
3 -6 0 1682.93 131.79
3 -6 0 1457.45 128.29
3 -6 0 1679.93 128.09
3 -6 0 1794.32 129.09
3 -6 0 1370.36 133.89
3 -6 0 1618.04 128.39
3 -6 0 1681.63 130.79
-3 6 0 1423.96 134.79
-3 6 0 1545.95 127.69
-3 6 0 1442.66 136.59
2 -6 0 153.88 19.7
2 -6 0 175.18 25.9
2 -6 0 153.28 17
2 -6 0 178.98 17.7
2 -6 0 188.38 17.1
2 -6 0 185.08 17.1
-2 6 0 175.08 17.3
-2 6 0 135.09 19.7
1 -6 0 619.14 52.09
1 -6 0 659.53 51.39
1 -6 0 600.64 57.29
1 -6 0 567.54 54.79
1 -6 0 560.14 62.79
-1 6 0 577.54 54.79
-1 6 0 588.94 52.19
0 -6 0 72.49 9.4
0 -6 0 68.49 12.3
0 -6 0 62.39 9.3
0 -6 0 66.09 9.7
0 -6 0 69.19 9
0 -6 0 64.89 9.2
0 6 0 58.49 15.7
0 6 0 63.09 10.3
-1 -6 0 2 2.5
-1 -6 0 0 2.9
-1 -6 0 13.5 5.6
-1 -6 0 2 3
-1 -6 0 1.3 2.4
1 6 0 4.4 4.2
1 6 0 -3.6 12.6
1 6 0 -1.5 8.7
1 6 0 -0.4 7.1
-2 -6 0 35.2 8.2
-2 -6 0 29.8 6.7
-2 -6 0 28.2 7.3
-2 -6 0 25.9 6.8
-2 -6 0 31.1 7.8
-2 -6 0 32.7 8.5
2 6 0 41 10.8
2 6 0 43 16.3
2 6 0 32.2 12.4
2 6 0 36.8 10.3
-3 -6 0 21.1 6.1
-3 -6 0 21.2 7.2
-3 -6 0 9.8 6.4
3 6 0 29.1 10.2
3 6 0 30.2 13.2
3 6 0 30.3 9.3
-4 -6 0 -1.1 4.3
-4 -6 0 8.1 4.6
-4 -6 0 7.2 3.2
-4 -6 0 3.2 2.4
4 6 0 8.7 4.3
4 6 0 15.3 6.6
-5 -6 0 4.9 3
5 6 0 5.3 3.6
9 -7 0 4.2 2.3
9 -7 0 7.9 2.3
9 -7 0 8.1 3.1
-9 7 0 5.1 3.4
-9 7 0 0.5 2.2
-9 7 0 -3.6 3.7
8 -7 0 19.7 6.4
8 -7 0 18.4 5.4
8 -7 0 27.5 6.8
-8 7 0 17 6.2
-8 7 0 30.5 9.8
7 -7 0 52.09 8.5
7 -7 0 44.9 9.2
7 -7 0 41.4 8.3
7 -7 0 27.5 8.7
7 -7 0 31.9 7.5
-7 7 0 56.59 9.6
-7 7 0 52.49 14.9
-7 7 0 39.7 14.9
-7 7 0 52.99 8.4
6 -7 0 45.4 10.2
6 -7 0 35.5 8
6 -7 0 25.5 10.4
6 -7 0 50.29 9.1
6 -7 0 36.9 8.5
-6 7 0 46.8 18
-6 7 0 50.79 15
-6 7 0 45.7 14.2
5 -7 0 366.06 34.2
5 -7 0 317.87 32.3
5 -7 0 341.77 34.3
5 -7 0 325.87 31.1
5 -7 0 333.07 31.6
-5 7 0 294.37 44.2
-5 7 0 344.77 35.9
-5 7 0 250.47 39.7
4 -7 0 3 3.1
4 -7 0 1 2.3
4 -7 0 2 2.5
4 -7 0 -2.4 3.4
4 -7 0 6.5 4.8
-4 7 0 4 4.8
-4 7 0 4.5 5.7
-4 7 0 0.9 5.2
-4 7 0 2.2 3.1
-4 7 0 3.4 4.8
-4 7 0 -0.7 4.8
3 -7 0 6.2 4.2
3 -7 0 7.8 3.4
3 -7 0 6.1 3.2
3 -7 0 13.2 5.8
3 -7 0 6.5 3
3 -7 0 14.6 5.3
-3 7 0 8.8 8.5
-3 7 0 14 9.3
-3 7 0 6 6.1
-3 7 0 8.9 6.9
2 -7 0 3.3 2.7
2 -7 0 8.6 3.9
2 -7 0 7.3 3
2 -7 0 3.5 2.9
2 -7 0 10.4 5.2
2 -7 0 5.1 4.2
2 -7 0 -0.5 2.9
-2 7 0 15.5 7.8
-2 7 0 3.1 8.5
-2 7 0 1.8 5.8
-2 7 0 9.8 5.5
1 -7 0 124.09 14
1 -7 0 124.09 14.6
1 -7 0 125.49 14.2
1 -7 0 97.79 15.3
1 -7 0 125.39 14
1 -7 0 105.29 13.7
-1 7 0 126.89 15.4
-1 7 0 99.19 22.8
0 -7 0 73.39 13.3
0 -7 0 72.79 10.5
0 -7 0 72.59 10.1
0 -7 0 63.49 10.5
0 -7 0 66.79 10.6
0 7 0 77.09 17.8
0 7 0 70.79 20.6
0 7 0 69.19 12.8
-1 -7 0 281.77 26.1
-1 -7 0 303.47 27.7
-1 -7 0 274.27 29.8
-1 -7 0 267.97 27.5
-1 -7 0 223.98 25.1
-1 -7 0 266.67 27.4
1 7 0 210.28 29.2
-2 -7 0 68.79 13.1
-2 -7 0 83.99 10.4
-2 -7 0 71.79 10.4
-2 -7 0 69.19 10.7
2 7 0 58.39 12.9
2 7 0 95.49 15.2
-3 -7 0 0.7 3.8
-3 -7 0 1.5 2.6
-3 -7 0 -4.8 2.8
-3 -7 0 0.6 1.9
3 7 0 2.1 3.8
3 7 0 -3.2 3.2
-4 -7 0 1.9 2.3
-4 -7 0 4.1 2.8
4 7 0 2 3.4
4 7 0 2.3 3.1
9 -8 0 27.6 5.5
9 -8 0 43 5.2
-9 8 0 34.1 5.6
8 -8 0 4.3 3.5
8 -8 0 -1.6 5.4
8 -8 0 2.3 2.7
8 -8 0 4.5 2.7
-8 8 0 1.9 4.2
-8 8 0 4.1 2.9
7 -8 0 4 3.1
7 -8 0 8.3 4.1
7 -8 0 11 3.8
7 -8 0 8 5.2
-7 8 0 4.6 8
-7 8 0 4.1 6.6
-7 8 0 9.9 4.6
-7 8 0 10.7 4.9
6 -8 0 2.1 4.8
6 -8 0 -3.1 3.2
6 -8 0 -6.1 3.4
6 -8 0 0.4 2.7
6 -8 0 0.1 2.8
-6 8 0 2.7 3.4
-6 8 0 6.5 4.2
-6 8 0 -0.3 3.8
-6 8 0 -7 5.2
5 -8 0 15 7.1
5 -8 0 17.5 5.3
5 -8 0 6.5 5.2
5 -8 0 21.5 7.6
5 -8 0 12.7 4.3
5 -8 0 15.7 9.3
-5 8 0 19 16.6
-5 8 0 9.8 6.4
-5 8 0 24.6 11.7
-5 8 0 31.9 10.6
-5 8 0 42.8 12.7
4 -8 0 144.49 18.1
4 -8 0 130.19 16.3
4 -8 0 133.29 15.8
4 -8 0 124.09 15.4
4 -8 0 141.39 17.3
-4 8 0 155.08 16.5
3 -8 0 127.09 13.6
3 -8 0 113.59 15.3
3 -8 0 95.29 13.7
3 -8 0 91.29 14.4
-3 8 0 96.29 16.3
-3 8 0 69.49 19.1
-3 8 0 108.89 13.6
2 -8 0 480.65 46
2 -8 0 543.05 48.9
2 -8 0 530.35 45.5
2 -8 0 486.05 46.2
2 -8 0 493.15 45.2
-2 8 0 505.65 46.4
1 -8 0 0.1 2.5
1 -8 0 -1.8 8.3
1 -8 0 -0.6 3.7
1 -8 0 4.2 2.5
-1 8 0 2.1 6.8
-1 8 0 -5.4 5.7
0 -8 0 110.69 17.3
0 -8 0 125.29 14.8
0 -8 0 118.89 15.3
0 8 0 111.99 17.5
0 8 0 136.39 27.5
0 8 0 155.58 22.9
-1 -8 0 9.9 3.5
-1 -8 0 9.7 4
-1 -8 0 10.9 4.3
-1 -8 0 10.7 5.5
1 8 0 27.7 10.3
1 8 0 30.3 13.6
1 8 0 24.8 6.7
-2 -8 0 137.89 17.7
-2 -8 0 165.98 15.7
-3 -8 0 36.5 6.7
-3 -8 0 57.59 5.6
3 8 0 41.8 8.5
8 -9 0 53.49 6
8 -9 0 38.8 6.3
-8 9 0 45.9 6.9
7 -9 0 7.7 5
7 -9 0 18 4.2
7 -9 0 19.9 4.5
-7 9 0 30.9 7.3
-7 9 0 6.6 5.6
6 -9 0 301.67 29.5
6 -9 0 301.37 27.7
5 -9 0 127.59 21.8
5 -9 0 138.99 15.3
5 -9 0 135.79 16.5
5 -9 0 104.99 15.9
4 -9 0 75.89 13
4 -9 0 82.09 12.2
4 -9 0 120.09 12.9
4 -9 0 112.19 15.4
-4 9 0 74.49 13.9
3 -9 0 249.38 24
3 -9 0 256.07 26.4
3 -9 0 268.67 24.8
3 -9 0 238.78 22.7
3 -9 0 179.08 23.4
-3 9 0 161.68 34.1
2 -9 0 39.1 6.6
2 -9 0 10.5 6.6
2 -9 0 20.1 8.2
2 -9 0 32.9 7
2 -9 0 21.1 5.8
-2 9 0 28.9 10.1
-2 9 0 35.6 14.9
-2 9 0 23.7 11.6
1 -9 0 313.97 39.4
1 -9 0 347.37 32.2
1 -9 0 311.77 32.8
1 -9 0 351.66 32.3
-1 9 0 392.26 43.8
-1 9 0 404.16 45.3
0 -9 0 0.5 3.5
0 -9 0 0.7 2.1
0 -9 0 8.1 5
0 -9 0 0.5 2.6
0 9 0 2 3.7
0 9 0 8.4 6.1
-1 -9 0 124.39 12.6
6 -10 0 1.1 2.4
6 -10 0 -5.7 5.7
-6 10 0 4 3.8
-6 10 0 -5.8 4.2
-6 10 0 3 3.6
5 -10 0 -0.7 2.3
5 -10 0 0.9 4.1
5 -10 0 4.5 2.6
5 -10 0 -6.5 4.2
-5 10 0 3.3 5.3
-5 10 0 -5 3.2
-5 10 0 2.9 4.5
4 -10 0 23 5
4 -10 0 8.8 6.1
4 -10 0 18.1 5.8
4 -10 0 20.8 6.2
-4 10 0 21 11.1
-4 10 0 25.5 10
3 -10 0 37.8 6.4
3 -10 0 23 8.1
3 -10 0 38.4 7.2
-3 10 0 23.9 8.8
-3 10 0 53.69 14.3
2 -10 0 46.3 6.6
-2 10 0 57.49 14.1
-2 10 0 50.39 9.1
1 -10 0 76.59 8.5
1 -10 0 80.89 12
1 -10 0 61.39 8.6
-1 10 -1 28.9 9.6
1 -10 1 36.7 6
-2 10 -1 2.3 4.5
-2 10 -1 2.6 5
-2 10 -1 -2.2 4.1
2 -10 1 5 4.7
2 -10 1 -0.8 6.3
2 -10 1 -0.5 2.5
2 -10 1 6.1 2.9
-3 10 -1 44.9 12.4
3 -10 1 70.19 9
3 -10 1 54.99 9.1
-4 10 -1 6 7.4
-4 10 -1 2.7 5.1
-4 10 -1 1.3 3.7
4 -10 1 4.3 2.8
4 -10 1 5.9 4.1
4 -10 1 -1.2 8.8
4 -10 1 5.8 3.2
5 -10 1 45.2 9.2
5 -10 1 56.89 7.6
-6 10 -1 2.2 3.7
-6 10 -1 -1.8 3.6
-6 10 -1 -1 3.8
6 -10 1 0.3 1.6
6 -10 1 1.5 2
7 -10 1 10.4 3.6
7 -10 1 15 3.1
1 9 -1 2.2 6.4
-1 -9 1 2.8 2.3
-1 -9 1 4.2 2.2
-1 -9 1 8.3 5.4
0 9 -1 388.86 38
0 -9 1 307.87 33.2
0 -9 1 350.46 32.2
-1 9 -1 45.6 11.7
-1 9 -1 34.2 11.5
-1 9 -1 41.1 12.6
1 -9 1 14.3 8.9
1 -9 1 24.7 6
1 -9 1 36.1 7.2
1 -9 1 32.4 11.2
1 -9 1 19.6 5.9
-2 9 -1 172.18 23.3
-2 9 -1 185.48 30.5
2 -9 1 139.49 17.8
2 -9 1 163.48 18.5
2 -9 1 157.58 20
2 -9 1 146.69 17
-3 9 -1 5.1 5.2
-3 9 -1 9.4 9
-3 9 -1 16.9 6.7
-3 9 -1 13.3 9.5
3 -9 1 15.4 6.2
3 -9 1 12.7 4.6
3 -9 1 18.3 4.9
3 -9 1 14.8 5.2
3 -9 1 9.2 6.4
-4 9 -1 124.69 24.8
-4 9 -1 106.49 20.2
-4 9 -1 71.59 14.3
4 -9 1 105.09 13.3
4 -9 1 98.49 12.6
4 -9 1 89.59 13.2
4 -9 1 99.49 14
-5 9 -1 102.39 20.1
5 -9 1 173.68 16.1
5 -9 1 105.99 15.3
5 -9 1 171.48 16.6
5 -9 1 156.68 21.3
5 -9 1 110.99 21
-6 9 -1 18.3 9.5
-6 9 -1 27.3 9.7
6 -9 1 32.7 6.4
6 -9 1 26.9 6.1
6 -9 1 23.1 5.5
6 -9 1 37.8 6.5
-7 9 -1 128.29 22.6
-7 9 -1 171.78 18.5
7 -9 1 155.58 15.3
7 -9 1 136.59 19.1
7 -9 1 149.88 16.7
7 -9 1 137.59 15.5
-8 9 -1 5.1 3.4
-8 9 -1 11.3 3.8
8 -9 1 3.3 2.1
8 -9 1 -1.3 4.7
8 -9 1 5.8 2.1
3 8 -1 15.3 5.4
-3 -8 1 2.2 2.3
-3 -8 1 6.5 2.2
2 8 -1 1.2 5.4
2 8 -1 13.2 4.8
-2 -8 1 7 3.1
-2 -8 1 4.9 4.3
-2 -8 1 1.6 3.6
-2 -8 1 1.7 2.1
1 8 -1 23.7 12
1 8 -1 10.2 6.5
1 8 -1 7.8 5.9
-1 -8 1 3 3.6
-1 -8 1 12 4.1
-1 -8 1 19.7 6.9
-1 -8 1 13 4
0 8 -1 23.8 7.3
0 8 -1 9.8 10.3
0 8 -1 28.2 9.4
0 -8 1 19 5.4
0 -8 1 18.9 5.7
0 -8 1 25.8 7.7
0 -8 1 24.1 6.1
-1 8 -1 47.1 10.3
-1 8 -1 67.19 15.9
-1 8 -1 59.49 12.8
-1 8 -1 81.09 19.6
1 -8 1 51.59 9.5
1 -8 1 63.29 9.1
1 -8 1 47.8 11.1
1 -8 1 55.99 9.4
1 -8 1 51.19 11.1
-2 8 -1 137.09 22.9
-2 8 -1 125.09 18.1
-2 8 -1 159.88 20.2
2 -8 1 189.48 19.3
2 -8 1 200.98 19.5
2 -8 1 186.38 18.2
2 -8 1 156.98 18.1
2 -8 1 172.08 20.7
-3 8 -1 354.66 41
-3 8 -1 365.66 43.9
-3 8 -1 329.27 36.1
3 -8 1 341.17 38.1
3 -8 1 431.56 38.2
3 -8 1 457.25 40.8
3 -8 1 470.15 37.7
3 -8 1 463.35 38.4
3 -8 1 413.36 36.9
-4 8 -1 325.87 27.8
-4 8 -1 249.68 33
4 -8 1 223.28 27.8
4 -8 1 264.87 27
4 -8 1 245.08 28.1
4 -8 1 322.37 30.5
4 -8 1 311.77 28.5
4 -8 1 283.27 27.2
-5 8 -1 29 14.3
-5 8 -1 33.9 14.2
5 -8 1 43.6 8.4
5 -8 1 33.5 8.9
5 -8 1 46 8
5 -8 1 40 11.7
5 -8 1 35.1 9.2
-6 8 -1 38.1 12.7
-6 8 -1 35 11.1
-6 8 -1 53.39 11.3
6 -8 1 43 8.2
6 -8 1 33.4 7.9
-7 8 -1 13.2 7.7
-7 8 -1 13.9 7.9
-7 8 -1 6.9 6.4
-7 8 -1 -1 7.1
-7 8 -1 10.5 5.6
7 -8 1 4 3.1
7 -8 1 6.8 3.5
7 -8 1 4.5 3.2
7 -8 1 3.6 2.7
-8 8 -1 52.49 13
8 -8 1 44.5 7.1
8 -8 1 53.89 7.4
8 -8 1 35.3 7.6
-9 8 -1 1.3 2.1
-9 8 -1 -0.3 3.3
9 -8 1 -0.4 2.2
9 -8 1 0.4 3
9 -8 1 2.1 1.5
4 7 -1 6.8 4.7
4 7 -1 6.4 2.7
-4 -7 1 4.4 3.1
-4 -7 1 11.8 3
-4 -7 1 3 2.4
3 7 -1 61.09 13.9
3 7 -1 28.7 11.4
-3 -7 1 21.5 6.5
-3 -7 1 29.7 5.5
-3 -7 1 37.8 6.4
-3 -7 1 26.9 6
2 7 -1 119.89 18.3
2 7 -1 168.48 21
-2 -7 1 121.09 17.5
-2 -7 1 123.89 14.9
-2 -7 1 130.69 14.6
-2 -7 1 109.19 14.7
1 7 -1 322.07 34.1
1 7 -1 252.17 31.2
1 7 -1 274.47 39.1
-1 -7 1 272.07 29.4
-1 -7 1 255.07 27
-1 -7 1 217.38 28.8
-1 -7 1 254.37 25.9
-1 -7 1 259.77 25.9
-1 -7 1 276.07 27.8
0 7 -1 871.61 83.89
0 7 -1 1170.88 96.29
0 7 -1 944.31 100.19
0 -7 1 1055.79 82.29
0 -7 1 977 82.59
0 -7 1 1009.5 82.99
0 -7 1 823.42 83.99
0 -7 1 923.11 82.79
-1 7 -1 15.5 7.1
-1 7 -1 39.2 12.8
-1 7 -1 27 11.8
-1 7 -1 34.8 12.6
1 -7 1 23 5.8
1 -7 1 22.5 5.9
1 -7 1 32.7 5.5
1 -7 1 30.6 7.1
1 -7 1 26.2 6.3
-2 7 -1 390.86 40.3
-2 7 -1 406.46 36.1
-2 7 -1 366.56 40.8
2 -7 1 355.36 38.9
2 -7 1 369.56 35.3
2 -7 1 421.76 37
2 -7 1 419.46 36.6
2 -7 1 461.95 36.4
2 -7 1 390.16 36.2
-3 7 -1 -0.4 7
-3 7 -1 2.4 3.6
-3 7 -1 6.7 3.7
-3 7 -1 1.4 7.9
-3 7 -1 4.2 7.4
-3 7 -1 3.2 5.1
-3 7 -1 -3.3 4.6
3 -7 1 3.8 3.6
3 -7 1 3.4 2.4
3 -7 1 -0.9 4.2
3 -7 1 0.8 2.1
3 -7 1 -1.6 2.3
-4 7 -1 644.14 73.59
-4 7 -1 691.33 77.39
4 -7 1 871.01 67.79
4 -7 1 795.12 66.69
4 -7 1 836.42 66.69
4 -7 1 826.62 69.89
4 -7 1 745.43 66.29
-5 7 -1 200.08 30.8
-5 7 -1 237.98 26.8
-5 7 -1 200.78 32.2
-5 7 -1 242.68 24.1
5 -7 1 178.98 21.9
5 -7 1 201.38 21.7
5 -7 1 169.68 21.7
5 -7 1 230.78 23.9
5 -7 1 201.68 21.9
5 -7 1 172.18 24.2
-6 7 -1 615.64 63.49
-6 7 -1 596.34 64.69
-6 7 -1 643.34 58.99
6 -7 1 485.15 47.2
6 -7 1 461.15 51.29
6 -7 1 465.75 48.5
6 -7 1 556.14 50.29
6 -7 1 525.75 48.4
-7 7 -1 102.59 22.5
7 -7 1 119.19 14.8
7 -7 1 162.68 31.7
7 -7 1 106.99 14.9
7 -7 1 98.39 14.6
7 -7 1 100.69 13
7 -7 1 92.19 13.3
-8 7 -1 44.5 8.9
-8 7 -1 40.6 13.8
-8 7 -1 53.99 8.6
-8 7 -1 55.49 10.1
8 -7 1 27.5 6.5
8 -7 1 38.6 7.2
8 -7 1 40.9 8.7
8 -7 1 28.5 7.5
-9 7 -1 13.9 5.8
9 -7 1 12.1 3
9 -7 1 5.9 2.5
5 6 -1 2.5 3.1
5 6 -1 2.2 2.8
-5 -6 1 -1.8 1.8
-5 -6 1 -2 2.5
-4 -6 1 365.66 37.1
-4 -6 1 403.86 34.9
3 6 -1 52.29 18.1
3 6 -1 92.49 31.1
-3 -6 1 28.6 7
-3 -6 1 46.5 7.5
-3 -6 1 33.5 7.8
-3 -6 1 38.4 10.9
2 6 -1 623.24 56.69
2 6 -1 519.95 54.69
-2 -6 1 566.04 51.19
-2 -6 1 595.24 51.49
-2 -6 1 563.74 50.69
-2 -6 1 486.45 49
-2 -6 1 592.24 50.09
-2 -6 1 586.94 53.69
1 6 -1 203.48 26.5
1 6 -1 174.78 32.1
-1 -6 1 179.38 19.2
-1 -6 1 174.38 21.9
-1 -6 1 179.48 18.7
-1 -6 1 177.98 20
-1 -6 1 199.18 19.8
-1 -6 1 179.78 19.7
0 6 -1 906.51 89.79
0 6 -1 801.32 76.79
0 6 -1 794.22 85.09
0 6 -1 1040.7 82.69
0 -6 1 954.7 76.19
0 -6 1 979 76.29
0 -6 1 975.3 76.99
0 -6 1 766.72 77.09
0 -6 1 911.71 78.89
0 -6 1 987.5 75.59
0 -6 1 840.62 79.99
1 -6 1 1067.49 98.89
1 -6 1 1087.39 96.49
1 -6 1 1217.88 96.49
1 -6 1 1244.38 95.49
1 -6 1 1113.59 95.69
1 -6 1 1244.18 95.89
-2 6 -1 756.72 74.49
-2 6 -1 858.01 75.19
-2 6 -1 738.33 69.19
2 -6 1 870.71 69.09
2 -6 1 847.92 73.59
2 -6 1 874.41 69.59
2 -6 1 864.51 70.89
2 -6 1 903.71 70.19
-3 6 -1 1941.61 171.58
-3 6 -1 1818.72 164.78
-3 6 -1 1846.82 165.98
-3 6 -1 1816.72 158.28
3 -6 1 1893.31 159.78
3 -6 1 2107.49 162.58
3 -6 1 2083.19 160.78
3 -6 1 1959.9 157.68
3 -6 1 2128.69 158.48
-4 6 -1 35.3 10.1
-4 6 -1 31.7 10.5
-4 6 -1 43.5 10.3
-4 6 -1 26 10.6
-4 6 -1 40.9 10.3
-4 6 -1 26.3 6
4 -6 1 26.1 6
4 -6 1 49.5 16.4
4 -6 1 49.2 10.6
4 -6 1 33.4 10
4 -6 1 28.6 7.1
-5 6 -1 555.54 56.89
-5 6 -1 600.64 62.69
-5 6 -1 604.34 49.9
-5 6 -1 648.44 54.59
-5 6 -1 666.03 53.59
-5 6 -1 489.25 60.99
-5 6 -1 620.84 56.79
5 -6 1 564.74 51.39
5 -6 1 578.04 52.39
5 -6 1 485.75 49.1
5 -6 1 581.04 50.79
5 -6 1 481.35 49.8
-6 6 -1 7 3.7
-6 6 -1 9.4 5.8
-6 6 -1 11.9 7.9
-6 6 -1 3.2 4.6
-6 6 -1 4.3 6.9
6 -6 1 17.9 8.1
6 -6 1 3.5 4.2
6 -6 1 -6.6 5.2
6 -6 1 6.6 7.3
6 -6 1 4 4.3
6 -6 1 0 4.6
-7 6 -1 335.37 38.8
7 -6 1 330.77 32.6
7 -6 1 342.17 37.5
7 -6 1 297.67 32
7 -6 1 303.17 30.4
-8 6 -1 0.4 5.9
-8 6 -1 9.6 5.3
-8 6 -1 5.5 3.4
-8 6 -1 2.5 4.6
8 -6 1 13.1 4.9
8 -6 1 4.4 4.2
8 -6 1 6.2 3.8
8 -6 1 1.5 2.9
8 -6 1 2.2 5.7
-9 6 -1 98.29 17
-9 6 -1 120.49 12.6
9 -6 1 96.89 12.7
9 -6 1 123.89 12.4
9 -6 1 129.69 14.1
6 5 -1 87.99 12.1
6 5 -1 98.69 10.9
-6 -5 1 74.79 10.5
5 5 -1 5 8.1
5 5 -1 6.5 3.9
5 5 -1 2.2 4.3
-5 -5 1 4.5 3
-5 -5 1 -4.2 3.5
-5 -5 1 -0.1 3.5
-5 -5 1 0.4 1.8
-4 -5 1 287.77 25.9
-4 -5 1 267.17 28.5
-4 -5 1 223.48 24.9
-4 -5 1 272.27 26.7
-4 -5 1 255.57 28.9
3 5 -1 41.6 17.6
-3 -5 1 2 2.7
-3 -5 1 1.9 4.5
-3 -5 1 1.6 2.7
-3 -5 1 5.8 4.9
2 5 -1 473.35 50.19
2 5 -1 529.35 62.79
-2 -5 1 518.95 60.09
-2 -5 1 492.15 44.2
-2 -5 1 503.85 47.1
-2 -5 1 485.55 45
-2 -5 1 530.65 44.2
-2 -5 1 507.25 44.8
-2 -5 1 501.05 45
1 5 -1 214.28 34.9
-1 -5 1 246.98 27.8
-1 -5 1 273.77 25.4
-1 -5 1 269.27 25.2
-1 -5 1 270.17 27.5
-1 -5 1 297.37 25.3
0 -5 1 469.25 36.9
0 -5 1 464.55 37.2
0 -5 1 353.36 38.9
0 -5 1 442.66 37.2
0 -5 1 412.56 37.5
0 -5 1 416.96 38.5
-1 5 -1 1893.71 158.08
1 -5 1 1944.21 154.48
1 -5 1 1868.71 157.88
1 -5 1 1853.41 155.18
1 -5 1 1967.2 154.58
1 -5 1 1914.31 155.28
1 -5 1 2058.99 154.48
-2 5 -1 3.4 2.5
-2 5 -1 2.9 2.8
2 -5 1 1.1 1.5
2 -5 1 3.2 1.8
2 -5 1 2.7 1.8
2 -5 1 3.3 2.1
2 -5 1 2.4 1.5
-3 5 -1 607.14 58.09
-3 5 -1 619.14 52.29
3 -5 1 622.54 50.69
3 -5 1 649.04 51.09
3 -5 1 585.14 50.59
3 -5 1 511.45 60.19
-4 5 -1 143.19 22.1
-4 5 -1 129.19 17.6
-4 5 -1 155.98 21.5
4 -5 1 152.28 15.9
4 -5 1 169.28 15.8
4 -5 1 157.48 17.1
4 -5 1 148.49 18.1
4 -5 1 180.88 16.9
-5 5 -1 -3.1 3.5
-5 5 -1 0.9 2.7
-5 5 -1 4.8 6.1
-5 5 -1 7.9 6.3
-5 5 -1 -3.9 4.1
-5 5 -1 3.9 3.5
5 -5 1 5.5 2.5
5 -5 1 1.3 2.5
5 -5 1 6.1 3.5
5 -5 1 -2.9 4.7
5 -5 1 8.5 5.2
5 -5 1 2 2
5 -5 1 2.7 4.7
-6 5 -1 121.09 19.1
-6 5 -1 84.59 21.9
-6 5 -1 145.99 20.5
-6 5 -1 139.99 15.6
6 -5 1 94.39 13.7
6 -5 1 90.79 13.2
6 -5 1 98.89 13.5
6 -5 1 119.09 14.1
6 -5 1 110.89 17.2
6 -5 1 99.89 14.4
-7 5 -1 7.6 8.4
-7 5 -1 17.8 7.5
-7 5 -1 24.5 8.6
7 -5 1 10.6 4.3
7 -5 1 15.9 5.7
7 -5 1 9.2 5.3
7 -5 1 10.9 8.7
7 -5 1 8.4 5
-8 5 -1 19.6 5.8
-8 5 -1 34.9 12
-8 5 -1 32.1 8.4
8 -5 1 14.7 5.3
8 -5 1 25.6 7.7
8 -5 1 22.7 8.4
8 -5 1 22.1 5.9
-9 5 -1 8.7 4.7
-9 5 -1 6 5.4
9 -5 1 2.1 3.6
9 -5 1 1.8 5.8
9 -5 1 1.1 2.6
9 -5 1 2.8 3.1
-10 5 -1 30.2 5.6
7 4 -1 4.1 4.8
7 4 -1 0.8 2.2
-7 -4 1 3.3 2.6
-6 -4 1 250.17 24.1
-6 -4 1 207.78 24.6
-6 -4 1 205.98 19.9
5 4 -1 24 7.4
5 4 -1 13.1 7.9
-5 -4 1 8.1 4.1
-5 -4 1 23 8.7
-5 -4 1 12.2 7.2
-5 -4 1 11.1 3.6
-5 -4 1 20.7 10.2
-5 -4 1 6.8 7.4
-4 -4 1 1328.07 124.59
-4 -4 1 1445.46 133.79
-4 -4 1 1323.07 131.79
-4 -4 1 1737.33 128.59
-4 -4 1 1706.83 124.99
3 4 -1 480.25 46.6
-3 -4 1 492.15 43.5
-3 -4 1 525.15 43.5
-3 -4 1 526.25 44.7
-3 -4 1 451.85 43.7
-3 -4 1 482.15 48.1
-3 -4 1 500.95 46.2
-2 -4 1 3287.27 251.57
-2 -4 1 3084.89 252.17
-2 -4 1 3033.1 255.07
-2 -4 1 3198.68 252.07
1 4 -1 1140.69 104.19
-1 -4 1 1327.37 107.19
-1 -4 1 1369.36 106.59
-1 -4 1 1196.58 107.39
-1 -4 1 1341.97 105.29
-1 -4 1 1398.86 104.99
0 4 -1 2681.33 226.98
0 -4 1 2692.83 227.68
0 -4 1 3048.5 225.38
0 -4 1 2895.11 226.78
0 -4 1 2861.11 225.48
-1 4 -1 1459.65 137.79
-1 4 -1 1580.74 146.59
1 -4 1 1869.51 138.49
1 -4 1 1742.23 136.49
1 -4 1 1491.55 134.19
1 -4 1 1795.72 136.29
1 -4 1 1829.52 135.79
1 -4 1 1844.92 135.79
-2 4 -1 923.81 69.49
2 -4 1 774.52 66.39
2 -4 1 769.62 68.39
2 -4 1 872.51 69.29
2 -4 1 810.32 67.09
-3 4 -1 2194.98 184.38
3 -4 1 2367.56 184.38
3 -4 1 2324.67 184.88
3 -4 1 2475.45 183.18
3 -4 1 2090.89 183.48
-4 4 -1 133.89 18.6
-4 4 -1 100.89 16.1
4 -4 1 126.19 14.7
4 -4 1 136.19 13.9
4 -4 1 136.69 14.4
4 -4 1 143.89 12.9
4 -4 1 114.39 15.6
-5 4 -1 861.61 68.89
-5 4 -1 975.7 76.49
5 -4 1 800.02 69.09
5 -4 1 793.32 68.79
5 -4 1 718.33 66.29
5 -4 1 764.72 69.09
5 -4 1 824.92 70.89
-6 4 -1 41.4 10.8
-6 4 -1 35.7 9.9
-6 4 -1 49.1 8
-6 4 -1 59.69 10.2
6 -4 1 38.8 9.6
6 -4 1 27.2 9.2
-7 4 -1 235.68 22.7
-7 4 -1 262.07 35.9
-7 4 -1 215.38 23.4
-7 4 -1 139.09 29.2
7 -4 1 203.98 25.7
7 -4 1 183.18 24.7
7 -4 1 204.38 22.4
7 -4 1 178.68 20
7 -4 1 163.48 20.4
7 -4 1 222.58 23.6
7 -4 1 200.08 21.6
-8 4 -1 10.1 10.8
-8 4 -1 12.9 4.9
-8 4 -1 20 8.1
8 -4 1 17.5 5.5
8 -4 1 16.5 4.4
8 -4 1 12.9 5.1
8 -4 1 13.6 5.8
8 -4 1 7.9 6.9
-9 4 -1 9.9 3.9
-9 4 -1 12.5 5.7
9 -4 1 3.3 3.1
9 -4 1 1.1 6.7
9 -4 1 12.4 5.4
-10 4 -1 -1 1.6
-10 4 -1 1.1 1.7
10 -4 1 7.4 3.7
7 3 -1 140.89 15.9
-7 -3 1 121.59 17.9
-7 -3 1 118.39 15.9
6 3 -1 2.1 5.3
6 3 -1 2 3.7
-6 -3 1 -6.4 4
-6 -3 1 2 2.4
-6 -3 1 4.1 3.8
-6 -3 1 1.7 2.6
-6 -3 1 1 5
-5 -3 1 372.76 31.8
-5 -3 1 397.86 35.6
-5 -3 1 326.87 36
-5 -3 1 283.87 31.3
-5 -3 1 310.37 30.9
-5 -3 1 352.66 32.6
4 3 -1 119.29 17.4
4 3 -1 105.09 15.1
-4 -3 1 77.79 11.3
-4 -3 1 88.29 11
-4 -3 1 105.89 13.9
-4 -3 1 75.09 11.3
-4 -3 1 79.19 11
3 3 -1 1001.1 88.59
3 3 -1 775.62 74.79
-3 -3 1 841.12 71.39
-3 -3 1 865.71 71.39
-3 -3 1 874.01 70.79
-3 -3 1 795.02 74.09
-2 -3 1 320.47 32.4
-2 -3 1 346.17 30.4
-2 -3 1 346.57 30.3
-2 -3 1 344.97 32.5
-2 -3 1 364.26 30.3
1 3 -1 769.02 69.99
-1 -3 1 905.41 70.69
-1 -3 1 899.11 70.29
-1 -3 1 899.41 72.19
0 3 -1 2915.01 218.38
0 -3 1 2640.74 218.28
0 -3 1 2755.42 217.78
0 -3 1 2635.34 216.78
-1 3 -1 60.59 7.4
-1 3 -1 43.5 5.7
-1 3 -1 60.19 5.8
1 -3 1 54.59 5.3
1 -3 1 53.69 5.4
1 -3 1 44.5 5
1 -3 1 57.99 5.8
1 -3 1 59.69 6.7
-2 3 -1 7211.38 541.45
-2 3 -1 6488.45 543.05
-3 3 -1 129.09 16.2
-3 3 -1 167.18 18.6
3 -3 1 165.88 14.7
3 -3 1 176.98 16.4
3 -3 1 176.58 15.5
3 -3 1 170.78 16
4 -3 1 4167.78 353.56
4 -3 1 4884.51 353.66
4 -3 1 4196.28 353.36
4 -3 1 4550.94 354.46
-5 3 -1 181.18 17.8
5 -3 1 134.69 15.5
5 -3 1 137.09 17.8
5 -3 1 160.98 15.8
5 -3 1 140.49 16
-6 3 -1 462.05 42.1
-6 3 -1 523.25 41.1
6 -3 1 477.85 39.4
6 -3 1 399.76 39.8
6 -3 1 367.96 38.6
6 -3 1 368.46 37.7
6 -3 1 472.45 41.5
6 -3 1 413.86 42.7
-7 3 -1 548.85 46.7
7 -3 1 519.65 46.4
7 -3 1 453.05 48.6
7 -3 1 525.45 48.9
7 -3 1 452.95 42.6
7 -3 1 432.06 44.2
-8 3 -1 7.8 6.1
-8 3 -1 24.1 8.6
-8 3 -1 9.5 4.3
8 -3 1 15.8 6.5
8 -3 1 8.4 3.8
8 -3 1 2.3 4.9
8 -3 1 12.2 3.8
8 -3 1 11.3 4.7
8 -3 1 19.1 7.5
-9 3 -1 123.99 16.2
-9 3 -1 140.59 19
-9 3 -1 141.69 15.6
8 2 -1 12.3 7.1
8 2 -1 4.8 3.3
-8 -2 1 3.4 2.4
-8 -2 1 3.1 4.4
7 2 -1 30.5 7
-7 -2 1 30.9 8.4
-7 -2 1 23.9 7.1
-7 -2 1 23.5 6.3
6 2 -1 -5.7 7.8
6 2 -1 8.5 5.6
6 2 -1 2.6 5.2
6 2 -1 5.5 4.6
-6 -2 1 1 3
-6 -2 1 0.7 3.8
-6 -2 1 4.8 4.4
-6 -2 1 2.9 2.2
-6 -2 1 0.8 4.6
-6 -2 1 -1 4.9
5 2 -1 37.1 10.6
5 2 -1 33.8 8.6
5 2 -1 37.2 10.3
5 2 -1 34.3 9.9
-5 -2 1 24.7 5.7
-5 -2 1 21.5 6
-5 -2 1 30.2 5.6
-5 -2 1 21.1 6.9
-5 -2 1 27.9 7.9
-5 -2 1 39.6 6.8
4 2 -1 393.06 44.2
4 2 -1 545.45 47.4
-4 -2 1 464.35 40.4
-4 -2 1 458.85 43.7
-4 -2 1 437.36 40.7
-4 -2 1 461.85 42.5
-4 -2 1 451.75 44.8
-4 -2 1 469.95 40.6
3 2 -1 8460.35 588.34
3 2 -1 6776.02 590.94
-3 -2 1 7599.34 586.44
-3 -2 1 7489.85 586.84
-3 -2 1 6816.82 586.54
-3 -2 1 7374.36 589.54
2 2 -1 800.62 77.59
2 2 -1 988.7 80.39
2 2 -1 870.11 81.09
-2 -2 1 1012.5 80.09
-2 -2 1 1018.1 78.49
-2 -2 1 1096.19 78.49
1 2 -1 4102.89 321.47
1 2 -1 3832.12 324.27
1 2 -1 4305.27 324.57
0 2 -1 1971.7 152.68
0 -2 1 1954.3 151.58
0 -2 1 1814.22 151.98
1 -2 1 971.4 70.69
1 -2 1 801.32 70.09
-2 2 -1 131.49 13.3
-2 2 -1 110.19 11.9
2 -2 1 137.09 12.1
2 -2 1 130.99 11.9
2 -2 1 133.09 11.2
-3 2 -1 78.29 9.2
3 -2 1 82.49 8.2
3 -2 1 78.99 8.3
3 -2 1 80.19 8.5
3 -2 1 66.69 6.8
3 -2 1 59.99 9.4
-4 2 -1 1209.38 112.19
-4 2 -1 1185.28 109.89
4 -2 1 1466.85 112.29
4 -2 1 1343.87 114.49
4 -2 1 1629.64 118.59
4 -2 1 1368.86 112.49
4 -2 1 1582.04 117.39
-5 2 -1 13.6 5.1
-5 2 -1 24.6 6.5
5 -2 1 20.4 6.1
5 -2 1 16.7 4.3
5 -2 1 9.6 3.2
5 -2 1 7.2 3.3
-6 2 -1 44 9.1
-6 2 -1 28.4 7.1
6 -2 1 19.4 5.5
6 -2 1 30.3 7.8
6 -2 1 27.1 8
6 -2 1 34 6
6 -2 1 26.4 7.9
-7 2 -1 45.4 9.5
-7 2 -1 33.2 8.7
7 -2 1 54.79 8.2
7 -2 1 41.7 7.7
7 -2 1 32.8 10.8
7 -2 1 51.59 11
7 -2 1 44.8 10.1
7 -2 1 42.7 8.3
7 -2 1 61.89 12.2
-8 2 -1 8.2 6.1
-8 2 -1 3.9 4
8 -2 1 7.6 4.3
8 -2 1 11.4 7
8 -2 1 9.7 3.5
8 -2 1 7.3 6.4
8 -2 1 10.3 4.8
8 -2 1 8.2 5
-9 2 -1 -0.5 3.9
-9 2 -1 2.8 2.7
-9 2 -1 4.2 3.1
9 -2 1 2.7 6.7
9 -2 1 2 3.4
-8 -1 1 29.5 9
-8 -1 1 25.9 6.2
-8 -1 1 45.7 10.6
-7 -1 1 83.49 10.8
-7 -1 1 127.09 16
-7 -1 1 114.59 20
6 1 -1 70.09 12
6 1 -1 40.9 12.4
6 1 -1 46.6 12.1
6 1 -1 70.79 17.5
-6 -1 1 58.69 10.8
-6 -1 1 43.4 8.1
-6 -1 1 32.3 6.8
-6 -1 1 50.69 8.2
-6 -1 1 44.3 10.4
5 1 -1 618.74 47.6
5 1 -1 512.75 51.99
5 1 -1 674.43 56.69
5 1 -1 608.94 50.99
-5 -1 1 555.14 48.5
-5 -1 1 482.65 47
-5 -1 1 507.35 50.69
-5 -1 1 575.44 50.69
-5 -1 1 515.65 47.4
-5 -1 1 531.75 48.1
-5 -1 1 557.74 51.69
4 1 -1 2778.82 246.68
-4 -1 1 3140.49 246.08
-4 -1 1 2986.9 242.18
-4 -1 1 3039.8 242.58
-4 -1 1 3229.38 242.18
3 1 -1 841.62 73.19
3 1 -1 739.53 74.79
-3 -1 1 951.2 72.39
-3 -1 1 1007.9 72.79
2 1 -1 6498.75 515.15
1 1 -1 2040.4 170.48
1 1 -1 2158.58 169.48
1 1 -1 2259.17 170.58
-1 -1 1 2109.29 170.38
-1 1 -1 22.6 3.1
-1 1 -1 19.2 2.6
-1 1 -1 25.2 2.6
1 -1 1 22.2 2.3
1 -1 1 26.1 2.4
1 -1 1 24.8 2.6
1 -1 1 24.9 2.2
-2 1 -1 3443.66 274.67
2 -1 1 3488.45 275.47
2 -1 1 3035.3 276.47
2 -1 1 3982.8 277.67
-3 1 -1 1153.88 90.59
3 -1 1 1049.99 86.19
3 -1 1 1191.18 89.89
3 -1 1 1016.7 86.49
3 -1 1 955.1 86.69
4 -1 1 830.12 76.49
4 -1 1 900.51 77.49
4 -1 1 987.6 74.59
-5 1 -1 129.89 16.1
-5 1 -1 120.39 14.5
-5 1 -1 94.29 11.9
5 -1 1 119.09 15.2
5 -1 1 105.09 13.7
5 -1 1 88.59 11.7
5 -1 1 106.39 12.1
5 -1 1 119.39 12.9
5 -1 1 99.69 14.7
-6 1 -1 188.58 22.8
-6 1 -1 209.58 22.7
6 -1 1 219.98 21.6
6 -1 1 164.28 21.8
6 -1 1 197.48 19.9
6 -1 1 251.27 25.9
6 -1 1 233.88 25.8
6 -1 1 179.48 24.6
-7 1 -1 -1.2 4.3
-7 1 -1 6.9 5
7 -1 1 6.6 7.2
7 -1 1 1.4 5.2
7 -1 1 2.7 2.8
7 -1 1 5.8 5.5
7 -1 1 -3.7 3.6
7 -1 1 0.1 2.7
7 -1 1 5.9 4.5
-8 1 -1 125.79 16.4
-8 1 -1 134.59 17.1
-8 1 -1 101.09 14
8 -1 1 146.09 12.9
8 -1 1 133.49 21.1
-9 1 -1 61.19 8.6
-9 1 -1 56.29 9.2
9 -1 1 72.19 10.6
9 0 -1 1.1 2.9
9 0 -1 4.7 2.4
-9 0 1 -1.4 3.6
-9 0 1 -2.2 2.5
-9 0 1 4.1 4.9
8 0 -1 9.2 5.4
8 0 -1 3.2 3.9
-8 0 1 6.2 3.9
-8 0 1 1.2 3.5
7 0 -1 72.39 17
7 0 -1 48.4 7.5
7 0 -1 74.69 13.2
7 0 -1 55.09 11.1
7 0 -1 62.29 11.8
-7 0 1 52.79 10.3
-7 0 1 41.4 8
-7 0 1 65.29 11.3
6 0 -1 4.8 5.7
6 0 -1 -3.9 4.3
6 0 -1 -0.8 5
6 0 -1 -1.5 3.2
6 0 -1 4.4 5.7
6 0 -1 -1.7 6.9
6 0 -1 -2.2 3.3
6 0 -1 3.9 5.1
-6 0 1 -0.3 2.7
-6 0 1 0.6 4
-6 0 1 4.1 3.4
-6 0 1 4.3 4.3
-6 0 1 1.1 4.3
-6 0 1 3.5 3.2
5 0 -1 193.18 22.7
5 0 -1 246.38 27.9
5 0 -1 188.88 24.6
5 0 -1 278.77 22.6
-5 0 1 229.78 24.6
-5 0 1 195.38 23.7
-5 0 1 256.17 24.6
-5 0 1 256.47 22.2
-5 0 1 243.58 22
-5 0 1 248.78 22.8
-5 0 1 248.68 22.6
4 0 -1 1545.15 141.19
4 0 -1 1516.55 143.29
4 0 -1 1603.04 143.09
4 0 -1 1769.12 141.19
4 0 -1 1509.75 143.69
-4 0 1 1945.51 142.89
-4 0 1 1881.51 140.09
-4 0 1 1755.72 139.89
-4 0 1 1938.61 140.99
-4 0 1 1978.6 140.59
3 0 -1 313.57 27.3
3 0 -1 301.27 26.5
3 0 -1 277.07 27.9
3 0 -1 248.58 27.3
3 0 -1 286.67 26.4
3 0 -1 309.67 27.2
3 0 -1 356.06 28.9
2 0 -1 1754.42 150.38
2 0 -1 2060.99 149.29
2 0 -1 1765.82 149.79
2 0 -1 1789.52 149.39
-2 0 1 2007.4 149.88
1 0 -1 889.21 75.09
1 0 -1 892.31 75.49
1 0 -1 1040.2 75.89
0 0 1 774.72 61.49
-1 0 -1 1973.5 155.88
2 0 1 2482.65 198.38
2 0 1 2438.96 197.68
-3 0 -1 382.46 30.4
-3 0 -1 376.06 28.3
-3 0 -1 344.07 27.1
3 0 1 310.37 31.4
3 0 1 276.87 28.9
3 0 1 275.67 30.2
-4 0 -1 7856.01 616.84
-4 0 -1 7322.77 619.34
-4 0 -1 7444.06 616.44
4 0 1 7014.6 621.54
4 0 1 8165.98 617.84
4 0 1 8988.8 621.34
-5 0 -1 1039.8 88.59
-5 0 -1 1253.07 92.39
-5 0 -1 922.61 88.79
-5 0 -1 1075.59 92.19
-5 0 -1 997.7 93.09
5 0 1 1052.29 91.09
5 0 1 1052.99 94.19
5 0 1 1267.57 99.19
-6 0 -1 4689.23 426.06
6 0 1 5186.98 422.66
6 0 1 6120.99 422.46
6 0 1 5267.87 425.66
-7 0 -1 49.99 18.3
-7 0 -1 36.3 9.2
-7 0 -1 39.9 10.2
7 0 1 69.79 13.3
7 0 1 57.09 12.1
7 0 1 79.99 22.5
7 0 1 58.29 11.5
-8 0 -1 473.55 41
8 0 1 374.86 41.2
-9 0 -1 12 3.4
-9 0 -1 17.6 5.8
9 0 1 19.4 4.4
9 -1 -1 4.3 3.5
-9 1 1 -1.2 4.4
-9 1 1 1 5
-9 1 1 -3.4 2
-9 1 1 -2.7 2.2
8 -1 -1 15.4 5
8 -1 -1 20.3 6.3
8 -1 -1 17.1 7.3
-8 1 1 6.4 4.3
-8 1 1 9.8 3.8
7 -1 -1 4.4 5.5
7 -1 -1 7.5 5.9
7 -1 -1 7.3 4.7
7 -1 -1 1.2 5.5
7 -1 -1 5.8 7
7 -1 -1 3.9 3.2
-7 1 1 2 3.5
-7 1 1 -2.8 3
6 -1 -1 54.49 10.7
6 -1 -1 42.5 9.2
6 -1 -1 42.7 6.8
6 -1 -1 47.5 7.2
6 -1 -1 48.7 8.7
6 -1 -1 40 14.7
6 -1 -1 37.5 10.5
-6 1 1 54.39 12.1
-6 1 1 55.69 8.2
-6 1 1 42.6 8.6
-6 1 1 40.9 7.7
-6 1 1 45.5 9.5
-6 1 1 25.3 7.8
5 -1 -1 1115.99 110.69
5 -1 -1 1400.86 116.79
5 -1 -1 1238.58 110.99
5 -1 -1 1193.78 110.29
-5 1 1 1449.76 111.39
-5 1 1 1445.06 110.29
-5 1 1 1506.95 111.09
-5 1 1 1490.85 109.69
4 -1 -1 5.9 3.6
4 -1 -1 0 2.1
4 -1 -1 3.8 2.3
-4 1 1 6.5 1.9
-4 1 1 4.4 2.2
-4 1 1 2.6 2.4
3 -1 -1 3607.64 304.87
3 -1 -1 4350.46 308.27
3 -1 -1 3743.03 304.97
3 -1 -1 3467.35 304.77
3 -1 -1 3516.35 304.27
3 -1 -1 4083.79 303.37
3 -1 -1 4085.49 305.07
2 -1 -1 930.41 84.19
2 -1 -1 1022.4 83.69
2 -1 -1 1092.69 84.99
2 -1 -1 1064.39 84.59
2 -1 -1 1070.19 83.79
2 -1 -1 1172.58 85.19
-2 1 1 1080.59 84.69
-2 1 1 1099.19 84.29
-2 1 1 1053.09 85.79
-2 1 1 890.21 83.49
1 -1 -1 1302.07 113.09
1 -1 -1 1414.86 113.49
1 -1 -1 1412.66 112.59
1 -1 -1 1421.86 113.19
1 -1 -1 1501.15 113.29
-1 1 1 1472.95 113.39
0 -1 -1 749.82 59.89
0 -1 -1 766.22 59.49
0 -1 -1 843.32 59.49
0 -1 -1 742.13 60.19
0 -1 -1 845.92 59.79
0 1 1 639.94 59.79
0 1 1 642.44 59.19
0 1 1 782.22 60.79
0 1 1 697.33 60.19
-1 -1 -1 1982.9 157.48
-1 -1 -1 2083.59 158.38
-1 -1 -1 1889.91 157.98
-2 -1 -1 3816.02 305.97
-2 -1 -1 4045.8 304.97
-2 -1 -1 3944.21 304.67
2 1 1 3579.84 307.97
-3 -1 -1 889.81 72.49
-3 -1 -1 913.11 72.79
-3 -1 -1 906.51 72.39
-3 -1 -1 894.51 74.79
3 1 1 806.52 76.59
-4 -1 -1 4.7 2.9
-4 -1 -1 -2.3 3.4
-4 -1 -1 1.9 2.5
-4 -1 -1 0.4 1.8
4 1 1 6 5.4
4 1 1 4.2 5.5
4 1 1 4.1 3.5
4 1 1 6.8 4
-5 -1 -1 90.19 13.4
-5 -1 -1 72.09 10.3
-5 -1 -1 80.59 12.8
-5 -1 -1 53.69 9
-5 -1 -1 52.69 11.7
-5 -1 -1 64.09 9.9
-5 -1 -1 56.99 13.4
5 1 1 97.59 10.4
5 1 1 90.39 13.7
5 1 1 71.69 12
5 1 1 94.49 11.3
5 1 1 88.49 10.2
-6 -1 -1 443.56 55.79
-6 -1 -1 468.15 48.4
-6 -1 -1 479.55 47.4
6 1 1 539.85 43.4
6 1 1 592.24 52.29
-7 -1 -1 21.9 6.4
-7 -1 -1 11.8 5.5
7 1 1 19.7 5.9
7 1 1 7.3 4.8
7 1 1 -5.2 6.4
-8 -1 -1 29.4 7.7
-8 -1 -1 31.4 6.1
8 1 1 42.6 7.1
8 1 1 34.2 7.4
9 -2 -1 101.29 14.3
-9 2 1 72.09 11.2
8 -2 -1 115.89 17.4
8 -2 -1 73.89 12.1
8 -2 -1 127.69 11.5
8 -2 -1 114.99 16.8
8 -2 -1 109.39 14.8
-8 2 1 96.79 13.7
-8 2 1 76.29 12.6
7 -2 -1 573.44 50.69
7 -2 -1 593.04 48.8
7 -2 -1 523.25 53.89
7 -2 -1 570.34 54.99
7 -2 -1 573.94 52.29
-7 2 1 543.65 51.19
-7 2 1 580.44 50.99
6 -2 -1 313.57 34.2
6 -2 -1 224.18 27.3
6 -2 -1 205.18 23.6
6 -2 -1 231.28 27.3
6 -2 -1 259.77 29.1
6 -2 -1 270.47 27.3
6 -2 -1 231.38 24.5
6 -2 -1 273.37 26.1
-6 2 1 304.07 26.7
-6 2 1 313.87 26.6
-6 2 1 262.97 26.3
5 -2 -1 859.61 71.39
5 -2 -1 735.23 65.89
5 -2 -1 629.64 66.89
-5 2 1 804.32 66.59
-5 2 1 838.52 63.69
-5 2 1 827.92 68.29
4 -2 -1 17.1 3.9
4 -2 -1 16.9 5
4 -2 -1 20.5 2.9
4 -2 -1 13.4 3.9
4 -2 -1 15.7 4.6
4 -2 -1 16.6 6
4 -2 -1 14.4 4.1
-4 2 1 27.1 5.8
-4 2 1 17.9 3.9
3 -2 -1 1125.79 84.49
3 -2 -1 982 83.29
3 -2 -1 1030.1 85.49
3 -2 -1 908.11 82.99
3 -2 -1 1013.2 84.49
3 -2 -1 1049.3 85.29
-3 2 1 973.4 82.89
-3 2 1 1206.48 85.99
2 -2 -1 1132.49 87.49
2 -2 -1 1021.8 87.59
2 -2 -1 1149.78 87.29
2 -2 -1 1143.19 86.39
2 -2 -1 957.1 86.69
2 -2 -1 1196.98 87.19
-2 2 1 1089.09 87.99
-2 2 1 922.71 86.69
1 -2 -1 48.3 5.1
1 -2 -1 58.39 5.9
1 -2 -1 45 4.9
1 -2 -1 46.7 4.9
1 -2 -1 53.09 6.5
-1 2 1 48.1 5.3
0 -2 -1 1941.91 170.78
0 -2 -1 2424.06 169.78
0 -2 -1 2191.58 170.28
0 -2 -1 2423.56 169.88
0 -2 -1 2359.36 170.48
0 2 1 1958.9 169.48
0 2 1 1890.41 170.28
0 2 1 2171.58 171.18
0 2 1 2163.18 170.68
0 2 1 1866.11 169.18
-1 -2 -1 5 1.6
-1 -2 -1 9 2.9
1 2 1 4.3 2.6
1 2 1 1.5 2.1
1 2 1 3.6 3
-2 -2 -1 117.69 11.8
-2 -2 -1 118.39 11.9
-2 -2 -1 110.69 13
-2 -2 -1 114.99 13
2 2 1 119.29 14.1
2 2 1 117.29 16.7
2 2 1 126.49 17.9
-3 -2 -1 42 7.8
-3 -2 -1 45.4 8
-3 -2 -1 37.8 6.2
-3 -2 -1 44.2 6.5
-3 -2 -1 51.49 7.1
3 2 1 65.69 10.1
3 2 1 54.89 9.1
-4 -2 -1 9.1 2.8
-4 -2 -1 4 4.7
-4 -2 -1 17.9 5.7
-4 -2 -1 9.4 3.5
-4 -2 -1 7.5 6.1
-4 -2 -1 6.7 3.2
-4 -2 -1 1.4 2.6
4 2 1 4.4 4.4
4 2 1 1.7 3.7
4 2 1 -0.7 4.9
4 2 1 4 5
4 2 1 0.1 5.1
4 2 1 6.2 9.8
4 2 1 19 6.2
-5 -2 -1 98.09 15.9
-5 -2 -1 103.59 13.1
-5 -2 -1 84.29 12.6
-5 -2 -1 110.59 12.5
-5 -2 -1 99.29 12.3
-6 -2 -1 23.2 7.4
-6 -2 -1 31.1 8.4
6 2 1 32 8.8
6 2 1 41.8 18.7
6 2 1 43.5 11.7
6 2 1 31 9.2
-7 -2 -1 -0.3 3.1
7 2 1 -1 3.2
7 2 1 3.6 4.1
-8 -2 -1 0.1 2.5
-8 -2 -1 0.8 3.3
8 2 1 0.6 5.1
-10 3 1 6.6 3.4
-10 3 1 5.8 2.6
9 -3 -1 0.8 3.3
9 -3 -1 1.4 2.1
9 -3 -1 4 5.4
-9 3 1 3 3.2
8 -3 -1 50.09 8.7
8 -3 -1 46.6 11.9
8 -3 -1 46.3 10.7
8 -3 -1 21.5 8.9
8 -3 -1 36 6.7
-8 3 1 60.99 9.4
-8 3 1 31.1 7.8
7 -3 -1 174.28 18.6
7 -3 -1 166.68 23.6
7 -3 -1 151.68 21.8
7 -3 -1 206.48 22.5
7 -3 -1 210.98 30.2
7 -3 -1 221.18 21.7
7 -3 -1 146.19 19.4
7 -3 -1 179.58 19.4
-7 3 1 206.48 20.8
-7 3 1 179.28 21.4
-7 3 1 195.98 20.7
6 -3 -1 28.5 7.6
6 -3 -1 23.4 7.1
6 -3 -1 18.1 5.5
6 -3 -1 27.5 7.2
-6 3 1 30.1 6.7
-6 3 1 20.4 6.7
-6 3 1 26.8 6.2
5 -3 -1 1848.42 155.18
5 -3 -1 1897.71 154.98
5 -3 -1 2003.4 151.28
5 -3 -1 1874.11 152.48
5 -3 -1 1845.02 153.08
5 -3 -1 1807.72 152.88
4 -3 -1 1344.77 106.59
4 -3 -1 1310.87 107.59
4 -3 -1 1298.97 105.29
4 -3 -1 1222.28 103.59
4 -3 -1 1140.89 102.89
4 -3 -1 1378.96 104.79
3 -3 -1 5290.97 380.36
3 -3 -1 4935.71 381.46
3 -3 -1 4420.86 381.76
3 -3 -1 4929.91 380.86
-3 3 1 4402.76 378.46
2 -3 -1 2821.72 230.28
2 -3 -1 2912.11 231.28
2 -3 -1 2928.81 230.98
2 -3 -1 2933.71 232.28
2 -3 -1 2996.3 230.28
2 -3 -1 2941.01 229.38
2 -3 -1 2748.32 229.88
1 -3 -1 3603.74 280.87
1 -3 -1 3454.75 281.77
1 -3 -1 3074.09 279.97
1 -3 -1 3718.93 280.57
1 -3 -1 3880.01 281.07
0 -3 -1 1810.92 149.88
0 -3 -1 1929.91 149.88
0 -3 -1 1953.4 148.89
0 -3 -1 1704.33 150.78
0 -3 -1 2054.39 149.19
0 3 1 1725.13 150.98
-1 -3 -1 1031.5 82.29
-1 -3 -1 1043.3 83.99
-1 -3 -1 1084.89 82.09
-1 -3 -1 929.41 84.19
-1 -3 -1 953.9 83.19
-1 -3 -1 1020.9 82.19
-1 -3 -1 997 81.99
-2 -3 -1 889.91 65.79
-2 -3 -1 795.42 68.79
-2 -3 -1 798.12 67.39
-2 -3 -1 843.62 69.29
-2 -3 -1 832.72 66.09
-2 -3 -1 880.11 66.39
2 3 1 706.03 73.49
2 3 1 681.43 63.79
2 3 1 746.53 65.49
2 3 1 705.83 80.19
-3 -3 -1 236.88 21.9
-3 -3 -1 231.68 21.3
-3 -3 -1 202.78 24.2
-3 -3 -1 203.38 20.6
-3 -3 -1 217.98 25.3
-3 -3 -1 194.58 21.1
-3 -3 -1 237.38 23.6
3 3 1 193.88 23.2
-4 -3 -1 193.98 25
-4 -3 -1 201.98 21.4
-4 -3 -1 200.28 20.6
-4 -3 -1 209.18 22
-4 -3 -1 185.58 25
-4 -3 -1 199.38 20.3
4 3 1 224.28 26.3
-5 -3 -1 30.6 7.6
-5 -3 -1 19.7 7.3
-5 -3 -1 40.4 7.2
-5 -3 -1 46.2 10.5
-5 -3 -1 28.6 5.8
-5 -3 -1 34.4 9.6
5 3 1 34.4 8.4
5 3 1 51.49 10.8
5 3 1 57.49 13.2
5 3 1 32.5 11.4
-6 -3 -1 122.79 15.3
-6 -3 -1 117.49 13.5
-6 -3 -1 97.19 16
6 3 1 119.69 14.5
6 3 1 90.29 20.3
6 3 1 125.89 15.6
-7 -3 -1 16.4 4.5
-7 -3 -1 10.1 4.1
7 3 1 13.7 4.3
7 3 1 22.4 10.6
7 3 1 7.2 4.2
10 -4 -1 9.7 3.7
-10 4 1 7.1 2.8
-10 4 1 6.2 2.9
9 -4 -1 25.9 6.9
9 -4 -1 11.7 5.2
9 -4 -1 11.4 4
9 -4 -1 7.3 3.7
-9 4 1 10.6 3.7
-9 4 1 13.1 5.5
8 -4 -1 11.4 3.6
8 -4 -1 14.6 8
8 -4 -1 7.4 6.4
8 -4 -1 11 4.3
8 -4 -1 14.6 5.9
-8 4 1 6 4.4
-8 4 1 13.2 5.4
7 -4 -1 43.9 12.2
7 -4 -1 41.2 8
7 -4 -1 59.59 10.2
7 -4 -1 59.29 11.7
7 -4 -1 59.99 11.7
-7 4 1 63.59 9.5
-7 4 1 52.59 10.9
-7 4 1 51.19 10.5
-7 4 1 65.69 13.5
6 -4 -1 275.47 30.9
6 -4 -1 315.87 30.3
6 -4 -1 279.27 28.6
6 -4 -1 235.68 26.5
-6 4 1 326.67 27.8
-6 4 1 310.37 28.8
-6 4 1 257.97 31.6
5 -4 -1 19.2 5.7
5 -4 -1 16.1 6.5
5 -4 -1 17.8 4.3
5 -4 -1 16.9 4.3
5 -4 -1 18.2 4.5
5 -4 -1 37.8 8.2
5 -4 -1 12.9 5.4
-5 4 1 23.1 6.2
-5 4 1 21.2 9.1
4 -4 -1 2361.06 197.38
4 -4 -1 2357.76 194.48
4 -4 -1 2552.24 195.18
4 -4 -1 2343.37 195.38
4 -4 -1 2257.07 196.08
-4 4 1 2712.43 200.08
3 -4 -1 49.4 7.6
3 -4 -1 42.7 6.1
3 -4 -1 55.49 7
3 -4 -1 46.5 6.4
3 -4 -1 43.7 11
3 -4 -1 43.5 6.9
2 -4 -1 6519.65 523.55
2 -4 -1 6760.02 527.05
2 -4 -1 7534.05 526.35
2 -4 -1 6233.38 524.95
2 -4 -1 6383.36 523.15
2 -4 -1 6543.75 522.75
2 -4 -1 6394.56 523.35
1 -4 -1 69.19 10.9
1 -4 -1 52.49 6.5
1 -4 -1 55.59 6.8
1 -4 -1 52.29 6.4
1 -4 -1 51.59 7.6
1 -4 -1 53.79 6.7
0 -4 -1 4579.94 336.87
0 -4 -1 4452.65 336.67
0 -4 -1 4598.54 336.47
0 -4 -1 4289.37 336.67
0 -4 -1 4381.06 338.17
0 -4 -1 3699.53 337.77
0 4 1 4010 337.87
0 4 1 3901.01 340.67
-1 -4 -1 189.68 18.3
-1 -4 -1 201.98 18.5
-1 -4 -1 161.98 19.2
-1 -4 -1 206.78 18
-1 -4 -1 191.38 18.2
-1 -4 -1 197.88 20.3
1 4 1 138.89 21.8
-2 -4 -1 1365.16 107.09
-2 -4 -1 1321.67 110.59
-2 -4 -1 1272.07 106.19
-2 -4 -1 1465.75 109.19
-2 -4 -1 1360.26 106.19
-2 -4 -1 1334.37 107.09
-2 -4 -1 1274.67 108.79
-2 -4 -1 1153.48 108.29
2 4 1 1081.69 110.09
2 4 1 1326.37 119.49
-3 -4 -1 76.09 10.6
-3 -4 -1 64.59 11.8
-3 -4 -1 65.19 9.4
-3 -4 -1 68.19 9.9
-3 -4 -1 57.29 9.5
-3 -4 -1 64.59 9.1
-3 -4 -1 40.4 13.2
3 4 1 73.89 12.6
3 4 1 111.59 22.3
-4 -4 -1 289.77 27.7
-4 -4 -1 321.47 31.1
-4 -4 -1 243.08 27.7
-4 -4 -1 214.48 30.5
-4 -4 -1 286.17 29
-4 -4 -1 297.87 27.4
4 4 1 331.47 31.3
-5 -4 -1 50.39 10.4
-5 -4 -1 49.5 12.3
5 4 1 65.69 14
5 4 1 55.59 10.8
5 4 1 65.79 10.9
5 4 1 89.59 17.8
-6 -4 -1 22 6.9
-10 5 1 10.3 2.7
-10 5 1 10.3 3.4
9 -5 -1 256.77 24.5
9 -5 -1 303.27 27.7
-9 5 1 235.68 29.3
-9 5 1 266.07 25.3
8 -5 -1 -4.3 2.3
8 -5 -1 12.5 7.5
8 -5 -1 1.3 3.5
8 -5 -1 -4.5 2.5
8 -5 -1 -1.1 3.8
8 -5 -1 0 4.6
-8 5 1 4.7 3.4
-8 5 1 1.4 2.9
-8 5 1 -6.7 4.5
7 -5 -1 877.31 80.29
7 -5 -1 1044.2 79.29
7 -5 -1 1060.89 78.29
7 -5 -1 798.62 75.99
7 -5 -1 820.52 73.89
7 -5 -1 802.82 74.79
-7 5 1 758.62 79.89
6 -5 -1 42.7 10.1
6 -5 -1 54.59 9.6
6 -5 -1 71.49 13.1
6 -5 -1 47.8 8.9
6 -5 -1 72.29 11
-6 5 1 77.49 16.1
5 -5 -1 2925.51 231.28
5 -5 -1 2900.61 234.68
5 -5 -1 2545.35 231.98
5 -5 -1 2827.32 229.68
5 -5 -1 2902.61 232.08
5 -5 -1 2832.12 230.18
5 -5 -1 2557.74 229.38
-5 5 1 3178.18 246.68
-5 5 1 2753.72 236.88
-5 5 1 2701.73 229.08
-5 5 1 3355.36 235.78
4 -5 -1 -0.2 2.4
4 -5 -1 0.1 2.7
4 -5 -1 3.4 4.3
4 -5 -1 -0.6 1.7
4 -5 -1 2.1 2.6
-4 5 1 29.6 13.7
-4 5 1 4.5 3
3 -5 -1 2855.11 234.98
3 -5 -1 3000.3 232.78
3 -5 -1 2918.21 233.98
3 -5 -1 2966.5 232.08
3 -5 -1 2775.02 232.08
2 -5 -1 1515.05 120.09
2 -5 -1 1591.64 119.79
2 -5 -1 1406.96 121.99
2 -5 -1 1452.65 119.89
2 -5 -1 1412.96 118.99
1 -5 -1 1180.18 97.29
1 -5 -1 1276.57 98.09
1 -5 -1 1205.48 97.89
1 -5 -1 1326.37 97.69
1 -5 -1 1054.29 99.29
-1 5 1 1112.49 100.89
0 -5 -1 868.11 90.39
0 -5 -1 1041.8 88.09
0 -5 -1 1094.39 85.79
0 -5 -1 1010.7 88.19
0 -5 -1 1032 85.49
0 -5 -1 1075.89 88.09
0 -5 -1 1121.59 86.09
0 5 1 931.41 86.39
0 5 1 1130.29 94.89
-1 -5 -1 1006.4 76.09
-1 -5 -1 950.1 76.79
-1 -5 -1 944.71 77.09
-1 -5 -1 904.31 78.59
-1 -5 -1 936.51 76.39
-1 -5 -1 900.31 75.79
-1 -5 -1 803.72 84.79
1 5 1 782.12 78.39
-2 -5 -1 848.42 81.39
-2 -5 -1 823.92 76.69
-2 -5 -1 933.61 77.59
-2 -5 -1 946.91 77.09
-2 -5 -1 1051.39 76.89
2 5 1 759.02 79.19
2 5 1 988.9 107.29
-3 -5 -1 0.3 2.6
-3 -5 -1 13.4 4.3
-3 -5 -1 1.3 9
-3 -5 -1 9.9 5.1
-3 -5 -1 6.9 4.9
-3 -5 -1 2 4.2
-3 -5 -1 5.2 3.5
3 5 1 7.4 12.6
3 5 1 -1.6 5.8
3 5 1 -11.9 9.2
3 5 1 6.2 4.9
-4 -5 -1 270.07 24.4
-4 -5 -1 262.67 27.6
-4 -5 -1 198.68 27.4
-4 -5 -1 206.48 23.2
4 5 1 307.07 28.4
-5 -5 -1 24.4 4.8
-5 -5 -1 19.2 6.1
-5 -5 -1 24.2 8.1
5 5 1 31.6 8.5
5 5 1 34.2 7
-6 -5 -1 47.8 7.8
6 5 1 39.2 7.8
9 -6 -1 -2.1 2
9 -6 -1 -2.8 2
9 -6 -1 10.3 4.8
-9 6 1 -0.5 2
-9 6 1 -0.3 4.2
-9 6 1 2.1 3.1
8 -6 -1 202.68 32.6
8 -6 -1 272.07 24.8
8 -6 -1 266.97 27.8
8 -6 -1 235.78 25.2
-8 6 1 227.98 34.2
-8 6 1 265.07 28.7
-8 6 1 296.47 25.7
7 -6 -1 149.59 19.2
7 -6 -1 168.28 21.2
7 -6 -1 180.28 22.6
7 -6 -1 171.38 21.3
7 -6 -1 171.58 20
7 -6 -1 224.98 30.2
-7 6 1 222.08 27.8
-7 6 1 147.39 30.2
-7 6 1 211.68 20.2
-7 6 1 198.38 29.7
6 -6 -1 1930.51 164.98
6 -6 -1 1900.51 167.88
6 -6 -1 1907.51 165.78
6 -6 -1 2121.19 168.48
6 -6 -1 1985.3 167.28
-6 6 1 2189.08 181.48
-6 6 1 2093.09 179.88
-6 6 1 2129.59 169.68
5 -6 -1 2545.15 210.28
5 -6 -1 2302.47 211.18
5 -6 -1 2390.06 208.98
5 -6 -1 2723.53 212.58
5 -6 -1 2580.44 209.18
-5 6 1 2751.32 217.18
-5 6 1 2854.51 222.68
4 -6 -1 2069.69 177.28
4 -6 -1 2261.37 174.88
4 -6 -1 2029.2 174.08
4 -6 -1 2281.57 177.18
4 -6 -1 2242.38 174.58
4 -6 -1 2167.48 175.28
-4 6 1 2026.5 173.78
3 -6 -1 2704.73 236.88
3 -6 -1 2926.51 237.48
3 -6 -1 2900.41 236.98
3 -6 -1 3088.09 240.68
3 -6 -1 2821.52 241.08
3 -6 -1 2985.9 238.18
3 -6 -1 3080.29 239.78
-3 6 1 3149.68 237.48
2 -6 -1 1309.17 116.59
2 -6 -1 1483.75 116.89
2 -6 -1 1418.36 119.89
2 -6 -1 1442.86 117.49
2 -6 -1 1313.77 120.29
2 -6 -1 1356.06 118.79
2 -6 -1 1555.54 118.89
2 -6 -1 1470.75 116.79
-2 6 1 1506.45 117.69
1 -6 -1 4140.19 323.97
1 -6 -1 4010.6 324.37
1 -6 -1 3998.5 324.37
1 -6 -1 3599.54 327.07
1 -6 -1 3923.61 326.57
1 -6 -1 3925.41 323.67
1 -6 -1 4390.26 323.97
-1 6 1 4469.75 325.97
0 -6 -1 117.79 14.2
0 -6 -1 117.19 14.1
0 -6 -1 111.69 14.3
0 -6 -1 118.19 16.6
0 -6 -1 133.29 14.2
0 -6 -1 114.99 14.4
0 6 1 126.79 16.9
0 6 1 120.29 24.2
-1 -6 -1 2842.72 228.28
-1 -6 -1 2374.96 223.18
-1 -6 -1 2974 219.58
1 6 1 2473.75 219.28
-2 -6 -1 18.9 5.1
-2 -6 -1 26.6 6.3
-2 -6 -1 28.4 8.5
-2 -6 -1 10 6.1
-2 -6 -1 27.3 6.2
-2 -6 -1 25.4 7.4
2 6 1 18.6 7.6
2 6 1 33.3 11
-3 -6 -1 608.44 52.09
-3 -6 -1 466.35 47.9
-3 -6 -1 653.53 48.7
-3 -6 -1 469.05 48.7
-4 -6 -1 -2 2.9
-4 -6 -1 1.4 3.4
-4 -6 -1 1.7 2.8
4 6 1 -0.3 2.9
4 6 1 -1.5 4.1
-5 -6 -1 106.99 12.4
9 -7 -1 32.7 6.2
9 -7 -1 32.7 6.1
-9 7 1 43.9 6.1
8 -7 -1 10.8 4.2
8 -7 -1 3.4 3.4
8 -7 -1 6.2 4
8 -7 -1 -3 3.8
-8 7 1 5.4 3.2
-8 7 1 3.6 8.5
-8 7 1 5.7 4.1
-8 7 1 9.4 5.1
7 -7 -1 29.7 7.3
7 -7 -1 49.5 11.1
7 -7 -1 46.3 8.9
7 -7 -1 47.1 9
-7 7 1 44.1 13.5
-7 7 1 51.89 9.3
-7 7 1 48.4 7.6
6 -7 -1 0.4 3.5
6 -7 -1 -8.4 8.3
6 -7 -1 0.3 4.3
6 -7 -1 5.8 3.5
6 -7 -1 2.3 3.6
6 -7 -1 1.4 4
-6 7 1 1.7 4.1
-6 7 1 2.2 3.1
-6 7 1 2.1 4.4
-6 7 1 1 7.1
-6 7 1 -8.8 6.8
-6 7 1 0.3 4.4
5 -7 -1 78.99 10.6
5 -7 -1 62.39 10
5 -7 -1 56.49 11.9
5 -7 -1 71.19 11.6
5 -7 -1 55.99 9.8
5 -7 -1 71.79 11
-5 7 1 87.49 14.5
-5 7 1 40.1 15.7
-5 7 1 76.99 10.4
-5 7 1 55.29 20.5
4 -7 -1 138.39 20.2
4 -7 -1 174.78 19.2
4 -7 -1 180.48 20.6
4 -7 -1 175.08 18.1
4 -7 -1 162.98 20.4
-4 7 1 175.58 18.4
3 -7 -1 172.18 22.2
3 -7 -1 190.68 21.1
3 -7 -1 205.68 20.9
3 -7 -1 197.88 21.4
3 -7 -1 209.28 23.1
3 -7 -1 191.78 20.5
-3 7 1 229.38 21.7
-3 7 1 223.48 37.3
2 -7 -1 430.16 38
2 -7 -1 396.46 40
2 -7 -1 379.56 39.7
2 -7 -1 418.96 38
2 -7 -1 433.16 39.3
2 -7 -1 395.26 37.6
2 -7 -1 409.46 38.6
-2 7 1 462.15 39.2
1 -7 -1 1.4 4.4
1 -7 -1 5.8 3.2
1 -7 -1 -3.1 2.6
1 -7 -1 3.4 6.1
1 -7 -1 -0.3 1.9
1 -7 -1 1.1 2
-1 7 1 7.4 6.9
-1 7 1 -2 2.9
-1 7 1 6.8 6.9
0 -7 -1 2 2.4
0 -7 -1 9.4 4
0 -7 -1 -4.4 3.3
0 -7 -1 -1.8 1.9
0 -7 -1 -1.4 3.9
0 7 1 3.9 3.9
0 7 1 4.6 8.5
0 7 1 3 6.9
-1 -7 -1 6.6 4.8
-1 -7 -1 7.5 3.8
-1 -7 -1 -1.7 4.9
1 7 1 2.6 9.8
1 7 1 4 6.1
1 7 1 4.1 5.1
-2 -7 -1 19.7 6.9
-2 -7 -1 33.3 6.7
2 7 1 63.29 17.8
2 7 1 46.7 9.5
-3 -7 -1 9.6 3.2
-3 -7 -1 2.9 3.6
-3 -7 -1 4.5 2.7
3 7 1 11.4 4.3
3 7 1 2.1 5.5
-4 -7 -1 5.8 3.4
4 7 1 12.8 2.7
4 7 1 11 4
9 -8 -1 -1.1 1.3
9 -8 -1 -0.4 2.2
-9 8 1 0.4 1.6
8 -8 -1 82.79 14
8 -8 -1 84.69 10.5
-8 8 1 61.19 10.2
-8 8 1 100.09 14.1
7 -8 -1 19.8 5.5
7 -8 -1 16 5.2
7 -8 -1 20.5 5.5
7 -8 -1 10.4 4.6
-7 8 1 13.5 4.6
-7 8 1 22.4 5.1
-7 8 1 20.2 9
6 -8 -1 129.29 16
6 -8 -1 116.59 15.8
6 -8 -1 98.99 15.5
6 -8 -1 140.89 17.4
6 -8 -1 130.09 14.7
-6 8 1 144.59 18.8
5 -8 -1 4.6 3.6
5 -8 -1 1.7 4.5
5 -8 -1 3.8 4.8
5 -8 -1 6.8 3.7
5 -8 -1 3.1 3.4
-5 8 1 4.9 5
-5 8 1 9.3 6.2
-5 8 1 26.8 15.7
-5 8 1 -1.7 5
-5 8 1 14.9 4.8
4 -8 -1 489.15 48
4 -8 -1 466.45 45.2
4 -8 -1 511.55 44.7
4 -8 -1 504.55 47.1
3 -8 -1 64.49 9.5
3 -8 -1 57.49 11.1
3 -8 -1 58.39 9.3
3 -8 -1 41.8 12.3
3 -8 -1 60.29 9.1
3 -8 -1 53.79 10.7
-3 8 1 35.3 16.3
-3 8 1 54.59 14.9
-3 8 1 47.7 14.8
-3 8 1 68.99 10.8
-3 8 1 54.59 22.4
2 -8 -1 263.37 25.6
2 -8 -1 260.57 26.6
2 -8 -1 267.07 29.9
2 -8 -1 280.27 33.2
-2 8 1 193.68 50.69
1 -8 -1 1.9 2
1 -8 -1 4.2 4.7
1 -8 -1 2 5.3
1 -8 -1 -3.5 4.8
1 -8 -1 6.2 3.9
1 -8 -1 5 3.4
-1 8 1 1.5 6.6
-1 8 1 9.1 7.6
-1 8 1 -0.6 3.8
0 -8 -1 6.4 4
0 -8 -1 12.8 5.9
0 -8 -1 9.1 4.3
0 -8 -1 6 3.9
0 -8 -1 13.4 6
0 8 1 12.8 10.3
0 8 1 18.2 8.3
0 8 1 3.6 5.3
-1 -8 -1 2.7 2.9
-1 -8 -1 -0.6 1.9
-1 -8 -1 4.7 4.2
-1 -8 -1 -1.3 2.9
1 8 1 4.4 4.7
1 8 1 4.7 8.7
1 8 1 2.2 4.9
-2 -8 -1 -1.9 1.9
-2 -8 -1 -0.3 2.9
-2 -8 -1 2.6 2.2
2 8 1 -2.8 2.6
2 8 1 1.2 4.6
8 -9 -1 14.9 3.5
8 -9 -1 6.1 2.8
-8 9 1 1.8 3
7 -9 -1 12.9 4.9
7 -9 -1 10 4.1
7 -9 -1 16.2 4.3
7 -9 -1 11.9 3.5
-7 9 1 20.2 5.8
-7 9 1 17.4 7.2
6 -9 -1 19.8 6.1
6 -9 -1 18.7 5
6 -9 -1 11.7 5
6 -9 -1 16.3 4.7
-6 9 1 9.9 7.2
-6 9 1 10.1 8.5
-6 9 1 27.9 7.9
5 -9 -1 4.9 2.8
5 -9 -1 4.6 3.4
5 -9 -1 8.7 4
5 -9 -1 1.8 6.8
5 -9 -1 12.8 7.9
-5 9 1 7.4 6.3
-5 9 1 9.4 5.9
-5 9 1 6.1 5.1
-5 9 1 3.9 5.5
4 -9 -1 67.69 12.2
4 -9 -1 58.69 12.1
4 -9 -1 85.89 10.6
4 -9 -1 83.99 10.5
-4 9 1 88.79 17.1
-4 9 1 100.19 22.4
-4 9 1 88.89 14.2
3 -9 -1 3.5 4.1
3 -9 -1 1.6 4.3
3 -9 -1 3.1 2.6
3 -9 -1 2 3
3 -9 -1 -0.2 8.7
-3 9 1 -7 4.2
-3 9 1 5.2 7.3
-3 9 1 3.8 6.2
2 -9 -1 125.09 16.6
2 -9 -1 141.39 19.6
2 -9 -1 136.09 19.9
2 -9 -1 153.08 16.3
2 -9 -1 145.39 16.2
-2 9 1 195.38 30.9
-2 9 1 184.98 24.6
-2 9 1 149.79 20.9
1 -9 -1 4 4.7
1 -9 -1 2.3 2.7
1 -9 -1 1.9 4.3
-1 9 1 -0.2 5.3
-1 9 1 2.6 6.1
-1 9 1 15.5 5.9
-1 9 1 1.3 5
0 -9 -1 151.28 18
0 -9 -1 143.09 14.9
0 -9 -1 154.38 15.3
0 9 1 148.99 19.3
-1 -9 -1 8.4 3.4
-1 -9 -1 0.2 1.7
1 9 1 0.4 2.5
6 -10 -1 52.09 7.3
6 -10 -1 47.2 8.3
5 -10 -1 3.7 3.4
5 -10 -1 4.3 2.7
5 -10 -1 10.7 3
-5 10 1 1 3.9
-5 10 1 4.1 4.8
-5 10 1 0.4 4.7
4 -10 -1 80.29 9.2
-4 10 1 57.39 13.7
-4 10 1 74.09 17.2
3 -10 -1 6.2 2.8
3 -10 -1 6.8 4.5
3 -10 -1 7.5 3.2
-3 10 1 3.8 5.1
-3 10 1 1.5 5
2 -10 -1 74.49 8.9
2 -10 -1 89.59 11.7
0 -10 2 0.4 2.6
0 -10 2 -0.7 2
-1 10 -2 209.28 23.6
-1 10 -2 172.98 25.6
1 -10 2 163.88 17.4
1 -10 2 160.18 17.5
-2 10 -2 0.3 4.9
-2 10 -2 8 5
-2 10 -2 -3.5 5.6
2 -10 2 3.4 3.4
2 -10 2 -0.4 2.7
2 -10 2 -2.1 2.8
3 -10 2 207.08 21.6
3 -10 2 239.28 22.2
3 -10 2 219.28 23
-4 10 -2 5.7 4.2
-4 10 -2 7.1 5.7
-4 10 -2 1.7 3.6
4 -10 2 5.9 2.8
4 -10 2 3.8 3.6
4 -10 2 3.5 2.8
-5 10 -2 77.79 14.2
5 -10 2 106.89 12.8
5 -10 2 97.19 11.3
5 -10 2 105.09 12.5
-6 10 -2 2.9 3.2
-6 10 -2 6.3 4.8
-6 10 -2 -2 4.1
6 -10 2 3.7 2.1
6 -10 2 -0.9 1.6
6 -10 2 -3 4.8
-7 10 -2 37.7 10.1
7 -10 2 24.2 4
-2 -9 2 78.99 13.7
-2 -9 2 81.89 9.6
1 9 -2 4.3 5.5
-1 -9 2 -1.4 2.3
-1 -9 2 4.3 9.7
-1 -9 2 0.3 2.1
0 9 -2 320.77 33.7
0 -9 2 291.77 27.7
0 -9 2 258.97 27.2
-1 9 -2 10.1 8.6
-1 9 -2 35.1 11.3
-1 9 -2 12.6 6.8
1 -9 2 -0.1 9.9
1 -9 2 16.4 4.6
1 -9 2 16.8 5.5
1 -9 2 17.5 7.8
1 -9 2 20 5.1
-2 9 -2 287.17 39.1
2 -9 2 207.38 22.5
2 -9 2 220.48 26.5
2 -9 2 228.88 23.7
2 -9 2 197.68 25.3
-3 9 -2 138.19 16.9
-3 9 -2 149.49 23
-3 9 -2 77.99 22.2
3 -9 2 112.69 13.5
3 -9 2 87.69 12.9
3 -9 2 99.89 12.8
3 -9 2 128.89 16.5
-4 9 -2 156.78 28.7
-4 9 -2 120.19 18.1
-4 9 -2 122.49 21.8
4 -9 2 111.79 16.1
4 -9 2 120.29 13.9
4 -9 2 88.69 14.3
-5 9 -2 60.59 11.7
-5 9 -2 36.6 11.5
5 -9 2 65.99 9.4
5 -9 2 101.19 20.7
-6 9 -2 147.89 25.7
6 -9 2 183.08 18.4
6 -9 2 184.98 19
6 -9 2 185.98 19.9
-7 9 -2 71.99 19.8
7 -9 2 60.89 9.1
7 -9 2 64.39 8.2
7 -9 2 51.19 7.7
7 -9 2 50.59 11.5
-8 9 -2 11.3 4.8
-8 9 -2 13.6 4.8
8 -9 2 17.3 3.4
8 -9 2 14.3 3.5
3 8 -2 18.2 6.4
-3 -8 2 4.7 2.1
-3 -8 2 10.2 2.8
-3 -8 2 10.1 6.1
-2 -8 2 83.79 11.1
-2 -8 2 120.09 13.3
-2 -8 2 96.29 15
-1 -8 2 98.99 11.6
-1 -8 2 65.39 13.8
-1 -8 2 62.69 10
-1 -8 2 76.49 11.5
0 8 -2 473.55 71.69
0 8 -2 672.03 66.19
0 8 -2 646.94 55.39
0 -8 2 590.04 55.19
0 -8 2 691.03 54.79
0 -8 2 502.45 53.09
0 -8 2 605.54 53.09
-1 8 -2 10.1 6
-1 8 -2 55.19 17.3
-1 8 -2 6.4 6
-1 8 -2 2.5 5.8
-1 8 -2 13.7 11.4
1 -8 2 0.3 6.6
1 -8 2 16 5.6
1 -8 2 13 4.5
1 -8 2 9.7 4.4
1 -8 2 12.5 4
-2 8 -2 161.48 24.6
-2 8 -2 143.99 27.8
-2 8 -2 158.68 20.3
2 -8 2 194.08 19
2 -8 2 154.28 18.6
2 -8 2 164.18 18.5
2 -8 2 164.98 17.5
-3 8 -2 6.2 5
-3 8 -2 14.8 7.4
-3 8 -2 26 7.8
-3 8 -2 11.9 7.1
-3 8 -2 22.5 10.9
3 -8 2 12.3 5.5
3 -8 2 14.5 4.1
3 -8 2 13.7 4.5
3 -8 2 6.5 4.6
3 -8 2 12.6 5.1
-4 8 -2 194.58 28.8
-4 8 -2 290.77 34.5
-4 8 -2 303.27 39.5
4 -8 2 247.38 24.8
4 -8 2 230.48 24.3
4 -8 2 192.58 23.9
4 -8 2 274.37 27.2
4 -8 2 235.38 24
-5 8 -2 1.9 4.5
-5 8 -2 0.1 4.8
-5 8 -2 -5 5.9
-5 8 -2 2.5 8
-5 8 -2 4.1 6.2
-5 8 -2 5.5 5.8
5 -8 2 4.3 3.4
5 -8 2 8.6 4.6
5 -8 2 14 5.9
5 -8 2 12.4 6.1
-6 8 -2 122.99 23.8
-6 8 -2 154.28 21.2
6 -8 2 135.69 15.6
6 -8 2 117.59 15.1
6 -8 2 158.48 31.8
6 -8 2 135.19 16.4
6 -8 2 114.09 16.1
6 -8 2 124.39 16.7
-7 8 -2 3.3 6.5
-7 8 -2 16.4 5.5
-7 8 -2 9.3 6.5
-7 8 -2 12.2 5.7
7 -8 2 8 3.9
7 -8 2 4.1 2.7
7 -8 2 10.8 4.2
7 -8 2 7 5
-8 8 -2 4.2 3.4
-8 8 -2 1.4 3.3
-8 8 -2 8 7.1
8 -8 2 7.6 2.9
8 -8 2 1.8 2.4
8 -8 2 3.2 3
8 -8 2 1.2 3.5
-9 8 -2 51.89 8.7
9 -8 2 59.39 7.9
9 -8 2 57.59 7.7
4 7 -2 174.58 19.5
4 7 -2 154.08 13.7
-4 -7 2 102.39 14.6
-4 -7 2 120.99 13.1
3 7 -2 23.2 12.4
3 7 -2 8.5 6.9
3 7 -2 2 4.8
-3 -7 2 8 3
-3 -7 2 0.8 3.9
-3 -7 2 0.6 3.3
-3 -7 2 14.4 4.3
-2 -7 2 1108.19 84.69
-2 -7 2 935.01 87.69
-2 -7 2 923.81 85.59
-2 -7 2 1031.7 84.19
-2 -7 2 986 86.89
1 7 -2 156.48 31.2
1 7 -2 152.78 29.4
-1 -7 2 123.69 18.9
-1 -7 2 165.28 17.1
-1 -7 2 119.49 16.1
-1 -7 2 140.89 17.3
-1 -7 2 163.28 16.4
-1 -7 2 134.89 17.4
0 7 -2 1912.41 147.29
0 7 -2 1805.22 153.78
0 -7 2 1777.72 142.19
0 -7 2 1746.63 142.99
0 -7 2 1642.54 142.69
0 -7 2 1586.64 142.09
-1 7 -2 338.17 41.6
-1 7 -2 209.08 34.9
-1 7 -2 205.08 23.7
-1 7 -2 238.98 28.9
-1 7 -2 256.37 30.5
-1 7 -2 245.08 27.2
1 -7 2 260.37 24.7
1 -7 2 251.67 25.1
1 -7 2 252.37 23.7
1 -7 2 263.47 24.5
1 -7 2 252.07 24
-2 7 -2 514.85 47.3
-2 7 -2 416.26 41.4
-2 7 -2 400.16 48.5
-2 7 -2 452.15 47.1
2 -7 2 527.35 43.4
2 -7 2 509.05 42.6
2 -7 2 533.45 42.2
-3 7 -2 331.77 38.6
-3 7 -2 274.27 38.2
-3 7 -2 340.67 37.4
3 -7 2 397.56 35.3
3 -7 2 370.46 31.8
3 -7 2 351.66 32.2
3 -7 2 353.86 32.3
-4 7 -2 50.49 14.5
-4 7 -2 78.79 12.9
-4 7 -2 53.59 9.2
-4 7 -2 53.89 12.5
-4 7 -2 45.9 12.8
-4 7 -2 50.69 12.6
4 -7 2 47.9 8.2
4 -7 2 43.1 14.8
4 -7 2 61.29 9.1
4 -7 2 54.29 8.9
-5 7 -2 1127.49 104.09
-5 7 -2 1340.87 102.09
-5 7 -2 1114.99 116.69
-5 7 -2 1182.88 110.79
-5 7 -2 1310.97 107.69
-5 7 -2 1046.4 99.99
5 -7 2 1017.9 97.19
5 -7 2 1146.59 103.09
5 -7 2 1161.88 100.19
5 -7 2 1260.97 99.49
-6 7 -2 107.79 18.7
-6 7 -2 87.29 12.6
-6 7 -2 89.09 19.4
-6 7 -2 109.79 16.5
-6 7 -2 102.39 21
6 -7 2 78.99 14.1
6 -7 2 91.29 13.9
6 -7 2 71.19 11.7
6 -7 2 65.89 12
6 -7 2 54.99 12
-7 7 -2 86.09 12.3
-7 7 -2 66.59 19.8
-7 7 -2 99.09 14.4
7 -7 2 77.29 11.7
7 -7 2 69.59 10.8
7 -7 2 61.29 12
-8 7 -2 7.6 4.7
-8 7 -2 10.4 5.8
-8 7 -2 4.1 6.4
-8 7 -2 6.7 4.4
8 -7 2 4.5 6.1
8 -7 2 1.7 3.2
8 -7 2 2.9 3
8 -7 2 5.3 3.1
-9 7 -2 1.8 3.7
-9 7 -2 2.3 2.5
9 -7 2 1 2
9 -7 2 -5.4 2.8
9 -7 2 -0.2 1.8
5 6 -2 263.97 28.3
-5 -6 2 256.87 26.1
-5 -6 2 283.57 24.1
-4 -6 2 90.09 11.5
-4 -6 2 96.99 14.3
-4 -6 2 116.19 12.7
-3 -6 2 500.75 43
-3 -6 2 487.35 46.4
-3 -6 2 471.35 42.8
-3 -6 2 439.36 44
-3 -6 2 480.05 44.5
2 6 -2 671.63 58.69
2 6 -2 521.45 57.09
-2 -6 2 578.04 52.89
-2 -6 2 626.74 52.59
-2 -6 2 587.54 54.59
-2 -6 2 585.44 55.69
-2 -6 2 632.44 53.29
-2 -6 2 578.14 53.39
1 6 -2 246.88 38.6
1 6 -2 294.27 29.7
1 6 -2 237.98 29.7
-1 -6 2 230.48 26.6
-1 -6 2 267.57 23.8
-1 -6 2 227.38 23.7
-1 -6 2 242.08 24
-1 -6 2 224.88 24.7
-1 -6 2 237.98 24.3
0 6 -2 1561.64 143.29
0 6 -2 1395.86 134.49
0 6 -2 1489.45 145.99
0 -6 2 1830.92 134.09
0 -6 2 1488.45 137.99
0 -6 2 1854.31 137.09
0 -6 2 1718.93 134.89
0 -6 2 1761.32 134.99
-1 6 -2 303.47 37
-1 6 -2 420.16 41.2
-1 6 -2 327.27 34.5
1 -6 2 397.76 31.2
1 -6 2 351.36 32.3
1 -6 2 359.56 31.2
1 -6 2 343.47 32.5
1 -6 2 295.17 34.1
1 -6 2 381.76 31.4
-2 6 -2 4579.94 331.67
-2 6 -2 4012.9 324.57
-2 6 -2 3573.54 331.97
-2 6 -2 4215.38 324.47
2 -6 2 3962.6 318.17
2 -6 2 3886.01 318.97
2 -6 2 4048.09 317.97
2 -6 2 3754.92 317.27
2 -6 2 4030.1 322.47
-3 6 -2 18.1 6
-3 6 -2 20.4 7.9
-3 6 -2 9.5 5.7
-3 6 -2 8.7 6.2
-3 6 -2 8.7 6
3 -6 2 13.1 6.2
3 -6 2 8.4 3.6
3 -6 2 16 4.2
3 -6 2 13.4 4.9
3 -6 2 8.8 3.2
-4 6 -2 3148.78 270.37
-4 6 -2 3129.79 264.07
-4 6 -2 3102.39 267.57
-4 6 -2 3522.15 266.77
-4 6 -2 3321.57 264.57
-4 6 -2 3088.09 267.87
4 -6 2 3096.89 258.27
4 -6 2 3062.59 264.07
4 -6 2 3285.77 263.37
4 -6 2 3512.65 259.67
4 -6 2 3267.17 261.17
-5 6 -2 108.29 18.7
-5 6 -2 74.99 14
-5 6 -2 97.79 13.3
-5 6 -2 77.79 11.1
-5 6 -2 79.09 14.5
-5 6 -2 81.79 17.7
-5 6 -2 93.89 14.3
-5 6 -2 72.89 15.2
5 -6 2 92.59 13.1
5 -6 2 91.19 20.4
5 -6 2 89.19 13.7
5 -6 2 75.89 11.7
5 -6 2 90.69 13.6
5 -6 2 97.19 12.3
5 -6 2 74.59 11.1
-6 6 -2 1201.78 90.09
-6 6 -2 998.3 100.49
-6 6 -2 1224.18 118.39
-6 6 -2 1168.48 94.99
6 -6 2 956.4 90.29
6 -6 2 1018.1 88.99
6 -6 2 988.5 90.69
6 -6 2 981 97.89
-7 6 -2 90.89 17.1
-7 6 -2 89.39 18.8
7 -6 2 106.29 13
7 -6 2 85.69 12.9
7 -6 2 103.99 14.2
7 -6 2 96.19 13.6
7 -6 2 102.19 18.3
-8 6 -2 315.17 41.7
-8 6 -2 275.27 32.2
8 -6 2 367.36 31.3
8 -6 2 330.37 33.1
8 -6 2 357.56 32.4
8 -6 2 323.87 37.1
8 -6 2 368.26 33.4
-9 6 -2 123.89 13.3
-9 6 -2 111.79 17.7
9 -6 2 120.89 15.6
9 -6 2 167.48 14.5
9 -6 2 141.09 15.4
9 -6 2 157.78 15.8
6 5 -2 56.99 10.2
6 5 -2 69.99 8.7
-6 -5 2 55.39 8.7
-6 -5 2 50.89 6.4
5 5 -2 17 7.4
5 5 -2 12.8 5.1
-5 -5 2 13.7 3.8
-5 -5 2 6.8 4.2
-5 -5 2 11.5 3.4
-4 -5 2 131.99 17.1
-4 -5 2 101.59 13.9
-4 -5 2 136.89 16.4
-4 -5 2 104.39 15
-4 -5 2 134.49 14.9
-4 -5 2 148.69 16.2
3 5 -2 7.1 13.4
3 5 -2 4.7 4.9
-3 -5 2 1.1 2.5
-3 -5 2 3.3 2.6
-3 -5 2 -3.6 4
-3 -5 2 2.7 2.9
-3 -5 2 3.3 2.5
2 5 -2 153.18 31.5
-2 -5 2 162.88 17.8
-2 -5 2 170.38 17.6
-2 -5 2 126.09 20.5
-2 -5 2 200.98 20.2
-2 -5 2 169.98 16.9
-2 -5 2 157.78 20.9
-2 -5 2 172.88 17.6
1 5 -2 300.77 32.1
1 5 -2 395.06 47
-1 -5 2 371.66 32.5
-1 -5 2 349.96 36.7
-1 -5 2 387.26 33.1
-1 -5 2 404.86 32.4
-1 -5 2 375.16 35.4
0 5 -2 44.6 7.5
0 -5 2 58.09 7.1
0 -5 2 44.9 8.4
0 -5 2 54.39 8
0 -5 2 66.49 7.4
-1 5 -2 566.64 55.09
1 -5 2 588.54 55.09
1 -5 2 631.64 52.99
1 -5 2 645.04 52.09
1 -5 2 647.94 52.89
1 -5 2 690.73 51.99
-2 5 -2 396.26 40
2 -5 2 426.16 36.3
2 -5 2 398.46 34.9
2 -5 2 420.36 35.4
2 -5 2 482.15 39
-3 5 -2 134.49 18.6
-3 5 -2 128.59 13.8
3 -5 2 148.79 14.1
3 -5 2 143.19 16.2
3 -5 2 145.19 14.5
3 -5 2 151.18 15.8
-4 5 -2 688.53 66.59
-4 5 -2 861.41 74.99
-4 5 -2 780.22 69.39
-4 5 -2 762.62 72.89
4 -5 2 820.12 66.09
4 -5 2 811.12 68.49
4 -5 2 743.23 64.69
4 -5 2 772.72 66.99
4 -5 2 835.02 65.89
-5 5 -2 55.69 9.7
-5 5 -2 44.1 7.8
-5 5 -2 52.49 11.8
-5 5 -2 59.79 15
-5 5 -2 62.79 11.5
-5 5 -2 69.89 10.7
-5 5 -2 45.6 12.2
5 -5 2 35.2 7.7
5 -5 2 53.39 8
5 -5 2 50.99 10.8
5 -5 2 33.8 9
5 -5 2 43.7 7.9
-6 5 -2 547.95 63.19
-6 5 -2 592.84 52.29
-6 5 -2 528.35 50.79
6 -5 2 474.45 43.6
6 -5 2 455.75 48.2
6 -5 2 437.56 44.4
6 -5 2 527.35 44.4
6 -5 2 442.26 44.9
6 -5 2 440.36 43.6
-7 5 -2 69.79 14.3
-7 5 -2 115.29 22.6
-7 5 -2 110.39 24.5
7 -5 2 83.99 16.8
7 -5 2 88.79 12.9
7 -5 2 73.49 11.8
7 -5 2 99.09 11.9
7 -5 2 99.79 13.6
-8 5 -2 135.09 17.1
-8 5 -2 148.59 24.4
8 -5 2 139.59 17.5
8 -5 2 145.39 21.5
8 -5 2 149.59 15.8
8 -5 2 151.48 16.6
8 -5 2 131.19 16.8
-9 5 -2 25.3 9.6
-9 5 -2 37.6 6.6
9 -5 2 29 5.8
9 -5 2 34 7.5
7 4 -2 37.6 6.2
7 4 -2 37.8 10.3
6 4 -2 7.8 7.8
6 4 -2 7.2 3.6
6 4 -2 2.9 3.7
-6 -4 2 0.7 1.9
-6 -4 2 -0.1 2
-6 -4 2 2.4 3.5
-6 -4 2 5.6 4.8
5 4 -2 37.6 9.2
5 4 -2 49.1 18.2
-5 -4 2 24.9 6.2
-5 -4 2 17.8 5.2
-5 -4 2 33.9 8.4
-5 -4 2 26.6 7.4
-5 -4 2 21.6 5.4
4 4 -2 16.7 7.2
-4 -4 2 3.5 3
-4 -4 2 4.8 4.9
-4 -4 2 3.5 3.3
-4 -4 2 4.2 3.5
-4 -4 2 4.3 3.3
3 4 -2 22.4 8
3 4 -2 9.4 9.1
-3 -4 2 16 4.3
-3 -4 2 25.2 5.8
-3 -4 2 20.1 8.3
-3 -4 2 17.6 5
-3 -4 2 30.6 7.1
-3 -4 2 14.4 5
-2 -4 2 500.75 48
-2 -4 2 541.35 44.8
-2 -4 2 523.65 45.1
-2 -4 2 535.75 45.7
1 4 -2 0.7 1.6
-1 -4 2 2.6 1.6
-1 -4 2 1.9 1.7
-1 -4 2 1.6 2.3
0 4 -2 3203.98 254.97
0 4 -2 3540.25 258.57
0 -4 2 3145.39 254.47
0 -4 2 3076.89 252.47
0 -4 2 3148.78 253.17
0 -4 2 3042.6 255.47
-1 4 -2 458.95 40.2
1 -4 2 445.26 37.4
1 -4 2 425.86 36.8
1 -4 2 461.15 39.3
-2 4 -2 5668.13 431.76
-2 4 -2 5665.03 427.16
2 -4 2 4884.31 428.06
2 -4 2 5274.67 427.36
2 -4 2 5552.64 429.26
-3 4 -2 2 2.4
-3 4 -2 2.1 2.5
3 -4 2 3.4 2.4
3 -4 2 1.6 2.3
3 -4 2 4.3 1.9
3 -4 2 3.4 1.7
-4 4 -2 1875.21 154.08
4 -4 2 1802.92 147.59
4 -4 2 1572.34 145.79
4 -4 2 1897.31 147.99
4 -4 2 1961.1 149.59
4 -4 2 1896.11 148.49
-5 4 -2 337.47 29.1
5 -4 2 292.97 31.5
5 -4 2 289.27 28.6
5 -4 2 276.27 33.4
5 -4 2 329.87 28.8
5 -4 2 293.77 29.4
-6 4 -2 77.99 23.3
-6 4 -2 143.19 15.9
6 -4 2 115.69 17.2
6 -4 2 120.39 14.5
6 -4 2 105.89 15.8
6 -4 2 94.69 12.8
6 -4 2 134.19 13.9
-7 4 -2 287.87 37
-7 4 -2 201.98 23.6
7 -4 2 188.78 21.8
7 -4 2 229.08 24.2
7 -4 2 192.08 26.1
7 -4 2 238.58 23.9
7 -4 2 214.18 27.1
7 -4 2 197.28 21.2
-8 4 -2 6.9 7.6
-8 4 -2 -1.4 4.9
-8 4 -2 0.6 2.5
8 -4 2 -1 2.7
8 -4 2 -2.8 2.7
8 -4 2 2.5 3.2
8 -4 2 -2 5
8 -4 2 0.8 3.2
9 -4 2 117.69 15.1
9 -4 2 117.79 12.7
9 -4 2 132.49 19.7
7 3 -2 63.09 9.4
-7 -3 2 65.29 9.5
-7 -3 2 43.3 6.1
-7 -3 2 50.39 10.3
6 3 -2 18.6 7
-6 -3 2 16.4 4.3
-6 -3 2 9.8 4.3
-6 -3 2 16.4 4.6
-6 -3 2 22.5 7.2
-6 -3 2 33.4 8
5 3 -2 1278.47 111.89
-5 -3 2 1315.07 108.69
-5 -3 2 1360.06 111.29
-5 -3 2 1407.86 107.99
-5 -3 2 1304.07 110.29
-5 -3 2 1239.78 112.59
-5 -3 2 1244.08 107.29
4 3 -2 132.29 17.9
4 3 -2 123.79 18
4 3 -2 157.18 21.4
-4 -3 2 110.19 15.5
-4 -3 2 122.39 14.2
-4 -3 2 108.09 13.7
-4 -3 2 109.89 17.5
-4 -3 2 125.49 13.8
-4 -3 2 125.49 13.5
3 3 -2 2495.35 218.98
3 3 -2 2892.31 222.38
-3 -3 2 2573.34 216.48
-3 -3 2 2595.04 213.38
-3 -3 2 2746.03 212.68
2 3 -2 1325.17 116.59
-2 -3 2 1497.65 117.89
-2 -3 2 1442.06 113.19
-2 -3 2 1390.46 115.99
-2 -3 2 1374.06 113.79
1 3 -2 3126.69 254.27
1 3 -2 3244.68 257.57
-1 -3 2 3327.17 255.87
-1 -3 2 3014.6 253.97
-1 -3 2 3294.67 253.57
0 -3 2 339.67 29.5
0 -3 2 345.27 28.6
1 -3 2 2284.57 211.48
1 -3 2 3080.99 213.68
-2 3 -2 103.99 12
-2 3 -2 101.09 9.7
2 -3 2 91.59 8.3
2 -3 2 115.79 10.6
2 -3 2 102.59 9.3
-3 3 -2 1264.77 114.79
3 -3 2 1352.76 110.89
3 -3 2 1458.45 112.49
3 -3 2 1496.35 112.99
-4 3 -2 60.69 9.4
-4 3 -2 31.5 9.5
4 -3 2 53.89 7
4 -3 2 44.2 6.3
4 -3 2 40.7 6.5
4 -3 2 48.6 8.3
4 -3 2 55.29 7
5 -3 2 872.51 75.49
5 -3 2 800.22 71.09
5 -3 2 884.91 72.09
-6 3 -2 381.56 40.7
6 -3 2 398.26 35.9
6 -3 2 352.26 34.2
6 -3 2 377.06 37.7
6 -3 2 339.77 32.5
6 -3 2 352.56 37.9
6 -3 2 347.47 33.4
-7 3 -2 289.17 27.4
7 -3 2 215.78 25
7 -3 2 224.58 24.3
7 -3 2 295.67 30.7
7 -3 2 262.17 26.9
7 -3 2 229.58 23.5
7 -3 2 220.78 28.8
-8 3 -2 127.49 20.3
-8 3 -2 150.58 21.8
-8 3 -2 131.29 17.7
8 -3 2 148.99 16.1
8 -3 2 131.09 17.6
8 -3 2 150.68 20.2
8 -3 2 169.08 17.7
8 -3 2 159.68 15.8
-9 3 -2 99.79 13.4
-9 3 -2 67.59 10.5
-9 3 -2 74.59 11
9 -3 2 63.49 8
8 2 -2 22.2 5.7
8 2 -2 27.1 9.2
-8 -2 2 17 4.4
-8 -2 2 30.3 8.6
7 2 -2 12 5.6
-7 -2 2 3.8 4.6
-7 -2 2 6.2 2.7
-7 -2 2 7.1 4.6
6 2 -2 677.93 60.89
-6 -2 2 598.84 54.79
-6 -2 2 728.43 58.69
-6 -2 2 547.15 54.39
-6 -2 2 650.33 54.09
-6 -2 2 604.64 53.69
-6 -2 2 651.83 58.99
5 2 -2 94.39 14.1
5 2 -2 104.09 16
5 2 -2 110.99 17.2
5 2 -2 81.69 13.7
-5 -2 2 74.49 10
-5 -2 2 77.69 10.5
-5 -2 2 61.59 13.3
-5 -2 2 82.49 10.6
-5 -2 2 89.69 12.6
-5 -2 2 74.59 10.5
4 2 -2 1468.85 118.99
-4 -2 2 1303.37 112.29
-4 -2 2 1237.68 114.09
-4 -2 2 1417.96 112.99
-4 -2 2 1469.05 113.09
-4 -2 2 1398.86 116.39
3 2 -2 2207.58 206.38
3 2 -2 2212.28 205.38
3 2 -2 2824.62 211.08
-3 -2 2 2797.82 204.98
-3 -2 2 2739.93 207.78
-3 -2 2 2722.33 204.48
-3 -2 2 2447.66 204.78
2 2 -2 822.52 72.59
-2 -2 2 804.82 70.59
-2 -2 2 829.22 69.89
-2 -2 2 945.51 72.79
-2 -2 2 935.11 70.49
1 2 -2 3488.05 284.57
1 2 -2 3773.52 285.17
1 2 -2 3576.44 284.77
-1 -2 2 3464.45 284.07
-2 2 -2 3785.22 304.17
2 -2 2 4317.47 303.27
2 -2 2 3442.46 303.27
-3 2 -2 249.97 21.6
-3 2 -2 269.57 23.9
3 -2 2 226.68 20.9
3 -2 2 209.08 20.5
3 -2 2 255.27 21.4
-4 2 -2 1713.33 143.69
4 -2 2 1687.13 143.89
4 -2 2 1608.14 143.19
4 -2 2 1784.62 141.99
4 -2 2 1904.31 141.59
4 -2 2 1846.12 142.59
-5 2 -2 0 2.4
-5 2 -2 4.6 3.3
5 -2 2 0.5 2.2
5 -2 2 -3 2.3
5 -2 2 1.7 2.3
5 -2 2 -0.6 2.1
-6 2 -2 121.99 14.6
-6 2 -2 108.19 16.5
6 -2 2 91.39 11.6
6 -2 2 98.89 13.4
6 -2 2 97.29 15
6 -2 2 87.09 15.1
6 -2 2 96.09 11.3
6 -2 2 89.29 12.4
-7 2 -2 65.69 11.7
7 -2 2 67.29 9.5
7 -2 2 71.39 12
7 -2 2 73.99 11
7 -2 2 68.59 10
7 -2 2 61.89 12.7
7 -2 2 94.29 15.5
7 -2 2 69.59 16.1
-8 2 -2 8.9 4.3
-8 2 -2 0.2 4.5
8 -2 2 7.3 4.9
8 -2 2 -3.1 4.7
8 -2 2 8.3 3.5
8 -2 2 9.9 6.5
8 -2 2 7.8 3.1
-9 2 -2 13.9 4.5
-9 2 -2 14.8 4.2
-9 2 -2 6.6 3.5
9 -2 2 15.2 4.5
9 1 -2 25.7 9.5
9 1 -2 21.3 5
-8 -1 2 96.69 12.2
-8 -1 2 86.09 14.2
7 1 -2 83.99 12.1
-7 -1 2 58.59 12.6
-7 -1 2 68.69 8.7
6 1 -2 2175.28 173.18
6 1 -2 2180.48 172.38
-6 -1 2 1960.9 165.28
-6 -1 2 2043.9 169.88
-6 -1 2 1818.62 165.58
-6 -1 2 2163.48 169.28
5 1 -2 17.3 7.4
5 1 -2 10.4 5.4
5 1 -2 12.1 6
-5 -1 2 10.8 3.4
-5 -1 2 8.5 5.9
-5 -1 2 15.8 4.4
-5 -1 2 17.3 6.9
-5 -1 2 10.2 3.5
-5 -1 2 17.6 4.5
4 1 -2 2612.34 253.07
-4 -1 2 3332.97 249.38
-4 -1 2 3185.58 249.58
-4 -1 2 3383.06 249.97
3 1 -2 667.83 60.09
3 1 -2 579.74 60.99
-3 -1 2 809.52 59.29
-3 -1 2 765.12 61.09
-3 -1 2 760.82 59.69
2 1 -2 2928.21 253.07
2 1 -2 3131.69 253.47
-2 -1 2 3353.46 253.87
-2 -1 2 3329.27 252.27
-1 1 -2 4248.48 335.67
-2 1 -2 4564.64 359.96
-3 1 -2 758.22 56.19
-3 1 -2 732.93 58.29
-3 1 -2 742.13 57.89
3 -1 2 745.03 57.29
3 -1 2 557.54 57.79
3 -1 2 598.24 56.69
-4 1 -2 2184.18 160.78
-4 1 -2 1912.11 156.98
4 -1 2 2087.29 157.58
4 -1 2 1845.02 159.58
4 -1 2 1888.91 157.68
4 -1 2 1823.12 160.28
-5 1 -2 1114.69 82.39
5 -1 2 931.41 78.89
5 -1 2 783.72 82.09
5 -1 2 914.71 79.39
5 -1 2 1018.4 83.09
-6 1 -2 11.9 6.8
6 -1 2 25 9
6 -1 2 13.4 8.8
6 -1 2 16.7 5.1
6 -1 2 17.7 10.7
6 -1 2 15.8 5.2
6 -1 2 16.8 6.3
-7 1 -2 303.47 37.2
-7 1 -2 323.27 36.5
7 -1 2 405.56 39.9
7 -1 2 400.46 33.1
7 -1 2 383.46 39.4
7 -1 2 412.06 37.1
7 -1 2 349.67 33.2
-8 1 -2 27.6 7.8
-8 1 -2 23.8 7.1
8 -1 2 11.4 10.8
8 -1 2 28.6 7.5
8 -1 2 24 9.5
8 -1 2 30.5 5.3
-9 1 -2 86.69 10.8
-9 1 -2 85.69 11.6
9 -1 2 87.69 13
9 0 -2 8.4 3.9
-9 0 2 6.4 3.6
-9 0 2 16 4.2
8 0 -2 31.9 9.1
8 0 -2 34.2 7.1
-8 0 2 22.3 6.1
-8 0 2 21.7 7
7 0 -2 99.39 15.6
7 0 -2 91.19 21.3
7 0 -2 105.79 13.9
-7 0 2 86.19 12.3
-7 0 2 63.59 9.3
-7 0 2 75.79 12.7
6 0 -2 10.4 4.9
6 0 -2 13.7 4.2
6 0 -2 16.4 7.1
6 0 -2 10 5.5
6 0 -2 9.5 5.8
6 0 -2 11.5 8.3
-6 0 2 12.9 4.4
-6 0 2 6 3.1
-6 0 2 10.1 3.5
-6 0 2 8.9 3.7
-6 0 2 0.5 4.1
-6 0 2 15.5 5.9
5 0 -2 17.2 6.9
5 0 -2 3.6 3.4
5 0 -2 9.7 5.2
5 0 -2 0 4.4
5 0 -2 5.5 4.5
5 0 -2 0 3.9
5 0 -2 2.3 5.7
5 0 -2 1.9 3.6
-5 0 2 4.4 2.4
-5 0 2 3.1 2.2
-5 0 2 5.9 2.4
-5 0 2 10.6 4.2
-5 0 2 7 4.1
4 0 -2 646.54 60.69
4 0 -2 698.73 63.59
-4 0 2 714.73 60.79
-4 0 2 807.22 62.69
-4 0 2 744.23 62.09
-4 0 2 789.72 60.49
3 0 -2 2221.48 179.78
3 0 -2 2025.3 181.38
-3 0 2 2462.85 179.48
-3 0 2 2290.77 180.48
2 0 -2 2588.04 237.98
2 0 -2 2928.71 239.18
2 0 -2 3179.58 238.68
2 0 -2 3364.26 239.38
-2 0 2 2979.2 238.78
1 0 -2 808.42 67.59
1 0 -2 778.22 67.59
-1 0 2 973.9 67.59
-1 0 2 811.22 68.49
0 0 -2 916.91 66.69
0 0 -2 766.52 66.09
0 0 -2 806.22 65.99
0 0 -2 857.21 66.29
0 0 2 796.82 66.19
-1 0 -2 824.62 73.79
-1 0 -2 826.12 73.09
-1 0 -2 951.2 73.59
-1 0 -2 938.71 72.69
-1 0 -2 932.71 74.19
-1 0 -2 905.91 72.49
1 0 2 1030.3 74.19
2 0 2 4357.36 365.86
2 0 2 4875.61 367.86
-3 0 -2 201.28 21.7
-3 0 -2 220.28 20.2
3 0 2 245.68 24.4
3 0 2 228.18 21.3
3 0 2 229.38 23.1
3 0 2 228.58 23.8
4 0 2 3940.31 307.27
4 0 2 3431.16 308.07
4 0 2 4011.8 303.47
-5 0 -2 6.3 4.9
-5 0 -2 6.1 3.7
-5 0 -2 9.8 7.1
-5 0 -2 5.4 4.8
5 0 2 7.6 3.3
5 0 2 9.8 5.3
5 0 2 3 4.2
5 0 2 11.7 4.5
5 0 2 11.7 6.1
5 0 2 13.6 4.2
-6 0 -2 343.97 37.7
-6 0 -2 307.67 37.5
-6 0 -2 329.67 36
6 0 2 376.56 39.4
6 0 2 288.47 43.4
6 0 2 445.86 41
6 0 2 383.16 33.1
6 0 2 377.66 34.6
6 0 2 408.36 33.9
6 0 2 429.76 37.4
-7 0 -2 10 5.6
-7 0 -2 7.5 4.9
-7 0 -2 7.2 7
-7 0 -2 22.1 13.6
7 0 2 3.6 3.2
7 0 2 7.8 7.9
7 0 2 5.7 5.3
7 0 2 4.7 4.5
-8 0 -2 163.58 18.4
-8 0 -2 126.69 15.3
8 0 2 185.28 18.6
-9 1 2 63.99 11.4
-9 1 2 54.69 8.7
-9 1 2 41.8 7.1
8 -1 -2 2.9 4.1
8 -1 -2 -2.8 3.4
-8 1 2 3.5 3.5
-8 1 2 1.7 3.2
7 -1 -2 127.49 18.5
7 -1 -2 130.29 13.8
7 -1 -2 137.39 16.9
-7 1 2 124.09 15.7
-7 1 2 110.89 15
-7 1 2 95.09 12.5
6 -1 -2 38.3 9.9
6 -1 -2 41.1 9.1
6 -1 -2 35.8 8.6
6 -1 -2 58.59 10.7
6 -1 -2 39.8 7.1
6 -1 -2 42.6 7.3
-6 1 2 41.2 10.9
-6 1 2 40.9 6.9
-6 1 2 32.9 6.2
-6 1 2 35.1 7.5
-6 1 2 27.3 6.5
-6 1 2 31.3 5.9
-6 1 2 51.59 8.7
5 -1 -2 547.25 55.39
5 -1 -2 625.44 58.69
5 -1 -2 557.74 54.39
5 -1 -2 627.24 53.69
-5 1 2 693.23 53.79
-5 1 2 611.64 55.29
-5 1 2 704.63 53.19
-5 1 2 671.93 52.49
-5 1 2 643.84 54.49
4 -1 -2 774.22 74.29
4 -1 -2 753.62 70.89
-4 1 2 903.11 72.39
-4 1 2 924.11 73.19
-4 1 2 919.31 71.59
-4 1 2 955 71.29
3 -1 -2 123.29 13.2
3 -1 -2 142.59 17.2
3 -1 -2 152.48 13.7
3 -1 -2 111.09 14.3
3 -1 -2 149.59 15.2
-3 1 2 159.88 16.2
-3 1 2 153.18 14.2
-3 1 2 166.88 15
-3 1 2 150.98 13.9
2 -1 -2 1544.25 133.29
2 -1 -2 1650.43 133.89
2 -1 -2 1639.74 133.79
2 -1 -2 1556.34 132.89
2 -1 -2 1725.23 133.59
2 -1 -2 1618.04 132.69
-2 1 2 1770.52 132.99
-2 1 2 1711.93 134.79
-2 1 2 1759.22 133.49
1 -1 -2 193.38 16.2
1 -1 -2 200.08 15.8
1 -1 -2 154.18 15.5
1 -1 -2 191.08 16.3
1 -1 -2 181.68 16.8
-1 1 2 174.18 16.2
0 -1 -2 3097.39 244.48
0 1 2 3060.99 244.38
-1 -1 -2 2422.76 186.58
-1 -1 -2 2268.97 186.18
-1 -1 -2 2270.47 186.68
-1 -1 -2 2275.97 187.68
-1 -1 -2 2584.14 187.88
1 1 2 2294.17 187.88
-2 -1 -2 2841.82 219.98
-2 -1 -2 2695.43 218.68
-2 -1 -2 2779.32 220.38
-2 -1 -2 2679.43 218.58
-3 -1 -2 2077.39 168.38
-3 -1 -2 2060.79 167.78
-3 -1 -2 2125.79 169.68
-3 -1 -2 2153.88 171.18
-3 -1 -2 2057.29 168.18
-4 -1 -2 35.2 8.3
-4 -1 -2 28.9 7.6
-4 -1 -2 50.79 9.8
-4 -1 -2 57.79 11.2
-4 -1 -2 34.5 7.8
-4 -1 -2 33 6.4
-4 -1 -2 36.6 7.3
-4 -1 -2 34 6.5
4 1 2 51.89 9
4 1 2 44.1 7.5
4 1 2 48.7 7.6
4 1 2 16.6 10
-5 -1 -2 4.6 4.3
-5 -1 -2 13.6 5.4
-5 -1 -2 4.2 4.4
-5 -1 -2 8.1 6.7
-5 -1 -2 9.3 4.1
5 1 2 2.8 3.7
5 1 2 5 4.7
5 1 2 5.1 4.6
5 1 2 6.7 4.9
5 1 2 3.7 3.1
5 1 2 4.6 2.7
-6 -1 -2 1 12.7
-6 -1 -2 4.2 6.5
-6 -1 -2 5.8 4.6
-6 -1 -2 10.5 5
6 1 2 4.1 4.3
6 1 2 2.6 2.7
6 1 2 4.3 3
6 1 2 8.9 4.7
6 1 2 10 6.4
-7 -1 -2 2.6 3.3
-7 -1 -2 -0.3 3.5
7 1 2 -1 6.1
7 1 2 1.9 3.3
7 1 2 4.4 3.6
-8 -1 -2 6.3 6.5
-8 -1 -2 12.9 4.8
8 1 2 11.6 4.4
8 1 2 10.7 3.5
9 -2 -2 31.8 8
-9 2 2 21.5 6.3
-9 2 2 24.6 5.1
8 -2 -2 35.2 9.9
8 -2 -2 45.1 10.1
-8 2 2 31.6 7.4
-8 2 2 41.5 8.8
7 -2 -2 655.53 58.09
7 -2 -2 634.74 52.39
7 -2 -2 692.53 61.59
7 -2 -2 584.54 55.39
7 -2 -2 591.34 56.19
7 -2 -2 587.64 58.79
-7 2 2 582.94 54.89
-7 2 2 607.14 54.39
6 -2 -2 21.1 6.2
6 -2 -2 5.5 3.4
6 -2 -2 16.6 6.4
6 -2 -2 33 13.6
6 -2 -2 10.1 4.2
6 -2 -2 21.1 7.2
6 -2 -2 14.9 5.2
6 -2 -2 12.5 6.1
6 -2 -2 6.8 4.1
-6 2 2 12.1 4.9
-6 2 2 19.6 5.6
-6 2 2 14.4 5.2
-6 2 2 27.5 5.6
5 -2 -2 3431.56 290.37
5 -2 -2 3877.01 292.77
5 -2 -2 3091.49 286.97
-5 2 2 3966.6 286.77
4 -2 -2 249.78 23.6
4 -2 -2 195.08 20
4 -2 -2 209.38 21.9
4 -2 -2 186.68 21
4 -2 -2 181.08 20.8
4 -2 -2 196.88 22.1
4 -2 -2 246.88 20.3
-4 2 2 271.57 23.3
-4 2 2 238.58 20.8
-4 2 2 251.57 20.6
3 -2 -2 9829.52 744.53
3 -2 -2 9999 745.03
3 -2 -2 8465.05 746.03
2 -2 -2 826.12 70.29
2 -2 -2 835.62 68.59
2 -2 -2 897.81 69.19
-2 2 2 778.12 68.99
-2 2 2 897.01 70.59
1 -2 -2 7492.65 592.74
0 -2 -2 1340.27 113.09
0 -2 -2 1369.16 112.39
0 -2 -2 1359.16 111.49
0 -2 -2 1380.06 111.29
0 -2 -2 1484.65 111.89
0 -2 -2 1330.27 111.79
0 2 2 1479.75 111.99
0 2 2 1334.17 111.39
0 2 2 1385.06 112.59
0 2 2 1470.05 113.39
-1 -2 -2 4308.57 311.97
-1 -2 -2 4410.06 311.77
-1 -2 -2 3514.35 312.47
-1 -2 -2 4226.28 310.97
-1 -2 -2 4237.18 313.07
-1 -2 -2 4166.08 311.47
1 2 2 3528.55 315.27
1 2 2 3287.47 314.67
1 2 2 3657.13 311.37
-2 -2 -2 883.01 72.89
-2 -2 -2 842.82 72.39
-2 -2 -2 872.21 74.99
-2 -2 -2 873.01 73.59
-2 -2 -2 824.92 72.99
-2 -2 -2 863.41 73.29
-2 -2 -2 835.12 74.99
2 2 2 898.41 79.59
2 2 2 1041.5 82.79
2 2 2 1014.6 75.99
-3 -2 -2 606.94 55.69
-3 -2 -2 652.93 52.99
-3 -2 -2 619.34 56.59
-3 -2 -2 633.44 53.59
-3 -2 -2 644.74 52.39
-3 -2 -2 595.54 53.39
-4 -2 -2 802.82 71.39
-4 -2 -2 843.52 73.49
-4 -2 -2 896.81 76.79
-4 -2 -2 806.12 71.99
-4 -2 -2 862.71 78.39
-4 -2 -2 840.62 72.09
-4 -2 -2 831.62 74.29
-4 -2 -2 922.31 78.19
-4 -2 -2 1004.3 76.29
4 2 2 830.22 75.39
-5 -2 -2 94.29 21.9
-5 -2 -2 115.59 17.9
-5 -2 -2 137.79 18
-5 -2 -2 111.59 22.8
5 2 2 127.79 17.3
5 2 2 156.08 17.9
5 2 2 135.69 20.5
5 2 2 145.59 14.1
-6 -2 -2 247.98 26.3
-6 -2 -2 223.58 26.7
6 2 2 265.27 26.6
6 2 2 212.28 27.5
-7 -2 -2 5.7 4.9
7 2 2 9.7 5.9
10 -3 -2 4.6 2.5
-10 3 2 -0.5 2
-10 3 2 -0.1 1.7
9 -3 -2 193.58 21.6
9 -3 -2 187.58 19.7
-9 3 2 155.18 18.3
8 -3 -2 77.69 15.7
8 -3 -2 55.99 15.5
8 -3 -2 50.59 8.5
-8 3 2 75.99 10.7
-8 3 2 72.89 11
7 -3 -2 465.15 44.1
7 -3 -2 478.05 45.2
7 -3 -2 434.56 40.8
7 -3 -2 456.85 47
-7 3 2 503.75 42.8
-7 3 2 469.85 44.7
-7 3 2 469.35 43
6 -3 -2 461.95 41.4
6 -3 -2 450.35 40.4
6 -3 -2 417.86 41.5
6 -3 -2 396.16 39.5
6 -3 -2 379.46 38.4
6 -3 -2 426.26 42.7
-6 3 2 451.15 42.9
-6 3 2 489.65 39.6
-6 3 2 389.06 41.8
5 -3 -2 766.82 67.59
5 -3 -2 626.34 63.59
5 -3 -2 722.23 63.19
5 -3 -2 768.12 64.39
5 -3 -2 744.33 65.19
5 -3 -2 756.42 61.39
5 -3 -2 668.73 62.49
5 -3 -2 705.63 61.99
5 -3 -2 637.34 61.19
5 -3 -2 752.02 61.09
-5 3 2 792.22 62.29
-5 3 2 855.41 65.59
4 -3 -2 978.1 78.69
4 -3 -2 975.1 81.39
4 -3 -2 943.21 80.19
4 -3 -2 968.8 78.09
4 -3 -2 929.01 77.49
4 -3 -2 883.61 77.29
4 -3 -2 916.91 78.89
3 -3 -2 310.47 26.9
3 -3 -2 296.97 27
3 -3 -2 294.87 29.2
3 -3 -2 282.97 26.4
3 -3 -2 284.47 27.4
3 -3 -2 293.87 28.2
-3 3 2 334.57 28.3
-3 3 2 333.57 28.9
-3 3 2 288.97 26.8
2 -3 -2 2701.73 203.28
2 -3 -2 2740.33 204.08
2 -3 -2 2496.85 203.48
2 -3 -2 2598.84 204.98
2 -3 -2 2568.84 204.48
2 -3 -2 2681.53 206.58
2 -3 -2 2190.38 203.48
-2 3 2 2513.35 204.28
-2 3 2 2559.14 204.88
-2 3 2 2518.25 205.38
1 -3 -2 600.64 49.1
1 -3 -2 598.24 46.8
1 -3 -2 566.04 46.4
1 -3 -2 593.04 46.3
1 -3 -2 451.15 45.6
1 -3 -2 605.64 47.7
-1 3 2 511.45 47.5
0 -3 -2 512.45 41.8
0 -3 -2 494.85 41.9
0 -3 -2 502.45 41.6
0 -3 -2 499.35 43
0 -3 -2 484.55 42.5
0 -3 -2 460.45 43.7
0 3 2 511.55 43.8
0 3 2 506.25 44.7
-1 -3 -2 2008.6 150.78
-1 -3 -2 1703.33 151.88
-1 -3 -2 1989 149.69
-1 -3 -2 1854.51 150.28
-1 -3 -2 2073.49 149.39
-1 -3 -2 1947.01 149.19
-1 -3 -2 1939.01 151.68
1 3 2 1678.23 153.68
1 3 2 1506.85 154.58
-2 -3 -2 -5.2 4.7
-2 -3 -2 -0.6 2.3
-2 -3 -2 2.7 1.9
-2 -3 -2 3.4 2
-2 -3 -2 1.4 2.3
-2 -3 -2 0.6 2
2 3 2 -3.2 3.5
2 3 2 -11.9 6.1
2 3 2 -2.4 3
2 3 2 -3.5 7.2
2 3 2 2.5 4.8
-3 -3 -2 975.1 89.09
-3 -3 -2 1038.7 91.89
-3 -3 -2 1175.78 90.59
-3 -3 -2 984.4 86.79
-3 -3 -2 1060.89 87.19
-3 -3 -2 1119.19 93.09
-3 -3 -2 1020.9 92.19
-3 -3 -2 1072.09 86.99
-3 -3 -2 1128.29 88.69
3 3 2 944.51 89.89
-4 -3 -2 54.39 8.9
-4 -3 -2 46.4 8.5
-4 -3 -2 39.1 11.1
-4 -3 -2 56.79 10.8
-4 -3 -2 38.9 8.1
-4 -3 -2 68.09 10.1
-4 -3 -2 42.5 7.6
4 3 2 52.49 10.6
4 3 2 72.79 12.9
-5 -3 -2 171.48 23.3
-5 -3 -2 209.58 26.3
-5 -3 -2 222.68 21.3
-5 -3 -2 248.08 26
5 3 2 254.17 25.9
-6 -3 -2 36.6 8.6
-6 -3 -2 43.4 9.5
6 3 2 49 9.3
6 3 2 59.49 15.2
-7 -3 -2 12 4.2
7 3 2 13.5 3.8
10 -4 -2 21.8 5.2
9 -4 -2 0.9 2.2
9 -4 -2 -3.3 5.2
-9 4 2 2.7 2.9
8 -4 -2 8.8 6.3
8 -4 -2 1 4.3
8 -4 -2 -1.7 2.5
8 -4 -2 -1.9 6.4
8 -4 -2 -5.6 5.4
8 -4 -2 0.8 4
8 -4 -2 1.5 3.2
-8 4 2 -1.9 2.7
-8 4 2 -1.1 5.1
-8 4 2 0.5 3.1
7 -4 -2 26.9 8.8
7 -4 -2 7.9 4.7
7 -4 -2 6.7 5.2
7 -4 -2 15.2 6.8
7 -4 -2 12.3 4.5
7 -4 -2 5.7 7.1
7 -4 -2 23.8 7.2
-7 4 2 20.3 6.8
-7 4 2 17.2 5.5
-7 4 2 10.6 6.5
6 -4 -2 127.29 18
6 -4 -2 120.69 15.4
6 -4 -2 135.29 17.7
6 -4 -2 121.69 14.9
6 -4 -2 129.39 16.7
6 -4 -2 136.69 15
6 -4 -2 120.89 19.4
-6 4 2 144.09 16.3
-6 4 2 136.49 19.9
-6 4 2 118.99 17.7
-6 4 2 146.89 15.8
-6 4 2 152.18 17
5 -4 -2 260.17 28.1
5 -4 -2 243.98 26.6
5 -4 -2 278.07 27.9
5 -4 -2 278.27 30.5
5 -4 -2 272.57 27
5 -4 -2 275.97 29.1
5 -4 -2 255.77 26.6
-5 4 2 288.17 26.8
-5 4 2 321.97 28.7
-5 4 2 343.97 27.7
-5 4 2 334.07 31.9
4 -4 -2 21.9 5.1
4 -4 -2 12 3.9
4 -4 -2 14.2 5.4
4 -4 -2 12.4 3.9
4 -4 -2 19.1 5.5
-4 4 2 16.6 5.9
3 -4 -2 128.89 13.4
3 -4 -2 131.39 13.9
3 -4 -2 153.58 14
3 -4 -2 115.39 16.2
3 -4 -2 119.99 17
3 -4 -2 132.19 14.6
-3 4 2 145.39 16.2
-3 4 2 129.79 16.3
2 -4 -2 634.54 52.39
2 -4 -2 635.94 51.69
2 -4 -2 612.34 55.49
2 -4 -2 647.34 52.09
2 -4 -2 586.64 51.89
2 -4 -2 622.34 53.89
2 -4 -2 608.74 53.09
1 -4 -2 168.88 18.1
1 -4 -2 186.38 17
1 -4 -2 175.08 16.9
1 -4 -2 165.08 16.8
1 -4 -2 204.28 20.6
1 -4 -2 172.78 17.1
0 -4 -2 3 1.7
0 -4 -2 8.9 2.9
0 -4 -2 7.3 2.5
0 -4 -2 4.8 2.1
0 -4 -2 1.8 1.7
0 4 2 12 5.2
0 4 2 -1.1 2.9
0 4 2 0 2.2
-1 -4 -2 2 1.8
-1 -4 -2 10.5 8.1
-1 -4 -2 4.7 3.1
-1 -4 -2 9.9 3.1
-1 -4 -2 -0.2 2.9
-1 -4 -2 4.1 4
-1 -4 -2 2.9 2
-1 -4 -2 2.5 2.1
-1 -4 -2 4.1 2.4
1 4 2 4.1 4.8
1 4 2 6.6 5
-2 -4 -2 2.9 3.1
-2 -4 -2 -3.8 4.4
-2 -4 -2 3.6 3.1
-2 -4 -2 6 2.7
-2 -4 -2 2.7 3.8
-2 -4 -2 -1.6 4.5
-2 -4 -2 5.8 2.7
-2 -4 -2 6.3 3.1
2 4 2 12.2 7.6
2 4 2 -0.6 5.4
2 4 2 -5 5.8
2 4 2 8.4 4.5
-3 -4 -2 102.29 12.8
-3 -4 -2 89.09 11.7
-3 -4 -2 103.59 14.7
-3 -4 -2 111.69 13.3
-3 -4 -2 104.69 12.9
-3 -4 -2 107.79 13.6
3 4 2 80.09 14.2
-4 -4 -2 11.7 7.2
-4 -4 -2 22.8 7
-4 -4 -2 19 6.5
-4 -4 -2 20.4 4.9
-4 -4 -2 20.1 5.4
-4 -4 -2 22.1 7
4 4 2 32.2 12.4
4 4 2 27.2 7.3
4 4 2 4 11.5
4 4 2 23.5 7.3
4 4 2 39.9 12.2
-5 -4 -2 53.39 8.2
-5 -4 -2 67.79 12.1
5 4 2 86.99 12.1
5 4 2 84.59 14.9
-6 -4 -2 9.4 3.3
-6 -4 -2 8.8 4.5
6 4 2 5.9 3.2
-10 5 2 2.1 2.1
9 -5 -2 104.49 16.3
9 -5 -2 78.79 8.1
-9 5 2 67.09 10.5
-9 5 2 55.89 12
8 -5 -2 52.39 11.3
8 -5 -2 41.3 8.4
8 -5 -2 58.39 10.9
8 -5 -2 41.5 10.1
8 -5 -2 53.79 8
8 -5 -2 25.6 9.5
8 -5 -2 29.7 10.7
-8 5 2 42.8 8.7
-8 5 2 47.6 8.2
7 -5 -2 177.98 21.8
7 -5 -2 135.79 18.9
7 -5 -2 157.28 18.4
7 -5 -2 152.48 22.8
7 -5 -2 201.58 24.7
7 -5 -2 203.18 21.3
-7 5 2 196.08 20.1
-7 5 2 174.68 23.5
-7 5 2 153.18 23.2
-7 5 2 187.88 19.2
-7 5 2 165.58 23.7
6 -5 -2 5.1 4.4
6 -5 -2 1.1 3.7
6 -5 -2 8.3 4
6 -5 -2 -3.1 3.7
6 -5 -2 5.6 5.3
6 -5 -2 -0.9 4.8
6 -5 -2 1.2 3
-6 5 2 -9.6 6.2
-6 5 2 1.6 5.2
-6 5 2 4.7 3.5
5 -5 -2 26.7 7.4
5 -5 -2 21.2 5.9
5 -5 -2 26.7 7.9
5 -5 -2 33.6 6.5
5 -5 -2 29 6.9
5 -5 -2 31.6 6.8
5 -5 -2 24.4 6.2
-5 5 2 38.2 11.2
-5 5 2 29.8 7.5
-5 5 2 34.1 10.5
-5 5 2 31 6.3
-5 5 2 42.7 8.2
-5 5 2 19.5 10.9
4 -5 -2 147.59 16.6
4 -5 -2 147.39 16.3
4 -5 -2 150.38 19
4 -5 -2 168.98 16.7
4 -5 -2 155.08 20.9
4 -5 -2 155.88 17.8
4 -5 -2 131.59 16.3
-4 5 2 159.18 21.3
-4 5 2 183.28 22.5
-4 5 2 149.69 16.2
3 -5 -2 1421.86 116.49
3 -5 -2 1438.86 119.19
3 -5 -2 1215.88 114.19
3 -5 -2 1485.85 115.09
3 -5 -2 1389.06 114.89
3 -5 -2 1428.86 115.39
3 -5 -2 1368.66 117.79
-3 5 2 1503.95 116.19
2 -5 -2 118.69 13.1
2 -5 -2 115.79 13.9
2 -5 -2 109.49 12.7
2 -5 -2 119.39 12.7
2 -5 -2 101.49 14.2
2 -5 -2 121.89 12.6
-2 5 2 130.99 13.7
1 -5 -2 1123.49 95.19
1 -5 -2 1098.09 92.59
1 -5 -2 1218.98 93.59
1 -5 -2 1084.19 95.19
1 -5 -2 1204.38 92.99
-1 5 2 1180.98 101.89
-1 5 2 984.1 96.09
0 -5 -2 350.56 31.1
0 -5 -2 357.36 33.5
0 -5 -2 356.16 31.3
0 -5 -2 392.66 31.2
0 -5 -2 286.97 30.7
0 -5 -2 374.96 31.6
0 -5 -2 316.97 33
0 5 2 292.07 31.6
0 5 2 375.36 33.7
0 5 2 284.77 32.9
-1 -5 -2 604.24 47.6
-1 -5 -2 587.04 47.6
-1 -5 -2 538.35 46.2
-1 -5 -2 462.55 48.4
-1 -5 -2 420.96 50.79
-1 -5 -2 528.85 48.8
-1 -5 -2 534.15 46.1
-1 -5 -2 551.94 46.6
1 5 2 477.45 49
-2 -5 -2 21.1 6.2
-2 -5 -2 37.2 9.1
-2 -5 -2 54.39 13.4
-2 -5 -2 20.7 5.9
2 5 2 50.59 17.2
2 5 2 23.7 10.7
2 5 2 30.8 8.6
-3 -5 -2 684.13 60.59
-3 -5 -2 697.23 57.19
-3 -5 -2 596.24 61.69
-3 -5 -2 656.93 58.09
-3 -5 -2 559.54 57.49
-3 -5 -2 697.83 59.69
-3 -5 -2 621.54 56.59
3 5 2 682.03 60.99
3 5 2 716.93 64.49
-4 -5 -2 171.68 20.5
-4 -5 -2 156.68 17
-4 -5 -2 157.28 21.7
4 5 2 184.38 20.6
4 5 2 197.68 21.5
-5 -5 -2 143.89 17.8
-5 -5 -2 149.88 22.4
5 5 2 215.68 22.8
5 5 2 186.88 18.7
9 -6 -2 1.3 1.8
9 -6 -2 0 3.3
9 -6 -2 -3.4 3.2
-9 6 2 -2.9 2.1
-9 6 2 1.1 4.4
-9 6 2 4.2 2.3
8 -6 -2 52.59 13
8 -6 -2 24.1 7.7
8 -6 -2 34.9 6.8
8 -6 -2 36.8 6.9
8 -6 -2 23.6 7.8
-8 6 2 18.7 8.6
-8 6 2 26.1 7.6
-8 6 2 31.2 6.3
7 -6 -2 290.17 34.9
7 -6 -2 221.68 23.7
7 -6 -2 213.08 22.6
7 -6 -2 222.58 29.2
-7 6 2 202.98 29.6
-7 6 2 166.38 32.4
6 -6 -2 666.53 53.79
6 -6 -2 508.25 52.29
6 -6 -2 607.64 56.19
6 -6 -2 550.14 51.89
6 -6 -2 600.14 55.09
6 -6 -2 578.14 54.19
-6 6 2 656.53 52.89
-6 6 2 691.63 55.59
-6 6 2 500.85 61.09
5 -6 -2 278.77 31.3
5 -6 -2 327.47 31
5 -6 -2 324.17 30.9
5 -6 -2 352.66 33.8
5 -6 -2 327.37 32
5 -6 -2 331.67 33.9
5 -6 -2 350.26 31.7
-5 6 2 281.77 44.1
-5 6 2 344.67 46.7
-5 6 2 326.77 30.7
4 -6 -2 870.21 74.49
4 -6 -2 815.32 71.79
4 -6 -2 872.51 72.29
4 -6 -2 896.51 75.49
4 -6 -2 824.12 72.89
4 -6 -2 858.11 72.59
-4 6 2 826.42 71.89
3 -6 -2 2.4 2.3
3 -6 -2 12 3.7
3 -6 -2 1.4 2.4
3 -6 -2 5 2.6
3 -6 -2 14.5 4.3
-3 6 2 6.1 8.8
-3 6 2 1 4.5
-3 6 2 2.4 3
2 -6 -2 928.71 79.49
2 -6 -2 916.41 81.59
2 -6 -2 898.81 78.69
2 -6 -2 926.01 79.69
2 -6 -2 914.21 78.89
2 -6 -2 986.7 79.09
2 -6 -2 950.1 81.29
-2 6 2 1026 80.39
1 -6 -2 65.29 9
1 -6 -2 43.4 9.9
1 -6 -2 38.9 8.4
1 -6 -2 53.79 8.4
1 -6 -2 46.9 8.2
1 -6 -2 48.4 7.6
-1 6 2 52.99 9.8
-1 6 2 42.8 9.3
-1 6 2 75.39 15.7
0 -6 -2 2864.11 224.38
0 -6 -2 2674.93 224.08
0 -6 -2 2883.71 225.38
0 -6 -2 2764.02 225.28
0 -6 -2 2709.23 225.18
0 -6 -2 2551.24 226.98
0 6 2 3074.59 244.38
0 6 2 2825.42 228.18
-1 -6 -2 343.27 29.9
-1 -6 -2 316.17 30.3
-1 -6 -2 322.67 32.7
1 6 2 247.58 31.9
-2 -6 -2 828.32 75.59
-2 -6 -2 792.72 69.19
-2 -6 -2 763.92 74.49
-3 -6 -2 19 4.8
-3 -6 -2 19 6.3
-3 -6 -2 16.6 11.3
-3 -6 -2 4.8 6.1
-3 -6 -2 30.9 6
3 6 2 30.3 8
3 6 2 46.6 12.4
-4 -6 -2 58.19 7.6
-4 -6 -2 64.99 10
9 -7 -2 61.19 8.5
-9 7 2 57.89 7.2
8 -7 -2 20.9 4.8
8 -7 -2 13.5 5
8 -7 -2 7.7 5.9
8 -7 -2 10.6 4.8
-8 7 2 7.2 4.6
-8 7 2 12.5 7.2
-8 7 2 14.9 4.1
7 -7 -2 160.08 20.5
7 -7 -2 175.38 21.7
7 -7 -2 200.68 22.3
7 -7 -2 198.28 19.6
-7 7 2 229.88 22.4
-7 7 2 143.49 25.5
-7 7 2 202.28 19.8
6 -7 -2 130.79 25.2
6 -7 -2 134.69 15.9
6 -7 -2 133.09 20.6
6 -7 -2 125.59 16.7
6 -7 -2 160.78 19.5
-6 7 2 87.59 30.2
-6 7 2 151.28 19.1
-6 7 2 89.59 26.4
-6 7 2 177.28 22.7
5 -7 -2 173.68 21
5 -7 -2 155.18 18.7
5 -7 -2 155.38 20.3
5 -7 -2 168.38 19.3
5 -7 -2 149.39 17.7
5 -7 -2 147.59 18.9
-5 7 2 201.08 24.8
-5 7 2 177.08 18.4
4 -7 -2 58.99 12.2
4 -7 -2 88.29 12.6
4 -7 -2 74.69 10.4
4 -7 -2 90.19 11.9
4 -7 -2 67.79 10.2
4 -7 -2 85.69 11.2
-4 7 2 49.4 15.5
-4 7 2 75.99 10.8
3 -7 -2 65.39 9.9
3 -7 -2 74.69 11.9
3 -7 -2 57.59 9.6
3 -7 -2 71.99 9.7
3 -7 -2 58.89 10.8
3 -7 -2 63.99 9.9
-3 7 2 84.69 10.8
-3 7 2 54.29 18.8
2 -7 -2 120.49 17.3
2 -7 -2 152.38 16.4
2 -7 -2 179.08 18.3
2 -7 -2 141.39 16.2
2 -7 -2 143.49 17
2 -7 -2 164.48 19.2
2 -7 -2 151.88 18.7
-2 7 2 131.99 19.6
-2 7 2 174.78 18.5
-2 7 2 120.09 20.4
1 -7 -2 8.3 4.2
1 -7 -2 10.1 4
1 -7 -2 17.1 5.8
1 -7 -2 16.9 6.6
1 -7 -2 14.6 4.5
1 -7 -2 13.2 4.9
1 -7 -2 12.6 5.4
-1 7 2 36.9 11.4
-1 7 2 15 5.8
0 -7 -2 26.5 7.8
0 -7 -2 35.6 7.1
0 -7 -2 21.9 7.4
0 -7 -2 22.5 5.3
0 -7 -2 22.1 7.5
0 -7 -2 31.9 5.8
0 -7 -2 13.5 6.7
0 7 2 13.3 8.1
0 7 2 14.2 10
0 7 2 13.8 6.4
-1 -7 -2 1.4 3.5
-1 -7 -2 24.9 7.8
1 7 2 8.8 9.9
1 7 2 10.2 5.3
-2 -7 -2 8.3 4.9
-2 -7 -2 12.3 3.8
-2 -7 -2 6.4 3
-2 -7 -2 0.9 5
2 7 2 9 4.2
2 7 2 13.8 9.3
2 7 2 6.8 4.4
-3 -7 -2 73.09 11
-3 -7 -2 86.69 9.6
3 7 2 99.59 15.4
3 7 2 100.19 11.5
8 -8 -2 261.87 23.7
8 -8 -2 212.88 21.5
-8 8 2 247.08 22.9
7 -8 -2 85.89 10.5
7 -8 -2 66.29 9.8
7 -8 -2 55.09 10.9
7 -8 -2 86.19 11.5
-7 8 2 74.59 12.9
-7 8 2 88.79 12.3
-7 8 2 74.39 16.6
6 -8 -2 492.45 44.7
6 -8 -2 499.25 41.6
6 -8 -2 413.96 42.6
6 -8 -2 450.05 41.9
6 -8 -2 474.45 43.6
5 -8 -2 241.88 26.1
5 -8 -2 265.47 28.2
5 -8 -2 271.77 26
5 -8 -2 278.97 28.4
5 -8 -2 220.78 26.4
-5 8 2 324.67 27.2
4 -8 -2 327.17 33.4
4 -8 -2 372.36 33.7
4 -8 -2 338.37 35.7
4 -8 -2 348.57 35.9
4 -8 -2 371.86 35.1
-4 8 2 406.66 35
3 -8 -2 117.29 13.4
3 -8 -2 88.79 14.2
3 -8 -2 115.29 16
3 -8 -2 99.29 13.8
3 -8 -2 107.69 14.5
3 -8 -2 113.09 13.1
-3 8 2 116.19 14.7
-3 8 2 71.39 25.9
2 -8 -2 199.78 19.9
2 -8 -2 186.78 22
2 -8 -2 200.98 20
2 -8 -2 168.48 20.2
2 -8 -2 191.08 22.4
-2 8 2 143.89 32.7
-2 8 2 206.58 22.2
1 -8 -2 51.09 11.2
1 -8 -2 57.69 12.4
1 -8 -2 39.5 8.4
1 -8 -2 51.19 8.4
1 -8 -2 64.99 9.1
-1 8 2 43.5 10.8
-1 8 2 84.89 16.6
-1 8 2 67.99 17.8
0 -8 -2 12.6 3.9
0 -8 -2 7.3 3.4
0 -8 -2 11.6 5.6
0 -8 -2 2.4 7.1
0 -8 -2 4.7 3.4
0 8 2 17.7 8
0 8 2 16.6 9.1
0 8 2 6.9 4.8
-1 -8 -2 4.4 2.7
-1 -8 -2 1 2.4
-1 -8 -2 -3.3 3
1 8 2 -0.3 3.3
1 8 2 3.9 5.1
1 8 2 -3.3 2.9
-2 -8 -2 35.6 5
2 8 2 42 9.7
2 8 2 30.3 6
7 -9 -2 4.7 2.8
7 -9 -2 8.3 2.8
7 -9 -2 2.9 3.2
-7 9 2 2.8 4.8
-7 9 2 8.8 4.2
6 -9 -2 41.9 6.6
6 -9 -2 41.5 8.1
6 -9 -2 38.5 6.4
6 -9 -2 45.9 7.4
-6 9 2 25.4 8
5 -9 -2 1.4 3.7
5 -9 -2 0.2 3.8
5 -9 -2 3.6 2.9
5 -9 -2 -0.6 2.4
-5 9 2 0.5 5.4
-5 9 2 -4.7 3.7
-5 9 2 4.8 3.9
-5 9 2 1 3.8
4 -9 -2 38.4 10
4 -9 -2 42.2 6.8
4 -9 -2 27.5 6.8
4 -9 -2 44.8 7
-4 9 2 31.8 9.4
-4 9 2 51.99 16.6
-4 9 2 38.3 11.9
-4 9 2 23.4 7.8
3 -9 -2 3.6 2.9
3 -9 -2 3.7 3.1
3 -9 -2 4.6 2.8
3 -9 -2 8.1 7.7
-3 9 2 4.8 6.9
-3 9 2 -1.8 6
2 -9 -2 17.6 5.7
2 -9 -2 10.1 3.7
2 -9 -2 15.7 5.8
2 -9 -2 11.5 3.9
-2 9 2 25 12.5
-2 9 2 15.4 5.3
-2 9 2 21.1 9.8
1 -9 -2 21.4 7.3
1 -9 -2 28.5 5.4
1 -9 -2 25.7 5.4
1 -9 -2 32.6 7.6
-1 9 2 18.7 6.4
-1 9 2 37.5 7.3
-1 9 2 39.4 10.5
0 -9 -2 7.9 4.7
0 -9 -2 8.5 3.6
0 -9 -2 7.5 2.4
0 9 2 12.6 5
0 9 2 12.5 4.4
5 -10 -2 124.09 14.9
5 -10 -2 141.89 13.5
5 -10 -2 146.89 14.8
4 -10 -2 53.59 7.9
-4 10 2 50.19 13.9
-4 10 2 54.69 11.4
3 -10 -2 165.48 17
3 -10 -2 198.28 18.8
-3 10 2 185.58 22
-4 11 -3 3.5 4.2
-4 11 -3 3 4.6
4 -11 3 3.1 4.2
0 -10 3 131.89 14.8
1 -10 3 128.29 14.2
1 -10 3 125.29 13.9
-2 10 -3 215.78 24.7
-2 10 -3 225.98 30.5
-3 10 -3 318.47 35.5
-3 10 -3 310.97 46.5
-4 10 -3 67.29 12.1
-4 10 -3 81.39 18
-4 10 -3 122.99 25.5
4 -10 3 83.19 10.7
4 -10 3 93.59 11.1
4 -10 3 97.89 11.9
-5 10 -3 183.88 24.3
5 -10 3 193.28 21.5
5 -10 3 233.98 22.3
-6 10 -3 2 3.6
-6 10 -3 -2.2 4.2
-6 10 -3 -0.8 2.9
6 -10 3 -0.7 3.5
6 -10 3 2 2
2 9 -3 3.8 3.3
-2 -9 3 4.4 2.3
-2 -9 3 7.9 2.4
-1 -9 3 103.29 15.6
-1 -9 3 92.29 11.2
-1 -9 3 94.39 11.4
0 9 -3 3.6 4.1
0 9 -3 11.8 8.7
0 9 -3 1 11.1
0 -9 3 7.2 3.6
0 -9 3 0.4 4.4
0 -9 3 6 3
-1 9 -3 110.89 15.5
-1 9 -3 120.69 24.2
1 -9 3 85.89 15
1 -9 3 88.19 12.1
1 -9 3 106.69 13
1 -9 3 91.89 13.2
2 -9 3 228.68 24.1
2 -9 3 262.17 28.1
2 -9 3 241.48 24.2
2 -9 3 215.18 26.1
-3 9 -3 -3.8 7.4
-3 9 -3 3.2 5.7
-3 9 -3 5.3 4.8
-3 9 -3 1.5 5.1
-3 9 -3 4.4 4.7
3 -9 3 3.4 4.2
3 -9 3 5.3 5.7
3 -9 3 6.6 2.9
3 -9 3 3.2 2.4
-4 9 -3 194.68 30.3
-4 9 -3 211.48 27.1
-4 9 -3 253.27 38.3
4 -9 3 232.88 23.4
4 -9 3 206.28 22.9
4 -9 3 280.17 26.6
-5 9 -3 29.5 7.3
-5 9 -3 24.6 10.9
-5 9 -3 11.9 5.9
-5 9 -3 36.9 11.8
5 -9 3 8.1 12.7
5 -9 3 20.4 5.1
5 -9 3 16.4 4.9
5 -9 3 29 6
-6 9 -3 67.59 13.3
6 -9 3 73.39 9.9
6 -9 3 85.79 11.1
-7 9 -3 0.1 5.1
-7 9 -3 4.6 4.5
-7 9 -3 4.9 7
-7 9 -3 3 4.4
7 -9 3 2 2.4
7 -9 3 -0.1 2.6
-8 9 -3 82.19 11.4
-8 9 -3 39 12.3
8 -9 3 74.59 9.2
8 -9 3 55.79 7.5
3 8 -3 -3.3 2.2
-3 -8 3 0.3 1.3
-3 -8 3 5.3 4.6
-3 -8 3 3 2.2
-2 -8 3 39.7 7
-2 -8 3 42.1 7.3
-2 -8 3 36.3 6.2
-2 -8 3 32 8.8
-1 -8 3 98.59 14
-1 -8 3 103.19 13.5
-1 -8 3 141.59 14.8
0 -8 3 95.89 18.5
0 -8 3 89.59 11.5
0 -8 3 84.59 12.1
0 -8 3 56.99 12.9
0 -8 3 109.89 15.4
-1 8 -3 172.98 21
-1 8 -3 151.38 26.3
-1 8 -3 193.38 30.2
-1 8 -3 157.78 25.6
1 -8 3 156.18 16.6
1 -8 3 139.89 18.1
1 -8 3 121.29 17
1 -8 3 140.49 19.7
-2 8 -3 108.89 17.7
-2 8 -3 165.38 19
-2 8 -3 142.49 21
-2 8 -3 88.49 22.2
2 -8 3 151.68 14.8
2 -8 3 127.69 15.8
2 -8 3 117.79 14.6
-3 8 -3 65.99 17.3
-3 8 -3 69.29 12.1
-3 8 -3 57.09 12.3
-3 8 -3 67.09 15
3 -8 3 57.39 9.1
3 -8 3 82.69 11
3 -8 3 77.39 9.5
3 -8 3 70.09 11.7
-4 8 -3 159.78 28.8
-4 8 -3 115.99 21.2
-4 8 -3 131.89 24
-4 8 -3 200.68 21.4
-4 8 -3 155.58 24.8
4 -8 3 196.08 18.8
4 -8 3 177.18 20.5
4 -8 3 155.28 17.4
-5 8 -3 421.76 49.6
-5 8 -3 427.46 53.99
-5 8 -3 402.16 45.1
-5 8 -3 473.75 50.79
5 -8 3 407.36 39.7
5 -8 3 473.05 41.3
5 -8 3 448.26 42.3
-6 8 -3 347.27 40.8
-6 8 -3 302.07 35.4
-6 8 -3 315.87 34.6
6 -8 3 232.78 26.7
-7 8 -3 62.49 14.9
7 -8 3 42 7.3
7 -8 3 30.1 6.9
7 -8 3 32 8.4
7 -8 3 51.79 7.4
-8 8 -3 23.2 6.1
-8 8 -3 16.8 9.4
8 -8 3 18.6 4.7
8 -8 3 28.6 5.1
8 -8 3 15.2 5.6
-9 8 -3 10.8 4.4
9 -8 3 15.2 3.4
9 -8 3 13.3 2.7
4 7 -3 120.09 15.8
-4 -7 3 116.69 14.2
-4 -7 3 82.79 12.7
-4 -7 3 111.59 11.6
3 7 -3 10.7 5.9
3 7 -3 7.5 14
3 7 -3 8.9 6
-3 -7 3 -3.6 4.3
-3 -7 3 4.9 3.1
-3 -7 3 3.6 2.2
-3 -7 3 4.2 3
-2 -7 3 202.78 27.3
-2 -7 3 237.68 25.3
-2 -7 3 278.07 25.5
-2 -7 3 226.08 23.6
-2 -7 3 266.17 27.2
-2 -7 3 237.38 27.4
1 7 -3 7.4 6.7
1 7 -3 -2.3 4.7
1 7 -3 0.3 6.6
1 7 -3 4.7 5.7
1 7 -3 38.4 20.1
-1 -7 3 -1 2.1
-1 -7 3 -3.1 3
-1 -7 3 -0.3 7.2
-1 -7 3 3.9 2.7
-1 -7 3 9.6 4.9
-1 -7 3 -2.1 3.3
0 7 -3 863.31 72.79
0 7 -3 773.32 74.49
0 -7 3 774.62 64.49
0 -7 3 702.33 64.89
0 -7 3 703.23 65.19
-1 7 -3 93.49 25.8
-1 7 -3 65.59 11.2
-1 7 -3 53.39 11.9
-1 7 -3 62.09 19.2
-1 7 -3 55.29 13.5
-1 7 -3 63.59 11.7
1 -7 3 69.79 8.7
1 -7 3 60.99 9.4
1 -7 3 66.99 8.8
1 -7 3 55.69 8.9
-2 7 -3 408.96 49.6
-2 7 -3 566.14 53.09
-2 7 -3 529.55 48.5
-2 7 -3 496.85 49.2
2 -7 3 510.45 43.1
2 -7 3 480.85 44.3
2 -7 3 499.55 43.4
-3 7 -3 14.8 7.2
-3 7 -3 2.5 4.1
-3 7 -3 0.1 3.4
-3 7 -3 18.4 7.5
-3 7 -3 -2.7 6.4
-3 7 -3 -1.4 5.9
-3 7 -3 3 4.6
3 -7 3 -2.4 2.4
3 -7 3 -0.1 1.9
3 -7 3 17 5.5
3 -7 3 4.5 3.4
-4 7 -3 1977.4 167.48
-4 7 -3 1724.83 168.88
-4 7 -3 2034.3 164.38
-4 7 -3 1939.41 172.08
-4 7 -3 1789.82 166.88
4 -7 3 2168.58 159.88
4 -7 3 2022.1 162.28
4 -7 3 2065.69 159.08
4 -7 3 1856.71 158.58
-5 7 -3 18.1 9
-5 7 -3 13.6 8.3
-5 7 -3 10.9 5
-5 7 -3 4.5 7.6
-5 7 -3 18.9 9.5
-5 7 -3 21.7 9.2
5 -7 3 9.4 4.5
5 -7 3 18.8 7
5 -7 3 16.5 6.6
5 -7 3 4.5 7.4
-6 7 -3 1013.7 89.19
6 -7 3 888.31 77.99
6 -7 3 898.11 77.19
6 -7 3 908.11 84.49
6 -7 3 880.81 78.49
-7 7 -3 30.9 12.8
-7 7 -3 47.5 10.6
7 -7 3 19.5 5.6
7 -7 3 27.2 7.2
7 -7 3 32 8.1
7 -7 3 43.3 7.7
-8 7 -3 77.39 13.8
-8 7 -3 102.09 13.9
8 -7 3 66.79 10.5
8 -7 3 75.59 10.5
8 -7 3 83.39 10.2
8 -7 3 77.19 11.5
-9 7 -3 13.7 5.4
9 -7 3 15.9 3.8
9 -7 3 13.2 3.6
9 -7 3 24.3 4.7
5 6 -3 43.3 8.5
-5 -6 3 64.19 9
-5 -6 3 41.5 6.2
-5 -6 3 44.5 6.6
4 6 -3 -2.9 3.1
4 6 -3 4.4 9.7
4 6 -3 1.7 3.9
-4 -6 3 -0.3 2.7
-4 -6 3 1.1 3.2
-4 -6 3 3.3 2.8
-4 -6 3 -3.6 2.1
3 6 -3 5 4.6
3 6 -3 -11.9 14.7
3 6 -3 8.2 6.2
-3 -6 3 6.2 3
-3 -6 3 5.2 5.4
-3 -6 3 -0.2 2.3
-3 -6 3 2.7 2.9
-3 -6 3 16.6 5.6
2 6 -3 19.3 10.6
2 6 -3 20.1 16.5
2 6 -3 17.1 8.8
2 6 -3 1.9 6.9
-2 -6 3 21.8 5.1
-2 -6 3 15 4.8
-2 -6 3 5.4 6.3
-2 -6 3 14.5 7.1
1 6 -3 319.67 34.5
1 6 -3 313.27 34.3
1 6 -3 285.97 44.8
1 6 -3 224.88 37.2
-1 -6 3 295.67 28.6
-1 -6 3 323.17 28.5
-1 -6 3 276.57 31.4
-1 -6 3 324.67 27.8
-1 -6 3 291.47 28.6
0 6 -3 78.49 15
0 6 -3 88.59 16.4
0 6 -3 96.49 14.9
0 6 -3 72.29 18.2
0 6 -3 68.99 11.5
0 6 -3 99.69 20.6
0 -6 3 104.59 11.4
0 -6 3 113.69 10.8
0 -6 3 102.79 10.9
0 -6 3 70.69 14.1
0 -6 3 100.09 13.5
0 -6 3 104.69 12.4
-1 6 -3 1056.49 83.69
-1 6 -3 873.71 76.59
-1 6 -3 838.52 82.69
-1 6 -3 717.03 76.39
-1 6 -3 778.62 78.09
1 -6 3 1018.1 72.79
1 -6 3 869.51 74.49
-2 6 -3 7.4 4.8
-2 6 -3 6.1 4.7
-2 6 -3 4.6 5.4
-2 6 -3 9.4 8.2
-2 6 -3 10.3 8.9
-2 6 -3 17.3 9.1
2 -6 3 7.9 2.6
2 -6 3 4.9 2.4
2 -6 3 18.1 6.1
2 -6 3 8.2 3.1
-3 6 -3 760.92 64.19
-3 6 -3 623.54 63.69
-3 6 -3 745.43 63.49
-3 6 -3 648.54 65.39
-3 6 -3 622.64 68.09
-3 6 -3 796.92 67.39
-3 6 -3 652.83 64.59
3 -6 3 693.03 58.39
3 -6 3 728.13 58.39
3 -6 3 714.53 60.99
3 -6 3 695.73 62.29
3 -6 3 677.33 58.59
-4 6 -3 785.12 71.39
-4 6 -3 692.53 68.99
-4 6 -3 828.82 69.29
-4 6 -3 738.73 69.89
-4 6 -3 647.84 71.79
-4 6 -3 718.63 72.19
-4 6 -3 749.23 73.69
4 -6 3 763.92 64.19
4 -6 3 779.22 65.09
4 -6 3 835.72 67.29
4 -6 3 818.32 69.59
4 -6 3 839.62 64.99
-5 6 -3 29.5 5.7
-5 6 -3 41 8.5
-5 6 -3 34.3 9.4
-5 6 -3 44.1 12.6
-5 6 -3 40.7 12.4
-5 6 -3 36 10
-5 6 -3 33.9 10.1
-5 6 -3 29.2 7.8
5 -6 3 33.9 6.8
5 -6 3 43.8 12.8
5 -6 3 46.7 9
-6 6 -3 676.23 58.79
-6 6 -3 722.13 69.19
6 -6 3 727.23 64.49
6 -6 3 678.93 57.09
6 -6 3 610.94 57.49
6 -6 3 623.94 58.79
6 -6 3 676.13 57.79
6 -6 3 571.34 57.79
-7 6 -3 2.5 5.9
-7 6 -3 5 10.7
-7 6 -3 8.9 8.3
-7 6 -3 12.3 6.6
-7 6 -3 4 4.9
7 -6 3 13.4 7.6
7 -6 3 7.1 4
-8 6 -3 373.56 37.4
-8 6 -3 446.46 38.6
-8 6 -3 338.07 45.1
-8 6 -3 470.15 37.5
8 -6 3 409.76 35.7
8 -6 3 367.16 42
8 -6 3 386.16 37.4
8 -6 3 388.96 36.7
8 -6 3 389.86 37.7
-9 6 -3 -1.7 2.6
9 -6 3 -0.1 2.6
9 -6 3 -1.3 2.2
9 -6 3 0.2 2.4
9 -6 3 2.7 5.5
6 5 -3 1.3 2.8
6 5 -3 4.8 2.6
6 5 -3 3.7 6.1
-6 -5 3 -1.3 1.9
-6 -5 3 0.3 1.8
-6 -5 3 -2.1 2.6
5 5 -3 8.2 4.6
5 5 -3 16.9 12
5 5 -3 8.8 5
-5 -5 3 7 4.6
-5 -5 3 8.3 3.6
-5 -5 3 5.4 2.9
4 5 -3 17.9 6.7
4 5 -3 17.1 17
4 5 -3 20.5 7.4
-4 -5 3 26.5 7.4
-4 -5 3 14.2 5.2
-4 -5 3 13.3 5.8
-4 -5 3 16 4.9
-4 -5 3 11.6 4.3
3 5 -3 41.7 11.5
3 5 -3 42.7 25.2
3 5 -3 36.2 10.3
-3 -5 3 44.1 11.1
-3 -5 3 46.4 7.6
2 5 -3 194.18 25.1
2 5 -3 257.07 32.7
2 5 -3 200.08 37.4
-2 -5 3 214.68 24.1
-2 -5 3 246.38 23.4
-2 -5 3 189.18 27.7
-2 -5 3 237.88 26.8
-2 -5 3 253.97 22.9
-2 -5 3 270.07 22.5
1 5 -3 89.09 11.5
1 5 -3 98.69 25.3
1 5 -3 129.19 19.5
1 5 -3 86.49 17.1
-1 -5 3 92.29 13.2
-1 -5 3 76.79 13.7
-1 -5 3 99.29 10.4
-1 -5 3 105.39 10.9
-1 -5 3 109.69 11.7
0 5 -3 546.45 51.69
0 -5 3 628.84 52.09
0 -5 3 666.43 49.4
0 -5 3 628.94 50.19
0 -5 3 489.05 52.39
-1 5 -3 152.68 18
1 -5 3 165.38 16.1
1 -5 3 164.68 16
1 -5 3 167.28 14.6
1 -5 3 149.79 17.4
1 -5 3 175.58 15.3
-2 5 -3 55.29 9.3
2 -5 3 35.8 4.6
2 -5 3 40.5 4.5
2 -5 3 49.4 6
2 -5 3 44.2 6.3
2 -5 3 48.2 5.1
-3 5 -3 100.59 15.8
3 -5 3 91.89 11.3
3 -5 3 92.49 9.7
3 -5 3 90.09 9.7
3 -5 3 90.59 11.8
-4 5 -3 149.69 18.6
-4 5 -3 139.89 20.5
-4 5 -3 136.79 15.5
-4 5 -3 158.48 20.8
-4 5 -3 164.78 23.1
-4 5 -3 151.38 19.2
-4 5 -3 160.08 21.7
4 -5 3 166.88 16.2
4 -5 3 144.19 14.9
4 -5 3 184.58 18.6
4 -5 3 169.28 17.1
4 -5 3 171.58 16.2
-5 5 -3 30.2 9.5
-5 5 -3 38.7 10.1
-5 5 -3 22.4 6.6
-5 5 -3 25.5 9.2
-5 5 -3 28.4 9.6
-5 5 -3 26.6 10.5
5 -5 3 21.5 6.2
5 -5 3 11.8 5.9
5 -5 3 10 6.1
5 -5 3 22 5.3
5 -5 3 13.1 4.4
-6 5 -3 150.48 20.3
-6 5 -3 118.09 24.4
-6 5 -3 156.68 21.1
-6 5 -3 140.29 23.9
6 -5 3 103.09 14.4
6 -5 3 132.09 18.2
6 -5 3 99.39 13.7
6 -5 3 91.59 15.5
6 -5 3 128.49 19.6
-7 5 -3 6.4 6.7
-7 5 -3 17.7 9.2
-7 5 -3 18.6 6.8
-7 5 -3 36.7 15.2
-7 5 -3 37 7.7
-7 5 -3 28 7.4
7 -5 3 11 4.4
7 -5 3 27.6 9.1
7 -5 3 23.1 8.6
7 -5 3 22.5 7.1
7 -5 3 15.4 5.2
-8 5 -3 -0.5 3.9
-8 5 -3 -0.4 3.4
-8 5 -3 -1 4.8
-8 5 -3 -2.1 5.1
-8 5 -3 -8.3 8.6
8 -5 3 5.9 6.6
8 -5 3 -3.9 3.1
8 -5 3 6.1 3.4
8 -5 3 5.9 4.5
8 -5 3 6.6 3.3
-9 5 -3 2.9 3.6
-9 5 -3 2.1 2.7
9 -5 3 4.7 3.6
9 -5 3 5.5 4.9
9 -5 3 6.8 2.8
9 -5 3 9.8 3.9
7 4 -3 320.47 26
-7 -4 3 238.38 25.4
6 4 -3 85.69 11.7
6 4 -3 68.29 14.7
-6 -4 3 74.99 12
-5 -4 3 1120.59 91.59
-5 -4 3 1148.89 91.59
-5 -4 3 1076.49 94.49
-5 -4 3 1055.89 92.79
-4 -4 3 971.4 87.69
-4 -4 3 1067.19 86.29
-4 -4 3 1018.9 85.29
-4 -4 3 1050.19 85.29
-4 -4 3 999.4 86.29
3 4 -3 3468.95 305.97
-3 -4 3 3777.92 306.67
-3 -4 3 3316.97 303.07
-3 -4 3 3549.24 301.07
-3 -4 3 4092.29 301.97
-3 -4 3 3932.71 302.37
-3 -4 3 4287.07 301.47
2 4 -3 4826.32 407.96
-2 -4 3 5325.77 402.96
-2 -4 3 5408.46 403.36
-2 -4 3 5152.98 407.16
-2 -4 3 4693.83 403.66
1 4 -3 1480.75 126.49
1 4 -3 1473.35 123.19
-1 -4 3 1613.54 121.79
-1 -4 3 1571.24 124.89
-1 -4 3 1440.56 122.39
0 4 -3 4485.35 332.37
0 4 -3 4500.35 330.07
0 -4 3 3859.91 328.47
0 -4 3 3977.8 327.17
0 -4 3 3849.42 325.97
-1 4 -3 34.3 6.6
-1 4 -3 35 6.1
1 -4 3 31.1 4
1 -4 3 26.5 4.3
1 -4 3 30 5.2
1 -4 3 36.1 3.7
-2 4 -3 6160.38 485.65
2 -4 3 6028 481.15
-3 4 -3 41.6 7.9
-3 4 -3 33.5 5.1
3 -4 3 37.3 6.2
3 -4 3 43.8 5.2
3 -4 3 44 4.8
3 -4 3 38.5 6.1
4 -4 3 4796.92 385.66
4 -4 3 4912.01 385.06
4 -4 3 5036.6 385.06
4 -4 3 4655.93 384.86
-5 4 -3 34.6 13
-5 4 -3 53.79 10.6
-5 4 -3 56.79 13.5
-5 4 -3 49.99 10.9
5 -4 3 31.8 9
5 -4 3 32.7 5.6
5 -4 3 31 6.4
5 -4 3 36.1 9.9
-6 4 -3 475.35 56.99
-6 4 -3 569.14 50.79
6 -4 3 529.45 47.2
6 -4 3 570.64 51.69
6 -4 3 514.95 48
6 -4 3 468.55 45
6 -4 3 506.05 46.1
-7 4 -3 103.49 21.5
-7 4 -3 70.19 12.6
7 -4 3 79.89 14.8
7 -4 3 102.79 16.4
7 -4 3 90.49 12.5
7 -4 3 91.49 13.8
7 -4 3 90.69 11.4
7 -4 3 78.69 11.7
-8 4 -3 106.39 15.3
-8 4 -3 146.69 21.5
-8 4 -3 104.79 18.6
-8 4 -3 139.19 18.4
8 -4 3 134.79 15.6
8 -4 3 125.19 19.7
8 -4 3 128.79 14.1
8 -4 3 127.99 15.7
8 -4 3 118.29 15
-9 4 -3 6 8
-9 4 -3 -3.3 2.1
-9 4 -3 0.1 2.4
9 -4 3 -3.2 2.6
9 -4 3 0.6 2.4
9 -4 3 -2.8 2.3
8 3 -3 -0.5 3.1
8 3 -3 -0.5 2.1
-8 -3 3 0.7 2.3
7 3 -3 36.3 12.6
7 3 -3 26.6 6.5
-7 -3 3 16.6 5.3
-7 -3 3 10.7 4.1
-7 -3 3 33.8 9.9
6 3 -3 41 9.9
-6 -3 3 78.89 16.5
-6 -3 3 37.6 7.7
-6 -3 3 69.39 9
-6 -3 3 51.99 7.5
-6 -3 3 75.29 14.2
-6 -3 3 67.39 11.1
5 3 -3 43.3 11.9
5 3 -3 47.8 14.2
-5 -3 3 56.59 8.7
-5 -3 3 59.09 8.6
-5 -3 3 45.9 9.8
-5 -3 3 50.59 7.8
-5 -3 3 39.9 9.7
4 3 -3 152.68 20.5
4 3 -3 210.48 26.9
4 3 -3 191.88 22.8
-4 -3 3 193.78 19.4
-4 -3 3 184.58 18.8
-4 -3 3 185.68 20.8
-4 -3 3 194.48 28.3
-4 -3 3 200.08 19.7
-4 -3 3 192.58 18.7
3 3 -3 150.78 19.4
3 3 -3 178.68 22.1
3 3 -3 139.49 23
-3 -3 3 171.08 16.9
-3 -3 3 179.28 16.6
-3 -3 3 190.98 20.4
-3 -3 3 173.38 17.4
2 3 -3 1253.67 121.69
2 3 -3 1543.95 121.79
-2 -3 3 1581.74 118.39
1 3 -3 873.91 70.29
1 3 -3 701.53 66.09
-1 -3 3 790.12 67.29
-1 -3 3 855.91 63.89
0 3 -3 1082.09 88.39
0 -3 3 1023.9 84.19
0 -3 3 1079.09 84.39
1 -3 3 2714.03 215.68
-2 3 -3 370.96 31.3
-2 3 -3 398.96 38.3
2 -3 3 398.76 31.5
2 -3 3 414.76 32.8
2 -3 3 351.66 31.5
-3 3 -3 277.17 28.3
3 -3 3 310.17 25.6
3 -3 3 293.97 25.6
3 -3 3 303.47 25.9
-4 3 -3 7.4 3.8
4 -3 3 11.1 2.9
4 -3 3 10.3 4.2
4 -3 3 9.2 2.9
4 -3 3 12.2 3.4
5 -3 3 190.28 17.9
5 -3 3 181.88 19.3
5 -3 3 196.48 22.2
-6 3 -3 139.19 17.9
6 -3 3 136.99 20.3
6 -3 3 150.48 15.9
6 -3 3 164.48 17
6 -3 3 145.29 18.8
6 -3 3 179.18 21
6 -3 3 155.08 17.6
-7 3 -3 377.76 33.8
-7 3 -3 286.07 38.8
-7 3 -3 287.07 31.7
7 -3 3 327.87 30.4
7 -3 3 261.67 34.4
7 -3 3 330.57 32.5
7 -3 3 324.77 31.4
7 -3 3 330.77 29.6
-8 3 -3 165.58 24.3
-8 3 -3 167.58 23.3
-8 3 -3 179.88 21.5
8 -3 3 185.08 22.3
8 -3 3 247.58 27
8 -3 3 187.78 20.8
8 -3 3 217.48 19.5
8 -3 3 220.58 22.5
-9 3 -3 7.1 3.5
-9 3 -3 6.1 4.2
-9 3 -3 15.4 4.7
-9 3 -3 10.8 3.5
9 -3 3 11.8 4.1
9 -3 3 17 4.8
8 2 -3 17 4.6
-8 -2 3 21.8 5.6
-8 -2 3 9.3 5.5
7 2 -3 162.58 20.1
-7 -2 3 164.88 20
-7 -2 3 159.58 18.5
-7 -2 3 143.69 15.1
6 2 -3 40.5 9.1
6 2 -3 50.89 10.7
-6 -2 3 41.4 9.7
-6 -2 3 28.4 8.7
-6 -2 3 36.8 6.4
-6 -2 3 36.4 6.9
-6 -2 3 25.7 6.5
-6 -2 3 45.9 7.4
5 2 -3 823.52 73.19
5 2 -3 852.81 73.29
5 2 -3 956.9 74.19
-5 -2 3 780.52 70.69
-5 -2 3 718.83 71.79
-5 -2 3 833.52 69.09
-5 -2 3 784.42 68.69
-5 -2 3 807.72 68.09
-5 -2 3 775.12 67.99
4 2 -3 10.2 5
4 2 -3 13.9 6.5
4 2 -3 10.4 3.9
4 2 -3 13.5 6.4
-4 -2 3 17 4.4
-4 -2 3 10.7 3.5
-4 -2 3 14.7 4
-4 -2 3 11.1 5.2
-4 -2 3 12.8 6
-3 -2 3 242.68 24
-3 -2 3 227.28 20.9
-3 -2 3 238.18 21.3
2 2 -3 46.8 7.4
-2 -2 3 51.19 5.4
-2 -2 3 52.19 5.7
-2 -2 3 48.1 5.5
-2 -2 3 46.5 7
0 2 -3 2078.79 159.18
0 -2 3 1877.71 157.78
-1 2 -3 6283.77 497.25
-2 2 -3 3163.68 251.97
2 -2 3 2900.11 249.88
2 -2 3 3407.46 249.48
3 -2 3 83.99 10.9
3 -2 3 97.99 9.7
3 -2 3 90.29 8.8
3 -2 3 98.79 9.6
-4 2 -3 256.07 21.2
4 -2 3 213.28 23
4 -2 3 213.98 21.2
4 -2 3 201.98 20.7
4 -2 3 236.98 21.4
-5 2 -3 119.09 13.4
5 -2 3 108.39 12.1
5 -2 3 100.69 12.4
5 -2 3 103.69 14.5
5 -2 3 85.69 11.2
5 -2 3 98.09 14.7
5 -2 3 115.89 14.5
-6 2 -3 353.36 37.2
6 -2 3 415.26 38
6 -2 3 284.17 30.9
6 -2 3 316.97 39.2
6 -2 3 354.36 32.6
-7 2 -3 211.28 26.4
-7 2 -3 226.18 28.9
7 -2 3 267.07 30
7 -2 3 259.87 24.3
7 -2 3 297.77 31.2
7 -2 3 261.97 23.5
7 -2 3 190.18 25.6
7 -2 3 234.18 26
-8 2 -3 -2.6 3.1
-8 2 -3 -0.3 2.8
-8 2 -3 -1.6 2.9
8 -2 3 4.2 4
8 -2 3 1.9 3.8
8 -2 3 7.7 7.2
8 -2 3 1.9 2.4
8 -2 3 -1.5 2.1
-9 2 -3 18 4.6
-9 2 -3 11.6 4
-9 2 -3 20.4 4.8
9 1 -3 4.4 2.1
9 1 -3 6.2 5.5
-9 -1 3 5.3 2.4
-8 -1 3 98.49 12.3
-8 -1 3 83.29 12.9
-7 -1 3 80.49 9.4
-7 -1 3 65.09 10.8
-7 -1 3 101.39 11.8
6 1 -3 204.58 25.5
6 1 -3 165.08 20.6
6 1 -3 169.98 21.6
6 1 -3 200.78 20.6
-6 -1 3 141.09 19.2
-6 -1 3 157.78 16.3
-6 -1 3 139.29 16.2
-6 -1 3 131.69 16.4
-6 -1 3 173.78 19.3
-6 -1 3 138.59 15.5
5 1 -3 890.31 74.39
5 1 -3 949.8 75.19
5 1 -3 768.52 75.99
5 1 -3 835.92 74.89
-5 -1 3 889.61 72.39
-5 -1 3 735.13 74.29
-5 -1 3 882.41 71.89
-5 -1 3 873.81 74.19
-5 -1 3 940.71 72.89
-5 -1 3 941.61 76.49
-5 -1 3 839.72 71.89
4 1 -3 338.87 32.6
4 1 -3 309.17 34
4 1 -3 405.26 34.2
-4 -1 3 357.26 30.6
-4 -1 3 369.16 33.6
-4 -1 3 352.86 31
-4 -1 3 339.17 31.8
3 1 -3 2718.93 245.18
-3 -1 3 3219.88 243.78
-3 -1 3 3267.07 246.18
2 1 -3 437.16 44
2 1 -3 509.35 44.5
2 1 -3 574.34 44.7
-2 -1 3 478.35 44.8
-2 -1 3 550.84 44.7
-2 -1 3 562.74 43.4
-2 -1 3 541.85 42.9
1 1 -3 5933.31 416.96
1 1 -3 4620.04 416.66
0 1 -3 4994.1 395.66
-1 1 -3 2250.27 187.88
-1 1 -3 2471.25 189.58
1 -1 3 2401.76 188.98
-2 1 -3 4582.34 338.27
-2 1 -3 4062.39 337.77
2 -1 3 4177.68 338.67
-3 1 -3 66.29 6.6
-3 1 -3 52.19 5.6
3 -1 3 63.89 11.2
3 -1 3 49.1 7.8
3 -1 3 36.3 7.3
3 -1 3 51.29 6.5
4 -1 3 2690.93 209.98
4 -1 3 2475.05 207.08
-5 1 -3 642.94 52.89
-5 1 -3 583.14 52.39
5 -1 3 465.05 48.5
5 -1 3 513.95 48.4
5 -1 3 655.13 54.09
5 -1 3 574.34 51.69
5 -1 3 598.74 54.19
-6 1 -3 1802.72 171.08
-6 1 -3 1888.01 175.38
6 -1 3 2354.46 169.78
6 -1 3 2103.89 168.18
6 -1 3 2421.66 175.48
6 -1 3 2065.19 167.18
6 -1 3 1889.01 170.28
-7 1 -3 355.96 36.9
-7 1 -3 327.67 38.3
-7 1 -3 344.67 39.8
7 -1 3 330.07 35
7 -1 3 342.07 39.8
7 -1 3 344.07 31.6
7 -1 3 419.66 42.7
7 -1 3 361.66 33.1
7 -1 3 414.76 36.8
7 -1 3 264.17 41.7
-8 1 -3 120.89 14.6
-8 1 -3 95.49 12.4
8 -1 3 127.39 15.6
8 -1 3 75.39 11.2
-9 1 -3 4.3 2.3
-9 1 -3 -0.1 2.3
9 -1 3 3.1 3.7
-9 0 3 16.9 4.9
-9 0 3 22.4 4.4
8 0 -3 165.48 19.5
-8 0 3 122.49 15
-8 0 3 118.29 15.9
7 0 -3 19.1 6.6
7 0 -3 10.2 5.3
7 0 -3 4.7 15
-7 0 3 5.6 4.8
-7 0 3 6.9 4.3
-7 0 3 9.8 3.3
6 0 -3 887.31 82.69
6 0 -3 972 82.99
6 0 -3 872.41 72.69
6 0 -3 971 75.49
-6 0 3 743.33 70.89
-6 0 3 771.12 71.29
-6 0 3 867.31 75.09
5 0 -3 62.89 9.4
5 0 -3 76.39 11.2
5 0 -3 83.99 13
-5 0 3 73.49 8.7
-5 0 3 74.19 10
-5 0 3 63.49 9.9
-5 0 3 79.19 9.3
-5 0 3 81.79 11.5
-5 0 3 79.99 11
-5 0 3 80.69 9.3
4 0 -3 8715.23 632.84
4 0 -3 7753.12 631.94
-4 0 3 7732.93 629.34
-4 0 3 7519.95 631.04
-4 0 3 8125.89 629.04
3 0 -3 3.5 2.1
3 0 -3 13.2 4.3
3 0 -3 1.7 1.6
-3 0 3 6.6 2.3
-3 0 3 5.9 2.5
-3 0 3 2.3 1.3
-3 0 3 5.9 2.4
2 0 -3 4823.72 361.86
2 0 -3 3803.12 356.06
2 0 -3 4252.57 357.06
2 0 -3 4635.74 357.16
-2 0 3 5003.9 355.76
-2 0 3 4515.65 359.06
1 0 -3 478.35 39.7
1 0 -3 398.46 38.3
-1 0 3 522.15 38.5
0 0 -3 803.82 67.79
0 0 -3 885.71 66.49
0 0 3 814.62 66.19
0 0 3 796.72 66.79
-1 0 -3 995.8 90.39
-1 0 -3 1241.38 89.79
-1 0 -3 1122.49 88.29
-1 0 -3 1210.18 89.19
-1 0 -3 1174.48 87.79
1 0 3 1047.5 90.49
1 0 3 967.3 91.19
-2 0 -3 470.55 41.5
-2 0 -3 607.24 44.1
-2 0 -3 521.15 41.7
-2 0 -3 469.65 42.8
-2 0 -3 451.75 44
2 0 3 602.94 47.7
-3 0 -3 2863.71 244.88
-3 0 -3 3135.19 243.68
-3 0 -3 3389.86 246.28
-3 0 -3 2901.11 247.18
-4 0 -3 9.1 3.9
-4 0 -3 9.4 4
-4 0 -3 8.2 4.6
4 0 3 22.2 5.2
4 0 3 12.8 3.9
4 0 3 16.9 6.3
-5 0 -3 206.18 25.4
-5 0 -3 230.58 26.9
-5 0 -3 205.68 26.3
-5 0 -3 267.07 27.9
5 0 3 294.57 29.5
5 0 3 273.37 23.8
5 0 3 294.77 24.6
5 0 3 240.38 26.1
-6 0 -3 6.5 7.7
-6 0 -3 3.1 5.8
-6 0 -3 3.1 5
-6 0 -3 10.6 5.8
6 0 3 3.3 3.6
6 0 3 2.6 3
6 0 3 4.7 2.9
6 0 3 3.1 5.1
6 0 3 9.4 5.5
6 0 3 1.6 5.2
-7 0 -3 53.99 10.1
-7 0 -3 39 10
7 0 3 59.89 9.9
7 0 3 31.2 8.1
7 0 3 44.7 6.6
7 0 3 31.6 6.4
8 0 3 62.59 10.3
8 0 3 72.89 10.1
9 -1 -3 43.1 9.9
9 -1 -3 53.39 7.3
-9 1 3 37.3 7.5
8 -1 -3 4.9 5.2
8 -1 -3 7.1 4.6
-8 1 3 0.9 3.4
-8 1 3 5.4 3.8
7 -1 -3 141.79 26.5
7 -1 -3 132.49 12.1
7 -1 -3 127.79 16.2
7 -1 -3 147.19 19.7
7 -1 -3 106.99 17.8
-7 1 3 91.29 11.9
-7 1 3 92.39 14.6
-7 1 3 119.09 14.8
6 -1 -3 124.09 11.8
6 -1 -3 116.99 16.2
6 -1 -3 92.49 13.9
-6 1 3 108.19 13
-6 1 3 102.49 13.6
-6 1 3 95.59 14.4
-6 1 3 108.69 12.1
-6 1 3 98.49 13.3
-6 1 3 92.59 11
-6 1 3 108.49 11.6
-6 1 3 73.09 14.5
5 -1 -3 758.82 68.19
5 -1 -3 667.43 61.99
5 -1 -3 707.63 62.59
5 -1 -3 649.93 63.99
5 -1 -3 868.21 65.89
5 -1 -3 626.74 64.29
5 -1 -3 843.72 64.29
5 -1 -3 718.53 64.99
5 -1 -3 631.54 65.79
-5 1 3 738.83 61.89
-5 1 3 755.02 64.59
-5 1 3 812.02 62.09
-5 1 3 844.72 62.89
-5 1 3 769.82 63.29
-5 1 3 829.12 64.49
4 -1 -3 12.7 4.1
4 -1 -3 14.7 4.5
4 -1 -3 14.1 4.2
4 -1 -3 19.6 4
4 -1 -3 27.5 6
-4 1 3 20 4.3
-4 1 3 15.7 3.6
-4 1 3 16 4.1
-4 1 3 18.2 3.5
-4 1 3 19.1 4
3 -1 -3 820.12 63.19
3 -1 -3 617.64 61.99
3 -1 -3 811.32 61.59
3 -1 -3 692.53 60.59
3 -1 -3 604.34 60.89
-3 1 3 787.32 60.39
-3 1 3 809.12 61.19
-3 1 3 760.72 61.19
2 -1 -3 108.09 11.6
2 -1 -3 113.29 11.8
2 -1 -3 104.09 11.6
2 -1 -3 114.79 12.3
2 -1 -3 128.09 12.5
2 -1 -3 108.79 11.1
-2 1 3 110.39 11.2
-2 1 3 126.69 12.9
-2 1 3 127.29 12
-2 1 3 113.69 10.7
1 -1 -3 3.4 1.9
1 -1 -3 3.3 1.7
1 -1 -3 4.3 1.6
1 -1 -3 2.9 1.3
1 -1 -3 4.5 1.5
1 -1 -3 5.2 1.6
-1 1 3 3.7 1.4
-1 1 3 2.4 1.2
-1 1 3 3.3 1.4
-1 1 3 3 1.2
0 -1 -3 206.78 19.1
0 -1 -3 214.08 19.4
0 -1 -3 212.48 19.3
0 -1 -3 245.68 20.8
0 -1 -3 211.88 19.6
0 1 3 246.78 19.8
0 1 3 220.58 19.9
0 1 3 221.28 19.8
0 1 3 256.87 21.3
0 1 3 227.78 20.6
-1 -1 -3 225.38 20.2
-1 -1 -3 241.68 19.6
-1 -1 -3 229.88 19.6
-1 -1 -3 262.47 21.6
1 1 3 179.78 22.2
-2 -1 -3 526.05 40.4
-2 -1 -3 453.45 37.9
-2 -1 -3 439.76 37.4
-2 -1 -3 420.66 38.5
-2 -1 -3 449.16 38.6
-2 -1 -3 436.66 40.3
-3 -1 -3 196.38 17.7
-3 -1 -3 232.98 21.4
-3 -1 -3 212.78 18.7
-3 -1 -3 155.28 18.7
-3 -1 -3 185.48 25.8
-3 -1 -3 199.18 19.4
-4 -1 -3 199.78 20.9
-4 -1 -3 159.88 22.4
-4 -1 -3 145.29 20.1
-4 -1 -3 151.58 18.6
-4 -1 -3 185.88 21.1
-4 -1 -3 191.78 21.3
4 1 3 217.48 18.8
4 1 3 203.48 20.9
-5 -1 -3 53.69 11.2
-5 -1 -3 55.19 11.7
5 1 3 62.19 12.5
5 1 3 75.59 11.2
5 1 3 62.59 12.7
5 1 3 69.39 8.6
5 1 3 40.2 8.6
5 1 3 59.99 8.3
-6 -1 -3 24.9 12.4
-6 -1 -3 16.8 7.3
-6 -1 -3 25.5 7.7
6 1 3 33.2 8.2
6 1 3 38.8 7.9
6 1 3 29.5 8.7
6 1 3 36.2 10.8
6 1 3 36.8 5.7
6 1 3 19.7 5.2
-7 -1 -3 6.7 4.7
-7 -1 -3 1.4 4.5
7 1 3 9.7 4
7 1 3 5.1 4.5
7 1 3 11.5 5.7
-8 -1 -3 16.9 4.8
-8 -1 -3 28.6 5.4
8 1 3 16.8 4.2
9 -2 -3 0.2 3.6
9 -2 -3 3.8 4.2
9 -2 -3 5.1 4.2
-9 2 3 1.2 2.7
-9 2 3 5.7 3.2
8 -2 -3 102.09 14.7
8 -2 -3 108.99 16.6
-8 2 3 95.19 12.7
-8 2 3 94.09 13.4
7 -2 -3 2.9 4.1
7 -2 -3 6.7 6.2
7 -2 -3 -0.2 6.4
7 -2 -3 9.6 3.6
7 -2 -3 0 7.2
7 -2 -3 7.9 3.2
-7 2 3 3.1 7.6
-7 2 3 3.8 3.5
-7 2 3 -2.4 3.2
6 -2 -3 227.38 28.3
6 -2 -3 187.98 22.6
6 -2 -3 220.88 20.2
6 -2 -3 212.68 24.9
6 -2 -3 188.58 22
6 -2 -3 237.98 22.3
6 -2 -3 184.78 20.1
6 -2 -3 187.78 22.7
-6 2 3 219.38 21.7
-6 2 3 199.58 22.4
-6 2 3 176.88 18.9
-6 2 3 215.58 21
-6 2 3 206.78 19.6
5 -2 -3 22.7 5.2
5 -2 -3 18 5.6
5 -2 -3 20.5 5.3
5 -2 -3 25.9 9
5 -2 -3 26.1 7.1
5 -2 -3 21.1 5.3
5 -2 -3 18.3 5.8
5 -2 -3 24.1 6.6
-5 2 3 29.4 6
-5 2 3 21.8 5.1
-5 2 3 22.5 6.6
-5 2 3 26.6 5.5
-5 2 3 24.5 5.2
-5 2 3 37.5 6.2
-5 2 3 24.8 4.5
4 -2 -3 436.86 44.5
4 -2 -3 529.75 46.9
4 -2 -3 432.56 45.2
4 -2 -3 464.85 47
4 -2 -3 465.05 45.9
4 -2 -3 492.05 45.2
4 -2 -3 552.04 48.5
-4 2 3 583.14 44.9
-4 2 3 581.14 45.3
-4 2 3 616.24 44.6
-4 2 3 591.24 46.4
-4 2 3 614.14 47.6
3 -2 -3 445.16 39.2
3 -2 -3 393.56 37.5
3 -2 -3 426.46 37.3
3 -2 -3 410.46 36.8
3 -2 -3 414.16 37.4
3 -2 -3 422.26 38.5
-3 2 3 500.95 38.3
-3 2 3 470.65 37.7
-3 2 3 397.66 36.2
2 -2 -3 932.31 78.89
2 -2 -3 929.81 78.09
2 -2 -3 1003 77.49
2 -2 -3 906.21 77.59
-2 2 3 888.31 77.19
-2 2 3 975.8 77.89
-2 2 3 988 78.29
1 -2 -3 1382.26 108.89
1 -2 -3 1407.76 110.69
1 -2 -3 1308.87 108.39
1 -2 -3 1267.87 109.49
1 -2 -3 1319.77 110.09
1 -2 -3 1280.37 108.19
-1 2 3 1272.07 108.59
-1 2 3 1495.65 110.49
-1 2 3 1414.76 109.39
0 -2 -3 1215.38 103.29
0 -2 -3 1192.08 103.19
0 -2 -3 1307.67 105.19
0 -2 -3 1200.78 102.79
0 2 3 1351.86 103.69
0 2 3 1295.77 104.39
0 2 3 1367.06 105.49
0 2 3 1382.26 104.29
0 2 3 1225.08 103.49
-1 -2 -3 888.71 72.79
-1 -2 -3 909.51 73.59
-1 -2 -3 885.81 75.19
-1 -2 -3 994.8 76.09
-1 -2 -3 859.41 73.89
-1 -2 -3 932.11 73.69
1 2 3 784.92 77.39
1 2 3 868.91 76.59
1 2 3 945.01 74.49
-2 -2 -3 315.37 28.9
-2 -2 -3 319.17 27.9
-2 -2 -3 309.77 28.6
-2 -2 -3 338.37 31.4
-2 -2 -3 332.87 29.2
-2 -2 -3 312.87 28.3
2 2 3 328.47 34.1
-3 -2 -3 464.05 39.2
-3 -2 -3 463.25 38.4
-3 -2 -3 463.25 40.3
-3 -2 -3 428.86 43.2
-3 -2 -3 462.55 39.1
-3 -2 -3 460.35 42.7
-3 -2 -3 391.66 39
-3 -2 -3 485.55 43.3
3 2 3 477.55 41.5
3 2 3 364.26 40.9
-4 -2 -3 31.6 8.8
-4 -2 -3 17 8.7
-4 -2 -3 30 6.7
-4 -2 -3 19.2 6.1
-4 -2 -3 16.6 5.6
4 2 3 29.5 7.2
4 2 3 42.1 7.5
4 2 3 47 12.5
4 2 3 24.3 7.3
-5 -2 -3 145.69 25.3
-5 -2 -3 137.59 20.5
-5 -2 -3 163.78 19.8
5 2 3 181.58 19.6
5 2 3 141.59 19
5 2 3 179.88 16
5 2 3 142.79 16.1
5 2 3 134.89 21.5
-6 -2 -3 12.3 5.9
-6 -2 -3 8.2 5
6 2 3 10.7 4.8
6 2 3 13.2 4.9
6 2 3 17.5 7.6
-7 -2 -3 3.2 3.4
-7 -2 -3 3.5 3.1
7 2 3 3.2 3.1
7 2 3 4.9 2.7
9 -3 -3 7.1 5.6
9 -3 -3 0.1 5.1
-9 3 3 6.8 3.6
-9 3 3 2.9 3.5
8 -3 -3 80.89 13.3
8 -3 -3 86.09 9.2
8 -3 -3 78.89 14.9
-8 3 3 74.29 11.4
-8 3 3 70.79 10.7
7 -3 -3 199.28 23.2
7 -3 -3 196.58 23.8
7 -3 -3 176.48 25.1
7 -3 -3 203.18 20.1
7 -3 -3 209.08 24.3
7 -3 -3 219.88 20.9
7 -3 -3 239.68 25.3
-7 3 3 201.58 21.1
-7 3 3 188.58 21.5
6 -3 -3 36.6 7.7
6 -3 -3 57.99 10.8
6 -3 -3 28.5 7.6
6 -3 -3 57.99 11.5
6 -3 -3 52.79 9.8
6 -3 -3 49.2 9
6 -3 -3 39.4 8.5
-6 3 3 45.8 8.7
-6 3 3 53.79 8.5
-6 3 3 52.09 8.1
-6 3 3 30 10
5 -3 -3 932.61 84.89
5 -3 -3 1124.29 89.19
5 -3 -3 1023.4 84.19
5 -3 -3 888.11 83.59
5 -3 -3 975.9 84.79
5 -3 -3 1080.39 84.49
5 -3 -3 1015 89.49
5 -3 -3 1090.79 86.39
5 -3 -3 1012.4 86.79
4 -3 -3 66.89 10
4 -3 -3 59.49 10.8
4 -3 -3 61.19 8.4
4 -3 -3 61.39 8.3
4 -3 -3 60.99 8.6
4 -3 -3 65.29 8.9
4 -3 -3 62.69 9.3
-4 3 3 64.49 8.1
-4 3 3 78.99 9.8
-4 3 3 54.19 12.5
-4 3 3 80.69 10.3
-4 3 3 73.59 8.8
3 -3 -3 4054.69 332.87
3 -3 -3 4258.77 330.97
3 -3 -3 4270.57 331.87
3 -3 -3 4100.09 334.27
3 -3 -3 4033.2 331.87
3 -3 -3 4330.97 330.97
-3 3 3 4194.48 331.87
-3 3 3 4066.99 332.67
2 -3 -3 601.94 50.09
2 -3 -3 572.44 50.29
2 -3 -3 585.04 50.99
2 -3 -3 585.84 49.6
2 -3 -3 541.45 49.4
2 -3 -3 577.14 49.3
2 -3 -3 610.64 52.59
-2 3 3 595.44 51.49
-2 3 3 663.73 52.49
-2 3 3 567.04 50.19
-2 3 3 630.84 50.99
1 -3 -3 6059.09 473.05
1 -3 -3 5185.08 475.25
1 -3 -3 6368.26 473.15
1 -3 -3 5962 474.15
1 -3 -3 6466.05 473.65
1 -3 -3 6189.48 473.05
1 -3 -3 5848.92 473.65
-1 3 3 5619.64 473.95
-1 3 3 6114.89 475.05
0 -3 -3 400.36 34.9
0 -3 -3 373.06 32.5
0 -3 -3 372.06 32
0 -3 -3 389.66 32
0 -3 -3 376.36 31.6
0 3 3 432.06 35.8
0 3 3 308.67 32.8
0 3 3 300.17 32.2
0 3 3 333.07 32.5
-1 -3 -3 560.14 54.59
-1 -3 -3 635.14 55.49
-1 -3 -3 649.14 54.59
-1 -3 -3 702.93 55.59
-1 -3 -3 662.23 57.59
-1 -3 -3 671.03 58.49
-1 -3 -3 686.23 54.59
1 3 3 691.63 60.39
1 3 3 613.74 61.19
-2 -3 -3 1018.3 81.89
-2 -3 -3 926.01 80.69
-2 -3 -3 1007 78.09
-2 -3 -3 848.52 77.59
-2 -3 -3 780.62 76.19
-2 -3 -3 992.1 76.39
-2 -3 -3 907.31 80.29
-2 -3 -3 970 76.09
2 3 3 842.22 79.19
2 3 3 801.12 77.99
2 3 3 1117.69 89.89
2 3 3 1006.7 85.89
2 3 3 783.92 78.89
-3 -3 -3 50.39 7.4
-3 -3 -3 54.59 8.4
-3 -3 -3 44 9.3
-3 -3 -3 55.79 9.1
-3 -3 -3 44.8 11.1
-3 -3 -3 38.1 7
-3 -3 -3 58.79 14.8
-3 -3 -3 37.7 10.9
3 3 3 55.49 10.6
3 3 3 57.99 11.3
3 3 3 53.49 10.2
3 3 3 46.6 9.8
3 3 3 63.79 16.4
3 3 3 75.39 15.6
-4 -3 -3 487.55 46.4
-4 -3 -3 570.04 51.29
-4 -3 -3 499.25 51.79
-4 -3 -3 489.25 49.2
4 3 3 579.94 56.59
4 3 3 525.35 50.99
4 3 3 658.43 51.99
-5 -3 -3 -4.6 3.2
-5 -3 -3 -0.6 7.8
5 3 3 2.5 4.4
5 3 3 2.9 4.1
5 3 3 11 10.1
5 3 3 -12.2 8
5 3 3 -0.2 3.4
-6 -3 -3 97.49 19.6
-6 -3 -3 93.69 14.6
6 3 3 111.79 14.2
6 3 3 98.29 12.9
-7 -3 -3 2.8 2.4
-7 -3 -3 2.4 2.4
7 3 3 -2.1 1.9
7 3 3 0.9 2.2
-10 4 3 3 2.8
9 -4 -3 27.5 7.6
9 -4 -3 45.5 10
-9 4 3 46.4 7.6
8 -4 -3 11.6 5.2
8 -4 -3 18.1 4.6
8 -4 -3 11.5 5.8
8 -4 -3 5.6 3.4
8 -4 -3 9.3 6.3
-8 4 3 5.3 4.4
-8 4 3 6.8 4.1
-8 4 3 6.5 4.4
7 -4 -3 357.56 29.2
7 -4 -3 247.88 28.8
7 -4 -3 321.97 32.7
7 -4 -3 271.57 33.7
7 -4 -3 336.87 32.5
7 -4 -3 275.47 30.5
7 -4 -3 366.36 34.2
-7 4 3 304.87 29.9
-7 4 3 311.27 29.3
-7 4 3 289.67 33.9
6 -4 -3 101.69 12.5
6 -4 -3 86.39 11.9
6 -4 -3 86.49 13
6 -4 -3 87.89 14.3
6 -4 -3 68.39 18.4
6 -4 -3 98.69 19.2
6 -4 -3 53.49 13.9
6 -4 -3 77.99 12.2
-6 4 3 104.99 13.4
-6 4 3 76.29 13.2
-6 4 3 77.79 12
5 -4 -3 1496.45 127.49
5 -4 -3 1430.86 125.59
5 -4 -3 1648.73 125.29
5 -4 -3 1560.24 125.59
5 -4 -3 1531.45 129.39
5 -4 -3 1520.65 124.99
5 -4 -3 1400.56 123.99
5 -4 -3 1357.06 128.79
5 -4 -3 1542.55 126.79
-5 4 3 1429.16 124.59
-5 4 3 1746.93 129.79
-5 4 3 1633.84 124.49
4 -4 -3 1191.68 91.59
4 -4 -3 1124.59 96.89
4 -4 -3 1107.49 93.69
4 -4 -3 1142.09 94.69
4 -4 -3 1105.49 91.89
4 -4 -3 1087.19 92.69
4 -4 -3 1132.09 91.29
4 -4 -3 986 90.49
-4 4 3 1070.09 91.19
-4 4 3 1090.29 91.69
3 -4 -3 24.3 9
-3 4 3 40.3 7.5
2 -4 -3 1126.29 93.69
2 -4 -3 1064.99 94.59
2 -4 -3 1193.98 90.09
2 -4 -3 1158.58 94.49
2 -4 -3 1100.29 89.99
2 -4 -3 1140.79 90.49
2 -4 -3 1117.29 89.69
-2 4 3 965.3 92.79
-2 4 3 994.6 92.19
1 -4 -3 424.56 34.4
1 -4 -3 394.96 38.3
1 -4 -3 370.66 34.5
1 -4 -3 378.16 34.4
1 -4 -3 386.76 34.3
0 -4 -3 2672.03 216.48
0 -4 -3 2514.75 213.18
0 -4 -3 2937.11 211.98
0 -4 -3 2724.73 212.28
0 -4 -3 2746.93 211.88
0 -4 -3 2535.35 211.68
0 -4 -3 2298.27 215.38
0 -4 -3 2562.64 212.08
0 4 3 2851.81 218.58
0 4 3 2583.54 214.28
-1 -4 -3 31 9.4
-1 -4 -3 31.9 6.5
-1 -4 -3 28.6 5.7
-1 -4 -3 42.7 8.5
-1 -4 -3 35.4 6.3
-1 -4 -3 39.5 6
-1 -4 -3 36.2 10.1
-1 -4 -3 24.3 6.9
1 4 3 20.2 9.6
1 4 3 29.4 8.8
1 4 3 38.3 9.3
-2 -4 -3 1441.56 135.09
-2 -4 -3 1801.12 134.49
-2 -4 -3 1787.02 132.69
-2 -4 -3 1588.84 130.29
-2 -4 -3 1623.24 130.59
-2 -4 -3 1554.54 131.29
-2 -4 -3 1678.93 130.59
-2 -4 -3 1413.26 132.79
2 4 3 1728.03 136.09
2 4 3 1360.96 133.39
-3 -4 -3 19.6 9.3
-3 -4 -3 33.6 7.8
-3 -4 -3 26 5.8
-3 -4 -3 31.4 8.4
-3 -4 -3 41.7 12.1
3 4 3 60.59 16.2
3 4 3 32.6 8.7
3 4 3 25.1 7.6
3 4 3 44.4 13.8
-4 -4 -3 81.39 16.1
-4 -4 -3 92.99 12
-4 -4 -3 109.99 15.7
4 4 3 126.59 18.9
-5 -4 -3 4.9 4.1
-5 -4 -3 3.1 4.3
5 4 3 -3 5.1
5 4 3 -4.5 4.8
5 4 3 3.5 3.3
-6 -4 -3 20.3 5.5
-6 -4 -3 15 4.8
6 4 3 26.1 5.2
9 -5 -3 24.5 3.3
9 -5 -3 45.3 9
9 -5 -3 18.1 6.5
-9 5 3 19.1 5.5
-9 5 3 29 8
8 -5 -3 320.67 37.9
8 -5 -3 418.46 37.9
8 -5 -3 377.16 33.4
8 -5 -3 405.36 37.8
-8 5 3 344.07 36.7
-8 5 3 387.26 34.9
7 -5 -3 111.09 15.9
7 -5 -3 91.39 21.4
7 -5 -3 99.89 12.9
7 -5 -3 88.09 13
7 -5 -3 122.29 15.2
-7 5 3 103.19 12.7
-7 5 3 73.49 13.1
-7 5 3 71.39 15.1
6 -5 -3 83.69 11.8
6 -5 -3 96.19 15.8
6 -5 -3 114.39 14.8
6 -5 -3 78.79 12.1
6 -5 -3 82.69 12.8
6 -5 -3 114.09 19.4
6 -5 -3 128.69 21.2
-6 5 3 106.69 13.3
-6 5 3 76.59 13
-6 5 3 81.19 19.4
-6 5 3 97.19 12.6
-6 5 3 86.29 17.1
5 -5 -3 1194.08 111.49
5 -5 -3 1328.17 113.09
5 -5 -3 1221.88 109.99
5 -5 -3 1378.96 111.29
5 -5 -3 1412.86 114.59
5 -5 -3 1447.46 111.69
5 -5 -3 1146.99 111.29
-5 5 3 1503.55 118.79
-5 5 3 1280.57 110.69
-5 5 3 1549.74 116.69
4 -5 -3 77.29 13.3
4 -5 -3 69.69 10.9
4 -5 -3 57.79 9.9
4 -5 -3 70.29 10.2
4 -5 -3 94.79 17
4 -5 -3 65.79 9.6
4 -5 -3 69.99 12.7
-4 5 3 95.39 11.7
-4 5 3 97.29 15.6
3 -5 -3 1772.82 148.69
3 -5 -3 1754.02 146.59
3 -5 -3 1671.03 144.99
3 -5 -3 1585.44 144.29
3 -5 -3 1871.01 148.09
3 -5 -3 1823.22 144.99
3 -5 -3 1861.01 145.89
-3 5 3 1905.71 145.79
-3 5 3 1823.12 145.99
2 -5 -3 265.87 27
2 -5 -3 302.17 26.8
2 -5 -3 264.07 25.9
2 -5 -3 256.97 28.1
2 -5 -3 243.68 25.4
2 -5 -3 269.27 25.6
2 -5 -3 267.97 25.6
2 -5 -3 308.97 29
-2 5 3 288.57 26.9
-2 5 3 281.77 26.7
1 -5 -3 1281.37 113.89
1 -5 -3 1301.07 116.99
1 -5 -3 1343.57 116.79
1 -5 -3 1447.76 115.19
1 -5 -3 1382.06 115.89
1 -5 -3 1380.36 114.59
1 -5 -3 1465.05 114.39
1 -5 -3 1496.15 114.99
-1 5 3 1470.75 116.59
0 -5 -3 251.47 26.8
0 -5 -3 241.28 23.9
0 -5 -3 232.88 26.6
0 -5 -3 199.48 28.4
0 -5 -3 261.87 24.4
0 -5 -3 247.38 24.6
0 -5 -3 269.47 24.9
0 -5 -3 283.67 24.2
0 5 3 240.08 26.5
0 5 3 197.48 24.9
0 5 3 283.97 27.2
-1 -5 -3 12.4 4.7
-1 -5 -3 22.1 5.1
-1 -5 -3 19.1 5.2
-1 -5 -3 15.8 6.4
-1 -5 -3 11.1 8.1
-1 -5 -3 18.7 5.5
1 5 3 10.8 12
1 5 3 14.6 6.6
-2 -5 -3 127.09 14.8
-2 -5 -3 133.19 16.5
-2 -5 -3 134.19 16.2
-2 -5 -3 171.38 19.5
-2 -5 -3 132.49 16.1
-2 -5 -3 125.49 15
-2 -5 -3 109.59 19.4
2 5 3 148.49 20.6
2 5 3 113.29 17.6
-3 -5 -3 23.4 7.8
-3 -5 -3 25.3 9.2
-3 -5 -3 28 10.5
-3 -5 -3 26.6 6.4
-3 -5 -3 29 8
3 5 3 28.1 10.7
-4 -5 -3 11.2 4.8
-4 -5 -3 15 5
4 5 3 3.4 5.9
4 5 3 11.4 5.1
-5 -5 -3 12.7 3.9
5 5 3 8.2 3.9
5 5 3 11.2 4.3
9 -6 -3 7.5 3.7
9 -6 -3 4.5 2.4
-9 6 3 1.1 2.4
-9 6 3 1.4 4.3
-9 6 3 5.8 3.2
8 -6 -3 193.88 21.1
8 -6 -3 205.58 17.6
8 -6 -3 171.28 17.7
8 -6 -3 213.68 25
8 -6 -3 138.39 19.2
-8 6 3 160.68 21
-8 6 3 181.78 18.7
7 -6 -3 7.8 4.6
7 -6 -3 2.2 4.2
7 -6 -3 1.2 4.2
7 -6 -3 9.3 5
7 -6 -3 8 6.2
-7 6 3 3.6 3.3
-7 6 3 5.2 5.8
-7 6 3 5.3 4.2
-7 6 3 23.2 11.9
6 -6 -3 52.69 11.7
6 -6 -3 31.7 8.8
6 -6 -3 51.39 10.4
6 -6 -3 47.8 8.1
6 -6 -3 44.4 8
-6 6 3 55.89 8.6
-6 6 3 50.09 9.2
-6 6 3 33.8 14.2
-6 6 3 27.6 13.6
5 -6 -3 9.8 4.2
5 -6 -3 12 5.2
5 -6 -3 7.1 4.3
5 -6 -3 7.3 4.2
5 -6 -3 8.7 6.1
5 -6 -3 17 5.3
5 -6 -3 1.7 4.3
-5 6 3 15.1 11.3
-5 6 3 11.4 6.5
-5 6 3 18.1 8.2
-5 6 3 9 4.1
-5 6 3 12.4 8.7
4 -6 -3 279.67 27
4 -6 -3 310.77 29.9
4 -6 -3 275.57 28.2
4 -6 -3 232.88 25.6
4 -6 -3 248.38 25.7
4 -6 -3 257.37 26.9
-4 6 3 291.37 26.9
3 -6 -3 378.46 35.9
3 -6 -3 393.16 35.5
3 -6 -3 385.86 36.3
2 -6 -3 80.39 10.8
2 -6 -3 73.59 10.6
2 -6 -3 79.49 13.4
2 -6 -3 78.49 10.4
2 -6 -3 95.39 11.8
-2 6 3 74.39 13.7
-2 6 3 54.59 13.8
-2 6 3 96.89 14.3
1 -6 -3 82.29 10.9
1 -6 -3 83.79 10.9
1 -6 -3 83.79 11
1 -6 -3 48.3 13.1
1 -6 -3 75.79 11.4
1 -6 -3 81.09 12.9
1 -6 -3 64.79 10.2
1 -6 -3 63.79 9.4
-1 6 3 115.59 21.3
-1 6 3 80.09 12.1
0 -6 -3 52.59 9.5
0 -6 -3 55.59 9
0 -6 -3 41.2 7.8
0 -6 -3 59.29 9.3
0 -6 -3 52.39 8.8
0 -6 -3 61.29 11.6
0 -6 -3 52.59 12.8
0 -6 -3 68.39 9.9
0 6 3 38 11.8
0 6 3 63.59 11.4
-1 -6 -3 25.5 7.2
-1 -6 -3 1.6 2.4
-1 -6 -3 -8.5 7.1
-1 -6 -3 11.7 5.4
-1 -6 -3 2.8 4.6
-1 -6 -3 6.6 3.5
-1 -6 -3 2.5 3.5
1 6 3 8 4.3
1 6 3 4.8 10.6
-2 -6 -3 137.29 16.3
-2 -6 -3 123.39 16.7
-2 -6 -3 155.08 21.7
-2 -6 -3 152.78 16.2
-2 -6 -3 169.48 19.5
2 6 3 150.88 19.4
-3 -6 -3 51.09 9.4
-3 -6 -3 44.8 10.4
-3 -6 -3 52.29 10.6
3 6 3 57.09 9.9
-4 -6 -3 59.09 9.4
4 6 3 69.79 11.2
4 6 3 58.79 8.2
9 -7 -3 17.8 4
-9 7 3 22.4 4.5
8 -7 -3 274.77 21.9
8 -7 -3 230.48 29
-8 7 3 185.68 26.2
-8 7 3 259.77 25.3
7 -7 -3 52.09 12.6
7 -7 -3 26.1 6.7
7 -7 -3 32.1 8.4
-7 7 3 35.5 7.2
-7 7 3 29.3 10.9
6 -7 -3 563.54 53.59
6 -7 -3 523.05 51.99
6 -7 -3 648.04 55.59
6 -7 -3 592.24 51.79
6 -7 -3 652.13 55.89
-6 7 3 626.84 55.29
-6 7 3 626.44 52.69
-6 7 3 577.14 55.49
5 -7 -3 337.87 31.5
5 -7 -3 307.67 31.8
5 -7 -3 329.57 34.9
5 -7 -3 345.87 34.4
5 -7 -3 369.16 35.6
-5 7 3 338.67 32.1
4 -7 -3 568.44 50.09
4 -7 -3 571.24 52.69
4 -7 -3 550.54 50.89
4 -7 -3 547.95 49.5
4 -7 -3 602.44 52.99
4 -7 -3 485.05 51.29
-4 7 3 619.14 50.99
3 -7 -3 846.92 71.69
3 -7 -3 825.62 74.19
3 -7 -3 818.52 73.89
3 -7 -3 811.02 70.99
3 -7 -3 755.12 71.99
3 -7 -3 864.21 72.79
-3 7 3 944.51 73.39
2 -7 -3 357.96 35.2
2 -7 -3 352.46 36.2
2 -7 -3 351.16 34.7
2 -7 -3 346.17 33.9
2 -7 -3 378.16 37.1
2 -7 -3 373.36 34.2
-2 7 3 404.86 36.7
1 -7 -3 282.67 26.4
1 -7 -3 226.88 28.7
1 -7 -3 275.07 27.6
1 -7 -3 267.07 28.3
1 -7 -3 305.27 30.1
1 -7 -3 244.78 26.1
1 -7 -3 249.58 27.5
-1 7 3 335.97 30.8
0 -7 -3 350.96 36.8
0 -7 -3 358.96 36.3
0 -7 -3 409.06 35.6
0 -7 -3 397.66 38.7
0 -7 -3 384.06 35.1
0 7 3 500.25 51.49
0 7 3 358.16 38.6
-1 -7 -3 138.59 17.6
-1 -7 -3 135.29 14.5
-1 -7 -3 130.39 14.6
1 7 3 128.49 17.5
1 7 3 129.89 20.7
-2 -7 -3 3.4 5.5
-2 -7 -3 4.8 2.5
-2 -7 -3 -5 3.7
2 7 3 6 4.1
2 7 3 0.4 3.9
2 7 3 10.7 6.2
-3 -7 -3 26.3 5.6
3 7 3 33.9 5.6
8 -8 -3 87.29 9.1
8 -8 -3 75.29 10.4
-8 8 3 86.49 10.1
7 -8 -3 430.86 36.8
7 -8 -3 304.87 38.5
7 -8 -3 439.96 36.2
-7 8 3 415.76 35
-7 8 3 327.57 47
6 -8 -3 740.33 57.59
6 -8 -3 596.44 55.69
6 -8 -3 676.43 54.29
6 -8 -3 606.74 54.59
6 -8 -3 644.74 57.19
-6 8 3 634.14 58.79
-6 8 3 565.54 57.29
5 -8 -3 541.65 46.5
5 -8 -3 450.35 42.7
5 -8 -3 404.76 43.6
5 -8 -3 438.36 45.6
-5 8 3 537.45 44.4
-5 8 3 576.14 53.19
4 -8 -3 704.43 70.09
4 -8 -3 884.21 70.39
4 -8 -3 868.91 73.79
4 -8 -3 712.03 71.09
-4 8 3 994.3 72.79
3 -8 -3 86.09 12.5
3 -8 -3 66.49 10
3 -8 -3 70.39 10
3 -8 -3 57.39 10.1
3 -8 -3 68.29 12.4
-3 8 3 65.09 22.6
-3 8 3 96.69 12.8
2 -8 -3 1159.68 91.89
2 -8 -3 1000.2 90.49
2 -8 -3 891.51 88.59
2 -8 -3 1070.59 87.89
2 -8 -3 1151.48 90.79
-2 8 3 1223.98 92.29
-2 8 3 889.01 110.79
1 -8 -3 80.89 13.9
1 -8 -3 86.19 13.6
1 -8 -3 109.59 11.9
1 -8 -3 73.89 11.8
1 -8 -3 93.09 11.3
-1 8 3 122.49 23.9
-1 8 3 73.69 17.7
-1 8 3 84.89 13.7
0 -8 -3 751.32 65.89
0 -8 -3 702.53 61.89
0 8 3 678.53 69.19
0 8 3 826.52 66.39
-1 -8 -3 154.98 15.2
-1 -8 -3 158.78 18.1
1 8 3 192.58 18.2
7 -9 -3 43.2 7.5
7 -9 -3 48.6 5.7
-7 9 3 48.2 7.4
6 -9 -3 17.4 3.6
-6 9 3 10 4.8
-6 9 3 12.4 5
5 -9 -3 164.08 14.8
5 -9 -3 123.49 15.7
-5 9 3 144.89 20.1
4 -9 -3 4.5 5.9
4 -9 -3 16.5 4.9
4 -9 -3 7.8 3.2
4 -9 -3 10.9 4.7
-4 9 3 17.4 5.3
-4 9 3 11.2 7.9
-4 9 3 4.1 6.5
3 -9 -3 155.98 16.6
3 -9 -3 138.29 18.1
-3 9 3 223.68 28.2
-3 9 3 157.18 18.1
-3 9 3 182.08 31.2
2 -9 -3 51.39 9.2
2 -9 -3 37.7 6.5
-2 9 3 54.09 14.4
-2 9 3 58.79 11.7
-2 9 3 51.99 8.7
1 -9 -3 109.19 13.2
1 -9 -3 105.69 10.8
-3 11 -4 63.49 11.7
-4 11 -4 3.7 5
-4 11 -4 -4.6 3.5
0 -10 4 135.09 13.1
0 -10 4 106.69 12.7
-1 10 -4 5.4 7.3
-1 10 -4 8.9 5.8
1 -10 4 3 3.6
1 -10 4 8.5 3.1
-2 10 -4 102.79 18.9
-2 10 -4 89.99 12.2
-3 10 -4 7 5.2
-3 10 -4 -1.2 4.8
-3 10 -4 16.4 8.9
-3 10 -4 15 5.1
3 -10 4 2.7 3.5
3 -10 4 5.1 3.6
-4 10 -4 133.39 16.7
-4 10 -4 119.19 23.7
-4 10 -4 86.39 14
-4 10 -4 142.99 20.6
4 -10 4 78.09 12
4 -10 4 117.69 13
4 -10 4 106.49 12.9
5 -10 4 45.8 10.3
5 -10 4 81.69 9.1
5 -10 4 65.89 13.2
-6 10 -4 56.29 12.2
6 -10 4 62.19 8.3
6 -10 4 75.99 8.5
2 9 -4 22.7 7.1
-2 -9 4 7.9 2.5
-2 -9 4 8.1 2.5
1 9 -4 42 11.4
0 9 -4 1 5.4
0 9 -4 1.8 5.5
0 -9 4 -3.8 2.9
0 -9 4 3 5.4
0 -9 4 -1 1.8
-1 9 -4 2.4 5.7
-1 9 -4 12 11.4
-1 9 -4 6.5 6.1
-1 9 -4 3.2 6.6
1 -9 4 4.2 2.7
1 -9 4 -6.9 5.2
1 -9 4 -2 2.7
-2 9 -4 8.8 5
-2 9 -4 16.5 9
-2 9 -4 19.4 7.3
-2 9 -4 12.8 7.8
-2 9 -4 24.2 10.7
2 -9 4 5 4.1
2 -9 4 19.1 6.3
2 -9 4 14.4 6.4
2 -9 4 9.1 3.9
-3 9 -4 155.58 19.1
-3 9 -4 105.69 24.1
-3 9 -4 177.38 23.5
3 -9 4 128.29 18
3 -9 4 132.49 15.3
3 -9 4 136.19 17.8
-4 9 -4 2.2 5.9
-4 9 -4 0 3.8
-4 9 -4 -0.2 3.2
-4 9 -4 4.3 7.8
4 -9 4 8 6.7
4 -9 4 6 3.3
4 -9 4 4.6 3.2
4 -9 4 10.6 6.4
-5 9 -4 24.5 10.8
-5 9 -4 51.29 14
-5 9 -4 51.69 9.4
-5 9 -4 48.4 13.3
-5 9 -4 32.7 10.4
5 -9 4 40.1 7
5 -9 4 45.9 7.5
-6 9 -4 0.2 5.8
-6 9 -4 4.8 4.6
-6 9 -4 2 4.4
-6 9 -4 8.9 5.8
6 -9 4 4.2 3.6
6 -9 4 2.2 2.4
6 -9 4 -1.7 2.6
-7 9 -4 29 9
7 -9 4 18 4.7
7 -9 4 30.3 5.1
7 -9 4 25.7 6.9
-8 9 -4 65.89 10.9
8 -9 4 34.4 5.9
8 -9 4 51.39 5.8
3 8 -4 21.7 6.4
-3 -8 4 18.5 4.4
-3 -8 4 24 4.3
-3 -8 4 27.6 6.5
-2 -8 4 134.39 15.6
-2 -8 4 168.38 17.2
1 8 -4 321.77 40.8
-1 -8 4 273.67 26.5
-1 -8 4 282.77 26.3
-1 -8 4 211.78 25.6
0 8 -4 424.86 52.99
0 8 -4 425.66 46.5
0 -8 4 317.57 34
0 -8 4 342.97 33.5
0 -8 4 418.96 47.7
0 -8 4 324.47 34.2
-1 8 -4 75.69 19.2
-1 8 -4 68.39 12.1
1 -8 4 86.29 14
1 -8 4 67.89 12.2
-2 8 -4 753.82 78.29
-2 8 -4 859.51 66.89
2 -8 4 649.74 59.99
2 -8 4 603.74 61.19
2 -8 4 706.43 60.89
-3 8 -4 31.2 9.9
-3 8 -4 24.6 10
-3 8 -4 38.8 9.2
-3 8 -4 17 10.4
-3 8 -4 40.1 11.9
-3 8 -4 54.59 12.6
3 -8 4 36.2 9
3 -8 4 47.6 7
3 -8 4 25.4 6.5
3 -8 4 36.6 7
-4 8 -4 300.87 38.2
-4 8 -4 408.36 37.3
-4 8 -4 316.47 44.7
-4 8 -4 273.47 38.9
4 -8 4 381.26 32.7
4 -8 4 372.56 35.4
4 -8 4 388.16 36.4
-5 8 -4 2.8 5.8
-5 8 -4 9.3 7.3
-5 8 -4 3.5 6.2
-5 8 -4 18.5 8.3
-5 8 -4 -1 8.6
-5 8 -4 9.3 6.9
5 -8 4 4.5 3.4
5 -8 4 22.2 14.1
5 -8 4 6.1 3.6
-6 8 -4 35.4 12.6
-6 8 -4 36.3 10.9
6 -8 4 29.1 7.2
6 -8 4 15.9 6.1
6 -8 4 22.1 5.6
-7 8 -4 -3.1 3.9
-7 8 -4 2.4 3.6
-7 8 -4 1.5 3.8
-7 8 -4 1.2 5.8
7 -8 4 2.5 2.7
-8 8 -4 16.1 4.9
-8 8 -4 28.5 7
8 -8 4 17.8 4
8 -8 4 7.7 4.4
4 7 -4 164.28 20.3
-4 -7 4 177.98 16.8
-4 -7 4 163.58 18.1
3 7 -4 62.49 11.5
-3 -7 4 53.89 11.3
-3 -7 4 52.89 8.4
-3 -7 4 67.29 9.3
-3 -7 4 49.1 7.6
2 7 -4 322.57 35.2
-2 -7 4 415.86 36.8
-2 -7 4 403.96 36.3
-2 -7 4 436.26 35.9
-2 -7 4 400.16 42.7
-2 -7 4 356.06 36.8
1 7 -4 43.5 17.2
1 7 -4 107.79 17.8
1 7 -4 54.49 23.9
-1 -7 4 77.09 11.4
-1 -7 4 80.69 10.7
-1 -7 4 79.99 10.1
-1 -7 4 63.59 11.7
-1 -7 4 80.19 11.3
0 7 -4 1515.95 127.39
0 7 -4 1472.75 125.99
0 7 -4 1555.54 136.79
0 -7 4 1433.66 116.59
0 -7 4 1329.07 116.79
0 -7 4 1177.98 118.19
0 -7 4 1450.45 115.99
-1 7 -4 117.79 24.1
-1 7 -4 140.69 17.8
-1 7 -4 135.29 17.5
-1 7 -4 135.19 23.7
-1 7 -4 109.49 19.3
-1 7 -4 145.09 18.6
1 -7 4 126.49 16
1 -7 4 152.38 15.2
1 -7 4 135.89 15
1 -7 4 158.78 14.8
-2 7 -4 1561.74 168.98
-2 7 -4 1849.21 150.58
-2 7 -4 1775.22 155.08
-2 7 -4 1967.9 155.38
2 -7 4 1913.71 147.39
2 -7 4 1894.21 148.19
2 -7 4 1772.22 148.59
-3 7 -4 847.32 72.19
-3 7 -4 700.53 71.49
-3 7 -4 660.13 76.39
-3 7 -4 708.33 71.29
3 -7 4 826.82 67.59
3 -7 4 789.82 63.99
3 -7 4 773.92 66.29
3 -7 4 760.62 64.69
-4 7 -4 2254.87 181.58
-4 7 -4 2239.08 181.88
-4 7 -4 2125.19 184.58
-4 7 -4 1994.6 186.08
-4 7 -4 1798.62 182.48
4 -7 4 2428.66 176.58
4 -7 4 2123.09 178.48
4 -7 4 2402.26 176.18
-5 7 -4 362.86 34.3
-5 7 -4 325.37 38.9
-5 7 -4 306.37 36.3
-5 7 -4 333.17 40
-5 7 -4 364.96 42.8
-5 7 -4 289.27 34.9
5 -7 4 292.47 30.4
5 -7 4 302.97 31.4
-6 7 -4 923.11 78.49
6 -7 4 754.92 72.59
6 -7 4 897.51 68.39
6 -7 4 713.13 66.29
6 -7 4 633.44 66.29
-7 7 -4 124.99 16.7
-7 7 -4 83.49 18.7
7 -7 4 109.49 13.7
7 -7 4 109.89 12.6
7 -7 4 86.09 14.3
7 -7 4 82.49 13.7
-8 7 -4 178.98 19.9
-8 7 -4 206.98 20.9
8 -7 4 191.08 21.7
8 -7 4 214.28 19.2
8 -7 4 147.39 18.6
8 -7 4 173.28 18.7
-9 7 -4 26.8 7.7
9 -7 4 34.5 5.4
5 6 -4 8.3 3.4
-5 -6 4 10.6 3.2
-5 -6 4 4.5 4
-5 -6 4 9.1 3.9
-5 -6 4 7.3 2.7
4 6 -4 5.4 10.5
4 6 -4 4.7 4.5
4 6 -4 4 4.3
-4 -6 4 3.2 2.6
-4 -6 4 5.7 4.8
-4 -6 4 2.1 2.8
-4 -6 4 0.7 2.4
3 6 -4 85.89 15.4
3 6 -4 83.29 15.5
-3 -6 4 53.19 9
-3 -6 4 41.6 7.6
-3 -6 4 52.99 11.5
-3 -6 4 53.09 8.4
-3 -6 4 52.89 9
2 6 -4 58.59 30.2
2 6 -4 97.99 19.8
2 6 -4 75.09 15.1
-2 -6 4 83.89 10.5
-2 -6 4 75.19 10.8
-2 -6 4 53.19 11.9
-2 -6 4 65.89 12
-2 -6 4 85.99 11.9
1 6 -4 85.19 25.7
1 6 -4 101.29 16.7
1 6 -4 81.29 20.2
1 6 -4 96.19 17
-1 -6 4 90.39 10.9
-1 -6 4 86.29 10.5
-1 -6 4 93.99 11.5
0 6 -4 179.88 26.8
0 6 -4 128.09 17.2
0 6 -4 141.19 18.5
0 6 -4 149.49 23.2
0 6 -4 123.89 18.7
0 6 -4 141.79 24.2
0 6 -4 169.98 21.4
0 6 -4 136.89 21.7
0 6 -4 160.58 19.4
0 -6 4 168.78 15.6
0 -6 4 182.68 16.8
0 -6 4 180.88 19.5
-1 6 -4 44.2 8
-1 6 -4 25.6 9.2
-1 6 -4 18.9 7.6
-1 6 -4 38.2 10.6
-1 6 -4 42.5 13.7
-1 6 -4 30.9 9.3
-1 6 -4 23.3 7.4
-1 6 -4 24.8 9.4
1 -6 4 40.4 4.9
1 -6 4 31.3 8.7
1 -6 4 28.7 6.5
1 -6 4 36.3 7.2
1 -6 4 31.4 5.5
-2 6 -4 0.4 4.8
-2 6 -4 0.9 5.5
-2 6 -4 -3.9 7.5
-2 6 -4 9.2 6.5
-2 6 -4 -2.2 7.1
-2 6 -4 7.2 4.2
-2 6 -4 3.3 4.2
-2 6 -4 15.1 6.1
-2 6 -4 3.6 7.4
-2 6 -4 5.2 4.9
-2 6 -4 2.4 5.5
2 -6 4 5.9 4.2
2 -6 4 9.4 2.3
2 -6 4 9 2.9
-3 6 -4 14.6 8.7
-3 6 -4 27.4 11
-3 6 -4 16.6 6.4
-3 6 -4 8.7 5.1
-3 6 -4 16.7 7.4
-3 6 -4 8.1 5.5
-3 6 -4 23.5 7.6
-3 6 -4 18.3 7.1
-3 6 -4 23 6.4
-3 6 -4 13.6 5.4
3 -6 4 30.6 7.2
3 -6 4 13.5 3.4
3 -6 4 24.5 5.1
3 -6 4 25.2 7.3
-4 6 -4 100.19 14.8
-4 6 -4 106.49 15
-4 6 -4 119.79 17.5
-4 6 -4 108.19 17.7
-4 6 -4 87.49 20.9
-4 6 -4 119.59 18.1
-4 6 -4 92.19 17.4
-4 6 -4 101.49 15
-4 6 -4 80.09 14.6
4 -6 4 125.39 12.5
4 -6 4 98.59 13
4 -6 4 84.09 11.9
4 -6 4 108.99 15.8
-5 6 -4 1.8 5.6
-5 6 -4 -0.8 3.4
-5 6 -4 -4.5 4.4
-5 6 -4 16.7 7.7
-5 6 -4 0.9 5.9
-5 6 -4 2.5 5.5
5 -6 4 -2.6 3.3
5 -6 4 -4.6 3
5 -6 4 0.9 2.4
5 -6 4 5.2 4.6
-6 6 -4 40.6 9.9
-6 6 -4 46 11
-6 6 -4 32.5 11.6
-6 6 -4 46.4 12.8
6 -6 4 19.3 5.7
6 -6 4 33.6 9.7
6 -6 4 13.1 5.4
6 -6 4 21 5.6
6 -6 4 30.9 8.3
-7 6 -4 -0.9 4.9
-7 6 -4 1.4 4.6
-7 6 -4 5.2 7.9
-7 6 -4 7.3 5.1
-7 6 -4 -3.9 8
-7 6 -4 15 12.7
7 -6 4 1 2.8
7 -6 4 -0.4 2.3
7 -6 4 1.3 6.3
7 -6 4 -0.2 4.4
7 -6 4 -3.3 3.4
7 -6 4 1.4 3.1
-8 6 -4 3.3 3.1
-8 6 -4 -2.8 3.6
-8 6 -4 1.3 3.7
8 -6 4 1.3 2.6
8 -6 4 -1.7 2.9
8 -6 4 4.7 3.5
8 -6 4 1.5 5.4
-9 6 -4 1.6 2.9
9 -6 4 7.5 2.7
9 -6 4 8.3 3.9
9 -6 4 2.3 2.3
-6 -5 4 55.89 6.7
-6 -5 4 47.5 8.3
-6 -5 4 40.9 5.7
5 5 -4 486.35 45.5
-5 -5 4 469.85 43.7
-5 -5 4 418.96 41.1
-5 -5 4 503.65 41.4
4 5 -4 429.96 41.3
-4 -5 4 350.16 36.4
-4 -5 4 367.46 33.6
-4 -5 4 385.76 33.7
-4 -5 4 353.66 34.9
-4 -5 4 328.67 34.5
3 5 -4 493.75 48
-3 -5 4 420.06 37.7
-3 -5 4 406.76 38.9
-3 -5 4 442.46 38.7
-3 -5 4 382.96 37.6
2 5 -4 437.26 50.39
2 5 -4 490.75 54.19
-2 -5 4 505.35 44.9
-2 -5 4 570.14 54.49
-2 -5 4 496.45 48.6
-2 -5 4 509.05 43.5
-2 -5 4 539.25 44.2
1 5 -4 115.99 17.6
1 5 -4 119.79 14.5
1 5 -4 87.49 12.1
1 5 -4 73.69 13.9
-1 -5 4 92.39 10.3
-1 -5 4 103.89 10.6
-1 -5 4 92.49 11.7
-1 -5 4 104.29 13.9
0 5 -4 1124.59 110.89
0 5 -4 1323.27 108.89
0 -5 4 1304.77 106.19
0 -5 4 1355.86 108.39
0 -5 4 1400.56 106.49
-1 5 -4 26 6
-1 5 -4 19.4 6.1
1 -5 4 27.4 6.6
1 -5 4 22.9 4.7
1 -5 4 22.5 3.9
2 -5 4 1581.94 141.29
2 -5 4 1789.72 142.59
2 -5 4 1966 142.89
-3 5 -4 50.79 9.5
-3 5 -4 54.09 10.9
-3 5 -4 32.8 15.2
3 -5 4 48.8 7.5
3 -5 4 59.19 6.6
3 -5 4 59.29 7.5
3 -5 4 47.8 8.1
-4 5 -4 649.54 60.19
-4 5 -4 658.83 61.19
-4 5 -4 688.93 59.79
-4 5 -4 564.84 58.49
-4 5 -4 499.15 64.29
-4 5 -4 519.95 62.79
-4 5 -4 689.13 61.19
4 -5 4 713.33 56.29
4 -5 4 664.63 54.59
4 -5 4 637.14 53.99
4 -5 4 696.73 54.49
-5 5 -4 59.69 13.1
-5 5 -4 60.49 16.6
-5 5 -4 81.39 14.5
-5 5 -4 82.99 14.4
5 -5 4 67.69 12.4
5 -5 4 57.59 9.1
5 -5 4 71.59 9.5
-6 5 -4 135.19 26
-6 5 -4 179.38 21.1
-6 5 -4 157.68 20.5
-6 5 -4 132.79 27.5
6 -5 4 122.59 15.6
6 -5 4 123.99 14.7
6 -5 4 94.79 20.1
6 -5 4 111.99 14.8
-7 5 -4 -7.4 12.7
-7 5 -4 3.7 3.8
-7 5 -4 -1.5 5.6
-7 5 -4 -3.2 3.8
-7 5 -4 -2.8 6.4
-7 5 -4 0.3 4.2
7 -5 4 -1.3 2.7
7 -5 4 0.1 2.5
7 -5 4 15.2 7.2
7 -5 4 4.6 4.8
7 -5 4 0.7 2.8
7 -5 4 2.9 4
-8 5 -4 12.6 4.6
-8 5 -4 4.7 4.1
-8 5 -4 3.8 7.1
-8 5 -4 8.5 6.8
8 -5 4 5.9 3.3
8 -5 4 12.1 4.3
8 -5 4 8.5 3.8
8 -5 4 10.2 6.6
8 -5 4 4.8 3.8
9 -5 4 3.6 2.5
9 -5 4 8.4 2.8
7 4 -4 5.2 2.9
7 4 -4 3.7 6.2
-7 -4 4 2.2 2.4
-7 -4 4 -0.2 2.8
6 4 -4 1.8 7
6 4 -4 3.7 3.5
6 4 -4 3.3 5.4
-6 -4 4 5.2 3.2
-6 -4 4 3.2 3.1
-6 -4 4 5.6 2.7
-6 -4 4 4.7 2.5
5 4 -4 109.09 18.5
-5 -4 4 74.19 10.5
-5 -4 4 77.99 10.2
-5 -4 4 63.39 9.3
-5 -4 4 76.39 12.4
-5 -4 4 63.79 11
4 4 -4 9.5 6.1
4 4 -4 17.4 15.8
4 4 -4 8.1 7
-4 -4 4 8.1 4.7
-4 -4 4 11.9 4.2
-4 -4 4 12.6 4
-4 -4 4 14.3 4.7
-4 -4 4 22.2 6.2
3 4 -4 1384.36 118.19
3 4 -4 1583.14 140.89
3 4 -4 1379.36 114.89
3 4 -4 1263.07 116.29
-3 -4 4 1333.17 110.09
-3 -4 4 1323.47 109.19
-3 -4 4 1145.79 110.79
-3 -4 4 1324.57 114.19
-3 -4 4 1223.48 108.79
-3 -4 4 1465.85 108.99
2 4 -4 256.97 29.7
2 4 -4 269.17 30.8
-2 -4 4 301.87 27.9
-2 -4 4 321.77 31
-2 -4 4 318.67 27.1
-2 -4 4 330.37 26.9
1 4 -4 4383.56 387.86
1 4 -4 4400.56 384.96
-1 -4 4 4744.03 383.76
-1 -4 4 5824.62 387.46
0 4 -4 486.15 48.7
0 4 -4 574.14 47.4
0 -4 4 546.05 42.9
0 -4 4 491.15 46.1
0 -4 4 570.74 43.2
-1 4 -4 7337.97 533.35
1 -4 4 6279.57 527.45
1 -4 4 6461.45 529.75
2 -4 4 2519.45 209.38
2 -4 4 2760.82 211.38
3 -4 4 8353.36 663.93
3 -4 4 8494.95 663.83
3 -4 4 8347.46 662.33
-4 4 -4 2895.81 247.28
-4 4 -4 3442.76 253.17
4 -4 4 3383.26 247.48
4 -4 4 2994.6 246.08
4 -4 4 2699.03 247.58
4 -4 4 3109.29 249.18
-5 4 -4 2056.49 171.58
-5 4 -4 1923.71 168.08
-5 4 -4 2014.1 168.48
-5 4 -4 2082.99 164.48
-6 4 -4 1298.17 112.59
6 -4 4 1329.47 113.69
6 -4 4 1232.68 114.19
6 -4 4 1389.16 108.59
6 -4 4 1280.97 108.99
-7 4 -4 82.29 13.2
-7 4 -4 91.99 17.8
-7 4 -4 99.19 14.4
-7 4 -4 85.49 13.1
-7 4 -4 51.99 17
7 -4 4 62.59 12.3
7 -4 4 60.79 10.4
7 -4 4 63.99 13.9
7 -4 4 101.09 16.7
7 -4 4 74.49 10.4
7 -4 4 83.29 11.1
-8 4 -4 517.95 50.59
-8 4 -4 403.26 43.6
-8 4 -4 389.86 47.4
8 -4 4 500.45 44.7
8 -4 4 558.54 42.7
8 -4 4 543.75 44.5
-9 4 -4 22.5 4.7
-9 4 -4 6 3.4
-9 4 -4 10.9 5.4
9 -4 4 21.5 4.8
9 -4 4 12.9 3.1
8 3 -4 0.2 4.5
8 3 -4 2.2 1.9
-8 -3 4 0.1 1.9
7 3 -4 105.99 12.6
-7 -3 4 75.19 10.8
-7 -3 4 94.79 12.3
6 3 -4 6.7 5.3
-6 -3 4 -0.3 4.2
-6 -3 4 4.1 3.1
-6 -3 4 10.1 3.4
-6 -3 4 7.2 3
5 3 -4 519.05 44.9
5 3 -4 459.75 43.7
5 3 -4 386.76 41.9
-5 -3 4 428.96 38.4
-5 -3 4 422.76 39
-5 -3 4 416.26 39.2
-5 -3 4 401.86 40.7
-5 -3 4 445.66 38.5
4 3 -4 652.03 62.89
4 3 -4 698.53 62.29
4 3 -4 645.24 60.29
4 3 -4 639.04 60.59
-4 -3 4 583.24 57.49
-4 -3 4 699.23 55.79
-4 -3 4 689.03 56.99
-4 -3 4 701.63 56.59
-4 -3 4 620.24 55.59
3 3 -4 103.29 14.2
3 3 -4 102.99 16.2
3 3 -4 86.89 14
-3 -3 4 119.69 14.8
-3 -3 4 113.89 11.9
-3 -3 4 110.09 12.4
-3 -3 4 130.39 11.8
2 3 -4 1690.33 155.68
-2 -3 4 1871.11 151.48
-2 -3 4 2027.6 155.88
-2 -3 4 2014.9 152.78
1 3 -4 2.2 2.1
1 3 -4 8.6 2.9
1 3 -4 11 3.6
-1 -3 4 3.5 2.2
-1 -3 4 6.3 1.8
-1 -3 4 1.3 0.8
0 3 -4 2104.89 201.98
0 -3 4 2891.31 198.78
-1 3 -4 42.6 6.7
-1 3 -4 47.8 7.2
1 -3 4 38 5.3
-2 3 -4 294.97 29.5
2 -3 4 298.57 27.4
2 -3 4 333.57 26
2 -3 4 339.97 27.1
-3 3 -4 1277.07 106.99
3 -3 4 1263.27 105.19
3 -3 4 1202.58 108.29
3 -3 4 1498.35 104.99
-4 3 -4 60.39 13.7
4 -3 4 64.39 8.1
-5 3 -4 328.87 39.3
5 -3 4 342.67 33.5
5 -3 4 366.56 36.7
5 -3 4 342.37 35
5 -3 4 300.67 34.8
5 -3 4 379.56 31.9
5 -3 4 340.87 31.5
-6 3 -4 184.98 19.8
-6 3 -4 209.78 21.3
6 -3 4 157.48 18.3
6 -3 4 175.78 22.2
6 -3 4 149.59 17.2
6 -3 4 159.38 17.8
6 -3 4 135.59 21.1
-7 3 -4 187.38 24.5
-7 3 -4 218.28 24.8
-7 3 -4 235.08 29.2
7 -3 4 211.38 21.9
7 -3 4 228.98 23.8
7 -3 4 279.97 29.4
7 -3 4 254.77 29.2
7 -3 4 212.38 24.6
-8 3 -4 3.5 4.6
-8 3 -4 6.5 4.6
-8 3 -4 8.2 3.5
8 -3 4 11.4 5.2
8 -3 4 3.4 3.5
8 -3 4 8.9 3.5
8 -3 4 14.7 5.5
8 -3 4 10.3 6.6
-9 3 -4 6.2 4.1
-9 3 -4 3.7 4.7
-9 3 -4 5.7 2.5
9 -3 4 5.4 2
9 -3 4 8.5 4
8 2 -4 6.8 6.3
-8 -2 4 14 7.4
-8 -2 4 4.5 3.2
7 2 -4 33.5 8.7
-7 -2 4 19.2 7.8
-7 -2 4 24.4 6.6
-7 -2 4 16.5 3.6
-7 -2 4 10.9 4.6
6 2 -4 56.69 11.2
6 2 -4 44.3 10.2
6 2 -4 63.69 11.7
-6 -2 4 31.1 10.1
-6 -2 4 45.6 7.2
-6 -2 4 40.4 7.6
-6 -2 4 26.5 6.4
-6 -2 4 34.7 8.4
-6 -2 4 35.3 6.2
5 2 -4 14.3 8.1
5 2 -4 15.5 8.3
5 2 -4 19.3 7.9
5 2 -4 16.9 6.7
5 2 -4 8.6 5.6
-5 -2 4 3.2 2.7
-5 -2 4 10 3.8
-5 -2 4 8.6 4.5
-5 -2 4 6.8 5.1
-5 -2 4 17.5 4.1
4 2 -4 59.49 11.3
4 2 -4 61.59 13.7
4 2 -4 63.99 10.9
4 2 -4 54.79 10
-4 -2 4 59.79 8.8
-4 -2 4 62.69 8.7
-4 -2 4 83.09 11.7
-4 -2 4 79.29 8.9
-4 -2 4 60.49 8.1
-4 -2 4 48.7 9.6
-4 -2 4 69.49 8.1
3 2 -4 1310.17 114.29
-3 -2 4 1560.54 117.59
-3 -2 4 1327.87 110.99
-3 -2 4 1451.65 110.89
-3 -2 4 1253.47 111.19
2 2 -4 20.9 5.8
2 2 -4 33.3 5.7
-2 -2 4 22 4.8
-2 -2 4 27.9 3.6
-2 -2 4 24.1 3.6
-2 -2 4 30 4
1 2 -4 1163.88 104.29
-1 -2 4 1351.36 101.69
-1 -2 4 1337.27 101.99
-1 -2 4 1221.28 103.69
0 2 -4 2986.8 264.77
0 2 -4 3742.33 269.17
-1 2 -4 1832.42 146.69
-1 2 -4 1940.11 150.08
1 -2 4 1797.22 148.69
-2 2 -4 345.17 28.9
-2 2 -4 287.07 26.5
-2 2 -4 311.97 29
2 -2 4 327.37 27.9
-3 2 -4 89.59 9.1
-3 2 -4 88.99 10.8
3 -2 4 70.89 9.1
-4 2 -4 9.4 3.4
-4 2 -4 2.6 2.3
4 -2 4 3.9 3.3
4 -2 4 0.8 2
-5 2 -4 58.09 9.5
-5 2 -4 74.09 10.3
-5 2 -4 66.49 11.3
5 -2 4 62.99 8.6
5 -2 4 65.29 8.8
5 -2 4 56.19 11.1
5 -2 4 81.19 12.5
5 -2 4 56.09 11.5
5 -2 4 50.49 8.5
-6 2 -4 1.1 5.6
-6 2 -4 8.9 5
-6 2 -4 4.1 4
-6 2 -4 11.7 6.1
6 -2 4 -2.2 2.8
6 -2 4 6.4 3.2
6 -2 4 1.6 6.6
6 -2 4 1 4.4
6 -2 4 4 3.2
-7 2 -4 120.19 19.7
7 -2 4 165.08 19.1
7 -2 4 150.88 16.7
7 -2 4 170.88 17.9
7 -2 4 151.28 24.6
7 -2 4 171.48 23.8
-8 2 -4 6.5 4.8
-8 2 -4 2.9 4
-8 2 -4 8.8 5.6
8 -2 4 9.8 4.5
8 -2 4 4.2 2.5
8 -2 4 21.9 9.1
8 -2 4 9.9 3
8 -2 4 1.8 4.1
-9 2 -4 9.7 3.1
-9 2 -4 9.3 3.4
8 1 -4 190.58 20.3
-8 -1 4 140.99 16.8
-8 -1 4 146.49 17.7
7 1 -4 25.7 8.8
7 1 -4 16.3 12.9
7 1 -4 40.7 8.1
7 1 -4 39.4 8.8
-7 -1 4 26.8 8.2
-7 -1 4 27.2 5.6
-7 -1 4 30.3 7.4
6 1 -4 936.11 78.59
-6 -1 4 876.01 71.89
-6 -1 4 757.42 73.49
-6 -1 4 913.51 74.89
-6 -1 4 752.12 72.09
-6 -1 4 938.41 76.79
-6 -1 4 897.21 75.99
5 1 -4 54.99 8.9
5 1 -4 43.1 10.8
5 1 -4 38.5 9.2
5 1 -4 54.09 10.4
5 1 -4 54.99 11.5
-5 -1 4 59.99 9.1
-5 -1 4 48.5 8.1
-5 -1 4 42 9
-5 -1 4 48.9 7.1
-5 -1 4 53.09 7.4
-5 -1 4 44.3 10.5
-5 -1 4 43.8 7
-5 -1 4 55.09 6.9
4 1 -4 226.28 23.9
4 1 -4 236.38 25.6
-4 -1 4 241.38 21.4
-4 -1 4 245.28 22.8
-4 -1 4 225.68 21.7
-4 -1 4 253.77 24.5
3 1 -4 117.29 14.3
3 1 -4 125.19 14.1
-3 -1 4 123.39 14.7
-3 -1 4 128.99 12.9
-3 -1 4 136.09 14.5
-3 -1 4 130.69 12.6
-3 -1 4 123.69 11.8
2 1 -4 1064.89 85.39
2 1 -4 1107.19 86.19
-2 -1 4 989.4 83.39
-2 -1 4 1023.2 83.99
-2 -1 4 979.8 85.49
-2 -1 4 1083.59 84.49
1 1 -4 2265.37 185.68
-1 -1 4 2465.75 185.88
-1 -1 4 2270.47 185.28
0 1 -4 1926.81 155.48
0 -1 4 1736.23 152.68
0 -1 4 2098.69 153.48
-1 1 -4 1338.67 112.59
1 -1 4 1386.46 110.19
-2 1 -4 827.42 64.09
2 -1 4 759.72 60.69
2 -1 4 665.43 62.79
2 -1 4 706.13 62.09
-3 1 -4 458.35 39.9
-3 1 -4 421.86 43.8
3 -1 4 405.86 42.4
3 -1 4 504.35 40.3
3 -1 4 524.35 42.6
-4 1 -4 391.46 38.1
-4 1 -4 478.95 40.7
-4 1 -4 438.16 39.3
4 -1 4 510.25 42.1
4 -1 4 412.26 37.8
4 -1 4 466.85 38.8
4 -1 4 354.56 41
-5 1 -4 1576.44 134.69
-5 1 -4 1485.55 133.89
-5 1 -4 1658.03 136.69
5 -1 4 1860.51 132.19
5 -1 4 1605.24 130.69
5 -1 4 1442.46 133.49
5 -1 4 1742.43 138.19
5 -1 4 1553.24 132.09
-6 1 -4 127.49 18.1
-6 1 -4 94.59 20.2
-6 1 -4 114.69 18.1
6 -1 4 137.39 14.9
6 -1 4 140.39 17.8
6 -1 4 153.18 20.4
6 -1 4 139.09 19.7
6 -1 4 145.99 15.4
6 -1 4 152.68 16.4
-7 1 -4 152.18 20.3
-7 1 -4 184.68 22.4
7 -1 4 174.68 21.9
7 -1 4 168.78 19.1
7 -1 4 196.88 18.4
7 -1 4 234.08 23
7 -1 4 223.08 25.1
7 -1 4 179.48 18.5
-8 1 -4 19.8 7.2
8 -1 4 4.3 3.8
8 -1 4 13.7 3.1
8 -1 4 29.3 9.5
9 0 -4 7.2 4.9
-9 0 4 1 2.1
-9 0 4 -4.1 2.6
8 0 -4 4.8 5.1
8 0 -4 10.5 5.7
8 0 -4 2.2 4
-8 0 4 1.5 2.9
-8 0 4 7.6 4
7 0 -4 1.9 13.3
7 0 -4 16.4 7
7 0 -4 21.5 6.3
-7 0 4 23.3 6.8
-7 0 4 16.7 4.1
-7 0 4 23.1 4.5
-7 0 4 22.7 6.5
6 0 -4 9.1 6.5
6 0 -4 21.4 8.8
6 0 -4 19.8 8
-6 0 4 13.5 3.9
-6 0 4 12.3 3.7
-6 0 4 12.1 4.3
-6 0 4 4 4.5
-6 0 4 14.3 4.2
5 0 -4 264.87 27.7
5 0 -4 227.68 27.7
5 0 -4 301.47 31.5
5 0 -4 262.57 29.7
-5 0 4 305.57 25.5
-5 0 4 273.07 25.3
-5 0 4 317.17 28.9
-5 0 4 259.77 27.7
-5 0 4 298.27 27.7
-5 0 4 308.77 26.1
-5 0 4 285.17 27
4 0 -4 7.7 3.7
4 0 -4 7.3 2.9
4 0 -4 7 4.2
4 0 -4 8.4 3.7
4 0 -4 7.2 4.9
-4 0 4 10.4 3.5
-4 0 4 13.2 3.2
-4 0 4 7.3 2.3
-4 0 4 7.3 3
-4 0 4 8.6 3.8
3 0 -4 3126.39 260.27
3 0 -4 3023.8 262.87
-3 0 4 3257.47 258.27
-3 0 4 3391.66 259.67
-3 0 4 3202.28 260.17
-3 0 4 3521.35 259.27
-3 0 4 3259.67 257.97
2 0 -4 110.09 12.1
2 0 -4 134.19 13.2
2 0 -4 130.19 13.4
-2 0 4 139.39 12.8
-2 0 4 102.99 14.4
-2 0 4 125.69 11.4
-2 0 4 122.99 12
1 0 -4 2218.88 181.88
1 0 -4 1954.3 182.48
-1 0 4 2400.66 180.48
-1 0 4 2279.77 181.68
-1 0 4 2526.65 182.08
0 0 -4 106.89 12.5
0 0 -4 123.99 11.5
0 0 -4 97.29 10.8
0 0 -4 129.79 11.9
0 0 4 104.29 10.6
0 0 4 130.59 11
0 0 4 137.79 12.6
0 0 4 109.79 11.4
-1 0 -4 3328.67 273.97
-1 0 -4 3076.69 273.17
1 0 4 3730.03 273.77
1 0 4 3834.52 275.17
1 0 4 3764.62 274.87
1 0 4 2926.91 278.47
-2 0 -4 1995.7 159.98
3 0 4 1004.1 86.09
3 0 4 1005.4 89.09
3 0 4 1024.7 86.59
3 0 4 1180.78 96.09
-4 0 -4 425.26 46.5
-4 0 -4 588.74 49.9
4 0 4 482.55 52.39
4 0 4 609.94 46.4
4 0 4 484.35 44.1
-5 0 -4 -2.9 4.6
-5 0 -4 13 6.6
-5 0 -4 -1.5 6.1
5 0 4 -5 5.5
5 0 4 6.2 5
5 0 4 1.2 4.1
5 0 4 2.2 2.9
5 0 4 4.6 2.8
-6 0 -4 4.1 4.8
-6 0 -4 4.9 6.6
-6 0 -4 20 7.1
6 0 4 15.5 7
6 0 4 5.8 2.8
6 0 4 10 5.3
6 0 4 7.2 5.5
6 0 4 11.2 5
-7 0 -4 15.3 6.6
7 0 4 29.2 7.5
7 0 4 19.2 4.2
7 0 4 18.7 7.9
7 0 4 18.1 6.6
7 0 4 24.1 4.6
-8 0 -4 10.8 4
-8 0 -4 16.6 5.1
8 0 4 15.6 4.2
8 0 4 0.9 5.6
9 -1 -4 8.2 4
9 -1 -4 4.2 4.1
-9 1 4 4.8 2.7
-9 1 4 3.6 2.9
-8 1 4 176.78 19.3
-8 1 4 178.68 20.2
7 -1 -4 323.87 39.5
7 -1 -4 286.57 31.1
7 -1 -4 265.87 27.8
-7 1 4 253.97 26.5
-7 1 4 256.27 27.1
-7 1 4 242.08 23.6
6 -1 -4 337.67 25.3
6 -1 -4 274.97 29.8
6 -1 -4 282.07 30.1
6 -1 -4 290.47 31.8
6 -1 -4 323.87 36.4
-6 1 4 248.48 25.2
-6 1 4 278.07 28.3
-6 1 4 293.17 30
-6 1 4 230.68 27.6
-6 1 4 293.37 26.5
-6 1 4 289.37 25.9
-6 1 4 252.97 30.6
-6 1 4 290.67 25.7
5 -1 -4 1478.65 116.79
5 -1 -4 1291.27 110.19
5 -1 -4 1154.18 109.79
5 -1 -4 1357.56 107.99
5 -1 -4 1338.27 114.99
-5 1 4 1267.07 110.39
-5 1 4 1439.96 108.79
-5 1 4 1321.67 109.29
-5 1 4 1398.76 108.79
-5 1 4 1272.17 107.79
-5 1 4 1458.85 110.89
-5 1 4 1263.77 110.09
4 -1 -4 450.55 40.6
4 -1 -4 480.35 41
4 -1 -4 426.66 40.2
4 -1 -4 491.05 41.5
4 -1 -4 480.85 43.5
-4 1 4 473.25 41.1
-4 1 4 458.55 41.1
-4 1 4 469.05 39.6
-4 1 4 472.85 41.5
-4 1 4 458.35 39.1
3 -1 -4 2316.27 189.88
3 -1 -4 2348.36 188.68
3 -1 -4 2323.07 189.68
3 -1 -4 1984.5 187.18
3 -1 -4 2102.59 188.28
3 -1 -4 2155.28 187.78
-3 1 4 2519.55 186.98
-3 1 4 2542.55 186.68
-3 1 4 2541.75 188.68
-3 1 4 2605.14 188.08
2 -1 -4 18.7 3.6
2 -1 -4 14.8 4.2
2 -1 -4 13 3.4
-2 1 4 19.6 3.3
-2 1 4 26.1 3.3
-2 1 4 20.2 3.8
1 -1 -4 421.56 39.2
1 -1 -4 433.56 39.6
1 -1 -4 422.66 38.9
1 -1 -4 504.75 40.9
-1 1 4 484.55 39.1
-1 1 4 473.25 39.3
-1 1 4 447.26 39.8
-1 1 4 545.65 39
0 -1 -4 50.99 5.7
0 -1 -4 48.1 6
0 -1 -4 46.2 5.5
0 -1 -4 50.69 6.7
0 -1 -4 44.2 5.5
0 1 4 58.69 6.9
0 1 4 45.6 6
0 1 4 49.5 6.6
0 1 4 43.9 5.6
-1 -1 -4 2 1.2
-1 -1 -4 1.6 1.5
-1 -1 -4 3.5 1.6
-1 -1 -4 6.7 2.7
-1 -1 -4 5 1.5
1 1 4 2.7 2.2
1 1 4 3.7 1.3
1 1 4 1.9 2.3
-2 -1 -4 3.2 1.5
-2 -1 -4 0.5 2.3
-2 -1 -4 3.1 1.8
-2 -1 -4 11.4 3.3
2 1 4 10.3 4.2
2 1 4 8 4.3
2 1 4 4.5 2.6
2 1 4 3.7 3.6
2 1 4 1.9 2.2
-3 -1 -4 14.1 4.1
-3 -1 -4 3.5 2.1
-3 -1 -4 4.5 4
-3 -1 -4 8.5 4.9
-3 -1 -4 3.4 2.6
3 1 4 2.9 3.5
3 1 4 -0.4 3
3 1 4 5.2 2.7
3 1 4 3.7 4
3 1 4 7.6 4.6
3 1 4 6.4 3.3
3 1 4 3.2 3.7
-4 -1 -4 54.69 9.5
-4 -1 -4 56.59 13
-4 -1 -4 57.89 10.8
-4 -1 -4 53.79 10.6
4 1 4 34.2 13.7
4 1 4 40 9.8
4 1 4 62.89 12.1
4 1 4 55.59 8.1
4 1 4 64.19 9.4
4 1 4 60.49 12.1
4 1 4 46.5 10.4
4 1 4 66.49 8.6
-5 -1 -4 42.8 10.7
-5 -1 -4 53.19 13.7
-5 -1 -4 35.8 13.4
-5 -1 -4 33 9.3
5 1 4 58.29 7.8
5 1 4 53.39 12.2
5 1 4 52.29 7.6
5 1 4 38.3 9.7
5 1 4 57.69 11.9
5 1 4 52.89 8.6
5 1 4 53.29 10
-6 -1 -4 18.2 6.3
-6 -1 -4 12.9 6.2
6 1 4 11.3 3.2
6 1 4 4.7 3.5
6 1 4 19.7 6.3
6 1 4 17.2 5.6
6 1 4 10.2 6.9
-7 -1 -4 -0.1 2.9
7 1 4 -2.2 2.2
7 1 4 6.8 4.3
9 -2 -4 51.99 9.8
9 -2 -4 31.2 7.1
-9 2 4 35.6 6.9
-9 2 4 26.1 5.6
8 -2 -4 784.02 64.49
8 -2 -4 654.73 59.19
-8 2 4 617.44 58.49
-8 2 4 640.24 57.79
7 -2 -4 10.1 5.7
7 -2 -4 7.4 4.7
7 -2 -4 -0.1 3
-7 2 4 3.9 3.7
-7 2 4 2 3.4
-7 2 4 9.1 3.9
6 -2 -4 1619.24 146.79
6 -2 -4 1946.71 147.59
6 -2 -4 1777.22 145.29
6 -2 -4 1542.15 146.79
6 -2 -4 1795.22 150.58
6 -2 -4 2117.39 156.78
-6 2 4 1810.32 145.89
-6 2 4 1841.42 143.09
-6 2 4 1600.54 143.59
-6 2 4 1655.33 146.69
-6 2 4 1884.21 145.29
5 -2 -4 226.08 22.1
5 -2 -4 201.98 21.9
5 -2 -4 262.47 23.5
5 -2 -4 225.68 27.4
5 -2 -4 211.58 23.7
5 -2 -4 243.48 22.9
5 -2 -4 232.98 23.5
5 -2 -4 224.78 23.6
-5 2 4 232.18 23.5
-5 2 4 178.18 22.7
-5 2 4 248.08 21.1
-5 2 4 214.38 20.5
-5 2 4 226.08 21.8
-5 2 4 209.48 21.1
-5 2 4 249.18 22.6
4 -2 -4 3073.29 259.87
4 -2 -4 3222.28 259.47
4 -2 -4 3061.19 258.47
4 -2 -4 3111.19 262.37
4 -2 -4 2993.3 259.47
4 -2 -4 3302.87 262.07
4 -2 -4 3011.6 258.57
-4 2 4 3486.05 257.57
-4 2 4 3623.24 260.77
-4 2 4 3390.76 259.67
-4 2 4 3360.96 258.07
3 -2 -4 2889.31 242.08
3 -2 -4 2850.01 241.68
3 -2 -4 2845.42 244.38
3 -2 -4 3204.58 243.28
3 -2 -4 2649.33 242.28
3 -2 -4 2831.52 243.68
3 -2 -4 2921.71 241.58
-3 2 4 3479.15 243.68
-3 2 4 3215.98 242.48
-3 2 4 3253.57 240.88
-3 2 4 3193.88 241.28
2 -2 -4 4265.97 355.36
2 -2 -4 4224.68 353.06
2 -2 -4 4249.98 354.46
2 -2 -4 4149.78 353.66
2 -2 -4 4360.66 353.36
-2 2 4 4580.74 352.76
-2 2 4 4898.41 354.66
-2 2 4 4891.91 353.96
1 -2 -4 7715.43 645.94
1 -2 -4 8064.89 646.14
1 -2 -4 7814.52 648.04
-1 2 4 9116.39 645.94
0 -2 -4 2958.4 252.57
0 -2 -4 3049.59 254.67
0 -2 -4 3093.09 252.17
0 -2 -4 2972.5 252.67
0 -2 -4 3023.4 252.77
0 -2 -4 2872.61 252.27
0 2 4 3533.95 255.57
0 2 4 3390.46 253.07
0 2 4 3453.45 254.37
0 2 4 3241.48 253.27
0 2 4 3132.59 254.07
0 2 4 3386.16 253.67
-1 -2 -4 3365.36 280.57
-1 -2 -4 3535.35 280.57
-1 -2 -4 3401.86 284.97
-1 -2 -4 3502.25 281.07
-1 -2 -4 3684.23 280.37
-1 -2 -4 3589.84 281.37
1 2 4 3469.85 284.27
1 2 4 3545.45 286.07
1 2 4 3666.33 282.67
-2 -2 -4 978.7 79.99
-2 -2 -4 899.01 79.39
-2 -2 -4 1005 81.39
-2 -2 -4 1053.39 84.39
-2 -2 -4 870.61 80.39
2 2 4 965.3 85.99
2 2 4 1133.79 83.69
2 2 4 1038.1 82.99
2 2 4 1036.2 88.49
2 2 4 881.61 82.09
2 2 4 855.51 83.79
-3 -2 -4 1342.17 111.59
-3 -2 -4 1211.38 109.89
-3 -2 -4 1104.29 104.99
-3 -2 -4 1250.37 108.69
-3 -2 -4 1143.29 105.39
-3 -2 -4 1217.88 107.69
3 2 4 1361.96 109.69
3 2 4 1327.57 109.69
3 2 4 1542.65 115.39
3 2 4 1488.25 107.49
-4 -2 -4 94.09 18.3
-4 -2 -4 92.59 14.2
-4 -2 -4 73.49 14.8
-4 -2 -4 96.29 13.5
-4 -2 -4 70.69 14.3
4 2 4 95.79 17.5
4 2 4 91.19 14
4 2 4 100.79 11.7
4 2 4 96.99 12.1
4 2 4 110.39 17.5
4 2 4 117.69 13.6
-5 -2 -4 246.08 36.5
-5 -2 -4 246.68 29
-5 -2 -4 246.88 27.4
5 2 4 240.88 27.9
5 2 4 217.98 23.3
5 2 4 301.87 32.5
5 2 4 301.47 28.2
5 2 4 278.97 23.9
-6 -2 -4 -1.4 3.6
-6 -2 -4 -5.2 3.6
6 2 4 -0.7 3.1
6 2 4 10.4 5
6 2 4 0.9 4.8
-7 -2 -4 18.3 5.4
-7 -2 -4 17.7 5.1
7 2 4 22.8 5.9
7 2 4 26.6 4.9
9 -3 -4 -0.7 4.2
9 -3 -4 -4.5 3
-9 3 4 1.9 3.1
-9 3 4 3.4 3.3
8 -3 -4 25.7 8.4
8 -3 -4 21.2 6.5
8 -3 -4 23.1 5.5
-8 3 4 27.1 6.8
-8 3 4 21.7 5.3
7 -3 -4 10 3.8
7 -3 -4 17.8 7.1
7 -3 -4 13.1 6.6
7 -3 -4 19.5 4.4
-7 3 4 19.1 6.7
-7 3 4 10.4 6.3
-7 3 4 20.3 5.7
-7 3 4 18.4 6
6 -3 -4 161.18 22.1
6 -3 -4 167.08 18.6
6 -3 -4 170.68 20
6 -3 -4 131.19 17.1
6 -3 -4 156.08 32.3
6 -3 -4 202.28 28.6
-6 3 4 158.68 19.3
-6 3 4 161.48 16.1
5 -3 -4 614.64 56.59
5 -3 -4 587.94 53.89
5 -3 -4 652.93 58.39
5 -3 -4 556.34 51.39
5 -3 -4 716.93 59.39
5 -3 -4 585.84 50.99
5 -3 -4 611.24 51.89
5 -3 -4 559.34 52.59
5 -3 -4 664.93 53.29
5 -3 -4 549.85 53.09
5 -3 -4 640.24 53.89
-5 3 4 636.64 50.29
-5 3 4 658.03 54.39
-5 3 4 544.25 51.49
-5 3 4 487.05 50.49
-5 3 4 560.14 50.99
4 -3 -4 330.97 29.5
4 -3 -4 291.87 27.8
4 -3 -4 281.07 27.9
4 -3 -4 268.37 28.1
4 -3 -4 299.57 30.8
4 -3 -4 263.27 29.4
4 -3 -4 284.17 29.1
4 -3 -4 319.27 35.9
-4 3 4 359.56 30.1
-4 3 4 314.67 27.7
-4 3 4 332.67 27.1
-4 3 4 346.37 30.8
-4 3 4 286.17 27.6
3 -3 -4 71.59 11.1
3 -3 -4 62.59 8.7
3 -3 -4 63.99 8.4
3 -3 -4 58.19 8.3
-3 3 4 84.09 8.8
-3 3 4 77.79 8.5
2 -3 -4 720.63 59.59
2 -3 -4 763.42 62.79
2 -3 -4 679.93 60.59
2 -3 -4 657.03 58.89
2 -3 -4 694.23 58.99
2 -3 -4 734.63 59.09
2 -3 -4 668.83 59.69
-2 3 4 743.53 60.69
-2 3 4 768.12 61.69
-2 3 4 653.83 58.89
1 -3 -4 13.4 4.2
1 -3 -4 12.9 5.5
1 -3 -4 12.5 3.4
1 -3 -4 13.9 3.7
1 -3 -4 23.8 4.4
1 -3 -4 19.4 4.4
1 -3 -4 21.1 3.8
-1 3 4 15.6 4.5
-1 3 4 13.9 4.7
-1 3 4 21 4.4
0 -3 -4 688.33 61.79
0 -3 -4 767.92 62.29
0 -3 -4 789.72 61.69
0 -3 -4 734.03 61.99
0 -3 -4 746.83 61.49
0 -3 -4 731.63 62.49
0 -3 -4 792.02 65.39
0 3 4 719.13 62.49
0 3 4 723.23 63.69
0 3 4 707.13 64.39
0 3 4 728.03 63.29
-1 -3 -4 10.9 2.7
-1 -3 -4 4.8 3.3
-1 -3 -4 -2.4 3.8
-1 -3 -4 4.5 3.2
-1 -3 -4 16 6.2
-1 -3 -4 0.6 2.6
-1 -3 -4 8.8 3.4
-1 -3 -4 6.9 2.9
1 3 4 5.7 4.9
1 3 4 4.8 4
1 3 4 12.6 5
1 3 4 13.9 5.5
1 3 4 6 4.2
1 3 4 2.1 3.6
1 3 4 1.7 3.7
-2 -3 -4 310.37 28.6
-2 -3 -4 363.16 33.6
-2 -3 -4 322.47 29.6
-2 -3 -4 258.57 27.9
-2 -3 -4 266.77 28.9
-2 -3 -4 319.57 28.7
-2 -3 -4 324.27 30
-2 -3 -4 355.06 32
2 3 4 329.67 36
2 3 4 279.77 31.5
2 3 4 290.27 31.5
2 3 4 334.17 38.6
2 3 4 303.27 32.4
-3 -3 -4 3.8 5.1
-3 -3 -4 9.9 9
-3 -3 -4 -0.5 3.5
-3 -3 -4 8 6
-3 -3 -4 6 4.6
3 3 4 8.3 5.1
3 3 4 11.6 4.8
3 3 4 0.4 5.2
-4 -3 -4 145.59 17.6
-4 -3 -4 181.78 23
-4 -3 -4 181.58 21.2
-4 -3 -4 162.48 20.8
4 3 4 151.38 24.3
4 3 4 184.08 21.6
4 3 4 230.48 27.9
4 3 4 150.48 21
4 3 4 207.18 17.7
-5 -3 -4 38.6 9.4
5 3 4 50.79 8.8
5 3 4 36.4 9.2
5 3 4 41.6 11.4
-6 -3 -4 -4.9 4.4
-6 -3 -4 1.6 3.8
-6 -3 -4 -0.7 3.2
6 3 4 -3.6 2.4
6 3 4 0.4 2.5
9 -4 -4 37.8 7.7
9 -4 -4 63.79 10.1
-9 4 4 43.3 7.7
8 -4 -4 323.07 26.4
8 -4 -4 308.87 31.6
8 -4 -4 342.27 32.1
8 -4 -4 293.97 33.5
-8 4 4 296.77 30.6
-8 4 4 271.47 28.3
-8 4 4 310.37 29.8
7 -4 -4 76.09 12.1
7 -4 -4 67.69 9.8
7 -4 -4 74.39 12.5
7 -4 -4 80.99 13.8
7 -4 -4 83.09 15.4
7 -4 -4 83.19 10.5
-7 4 4 76.19 10.5
-7 4 4 63.79 13.5
-7 4 4 60.99 12.1
-7 4 4 64.09 10.8
6 -4 -4 3288.47 247.48
6 -4 -4 3257.77 246.08
6 -4 -4 2907.31 244.18
6 -4 -4 3012.8 247.48
6 -4 -4 2910.71 243.18
6 -4 -4 3110.29 245.28
6 -4 -4 3055.39 247.58
-6 4 4 2998.2 244.78
-6 4 4 3012.7 243.88
-6 4 4 2845.62 247.88
5 -4 -4 9.2 4.2
5 -4 -4 -5.1 5.7
5 -4 -4 2 3.3
5 -4 -4 8.7 4.8
5 -4 -4 8.3 5
5 -4 -4 4.3 4
5 -4 -4 6.2 4.2
5 -4 -4 3.4 3.4
-5 4 4 3.8 3.8
-5 4 4 10.3 5.1
-5 4 4 8.3 3.8
4 -4 -4 4113.89 322.87
4 -4 -4 3642.34 321.87
4 -4 -4 3913.51 324.47
4 -4 -4 4181.98 325.67
4 -4 -4 4567.04 325.37
4 -4 -4 4006.7 326.87
4 -4 -4 4067.89 329.67
4 -4 -4 4263.07 323.47
4 -4 -4 3967.6 323.57
4 -4 -4 3854.71 327.57
-4 4 4 3928.81 323.07
3 -4 -4 513.05 47.8
3 -4 -4 551.74 47.4
3 -4 -4 481.05 46.7
3 -4 -4 543.95 46.6
3 -4 -4 596.24 52.59
3 -4 -4 569.54 50.19
3 -4 -4 548.05 49.9
-3 4 4 548.55 47.4
-3 4 4 522.15 46.8
2 -4 -4 1108.99 94.49
2 -4 -4 1094.19 96.49
2 -4 -4 1177.98 94.29
2 -4 -4 1090.79 95.29
2 -4 -4 1216.48 99.49
2 -4 -4 1135.89 96.59
2 -4 -4 1021.9 93.69
2 -4 -4 1060.59 94.59
2 -4 -4 1155.38 94.39
-2 4 4 1200.88 95.19
-2 4 4 1190.48 95.69
-2 4 4 1343.07 99.29
1 -4 -4 748.23 60.49
1 -4 -4 715.23 60.59
1 -4 -4 732.73 65.19
1 -4 -4 678.43 62.29
1 -4 -4 722.93 60.89
1 -4 -4 685.53 62.49
1 -4 -4 657.13 59.99
1 -4 -4 706.93 60.89
1 -4 -4 676.83 61.19
-1 4 4 778.62 61.99
-1 4 4 787.62 62.99
0 -4 -4 703.63 63.79
0 -4 -4 662.13 66.69
0 -4 -4 791.32 63.39
0 -4 -4 724.33 65.19
0 -4 -4 759.12 64.29
0 -4 -4 731.43 68.29
0 -4 -4 769.42 65.99
0 -4 -4 692.93 63.49
0 -4 -4 769.32 64.39
0 -4 -4 723.33 63.09
0 4 4 871.11 67.49
0 4 4 831.02 66.29
-1 -4 -4 822.22 71.69
-1 -4 -4 889.71 74.19
-1 -4 -4 874.91 72.49
-1 -4 -4 795.12 72.89
-1 -4 -4 815.72 70.59
-1 -4 -4 911.11 71.49
-1 -4 -4 797.72 75.39
-1 -4 -4 879.81 77.99
-1 -4 -4 827.92 70.69
1 4 4 929.21 73.29
1 4 4 914.01 75.69
1 4 4 813.12 74.29
1 4 4 693.83 79.19
-2 -4 -4 1.6 2.8
-2 -4 -4 3.4 4.3
-2 -4 -4 11.4 5.6
-2 -4 -4 6.1 3.8
-2 -4 -4 0.2 5.6
-2 -4 -4 0.7 3
-2 -4 -4 0.3 3.3
2 4 4 -0.2 6
2 4 4 -3.3 4.9
2 4 4 3.1 5.2
-3 -4 -4 17.1 6.7
-3 -4 -4 15.7 5
-3 -4 -4 29.2 8.6
-3 -4 -4 19.5 7.2
3 4 4 24.1 7.3
3 4 4 22.8 6.7
3 4 4 20.4 8.8
-4 -4 -4 68.59 13.6
-4 -4 -4 92.49 14.2
4 4 4 74.29 12.7
4 4 4 97.69 16.7
4 4 4 94.79 12.8
-5 -4 -4 1.3 3
-5 -4 -4 3.6 4
5 4 4 7.4 3.5
5 4 4 2.7 3
9 -5 -4 66.99 13.3
-9 5 4 79.49 11.3
-9 5 4 62.19 8.3
8 -5 -4 111.49 20
8 -5 -4 106.89 14.6
8 -5 -4 77.49 16.6
8 -5 -4 102.79 10.3
-8 5 4 88.89 12.4
7 -5 -4 341.47 31.7
7 -5 -4 265.17 32.7
7 -5 -4 325.67 29
-7 5 4 270.77 35.1
-7 5 4 301.57 28.7
6 -5 -4 1678.03 128.59
6 -5 -4 1559.84 127.49
6 -5 -4 1671.83 131.49
6 -5 -4 1537.55 126.49
6 -5 -4 1343.17 130.09
6 -5 -4 1737.53 130.99
-6 5 4 1415.66 132.69
-6 5 4 1669.83 127.29
-6 5 4 1360.96 127.89
-6 5 4 1549.54 127.89
5 -5 -4 225.78 22.5
5 -5 -4 188.18 20.6
5 -5 -4 167.08 19.7
5 -5 -4 189.98 21.9
5 -5 -4 195.78 23.2
5 -5 -4 152.08 20.2
5 -5 -4 204.08 24.5
5 -5 -4 172.48 19.3
-5 5 4 231.18 25.9
-5 5 4 198.58 21.2
-5 5 4 207.28 24.7
-5 5 4 193.68 20.6
4 -5 -4 1613.14 126.29
4 -5 -4 1479.65 123.29
4 -5 -4 1412.66 123.49
4 -5 -4 1453.55 124.79
4 -5 -4 1448.16 127.49
4 -5 -4 1519.25 122.79
4 -5 -4 1426.66 121.99
-4 5 4 1606.74 123.79
3 -5 -4 805.02 65.59
3 -5 -4 760.72 67.49
3 -5 -4 760.22 64.69
3 -5 -4 744.53 66.49
3 -5 -4 722.93 68.59
3 -5 -4 772.62 68.79
3 -5 -4 674.53 63.89
3 -5 -4 704.63 65.09
-3 5 4 764.82 72.39
-3 5 4 771.12 65.29
-3 5 4 835.32 73.29
-3 5 4 833.12 66.09
2 -5 -4 1683.43 139.99
2 -5 -4 1632.14 141.59
2 -5 -4 1664.13 137.79
2 -5 -4 1680.13 138.99
2 -5 -4 1714.93 137.29
2 -5 -4 1592.44 136.69
2 -5 -4 1680.63 137.49
2 -5 -4 1603.04 140.69
2 -5 -4 1662.03 139.79
-2 5 4 1777.22 138.69
-2 5 4 1824.12 139.29
1 -5 -4 20.9 5.8
1 -5 -4 37.2 6.8
1 -5 -4 16.6 8.1
1 -5 -4 33.4 6.7
1 -5 -4 17 6.2
1 -5 -4 31.4 6
1 -5 -4 25.6 6
1 -5 -4 25.2 9.2
1 -5 -4 20.4 5.2
-1 5 4 30.4 8.1
-1 5 4 30.4 8.2
0 -5 -4 1128.19 85.39
0 -5 -4 874.71 83.69
0 -5 -4 864.21 82.79
0 -5 -4 1115.29 84.59
0 -5 -4 951.8 88.19
0 -5 -4 1034.1 84.99
0 5 4 1032 89.19
-1 -5 -4 691.53 69.59
-1 -5 -4 819.02 70.19
-1 -5 -4 841.32 68.09
-1 -5 -4 799.82 69.29
-1 -5 -4 883.31 75.49
-1 -5 -4 853.71 71.79
-1 -5 -4 788.52 69.29
-1 -5 -4 732.23 73.19
1 5 4 790.42 72.49
1 5 4 808.62 72.39
-2 -5 -4 486.75 51.79
-2 -5 -4 566.34 56.89
-2 -5 -4 615.94 54.09
-2 -5 -4 552.44 52.69
-2 -5 -4 648.34 51.19
-2 -5 -4 671.23 55.59
2 5 4 562.24 54.79
-3 -5 -4 202.88 22.8
-3 -5 -4 176.48 18
-3 -5 -4 161.68 23.3
3 5 4 188.18 22.2
3 5 4 233.98 22
-4 -5 -4 393.26 41.3
4 5 4 390.66 32.6
4 5 4 292.07 35.6
-5 -5 -4 62.89 7.8
9 -6 -4 2.8 2.8
-9 6 4 2.4 2.3
-9 6 4 -2 4.1
-9 6 4 4.6 2.3
8 -6 -4 60.69 9.8
-8 6 4 59.79 8.5
-8 6 4 52.49 10.2
-8 6 4 37.4 9.6
7 -6 -4 18.2 6.2
7 -6 -4 10.2 6
7 -6 -4 13.6 6.8
7 -6 -4 18.5 5.3
7 -6 -4 5.5 6.9
-7 6 4 15.6 5
-7 6 4 2.8 7.6
-7 6 4 12.2 5.3
6 -6 -4 170.48 30.8
6 -6 -4 185.48 20.6
6 -6 -4 220.68 20.4
6 -6 -4 186.88 25.7
6 -6 -4 234.38 24.1
6 -6 -4 212.68 22.1
6 -6 -4 160.68 18.9
-6 6 4 179.98 19.8
-6 6 4 168.88 31.3
-6 6 4 108.89 32.8
-6 6 4 148.29 22.2
5 -6 -4 17.5 6.6
5 -6 -4 7 4.6
5 -6 -4 17.9 5.1
5 -6 -4 17.2 5.6
5 -6 -4 15.5 5.1
5 -6 -4 16.2 6.1
5 -6 -4 11.9 8.1
-5 6 4 10.6 6.6
-5 6 4 7.8 9
-5 6 4 -0.5 10.1
-5 6 4 31.4 7.3
4 -6 -4 58.09 10.6
4 -6 -4 71.99 11.1
4 -6 -4 42.3 8.1
4 -6 -4 69.29 13.8
4 -6 -4 48.5 8.3
4 -6 -4 41.5 8.1
4 -6 -4 45.3 8
-4 6 4 49.8 8.6
-4 6 4 35.7 8.6
3 -6 -4 576.84 58.29
3 -6 -4 545.55 51.89
3 -6 -4 509.45 49.1
3 -6 -4 520.35 47.8
3 -6 -4 551.54 50.69
3 -6 -4 543.25 51.09
-3 6 4 598.44 50.09
2 -6 -4 709.53 64.49
2 -6 -4 645.04 62.19
2 -6 -4 706.13 65.99
2 -6 -4 705.83 63.49
2 -6 -4 705.73 62.69
2 -6 -4 713.03 61.29
2 -6 -4 625.34 69.59
2 -6 -4 720.23 63.79
-2 6 4 835.62 64.59
-2 6 4 770.62 64.89
1 -6 -4 247.98 27.1
1 -6 -4 278.87 27.2
1 -6 -4 261.17 26.8
1 -6 -4 270.77 27.2
1 -6 -4 212.48 29.4
1 -6 -4 279.27 26.1
1 -6 -4 278.57 29
1 -6 -4 275.57 25.9
-1 6 4 233.08 29.5
-1 6 4 327.97 30
0 -6 -4 164.88 23.7
0 -6 -4 187.68 20.5
0 -6 -4 179.18 20.4
0 -6 -4 189.78 21.2
0 -6 -4 186.08 19.4
0 -6 -4 196.38 22.4
0 -6 -4 172.78 18.9
0 6 4 222.08 29.1
0 6 4 174.88 24.6
0 6 4 188.38 22.6
-1 -6 -4 53.39 16
-1 -6 -4 58.09 11.1
-1 -6 -4 68.99 9.7
-1 -6 -4 65.29 14.4
-1 -6 -4 56.09 10.6
-1 -6 -4 52.99 8.5
1 6 4 64.79 12.5
-2 -6 -4 262.27 26.9
-2 -6 -4 248.58 23
-2 -6 -4 243.38 29
2 6 4 242.38 26.8
-3 -6 -4 17.3 5.7
-3 -6 -4 27.4 7.3
3 6 4 44.3 10.1
3 6 4 21.7 6.5
-4 -6 -4 65.89 7.8
4 6 4 54.59 8.5
8 -7 -4 193.28 16.2
8 -7 -4 188.58 19.7
-8 7 4 175.68 18.2
7 -7 -4 6.5 4.4
7 -7 -4 12.8 4.8
7 -7 -4 9.1 5.9
7 -7 -4 6 8.7
7 -7 -4 17.3 5.8
-7 7 4 3.2 5.2
-7 7 4 9.2 3.8
-7 7 4 16.6 4.9
6 -7 -4 57.49 9.2
6 -7 -4 66.29 11.5
6 -7 -4 81.09 10.1
6 -7 -4 78.59 13
-6 7 4 77.99 10.8
-6 7 4 67.59 11.1
5 -7 -4 9.4 5.2
5 -7 -4 8.6 4.5
5 -7 -4 5 3.8
5 -7 -4 14.6 8.8
5 -7 -4 9.2 5.5
5 -7 -4 8.1 4.9
-5 7 4 4.3 14.1
-5 7 4 6 6
-5 7 4 11.4 4.7
4 -7 -4 245.28 32.2
4 -7 -4 213.48 25.4
4 -7 -4 178.98 20.2
4 -7 -4 154.18 18.6
4 -7 -4 177.98 23.2
3 -7 -4 101.79 14.6
3 -7 -4 82.09 10.4
3 -7 -4 70.59 11.9
3 -7 -4 49.3 12.8
3 -7 -4 72.49 11.1
3 -7 -4 72.59 10
2 -7 -4 298.47 32.3
2 -7 -4 257.07 27.3
2 -7 -4 231.08 25.8
2 -7 -4 277.67 30.7
-2 7 4 336.47 34.8
1 -7 -4 132.79 21.8
1 -7 -4 125.09 15
1 -7 -4 140.79 16.7
1 -7 -4 118.19 17.6
1 -7 -4 133.29 15.2
-1 7 4 163.68 22.3
-1 7 4 153.68 18.7
0 -7 -4 206.78 19.1
0 -7 -4 189.38 22
0 -7 -4 161.78 21.9
0 7 4 198.08 27
0 7 4 179.58 22.1
-1 -7 -4 158.98 21.2
-1 -7 -4 116.99 16.1
-1 -7 -4 157.68 18.2
1 7 4 104.29 21.5
1 7 4 122.99 16.1
-2 -7 -4 106.39 13.3
2 7 4 124.09 13.3
2 7 4 96.09 14.4
8 -8 -4 3 2.8
-8 8 4 3.1 2.8
-8 8 4 5.5 2.1
7 -8 -4 45.6 6.2
7 -8 -4 40.4 8.3
7 -8 -4 26.7 8.5
-7 8 4 33 11.1
-7 8 4 42 6.7
6 -8 -4 0.5 2.7
6 -8 -4 4.1 5.3
6 -8 -4 3.1 4.3
6 -8 -4 8.3 7.2
-6 8 4 0.3 5.6
-6 8 4 -1 4.3
-6 8 4 1.6 2.5
-6 8 4 3.3 4.6
5 -8 -4 192.68 21.3
5 -8 -4 181.98 17.8
5 -8 -4 167.18 20.3
-5 8 4 138.89 23.1
-5 8 4 207.98 23.2
-5 8 4 201.68 19.7
4 -8 -4 -3.2 3.3
4 -8 -4 0.4 2.5
4 -8 -4 -0.4 3.3
4 -8 -4 1.3 2.4
4 -8 -4 12.1 10.1
-4 8 4 -1.6 2.8
-4 8 4 1.2 4.3
-4 8 4 -0.3 6.4
3 -8 -4 384.66 37.1
3 -8 -4 354.96 33.7
3 -8 -4 400.46 43.2
-3 8 4 403.96 37.2
-3 8 4 365.16 52.69
2 -8 -4 8.1 3.4
2 -8 -4 7.2 2.9
2 -8 -4 10.1 5.4
-2 8 4 11.7 8.3
-2 8 4 15.5 6.5
1 -8 -4 293.47 31.3
1 -8 -4 389.66 35
1 -8 -4 412.26 34.9
-1 8 4 355.86 35
-1 8 4 339.97 44.3
0 -8 -4 6.6 2.6
0 -8 -4 8 4.3
0 8 4 7.4 4.9
0 8 4 7.8 4
0 8 4 15.5 6.7
-1 -8 -4 109.59 13
1 8 4 93.79 11.7
6 -9 -4 41.4 7.2
6 -9 -4 36.2 5.2
-6 9 4 32.5 5.6
5 -9 -4 311.77 26
5 -9 -4 234.08 25
5 -9 -4 280.27 22.7
-5 9 4 220.98 27.2
4 -9 -4 119.79 13.5
4 -9 -4 95.29 10.3
-4 9 4 91.39 12.2
-4 9 4 115.69 17
-4 9 4 105.19 18.7
3 -9 -4 123.39 11.5
3 -9 -4 131.89 14.7
-3 9 4 90.79 19.3
-3 9 4 115.59 13.7
2 -9 -4 134.39 12.7
2 -9 -4 110.59 13.8
-2 9 4 126.59 15.2
1 -9 -4 2.8 3.2
-1 9 4 -0.1 1.7
-1 9 4 1.7 2.9
-4 11 -5 -0.3 4.9
0 10 -5 13.7 6.2
0 -10 5 12.2 4
-1 10 -5 376.46 39.5
-1 10 -5 412.16 46.4
-2 10 -5 20.5 8.4
2 -10 5 16.3 5.8
-3 10 -5 73.79 10.7
-3 10 -5 92.99 13.7
3 -10 5 61.49 11.6
-4 10 -5 75.69 13.7
-4 10 -5 93.19 14.2
-4 10 -5 80.79 11.9
-4 10 -5 114.59 33.2
4 -10 5 69.89 11.1
4 -10 5 66.59 9.5
-5 10 -5 30.1 8.4
5 -10 5 37.1 6.8
5 -10 5 34.1 7.4
6 -10 5 147.59 15.2
-7 10 -5 -1.6 2.3
-7 10 -5 1.8 2.6
2 9 -5 15.3 7.7
2 9 -5 14.5 5.6
-2 -9 5 11.6 3.6
-2 -9 5 7.6 3.1
1 9 -5 71.09 13.7
-1 -9 5 35.5 7.7
-1 -9 5 38.2 7.4
0 9 -5 203.88 26.2
0 9 -5 203.38 31.6
-1 9 -5 53.79 12.3
-1 9 -5 15 7.8
1 -9 5 32.6 7.8
-2 9 -5 29.7 8.4
-2 9 -5 35.7 7.8
-2 9 -5 41.2 13.2
2 -9 5 26.7 8.2
2 -9 5 18.7 5.2
2 -9 5 18 5.3
-3 9 -5 49.7 11.3
-3 9 -5 44.9 9.7
-3 9 -5 47.5 16.4
3 -9 5 56.99 8
3 -9 5 46.5 8
3 -9 5 52.09 11.8
-4 9 -5 75.19 13.1
-4 9 -5 56.59 18.4
-4 9 -5 70.59 11.6
-4 9 -5 67.19 14.8
4 -9 5 73.19 9.7
-5 9 -5 4.6 6.7
-5 9 -5 1 3.9
-5 9 -5 6.4 6.7
-5 9 -5 5.3 3.3
-5 9 -5 -0.6 3.7
5 -9 5 3.4 3.2
5 -9 5 -2.2 3
-6 9 -5 19.7 7.7
-6 9 -5 43.8 11.7
-6 9 -5 10.6 6.5
-6 9 -5 27.6 9.7
6 -9 5 21 5.4
6 -9 5 18.4 4.6
6 -9 5 18.8 4.9
-7 9 -5 4.6 4.3
-7 9 -5 -0.8 4.4
-7 9 -5 -2.5 3.2
-7 9 -5 -2 3.1
7 -9 5 3.1 3.4
7 -9 5 0.3 2
-8 9 -5 0.5 2
-8 9 -5 -2.5 3.6
-8 9 -5 1.8 2.1
8 -9 5 -0.7 1.9
3 8 -5 47.8 8.8
-3 -8 5 25.5 4.9
-3 -8 5 32.3 5.6
-2 -8 5 133.79 16.2
-2 -8 5 162.98 16.2
-2 -8 5 147.49 19.4
1 8 -5 15 8
1 8 -5 -1.7 16.2
1 8 -5 23 8.1
1 8 -5 8.5 6.1
-1 -8 5 1.6 2.9
-1 -8 5 13.6 5.4
-1 -8 5 6.3 4.4
0 -8 5 476.65 47.3
0 -8 5 588.14 47.5
-1 8 -5 2.3 6.9
-1 8 -5 11.2 10
-1 8 -5 9.7 9.3
-1 8 -5 -3.3 5.6
-1 8 -5 -1.4 5.3
-1 8 -5 3.6 4.2
1 -8 5 5.4 5.5
1 -8 5 3.3 3.1
1 -8 5 -2.6 2.7
-2 8 -5 624.24 58.79
-2 8 -5 708.53 70.19
2 -8 5 562.54 50.99
2 -8 5 606.84 53.39
2 -8 5 513.45 50.29
-3 8 -5 71.69 13.2
-3 8 -5 80.49 12.5
-3 8 -5 38.5 12.2
-3 8 -5 76.29 14.6
-3 8 -5 58.39 11.7
3 -8 5 69.79 11
3 -8 5 62.19 9.2
3 -8 5 46.3 8.7
-4 8 -5 1164.28 115.39
-4 8 -5 1442.96 115.09
-4 8 -5 1356.56 115.29
4 -8 5 1414.36 108.99
4 -8 5 1397.06 109.79
4 -8 5 1148.79 110.19
-5 8 -5 409.46 47.6
-5 8 -5 310.97 46.5
-5 8 -5 295.87 43.6
-5 8 -5 395.66 38.4
-5 8 -5 390.16 46.8
-5 8 -5 383.26 40.4
5 -8 5 385.96 34.3
6 -8 5 294.97 26.6
6 -8 5 264.77 25.7
6 -8 5 234.08 25
-7 8 -5 55.09 10.1
-7 8 -5 29.4 11.9
7 -8 5 36.6 6.9
7 -8 5 38.9 7.3
7 -8 5 38.2 6.5
8 -8 5 133.39 12.5
8 -8 5 117.69 12.9
4 7 -5 39.5 8.2
-4 -7 5 41.7 8.7
-4 -7 5 51.99 6.8
-4 -7 5 33.2 6.8
3 7 -5 122.09 17.2
-3 -7 5 98.19 11.5
-3 -7 5 83.09 11.2
-3 -7 5 73.79 10.3
2 7 -5 14.8 6.8
2 7 -5 6.2 16.7
-2 -7 5 5.8 3.6
-2 -7 5 14.3 6.6
-2 -7 5 14.6 4.6
-2 -7 5 9 5.1
-2 -7 5 -4.6 8.5
-2 -7 5 6.2 2.9
1 7 -5 209.68 44.6
1 7 -5 245.88 36.8
-1 -7 5 263.97 26.5
-1 -7 5 227.78 27.8
-1 -7 5 312.47 26.3
-1 -7 5 298.17 26.8
-1 -7 5 259.37 27.1
0 7 -5 -0.6 4.8
0 7 -5 8.6 6.9
0 7 -5 0.3 6.4
0 7 -5 -2 6.3
0 7 -5 1.9 5.1
0 7 -5 -0.7 5.3
0 7 -5 23.9 13.3
0 -7 5 13.1 5.4
0 -7 5 9.1 3.5
-1 7 -5 580.14 55.09
-1 7 -5 506.55 52.69
-1 7 -5 608.94 61.69
-1 7 -5 468.95 56.89
-1 7 -5 540.35 59.29
-1 7 -5 557.14 60.89
1 -7 5 598.74 49.1
1 -7 5 610.64 48.1
-2 7 -5 121.99 27.3
-2 7 -5 134.89 20.5
-2 7 -5 162.68 20.4
-2 7 -5 158.48 17.9
-2 7 -5 161.48 26.8
-2 7 -5 172.98 23.9
-2 7 -5 167.18 25.4
2 -7 5 122.59 14
2 -7 5 136.49 16
-3 7 -5 451.55 44.7
-3 7 -5 397.36 53.19
-3 7 -5 393.66 41.2
-3 7 -5 373.56 41.8
-3 7 -5 390.66 40.6
-3 7 -5 339.87 40.9
3 -7 5 415.66 34.3
3 -7 5 403.76 37.4
3 -7 5 338.57 35.2
-4 7 -5 265.97 28.9
-4 7 -5 216.98 33.3
-4 7 -5 244.68 31.2
-4 7 -5 292.07 29.8
-4 7 -5 241.78 40.8
-4 7 -5 282.47 32.1
-4 7 -5 203.28 26.7
-4 7 -5 291.97 34.5
4 -7 5 248.78 23.9
-5 7 -5 100.39 16.2
-5 7 -5 81.09 16.3
-5 7 -5 72.89 14.1
-5 7 -5 89.19 17.6
-5 7 -5 84.39 13.3
-5 7 -5 67.39 16.4
5 -7 5 53.09 9.6
5 -7 5 74.29 10.3
-6 7 -5 306.27 36.4
-6 7 -5 278.77 34.1
6 -7 5 256.77 26.3
6 -7 5 296.27 37.7
6 -7 5 275.77 26.9
-7 7 -5 -1.5 3.5
-7 7 -5 8.5 6.9
-7 7 -5 3.1 4.2
7 -7 5 1.9 3.1
7 -7 5 1.8 2.7
7 -7 5 4.8 5.3
7 -7 5 0.9 2.4
-8 7 -5 339.07 32.8
8 -7 5 345.37 32.1
8 -7 5 386.46 33.1
8 -7 5 362.36 31.2
-9 7 -5 2.1 2.2
9 -7 5 3.4 2.3
5 6 -5 4.1 3.4
5 6 -5 14.8 9.1
-5 -6 5 2 2.6
-5 -6 5 2.9 2
-5 -6 5 3.1 3.4
-5 -6 5 3.3 1.8
4 6 -5 -1.1 2.5
4 6 -5 7.5 10
4 6 -5 -2.1 3.8
-4 -6 5 10.7 4.5
-4 -6 5 2.5 2.5
-4 -6 5 1.5 2.4
-4 -6 5 2.2 2.2
3 6 -5 9 15.1
3 6 -5 -3.4 3.9
-3 -6 5 0.3 4
-3 -6 5 5.2 2.6
-3 -6 5 -1 3.2
-3 -6 5 0.3 1.9
2 6 -5 12.5 8.4
2 6 -5 11.1 7.3
2 6 -5 16.3 17
2 6 -5 -2.1 7.8
-2 -6 5 16.4 5.1
-2 -6 5 14.5 4.3
-2 -6 5 10.4 4.1
-2 -6 5 16.2 4.8
1 6 -5 -1 4.2
1 6 -5 6.6 5.5
1 6 -5 10.2 7.3
1 6 -5 5 6.5
0 6 -5 247.28 26.3
0 6 -5 290.17 31.8
0 6 -5 209.38 26
0 6 -5 229.28 34.4
0 6 -5 307.77 28.6
0 6 -5 260.67 33.5
0 6 -5 247.88 31
0 6 -5 245.68 26.6
0 6 -5 216.88 30.8
0 -6 5 249.58 24.3
0 -6 5 251.17 22.8
0 -6 5 274.07 27.9
-1 6 -5 114.49 18.5
-1 6 -5 91.59 13.3
-1 6 -5 95.19 16.4
-1 6 -5 88.39 13.2
-1 6 -5 87.19 14.9
-1 6 -5 72.19 14.5
-1 6 -5 86.39 16.6
-1 6 -5 66.79 14.3
-1 6 -5 97.69 13.1
1 -6 5 82.09 13
1 -6 5 90.09 8.9
1 -6 5 95.39 10.4
1 -6 5 77.19 11.8
1 -6 5 66.99 10
-2 6 -5 191.48 23.1
-2 6 -5 222.48 30
-2 6 -5 180.28 22.2
-2 6 -5 144.29 23.3
-2 6 -5 171.48 21.8
-2 6 -5 224.08 26.6
-2 6 -5 185.48 23.4
-2 6 -5 175.08 23.8
-2 6 -5 181.48 21.1
-2 6 -5 233.28 23.3
2 -6 5 184.98 18.5
2 -6 5 208.18 22.1
-3 6 -5 347.57 35.6
-3 6 -5 308.47 36
-3 6 -5 278.77 33
-3 6 -5 291.77 34.7
-3 6 -5 369.16 37.4
-3 6 -5 323.97 34.8
-3 6 -5 346.47 34.8
3 -6 5 366.16 29.2
3 -6 5 339.87 31.6
3 -6 5 335.47 33.5
3 -6 5 368.06 30
-4 6 -5 12.4 6.4
-4 6 -5 8.7 4.6
-4 6 -5 29.2 9.4
-4 6 -5 13.2 7.3
-4 6 -5 10.8 7.2
-4 6 -5 7.3 5.6
-4 6 -5 8.5 5.6
-4 6 -5 7 6.2
-4 6 -5 20.8 9.7
-4 6 -5 18.5 8.2
4 -6 5 11.6 4.8
4 -6 5 3.9 3
-5 6 -5 166.68 23.4
-5 6 -5 167.08 22.5
-5 6 -5 152.98 22.3
-5 6 -5 157.98 19
-5 6 -5 129.49 19.9
5 -6 5 112.69 14.5
5 -6 5 128.19 18
5 -6 5 114.49 14.7
-6 6 -5 2.8 5.5
-6 6 -5 -0.3 6.4
-6 6 -5 -1.6 4.1
-6 6 -5 -0.9 4.3
-6 6 -5 0.2 5.3
-6 6 -5 3.6 9.6
6 -6 5 3.6 2.9
6 -6 5 -3.3 3.7
6 -6 5 3.1 3
6 -6 5 6 6.3
-7 6 -5 26.6 7.5
-7 6 -5 18.3 6.5
-7 6 -5 20.1 12.2
-7 6 -5 27 10.1
7 -6 5 14.8 5.3
7 -6 5 15.1 5
7 -6 5 15.4 7.2
7 -6 5 20.4 4.9
7 -6 5 23.7 5
-8 6 -5 -5 7.2
-8 6 -5 -1.2 2.6
-8 6 -5 0.9 3
-8 6 -5 -1.9 4
8 -6 5 0.5 2.3
8 -6 5 1.6 2.3
8 -6 5 2.9 3.1
8 -6 5 -0.6 3
-9 6 -5 1 1.8
9 -6 5 3.7 2.2
9 -6 5 -0.2 4.4
9 -6 5 1.7 1.6
6 5 -5 -1.4 2.3
6 5 -5 7.1 6.7
-6 -5 5 -2.6 2.6
-6 -5 5 0.8 1.5
-6 -5 5 -0.3 1.6
5 5 -5 35.8 7.9
5 5 -5 43.6 16.4
5 5 -5 19.3 7.6
-5 -5 5 21.7 6.6
-5 -5 5 25.6 5.6
-5 -5 5 21.3 4.9
-5 -5 5 14 4.7
4 5 -5 60.29 12.6
4 5 -5 36.9 10.3
4 5 -5 66.99 12.3
-4 -5 5 29.6 7.7
-4 -5 5 46.2 10.8
-4 -5 5 56.69 7.8
-4 -5 5 40.2 7.7
-4 -5 5 44.8 7.8
3 5 -5 86.89 28.1
3 5 -5 55.99 14
3 5 -5 58.59 17.2
3 5 -5 62.49 14.7
-3 -5 5 74.39 17.1
-3 -5 5 52.39 11.2
-3 -5 5 64.19 9.2
-3 -5 5 75.89 9.3
-3 -5 5 46.5 8.7
2 5 -5 494.65 55.19
2 5 -5 594.94 54.19
2 5 -5 614.44 58.19
2 5 -5 593.94 60.29
2 5 -5 537.45 59.99
-2 -5 5 590.44 49.4
-2 -5 5 578.24 51.19
-2 -5 5 644.24 50.19
1 5 -5 354.56 41.4
1 5 -5 375.16 43
1 5 -5 449.66 43.1
-1 -5 5 398.86 38.4
-1 -5 5 405.16 33.8
-1 -5 5 370.16 35.1
0 5 -5 460.95 41.5
0 5 -5 505.05 45.9
0 5 -5 454.35 41.3
0 5 -5 354.36 42.8
0 5 -5 483.25 46.8
0 5 -5 361.66 45.5
0 5 -5 418.86 46.4
0 -5 5 490.65 36.5
0 -5 5 467.75 48.2
0 -5 5 400.86 38.1
-1 5 -5 1485.05 119.99
-1 5 -5 1429.96 116.79
-1 5 -5 1185.08 120.49
-1 5 -5 1267.87 124.89
-1 5 -5 1553.04 146.89
1 -5 5 1427.06 110.89
1 -5 5 1407.26 111.19
1 -5 5 1376.36 114.89
-2 5 -5 996.9 88.79
-2 5 -5 869.01 89.79
-2 5 -5 1141.99 89.39
-2 5 -5 982.9 90.69
-2 5 -5 1050.29 92.79
2 -5 5 997.7 83.59
2 -5 5 1089.69 83.19
-3 5 -5 147.99 20.4
-3 5 -5 172.58 20.4
-3 5 -5 150.18 20.1
-3 5 -5 157.88 20.8
-3 5 -5 173.48 21.6
-3 5 -5 142.79 25
-3 5 -5 165.08 20.5
3 -5 5 188.38 17.4
3 -5 5 202.78 18.3
-4 5 -5 681.13 69.39
-4 5 -5 787.32 68.79
-4 5 -5 721.43 69.19
-4 5 -5 720.63 72.39
-4 5 -5 882.81 71.59
-4 5 -5 834.32 71.29
-4 5 -5 902.01 71.99
-4 5 -5 703.33 72.89
4 -5 5 681.73 63.49
-5 5 -5 3.2 5.5
-5 5 -5 10.2 6.8
-5 5 -5 7 5.2
-5 5 -5 15.4 8.6
-5 5 -5 5.5 5.7
-5 5 -5 6.1 5.2
-5 5 -5 11.7 5.4
-5 5 -5 -16.1 10.5
5 -5 5 6.4 3.1
5 -5 5 7.9 5.4
5 -5 5 4.3 3
-6 5 -5 362.96 46.3
-6 5 -5 370.26 39.5
-6 5 -5 295.67 41.8
6 -5 5 400.86 35.7
6 -5 5 362.76 40.6
6 -5 5 355.16 33.5
6 -5 5 394.36 40
6 -5 5 346.17 35.8
6 -5 5 426.26 35.1
-7 5 -5 4.5 13.6
-7 5 -5 24.2 12.7
-7 5 -5 6.1 4.8
-7 5 -5 15.8 9.9
-7 5 -5 9 5.8
-7 5 -5 15.1 6.1
7 -5 5 6 3.4
7 -5 5 7.8 3.8
7 -5 5 5.7 6
7 -5 5 12.6 4.4
7 -5 5 22.5 8.8
7 -5 5 0.5 2.9
-8 5 -5 190.78 19.9
-8 5 -5 140.99 21.7
8 -5 5 156.08 17.4
8 -5 5 182.28 22.8
8 -5 5 184.58 17.2
8 -5 5 167.98 18.4
-9 5 -5 -0.7 1.7
9 -5 5 0.4 1.6
9 -5 5 -0.6 2.2
9 -5 5 1.3 1.8
7 4 -5 3.1 5.6
7 4 -5 1.7 2.4
-7 -4 5 -1.9 2.2
-7 -4 5 1.5 1.6
-6 -4 5 94.09 10.9
-6 -4 5 100.09 10.9
-6 -4 5 101.59 13.3
-6 -4 5 87.39 11.1
5 4 -5 82.09 14.1
5 4 -5 115.49 20.9
-5 -4 5 90.19 17.3
-5 -4 5 80.89 11.2
-5 -4 5 74.59 11.6
-5 -4 5 80.09 10.3
4 4 -5 221.28 27.3
4 4 -5 221.78 26.9
-4 -4 5 223.78 21.4
-4 -4 5 184.48 22.4
-4 -4 5 233.38 25.3
-4 -4 5 166.28 22.4
-4 -4 5 209.08 20.6
3 4 -5 46.9 13.1
3 4 -5 37.8 10.2
3 4 -5 64.29 17.4
3 4 -5 33.2 18.2
3 4 -5 56.69 10.6
3 4 -5 33.1 10.1
3 4 -5 52.29 14.2
-3 -4 5 44.8 7.8
-3 -4 5 55.59 7
-3 -4 5 43 9.2
-3 -4 5 58.49 7.7
-3 -4 5 46.9 7.8
2 4 -5 221.28 27.5
2 4 -5 224.78 27.9
2 4 -5 232.58 25.7
2 4 -5 209.88 27.8
-2 -4 5 252.57 21.8
-2 -4 5 280.27 22.4
-2 -4 5 255.37 26.4
-2 -4 5 233.18 23.1
1 4 -5 113.19 16.3
1 4 -5 101.79 14
-1 -4 5 141.09 17.4
-1 -4 5 141.09 11.8
0 4 -5 501.35 46.4
0 -4 5 454.35 45.1
0 -4 5 556.84 42.5
0 -4 5 546.95 42.8
-1 4 -5 1570.34 141.79
-1 4 -5 1831.12 140.99
1 -4 5 1660.43 136.69
1 -4 5 1755.42 138.39
-2 4 -5 484.45 48.1
-2 4 -5 528.05 46.5
-3 4 -5 1167.88 100.59
-3 4 -5 1363.36 97.89
3 -4 5 1026.2 94.69
-4 4 -5 55.49 14.4
-4 4 -5 64.69 11
-4 4 -5 54.79 8
-4 4 -5 65.69 12.9
-4 4 -5 77.59 11.5
-4 4 -5 60.19 6.4
-4 4 -5 63.99 11
-4 4 -5 74.79 13.9
4 -4 5 51.69 7.9
4 -4 5 41.3 7
4 -4 5 43.8 10.8
-5 4 -5 1137.69 104.89
-5 4 -5 1323.57 108.79
-5 4 -5 1290.77 108.59
-5 4 -5 1234.68 105.09
-5 4 -5 1125.59 99.59
-6 4 -5 95.99 14.1
-6 4 -5 80.79 14.9
6 -4 5 103.29 12.5
6 -4 5 90.39 15.8
6 -4 5 91.59 12.7
6 -4 5 88.79 14.5
6 -4 5 103.69 11.9
6 -4 5 108.89 17.2
-7 4 -5 285.57 35.6
-7 4 -5 240.48 40.6
-7 4 -5 242.58 36
-7 4 -5 273.27 29.5
7 -4 5 249.08 25.2
7 -4 5 283.37 38.2
7 -4 5 258.97 28.6
7 -4 5 271.37 33.2
7 -4 5 309.77 27.9
-8 4 -5 74.69 10.8
-8 4 -5 58.29 12.8
-8 4 -5 67.39 12.4
8 -4 5 89.09 10.3
8 -4 5 82.29 10
8 -4 5 80.89 11.4
8 -4 5 101.49 11.5
8 -4 5 79.89 14.3
-9 4 -5 31.2 5.6
9 -4 5 51.39 5.9
7 3 -5 64.49 14.4
-7 -3 5 35.6 8.5
-7 -3 5 35.2 7.6
6 3 -5 330.07 33.1
-6 -3 5 290.97 29.9
-6 -3 5 340.47 29.6
-6 -3 5 337.57 32.3
-6 -3 5 316.27 29.2
5 3 -5 174.28 21.6
5 3 -5 163.38 21.6
-5 -3 5 144.19 18.5
-5 -3 5 148.99 17.2
-5 -3 5 155.98 17.1
-5 -3 5 161.28 16.5
-5 -3 5 159.88 16.8
4 3 -5 613.74 58.99
4 3 -5 588.34 58.89
4 3 -5 645.24 59.39
-4 -3 5 636.94 54.19
-4 -3 5 686.73 55.59
-4 -3 5 675.33 54.19
-4 -3 5 705.53 54.99
-4 -3 5 551.14 55.59
3 3 -5 21.8 11.2
3 3 -5 9.9 5.6
3 3 -5 7.1 6.6
3 3 -5 -2.8 4.2
3 3 -5 15 5.1
-3 -3 5 4.9 2.1
-3 -3 5 6.8 4.4
-3 -3 5 -1.3 2.8
-3 -3 5 4.3 2.3
2 3 -5 703.63 67.19
-2 -3 5 826.62 66.89
-2 -3 5 775.32 62.59
-2 -3 5 767.72 62.49
-2 -3 5 757.02 62.79
-1 -3 5 926.41 80.09
-1 -3 5 970.4 77.39
-1 -3 5 964.8 76.99
-1 -3 5 953.6 76.29
0 3 -5 2942.01 267.17
0 -3 5 3719.13 266.27
0 -3 5 3272.27 264.87
-1 3 -5 6174.68 501.15
1 -3 5 6546.45 498.55
1 -3 5 6194.28 498.85
-2 3 -5 17.1 4.9
-2 3 -5 12.5 4.1
2 -3 5 10 4.2
2 -3 5 10.2 1.4
-3 3 -5 610.74 53.39
3 -3 5 538.45 51.39
3 -3 5 721.43 53.29
-4 3 -5 90.19 15
-4 3 -5 68.59 16.1
4 -3 5 88.29 9.9
4 -3 5 68.79 12.1
4 -3 5 82.09 10
4 -3 5 96.79 12.6
-5 3 -5 190.48 29.1
5 -3 5 234.98 25
5 -3 5 254.27 27
5 -3 5 217.38 27.4
5 -3 5 230.38 23.3
5 -3 5 270.07 23.4
5 -3 5 220.88 22.2
-6 3 -5 55.99 15.9
-6 3 -5 35.5 14.9
-6 3 -5 56.99 11.4
-6 3 -5 59.49 11.7
-6 3 -5 69.89 14.3
6 -3 5 40.3 8.2
6 -3 5 44.6 9.9
6 -3 5 52.79 11.8
6 -3 5 39.8 7.6
6 -3 5 50.39 11.2
6 -3 5 45.3 7.9
-7 3 -5 93.69 16.3
-7 3 -5 75.89 17
-7 3 -5 103.09 17
-7 3 -5 122.69 16
7 -3 5 126.39 20.2
7 -3 5 93.69 13.6
7 -3 5 140.89 19.9
7 -3 5 114.39 15.4
7 -3 5 115.59 13
7 -3 5 140.29 14.4
-8 3 -5 35.6 9.7
-8 3 -5 40.1 10.6
-8 3 -5 40.1 8.3
8 -3 5 55.29 9.1
8 -3 5 53.29 7.3
8 -3 5 57.09 7.4
8 -3 5 47.6 7.9
-9 3 -5 12.5 3
9 -3 5 11.9 4
9 -3 5 13.5 2.7
-8 -2 5 63.79 8.8
-7 -2 5 163.48 17.8
-7 -2 5 213.08 18.7
-7 -2 5 209.68 21.5
6 2 -5 1.8 4.3
6 2 -5 0 3.8
6 2 -5 6.1 8.9
-6 -2 5 -4.7 3
-6 -2 5 0 2.8
-6 -2 5 1.3 3.6
-6 -2 5 1.2 1.8
-6 -2 5 2.1 2.4
5 2 -5 1131.09 111.49
5 2 -5 1470.95 113.39
5 2 -5 1436.86 116.29
-5 -2 5 1227.28 107.59
-5 -2 5 1277.37 106.99
-5 -2 5 1328.37 108.29
-5 -2 5 1256.17 107.39
-5 -2 5 1426.06 118.69
4 2 -5 87.09 13.9
4 2 -5 91.09 14.2
4 2 -5 103.59 15.4
4 2 -5 119.19 18.3
4 2 -5 86.09 16.6
-4 -2 5 105.89 12.2
-4 -2 5 115.29 16.6
-4 -2 5 100.39 12.5
-4 -2 5 107.59 11.7
-4 -2 5 105.89 11.1
-3 -2 5 6774.32 518.85
-3 -2 5 6552.34 519.15
-3 -2 5 6670.23 518.15
-3 -2 5 6222.98 518.25
-3 -2 5 6572.54 522.25
2 2 -5 42.2 7.1
2 2 -5 61.79 9
-2 -2 5 51.79 8
-2 -2 5 49.6 5.6
-2 -2 5 52.69 6.2
1 2 -5 3315.77 253.67
-1 -2 5 3407.56 247.88
-1 -2 5 3058.99 247.18
-1 -2 5 2834.22 249.18
-1 -2 5 2974.2 245.98
0 2 -5 316.27 27.3
0 2 -5 321.17 30.6
0 -2 5 317.67 28.3
0 -2 5 325.57 28.4
0 -2 5 361.26 27.2
-1 2 -5 2595.74 206.08
-1 2 -5 2826.12 209.58
1 -2 5 2338.57 204.78
1 -2 5 2346.47 207.78
1 -2 5 2884.51 208.08
-2 2 -5 100.09 10.3
-2 2 -5 110.29 13.7
-2 2 -5 104.09 12.8
3 -2 5 1696.33 148.49
3 -2 5 2038.4 146.59
3 -2 5 1646.54 149.59
3 -2 5 1885.91 146.49
-4 2 -5 62.29 11.8
-4 2 -5 74.79 12.4
-4 2 -5 63.59 10
-4 2 -5 55.29 9.3
-4 2 -5 70.79 9
4 -2 5 52.29 7.8
4 -2 5 64.69 11
4 -2 5 56.19 8.3
4 -2 5 52.59 9.9
-5 2 -5 68.49 12.2
-5 2 -5 96.49 23.4
-5 2 -5 66.09 13.2
-5 2 -5 90.69 13.9
-5 2 -5 74.59 11.1
5 -2 5 62.19 9.9
5 -2 5 88.19 13.7
5 -2 5 73.19 9.4
5 -2 5 64.69 11.7
5 -2 5 71.29 9.6
5 -2 5 55.09 11.9
-6 2 -5 51.69 12.7
-6 2 -5 53.89 10.6
-6 2 -5 57.89 11.4
-6 2 -5 46.6 10.5
6 -2 5 49.7 8.5
6 -2 5 64.99 13.2
6 -2 5 61.39 12.7
6 -2 5 50.49 8.3
6 -2 5 52.29 11.3
6 -2 5 44.7 8.8
-7 2 -5 5.1 8.8
-7 2 -5 8.1 5.3
-7 2 -5 4.5 4.5
-7 2 -5 -3.6 4.8
7 -2 5 0.7 3.9
7 -2 5 3.6 3.1
7 -2 5 6 3.6
7 -2 5 2.6 2.9
7 -2 5 13.4 5.3
8 -2 5 18.1 9.1
8 -2 5 11.2 3.6
8 -2 5 12.2 3.2
8 -2 5 5.1 4.7
8 1 -5 95.49 12.9
-8 -1 5 62.19 9.6
-8 -1 5 66.89 10.7
-8 -1 5 68.09 7.8
7 1 -5 19.7 7
7 1 -5 18.8 6.4
7 1 -5 27.2 8.4
-7 -1 5 21.5 6.1
-7 -1 5 11.8 3.4
-7 -1 5 16.6 4.2
-7 -1 5 11.5 4.1
-7 -1 5 13.1 6.2
6 1 -5 432.26 41.2
-6 -1 5 376.06 34.6
-6 -1 5 406.56 35
-6 -1 5 391.16 35.4
-6 -1 5 364.66 38.2
-6 -1 5 403.46 37.2
-6 -1 5 387.26 35.5
5 1 -5 128.99 17.8
5 1 -5 125.19 16.1
5 1 -5 103.49 15.4
5 1 -5 97.19 16.3
-5 -1 5 123.69 14.6
-5 -1 5 116.89 13
-5 -1 5 124.19 12.6
-5 -1 5 115.99 12.8
-5 -1 5 131.39 14.6
4 1 -5 879.91 71.79
4 1 -5 677.13 70.69
4 1 -5 739.93 71.89
4 1 -5 786.92 72.39
-4 -1 5 893.51 67.69
-4 -1 5 842.12 67.99
-4 -1 5 779.62 68.49
-4 -1 5 879.71 71.49
-4 -1 5 901.01 69.49
3 1 -5 1979.4 157.08
3 1 -5 1783.12 156.68
-3 -1 5 2042.6 156.98
-3 -1 5 1941.21 154.38
-3 -1 5 1901.01 154.88
-3 -1 5 1855.71 153.48
-3 -1 5 1947.21 153.28
2 1 -5 677.83 55.59
2 1 -5 648.74 53.89
-2 -1 5 625.74 54.49
-2 -1 5 633.84 53.19
-2 -1 5 639.74 52.79
-2 -1 5 596.44 51.79
1 1 -5 933.41 75.49
1 1 -5 883.01 72.49
-1 -1 5 848.22 71.19
-1 -1 5 840.52 70.19
0 1 -5 1646.94 108.19
0 1 -5 1216.48 110.69
0 -1 5 1398.16 106.09
0 -1 5 1210.98 108.09
0 -1 5 1200.88 106.39
-1 1 -5 2163.28 168.48
-1 1 -5 2104.09 165.18
-1 1 -5 2094.49 164.18
1 -1 5 2012.6 164.58
1 -1 5 2035.1 165.88
1 -1 5 1907.61 163.48
-2 1 -5 134.09 16
-2 1 -5 173.58 18
-2 1 -5 168.78 16.4
2 -1 5 162.88 18.4
2 -1 5 162.08 17.9
2 -1 5 186.48 17.9
2 -1 5 171.98 16
-3 1 -5 1325.17 106.09
-3 1 -5 1123.29 105.59
3 -1 5 1359.06 105.69
3 -1 5 1459.05 108.69
3 -1 5 1193.88 108.69
-4 1 -5 3.5 3.7
-4 1 -5 -0.1 3.7
-4 1 -5 6.8 6
4 -1 5 9.6 5.3
4 -1 5 3.2 2.7
4 -1 5 4.3 2.6
4 -1 5 1.3 3.2
4 -1 5 6.3 4.5
-5 1 -5 829.22 66.59
-5 1 -5 609.04 69.49
-5 1 -5 684.13 64.49
-5 1 -5 619.44 63.29
5 -1 5 806.02 70.69
5 -1 5 717.63 63.89
5 -1 5 648.84 60.59
5 -1 5 815.22 62.49
-6 1 -5 88.99 14.1
-6 1 -5 100.99 15.3
6 -1 5 98.29 14.4
6 -1 5 99.69 11.8
6 -1 5 116.59 17
6 -1 5 104.09 17.1
6 -1 5 96.79 12.1
6 -1 5 110.79 15
-7 1 -5 121.79 19.8
-7 1 -5 149.39 18.2
7 -1 5 140.99 14.8
7 -1 5 152.78 14.9
7 -1 5 141.69 17.7
7 -1 5 128.09 19.8
7 -1 5 182.68 18.8
-8 1 -5 8.3 3.9
-8 1 -5 -0.4 2.3
8 -1 5 -0.2 2.7
8 -1 5 0.7 1.8
9 0 -5 11.2 4.2
9 0 -5 9.8 5.1
-9 0 5 8.5 2.8
-9 0 5 2.9 4
8 0 -5 77.09 13.1
8 0 -5 47.9 15.2
8 0 -5 66.99 10
-8 0 5 66.59 9.7
7 0 -5 4.9 21.6
7 0 -5 3.3 4.5
-7 0 5 0.1 2.1
-7 0 5 -1.3 2.3
-7 0 5 0.8 3.3
6 0 -5 445.16 44.2
6 0 -5 406.76 41
6 0 -5 469.15 47.2
-6 0 5 390.26 42.7
-6 0 5 461.15 38.4
-6 0 5 388.56 40.6
-6 0 5 447.46 38.5
-6 0 5 452.65 40.5
-6 0 5 469.45 39
-6 0 5 472.25 39.3
5 0 -5 24.8 6.4
5 0 -5 34.7 9.9
5 0 -5 21 7.2
5 0 -5 24.8 7.2
-5 0 5 23.8 6.5
-5 0 5 21.8 5.5
-5 0 5 22.9 4.2
-5 0 5 29.7 8
-5 0 5 18 4.7
-5 0 5 20.2 5.7
4 0 -5 897.91 74.39
4 0 -5 924.01 76.19
4 0 -5 705.33 75.79
-4 0 5 869.31 72.69
-4 0 5 928.11 72.59
-4 0 5 839.72 71.19
-4 0 5 894.51 70.89
-4 0 5 861.01 73.89
3 0 -5 46 7.4
3 0 -5 30.3 6.6
3 0 -5 47.7 7.6
-3 0 5 43.1 5.3
-3 0 5 46.8 5.6
-3 0 5 42.2 6
-3 0 5 43.2 6.5
2 0 -5 2886.51 250.47
2 0 -5 2953.5 249.68
-2 0 5 3355.06 248.88
-2 0 5 3289.47 247.78
1 0 -5 359.46 32
1 0 -5 299.27 32.7
-1 0 5 360.06 30.3
-1 0 5 369.26 31.4
-1 0 5 401.96 32.5
-1 0 5 381.66 31.6
0 0 -5 2255.97 175.08
0 0 -5 1872.51 173.88
0 0 5 2243.28 173.58
0 0 5 1979.6 173.38
0 0 5 2175.48 174.48
0 0 5 2558.84 175.38
-1 0 -5 319.17 30.1
-1 0 -5 342.77 29.8
-1 0 -5 398.96 31.5
-1 0 -5 394.16 39.3
1 0 5 291.07 30.5
1 0 5 400.66 32.2
1 0 5 327.57 30
1 0 5 321.37 31.9
-2 0 -5 111.29 13.5
-2 0 -5 140.39 16.8
-2 0 -5 119.59 11.9
2 0 5 116.99 14.2
-3 0 -5 330.77 34.8
-3 0 -5 431.56 37
-3 0 -5 419.86 36.6
3 0 5 361.96 36.8
-4 0 -5 62.69 11.1
-4 0 -5 80.19 12.2
-4 0 -5 64.59 11.3
-4 0 -5 46.1 10.7
-4 0 -5 54.39 10.7
4 0 5 61.89 8.9
4 0 5 77.99 12.6
4 0 5 75.29 10
4 0 5 67.79 11
4 0 5 60.49 12.5
4 0 5 78.19 9.6
4 0 5 93.39 14.3
-5 0 -5 9.6 7.4
-5 0 -5 -4.5 6.8
-5 0 -5 8.6 7.2
-5 0 -5 5.9 4.5
5 0 5 -2.5 3.7
5 0 5 -5.8 6.9
5 0 5 4.4 3.8
5 0 5 4 2.6
5 0 5 3.7 5.5
5 0 5 2.9 3.5
5 0 5 5.7 3.4
-6 0 -5 32.2 13.7
-6 0 -5 14.4 6.4
-6 0 -5 13.7 10
6 0 5 16.8 6.1
6 0 5 13.3 4.6
6 0 5 9 6.8
6 0 5 2.5 5.7
6 0 5 9 3.2
-7 0 -5 14.8 5.7
-7 0 -5 19.7 6.1
7 0 5 4.7 3.3
7 0 5 21.1 7.4
7 0 5 20.6 6.1
7 0 5 12 2.9
7 0 5 14.5 10.2
-8 0 -5 16 4.5
8 0 5 26.5 5
9 -1 -5 11.4 4.9
9 -1 -5 19.7 5.2
9 -1 -5 22.1 6.1
-9 1 5 14.6 4.3
-9 1 5 9.4 3.2
8 -1 -5 283.27 24.6
8 -1 -5 266.67 28.2
-8 1 5 204.78 24.2
-8 1 5 202.88 23.1
7 -1 -5 23 8.7
7 -1 -5 14 5.7
7 -1 -5 8.6 11.9
-7 1 5 23.2 6.2
-7 1 5 8.5 9.1
-7 1 5 19.7 6.2
-7 1 5 15 3.9
-7 1 5 19.6 4.6
6 -1 -5 1533.75 144.09
6 -1 -5 1297.77 113.19
6 -1 -5 1263.57 110.89
6 -1 -5 1158.18 109.49
-6 1 5 1340.17 107.19
-6 1 5 1317.27 106.29
-6 1 5 1400.06 108.49
-6 1 5 1359.16 106.39
-6 1 5 1183.68 109.29
5 -1 -5 107.99 14.5
5 -1 -5 117.99 17.1
5 -1 -5 119.19 16.5
5 -1 -5 96.89 14.4
-5 1 5 99.79 12.7
-5 1 5 125.19 14.7
-5 1 5 121.89 12.5
-5 1 5 110.99 13.8
-5 1 5 106.09 11.8
-5 1 5 124.89 12
4 -1 -5 4087.19 343.67
4 -1 -5 3881.31 342.27
4 -1 -5 4079.19 345.47
4 -1 -5 3977.3 343.67
-4 1 5 4805.22 343.27
-4 1 5 4668.83 340.97
-4 1 5 4580.44 341.47
3 -1 -5 2154.98 179.58
3 -1 -5 2067.49 178.08
3 -1 -5 2339.67 180.88
3 -1 -5 2060.49 181.58
3 -1 -5 2176.68 181.48
3 -1 -5 2586.54 183.08
-3 1 5 2247.08 178.28
-3 1 5 2169.68 178.58
-3 1 5 2280.57 179.98
-3 1 5 2303.67 180.78
2 -1 -5 7913.51 661.53
2 -1 -5 8438.16 661.13
2 -1 -5 8389.56 662.73
-2 1 5 8719.63 659.93
1 -1 -5 4112.19 366.96
1 -1 -5 4678.13 367.56
1 -1 -5 4186.88 365.46
1 -1 -5 4035.6 366.96
1 -1 -5 5207.78 368.96
-1 1 5 4852.91 365.36
-1 1 5 4655.73 366.46
-1 1 5 5152.78 366.76
-1 1 5 4650.63 365.66
0 -1 -5 6831.02 544.75
0 -1 -5 7157.98 545.55
0 -1 -5 6259.27 548.65
0 -1 -5 6141.89 544.45
0 -1 -5 6364.36 544.85
0 1 5 7537.15 546.85
0 1 5 7415.46 544.95
0 1 5 7438.06 545.25
-1 -1 -5 4870.91 353.66
-1 -1 -5 3957.2 349.77
-1 -1 -5 4749.82 351.86
-1 -1 -5 4694.03 350.56
1 1 5 4366.56 351.26
1 1 5 4183.18 354.26
1 1 5 4123.99 351.46
1 1 5 4435.56 353.26
-2 -1 -5 2047 176.08
-2 -1 -5 1862.51 173.98
2 1 5 2293.67 179.88
2 1 5 2397.96 174.68
2 1 5 2363.76 175.28
2 1 5 1999.4 177.08
-3 -1 -5 1573.64 141.99
-3 -1 -5 1652.33 143.59
-3 -1 -5 1688.63 144.19
-3 -1 -5 1925.51 145.39
-3 -1 -5 1640.24 149.19
3 1 5 1769.42 140.59
3 1 5 1593.54 142.89
3 1 5 1989.8 147.09
3 1 5 1751.02 144.39
-4 -1 -5 104.89 15.9
-4 -1 -5 113.89 17.9
-4 -1 -5 143.69 21.9
-4 -1 -5 106.09 16.5
4 1 5 145.09 15.8
4 1 5 126.59 14.5
4 1 5 146.49 21.3
4 1 5 134.79 19.5
4 1 5 148.39 15.3
-5 -1 -5 287.17 35.9
-5 -1 -5 352.66 34
-5 -1 -5 331.77 35.3
5 1 5 277.17 33.3
5 1 5 332.47 30
5 1 5 339.47 29.8
5 1 5 347.97 37
5 1 5 362.66 37.3
5 1 5 358.46 33.9
5 1 5 304.07 31.8
-6 -1 -5 2.9 6.1
-6 -1 -5 2.3 4
-6 -1 -5 3.9 4.3
6 1 5 6.8 2.7
6 1 5 9.2 5.6
6 1 5 6.8 2.9
6 1 5 12.2 6.8
6 1 5 14.4 5.1
-7 -1 -5 27.2 6.7
-7 -1 -5 33.1 7.4
7 1 5 39.5 6.8
7 1 5 14.1 7.8
-9 2 5 126.79 14
-9 2 5 119.29 12.9
8 -2 -5 0.1 4.5
8 -2 -5 4.3 4.1
-8 2 5 1.2 2.9
-8 2 5 3.3 3.1
7 -2 -5 859.21 77.79
7 -2 -5 985.2 82.89
7 -2 -5 926.71 94.09
-7 2 5 885.21 76.99
-7 2 5 921.41 76.29
-7 2 5 835.82 73.19
6 -2 -5 269.87 30
6 -2 -5 285.27 30
6 -2 -5 312.97 36.1
6 -2 -5 310.07 33.3
6 -2 -5 317.17 26.4
-6 2 5 345.27 31.5
-6 2 5 307.97 28.1
-6 2 5 276.57 29.5
-6 2 5 257.37 25.7
-6 2 5 289.97 26.1
-6 2 5 243.28 26.3
5 -2 -5 1820.82 146.39
5 -2 -5 1967.8 150.28
5 -2 -5 1832.82 152.58
5 -2 -5 1690.73 149.39
5 -2 -5 2025.3 146.19
5 -2 -5 1829.92 153.58
5 -2 -5 1773.32 149.59
5 -2 -5 1915.71 147.99
-5 2 5 1881.21 149.39
-5 2 5 1814.12 148.59
-5 2 5 1717.03 146.99
-5 2 5 1761.32 148.09
-5 2 5 1863.01 149.59
-5 2 5 1645.44 146.29
-5 2 5 1748.13 145.69
-5 2 5 1761.92 145.79
4 -2 -5 2265.57 163.98
4 -2 -5 1731.53 162.38
4 -2 -5 1978.3 161.18
4 -2 -5 1784.82 160.78
4 -2 -5 1823.22 162.98
4 -2 -5 1996.2 159.68
4 -2 -5 1956.2 159.58
4 -2 -5 2166.58 158.98
4 -2 -5 2152.88 161.28
4 -2 -5 2152.38 160.08
-4 2 5 1903.91 158.38
-4 2 5 1959 160.28
-4 2 5 1964.8 157.88
-4 2 5 1897.61 160.48
-4 2 5 1840.42 159.88
3 -2 -5 2867.81 240.68
3 -2 -5 3014.5 239.38
3 -2 -5 3017.3 240.08
3 -2 -5 2935.91 242.38
3 -2 -5 2705.53 242.38
3 -2 -5 3012.2 239.98
-3 2 5 3023.7 239.08
-3 2 5 3157.38 240.88
-3 2 5 3036.6 238.58
-3 2 5 3219.18 241.68
2 -2 -5 6744.33 567.54
2 -2 -5 6753.22 569.04
2 -2 -5 6593.94 570.14
2 -2 -5 6402.96 567.94
2 -2 -5 6676.73 567.54
-2 2 5 7920.41 566.94
-2 2 5 7663.03 568.74
-2 2 5 8299.67 570.04
-2 2 5 7512.65 567.34
1 -2 -5 777.02 62.19
1 -2 -5 668.53 60.59
1 -2 -5 675.43 60.09
1 -2 -5 712.83 62.79
1 -2 -5 625.94 59.79
1 -2 -5 618.14 59.39
-1 2 5 765.32 61.19
-1 2 5 735.13 59.49
-1 2 5 805.92 62.39
-1 2 5 771.02 61.09
-1 2 5 762.02 60.89
0 -2 -5 3765.42 317.87
0 -2 -5 3720.03 315.57
0 -2 -5 3866.51 315.07
0 -2 -5 3708.63 315.67
0 -2 -5 3831.12 316.07
0 -2 -5 3597.24 314.97
0 2 5 4209.68 318.17
0 2 5 4213.78 315.87
0 2 5 4095.59 318.27
0 2 5 4090.89 316.27
0 2 5 4215.88 317.27
0 2 5 4288.87 317.27
-1 -2 -5 72.99 9.2
-1 -2 -5 92.89 12.3
-1 -2 -5 69.09 10.9
-1 -2 -5 77.39 10.1
-1 -2 -5 82.59 9.4
-1 -2 -5 98.39 10.1
-1 -2 -5 96.59 11.6
1 2 5 75.69 10.8
1 2 5 86.59 13.2
1 2 5 81.79 10.3
1 2 5 77.39 11.4
1 2 5 68.39 10.4
1 2 5 94.69 12.7
-2 -2 -5 1905.11 146.49
-2 -2 -5 1518.85 148.49
-2 -2 -5 1818.52 149.09
-2 -2 -5 1944.71 151.68
-2 -2 -5 1783.62 150.28
-2 -2 -5 1901.01 148.59
2 2 5 2104.19 148.79
2 2 5 2006.4 149.59
2 2 5 1774.92 149.88
2 2 5 1899.81 154.98
2 2 5 1709.93 147.09
2 2 5 1572.54 148.79
2 2 5 1666.33 150.28
2 2 5 1748.33 152.08
-3 -2 -5 206.58 25.8
-3 -2 -5 230.18 27.3
-3 -2 -5 207.68 24
-3 -2 -5 216.38 24.5
3 2 5 257.87 24.6
3 2 5 229.08 28.3
3 2 5 184.18 25.6
3 2 5 251.77 23.5
3 2 5 275.07 23.6
3 2 5 232.68 29.2
3 2 5 225.18 25.3
-4 -2 -5 1186.08 103.79
-4 -2 -5 1104.79 101.39
-4 -2 -5 1265.67 102.09
-4 -2 -5 1095.39 117.69
4 2 5 1262.57 101.99
4 2 5 1288.47 98.09
4 2 5 1005.2 101.39
4 2 5 1163.18 99.39
4 2 5 1288.47 98.49
-5 -2 -5 207.28 22.4
-5 -2 -5 214.68 25
5 2 5 232.48 18.7
5 2 5 147.09 20.5
5 2 5 171.58 22.4
5 2 5 205.68 22.2
5 2 5 166.88 23.8
-6 -2 -5 257.47 27.2
-6 -2 -5 207.48 23.5
6 2 5 263.17 26.2
6 2 5 309.07 25.9
-7 -2 -5 32.6 6.9
7 2 5 17.7 6.4
7 2 5 32.2 4.6
9 -3 -5 2.1 4
9 -3 -5 4.8 2.9
-9 3 5 2.9 3.1
-9 3 5 1.9 2.8
8 -3 -5 52.49 10.8
8 -3 -5 42.7 8.8
-8 3 5 35.8 7.7
-8 3 5 30.3 7.3
7 -3 -5 4.8 5.5
7 -3 -5 -0.9 3.8
7 -3 -5 -4.7 3.1
7 -3 -5 4.7 4.6
-7 3 5 -4.4 6.1
-7 3 5 1.8 3.1
-7 3 5 2.2 3.5
-7 3 5 4.1 3.8
6 -3 -5 231.98 29.9
6 -3 -5 261.07 27.9
6 -3 -5 289.17 24.5
6 -3 -5 273.67 28.6
6 -3 -5 296.27 36.1
-6 3 5 261.57 25.5
-6 3 5 236.58 29.3
-6 3 5 245.28 23.8
-6 3 5 267.27 26.5
5 -3 -5 76.79 14.1
5 -3 -5 81.99 12
5 -3 -5 88.69 11.7
5 -3 -5 79.79 12.7
5 -3 -5 91.49 15.6
5 -3 -5 88.39 13.5
5 -3 -5 72.49 10.8
5 -3 -5 81.49 11
5 -3 -5 96.29 13
-5 3 5 82.09 11.5
-5 3 5 60.39 9.7
-5 3 5 84.59 12.2
-5 3 5 79.79 9.5
-5 3 5 74.79 10.8
-5 3 5 98.89 10.1
4 -3 -5 390.36 39.4
4 -3 -5 390.76 34.2
4 -3 -5 401.06 35.1
4 -3 -5 402.66 36.6
4 -3 -5 371.86 36.6
4 -3 -5 342.47 33.5
4 -3 -5 363.16 35.7
4 -3 -5 391.16 37.9
-4 3 5 379.56 36.7
-4 3 5 388.76 33.3
-4 3 5 392.46 36.2
-4 3 5 383.86 33.6
3 -3 -5 438.86 42.7
3 -3 -5 466.15 44.3
3 -3 -5 478.05 43.7
3 -3 -5 544.25 47.7
3 -3 -5 572.14 46.2
3 -3 -5 515.35 43.1
3 -3 -5 528.15 46.4
3 -3 -5 468.35 44.9
3 -3 -5 486.55 43.5
-3 3 5 561.04 45.5
-3 3 5 486.25 42.2
-3 3 5 521.55 42.5
-3 3 5 521.85 45.8
-3 3 5 480.45 43.4
-3 3 5 434.66 42.6
2 -3 -5 257.17 25.3
2 -3 -5 243.68 25.4
2 -3 -5 251.87 24.7
2 -3 -5 248.98 32.4
2 -3 -5 299.37 28.8
-2 3 5 283.37 25.6
-2 3 5 289.07 27.1
-2 3 5 312.77 28.3
1 -3 -5 1488.65 118.59
1 -3 -5 1290.47 114.39
1 -3 -5 1357.86 115.09
1 -3 -5 1317.77 115.89
1 -3 -5 1410.86 114.39
1 -3 -5 1468.55 118.89
1 -3 -5 1258.67 114.79
-1 3 5 1430.96 115.69
-1 3 5 1442.76 114.79
-1 3 5 1474.15 117.29
-1 3 5 1567.74 118.69
0 -3 -5 36.3 6.6
0 -3 -5 31 5.4
0 -3 -5 27.3 8.3
0 -3 -5 28.4 6.3
0 -3 -5 36.5 6.2
0 -3 -5 48.4 8.6
0 -3 -5 24.3 5.3
0 -3 -5 42.7 10.4
0 -3 -5 25.3 6.2
0 -3 -5 40.6 6.7
0 3 5 29.6 6.4
0 3 5 28.6 7.2
0 3 5 35.5 7.9
0 3 5 39.7 7.3
-1 -3 -5 2711.43 224.08
-1 -3 -5 3003.9 223.48
-1 -3 -5 2721.33 222.48
-1 -3 -5 2565.94 222.88
-1 -3 -5 2763.92 227.28
-1 -3 -5 2780.22 222.78
-1 -3 -5 2786.72 228.58
-1 -3 -5 3040.9 225.18
-1 -3 -5 2355.56 222.98
-1 -3 -5 2935.51 226.08
1 3 5 2934.21 231.88
1 3 5 2949.21 229.28
1 3 5 2926.21 226.48
1 3 5 3109.29 228.28
1 3 5 2650.93 224.88
1 3 5 2298.97 226.88
-2 -3 -5 117.39 18.4
-2 -3 -5 109.99 13.4
-2 -3 -5 90.89 16
-2 -3 -5 112.29 15.2
-2 -3 -5 93.79 13.1
-2 -3 -5 103.99 13.8
-2 -3 -5 118.09 13.2
2 3 5 112.49 15.4
2 3 5 97.19 21.9
2 3 5 103.29 17.8
2 3 5 122.69 14.9
2 3 5 119.89 14.4
2 3 5 131.29 20.2
2 3 5 98.99 15.8
2 3 5 98.89 15.5
-3 -3 -5 325.17 39.3
-3 -3 -5 305.47 34.2
-3 -3 -5 372.86 33
-3 -3 -5 299.67 32.6
-3 -3 -5 302.17 32.2
3 3 5 348.37 38.7
3 3 5 341.77 33.7
3 3 5 268.87 32.8
3 3 5 330.87 37.5
-4 -3 -5 40.1 10.2
-4 -3 -5 35.7 12.8
-4 -3 -5 48.5 13.9
4 3 5 47.7 7
4 3 5 41.5 15.2
-5 -3 -5 1.5 4.1
-5 -3 -5 -4.3 3.4
5 3 5 2.9 6
5 3 5 6 3.5
5 3 5 8.5 4.3
-6 -3 -5 3.9 3.3
-6 -3 -5 7.2 3.8
6 3 5 8.9 3.1
6 3 5 6.8 3.7
9 -4 -5 12.2 4.7
9 -4 -5 16.3 4.7
-9 4 5 9.4 3.7
8 -4 -5 560.04 51.29
8 -4 -5 479.35 50.99
8 -4 -5 575.94 48.2
-8 4 5 494.65 45.4
-8 4 5 507.15 46.4
7 -4 -5 353.16 38.9
7 -4 -5 358.16 29.6
-7 4 5 250.67 32.7
-7 4 5 302.07 32
-7 4 5 245.18 32.4
6 -4 -5 373.76 32.6
6 -4 -5 405.26 36.5
6 -4 -5 287.17 32.1
6 -4 -5 359.26 34.1
6 -4 -5 386.06 36.8
6 -4 -5 375.76 39.3
-6 4 5 359.16 33.2
-6 4 5 351.16 34
-6 4 5 332.37 36.2
5 -4 -5 3057.99 238.08
5 -4 -5 2623.54 239.78
5 -4 -5 3290.47 247.98
5 -4 -5 2869.21 241.18
5 -4 -5 3034.8 235.88
5 -4 -5 2419.06 238.18
5 -4 -5 2730.03 235.68
-5 4 5 3160.98 233.28
-5 4 5 3130.89 239.68
4 -4 -5 628.54 60.79
4 -4 -5 648.44 62.39
4 -4 -5 767.82 62.99
4 -4 -5 706.83 63.79
4 -4 -5 706.43 66.89
4 -4 -5 743.33 64.59
4 -4 -5 664.43 61.49
4 -4 -5 722.13 73.79
4 -4 -5 710.73 64.09
4 -4 -5 753.22 69.09
-4 4 5 654.23 62.29
-4 4 5 798.22 60.99
-4 4 5 845.72 66.79
-4 4 5 848.42 66.99
3 -4 -5 1304.17 114.39
3 -4 -5 1532.65 120.19
3 -4 -5 1388.56 117.09
3 -4 -5 1519.05 121.09
3 -4 -5 1402.56 115.39
3 -4 -5 1359.46 118.69
3 -4 -5 1371.56 116.39
3 -4 -5 1364.36 115.49
3 -4 -5 1256.77 113.79
-3 4 5 1657.73 120.99
-3 4 5 1457.15 115.59
-3 4 5 1213.18 113.79
-3 4 5 1431.36 115.99
2 -4 -5 840.12 74.99
2 -4 -5 840.82 76.39
2 -4 -5 790.52 73.69
2 -4 -5 854.91 74.79
2 -4 -5 928.21 79.99
2 -4 -5 834.82 75.49
2 -4 -5 895.11 74.39
2 -4 -5 832.22 77.19
-2 4 5 1023.1 80.49
-2 4 5 959.2 75.09
-2 4 5 788.22 75.49
-2 4 5 855.11 74.59
-2 4 5 944.61 75.69
-2 4 5 961.8 76.49
-2 4 5 1050.29 81.29
1 -4 -5 1236.08 98.59
1 -4 -5 1184.78 99.49
1 -4 -5 1184.68 101.19
1 -4 -5 1156.58 102.49
1 -4 -5 1146.79 99.49
1 -4 -5 1173.68 98.09
1 -4 -5 1166.08 101.19
1 -4 -5 1240.68 99.29
1 -4 -5 1278.77 104.99
1 -4 -5 1143.59 99.19
-1 4 5 1319.77 100.89
-1 4 5 1379.96 102.09
-1 4 5 1141.09 99.19
-1 4 5 998 103.69
0 -4 -5 2257.07 186.88
0 -4 -5 2131.59 188.08
0 -4 -5 2276.47 190.88
0 -4 -5 2046 183.08
0 -4 -5 2209.58 186.48
0 -4 -5 2396.76 184.08
0 -4 -5 2232.88 185.38
0 -4 -5 2274.37 185.08
0 -4 -5 2330.87 184.58
0 4 5 2444.16 187.38
0 4 5 2497.55 188.58
-1 -4 -5 685.93 61.29
-1 -4 -5 622.24 56.19
-1 -4 -5 583.14 52.19
-1 -4 -5 632.04 54.79
-1 -4 -5 633.64 53.39
-1 -4 -5 560.34 53.09
1 4 5 547.25 60.79
1 4 5 565.64 60.39
1 4 5 691.13 54.69
1 4 5 555.04 58.39
-2 -4 -5 1476.65 126.19
-2 -4 -5 1483.65 132.59
-2 -4 -5 1576.64 131.29
-2 -4 -5 1531.35 130.59
-2 -4 -5 1563.54 130.19
-2 -4 -5 1609.54 128.99
2 4 5 1718.33 132.19
2 4 5 1352.66 130.89
2 4 5 1713.93 140.59
-3 -4 -5 9.3 6.6
-3 -4 -5 -1.3 4.9
-3 -4 -5 -0.1 5.6
3 4 5 -1.4 5.8
3 4 5 -1 6.6
3 4 5 0.9 4.1
-4 -4 -5 71.09 11.5
-4 -4 -5 74.99 12.7
4 4 5 80.59 11.8
4 4 5 78.89 11.1
4 4 5 63.09 14.1
-5 -4 -5 -0.7 3.1
-5 -4 -5 -0.1 3.6
-5 -4 -5 4.9 4
5 4 5 7.6 3.9
5 4 5 6.8 3
9 -5 -5 0 2.7
9 -5 -5 -6 4
-9 5 5 1.5 2.3
-9 5 5 1.6 3.1
-9 5 5 0.6 2.8
8 -5 -5 11.9 6.5
8 -5 -5 2.8 3.9
-8 5 5 4.1 3.5
-8 5 5 4.3 4.3
-8 5 5 6.3 3.8
7 -5 -5 58.19 11.8
7 -5 -5 59.79 10.5
7 -5 -5 36.2 10.1
7 -5 -5 55.09 7.6
-7 5 5 41.3 8.2
-7 5 5 57.39 9
6 -5 -5 124.19 15.2
6 -5 -5 139.59 19.8
6 -5 -5 153.88 17.8
6 -5 -5 129.09 16.4
6 -5 -5 144.19 15.2
-6 5 5 135.49 15.3
-6 5 5 110.79 15.4
-6 5 5 121.29 18.8
-6 5 5 136.89 16.1
5 -5 -5 379.96 35.7
5 -5 -5 348.57 31.4
5 -5 -5 331.97 31.9
5 -5 -5 294.87 36
5 -5 -5 321.47 36.3
5 -5 -5 359.56 34.7
5 -5 -5 389.56 33.8
-5 5 5 314.77 35.8
-5 5 5 374.16 38.1
-5 5 5 346.17 32
-5 5 5 328.57 32.9
4 -5 -5 259.67 25.3
4 -5 -5 249.18 26.4
4 -5 -5 236.38 23.8
4 -5 -5 236.48 24.2
4 -5 -5 267.67 27.6
4 -5 -5 216.98 24.7
4 -5 -5 275.87 27.6
3 -5 -5 425.46 38.8
3 -5 -5 350.06 38
3 -5 -5 443.16 42.4
3 -5 -5 435.16 42
3 -5 -5 426.16 37.8
-3 5 5 440.26 45.7
2 -5 -5 273.97 28.1
2 -5 -5 218.78 23.4
2 -5 -5 201.78 22.3
2 -5 -5 235.28 23.6
2 -5 -5 231.18 24.3
-2 5 5 253.87 31.3
1 -5 -5 760.52 64.79
1 -5 -5 736.73 63.49
1 -5 -5 734.33 64.89
1 -5 -5 755.72 66.89
1 -5 -5 649.64 64.19
1 -5 -5 719.53 63.19
-1 5 5 820.32 67.09
-1 5 5 813.02 67.49
0 -5 -5 1088.89 92.39
0 -5 -5 1038.1 88.39
0 -5 -5 1087.89 95.29
0 -5 -5 1078.69 90.99
0 -5 -5 1022.2 90.09
0 -5 -5 1024.1 93.89
0 5 5 1124.49 93.59
0 5 5 1076.69 92.99
-1 -5 -5 125.59 15.8
-1 -5 -5 120.69 13.6
-1 -5 -5 102.49 15.8
-1 -5 -5 103.09 17.1
-1 -5 -5 143.09 16.6
1 5 5 113.79 16.6
1 5 5 109.69 16.4
-2 -5 -5 209.88 26.5
-2 -5 -5 233.68 25.4
-2 -5 -5 219.18 20.8
2 5 5 250.77 25.7
2 5 5 190.78 24.4
-3 -5 -5 65.69 11.6
-3 -5 -5 73.39 12.5
3 5 5 83.99 11.8
3 5 5 65.79 11
-4 -5 -5 51.19 9.2
-4 -5 -5 49.99 8.5
4 5 5 49.1 8
9 -6 -5 -0.4 2.5
-9 6 5 1.5 2.3
-9 6 5 1.7 2.1
8 -6 -5 25.1 7.5
8 -6 -5 25.4 9.5
-8 6 5 27.6 7.9
-8 6 5 39.5 7.9
7 -6 -5 32.7 8.3
7 -6 -5 34.4 11.3
7 -6 -5 28.5 11
7 -6 -5 28.7 5.5
-7 6 5 29.8 7.1
6 -6 -5 99.39 13.7
6 -6 -5 104.49 14.7
6 -6 -5 108.49 12.6
6 -6 -5 83.39 16.3
6 -6 -5 127.09 15.9
-6 6 5 113.29 13.6
-6 6 5 101.19 13.5
5 -6 -5 592.64 51.29
5 -6 -5 522.05 49.3
5 -6 -5 544.85 48.8
5 -6 -5 605.94 53.09
5 -6 -5 596.94 52.89
5 -6 -5 520.45 55.39
-5 6 5 594.24 57.29
-5 6 5 566.54 50.89
-5 6 5 572.14 52.89
4 -6 -5 120.29 18.2
4 -6 -5 113.59 15.6
4 -6 -5 103.09 16
4 -6 -5 137.09 17.2
4 -6 -5 86.89 14.7
4 -6 -5 121.79 13.4
4 -6 -5 136.19 15.7
-4 6 5 136.59 15.3
-4 6 5 112.59 15
3 -6 -5 958.8 83.89
3 -6 -5 966.1 82.99
3 -6 -5 793.72 81.59
3 -6 -5 1027.4 86.49
3 -6 -5 1053.19 84.99
3 -6 -5 903.91 80.59
-3 6 5 1097.39 84.29
2 -6 -5 188.18 22
2 -6 -5 197.68 22.6
2 -6 -5 221.88 26
2 -6 -5 211.28 24.1
2 -6 -5 206.28 21.3
2 -6 -5 212.78 22.8
2 -6 -5 213.58 21.4
-2 6 5 231.38 24.2
-2 6 5 218.28 24.7
1 -6 -5 1100.89 93.59
1 -6 -5 1139.09 95.89
1 -6 -5 1070.89 92.19
1 -6 -5 1029.7 91.49
1 -6 -5 1089.89 92.39
-1 6 5 1236.58 95.09
-1 6 5 914.61 92.99
0 -6 -5 54.09 10.8
0 -6 -5 85.89 14.4
0 -6 -5 54.39 8.8
0 -6 -5 57.69 15.7
0 -6 -5 49.99 10.6
0 -6 -5 70.09 12.1
0 -6 -5 49.99 8.2
0 6 5 46.1 11.4
0 6 5 70.09 15.5
-1 -6 -5 224.78 25.8
-1 -6 -5 253.87 22.4
-1 -6 -5 202.88 26.9
1 6 5 268.87 32.4
1 6 5 212.28 25.8
1 6 5 291.27 27.3
-2 -6 -5 21 6.4
-2 -6 -5 15.2 5.5
2 6 5 13 7.3
2 6 5 16.8 6
2 6 5 16.3 9
-3 -6 -5 15.2 5
-3 -6 -5 19.3 4.5
3 6 5 18.9 5.1
3 6 5 16.3 4.4
8 -7 -5 143.49 14.9
-8 7 5 137.69 14.4
7 -7 -5 160.78 24.2
7 -7 -5 128.99 26.5
-7 7 5 137.99 15.8
-7 7 5 161.58 25.2
6 -7 -5 655.53 61.19
6 -7 -5 598.54 56.09
6 -7 -5 768.72 62.59
-6 7 5 693.73 73.09
5 -7 -5 146.09 19.2
5 -7 -5 160.88 19.3
5 -7 -5 138.99 15.3
5 -7 -5 148.29 18.2
-5 7 5 146.79 17.1
-5 7 5 137.39 20.9
4 -7 -5 737.03 65.79
4 -7 -5 665.03 61.99
4 -7 -5 716.93 63.59
4 -7 -5 599.54 61.19
4 -7 -5 802.62 64.59
4 -7 -5 717.13 60.09
-4 7 5 747.23 62.99
3 -7 -5 69.49 12.6
3 -7 -5 47.6 9.8
3 -7 -5 64.99 9.5
3 -7 -5 68.09 14.1
3 -7 -5 49.9 9.7
3 -7 -5 62.79 8.8
-3 7 5 78.49 12
2 -7 -5 124.19 13.8
2 -7 -5 123.39 16.3
2 -7 -5 147.99 17.3
2 -7 -5 91.19 14.9
2 -7 -5 160.68 18.6
2 -7 -5 96.29 14.5
-2 7 5 155.68 17.4
1 -7 -5 4.9 4.5
1 -7 -5 3.4 2.8
1 -7 -5 -4.4 7.8
1 -7 -5 9.1 9.5
1 -7 -5 2.9 3.1
1 -7 -5 7 8.6
-1 7 5 5.9 4
0 -7 -5 -4.4 2.4
0 -7 -5 -10.5 6
0 7 5 7.5 4.1
-1 -7 -5 12.2 4
-1 -7 -5 19.4 6.6
1 7 5 13.6 4.5
1 7 5 12.4 5.7
1 7 5 2.3 4.7
-2 -7 -5 20.1 4.9
2 7 5 9 3.4
2 7 5 14.9 3.5
7 -8 -5 256.97 23.8
-7 8 5 252.07 23.1
6 -8 -5 4.1 3.5
6 -8 -5 4.4 2.7
-6 8 5 2.9 3.3
-6 8 5 -1.3 4.9
-6 8 5 0.7 2.8
5 -8 -5 132.19 13.6
5 -8 -5 155.18 24
-5 8 5 127.59 18.9
4 -8 -5 78.39 10.1
4 -8 -5 73.59 10.2
-4 8 5 109.59 26.4
3 -8 -5 156.98 18.1
3 -8 -5 146.09 16.9
-3 8 5 143.09 17.3
-3 8 5 159.38 28.6
2 -8 -5 328.87 37.6
2 -8 -5 298.57 25.5
-2 8 5 248.78 35
1 -8 -5 94.29 11.8
-1 8 5 80.19 11.6
-1 8 5 71.89 14.7
0 -8 -5 215.78 20.2
0 8 5 187.48 19.3
5 -9 -5 11.3 3.6
-5 9 5 16.2 5.4
-5 9 5 15.8 3.6
4 -9 -5 195.88 21.2
-4 9 5 187.48 18.8
-4 9 5 229.28 23.4
3 -9 -5 10.9 3.8
-3 9 5 9.1 3
-3 9 5 6.9 4.8
0 10 -6 59.79 12
-1 10 -6 473.35 50.89
-1 10 -6 453.25 46.6
-2 10 -6 1.6 3.6
-2 10 -6 5 6.5
-2 10 -6 -7.6 7.3
2 -10 6 -2.2 4
-3 10 -6 505.75 52.69
-4 10 -6 3.1 3.6
-4 10 -6 2.7 5.8
-4 10 -6 3.4 4.2
-4 10 -6 0.6 3
-5 10 -6 400.66 50.29
-5 10 -6 532.15 49
-6 10 -6 4.6 4.7
-6 10 -6 2.9 3.4
-6 10 -6 1.3 4.8
2 9 -6 -4.2 5.3
2 9 -6 0 2.1
-2 -9 6 -1.1 2.5
-2 -9 6 1.3 2.1
1 9 -6 4.4 4
1 9 -6 4.2 8.8
-1 -9 6 3.5 4.5
-1 -9 6 -0.8 2.3
-1 -9 6 -0.5 4.1
0 9 -6 19 11.1
0 9 -6 7.9 4.7
0 -9 6 1 3.1
0 -9 6 14.9 6.4
-1 9 -6 19 9
-2 9 -6 17.2 7.9
-2 9 -6 4.4 6.3
-2 9 -6 5.7 3.8
-2 9 -6 0.2 5.1
-2 9 -6 -3.6 4.5
2 -9 6 10.5 5.1
2 -9 6 1.2 3.3
-3 9 -6 92.09 18.3
-3 9 -6 47 12.4
-3 9 -6 57.49 12.1
-3 9 -6 64.29 17.3
3 -9 6 55.99 9.7
-4 9 -6 0.6 4.6
-4 9 -6 -2.3 3.9
-4 9 -6 1.7 3.4
-4 9 -6 0.6 2.5
-4 9 -6 2.1 5.5
4 -9 6 -1.1 4.9
4 -9 6 -3.3 2.9
-5 9 -6 19.2 6
-5 9 -6 10.8 6.3
-5 9 -6 13.4 7.6
-5 9 -6 16.6 6.8
-5 9 -6 7.8 7.2
5 -9 6 18.9 6.9
5 -9 6 16.4 5
-6 9 -6 9.7 8.1
-6 9 -6 -3.6 3.6
-6 9 -6 3.1 3.6
-6 9 -6 15.6 7.1
6 -9 6 11.5 3.4
6 -9 6 5.3 4.1
-7 9 -6 6.2 4.9
-7 9 -6 0.6 4.4
-7 9 -6 4.2 4.2
7 -9 6 -1.1 3.2
7 -9 6 3.9 3.4
3 8 -6 3.2 3
3 8 -6 11.6 9.2
-3 -8 6 1.4 2.4
-3 -8 6 1.2 1.9
2 8 -6 10.6 12.3
2 8 -6 4.8 4.4
2 8 -6 11.4 6.2
-2 -8 6 5.5 3.2
-2 -8 6 -1.6 3.2
-2 -8 6 1.7 1.8
1 8 -6 12.2 7.1
1 8 -6 -3.9 6.6
1 8 -6 -1.5 4.7
1 8 -6 10.3 15.8
-1 -8 6 5.6 3.5
-1 -8 6 1.7 5.3
-1 -8 6 1.2 3
0 8 -6 14.7 11
0 8 -6 23.3 13
0 8 -6 14.5 8.2
0 8 -6 8.1 6.7
0 -8 6 6.2 3.7
0 -8 6 9.3 3.5
-1 8 -6 1.4 4.6
-1 8 -6 -2.9 8.9
-1 8 -6 5.6 8.1
-1 8 -6 3.6 8.5
-1 8 -6 3.1 6.1
-1 8 -6 7.5 4.6
-1 8 -6 -1.1 7.7
1 -8 6 3.3 3.9
1 -8 6 1.8 3
1 -8 6 5.7 7.6
-2 8 -6 2.8 4.2
-2 8 -6 0.3 6
-2 8 -6 -1.3 4
-2 8 -6 -2.7 4.8
-2 8 -6 4.8 7.1
-2 8 -6 7.1 8
-2 8 -6 5 5.6
-2 8 -6 4.5 3.6
2 -8 6 15.6 9
2 -8 6 -0.8 2.4
-3 8 -6 4.4 4.4
-3 8 -6 1.8 5.7
-3 8 -6 -0.1 4
-3 8 -6 6.4 6.2
-3 8 -6 -4.6 6
-3 8 -6 1.4 4.3
-3 8 -6 8.8 5.6
-3 8 -6 7.4 7.4
-3 8 -6 4.8 6.1
3 -8 6 10.1 3.4
3 -8 6 10.4 7.2
-4 8 -6 117.99 18.9
-4 8 -6 86.39 22
-4 8 -6 126.19 22
-4 8 -6 126.19 21.2
-4 8 -6 156.28 20.8
-4 8 -6 117.59 21.5
4 -8 6 88.99 25
4 -8 6 123.99 13.8
-5 8 -6 1.7 5.2
-5 8 -6 -10 7.4
-5 8 -6 1.4 3.6
-5 8 -6 0.2 4.2
-5 8 -6 -1 4.2
-5 8 -6 5.6 4.2
5 -8 6 4.1 3.1
5 -8 6 1.1 4
-6 8 -6 218.18 30
-6 8 -6 253.67 32.2
-6 8 -6 285.77 40.7
-6 8 -6 280.77 32
-7 8 -6 1.8 4.2
-7 8 -6 -3.6 4.7
-7 8 -6 4 4.4
7 -8 6 1.2 3
7 -8 6 -1.2 2.2
7 -8 6 -1.7 3
-8 8 -6 113.39 13.1
8 -8 6 107.39 11.6
8 -8 6 123.99 11.2
-4 -7 6 31.9 5.7
-4 -7 6 45.6 8.8
-4 -7 6 33.1 6.7
-4 -7 6 42.2 6.1
3 7 -6 30.3 18.9
3 7 -6 15.7 5.5
-3 -7 6 11.6 3.4
-3 -7 6 25.5 7.5
-3 -7 6 9 3.9
-3 -7 6 18.6 4.6
2 7 -6 337.57 38.1
-2 -7 6 250.27 28.2
-2 -7 6 328.27 28.8
-2 -7 6 306.57 28.1
1 7 -6 2.7 6.7
1 7 -6 4.2 5.6
1 7 -6 -7.2 12.5
1 7 -6 3.6 7.6
1 7 -6 4.4 5.4
-1 -7 6 3.8 5.6
-1 -7 6 7.8 3
-1 -7 6 6.8 5.5
0 7 -6 493.55 54.89
0 7 -6 546.65 54.29
0 7 -6 366.26 49.4
0 7 -6 454.25 57.59
0 7 -6 390.06 42.7
0 7 -6 443.06 53.89
0 -7 6 487.95 40.9
0 -7 6 441.56 42.9
0 -7 6 509.45 42.7
-1 7 -6 27 11.6
-1 7 -6 49.99 10
-1 7 -6 38.5 8.2
-1 7 -6 44.1 10.3
-1 7 -6 44 12.8
-1 7 -6 33.9 11.7
-1 7 -6 33.6 12.1
-1 7 -6 38.4 14.7
-1 7 -6 45.1 9.4
-1 7 -6 35.6 9.1
-1 7 -6 33.2 11.2
-1 7 -6 24.7 10.7
1 -7 6 30.4 5.5
-2 7 -6 278.37 37.1
-2 7 -6 329.97 37.6
-2 7 -6 326.27 42.8
-2 7 -6 325.67 32.3
-2 7 -6 316.67 34.9
-2 7 -6 386.76 40.1
-2 7 -6 308.77 33.3
-2 7 -6 307.37 36.9
-2 7 -6 296.97 33.9
2 -7 6 326.57 29.5
2 -7 6 267.37 26.7
-3 7 -6 251.27 29.5
-3 7 -6 253.77 26.6
-3 7 -6 198.78 24.7
-3 7 -6 206.18 26.9
-3 7 -6 186.78 26.5
-3 7 -6 212.08 36.7
-3 7 -6 253.07 27.4
3 -7 6 163.28 23.5
3 -7 6 235.98 20.4
-4 7 -6 83.49 19
-4 7 -6 100.39 15.6
-4 7 -6 98.69 17.1
-4 7 -6 96.19 17.3
-4 7 -6 61.59 16.5
-4 7 -6 85.89 14.7
-4 7 -6 113.39 17.2
-4 7 -6 76.89 15.7
-4 7 -6 87.59 14.6
4 -7 6 104.69 11
4 -7 6 63.59 13.6
-5 7 -6 231.28 25.9
-5 7 -6 268.67 33.3
-5 7 -6 197.48 26.5
-5 7 -6 256.87 31.8
-5 7 -6 172.38 25.8
-5 7 -6 243.18 35.3
5 -7 6 185.18 21
-6 7 -6 -1.6 3.7
-6 7 -6 -3.9 7.9
-6 7 -6 0 4.4
-6 7 -6 2.9 4.1
-6 7 -6 -0.1 4.6
6 -7 6 0.1 2.6
6 -7 6 -1.7 2.4
-7 7 -6 76.29 12.5
-7 7 -6 61.59 15.8
7 -7 6 66.69 13.4
7 -7 6 82.39 10.5
7 -7 6 78.49 10
-8 7 -6 4.5 3.5
-8 7 -6 1.6 2.2
-8 7 -6 5 4.2
8 -7 6 13.3 3.2
8 -7 6 7.9 4.1
8 -7 6 8.4 3.2
5 6 -6 51.89 14.7
-5 -6 6 26 5
-5 -6 6 21.1 5.1
4 6 -6 35.3 15.1
4 6 -6 12.6 5.4
-4 -6 6 4.7 3
-4 -6 6 12.1 3.6
-4 -6 6 11.3 3.5
-4 -6 6 5 5.5
3 6 -6 298.27 37.3
-3 -6 6 257.97 31.9
-3 -6 6 354.36 33.7
-3 -6 6 315.97 28.9
-3 -6 6 326.27 29.8
-3 -6 6 318.77 31
2 6 -6 17.1 15.1
2 6 -6 14.1 7.2
2 6 -6 10 6.4
2 6 -6 31.9 12.9
-2 -6 6 8.4 3.7
-2 -6 6 11.6 3.4
-2 -6 6 6.7 4.6
1 6 -6 652.43 66.19
1 6 -6 604.54 70.59
1 6 -6 667.93 69.59
1 6 -6 707.23 68.19
1 6 -6 580.14 64.69
1 6 -6 745.93 66.19
-1 -6 6 722.33 57.09
-1 -6 6 700.63 59.49
-1 -6 6 682.73 57.29
0 6 -6 54.69 13.1
0 6 -6 58.99 11.1
0 6 -6 43.6 15.5
0 6 -6 87.39 12.4
0 6 -6 90.49 14.6
0 6 -6 66.89 11.3
0 6 -6 56.69 16.1
0 6 -6 82.99 12.4
0 6 -6 68.99 11.4
0 6 -6 65.29 18.4
0 6 -6 45.7 13.2
0 -6 6 79.79 8.3
0 -6 6 54.99 13.5
0 -6 6 65.29 9.8
-1 6 -6 74.09 15.9
-1 6 -6 83.79 16.6
-1 6 -6 88.59 15.6
-1 6 -6 113.29 14.4
-1 6 -6 100.29 13.1
-1 6 -6 97.59 14
-1 6 -6 100.89 13.1
-1 6 -6 78.99 13.6
-1 6 -6 96.19 13.2
-1 6 -6 87.49 15.1
-1 6 -6 65.09 14.6
-1 6 -6 69.89 15
1 -6 6 78.19 14.2
1 -6 6 80.79 10.3
1 -6 6 61.99 9.4
-2 6 -6 32.3 10.2
-2 6 -6 22.6 9.4
-2 6 -6 26.1 7.8
-2 6 -6 24.5 7.8
-2 6 -6 16.9 10.8
-2 6 -6 25.5 7.6
-2 6 -6 20.1 7.3
-2 6 -6 17 8
-2 6 -6 20 6.9
-2 6 -6 22.2 7.3
2 -6 6 31.3 8.2
2 -6 6 19.1 4.8
-3 6 -6 16.8 6.7
-3 6 -6 8.3 5
-3 6 -6 23.5 9
-3 6 -6 10.5 6.3
-3 6 -6 8.2 5.7
-3 6 -6 20 7.2
-3 6 -6 9 5.3
-3 6 -6 15.9 6.3
-3 6 -6 8.4 6.1
-3 6 -6 11.7 8.8
-3 6 -6 3.4 5.7
3 -6 6 11.8 5
3 -6 6 16.1 3.8
-4 6 -6 18.7 6.3
-4 6 -6 32.9 10
-4 6 -6 38.4 12.1
-4 6 -6 20.2 8.5
-4 6 -6 20.8 9.2
-4 6 -6 27.6 10.5
-4 6 -6 16.3 7.3
-4 6 -6 22.4 9.6
-4 6 -6 17.5 7.4
4 -6 6 15.8 4.3
4 -6 6 14.3 6
-5 6 -6 -0.4 3.9
-5 6 -6 7.6 5.4
-5 6 -6 2.1 4.7
-5 6 -6 10.8 7.4
-5 6 -6 22.1 12.5
-5 6 -6 4 4.3
-5 6 -6 0.9 3.4
5 -6 6 2.4 4.4
5 -6 6 2.2 2.9
5 -6 6 23.2 7.3
-6 6 -6 -0.6 4.4
-6 6 -6 0.1 3.5
-6 6 -6 4.1 4.6
-6 6 -6 5.3 9.9
-6 6 -6 -4.3 5.7
-6 6 -6 4.1 3.9
6 -6 6 2.3 4.7
6 -6 6 -1.9 2.1
6 -6 6 1.5 7.5
-7 6 -6 -1.8 8.2
-7 6 -6 2.9 3.3
-7 6 -6 -1.5 3.2
-7 6 -6 0.1 4.2
7 -6 6 5.2 5.3
7 -6 6 4.4 3.1
7 -6 6 1.5 2.7
7 -6 6 2.9 3
-8 6 -6 3.3 3.4
-8 6 -6 8.5 6.4
-8 6 -6 -1.7 4.5
8 -6 6 -2.8 2.3
8 -6 6 1.8 2.4
8 -6 6 1.9 4.4
8 -6 6 2.4 2.1
-9 6 -6 -1.4 1.3
-6 -5 6 108.99 12.3
-6 -5 6 145.49 12.8
-6 -5 6 127.79 14.5
5 5 -6 55.79 17.8
5 5 -6 48.3 8.6
5 5 -6 60.09 13.2
-5 -5 6 42.4 9.2
4 5 -6 122.59 18.9
-4 -5 6 146.59 16.1
-4 -5 6 150.58 15.4
3 5 -6 1153.58 118.19
3 5 -6 1091.49 97.59
3 5 -6 1126.69 98.69
3 5 -6 945.61 96.19
-3 -5 6 1209.48 90.49
-3 -5 6 973.2 92.79
-3 -5 6 998.1 90.09
-3 -5 6 1139.79 92.09
-3 -5 6 1176.48 90.39
2 5 -6 185.98 26
2 5 -6 211.68 27.1
2 5 -6 198.08 23.3
2 5 -6 185.98 31.5
2 5 -6 179.28 24.6
-2 -5 6 197.48 20.8
-2 -5 6 199.88 19.3
-2 -5 6 220.08 19.3
1 5 -6 1250.57 128.89
1 5 -6 1534.15 132.29
1 5 -6 1318.37 125.59
1 5 -6 1581.34 132.89
1 5 -6 1402.66 132.69
1 5 -6 1615.94 131.59
1 5 -6 1634.64 127.29
-1 -5 6 1653.23 121.59
-1 -5 6 1612.94 128.09
-1 -5 6 1477.25 123.59
0 5 -6 424.86 43.5
0 5 -6 412.06 49.99
0 5 -6 380.26 47.4
0 5 -6 461.65 43.5
0 5 -6 537.65 48.3
0 5 -6 472.15 43.6
0 -5 6 458.75 40.7
0 -5 6 512.65 43.9
0 -5 6 499.65 38.2
-1 5 -6 672.43 79.39
-1 5 -6 896.71 69.19
-1 5 -6 905.91 68.89
-1 5 -6 776.92 70.49
-1 5 -6 715.63 72.59
-1 5 -6 825.12 68.99
-1 5 -6 733.03 71.59
1 -5 6 739.13 67.29
1 -5 6 740.13 63.69
1 -5 6 654.93 65.59
-2 5 -6 1121.79 96.19
-2 5 -6 1031.5 87.99
-2 5 -6 905.11 90.69
-2 5 -6 1024.4 88.99
-2 5 -6 987.3 90.09
2 -5 6 998.4 83.19
2 -5 6 972.6 81.49
-3 5 -6 750.52 72.49
-3 5 -6 873.91 75.19
-3 5 -6 752.62 73.59
-3 5 -6 865.21 74.59
-3 5 -6 862.31 73.69
-3 5 -6 882.31 75.79
-3 5 -6 802.02 73.49
3 -5 6 759.22 71.89
3 -5 6 873.41 71.19
3 -5 6 812.72 68.79
-4 5 -6 1029.6 95.59
-4 5 -6 1172.18 94.79
-4 5 -6 1050.09 95.29
-4 5 -6 977.3 97.69
-4 5 -6 1093.49 93.69
-4 5 -6 979.1 101.59
-4 5 -6 1202.88 95.59
-5 5 -6 172.58 24.5
5 -5 6 118.49 15.3
5 -5 6 145.89 19.8
5 -5 6 160.38 21.3
5 -5 6 151.58 16.3
-6 5 -6 120.69 18.3
-6 5 -6 75.29 20.6
-6 5 -6 124.69 16.4
-6 5 -6 143.39 21.4
6 -5 6 109.19 13.2
6 -5 6 110.19 12.8
6 -5 6 78.29 15.7
6 -5 6 133.29 18.8
6 -5 6 104.99 16.8
6 -5 6 100.09 15.1
-7 5 -6 82.19 13.3
-7 5 -6 80.09 18.6
-7 5 -6 129.59 16.7
-7 5 -6 123.59 19.7
-7 5 -6 85.79 19.4
7 -5 6 89.59 12.9
7 -5 6 116.09 14.8
7 -5 6 131.49 13.8
7 -5 6 121.29 18.3
7 -5 6 118.29 12.8
-8 5 -6 94.29 14.9
8 -5 6 64.99 8.9
8 -5 6 84.49 11.5
8 -5 6 51.59 8.9
8 -5 6 65.89 9.6
-9 5 -6 0.8 1.7
9 -5 6 4.2 2.1
9 -5 6 2.7 2
9 -5 6 3.9 3
7 4 -6 73.59 7.6
-7 -4 6 88.69 10.1
-7 -4 6 78.29 8.1
6 4 -6 390.06 43.7
-6 -4 6 477.15 37.9
-6 -4 6 377.46 37.9
-6 -4 6 487.45 40.4
5 4 -6 252.37 27
-5 -4 6 221.68 21
-5 -4 6 215.38 21.4
-5 -4 6 203.38 22.4
-5 -4 6 186.58 21.2
-5 -4 6 209.28 23.3
4 4 -6 717.43 68.19
4 4 -6 632.14 68.19
-4 -4 6 762.42 62.59
-4 -4 6 679.13 64.79
-4 -4 6 767.42 62.79
-4 -4 6 770.42 64.49
-4 -4 6 842.72 63.89
3 4 -6 293.97 32.4
3 4 -6 299.37 36.4
3 4 -6 229.58 28.1
3 4 -6 263.17 30.4
3 4 -6 218.18 27.8
3 4 -6 237.18 27.8
-3 -4 6 256.37 24.9
-3 -4 6 262.27 23.3
-3 -4 6 247.18 23.5
-3 -4 6 204.78 25.5
-3 -4 6 277.47 24
2 4 -6 1004.8 90.19
2 4 -6 1015.2 90.19
2 4 -6 845.72 87.69
2 4 -6 1011.9 87.39
-2 -4 6 1069.29 82.09
-2 -4 6 1062.39 87.99
-2 -4 6 1028.6 82.29
1 4 -6 136.59 19.8
1 4 -6 186.88 22
1 4 -6 168.38 19
1 4 -6 177.48 19.8
1 4 -6 136.79 22.2
1 4 -6 124.09 17.9
1 4 -6 192.38 19.5
-1 -4 6 158.18 14.5
-1 -4 6 169.98 18.8
-1 -4 6 167.28 15.1
0 -4 6 3445.46 277.27
-1 4 -6 152.18 17.7
-1 4 -6 130.79 18.8
1 -4 6 116.19 15.6
1 -4 6 153.88 14.8
1 -4 6 178.38 15.8
-2 4 -6 1010.2 87.19
2 -4 6 1004.8 84.39
2 -4 6 1079.69 80.99
2 -4 6 938.01 84.59
-3 4 -6 48.1 10.3
-3 4 -6 43 9
-3 4 -6 52.09 9.4
-3 4 -6 45.8 10.4
-3 4 -6 43.5 11.1
-3 4 -6 44.2 18.2
-3 4 -6 60.39 11.6
-3 4 -6 46.4 8.8
-3 4 -6 63.59 10.3
3 -4 6 37.2 8.3
3 -4 6 32.9 6.1
-4 4 -6 86.99 14.8
-4 4 -6 110.89 15.2
-4 4 -6 87.19 24.7
4 -4 6 71.49 9.8
4 -4 6 80.19 9.9
4 -4 6 87.59 12.8
4 -4 6 76.39 12.9
-5 4 -6 133.19 18.9
-5 4 -6 156.08 25.4
-5 4 -6 182.28 21.9
-5 4 -6 185.38 16.3
-5 4 -6 141.79 22.2
-5 4 -6 217.28 31.6
-5 4 -6 230.08 30.2
-5 4 -6 202.78 19.4
5 -4 6 149.29 17.6
5 -4 6 122.99 16.8
5 -4 6 147.39 20.3
5 -4 6 120.09 22.8
5 -4 6 188.88 17.9
-6 4 -6 26.6 7
-6 4 -6 43.9 12.4
-6 4 -6 14.9 9.1
-6 4 -6 17.1 6.2
-6 4 -6 15.6 17.6
-6 4 -6 23.9 7.2
-6 4 -6 13.4 10.4
6 -4 6 32 9.9
6 -4 6 30.2 6.8
6 -4 6 24.7 5.7
6 -4 6 20 9
6 -4 6 32.7 7.7
6 -4 6 24 6.3
-7 4 -6 408.76 42.8
-7 4 -6 412.86 39.6
7 -4 6 341.47 35.8
7 -4 6 441.06 38.3
-8 4 -6 -0.4 4.5
-8 4 -6 -3 4.3
-8 4 -6 4 3.6
-8 4 -6 11.1 5.7
8 -4 6 0.3 3.1
8 -4 6 -1.4 1.9
8 -4 6 0.2 3.3
8 -4 6 -0.2 3.8
7 3 -6 63.19 21.8
-7 -3 6 16.2 3.5
-7 -3 6 29.1 6.4
-7 -3 6 26.1 6.1
6 3 -6 205.38 22.6
-6 -3 6 162.28 17.9
-6 -3 6 185.98 20.2
-6 -3 6 162.88 17.3
-6 -3 6 166.78 17.4
5 3 -6 293.47 30.3
5 3 -6 237.98 29.3
5 3 -6 314.57 33
5 3 -6 340.07 41.8
-5 -3 6 255.67 24.9
-5 -3 6 277.37 25.7
-5 -3 6 227.68 26.4
-5 -3 6 245.78 25.6
-5 -3 6 242.68 24.5
4 3 -6 15.7 7.9
4 3 -6 13.7 8.6
4 3 -6 12.2 5.2
4 3 -6 13.7 9.4
-4 -3 6 13.3 4.5
-4 -3 6 15.8 4.1
-4 -3 6 18.9 4.9
-4 -3 6 16.5 5.5
3 3 -6 173.78 24.4
3 3 -6 202.18 24.8
3 3 -6 256.27 27.4
3 3 -6 195.48 26.3
3 3 -6 234.88 27.8
3 3 -6 216.88 25
3 3 -6 243.98 33.9
-3 -3 6 229.58 20.4
-3 -3 6 223.58 20.7
-3 -3 6 257.07 28.2
2 3 -6 21.5 9.7
2 3 -6 0.3 3.7
2 3 -6 -1 3.5
2 3 -6 3.4 2.8
-2 -3 6 -1 1.5
-2 -3 6 0 1
-2 -3 6 -0.4 2.7
-2 -3 6 5.6 3.2
-2 -3 6 2.3 2
1 3 -6 2821.42 255.57
-1 -3 6 3096.89 250.47
-1 -3 6 3116.49 253.47
-1 -3 6 3522.35 250.27
0 3 -6 388.26 36.2
0 -3 6 320.07 34
0 -3 6 397.76 32.9
0 -3 6 388.66 32.3
-1 3 -6 4330.17 340.27
1 -3 6 4137.79 335.57
1 -3 6 4522.55 334.67
1 -3 6 3905.91 335.87
-2 3 -6 284.97 25.9
2 -3 6 199.38 20.1
2 -3 6 202.38 22.5
2 -3 6 246.08 24.3
2 -3 6 270.97 24.2
-3 3 -6 43.5 11.2
-3 3 -6 47.9 9.5
-3 3 -6 45.1 8.4
-3 3 -6 44.5 10.4
-3 3 -6 42.4 5
-3 3 -6 25.1 6.9
3 -3 6 31.1 7.4
3 -3 6 42.9 7.5
3 -3 6 24.6 6.1
3 -3 6 30.9 5.5
-4 3 -6 89.79 15.2
-4 3 -6 94.59 18.8
-4 3 -6 102.69 11.1
-4 3 -6 112.59 15.8
-4 3 -6 81.59 31.6
4 -3 6 84.79 12.9
4 -3 6 75.69 13.6
4 -3 6 84.09 10.9
4 -3 6 88.79 13.1
-5 3 -6 6.1 5
-5 3 -6 34.6 16
-5 3 -6 9.1 4.8
-5 3 -6 16.6 7.7
-5 3 -6 19.8 6.2
-5 3 -6 25.8 10.5
-5 3 -6 9.3 6.2
-5 3 -6 24.8 7.9
5 -3 6 14.5 4.5
5 -3 6 14.4 4.5
5 -3 6 34.6 11.4
5 -3 6 20.5 8.3
5 -3 6 13.4 4.4
5 -3 6 4.8 5.1
-6 3 -6 633.74 55.09
-6 3 -6 548.05 55.09
-6 3 -6 496.85 51.29
-6 3 -6 481.15 51.19
6 -3 6 591.74 57.29
6 -3 6 553.84 51.79
6 -3 6 667.83 56.69
6 -3 6 542.45 50.39
6 -3 6 568.94 49.9
6 -3 6 598.54 49.1
-7 3 -6 0.5 4.3
-7 3 -6 1.2 4
-7 3 -6 6.3 4.7
-7 3 -6 9.7 7.1
7 -3 6 10.2 4.2
7 -3 6 4.4 5.2
7 -3 6 7.1 3.5
7 -3 6 9.1 4
7 -3 6 3.8 3.2
-8 3 -6 19.8 7
-8 3 -6 13.5 4.3
-8 3 -6 5.3 4.5
-8 3 -6 4.7 3.5
8 -3 6 3.4 4.2
8 -3 6 9.9 3.2
8 -3 6 15.1 4.2
8 -3 6 19 4.7
8 2 -6 50.69 10.8
-8 -2 6 36.9 6.3
7 2 -6 5.7 6.6
7 2 -6 2.3 3.7
7 2 -6 5.1 7.5
-7 -2 6 0.9 1.5
-7 -2 6 0.3 2.1
-7 -2 6 1.8 3.3
-7 -2 6 2.5 3.1
6 2 -6 236.78 25.9
6 2 -6 259.37 30
6 2 -6 234.88 29
-6 -2 6 185.68 21.3
-6 -2 6 212.58 27.2
-6 -2 6 219.48 21
-6 -2 6 213.68 20.9
-6 -2 6 210.98 23.2
5 2 -6 11.1 6.4
5 2 -6 9.9 6.8
5 2 -6 -1.6 4.7
5 2 -6 11.3 7.2
-5 -2 6 3.7 4.3
-5 -2 6 6.6 3.2
-5 -2 6 4.6 3.1
-5 -2 6 4.8 2.8
-5 -2 6 5.7 3.3
-5 -2 6 3.4 4.5
4 2 -6 1217.58 101.99
4 2 -6 1180.78 102.49
4 2 -6 1172.38 103.79
4 2 -6 1165.28 102.79
4 2 -6 1351.86 109.79
-4 -2 6 1209.68 96.79
-4 -2 6 1143.99 97.89
-4 -2 6 966.5 98.39
-4 -2 6 1124.09 96.09
-4 -2 6 1283.97 102.09
-4 -2 6 1212.28 96.19
3 2 -6 13.1 9.2
3 2 -6 9.9 4.8
3 2 -6 7.9 4.4
-3 -2 6 8.8 3.2
-3 -2 6 17.1 6
-3 -2 6 12.8 2.8
-3 -2 6 7.9 3.2
2 2 -6 1571.04 143.69
2 2 -6 1750.22 146.39
-2 -2 6 1758.52 140.89
-2 -2 6 1767.92 142.49
-2 -2 6 1880.61 142.19
-2 -2 6 1856.81 145.49
1 2 -6 3063.29 264.87
1 2 -6 2989.5 260.57
-1 -2 6 3603.24 260.67
-1 -2 6 3424.66 258.87
0 2 -6 207.18 25.3
0 2 -6 213.08 24
0 2 -6 250.37 20.5
0 -2 6 240.18 21.5
0 -2 6 261.87 22.4
0 -2 6 208.58 20.8
-1 2 -6 4280.67 321.37
1 -2 6 3838.02 322.17
1 -2 6 4058.49 321.17
-2 2 -6 1401.06 104.39
-2 2 -6 1422.96 111.29
2 -2 6 1143.89 106.99
2 -2 6 1256.27 104.09
2 -2 6 1226.38 105.89
-3 2 -6 3994.6 315.77
-3 2 -6 3774.32 319.87
-3 2 -6 4125.79 319.17
3 -2 6 3527.35 318.67
3 -2 6 3617.04 318.87
3 -2 6 3707.53 314.97
3 -2 6 4566.54 315.57
3 -2 6 4348.56 318.57
-4 2 -6 65.49 11.9
-4 2 -6 54.99 20.7
-4 2 -6 65.99 10.3
-4 2 -6 70.59 12.6
-4 2 -6 68.89 11.5
-4 2 -6 61.09 9.3
-4 2 -6 49.5 10.1
4 -2 6 62.29 11.8
4 -2 6 62.79 14.9
4 -2 6 85.39 12.9
4 -2 6 70.29 9.1
4 -2 6 75.29 11.6
-5 2 -6 843.32 77.09
-5 2 -6 923.61 89.09
-5 2 -6 905.61 77.59
-5 2 -6 945.91 81.59
5 -2 6 831.32 74.49
-6 2 -6 108.89 16.7
-6 2 -6 101.49 17.8
-6 2 -6 150.98 19
-6 2 -6 110.19 16.4
-6 2 -6 92.69 20
6 -2 6 145.19 15.2
6 -2 6 153.48 20.2
6 -2 6 136.39 20.3
6 -2 6 154.68 17.6
6 -2 6 120.39 16.4
6 -2 6 127.69 14.1
-7 2 -6 68.49 14.2
-7 2 -6 45.5 9.7
-7 2 -6 56.19 10.6
7 -2 6 68.69 8.7
7 -2 6 60.29 12.1
7 -2 6 74.09 9.5
7 -2 6 66.99 8.9
7 -2 6 65.39 10.4
-8 2 -6 14.1 5.3
-8 2 -6 14.6 4.4
8 -2 6 27.7 6.1
8 -2 6 15.4 3.2
8 1 -6 12.6 5.4
8 1 -6 9 5.5
8 1 -6 7.8 5.8
-8 -1 6 3.1 3.1
-8 -1 6 3.7 2.3
7 1 -6 58.49 11.5
7 1 -6 64.19 11.6
-7 -1 6 53.09 7.5
-7 -1 6 52.19 10.5
-7 -1 6 60.79 9.6
-7 -1 6 43.3 7.7
6 1 -6 116.39 16.8
6 1 -6 128.89 19.4
6 1 -6 126.49 18
-6 -1 6 100.59 12.6
-6 -1 6 107.49 12.1
-6 -1 6 106.89 14
-6 -1 6 77.39 19.4
5 1 -6 485.95 47.3
5 1 -6 582.14 50.19
5 1 -6 514.25 50.49
-5 -1 6 481.85 45.8
-5 -1 6 476.25 46.1
-5 -1 6 564.64 44.2
-5 -1 6 493.05 47.1
4 1 -6 2143.49 198.38
4 1 -6 2552.14 200.58
4 1 -6 2189.68 201.28
-4 -1 6 2572.54 194.58
-4 -1 6 2620.44 196.48
-4 -1 6 2596.34 195.18
-4 -1 6 2063.59 198.98
-4 -1 6 2712.63 199.78
3 1 -6 1671.53 131.39
3 1 -6 1501.85 129.79
-3 -1 6 1573.64 125.99
-3 -1 6 1678.63 130.49
-3 -1 6 1615.04 128.09
-3 -1 6 1336.07 130.69
-3 -1 6 1613.14 126.49
2 1 -6 4141.09 357.56
-2 -1 6 4759.42 356.96
-2 -1 6 4523.15 355.26
-2 -1 6 4545.75 355.46
1 1 -6 1928.11 161.58
-1 -1 6 1713.53 161.48
-1 -1 6 2250.17 161.88
-1 -1 6 2150.08 160.08
0 1 -6 4025.1 340.07
0 -1 6 4133.99 337.97
0 -1 6 4187.88 338.77
0 -1 6 5023.4 341.67
0 -1 6 3904.21 338.87
0 -1 6 4462.95 339.77
-1 1 -6 5.8 2.3
-1 1 -6 5.8 3.5
-1 1 -6 10.6 4.7
1 -1 6 5 2
1 -1 6 2.6 3
1 -1 6 7.2 2.8
1 -1 6 12 4
-2 1 -6 3922.71 315.37
-3 1 -6 823.22 66.89
-3 1 -6 783.02 66.79
-3 1 -6 745.73 69.19
-3 1 -6 783.32 69.89
3 -1 6 727.43 68.49
-4 1 -6 1013.8 87.39
-4 1 -6 857.61 93.99
-4 1 -6 1173.28 91.09
-4 1 -6 1038.7 87.39
4 -1 6 986.7 86.99
-5 1 -6 52.89 15.4
-5 1 -6 69.79 12
-5 1 -6 58.29 11
-5 1 -6 48 11.3
5 -1 6 59.29 9
5 -1 6 65.49 11.5
5 -1 6 64.69 12.7
5 -1 6 77.39 10.3
5 -1 6 91.29 14.5
5 -1 6 75.89 9.8
-6 1 -6 320.47 45.2
6 -1 6 366.76 36
6 -1 6 310.97 30.6
6 -1 6 312.37 41.3
6 -1 6 362.46 32.3
-7 1 -6 40.9 8.5
-7 1 -6 33.2 9.8
7 -1 6 36.6 5.5
7 -1 6 21.4 5.7
7 -1 6 41.1 8.2
7 -1 6 30.3 9.3
7 -1 6 29.6 5.2
-8 1 -6 14.4 4.3
8 -1 6 13.2 3.5
9 0 -6 14.6 7
9 0 -6 8.3 4.5
-9 0 6 13.1 3.7
8 0 -6 120.59 18.4
8 0 -6 153.28 17.8
8 0 -6 123.99 24.3
-8 0 6 110.59 13.6
-8 0 6 119.39 14.5
-8 0 6 104.09 11
7 0 -6 93.19 12.4
7 0 -6 100.49 15.4
-7 0 6 78.39 11.7
-7 0 6 64.99 9
-7 0 6 91.29 10.1
-7 0 6 82.19 12.5
6 0 -6 152.88 20.3
6 0 -6 128.89 17.4
-6 0 6 172.78 17.7
-6 0 6 147.59 15.3
-6 0 6 156.28 16.1
-6 0 6 153.38 18.5
-6 0 6 136.89 17.3
-6 0 6 152.88 15.5
5 0 -6 413.46 42
5 0 -6 408.76 40.2
5 0 -6 439.76 39.9
5 0 -6 335.67 37
-5 0 6 393.76 34.8
-5 0 6 380.86 37.9
-5 0 6 414.66 37.5
-5 0 6 366.96 35.3
-5 0 6 426.66 35.1
-5 0 6 435.76 36.7
4 0 -6 543.55 48.9
4 0 -6 446.86 46.9
4 0 -6 458.05 47.4
4 0 -6 552.54 49.4
4 0 -6 523.75 48
-4 0 6 547.85 44
-4 0 6 484.35 44.9
-4 0 6 539.45 44.5
-4 0 6 550.44 46
-4 0 6 542.95 47.8
3 0 -6 975.6 80.89
3 0 -6 948.71 81.09
-3 0 6 907.01 77.29
-3 0 6 938.11 79.59
-3 0 6 973.8 78.89
-3 0 6 927.41 76.89
-3 0 6 960.1 80.69
2 0 -6 1568.54 140.39
2 0 -6 1620.24 139.09
2 0 -6 1558.54 139.29
-2 0 6 1881.01 136.99
-2 0 6 1769.92 138.99
-2 0 6 1827.62 138.39
1 0 -6 1018.8 87.09
1 0 -6 1137.39 90.49
1 0 -6 1036.2 87.79
1 0 -6 1124.59 88.99
-1 0 6 1040.3 85.99
-1 0 6 1119.19 87.69
-1 0 6 1055.29 86.99
-1 0 6 971.5 86.59
-1 0 6 1067.39 88.09
0 0 -6 1733.53 143.09
0 0 -6 2010.2 143.99
0 0 -6 1738.23 144.09
0 0 6 1738.13 143.89
0 0 6 1980.5 145.69
0 0 6 1675.83 141.99
0 0 6 1491.05 142.09
0 0 6 1880.81 144.49
-1 0 -6 45.2 6.8
-1 0 -6 53.99 7.7
1 0 6 44.1 7.8
1 0 6 44.4 6.5
1 0 6 56.59 7.7
1 0 6 43.9 6.5
-2 0 -6 214.08 24.3
-2 0 -6 248.28 25.7
2 0 6 271.37 27.8
2 0 6 293.07 24.5
2 0 6 276.27 26.8
2 0 6 268.67 24.7
2 0 6 240.58 26.6
-3 0 -6 10.2 4.7
-3 0 -6 -1.4 3.7
-3 0 -6 6.2 4.6
-3 0 -6 10.6 5.2
-3 0 -6 12.3 4.3
3 0 6 0.5 3.5
3 0 6 5.5 2.7
3 0 6 5.8 4.4
3 0 6 12.7 4.7
3 0 6 2.5 4.9
3 0 6 2.6 2.3
3 0 6 0.9 3.7
-4 0 -6 83.89 19.2
-4 0 -6 142.39 17.3
-4 0 -6 108.79 16.4
4 0 6 146.39 14.7
4 0 6 106.29 22.9
4 0 6 128.59 18.2
4 0 6 126.09 17.8
4 0 6 140.49 15.3
-5 0 -6 2.3 3.1
5 0 6 6.4 5.3
5 0 6 2.4 5.5
5 0 6 9.1 4.9
5 0 6 4.2 3.2
5 0 6 4.6 3
5 0 6 4.8 2.8
-6 0 -6 59.39 12.3
-6 0 -6 46.7 10
6 0 6 51.69 9.8
6 0 6 49.99 10.3
6 0 6 47 7.1
-7 0 -6 1.2 2.8
-7 0 -6 2 3.2
7 0 6 -1.1 2.3
7 0 6 2.8 1.9
9 -1 -6 11.6 4.3
9 -1 -6 4.3 6.6
9 -1 -6 1.9 3.1
-9 1 6 5.2 3.1
-9 1 6 0.9 2
8 -1 -6 141.59 18.9
8 -1 -6 166.88 16.9
-8 1 6 130.69 17.2
-8 1 6 117.69 15.2
7 -1 -6 -1.5 5
7 -1 -6 -6.5 20.9
-7 1 6 -2.4 2.2
-7 1 6 1.5 4.7
-7 1 6 -1.9 3.8
-7 1 6 1.1 4.7
6 -1 -6 555.84 52.59
6 -1 -6 637.94 59.59
6 -1 -6 570.24 55.99
-6 1 6 599.54 51.49
-6 1 6 521.75 51.89
-6 1 6 539.35 53.19
-6 1 6 594.94 49.6
-6 1 6 565.84 52.39
-6 1 6 671.43 50.89
5 -1 -6 8.5 6.2
5 -1 -6 5.1 4.6
5 -1 -6 2.7 3.5
5 -1 -6 5.7 8.7
-5 1 6 1.3 2.6
-5 1 6 10.4 3
-5 1 6 2.3 1.8
-5 1 6 3 4.2
-5 1 6 4 2.3
-5 1 6 -4.4 5.2
-5 1 6 -1.4 2.1
4 -1 -6 966.1 88.29
4 -1 -6 1049.7 90.89
4 -1 -6 1049.89 89.69
4 -1 -6 1054.19 90.89
4 -1 -6 1077.99 89.09
-4 1 6 1045.6 89.09
-4 1 6 1052.49 88.29
-4 1 6 1075.89 88.09
-4 1 6 1100.89 85.69
-4 1 6 1021.6 86.09
3 -1 -6 136.39 14.3
3 -1 -6 150.08 15.8
3 -1 -6 136.59 16.2
3 -1 -6 114.19 15.7
-3 1 6 119.39 13.1
-3 1 6 127.19 14.4
-3 1 6 144.09 15.8
2 -1 -6 4.5 2.6
2 -1 -6 5.4 3.6
2 -1 -6 7.9 3.6
2 -1 -6 7.6 3.2
2 -1 -6 2 2.3
-2 1 6 12 2.9
-2 1 6 3.9 3.1
-2 1 6 3.9 2.6
-2 1 6 8.7 2.5
1 -1 -6 277.47 28.2
1 -1 -6 330.17 29.9
1 -1 -6 309.57 27
-1 1 6 307.97 26.1
-1 1 6 288.07 28.2
-1 1 6 279.87 27.4
-1 1 6 288.87 26.3
0 -1 -6 280.97 24.6
0 -1 -6 238.18 24.7
0 -1 -6 278.57 26.5
0 1 6 257.67 24.2
0 1 6 268.47 25.9
0 1 6 262.07 24.5
0 1 6 278.87 26.9
0 1 6 280.47 26.2
-1 -1 -6 193.28 20.7
-1 -1 -6 217.98 19
-1 -1 -6 174.38 19.1
1 1 6 174.88 18.9
1 1 6 175.18 18.5
1 1 6 194.28 20.6
1 1 6 204.08 29.9
1 1 6 196.68 20.7
-2 -1 -6 1514.35 119.69
-2 -1 -6 1411.86 118.99
-2 -1 -6 1247.58 116.99
-2 -1 -6 1315.87 119.49
2 1 6 1449.55 117.59
2 1 6 1389.16 121.19
2 1 6 1354.86 119.69
2 1 6 1360.06 119.29
2 1 6 1527.25 117.49
2 1 6 1616.34 116.99
-3 -1 -6 124.79 15.6
-3 -1 -6 111.99 15.9
-3 -1 -6 130.69 17.3
-3 -1 -6 127.39 17.1
-3 -1 -6 115.19 16
3 1 6 119.49 13.6
3 1 6 111.89 13.6
3 1 6 91.29 19
3 1 6 125.79 14.6
3 1 6 117.89 18.1
3 1 6 116.49 15.7
3 1 6 121.89 17.3
-4 -1 -6 938.81 83.29
-4 -1 -6 816.82 80.39
-4 -1 -6 908.21 86.39
4 1 6 974.5 82.09
4 1 6 955.3 84.69
4 1 6 928.11 79.59
4 1 6 934.31 77.99
4 1 6 903.71 78.29
4 1 6 1090.79 87.09
-5 -1 -6 33.3 8.6
-5 -1 -6 19.5 18.5
5 1 6 34.7 7.2
5 1 6 21.2 9.4
5 1 6 22.3 8.7
5 1 6 55.89 14.4
5 1 6 40.3 9.7
-6 -1 -6 232.98 26.1
-6 -1 -6 229.08 25.6
6 1 6 203.88 23.9
6 1 6 237.08 21.3
6 1 6 262.27 24.5
-7 -1 -6 33.7 6.4
7 1 6 40.6 6.1
9 -2 -6 1.1 3.5
9 -2 -6 -1.9 1.9
-9 2 6 3.1 2.3
-9 2 6 0 3.2
8 -2 -6 81.79 14.4
8 -2 -6 104.29 12.4
-8 2 6 86.19 12.1
-8 2 6 81.89 11.5
7 -2 -6 6.5 5.9
-7 2 6 -2 5.2
-7 2 6 8.8 7.4
-7 2 6 0.9 4.1
6 -2 -6 62.59 11.1
6 -2 -6 49.99 10.9
6 -2 -6 66.29 13.1
6 -2 -6 83.09 18.7
-6 2 6 41.5 8
-6 2 6 63.39 8.4
-6 2 6 73.09 10.3
-6 2 6 47.5 9.3
-6 2 6 73.29 10.1
5 -2 -6 72.19 11.1
5 -2 -6 49.2 10.2
5 -2 -6 54.29 10.3
5 -2 -6 68.59 13.6
5 -2 -6 78.19 11.5
5 -2 -6 73.89 13.5
-5 2 6 59.09 9.9
-5 2 6 65.59 10.3
-5 2 6 54.59 8.3
-5 2 6 57.39 7.7
-5 2 6 65.99 8.3
-5 2 6 62.19 9.2
-5 2 6 53.79 15.8
4 -2 -6 120.29 13
4 -2 -6 117.49 14.9
4 -2 -6 126.89 13.8
4 -2 -6 111.59 15.9
4 -2 -6 123.19 16.4
4 -2 -6 116.79 15.3
4 -2 -6 132.39 14.8
-4 2 6 127.79 15.2
-4 2 6 118.39 12.2
-4 2 6 110.89 12.5
-4 2 6 125.19 16.8
-4 2 6 95.19 13.9
-4 2 6 105.39 13.7
3 -2 -6 289.87 30.5
3 -2 -6 308.77 31.8
3 -2 -6 300.57 31.6
3 -2 -6 380.86 30.9
3 -2 -6 363.26 29.8
3 -2 -6 342.37 31.6
-3 2 6 303.27 29.1
-3 2 6 312.37 30.1
-3 2 6 279.57 27.5
-3 2 6 310.37 27.8
-3 2 6 318.87 30.9
-3 2 6 294.77 28.2
2 -2 -6 674.83 59.19
2 -2 -6 727.43 60.29
2 -2 -6 668.63 57.89
2 -2 -6 662.13 57.29
2 -2 -6 656.73 59.79
-2 2 6 627.94 56.69
-2 2 6 719.63 59.59
-2 2 6 741.53 56.59
-2 2 6 612.14 58.09
1 -2 -6 3344.77 266.67
1 -2 -6 3142.49 265.07
1 -2 -6 3112.69 265.37
1 -2 -6 3184.38 267.97
-1 2 6 3458.15 267.37
-1 2 6 3482.05 264.97
-1 2 6 3403.06 265.47
-1 2 6 3448.75 268.27
0 -2 -6 35.2 6.5
0 -2 -6 40.5 9
0 -2 -6 35.7 7.9
0 -2 -6 49.4 7.8
0 -2 -6 40.9 7.4
0 -2 -6 34.8 6.3
0 2 6 52.99 8.5
0 2 6 46.9 7.4
0 2 6 58.99 9.1
0 2 6 47.2 7.1
0 2 6 43.6 7.8
0 2 6 45.2 8.3
0 2 6 45.2 7.3
-1 -2 -6 855.21 72.99
-1 -2 -6 805.02 72.19
-1 -2 -6 833.92 70.39
-1 -2 -6 920.91 69.49
1 2 6 873.31 72.99
1 2 6 904.11 71.99
1 2 6 824.92 72.99
1 2 6 705.53 68.69
1 2 6 811.32 69.69
1 2 6 765.42 70.19
1 2 6 724.13 72.99
1 2 6 839.12 72.39
-2 -2 -6 190.98 22.6
-2 -2 -6 180.28 22.7
-2 -2 -6 172.58 20.5
-2 -2 -6 185.98 21.5
2 2 6 167.48 22.2
2 2 6 220.48 23.6
2 2 6 197.08 21
2 2 6 169.28 21.1
2 2 6 207.08 25.5
2 2 6 210.28 26.9
2 2 6 173.18 23
2 2 6 204.68 20.4
2 2 6 189.18 19.7
-3 -2 -6 220.98 26.4
-3 -2 -6 235.78 26
-3 -2 -6 256.57 28.3
-3 -2 -6 253.17 29.1
3 2 6 190.38 26.4
3 2 6 253.77 23.9
3 2 6 285.47 27.7
3 2 6 274.77 26
3 2 6 241.58 30.3
3 2 6 225.98 26.9
-4 -2 -6 249.48 27.2
-4 -2 -6 273.67 33.1
-4 -2 -6 277.77 29.9
-4 -2 -6 263.47 29.6
4 2 6 279.27 24.6
4 2 6 247.08 30.6
4 2 6 263.27 27.6
4 2 6 266.57 31.5
4 2 6 256.97 24.4
4 2 6 217.48 27.3
-5 -2 -6 19.3 7.1
-5 -2 -6 17.5 7.4
-5 -2 -6 12.2 6.3
5 2 6 19.5 4.2
5 2 6 22.7 6.8
5 2 6 15.8 5.7
5 2 6 17.6 6
-6 -2 -6 76.99 10.7
-6 -2 -6 73.69 11.5
6 2 6 85.89 10.2
6 2 6 69.99 10.8
9 -3 -6 -4.4 3.1
9 -3 -6 2.6 2.8
-9 3 6 2.6 2.5
8 -3 -6 475.95 41.1
8 -3 -6 494.55 45.5
-8 3 6 406.56 39.7
-8 3 6 439.96 40.8
7 -3 -6 27.6 8
7 -3 -6 10.5 6.7
7 -3 -6 20.9 8.1
-7 3 6 22.7 6.8
-7 3 6 22.8 8.1
6 -3 -6 1258.27 112.39
6 -3 -6 1315.87 103.29
6 -3 -6 1339.17 109.59
6 -3 -6 1344.87 109.19
-6 3 6 1270.77 104.19
-6 3 6 1323.97 107.49
-6 3 6 1110.59 108.59
-6 3 6 1307.67 106.49
5 -3 -6 947.21 74.29
5 -3 -6 839.12 75.29
5 -3 -6 898.51 80.39
5 -3 -6 973 78.39
5 -3 -6 908.51 70.99
-5 3 6 750.12 75.39
-5 3 6 831.72 75.99
-5 3 6 877.91 75.89
-5 3 6 742.33 71.59
4 -3 -6 555.94 52.29
4 -3 -6 649.04 51.59
4 -3 -6 556.24 54.59
4 -3 -6 620.04 56.79
4 -3 -6 620.14 49.3
4 -3 -6 630.74 53.59
-4 3 6 517.25 50.79
-4 3 6 578.54 49.1
-4 3 6 592.14 53.09
-4 3 6 546.65 52.39
-4 3 6 560.34 49.8
-4 3 6 536.25 50.39
3 -3 -6 209.98 21.5
3 -3 -6 213.28 20.3
3 -3 -6 226.58 24.8
3 -3 -6 228.08 24.2
3 -3 -6 178.58 19.9
3 -3 -6 239.68 25.2
3 -3 -6 231.88 24
3 -3 -6 221.78 23
3 -3 -6 224.28 21.7
3 -3 -6 220.68 22.3
-3 3 6 213.78 20
-3 3 6 222.18 23.5
-3 3 6 196.68 22.8
-3 3 6 191.78 20.4
-3 3 6 185.78 19.6
-3 3 6 206.18 21.3
2 -3 -6 352.86 33
2 -3 -6 346.07 31.8
2 -3 -6 345.87 33.3
2 -3 -6 376.26 36.6
2 -3 -6 322.27 31.8
2 -3 -6 331.67 34.3
2 -3 -6 398.16 38.9
2 -3 -6 360.16 35
-2 3 6 393.56 36.1
-2 3 6 367.16 34.3
-2 3 6 363.86 32.1
-2 3 6 367.16 33.1
-2 3 6 385.76 33.7
1 -3 -6 556.14 49.7
1 -3 -6 501.05 48.2
1 -3 -6 561.54 52.59
1 -3 -6 552.04 49.9
1 -3 -6 562.84 50.99
1 -3 -6 498.65 50.59
1 -3 -6 596.74 53.49
1 -3 -6 501.05 48
1 -3 -6 540.55 50.89
-1 3 6 598.34 51.79
-1 3 6 653.23 53.69
-1 3 6 625.44 54.29
-1 3 6 624.64 49.8
-1 3 6 603.54 50.69
-1 3 6 618.94 50.79
-1 3 6 546.05 49
0 -3 -6 24.8 7.2
0 -3 -6 24.4 5.5
0 -3 -6 37.5 9.9
0 -3 -6 11.7 5.7
0 -3 -6 20.7 5.6
0 -3 -6 24.5 5.9
0 -3 -6 11.1 5.8
0 -3 -6 13.5 4.8
0 3 6 33.1 7.8
0 3 6 21.5 6.2
0 3 6 23.1 6.2
0 3 6 24.5 7.6
0 3 6 34.3 8.4
0 3 6 13.6 7.8
-1 -3 -6 699.63 59.89
-1 -3 -6 663.33 61.79
-1 -3 -6 712.03 56.89
-1 -3 -6 705.63 58.49
-1 -3 -6 663.83 60.19
-1 -3 -6 706.93 63.89
1 3 6 664.33 66.89
1 3 6 662.93 58.69
1 3 6 724.63 62.39
1 3 6 703.23 61.09
1 3 6 607.84 62.69
1 3 6 565.04 59.59
1 3 6 704.33 65.49
1 3 6 644.54 58.89
-2 -3 -6 135.09 18.6
-2 -3 -6 132.29 17.1
-2 -3 -6 137.29 21.5
2 3 6 137.29 15.7
2 3 6 124.79 18.4
2 3 6 98.39 18.4
2 3 6 126.59 17.6
2 3 6 169.28 16.8
2 3 6 119.89 17
2 3 6 137.69 21.1
-3 -3 -6 2.8 14
-3 -3 -6 2.1 5.6
-3 -3 -6 8.8 6
-3 -3 -6 -2.4 4
3 3 6 -8.3 5.7
3 3 6 -5.5 3.6
3 3 6 8.9 6.2
3 3 6 -1.1 2.8
3 3 6 5.1 4.5
-4 -3 -6 0.3 4.1
-4 -3 -6 -6.2 3.6
-4 -3 -6 0.3 4.6
4 3 6 2.4 4.5
4 3 6 2.9 3.8
4 3 6 7.1 4.3
4 3 6 4.2 3.6
-5 -3 -6 17.8 7.9
-5 -3 -6 25.4 6.4
-5 -3 -6 27.5 8.3
5 3 6 32.4 6.7
5 3 6 22.3 6.4
9 -4 -6 168.88 18
-9 4 6 175.08 17.1
8 -4 -6 307.57 34.4
8 -4 -6 334.67 30.6
-8 4 6 315.57 31
-8 4 6 314.07 30
7 -4 -6 250.07 29.2
7 -4 -6 242.98 26.7
7 -4 -6 270.37 26.9
-7 4 6 250.77 24.4
-7 4 6 235.78 25
6 -4 -6 1788.32 135.49
6 -4 -6 1740.83 135.19
6 -4 -6 1555.74 133.09
6 -4 -6 1735.53 129.59
6 -4 -6 1549.54 137.89
-6 4 6 1551.64 132.79
-6 4 6 1540.15 131.69
-6 4 6 1416.46 135.29
5 -4 -6 285.37 27.4
5 -4 -6 313.77 33.9
5 -4 -6 259.77 27.4
5 -4 -6 306.37 31.4
5 -4 -6 330.77 31.5
5 -4 -6 301.37 31.1
5 -4 -6 307.77 29.7
-5 4 6 306.87 33.3
-5 4 6 271.37 29.1
-5 4 6 282.07 28.6
-5 4 6 339.67 28.3
4 -4 -6 6158.78 522.65
4 -4 -6 6691.33 516.15
4 -4 -6 6211.68 524.15
4 -4 -6 5781.62 521.35
4 -4 -6 6614.34 518.55
-4 4 6 7045.8 520.45
-4 4 6 6843.92 513.55
3 -4 -6 603.64 52.59
3 -4 -6 606.24 55.89
3 -4 -6 588.24 53.89
3 -4 -6 538.25 50.19
3 -4 -6 568.14 66.49
3 -4 -6 549.05 52.99
3 -4 -6 507.55 50.39
3 -4 -6 675.33 55.99
-3 4 6 679.83 57.69
-3 4 6 605.74 52.59
-3 4 6 606.04 51.29
-3 4 6 598.04 52.99
2 -4 -6 7187.08 531.25
2 -4 -6 6143.19 528.95
2 -4 -6 6484.65 528.85
2 -4 -6 7101.99 534.85
2 -4 -6 6772.72 532.55
2 -4 -6 6448.45 533.95
2 -4 -6 6666.23 531.45
2 -4 -6 7279.17 537.35
-2 4 6 6297.67 536.25
-2 4 6 7325.87 530.25
-2 4 6 6859.21 531.45
-2 4 6 6507.35 531.85
-2 4 6 5706.83 529.65
-2 4 6 6705.13 537.05
1 -4 -6 142.49 15.2
1 -4 -6 141.29 19
1 -4 -6 148.49 16.4
1 -4 -6 118.29 19.4
1 -4 -6 138.39 18.2
1 -4 -6 139.09 14.9
1 -4 -6 134.79 16
1 -4 -6 140.59 22.2
1 -4 -6 113.29 15.7
1 -4 -6 153.68 16.4
-1 4 6 131.39 16.3
-1 4 6 160.48 18.2
-1 4 6 127.99 20.5
-1 4 6 179.08 19.4
-1 4 6 88.59 21.6
0 -4 -6 891.51 83.19
0 -4 -6 879.01 79.29
0 -4 -6 930.41 80.39
0 -4 -6 973.9 86.19
0 -4 -6 933.41 79.39
0 -4 -6 927.21 81.49
0 4 6 818.72 82.69
0 4 6 1031.1 83.79
0 4 6 1045.9 82.49
-1 -4 -6 156.38 20.5
-1 -4 -6 124.39 26
-1 -4 -6 127.59 15.7
-1 -4 -6 142.09 17.9
-1 -4 -6 148.29 17.6
-1 -4 -6 149.09 18.8
1 4 6 157.88 22.6
1 4 6 145.59 19.1
1 4 6 186.88 18.1
1 4 6 167.38 20.7
-2 -4 -6 258.27 28.3
-2 -4 -6 260.67 28.3
-2 -4 -6 275.67 30.4
2 4 6 242.88 28.9
2 4 6 283.87 29.1
2 4 6 262.37 33.3
-3 -4 -6 8.8 5.3
-3 -4 -6 2.9 5.2
3 4 6 11.1 7.5
3 4 6 5.3 4.5
3 4 6 -0.4 3.2
-4 -4 -6 183.68 19
-4 -4 -6 143.49 20.7
4 4 6 172.98 19.8
4 4 6 214.98 19.1
-5 -4 -6 2.8 2.5
5 4 6 3.3 2.4
9 -5 -6 54.49 6.9
9 -5 -6 56.29 9.9
-9 5 6 57.29 9.1
8 -5 -6 5.6 4.7
8 -5 -6 13.9 5.1
-8 5 6 8.6 5.1
-8 5 6 3 4.9
-8 5 6 16.9 6.8
-8 5 6 6.6 3.7
7 -5 -6 169.88 22.6
7 -5 -6 203.18 21.4
7 -5 -6 178.08 21.6
-7 5 6 184.38 18.9
-7 5 6 191.68 20.1
6 -5 -6 49.3 10.4
6 -5 -6 54.39 8.2
6 -5 -6 48.9 11.8
6 -5 -6 55.19 13.1
6 -5 -6 55.39 10.5
-6 5 6 30 10.2
-6 5 6 60.09 8.6
-6 5 6 48 9.1
-6 5 6 49.7 9.1
5 -5 -6 63.99 9
5 -5 -6 82.09 11.5
5 -5 -6 42.3 10.6
5 -5 -6 76.29 11.6
5 -5 -6 53.59 12.8
5 -5 -6 66.09 12.5
-5 5 6 87.99 14.8
-5 5 6 56.69 9.8
-5 5 6 64.89 10.2
-5 5 6 52.19 12.2
4 -5 -6 83.79 13.9
4 -5 -6 93.39 13.1
4 -5 -6 82.39 10.8
4 -5 -6 77.29 15.2
4 -5 -6 86.19 12.6
4 -5 -6 77.99 11
4 -5 -6 105.49 13.5
-4 5 6 104.99 16.9
-4 5 6 108.59 13.5
3 -5 -6 398.06 38.2
3 -5 -6 362.56 36.2
3 -5 -6 391.16 37.6
3 -5 -6 402.26 39.8
3 -5 -6 354.36 34.4
3 -5 -6 397.56 39.5
-3 5 6 392.06 37.1
-3 5 6 415.46 54.49
-3 5 6 397.56 37.6
2 -5 -6 205.08 30.3
2 -5 -6 272.57 27.6
2 -5 -6 313.77 31.1
2 -5 -6 275.67 28.8
2 -5 -6 282.77 27.9
2 -5 -6 225.48 26.6
2 -5 -6 254.57 25.6
-2 5 6 328.67 29.3
-2 5 6 298.17 29.3
1 -5 -6 40.1 8.8
1 -5 -6 37.3 6.8
1 -5 -6 35.4 9.7
1 -5 -6 50.99 9
1 -5 -6 28.8 6.5
1 -5 -6 40.4 7.8
1 -5 -6 53.49 10.1
-1 5 6 47.4 11
-1 5 6 32.7 8.7
0 -5 -6 268.67 28.5
0 -5 -6 255.67 28.1
0 -5 -6 269.47 30.1
0 -5 -6 259.17 24.9
0 -5 -6 272.67 27.6
0 5 6 287.17 30
0 5 6 265.97 29.5
-1 -5 -6 72.89 10.1
-1 -5 -6 80.59 13.8
-1 -5 -6 75.89 13.2
-1 -5 -6 89.29 13.2
1 5 6 81.69 12.9
1 5 6 70.39 12.6
-2 -5 -6 141.59 18.7
-2 -5 -6 149.39 17.8
2 5 6 139.19 17.5
2 5 6 139.99 17.7
-3 -5 -6 1.4 3.1
-3 -5 -6 0.4 3.8
3 5 6 1.7 2.4
3 5 6 2 2.8
-4 -5 -6 14.8 3.8
4 5 6 15.5 3.6
4 5 6 8.5 3.2
8 -6 -6 38.1 6.9
-8 6 6 29.5 8.2
-8 6 6 40.9 6.6
7 -6 -6 258.07 24.7
7 -6 -6 199.08 24.9
-7 6 6 249.68 23.8
6 -6 -6 150.38 18.1
6 -6 -6 143.29 19.9
6 -6 -6 148.49 14.3
6 -6 -6 177.28 18.8
-6 6 6 138.89 16.5
-6 6 6 128.99 15.7
-6 6 6 118.09 16.1
5 -6 -6 634.64 55.29
5 -6 -6 696.53 55.79
5 -6 -6 553.54 56.19
5 -6 -6 531.25 52.49
5 -6 -6 595.54 50.89
-5 6 6 684.53 53.59
-5 6 6 592.84 53.89
-5 6 6 558.64 57.29
4 -6 -6 83.79 12.7
4 -6 -6 67.49 13.5
4 -6 -6 80.29 14.1
4 -6 -6 72.69 12.5
4 -6 -6 53.69 8.8
4 -6 -6 63.59 12.7
-4 6 6 88.99 13.1
3 -6 -6 307.97 32.7
3 -6 -6 261.77 27.8
3 -6 -6 222.18 24.8
3 -6 -6 314.17 29.9
2 -6 -6 5.3 3.8
2 -6 -6 1.4 6.1
2 -6 -6 5.6 6.6
2 -6 -6 14.1 7.2
-2 6 6 -16.5 11.5
1 -6 -6 93.79 14.2
1 -6 -6 93.59 11.2
1 -6 -6 91.89 16
1 -6 -6 117.09 16.5
-1 6 6 82.89 14.9
-1 6 6 115.39 15.3
0 -6 -6 122.09 11.9
0 -6 -6 96.49 15
0 -6 -6 105.19 16.3
0 6 6 114.79 16.4
0 6 6 104.69 15.4
-1 -6 -6 9.7 4
-1 -6 -6 13.9 10
1 6 6 15.8 5.7
1 6 6 9.9 5.4
-2 -6 -6 11 4.2
-2 -6 -6 11.5 4.2
2 6 6 9.8 3.9
2 6 6 10.7 4.5
8 -7 -6 185.18 16.2
-8 7 6 144.19 17.9
7 -7 -6 478.65 42.4
-7 7 6 485.85 42
6 -7 -6 209.78 20.3
6 -7 -6 170.88 15.3
6 -7 -6 138.69 20.2
-6 7 6 141.39 27.1
-6 7 6 190.98 19.1
5 -7 -6 1129.49 94.99
5 -7 -6 1007.4 91.19
-5 7 6 1243.48 92.99
-5 7 6 1014.5 99.59
4 -7 -6 3 5.3
4 -7 -6 8.8 6.4
4 -7 -6 5.4 10
4 -7 -6 -1.7 5.7
4 -7 -6 2.3 3
-4 7 6 0.5 6.3
-4 7 6 -0.4 4
3 -7 -6 1750.72 142.49
3 -7 -6 1808.82 146.79
-3 7 6 1767.92 146.89
2 -7 -6 355.56 35.5
2 -7 -6 371.96 31.7
-2 7 6 368.56 36.2
1 -7 -6 1100.59 93.09
1 -7 -6 1144.79 88.09
-1 7 6 1051.79 93.49
0 -7 -6 387.96 36
0 -7 -6 437.16 40.6
0 7 6 355.16 35.8
-1 -7 -6 347.17 28.6
1 7 6 270.37 27.6
-6 8 6 115.79 12.7
-5 8 6 86.39 12.2
-5 8 6 96.59 13
4 -8 -6 332.17 28.9
-4 8 6 268.37 34
-4 8 6 301.77 28.6
3 -8 -6 244.68 24.1
-3 8 6 272.47 33.5
-3 8 6 229.58 24
2 -8 -6 94.89 11.8
-2 8 6 95.69 12
1 -8 -6 252.97 22.5
-1 8 6 209.58 22
0 10 -7 64.09 16.1
-1 10 -7 28.5 7.6
-1 10 -7 31.9 13
-1 10 -7 19.2 7.3
-2 10 -7 124.89 22
-2 10 -7 114.59 18.4
-3 10 -7 108.49 17.8
-3 10 -7 82.59 11.2
-3 10 -7 86.49 11
-4 10 -7 26.7 6.1
-4 10 -7 20.3 6.3
-4 10 -7 40.7 9.3
-5 10 -7 71.09 12.8
-6 10 -7 78.69 12.6
-6 10 -7 61.99 11.8
2 9 -7 4.4 2.7
2 9 -7 12.4 6.7
-2 -9 7 6.3 3.4
1 9 -7 4.7 9.8
1 9 -7 3.9 3.5
-1 -9 7 4.3 3
-1 -9 7 13.6 4.6
0 9 -7 6.6 6.2
0 9 -7 25.1 14.5
0 9 -7 6.4 4.9
0 -9 7 3.6 5.2
0 -9 7 -0.7 3.4
-1 9 -7 41.6 13.3
-1 9 -7 21.9 7.5
-1 9 -7 11.2 6.9
-1 9 -7 10.5 11.5
-2 9 -7 59.49 12.1
-2 9 -7 60.49 10.9
-2 9 -7 72.09 14.9
2 -9 7 57.49 9.4
-3 9 -7 1.3 3.8
-3 9 -7 5.7 4.9
-3 9 -7 1.2 4.5
-3 9 -7 2.3 3.3
-3 9 -7 8 4.7
-3 9 -7 2.3 6.7
-4 9 -7 10.6 5.3
-4 9 -7 4.6 3.6
-4 9 -7 7.5 5.9
-4 9 -7 11.8 5.3
-4 9 -7 16.7 9
-5 9 -7 -1.4 3.6
-5 9 -7 -3.7 3.8
-5 9 -7 -0.1 5.2
-5 9 -7 0.3 3.6
-6 9 -7 -0.2 4.6
-6 9 -7 0.4 3.3
-6 9 -7 2.6 4.1
-6 9 -7 2.5 4.1
6 -9 7 0.6 3.5
-7 9 -7 0.2 2.9
-7 9 -7 0.7 3.6
-7 9 -7 1.8 3
3 8 -7 21.4 5.1
-3 -8 7 20.7 6
2 8 -7 117.79 17
-2 -8 7 101.29 13.4
-2 -8 7 118.89 13.2
-2 -8 7 145.79 14.3
1 8 -7 158.18 32.6
1 8 -7 114.79 20
-1 -8 7 100.09 13.2
0 8 -7 22.4 15.2
0 8 -7 23.6 9.1
0 8 -7 39.9 11.4
0 -8 7 17.9 5.8
0 -8 7 19.5 5.7
-1 8 -7 128.09 24.8
-1 8 -7 88.59 25.4
-1 8 -7 103.09 15.1
-1 8 -7 141.39 30.2
-2 8 -7 4 5.7
-2 8 -7 11.3 5.3
-2 8 -7 10.4 5.8
-2 8 -7 15.3 10.9
-2 8 -7 13.2 8.7
-2 8 -7 10.1 9.6
-2 8 -7 18.4 10.1
-2 8 -7 7.7 8.3
-2 8 -7 11.2 6.3
2 -8 7 15.4 6.9
-3 8 -7 86.09 16.4
-3 8 -7 71.19 15
-3 8 -7 68.89 21.5
-3 8 -7 53.79 22.6
-3 8 -7 93.59 18.1
-3 8 -7 86.29 17.8
-4 8 -7 24.5 10.9
-4 8 -7 23.4 7.3
-4 8 -7 25.9 8.1
-4 8 -7 43.6 11.9
-4 8 -7 39.3 11
-4 8 -7 21.1 9.5
-4 8 -7 30.1 12.7
-5 8 -7 49.9 12.6
-5 8 -7 74.49 14.9
-5 8 -7 61.79 15.5
-5 8 -7 58.89 11.5
5 -8 7 43.5 9.8
-6 8 -7 26.2 8.4
-6 8 -7 33.1 11
-6 8 -7 44.5 11.2
-6 8 -7 37.2 11.8
6 -8 7 19.5 5.4
6 -8 7 32.5 6.2
-7 8 -7 -0.6 3.6
-7 8 -7 0 3.4
-7 8 -7 5.1 4.7
7 -8 7 5.9 3.1
7 -8 7 3.6 2.3
-8 8 -7 3.1 3.2
-8 8 -7 -0.8 1.7
8 -8 7 10.6 3
-4 -7 7 25.1 4.6
-4 -7 7 34.3 5.3
3 7 -7 7.9 9.3
3 7 -7 6.3 4.6
3 7 -7 4.1 10.9
-3 -7 7 7 2.8
-3 -7 7 6.5 2.7
2 7 -7 113.19 18.1
2 7 -7 90.49 27.3
-2 -7 7 111.99 14.3
-2 -7 7 107.49 13.5
-2 -7 7 99.09 12.3
1 7 -7 16.5 6.8
1 7 -7 -9.8 8.3
1 7 -7 4.8 5.7
1 7 -7 2.2 9.2
1 7 -7 8.2 8.1
-1 -7 7 11.4 3.1
-1 -7 7 3.4 3
-1 -7 7 19.1 11.8
0 7 -7 211.48 23.7
0 7 -7 243.28 32.2
0 7 -7 254.57 36.2
0 7 -7 173.68 32.7
0 7 -7 149.88 23.5
0 7 -7 231.88 32
0 -7 7 199.58 22.5
0 -7 7 211.38 20.5
-1 7 -7 12.1 8.1
-1 7 -7 2.1 5.8
-1 7 -7 3.8 4.7
-1 7 -7 0.1 4.7
-1 7 -7 6.2 6.9
-1 7 -7 2.4 4.8
-1 7 -7 0.1 4.6
-1 7 -7 -1.4 7
-1 7 -7 -0.5 3.1
-1 7 -7 3.7 3.6
-1 7 -7 6.4 4.7
-1 7 -7 -0.9 5.4
1 -7 7 6.3 3.3
1 -7 7 2.8 4.3
-2 7 -7 265.67 32.2
-2 7 -7 220.88 29.7
-2 7 -7 258.37 29.3
-2 7 -7 254.07 26.9
-2 7 -7 237.18 30.6
-2 7 -7 243.68 27.5
-2 7 -7 234.58 37.6
-2 7 -7 218.18 31.4
-2 7 -7 206.48 26.7
-2 7 -7 191.18 25.7
-3 7 -7 21 7.8
-3 7 -7 11.9 6.7
-3 7 -7 14.2 6
-3 7 -7 16.7 6.2
-3 7 -7 21.6 8.3
-3 7 -7 16 7.1
-3 7 -7 5.5 6.1
-3 7 -7 15.1 11
-3 7 -7 25.2 8.5
-3 7 -7 20.7 7.5
3 -7 7 12.5 7.8
-4 7 -7 173.68 30.4
-4 7 -7 230.38 27.1
-4 7 -7 224.58 27.5
-4 7 -7 173.08 30.4
-4 7 -7 273.17 29.6
-4 7 -7 260.87 29.5
-4 7 -7 210.68 28.4
-4 7 -7 211.68 26.6
-4 7 -7 241.68 31
4 -7 7 269.47 24
4 -7 7 204.38 28.3
-5 7 -7 2.4 5.3
-5 7 -7 -4.7 9.2
-5 7 -7 8.2 5.9
-5 7 -7 7 6.6
-5 7 -7 7.3 7.7
-5 7 -7 6.8 9.5
5 -7 7 5.4 4
5 -7 7 8.9 3
5 -7 7 3.7 9.2
-6 7 -7 124.69 18.3
-6 7 -7 117.69 17.2
-6 7 -7 81.79 15.9
-6 7 -7 121.69 17.7
6 -7 7 77.69 15.9
6 -7 7 96.59 12.2
6 -7 7 105.79 12.3
-7 7 -7 1.9 9.7
-7 7 -7 5.8 4.8
-7 7 -7 2.3 3
-7 7 -7 8.8 4.6
7 -7 7 3 2.9
7 -7 7 6.1 2.8
7 -7 7 2.5 2.4
-8 7 -7 26.8 7.7
-8 7 -7 39.8 6.7
8 -7 7 35.2 5.3
-5 -6 7 114.99 13.5
-5 -6 7 106.29 11.4
4 6 -7 49.8 16.1
4 6 -7 16.1 5.9
4 6 -7 33.7 11.3
-4 -6 7 18.4 7.2
-4 -6 7 27.7 5.2
-4 -6 7 24.1 5.2
3 6 -7 149.59 22.4
3 6 -7 118.69 17.7
-3 -6 7 118.39 12.4
-3 -6 7 107.59 12.9
-3 -6 7 93.39 12.6
-3 -6 7 71.59 14.5
2 6 -7 122.39 21.1
2 6 -7 172.58 28.1
2 6 -7 112.69 16.7
2 6 -7 130.49 20.3
-2 -6 7 122.69 14.1
-2 -6 7 146.29 16.6
-2 -6 7 126.79 13.8
1 6 -7 354.06 52.69
1 6 -7 428.26 49.2
1 6 -7 451.95 47.9
1 6 -7 415.36 42.6
1 6 -7 365.86 51.29
1 6 -7 507.95 48.2
1 6 -7 410.76 48.4
-1 -6 7 460.15 38.5
-1 -6 7 491.85 47.2
-1 -6 7 469.15 38.3
0 6 -7 1.9 5.3
0 6 -7 3.7 5.5
0 6 -7 -1.1 3.8
0 6 -7 2 3.8
0 6 -7 2.2 3.9
0 6 -7 2.1 7.1
0 6 -7 0.1 4.6
0 6 -7 2.3 4.5
0 6 -7 6.6 9.1
0 6 -7 4.6 6.3
0 6 -7 3.9 3.9
0 -6 7 2.7 3.7
0 -6 7 0.4 2
-1 6 -7 626.54 64.59
-1 6 -7 683.93 63.39
-1 6 -7 767.12 69.49
-1 6 -7 764.92 64.99
-1 6 -7 770.52 63.79
-1 6 -7 777.52 64.79
-1 6 -7 778.62 70.69
-1 6 -7 540.15 72.89
-1 6 -7 622.44 70.89
-2 6 -7 -1.3 4.3
-2 6 -7 0.4 4
-2 6 -7 5 4.1
-2 6 -7 -0.8 4.6
-2 6 -7 2.8 4.9
-2 6 -7 -5.8 5.1
-2 6 -7 -3.3 3.3
-2 6 -7 -3.3 3.3
-2 6 -7 0.6 4.6
-2 6 -7 0.8 4.5
-2 6 -7 0.8 3.6
-2 6 -7 6.4 4.1
2 -6 7 2.4 5.7
-3 6 -7 496.25 48.9
-3 6 -7 509.25 50.39
-3 6 -7 496.15 53.59
-3 6 -7 575.84 53.89
-3 6 -7 429.56 49.8
-3 6 -7 597.04 52.09
-3 6 -7 472.25 53.09
3 -6 7 587.84 50.49
-4 6 -7 62.69 13.3
-4 6 -7 66.19 12.4
-4 6 -7 38 15.7
-4 6 -7 52.89 13.9
-4 6 -7 71.59 14.1
-4 6 -7 55.19 12.5
-4 6 -7 51.09 16.4
-4 6 -7 57.89 11.1
-4 6 -7 45.4 13
-4 6 -7 50.39 10.8
4 -6 7 43.2 7.5
4 -6 7 51.09 11.7
-5 6 -7 113.99 21.3
-5 6 -7 154.28 22.1
-5 6 -7 159.98 20.4
5 -6 7 127.69 15.6
5 -6 7 126.19 20.4
5 -6 7 107.69 17.9
5 -6 7 124.29 14.3
-6 6 -7 3.1 5.2
-6 6 -7 3.5 5.3
-6 6 -7 5.8 3.8
-6 6 -7 22.3 15
-6 6 -7 -2.9 8.1
6 -6 7 3.6 2.6
6 -6 7 3.3 4.9
6 -6 7 -2.8 3.9
6 -6 7 8.6 3.1
-7 6 -7 -2.7 6.4
-7 6 -7 -1.8 3
-7 6 -7 -0.7 3.1
-7 6 -7 6.4 5.9
7 -6 7 6.7 3
7 -6 7 -3 5.8
7 -6 7 -0.9 2.1
-8 6 -7 6.7 4.3
-8 6 -7 1.7 3
-8 6 -7 17.4 8.7
8 -6 7 9.1 2.4
8 -6 7 5.3 2.4
8 -6 7 4.9 3.2
-6 -5 7 52.99 6.8
-6 -5 7 76.89 10.9
-6 -5 7 63.59 7.5
5 5 -7 40.7 11.6
5 5 -7 57.49 16.4
5 5 -7 27.9 6.2
-5 -5 7 37.3 5.9
-5 -5 7 43.4 6.9
-5 -5 7 36.1 6.8
-5 -5 7 41.9 12.5
4 5 -7 838.42 64.79
4 5 -7 654.73 66.29
-4 -5 7 754.62 63.59
-4 -5 7 717.53 65.89
-4 -5 7 773.72 64.39
-4 -5 7 772.72 63.59
-4 -5 7 747.83 65.49
3 5 -7 7.9 7.7
3 5 -7 34.4 14.5
3 5 -7 22.3 8.4
3 5 -7 27.2 8.8
3 5 -7 35.2 11.1
3 5 -7 22 7.2
3 5 -7 24.2 17
-3 -5 7 16.1 5.3
-3 -5 7 8.7 8
-3 -5 7 17.2 4.6
-3 -5 7 9.1 4.6
-3 -5 7 15.9 4
2 5 -7 2831.42 243.28
2 5 -7 2920.21 248.08
2 5 -7 2794.62 254.27
2 5 -7 2762.12 239.18
-2 -5 7 2921.41 236.08
-2 -5 7 3160.28 233.68
-2 -5 7 3048.9 233.98
1 5 -7 3.5 7.2
1 5 -7 5.7 5.6
1 5 -7 21.9 10.8
1 5 -7 7 6.9
1 5 -7 20.4 8.6
1 5 -7 9.9 5.7
1 5 -7 1.2 4.4
1 5 -7 11.1 9.2
1 5 -7 17.7 8.3
-1 -5 7 13.1 3.1
-1 -5 7 11.7 9.1
-1 -5 7 19.1 4.8
0 5 -7 1140.89 92.09
0 5 -7 1200.58 96.49
0 5 -7 926.81 90.99
0 5 -7 927.01 94.29
0 5 -7 1155.78 91.69
0 5 -7 965.6 90.39
0 5 -7 948.01 101.49
0 -5 7 1173.58 84.69
-1 5 -7 28.3 8.4
-1 5 -7 13.1 7
-1 5 -7 16.8 7.4
-1 5 -7 7.2 8.5
-1 5 -7 15.9 7.7
-1 5 -7 35.1 11
-1 5 -7 10.6 7.1
-1 5 -7 17.4 6.7
-1 5 -7 24.1 7
-1 5 -7 16.8 6.4
-1 5 -7 14.7 6.5
-1 5 -7 21.5 6.9
1 -5 7 37.9 11
1 -5 7 15.3 4.3
1 -5 7 16.1 4.1
1 -5 7 26.3 7.4
-2 5 -7 1040.6 83.49
-2 5 -7 944.21 82.69
-2 5 -7 915.11 89.29
-2 5 -7 841.82 82.89
-2 5 -7 972.1 82.29
-2 5 -7 1102.19 82.79
-2 5 -7 1043.2 99.19
-2 5 -7 808.42 81.69
-2 5 -7 818.52 83.39
-2 5 -7 1012.3 84.29
2 -5 7 872.71 78.59
-3 5 -7 1533.05 135.79
-3 5 -7 1768.72 133.49
-3 5 -7 1552.64 135.29
-3 5 -7 1770.82 135.39
-3 5 -7 1682.73 134.99
-3 5 -7 1513.35 135.59
-3 5 -7 1501.65 134.59
3 -5 7 1607.04 127.99
3 -5 7 1456.65 132.79
3 -5 7 1549.14 135.49
-4 5 -7 117.89 28.5
-4 5 -7 196.78 25.9
-4 5 -7 188.88 23.9
-4 5 -7 193.28 30.4
-4 5 -7 202.48 24.8
-4 5 -7 180.88 22.5
-4 5 -7 204.08 31.7
-4 5 -7 214.08 25.5
4 -5 7 148.19 21.3
-5 5 -7 1078.49 84.79
-5 5 -7 1000.1 86.29
5 -5 7 785.42 77.59
5 -5 7 961.4 78.09
5 -5 7 839.52 82.29
-6 5 -7 14.7 9.8
-6 5 -7 49.3 13.6
-6 5 -7 40.2 12.3
-6 5 -7 31 10.4
-6 5 -7 27 13.9
-6 5 -7 10 9.8
6 -5 7 50.59 8
6 -5 7 34.8 6.5
6 -5 7 24.9 6.3
-7 5 -7 131.49 21.2
-7 5 -7 158.98 22.2
-7 5 -7 119.59 23
-7 5 -7 166.68 19.9
7 -5 7 135.79 16.2
7 -5 7 197.48 25.5
7 -5 7 177.88 17.8
-8 5 -7 7.2 5.8
-8 5 -7 1.9 4
8 -5 7 7.3 2.6
8 -5 7 3.6 3
8 -5 7 9.6 4.1
-7 -4 7 85.19 9.2
-7 -4 7 63.49 7.8
6 4 -7 25.9 6.8
6 4 -7 31.5 11.3
6 4 -7 32.6 6.9
-6 -4 7 42.1 13.3
-6 -4 7 20.5 5
-6 -4 7 17.2 4.2
-6 -4 7 27.7 5.4
5 4 -7 775.82 63.79
-5 -4 7 603.54 54.99
-5 -4 7 596.14 55.59
-5 -4 7 661.03 55.39
-5 -4 7 632.64 57.69
4 4 -7 76.09 16.6
4 4 -7 70.49 14
4 4 -7 66.89 22.5
-4 -4 7 44.1 9.3
-4 -4 7 51.69 7.4
-4 -4 7 54.59 8.1
-4 -4 7 48.6 8.4
-4 -4 7 41 8.2
3 4 -7 912.21 81.39
3 4 -7 709.83 76.39
3 4 -7 851.61 77.99
3 4 -7 892.21 80.19
-3 -4 7 911.51 74.19
-3 -4 7 830.92 71.89
-3 -4 7 924.41 72.59
-3 -4 7 903.71 71.89
2 4 -7 378.16 54.79
2 4 -7 534.55 47.8
2 4 -7 506.35 49.8
2 4 -7 519.75 52.89
2 4 -7 471.95 48.5
2 4 -7 563.74 50.99
2 4 -7 401.26 48.5
-2 -4 7 481.25 46
-2 -4 7 554.44 48.6
-2 -4 7 498.35 44.8
1 4 -7 3455.85 319.77
1 4 -7 4376.76 311.57
1 4 -7 4094.39 314.17
1 4 -7 3450.35 309.67
1 4 -7 3850.61 311.47
1 4 -7 3390.76 314.27
-1 -4 7 4345.27 305.07
-1 -4 7 3484.65 305.97
-1 -4 7 4171.58 306.27
0 4 -7 2359.96 217.18
0 4 -7 2597.54 217.48
0 4 -7 2981 223.58
0 4 -7 2705.13 217.88
0 -4 7 2418.86 217.08
0 -4 7 2957.8 214.58
0 -4 7 2694.13 213.78
-1 4 -7 4298.97 357.06
-1 4 -7 4762.12 358.36
-1 4 -7 4898.91 357.96
-1 4 -7 4036 358.76
-1 4 -7 4436.26 363.76
-1 4 -7 4119.39 357.96
-1 4 -7 4083.29 357.06
1 -4 7 4949.5 355.56
-2 4 -7 2142.19 165.98
-2 4 -7 1741.43 166.18
-2 4 -7 2019 184.78
-2 4 -7 2257.67 167.98
-2 4 -7 1964.7 166.38
-2 4 -7 2117.29 181.78
-2 4 -7 1731.43 168.68
2 -4 7 2151.08 164.18
2 -4 7 2035 163.38
2 -4 7 1901.91 164.38
-3 4 -7 434.36 42.3
-3 4 -7 461.75 41.9
-3 4 -7 376.96 45.2
-3 4 -7 410.76 41.6
-3 4 -7 375.06 40.6
-3 4 -7 503.05 42.5
-3 4 -7 405.56 51.39
-3 4 -7 471.35 43
3 -4 7 434.06 40.6
3 -4 7 353.76 38.9
-4 4 -7 384.56 57.49
-4 4 -7 510.15 47.6
-4 4 -7 438.86 45.3
-4 4 -7 544.55 47.2
-4 4 -7 566.24 48.8
-4 4 -7 393.16 46
4 -4 7 496.15 41.2
4 -4 7 418.36 40.9
4 -4 7 437.16 44.6
-5 4 -7 104.09 16.4
-5 4 -7 101.29 15.6
-5 4 -7 84.39 13.6
-5 4 -7 86.69 23.9
-5 4 -7 56.19 13.9
-5 4 -7 69.89 15.5
-5 4 -7 68.69 19.9
-5 4 -7 53.09 12.2
5 -4 7 86.49 14.2
5 -4 7 75.49 10.7
5 -4 7 102.19 15.9
5 -4 7 64.89 13.7
-6 4 -7 845.02 76.69
-6 4 -7 730.73 76.59
6 -4 7 899.01 72.99
6 -4 7 876.71 79.89
6 -4 7 889.51 71.79
6 -4 7 801.12 80.29
-7 4 -7 12.8 7.8
-7 4 -7 21 6.5
-7 4 -7 27 9.3
-7 4 -7 23.5 8.3
7 -4 7 35.3 6.5
7 -4 7 24.1 6.4
7 -4 7 35.6 12.2
7 -4 7 32.2 6.1
7 -4 7 26 6
-8 4 -7 79.79 12.4
8 -4 7 85.89 8.8
8 -4 7 70.09 9.5
8 -4 7 88.69 10.7
8 -4 7 61.49 9
7 3 -7 74.29 11.4
7 3 -7 72.49 13.9
-7 -3 7 50.89 8.8
-7 -3 7 57.29 7.2
6 3 -7 14.7 6.9
6 3 -7 19.2 6.3
6 3 -7 21.6 10.9
-6 -3 7 20.6 6
-6 -3 7 9.3 3.8
-6 -3 7 10.5 3.5
-6 -3 7 6.3 3.4
5 3 -7 37.2 10
5 3 -7 27.6 14.5
5 3 -7 54.09 12.4
5 3 -7 21.5 7.6
-5 -3 7 41.3 7.1
-5 -3 7 47.8 8.6
-5 -3 7 44.4 8.4
-5 -3 7 34.3 6.2
-5 -3 7 39 7.3
4 3 -7 128.49 18.8
4 3 -7 75.59 24.7
4 3 -7 108.29 16.7
4 3 -7 117.89 21.5
4 3 -7 113.79 16.8
4 3 -7 154.08 19.8
4 3 -7 96.59 16.6
-4 -3 7 116.49 12.6
-4 -3 7 96.89 15.1
-4 -3 7 114.49 13
-4 -3 7 104.99 12.1
3 3 -7 51.89 10.4
3 3 -7 44.2 11.7
3 3 -7 30.8 15.6
3 3 -7 41 9.8
3 3 -7 32.6 15.7
3 3 -7 34 10.1
3 3 -7 31.1 9.8
3 3 -7 50.89 11
-3 -3 7 36.1 6.5
-3 -3 7 44.6 5.9
-3 -3 7 46.4 6.4
2 3 -7 137.69 17.9
2 3 -7 118.49 15.3
2 3 -7 98.59 15.8
2 3 -7 123.19 19.6
2 3 -7 104.69 21.1
-2 -3 7 108.99 15.4
-2 -3 7 117.89 12.5
-2 -3 7 127.09 11.6
-2 -3 7 116.29 12.6
-2 -3 7 102.99 11.3
1 3 -7 7.8 8.8
1 3 -7 1.8 3.2
1 3 -7 1.2 7.1
1 3 -7 -0.2 3.2
1 3 -7 3.2 3.5
-1 -3 7 4.3 3.1
-1 -3 7 1.2 2.1
-1 -3 7 1.9 2
0 3 -7 703.43 71.89
0 -3 7 867.81 66.69
0 -3 7 908.01 69.39
-1 3 -7 170.98 18.5
1 -3 7 140.89 11.4
1 -3 7 116.69 13.3
1 -3 7 150.68 12.8
1 -3 7 116.59 14.3
-2 3 -7 43.7 10.5
-2 3 -7 57.79 16.2
-2 3 -7 50.99 10.1
-2 3 -7 47.6 9.9
-2 3 -7 64.19 10
-2 3 -7 62.29 10.4
-2 3 -7 67.39 10.8
-2 3 -7 66.99 11.1
-2 3 -7 60.39 9.9
-2 3 -7 66.59 12.3
2 -3 7 69.69 9.8
2 -3 7 59.59 7
2 -3 7 40.8 7.9
2 -3 7 46.5 8.8
-3 3 -7 6.8 5.3
-3 3 -7 9 4.8
-3 3 -7 5.7 5.5
-3 3 -7 1.3 3.9
-3 3 -7 2.6 6
-3 3 -7 1.7 3.4
-3 3 -7 11.1 5.1
-3 3 -7 3.5 10.5
3 -3 7 2.4 4.4
3 -3 7 12 3.8
3 -3 7 5.1 3.7
3 -3 7 0.7 2
3 -3 7 6.2 4.6
-4 3 -7 37.1 6.3
-4 3 -7 42.8 9
-4 3 -7 36.2 9.9
-4 3 -7 47.7 9.7
-4 3 -7 23.7 8.8
-4 3 -7 28 18.2
-4 3 -7 35.3 8
-4 3 -7 49.2 10
-4 3 -7 47.7 9.4
4 -3 7 51.49 7.8
4 -3 7 54.49 10.9
4 -3 7 58.79 7.8
4 -3 7 38.5 10.6
-5 3 -7 36.5 9.8
-5 3 -7 51.69 10.7
-5 3 -7 37.3 9.2
-5 3 -7 26.4 11.2
-5 3 -7 55.19 11.7
5 -3 7 51.89 10.2
5 -3 7 53.29 11.5
5 -3 7 62.79 12.6
5 -3 7 67.29 8.6
5 -3 7 45.2 8.4
5 -3 7 71.09 9.3
-6 3 -7 6.3 5.7
-6 3 -7 4.2 6.6
-6 3 -7 -0.8 7.1
-6 3 -7 -7.3 8.8
-6 3 -7 -1.4 6.8
6 -3 7 15.3 8.7
6 -3 7 8.5 4
6 -3 7 7.8 4.6
6 -3 7 15 7.6
6 -3 7 3 8.7
-7 3 -7 13.8 6.6
-7 3 -7 20.7 6.2
-7 3 -7 21.3 8.7
-7 3 -7 9.2 7.2
7 -3 7 29.5 5.4
7 -3 7 16.5 8.6
7 -3 7 22.6 6.2
7 -3 7 33.3 5.6
-8 3 -7 32 7.1
8 -3 7 30 4.5
8 -3 7 29.3 5.7
8 2 -7 9.9 6.2
-8 -2 7 8.1 2.7
7 2 -7 80.49 15.4
-7 -2 7 50.09 6.8
-7 -2 7 63.09 7.6
-7 -2 7 47.6 8.1
-7 -2 7 73.09 10.4
6 2 -7 286.17 30
6 2 -7 296.37 31.6
6 2 -7 320.77 34.2
6 2 -7 302.27 36.8
-6 -2 7 248.38 24.8
-6 -2 7 228.18 24.4
-6 -2 7 256.17 26.9
5 2 -7 271.87 35.8
5 2 -7 229.48 28
5 2 -7 217.78 26.3
5 2 -7 251.37 29.3
5 2 -7 260.37 30.4
-5 -2 7 254.07 23.2
-5 -2 7 230.18 23.4
-5 -2 7 211.48 23.8
-5 -2 7 231.38 22.3
-5 -2 7 228.08 22.4
4 2 -7 244.68 31
4 2 -7 177.08 23.4
4 2 -7 212.68 25.2
4 2 -7 194.88 26.1
4 2 -7 242.98 26.2
4 2 -7 240.98 26.5
4 2 -7 219.88 32.8
-4 -2 7 239.28 20.5
-4 -2 7 216.78 21.9
-4 -2 7 208.98 20.6
-4 -2 7 209.88 21.8
-4 -2 7 197.18 20.2
3 2 -7 572.74 64.49
3 2 -7 730.73 56.79
3 2 -7 575.94 54.49
3 2 -7 516.85 53.59
3 2 -7 587.44 62.99
3 2 -7 664.03 56.99
3 2 -7 502.05 64.69
-3 -2 7 612.14 50.29
-3 -2 7 653.33 51.79
-3 -2 7 641.24 50.49
-3 -2 7 520.25 51.09
2 2 -7 936.91 82.29
2 2 -7 1031.2 83.79
2 2 -7 964.6 85.49
-2 -2 7 991.4 83.99
-2 -2 7 1015.9 80.79
-2 -2 7 949.31 80.89
-2 -2 7 931.71 78.89
-2 -2 7 963 78.69
1 2 -7 55.59 10.1
1 2 -7 52.99 7.2
-1 -2 7 42.6 7.1
-1 -2 7 47.2 5.6
-1 -2 7 48.2 6.7
0 2 -7 1363.26 109.09
0 -2 7 1376.16 110.69
0 -2 7 1403.26 111.59
0 -2 7 1321.67 108.79
0 -2 7 1293.87 108.19
-1 2 -7 148.99 19.3
-1 2 -7 165.78 15.8
1 -2 7 197.18 19.1
1 -2 7 168.48 16.2
-2 2 -7 860.41 77.19
-2 2 -7 895.81 74.59
-2 2 -7 903.11 75.99
-2 2 -7 684.73 76.59
-2 2 -7 864.51 70.79
2 -2 7 916.61 75.29
-3 2 -7 -1.7 4.3
-3 2 -7 -1.8 8.9
-3 2 -7 2.5 3.9
-3 2 -7 -0.9 3
-3 2 -7 3.6 2.5
-3 2 -7 5.6 4.2
-3 2 -7 12.7 5.7
-3 2 -7 -5.2 8.8
3 -2 7 8.3 4.8
3 -2 7 4.7 7.2
3 -2 7 4.9 4.9
3 -2 7 6.6 3.5
3 -2 7 12.9 4
-4 2 -7 739.43 68.59
-4 2 -7 901.71 70.19
-4 2 -7 864.81 72.49
-4 2 -7 747.83 67.19
-4 2 -7 667.43 70.89
-4 2 -7 734.83 66.99
4 -2 7 675.73 67.19
4 -2 7 872.31 66.89
-5 2 -7 291.17 30.6
-5 2 -7 280.87 38.4
-5 2 -7 273.57 30.8
-5 2 -7 292.17 30.5
-5 2 -7 327.87 37.1
5 -2 7 308.57 30.6
5 -2 7 304.57 29.4
-6 2 -7 115.19 16.7
-6 2 -7 107.39 19
-6 2 -7 112.69 21.1
6 -2 7 127.99 14.2
6 -2 7 123.39 16.2
6 -2 7 136.69 15.5
6 -2 7 150.48 15
6 -2 7 144.79 20
-7 2 -7 33.6 9.5
-7 2 -7 61.59 11.9
-7 2 -7 41.5 8.2
7 -2 7 57.99 7.4
7 -2 7 58.79 9.1
7 -2 7 40.2 7.2
7 -2 7 53.79 7.2
-8 2 -7 43.5 7.8
8 -2 7 42.6 5.6
8 1 -7 20.3 6.7
8 1 -7 7.8 4.8
8 1 -7 14.5 4.7
-8 -1 7 8.5 3.1
-8 -1 7 4.5 2.7
7 1 -7 11.3 5
7 1 -7 8.2 7.6
7 1 -7 13.8 6
-7 -1 7 7.7 3
-7 -1 7 13.8 4.6
-7 -1 7 9.2 3
-7 -1 7 2.6 3.7
6 1 -7 42.8 12.6
6 1 -7 33 10
6 1 -7 42.6 10.6
6 1 -7 56.69 15.5
-6 -1 7 36.1 8
-6 -1 7 33.3 6.4
-6 -1 7 21.4 6.9
-6 -1 7 37.5 5.8
-6 -1 7 28.7 6.3
-6 -1 7 33.3 6.4
5 1 -7 80.99 13.8
5 1 -7 72.89 13.4
5 1 -7 85.39 15.2
5 1 -7 80.39 13
-5 -1 7 84.69 10
-5 -1 7 80.79 9.7
-5 -1 7 80.39 11.1
-5 -1 7 93.39 11.3
-5 -1 7 84.59 10.4
4 1 -7 72.29 15.8
4 1 -7 129.19 23.5
4 1 -7 95.39 14
4 1 -7 91.39 13.7
4 1 -7 77.69 12.7
4 1 -7 81.59 13.2
-4 -1 7 86.59 10.2
-4 -1 7 68.09 10.6
-4 -1 7 76.69 9.6
-4 -1 7 97.69 15.5
-4 -1 7 94.29 9.8
-4 -1 7 76.79 11
-4 -1 7 95.79 11.3
3 1 -7 290.17 30.2
3 1 -7 267.77 34.6
3 1 -7 290.97 29.7
3 1 -7 294.77 34.4
3 1 -7 280.57 30.3
-3 -1 7 296.17 26.4
-3 -1 7 297.97 25.9
-3 -1 7 302.57 27.9
-3 -1 7 308.67 30.6
-3 -1 7 305.07 28.3
2 1 -7 64.99 9.3
2 1 -7 63.99 10.6
-2 -1 7 66.39 7.4
-2 -1 7 55.39 8
-2 -1 7 60.59 8.7
1 1 -7 134.79 14.9
1 1 -7 126.29 17.4
-1 -1 7 139.99 13.3
-1 -1 7 163.08 16.4
-1 -1 7 144.79 13.5
0 1 -7 2.4 2.9
0 1 -7 7.5 3.2
0 -1 7 1.2 2.6
0 -1 7 9.2 3.2
0 -1 7 4 2.5
0 -1 7 5 1.9
0 -1 7 3.4 1.7
0 -1 7 2.1 1.8
-1 1 -7 319.97 26.6
-1 1 -7 279.97 27.7
-1 1 -7 236.78 30.7
1 -1 7 290.57 25.2
1 -1 7 251.17 26.6
1 -1 7 277.07 25.7
1 -1 7 278.97 25.2
-2 1 -7 271.87 28.7
-2 1 -7 261.47 30.6
-2 1 -7 269.87 28
-2 1 -7 285.97 31.3
2 -1 7 295.17 31
2 -1 7 345.67 29.9
2 -1 7 360.96 28.4
-3 1 -7 325.77 31
-3 1 -7 292.97 30.2
-3 1 -7 276.57 31.9
-3 1 -7 308.67 30.1
-3 1 -7 323.97 33.4
-3 1 -7 311.17 30.5
3 -1 7 304.27 28.1
3 -1 7 284.37 32.5
3 -1 7 361.46 29.7
3 -1 7 263.37 29.7
-4 1 -7 248.28 32.8
-4 1 -7 294.47 33.7
-4 1 -7 312.37 45.7
-4 1 -7 251.27 30.6
4 -1 7 317.47 28.9
4 -1 7 327.37 33.5
4 -1 7 335.67 32.9
4 -1 7 326.97 29.8
4 -1 7 354.76 34.9
-5 1 -7 45 14
-5 1 -7 44.3 14
-5 1 -7 38.8 10.8
-5 1 -7 45.3 9.8
5 -1 7 46.8 8.4
5 -1 7 56.29 13
5 -1 7 36.3 7.2
5 -1 7 45.3 9.3
5 -1 7 57.09 11.7
5 -1 7 50.29 7.5
-6 1 -7 145.09 19.5
-6 1 -7 169.68 23.7
6 -1 7 165.68 19.3
6 -1 7 169.98 16.6
6 -1 7 161.18 17.5
6 -1 7 189.48 22.8
6 -1 7 145.89 17
-7 1 -7 -1.9 3.1
-7 1 -7 1.1 3
-7 1 -7 -1.6 2.6
7 -1 7 1.1 2.2
7 -1 7 5.9 3.3
7 -1 7 3.2 2.1
8 0 -7 494.75 44.9
8 0 -7 578.54 47.8
-8 0 7 422.66 39.7
-8 0 7 484.85 46.1
7 0 -7 2.2 4.4
7 0 -7 -6.9 6.8
7 0 -7 4.9 4.1
-7 0 7 3.6 5.4
-7 0 7 1.5 3
-7 0 7 1.3 2.2
-7 0 7 3.2 2.4
-7 0 7 3.2 3.4
6 0 -7 1567.14 134.49
6 0 -7 1543.85 126.29
6 0 -7 1496.15 131.19
-6 0 7 1439.46 124.69
-6 0 7 1605.84 124.99
-6 0 7 1429.16 127.79
-6 0 7 1681.73 127.29
-6 0 7 1622.04 126.19
-6 0 7 1464.65 128.39
5 0 -7 144.19 19.6
5 0 -7 151.98 19.9
5 0 -7 144.99 20.9
5 0 -7 132.89 17.9
5 0 -7 129.19 17.8
5 0 -7 163.48 21.4
-5 0 7 159.78 15.6
-5 0 7 160.98 16.3
-5 0 7 170.58 17.1
-5 0 7 145.59 17.3
-5 0 7 153.88 15.4
4 0 -7 2082.19 172.08
4 0 -7 1896.71 170.18
4 0 -7 2032.3 175.48
4 0 -7 2035.6 171.38
4 0 -7 2087.09 172.48
4 0 -7 1999.7 171.08
-4 0 7 2184.28 169.58
-4 0 7 2173.48 172.88
-4 0 7 2179.58 166.48
-4 0 7 2182.78 169.38
-4 0 7 1894.61 167.28
-4 0 7 2128.39 167.18
3 0 -7 814.32 71.79
3 0 -7 841.82 73.49
3 0 -7 849.91 72.29
3 0 -7 825.42 73.09
-3 0 7 821.02 68.59
-3 0 7 728.33 68.39
-3 0 7 876.31 71.09
-3 0 7 880.31 70.79
-3 0 7 822.42 72.29
2 0 -7 2296.77 176.58
2 0 -7 2135.69 177.48
2 0 -7 2067.29 174.38
2 0 -7 1987.3 175.18
-2 0 7 2006.1 175.08
-2 0 7 2250.67 174.88
-2 0 7 2204.78 172.38
-2 0 7 2306.07 172.98
1 0 -7 1819.32 135.39
1 0 -7 1564.14 135.29
1 0 -7 1574.44 138.09
-1 0 7 1625.84 133.29
-1 0 7 1724.03 136.49
-1 0 7 1599.14 132.99
-1 0 7 1698.23 135.49
0 0 -7 1495.75 122.89
0 0 7 1650.03 125.09
0 0 7 1390.96 120.49
0 0 7 1565.24 123.59
0 0 7 1403.56 120.89
0 0 7 1474.75 121.79
-1 0 -7 1087.59 90.09
-1 0 -7 1068.69 91.89
1 0 7 1091.19 89.49
1 0 7 1218.58 92.49
1 0 7 1057.89 88.49
1 0 7 895.61 89.89
1 0 7 1092.29 88.09
-2 0 -7 817.32 77.59
-2 0 -7 868.41 77.09
-2 0 -7 836.62 76.79
2 0 7 953.8 75.79
2 0 7 890.01 78.99
2 0 7 858.91 77.39
2 0 7 973.5 75.29
2 0 7 987.2 80.09
2 0 7 889.41 79.09
-3 0 -7 559.74 54.69
-3 0 -7 576.54 56.29
-3 0 -7 660.53 56.19
-3 0 -7 567.44 55.09
-3 0 -7 565.24 54.79
3 0 7 678.13 58.59
3 0 7 638.54 52.49
3 0 7 568.24 51.69
3 0 7 519.45 54.19
3 0 7 648.64 56.89
3 0 7 672.43 53.79
-4 0 -7 370.56 38.6
-4 0 -7 319.37 35.5
4 0 7 363.16 38.6
4 0 7 389.16 33.2
4 0 7 333.07 35.2
4 0 7 337.77 37.7
4 0 7 340.27 32.3
4 0 7 410.06 34.6
-5 0 -7 182.88 26.2
5 0 7 167.98 28.3
5 0 7 195.68 18.8
5 0 7 157.68 24.6
5 0 7 192.58 19.7
-6 0 -7 31.3 7.7
-6 0 -7 40.6 10.3
6 0 7 32.3 6.7
6 0 7 49.8 12.6
6 0 7 31.8 5.1
-7 0 -7 54.59 8.3
-7 0 -7 66.59 9.7
7 0 7 67.09 8.8
9 -1 -7 84.89 11.4
-9 1 7 109.39 11.2
8 -1 -7 10.2 5.8
8 -1 -7 14.1 8.7
-8 1 7 4.7 3.7
-8 1 7 11.4 5.2
7 -1 -7 270.97 30
7 -1 -7 238.88 25.3
-7 1 7 228.58 25.8
-7 1 7 282.57 26.2
-7 1 7 268.87 23.7
6 -1 -7 23.6 7.7
6 -1 -7 47.6 11.8
6 -1 -7 69.39 14.7
-6 1 7 35 6.6
-6 1 7 42.1 9
-6 1 7 48.4 7.5
-6 1 7 35 7.9
-6 1 7 45.6 8.6
-6 1 7 41.2 6.4
5 -1 -7 503.95 54.09
5 -1 -7 543.55 55.19
5 -1 -7 604.14 56.59
5 -1 -7 624.44 58.39
5 -1 -7 620.54 58.49
5 -1 -7 622.94 57.09
-5 1 7 585.14 50.49
-5 1 7 585.64 53.89
-5 1 7 609.24 52.99
-5 1 7 634.64 50.79
-5 1 7 586.34 51.39
-5 1 7 651.63 53.69
4 -1 -7 926.51 76.49
4 -1 -7 942.61 76.99
4 -1 -7 884.51 78.29
4 -1 -7 872.21 78.69
4 -1 -7 825.32 76.59
4 -1 -7 948.31 78.79
-4 1 7 868.01 75.79
-4 1 7 907.91 76.59
-4 1 7 871.31 73.89
-4 1 7 877.31 76.29
-4 1 7 859.41 84.49
-4 1 7 873.81 73.29
3 -1 -7 285.97 29.3
3 -1 -7 273.97 29.2
3 -1 -7 298.87 27.5
3 -1 -7 333.47 28.9
3 -1 -7 290.57 29.8
-3 1 7 264.87 25.9
-3 1 7 261.87 28.5
-3 1 7 280.17 28
2 -1 -7 4482.45 385.66
2 -1 -7 5586.24 384.56
2 -1 -7 5649.63 388.56
2 -1 -7 4214.68 385.26
-2 1 7 4607.24 382.86
-2 1 7 4692.13 384.86
-2 1 7 4771.52 386.56
-2 1 7 4616.74 382.26
1 -1 -7 123.09 15.8
1 -1 -7 102.79 14.2
-1 1 7 143.89 13.2
-1 1 7 102.49 11.8
-1 1 7 108.99 13.9
-1 1 7 107.09 14.4
0 -1 -7 3142.09 274.87
0 -1 -7 3529.05 275.77
0 1 7 3506.25 276.97
0 1 7 3668.23 276.07
0 1 7 3513.75 272.77
0 1 7 3146.69 274.27
0 1 7 3415.86 273.27
-1 -1 -7 36.2 7.3
-1 -1 -7 36.8 14.6
-1 -1 -7 15.3 9
-1 -1 -7 23.4 5.9
-1 -1 -7 12 6
-1 -1 -7 34.7 7.2
1 1 7 18.2 7.6
1 1 7 19.3 5.4
1 1 7 26.1 6.9
1 1 7 18.1 5.6
1 1 7 29.2 7.9
1 1 7 31.6 5.7
1 1 7 24.8 6.7
1 1 7 27.5 7.8
-2 -1 -7 1320.17 112.79
-2 -1 -7 1476.55 113.39
-2 -1 -7 1232.58 110.79
-2 -1 -7 1383.26 113.59
-2 -1 -7 1377.36 112.19
2 1 7 1309.57 114.39
2 1 7 1473.25 110.39
2 1 7 1240.68 109.19
2 1 7 1303.47 113.59
2 1 7 1164.18 114.29
2 1 7 1333.47 112.39
2 1 7 1370.46 110.99
-3 -1 -7 384.66 40.3
-3 -1 -7 440.46 40.5
-3 -1 -7 358.16 38.3
-3 -1 -7 373.16 39.1
-3 -1 -7 476.15 49.6
3 1 7 328.47 39
3 1 7 393.56 37.1
3 1 7 436.36 36.5
3 1 7 400.36 41
3 1 7 365.96 35.4
3 1 7 378.96 38.4
3 1 7 434.46 42.8
-4 -1 -7 164.78 22.7
-4 -1 -7 154.58 20
-4 -1 -7 152.08 21
-4 -1 -7 162.48 22
4 1 7 140.79 15.9
4 1 7 149.59 22.4
4 1 7 160.68 16.3
4 1 7 136.69 17.2
4 1 7 170.28 22.3
4 1 7 113.69 18.8
4 1 7 167.88 19.5
-5 -1 -7 251.67 31.2
-5 -1 -7 305.87 31.2
5 1 7 314.17 29.5
5 1 7 328.07 33
5 1 7 235.58 29.3
5 1 7 236.98 25.2
5 1 7 316.67 25.9
-6 -1 -7 15 6.1
-6 -1 -7 17 5.5
6 1 7 15.2 2.8
6 1 7 15 4.4
9 -2 -7 13.6 4.5
9 -2 -7 12.2 5.1
-9 2 7 7.8 3.4
-9 2 7 6.2 2.9
8 -2 -7 2.2 4.3
8 -2 -7 -3.8 3.7
-8 2 7 2.1 3
-8 2 7 -1.2 2.9
7 -2 -7 356.46 38.4
7 -2 -7 377.16 34.9
-7 2 7 386.96 35.3
-7 2 7 377.96 34.4
-7 2 7 346.07 31.6
6 -2 -7 44.9 11.9
6 -2 -7 44.6 10.9
6 -2 -7 32.9 9.4
6 -2 -7 53.49 15.8
6 -2 -7 56.99 10.6
-6 2 7 49.6 7.6
-6 2 7 38.7 8.7
-6 2 7 57.39 9.4
-6 2 7 42.4 6.4
-6 2 7 38.5 8.4
5 -2 -7 2517.95 214.48
5 -2 -7 2624.94 216.08
5 -2 -7 2699.63 212.88
5 -2 -7 2900.61 214.28
5 -2 -7 2688.63 218.08
-5 2 7 2499.35 213.58
-5 2 7 2555.14 209.08
-5 2 7 2497.75 210.08
-5 2 7 2639.44 209.38
-5 2 7 2537.25 210.78
4 -2 -7 4.5 5
4 -2 -7 6 3.9
4 -2 -7 -2.1 3.4
4 -2 -7 -2.3 3.9
4 -2 -7 7.8 5.5
4 -2 -7 6.3 4.1
-4 2 7 8.7 6.3
-4 2 7 3 2.2
-4 2 7 -1.6 4
-4 2 7 2.9 2.1
3 -2 -7 561.54 50.19
3 -2 -7 595.34 53.19
3 -2 -7 666.43 49.8
3 -2 -7 589.84 51.99
3 -2 -7 644.84 52.69
-3 2 7 480.05 46.8
-3 2 7 510.45 47.8
-3 2 7 517.25 49.3
-3 2 7 537.75 50.49
-3 2 7 543.25 50.79
-3 2 7 523.75 48.7
-3 2 7 557.34 47.3
2 -2 -7 8.8 3.8
2 -2 -7 7.1 4.9
2 -2 -7 12.3 5.5
2 -2 -7 12.5 4.5
2 -2 -7 9.1 4
2 -2 -7 10.5 4.3
-2 2 7 8.9 4.5
-2 2 7 6.6 3
-2 2 7 10.1 3.9
-2 2 7 7.1 4.6
-2 2 7 9.7 3.1
-2 2 7 6.7 3.1
1 -2 -7 2.2 3.4
1 -2 -7 0 2
1 -2 -7 5.9 4.1
1 -2 -7 8.9 4.1
1 -2 -7 10 4.3
1 -2 -7 4.2 5.1
-1 2 7 6.9 3.7
-1 2 7 -1.7 2.1
-1 2 7 6.4 3.1
-1 2 7 0 4
-1 2 7 2.4 2.3
0 -2 -7 439.46 39
0 -2 -7 406.36 38.5
0 -2 -7 496.95 38.7
0 -2 -7 401.76 39.9
0 -2 -7 363.56 38.4
0 2 7 420.26 38.4
0 2 7 453.65 41
0 2 7 374.46 36.9
0 2 7 399.66 41
0 2 7 387.76 40.2
0 2 7 406.96 40.1
0 2 7 441.86 37.9
0 2 7 441.86 39.4
-1 -2 -7 19.1 6.9
-1 -2 -7 15.6 6.7
-1 -2 -7 10.4 4.5
-1 -2 -7 16.8 6.3
-1 -2 -7 18 7.3
-1 -2 -7 22.5 6.3
-1 -2 -7 12.8 5.4
1 2 7 21.9 8.4
1 2 7 10.6 3.7
1 2 7 13.5 6.1
1 2 7 10.4 5.3
1 2 7 26.6 8.2
1 2 7 13.2 4.2
1 2 7 6.1 3.6
-2 -2 -7 289.17 29
-2 -2 -7 260.67 29.6
-2 -2 -7 285.47 30.5
-2 -2 -7 275.87 28.7
-2 -2 -7 280.27 30.7
2 2 7 272.67 26.5
2 2 7 274.07 31.1
2 2 7 275.27 29.2
2 2 7 248.98 30.4
2 2 7 265.67 26.8
2 2 7 284.27 31.4
2 2 7 270.67 32
2 2 7 266.87 27.7
-3 -2 -7 48.9 11.2
-3 -2 -7 55.09 11.5
-3 -2 -7 50.09 11.9
-3 -2 -7 56.59 10.8
-3 -2 -7 61.99 11.7
3 2 7 35.4 9.8
3 2 7 69.29 12.7
3 2 7 52.69 9.8
3 2 7 66.59 11.3
3 2 7 43.1 7.8
3 2 7 57.09 12.3
3 2 7 64.79 13.9
3 2 7 55.39 8.5
-4 -2 -7 27.4 8.9
-4 -2 -7 27.4 9
-4 -2 -7 22.7 7.8
4 2 7 30 7.5
4 2 7 30.9 9.7
4 2 7 16.2 7.2
4 2 7 28.6 5.7
4 2 7 26 6.6
-5 -2 -7 156.08 19.3
-5 -2 -7 182.48 19.4
-5 -2 -7 130.89 19.4
5 2 7 152.38 17
5 2 7 136.89 17.7
5 2 7 164.08 13.8
-6 -2 -7 0.5 1.8
-6 -2 -7 2.5 3.8
-6 -2 -7 -3.8 2.2
6 2 7 0.8 2.5
9 -3 -7 0.9 2.8
-9 3 7 7.2 2.7
8 -3 -7 207.08 20.9
8 -3 -7 228.18 26.7
-8 3 7 212.58 22.2
7 -3 -7 68.59 12.7
7 -3 -7 119.99 17.2
7 -3 -7 80.29 13
-7 3 7 96.09 12.7
-7 3 7 91.79 12.2
6 -3 -7 3854.11 308.57
6 -3 -7 3852.81 317.57
6 -3 -7 3760.42 312.47
6 -3 -7 3907.11 309.67
-6 3 7 3622.94 310.07
-6 3 7 3850.11 304.47
-6 3 7 3851.31 306.77
-6 3 7 3947.9 307.87
5 -3 -7 383.56 49.7
5 -3 -7 485.35 42.2
5 -3 -7 478.05 42
5 -3 -7 471.15 44.9
5 -3 -7 474.35 47.9
5 -3 -7 446.86 40.4
-5 3 7 397.76 39.8
-5 3 7 433.46 42.2
-5 3 7 420.26 37.4
-5 3 7 407.26 39.1
-5 3 7 360.76 38
4 -3 -7 8290.17 589.34
4 -3 -7 7304.27 591.24
4 -3 -7 8272.37 586.04
-4 3 7 7072.79 588.04
-4 3 7 6992.6 582.84
-4 3 7 6296.67 584.34
3 -3 -7 255.87 28.5
3 -3 -7 287.87 26.7
3 -3 -7 268.27 29.4
3 -3 -7 259.77 24
3 -3 -7 232.28 26.5
3 -3 -7 304.37 26.8
3 -3 -7 286.77 31.2
3 -3 -7 276.37 28.8
-3 3 7 236.98 25.5
-3 3 7 252.47 28.1
-3 3 7 231.78 26
-3 3 7 252.97 24.2
-3 3 7 243.98 24.1
2 -3 -7 4216.08 358.56
2 -3 -7 4797.72 355.86
2 -3 -7 4063.49 355.66
2 -3 -7 5017.5 359.86
2 -3 -7 4427.36 352.06
2 -3 -7 5122.19 359.86
2 -3 -7 4763.02 355.36
2 -3 -7 4207.48 357.56
-2 3 7 4466.05 358.96
-2 3 7 4258.57 355.16
-2 3 7 4512.25 359.26
-2 3 7 4064.69 353.26
-2 3 7 3875.81 355.26
1 -3 -7 7.2 5.1
1 -3 -7 4.7 4.8
1 -3 -7 14.7 6.4
1 -3 -7 19.6 5.8
1 -3 -7 -2.3 3.4
1 -3 -7 -0.3 5.6
-1 3 7 -0.1 3.3
-1 3 7 6 3.7
-1 3 7 8.5 5.4
-1 3 7 2.3 3.8
-1 3 7 -1.2 3.3
-1 3 7 3.1 4
-1 3 7 10.6 8.2
0 -3 -7 3365.66 293.47
0 -3 -7 3682.83 291.87
0 -3 -7 3635.54 290.27
0 -3 -7 3444.56 296.87
0 3 7 3605.34 292.17
0 3 7 3790.42 289.57
0 3 7 3671.43 295.27
-1 -3 -7 614.94 56.59
-1 -3 -7 535.15 51.79
-1 -3 -7 537.35 51.59
-1 -3 -7 575.54 53.99
1 3 7 549.35 52.39
1 3 7 557.44 50.19
1 3 7 590.34 50.89
1 3 7 512.35 54.69
1 3 7 575.24 53.59
1 3 7 616.94 57.39
-2 -3 -7 908.51 85.89
-2 -3 -7 935.31 83.29
-2 -3 -7 909.71 80.89
-2 -3 -7 993.8 82.49
2 3 7 962.2 82.09
2 3 7 997.3 78.69
2 3 7 809.52 81.79
2 3 7 957.8 86.89
-3 -3 -7 67.69 11.9
-3 -3 -7 73.89 13.2
-3 -3 -7 53.79 11
3 3 7 60.69 12.1
3 3 7 73.79 14.1
3 3 7 71.49 9
3 3 7 79.49 11.7
-4 -3 -7 278.77 29.3
-4 -3 -7 261.57 26.3
-4 -3 -7 298.37 27.1
4 3 7 281.17 27.1
4 3 7 249.97 29.2
-5 -3 -7 6.6 2.5
-5 -3 -7 5.8 3.6
-5 -3 -7 1.4 2.4
5 3 7 9.7 3.7
5 3 7 12.1 3.4
9 -4 -7 12.8 3.7
-9 4 7 10.8 3
8 -4 -7 95.19 14.2
8 -4 -7 97.29 11.5
-8 4 7 96.79 12.2
-8 4 7 95.99 10.9
7 -4 -7 58.69 11.8
7 -4 -7 61.09 10
7 -4 -7 46.1 11
-7 4 7 76.19 10.3
-7 4 7 56.89 8.8
6 -4 -7 11.7 6.4
6 -4 -7 7.2 7.1
6 -4 -7 8.5 7
-6 4 7 9.2 4.7
-6 4 7 8.1 5.7
-6 4 7 6.8 4.7
5 -4 -7 47.5 7.8
5 -4 -7 21.7 7.8
5 -4 -7 53.59 10.3
5 -4 -7 56.99 10
5 -4 -7 61.79 10
5 -4 -7 50.89 12.1
-5 4 7 31.3 7.5
-5 4 7 34.4 10.1
-5 4 7 37.5 8.3
-5 4 7 40.7 7.5
4 -4 -7 0.7 4.8
4 -4 -7 11.2 12.8
4 -4 -7 3.7 4.9
4 -4 -7 3.4 3.6
4 -4 -7 7.1 4.3
4 -4 -7 8.1 4.9
4 -4 -7 1 3.8
-4 4 7 3.4 4.4
-4 4 7 0.1 3.9
-4 4 7 3.9 3.7
-4 4 7 4.3 3.5
3 -4 -7 1378.16 110.09
3 -4 -7 1402.76 106.49
3 -4 -7 1251.67 109.99
3 -4 -7 1329.77 112.49
3 -4 -7 1250.57 114.39
3 -4 -7 1377.76 116.29
3 -4 -7 1290.47 116.39
-3 4 7 1350.16 114.39
-3 4 7 1227.08 109.59
-3 4 7 1210.58 108.89
2 -4 -7 513.25 48.3
2 -4 -7 471.65 50.19
2 -4 -7 451.75 45.5
2 -4 -7 486.25 47.2
2 -4 -7 486.15 42.1
2 -4 -7 416.36 49.8
2 -4 -7 513.25 44.7
-2 4 7 487.05 49.9
-2 4 7 501.85 45.5
-2 4 7 501.25 46.2
-2 4 7 536.85 44.1
-2 4 7 476.75 43.8
1 -4 -7 1110.49 92.39
1 -4 -7 1031.2 96.59
1 -4 -7 1138.09 101.99
1 -4 -7 1083.49 98.59
-1 4 7 1196.48 97.59
-1 4 7 1218.88 95.69
-1 4 7 1184.18 98.49
0 -4 -7 1011.3 88.29
0 -4 -7 978.7 91.39
0 -4 -7 935.41 85.49
0 -4 -7 1101.49 85.59
0 -4 -7 927.31 85.59
0 4 7 1045.3 88.19
0 4 7 928.71 83.69
0 4 7 1055.89 87.29
-1 -4 -7 356.06 36.3
-1 -4 -7 334.07 34.2
-1 -4 -7 339.27 34.7
1 4 7 352.96 32.9
1 4 7 351.46 34.9
1 4 7 323.87 35.4
-2 -4 -7 772.82 65.79
-2 -4 -7 774.12 68.09
2 4 7 784.92 66.19
2 4 7 648.34 65.79
-3 -4 -7 225.58 24.4
-3 -4 -7 163.78 26
3 4 7 224.98 21.8
3 4 7 208.78 24.6
4 4 7 401.56 39.1
4 4 7 458.65 37.2
8 -5 -7 9.9 4
8 -5 -7 -0.1 2.4
-8 5 7 1.9 2.7
7 -5 -7 32.7 7.8
7 -5 -7 39.4 7.6
7 -5 -7 27.8 8.5
-7 5 7 38.3 7.8
6 -5 -7 118.89 15.5
6 -5 -7 142.59 16.3
6 -5 -7 115.99 17.5
-6 5 7 115.29 13.8
-6 5 7 118.09 15
5 -5 -7 15.6 6.5
5 -5 -7 18 7.5
5 -5 -7 6.7 5.7
5 -5 -7 10.7 4
5 -5 -7 22.1 6.6
-5 5 7 7.4 5.6
-5 5 7 14.5 9.8
-5 5 7 14.6 5.5
-5 5 7 16.4 5.8
4 -5 -7 568.74 45.9
4 -5 -7 479.45 48.7
4 -5 -7 519.45 49.6
4 -5 -7 516.25 46.7
4 -5 -7 522.75 47.5
4 -5 -7 520.55 46.9
-4 5 7 428.46 46.1
3 -5 -7 501.25 47.8
3 -5 -7 514.35 47.1
3 -5 -7 523.25 49.8
3 -5 -7 510.05 43.5
3 -5 -7 565.44 48.1
3 -5 -7 514.85 50.19
-3 5 7 521.85 47.4
-3 5 7 520.45 48.2
-3 5 7 439.36 53.69
2 -5 -7 342.07 29.8
2 -5 -7 341.57 35.3
2 -5 -7 296.87 33.2
2 -5 -7 318.47 35.6
2 -5 -7 356.06 33.5
-2 5 7 350.76 33.9
-2 5 7 351.66 34.7
1 -5 -7 227.58 30.4
1 -5 -7 286.47 31.4
1 -5 -7 278.97 28.4
1 -5 -7 242.28 29.2
-1 5 7 280.57 28.9
-1 5 7 269.87 29.3
0 -5 -7 145.49 20.5
0 -5 -7 157.08 19.4
0 5 7 180.38 20.9
0 5 7 171.98 20.7
-1 -5 -7 107.89 15.5
-1 -5 -7 96.49 13.8
1 5 7 110.09 14.3
1 5 7 94.69 14.3
-2 -5 -7 49.99 11.3
-2 -5 -7 53.69 11.8
2 5 7 51.79 12.3
-3 -5 -7 8.2 4.1
-3 -5 -7 6.1 3.5
3 5 7 5.4 2.9
3 5 7 1.3 2.4
8 -6 -7 4.5 3.8
8 -6 -7 2 2.3
-8 6 7 1 2.4
-8 6 7 1.8 2.4
7 -6 -7 102.69 14.9
7 -6 -7 137.49 14.6
-7 6 7 132.19 14.7
6 -6 -7 -4 4.2
6 -6 -7 4.8 4.2
-6 6 7 1.7 4
-6 6 7 5.6 4.1
-6 6 7 0.5 3.3
5 -6 -7 140.29 16.8
5 -6 -7 161.88 25.5
5 -6 -7 125.79 17.5
-5 6 7 142.09 16.3
-5 6 7 142.19 15.5
-5 6 7 97.49 19.7
4 -6 -7 82.69 13.4
4 -6 -7 89.19 13.7
4 -6 -7 71.69 14.2
4 -6 -7 93.39 10.1
-4 6 7 103.39 13.3
-4 6 7 90.69 13.2
3 -6 -7 154.88 19.3
3 -6 -7 177.18 20.9
3 -6 -7 183.08 20.6
3 -6 -7 155.28 15.5
-3 6 7 154.98 19.4
2 -6 -7 60.79 11.4
2 -6 -7 62.69 10.7
2 -6 -7 64.69 11.9
-2 6 7 51.59 10.6
-2 6 7 65.79 11.5
1 -6 -7 163.08 20.2
1 -6 -7 223.68 23.5
-1 6 7 196.98 21.7
-1 6 7 173.98 21.2
0 -6 -7 1.5 3.2
0 6 7 6.9 4.1
0 6 7 -1.9 4.7
-1 -6 -7 48.4 7.8
-1 -6 -7 54.69 8.9
1 6 7 38.1 7.5
1 6 7 39.2 7.6
-2 -6 -7 3.6 3.2
-2 -6 -7 1.9 3.8
2 6 7 0.7 2.2
-7 7 7 8.9 5
-7 7 7 8.7 3.4
6 -7 -7 13.8 4.2
6 -7 -7 0.5 4.1
-6 7 7 0.7 3.8
-6 7 7 7.4 3.8
-6 7 7 10.1 4.2
5 -7 -7 28.4 6.2
-5 7 7 16.4 4.7
-5 7 7 30.3 6.9
-5 7 7 8.1 5.4
4 -7 -7 97.09 17.1
4 -7 -7 98.59 14.5
-4 7 7 99.69 16.7
-4 7 7 95.89 17.1
3 -7 -7 8.4 4.7
3 -7 -7 30.5 7.2
-3 7 7 8.6 7
-3 7 7 19.4 6.4
2 -7 -7 156.08 17.8
2 -7 -7 150.68 17.9
-2 7 7 103.29 16.4
1 -7 -7 27.2 9.8
1 -7 -7 18.5 5.1
-1 7 7 18.6 5.5
0 -7 -7 111.99 13.5
0 -7 -7 105.79 12.7
0 7 7 88.19 11.6
5 -8 -7 160.08 15.8
-5 8 7 139.09 16.1
-5 8 7 196.48 17.6
3 -8 -7 174.58 16.9
-3 8 7 136.19 16.2
-3 8 7 155.28 20.9
-1 10 -8 32.8 9.2
-1 10 -8 44.3 9.1
-2 10 -8 111.19 16.8
-2 10 -8 110.69 18
-4 10 -8 20.5 5.5
-5 10 -8 3.4 3.3
-5 10 -8 4.8 3.6
1 9 -8 67.79 10.6
-1 -9 8 46 9.1
0 9 -8 39.3 26.2
0 9 -8 20.2 6.2
0 9 -8 49.99 14.5
0 9 -8 9.3 6.3
-1 9 -8 209.08 29.4
-1 9 -8 196.48 33
-2 9 -8 -2.6 4.3
-2 9 -8 0.6 6.5
-2 9 -8 1.3 3.4
-2 9 -8 -3.5 3.4
-3 9 -8 171.38 20.8
-3 9 -8 133.89 20.4
-3 9 -8 183.28 25
-3 9 -8 211.08 22.9
-4 9 -8 17.6 7
-4 9 -8 14.4 6.7
-4 9 -8 33.3 11.9
-4 9 -8 19.9 9.1
-5 9 -8 43.3 12
-5 9 -8 27.3 8
-5 9 -8 39.8 10.3
-6 9 -8 7.2 5
-6 9 -8 6 3.8
-6 9 -8 12 6.1
3 8 -8 -0.2 6.1
-3 -8 8 3.5 2.5
2 8 -8 235.98 24.6
-2 -8 8 253.57 21.2
-2 -8 8 178.78 23.7
-2 -8 8 207.18 23.9
1 8 -8 3.1 9.5
1 8 -8 12.6 10.3
1 8 -8 2 4
-1 -8 8 4 3.6
0 8 -8 481.25 59.39
0 8 -8 599.84 58.19
0 8 -8 689.93 66.39
-1 8 -8 35.6 11.7
-1 8 -8 45.2 16.9
-1 8 -8 35.6 13.6
-1 8 -8 24.4 13.2
-1 8 -8 23.8 9.2
-1 8 -8 16.5 5.7
-2 8 -8 388.06 37.5
-2 8 -8 359.76 42.7
-2 8 -8 369.26 44.1
-2 8 -8 305.17 35.7
-2 8 -8 401.36 37.5
-2 8 -8 387.06 43.9
-2 8 -8 285.97 47.4
-3 8 -8 69.29 15.9
-3 8 -8 81.19 13.7
-3 8 -8 71.19 14.1
-3 8 -8 87.79 13.5
-3 8 -8 61.99 14.4
-3 8 -8 71.09 16.8
-3 8 -8 85.29 14.1
-3 8 -8 82.59 14.6
-4 8 -8 104.79 22.2
-4 8 -8 119.09 18.2
-4 8 -8 144.99 19.2
-4 8 -8 136.89 24.1
-4 8 -8 130.39 18.1
-4 8 -8 118.59 19.1
-5 8 -8 138.19 20.2
-5 8 -8 98.39 16.3
-5 8 -8 118.99 19.2
-6 8 -8 16 6.6
-6 8 -8 35.4 9.8
-6 8 -8 30.1 8.9
-6 8 -8 19.5 10.2
6 -8 8 27.9 6.2
6 -8 8 30.3 5.9
-7 8 -8 43 10.9
-7 8 -8 61.69 9.7
4 7 -8 4.7 6.2
-4 -7 8 0.5 1.5
-4 -7 8 1.2 2
3 7 -8 -3.9 4.5
3 7 -8 4.2 8.3
3 7 -8 5 3.5
-3 -7 8 3.7 2.3
-3 -7 8 4.3 2.3
2 7 -8 43.2 14.1
2 7 -8 22.5 14.1
2 7 -8 21.9 7.6
-2 -7 8 21.7 5.4
-2 -7 8 21.8 8.5
-2 -7 8 31 5.8
1 7 -8 9.4 7.6
1 7 -8 -6.2 9
1 7 -8 6.8 6.8
1 7 -8 10.3 6.4
1 7 -8 16 13.9
1 7 -8 7 4
-1 -7 8 8.1 3.3
-1 -7 8 13.9 4
0 7 -8 11.5 5.5
0 7 -8 9.7 10.8
0 7 -8 41.3 12
0 7 -8 33.9 8.2
0 7 -8 19.9 11.4
0 7 -8 42 15
0 7 -8 19.4 9.4
0 -7 8 22.3 5.4
-1 7 -8 25.2 11.9
-1 7 -8 27.4 9.9
-1 7 -8 36.1 12.4
-1 7 -8 21.1 11
-1 7 -8 19.6 7.6
-1 7 -8 24.8 12.5
-1 7 -8 12.1 6.1
-1 7 -8 20.7 8.4
-1 7 -8 20.7 8.6
-1 7 -8 27.4 9.7
-1 7 -8 39.3 8
-2 7 -8 182.18 23.1
-2 7 -8 161.08 22.4
-2 7 -8 165.18 25.6
-2 7 -8 204.38 23.5
-2 7 -8 197.98 26
-2 7 -8 152.48 24.3
-2 7 -8 198.38 30
-2 7 -8 210.88 36.3
-2 7 -8 158.58 21.4
-2 7 -8 195.38 23
-2 7 -8 199.38 26.5
-3 7 -8 29.7 9.2
-3 7 -8 41.9 10.8
-3 7 -8 19.1 9.9
-3 7 -8 47.3 16.3
-3 7 -8 36.7 11.1
-3 7 -8 40.6 13.3
-3 7 -8 41 9.7
-3 7 -8 33.8 9.7
-3 7 -8 22.7 10.8
-3 7 -8 35.8 9.4
-3 7 -8 24.6 12.2
-3 7 -8 30.3 8.8
-4 7 -8 74.69 14
-4 7 -8 129.29 25
-4 7 -8 130.69 18.1
-4 7 -8 105.69 18.1
-4 7 -8 94.29 20.1
-4 7 -8 112.89 25.3
-4 7 -8 89.39 15.3
-4 7 -8 84.99 16.1
4 -7 8 98.19 11.5
-5 7 -8 71.99 14.1
-5 7 -8 58.99 11.8
-5 7 -8 36.4 10.3
-5 7 -8 65.19 14.6
-5 7 -8 48.8 11.5
5 -7 8 46.1 7.2
5 -7 8 32.7 7.3
-6 7 -8 65.39 13.2
-6 7 -8 115.29 16
-6 7 -8 71.59 14.2
6 -7 8 99.39 11.4
6 -7 8 83.99 10.2
-7 7 -8 1.6 2.9
-7 7 -8 12 6.9
-7 7 -8 7.1 3.8
-7 7 -8 0.3 3.3
7 -7 8 8.1 3.6
7 -7 8 2.9 2.5
-8 7 -8 18.9 4.8
-8 7 -8 15.2 4.2
8 -7 8 21.1 4.1
-5 -6 8 57.39 7
-4 -6 8 224.48 25.9
-4 -6 8 255.57 27.4
-4 -6 8 221.68 23.1
-4 -6 8 267.07 22.8
3 6 -8 176.68 32.6
3 6 -8 89.29 16.4
3 6 -8 109.09 15.6
-3 -6 8 110.69 13
-3 -6 8 107.59 13.9
-3 -6 8 129.29 13.5
2 6 -8 152.88 24
2 6 -8 136.79 20.6
2 6 -8 171.58 24.6
2 6 -8 153.08 19.8
-2 -6 8 144.19 19.7
-2 -6 8 158.68 16.3
-2 -6 8 164.58 16.1
1 6 -8 419.46 48.5
1 6 -8 333.07 51.19
1 6 -8 431.66 43.3
1 6 -8 400.76 44.2
1 6 -8 353.96 45.8
1 6 -8 358.16 39
1 6 -8 398.06 43.7
-1 -6 8 411.46 37.5
-1 -6 8 396.56 34.5
0 6 -8 478.85 48.2
0 6 -8 452.95 48.4
0 6 -8 464.45 59.89
0 6 -8 547.55 54.99
0 6 -8 581.64 54.99
0 6 -8 516.95 53.19
0 6 -8 541.95 49
0 -6 8 472.25 45.9
-1 6 -8 1334.97 102.49
-1 6 -8 1159.78 103.29
-1 6 -8 1227.98 101.79
-1 6 -8 1091.39 105.99
-1 6 -8 976.2 104.89
-1 6 -8 1303.77 106.49
-1 6 -8 1071.19 101.59
-2 6 -8 270.67 29.9
-2 6 -8 284.37 29.5
-2 6 -8 278.57 29.9
-2 6 -8 246.18 28.6
-2 6 -8 257.17 31.3
-2 6 -8 331.37 45.4
-2 6 -8 241.28 30.8
-2 6 -8 316.87 36.1
-2 6 -8 261.97 36.1
-2 6 -8 243.18 29.2
-2 6 -8 229.48 31.2
-3 6 -8 392.96 45.2
-3 6 -8 510.95 49.1
-3 6 -8 520.75 48.9
-3 6 -8 514.75 47.2
-3 6 -8 398.56 54.89
-3 6 -8 476.05 47.5
-3 6 -8 451.15 47.4
3 -6 8 500.85 46.9
-4 6 -8 177.18 22.5
-4 6 -8 176.18 23.9
-4 6 -8 166.68 21.6
-4 6 -8 187.78 23.9
-4 6 -8 215.28 26.3
-4 6 -8 153.98 22
4 -6 8 133.39 20.1
4 -6 8 151.48 16.5
-5 6 -8 302.67 36
-5 6 -8 369.76 40.7
-5 6 -8 342.17 45.6
-5 6 -8 284.77 39.8
-5 6 -8 382.36 41
5 -6 8 316.47 30.4
5 -6 8 366.06 31.1
5 -6 8 355.66 37.9
5 -6 8 267.07 36.2
-6 6 -8 24.7 8.4
-6 6 -8 22.1 8.3
-6 6 -8 20 9
-6 6 -8 4.7 10.5
-6 6 -8 40.5 11.3
6 -6 8 23.5 9.6
6 -6 8 37 6.6
-7 6 -8 182.58 27.6
-7 6 -8 202.88 25.4
7 -6 8 260.87 21.9
7 -6 8 219.78 22.1
7 -6 8 249.08 21.2
-8 6 -8 3.6 3.7
-8 6 -8 2.1 2.1
8 -6 8 3.2 2.1
8 -6 8 0.2 1.2
-6 -5 8 145.99 12.7
-6 -5 8 146.09 13.8
-6 -5 8 107.29 12.3
5 5 -8 25.8 8.2
5 5 -8 11 8.9
-5 -5 8 12.8 3.6
-5 -5 8 12 3.6
-5 -5 8 15 4.9
-5 -5 8 19.2 4.7
-4 -5 8 425.16 37.1
-4 -5 8 415.66 37.6
-4 -5 8 432.56 37.1
-4 -5 8 399.26 39.4
3 5 -8 142.29 21.6
3 5 -8 106.39 19.6
3 5 -8 98.39 16.8
3 5 -8 143.99 18.7
3 5 -8 125.39 33.2
-3 -5 8 116.69 14.5
-3 -5 8 142.69 16.6
-3 -5 8 131.59 13.9
-3 -5 8 163.18 16.2
2 5 -8 1342.37 124.19
2 5 -8 1032.1 105.09
2 5 -8 1172.28 105.29
2 5 -8 1202.88 111.89
2 5 -8 1216.68 109.29
2 5 -8 1065.29 108.89
-2 -5 8 1407.46 99.79
-2 -5 8 1243.18 102.09
-2 -5 8 1248.38 99.59
1 5 -8 10.3 6.8
1 5 -8 3.3 6.6
1 5 -8 8.9 5.5
1 5 -8 16.5 10.8
1 5 -8 6.6 4.9
1 5 -8 -1.6 4.9
1 5 -8 1 5.6
1 5 -8 2.3 5.7
-1 -5 8 5.7 2.5
0 5 -8 531.75 68.69
0 5 -8 589.84 60.39
0 5 -8 702.33 62.79
0 5 -8 648.94 59.79
0 5 -8 495.85 56.09
0 5 -8 583.24 56.09
0 5 -8 619.24 56.09
0 -5 8 689.63 60.69
-1 5 -8 98.09 20.8
-1 5 -8 128.39 16.5
-1 5 -8 114.39 16.1
-1 5 -8 80.49 16.8
-1 5 -8 100.29 17.8
-1 5 -8 103.19 15.4
-1 5 -8 125.19 25.9
-1 5 -8 121.79 17.7
-1 5 -8 150.68 18.6
-1 5 -8 116.89 16
1 -5 8 97.09 18.1
-2 5 -8 936.21 75.09
-2 5 -8 911.11 85.69
-2 5 -8 760.62 76.09
-2 5 -8 727.23 75.39
-2 5 -8 871.61 78.19
-2 5 -8 778.02 74.39
-2 5 -8 863.61 75.49
-2 5 -8 847.52 74.79
-2 5 -8 956.1 76.49
2 -5 8 731.73 71.49
-3 5 -8 37.8 9.9
-3 5 -8 18.8 12.5
-3 5 -8 19.5 8.6
-3 5 -8 17.5 7.8
-3 5 -8 29.3 9.3
-3 5 -8 35.9 12.1
-3 5 -8 24.1 19.5
-3 5 -8 19 8.2
-3 5 -8 13.3 8.5
-3 5 -8 13 5.7
-3 5 -8 30 9.9
3 -5 8 17.1 4.1
3 -5 8 5.9 6.1
3 -5 8 28.1 8.4
-4 5 -8 1159.88 103.79
-4 5 -8 929.21 96.69
-4 5 -8 1268.07 99.39
-4 5 -8 1106.39 98.19
-4 5 -8 965 95.79
-4 5 -8 1189.88 97.39
4 -5 8 1172.88 90.69
4 -5 8 964.5 89.99
-5 5 -8 247.58 31.4
-5 5 -8 267.27 30.5
-5 5 -8 238.58 28.8
-5 5 -8 234.78 30.1
5 -5 8 264.27 26
5 -5 8 297.07 31.7
5 -5 8 248.38 24.7
-6 5 -8 121.29 17.2
-6 5 -8 121.79 19.5
-6 5 -8 143.49 19.8
6 -5 8 166.98 21.6
6 -5 8 141.69 16.2
6 -5 8 140.19 17.9
6 -5 8 153.68 15.5
-7 5 -8 73.59 14
-7 5 -8 70.89 18.3
-7 5 -8 91.79 13.5
7 -5 8 61.09 10
7 -5 8 106.59 10.5
-8 5 -8 36.6 8.6
8 -5 8 48.8 6
8 -5 8 52.39 6.1
6 4 -8 5.4 4.3
6 4 -8 5.7 6
-6 -4 8 0 3.5
-6 -4 8 -0.1 3.1
-6 -4 8 3.6 3
5 4 -8 57.09 17.5
5 4 -8 50.69 11.7
-5 -4 8 36.4 7.3
-5 -4 8 36.6 6.9
-5 -4 8 41.8 6.8
4 4 -8 32.9 9.4
4 4 -8 38.7 9.7
4 4 -8 60.69 17.9
4 4 -8 29.7 10.8
4 4 -8 62.29 14.1
4 4 -8 58.19 19.4
-4 -4 8 52.29 8.8
-4 -4 8 48.1 7.7
-4 -4 8 48 7.1
-4 -4 8 46 7.6
-4 -4 8 69.79 11.1
3 4 -8 415.96 42
3 4 -8 324.97 50.89
3 4 -8 490.65 43.3
3 4 -8 468.15 53.79
3 4 -8 336.57 41.8
3 4 -8 404.96 44.1
3 4 -8 434.46 46.3
-3 -4 8 415.46 36
-3 -4 8 377.86 38.9
-3 -4 8 441.16 36.7
2 4 -8 108.69 24.5
2 4 -8 133.29 19.2
2 4 -8 121.99 17.3
2 4 -8 139.29 22.4
2 4 -8 91.99 17.4
-2 -4 8 118.99 12.7
-2 -4 8 138.59 12.8
1 4 -8 710.03 70.19
1 4 -8 881.11 72.09
1 4 -8 793.52 83.79
1 4 -8 846.32 73.29
1 4 -8 931.71 76.99
1 4 -8 802.72 78.09
1 4 -8 659.63 70.59
-1 -4 8 853.21 73.49
-1 -4 8 769.92 72.29
-1 -4 8 821.12 65.79
0 4 -8 220.38 38.8
0 4 -8 242.78 32.6
0 4 -8 283.17 30.2
0 4 -8 331.27 33.4
0 4 -8 307.07 31.5
0 4 -8 361.36 31.8
0 4 -8 252.37 31.1
0 4 -8 309.77 30.9
0 4 -8 239.98 32.5
0 4 -8 249.58 35.9
0 -4 8 337.37 28.3
0 -4 8 332.87 28.6
0 -4 8 334.87 25.1
-1 4 -8 2271.07 190.28
-1 4 -8 2194.68 188.08
-1 4 -8 2206.88 190.38
-1 4 -8 2573.14 197.88
-1 4 -8 2274.17 187.98
-1 4 -8 2038.1 194.38
-1 4 -8 2565.54 188.88
-1 4 -8 2333.57 188.98
1 -4 8 2536.55 182.48
1 -4 8 1829.22 187.48
1 -4 8 2345.57 185.88
-2 4 -8 31.4 8.2
-2 4 -8 40.6 9.2
-2 4 -8 47.3 10
-2 4 -8 33.3 14.1
-2 4 -8 30.1 8.4
-2 4 -8 38.2 14.8
-2 4 -8 33.3 9.4
-2 4 -8 23.8 7.3
-2 4 -8 18 7.3
-2 4 -8 22.1 9.4
-2 4 -8 25 9.1
2 -4 8 14.5 6.4
2 -4 8 33.5 11
-3 4 -8 1127.39 91.49
-3 4 -8 1164.18 92.29
-3 4 -8 947.61 90.99
-3 4 -8 1051.29 93.19
-3 4 -8 973.7 97.09
-3 4 -8 1113.59 93.29
-3 4 -8 826.82 103.19
-3 4 -8 956 90.09
3 -4 8 1038.6 91.19
3 -4 8 1036.4 89.09
3 -4 8 1139.19 86.59
-4 4 -8 41.3 10.3
-4 4 -8 56.69 10.5
-4 4 -8 32.7 10.1
-4 4 -8 45 10.9
-4 4 -8 34.8 9.5
4 -4 8 52.89 11.4
4 -4 8 53.29 7.9
4 -4 8 59.29 8.2
4 -4 8 33.8 9.7
-5 4 -8 1092.29 96.29
-5 4 -8 983.7 83.49
-5 4 -8 883.41 81.19
-5 4 -8 1035.8 85.59
-5 4 -8 792.42 85.29
5 -4 8 751.22 84.79
-6 4 -8 2.5 7.4
-6 4 -8 15.5 6.6
-6 4 -8 15.3 10.8
-6 4 -8 9.7 7
-6 4 -8 18.3 7.1
6 -4 8 24.1 5.2
6 -4 8 7.9 5.8
6 -4 8 12.3 6.8
6 -4 8 17 5
6 -4 8 18.3 5.9
-7 4 -8 300.17 36.1
-7 4 -8 355.86 40.8
-7 4 -8 311.67 33.9
-7 4 -8 348.07 36.5
7 -4 8 435.66 33.6
7 -4 8 376.86 33.3
-8 4 -8 28.7 8.3
8 -4 8 32 4.5
8 -4 8 40.3 6.5
8 -4 8 26.3 4.6
7 3 -8 70.09 7.8
-7 -3 8 66.89 9.4
-7 -3 8 69.69 7.7
6 3 -8 353.16 34
-6 -3 8 333.17 30.3
-6 -3 8 272.97 29.4
-6 -3 8 333.07 28.2
-6 -3 8 269.87 27.5
5 3 -8 69.59 20.2
5 3 -8 73.29 14
-5 -3 8 66.99 11.2
-5 -3 8 68.09 9.4
-5 -3 8 73.39 8.9
-5 -3 8 65.09 10.5
-5 -3 8 66.09 12.4
4 3 -8 1959.6 174.78
4 3 -8 1903.81 177.58
4 3 -8 2259.87 177.98
4 3 -8 2461.35 186.28
4 3 -8 1861.51 185.78
4 3 -8 2173.48 179.88
-4 -3 8 1906.11 170.48
-4 -3 8 2224.68 170.28
-4 -3 8 2347.97 170.48
-4 -3 8 2056.19 171.98
3 3 -8 153.18 22.6
3 3 -8 184.08 24.9
3 3 -8 160.18 22
3 3 -8 176.58 29.8
3 3 -8 149.99 21.2
3 3 -8 194.68 22.2
-3 -3 8 147.09 16.4
-3 -3 8 172.78 16.3
-3 -3 8 200.08 19.1
-3 -3 8 137.49 17.2
-3 -3 8 186.48 17.3
2 3 -8 1939.01 151.78
2 3 -8 1669.23 149.99
2 3 -8 1956.6 155.38
2 3 -8 1596.94 157.48
2 3 -8 1852.81 161.78
2 3 -8 1787.72 155.18
-2 -3 8 1717.83 147.59
-2 -3 8 1877.51 152.98
-2 -3 8 1961.1 148.49
1 3 -8 127.79 16.2
1 3 -8 109.99 19.2
1 3 -8 135.09 24.5
1 3 -8 129.19 16.5
1 3 -8 157.68 21
1 3 -8 133.69 16.6
-1 -3 8 138.79 15.1
-1 -3 8 123.89 12.7
-1 -3 8 130.89 14.5
-1 -3 8 157.18 18.6
0 3 -8 605.44 72.89
0 3 -8 502.75 55.19
0 3 -8 576.44 59.69
0 3 -8 653.33 55.69
0 -3 8 647.14 53.99
0 -3 8 659.63 50.39
0 -3 8 622.54 53.19
-1 3 -8 354.06 36.8
-1 3 -8 402.66 37.4
-1 3 -8 267.57 62.49
-1 3 -8 349.27 37.2
-1 3 -8 286.57 38.3
-1 3 -8 382.76 42.1
-1 3 -8 353.06 35.7
-1 3 -8 379.46 35.8
-1 3 -8 354.56 35.4
1 -3 8 367.56 30.8
1 -3 8 385.46 34.7
-2 3 -8 186.98 21.3
-2 3 -8 166.08 20
-2 3 -8 150.38 20.1
-2 3 -8 142.49 23.3
-2 3 -8 162.38 21.9
-2 3 -8 152.68 20.6
-2 3 -8 176.28 27.3
-2 3 -8 181.08 24.7
-2 3 -8 164.08 21.5
-2 3 -8 185.98 20.2
2 -3 8 166.08 21.7
2 -3 8 203.18 17.3
-3 3 -8 632.84 53.49
-3 3 -8 610.94 54.19
-3 3 -8 548.65 52.79
-3 3 -8 537.55 54.69
-3 3 -8 502.45 53.19
-3 3 -8 570.54 54.79
-4 3 -8 19 7.8
-4 3 -8 20.4 14.4
-4 3 -8 24.1 4.6
-4 3 -8 14.5 5.7
-4 3 -8 25.9 9.4
-4 3 -8 22.8 9.5
-4 3 -8 17.7 7.6
4 -3 8 25.6 9.7
4 -3 8 30.8 9.1
4 -3 8 32.8 10.1
4 -3 8 27.3 6.4
4 -3 8 28.8 6
-5 3 -8 10.7 6.5
-5 3 -8 3.4 4.3
-5 3 -8 10.5 6.9
-5 3 -8 0.8 8.1
-5 3 -8 1.2 3.8
-5 3 -8 3 4.8
-5 3 -8 4.3 4
5 -3 8 5.1 3.4
5 -3 8 4.9 3.5
5 -3 8 4.6 4.6
5 -3 8 0.6 7
5 -3 8 -2.2 4.8
5 -3 8 -1.7 4.8
-6 3 -8 106.89 15
-6 3 -8 88.29 16.3
-6 3 -8 104.99 19.8
-6 3 -8 93.49 18
-6 3 -8 88.99 14.3
-6 3 -8 121.69 17
6 -3 8 104.09 14
6 -3 8 135.89 13.2
6 -3 8 137.59 19
-7 3 -8 -4.5 3.3
-7 3 -8 9.5 7.4
-7 3 -8 0.8 3.6
7 -3 8 3.3 2.3
7 -3 8 3.8 3.2
7 -3 8 -3.3 2.6
-8 3 -8 4.4 2.8
-8 3 -8 1.2 2.1
8 -3 8 1.4 2.8
8 -3 8 0.3 1.5
7 2 -8 142.89 18.2
7 2 -8 131.89 16.5
7 2 -8 146.19 19.2
-7 -2 8 127.79 14.3
-7 -2 8 110.89 16.3
6 2 -8 10.8 5.5
6 2 -8 10.9 6.6
6 2 -8 14.9 8.5
-6 -2 8 10.2 3.4
-6 -2 8 6.1 3.2
-6 -2 8 14.2 4.8
-6 -2 8 9.6 3.8
5 2 -8 70.79 15.4
5 2 -8 113.49 17.2
5 2 -8 97.69 15.3
5 2 -8 88.59 16.3
5 2 -8 99.09 19.5
-5 -2 8 78.99 12.9
-5 -2 8 92.89 12.3
-5 -2 8 92.59 10.7
-5 -2 8 97.59 11
4 2 -8 115.99 17
4 2 -8 105.99 15.9
4 2 -8 91.09 20.3
4 2 -8 117.99 17.7
4 2 -8 103.99 18.9
4 2 -8 132.79 30
4 2 -8 115.79 16.6
-4 -2 8 110.19 12
-4 -2 8 120.79 12.8
-4 -2 8 105.59 11.9
3 2 -8 16.7 8.6
3 2 -8 11.3 6.4
3 2 -8 22.5 8.7
3 2 -8 15.4 8.9
3 2 -8 16.2 5.4
3 2 -8 17.5 7
3 2 -8 29.4 13.2
3 2 -8 21.7 6.7
-3 -2 8 20.7 5.9
-3 -2 8 15.5 3.7
-3 -2 8 14.8 4
-3 -2 8 19.4 4.5
-3 -2 8 16.3 4.9
-3 -2 8 13 5.4
2 2 -8 426.86 40.2
2 2 -8 398.96 38.6
2 2 -8 400.46 38.8
2 2 -8 384.96 39.5
2 2 -8 398.46 48.2
2 2 -8 443.06 43.5
2 2 -8 439.96 43.4
-2 -2 8 487.55 36.2
-2 -2 8 355.96 44.5
-2 -2 8 426.86 37.8
-2 -2 8 430.26 35.4
-2 -2 8 364.46 42.8
1 2 -8 463.15 43.8
1 2 -8 415.36 39
1 2 -8 421.26 36.8
1 2 -8 379.46 39
1 2 -8 374.66 46.9
-1 -2 8 411.36 37.3
-1 -2 8 394.76 34.8
-1 -2 8 404.16 34.8
-1 -2 8 436.06 38.2
0 2 -8 1044.1 95.99
0 2 -8 992.7 89.89
0 2 -8 1096.49 90.39
0 2 -8 976.6 86.49
0 -2 8 1106.69 86.49
0 -2 8 1124.99 90.29
0 -2 8 1103.19 89.29
0 -2 8 1045.5 86.09
-1 2 -8 148.09 29.3
-1 2 -8 160.08 20.3
-1 2 -8 190.58 21.6
-1 2 -8 214.98 21.9
-1 2 -8 184.28 27.1
-1 2 -8 214.88 22.7
-1 2 -8 216.88 18.4
-1 2 -8 185.98 22.5
-1 2 -8 154.58 29.3
1 -2 8 198.68 18.4
1 -2 8 223.78 22.3
1 -2 8 169.78 19.4
1 -2 8 197.68 18.3
-2 2 -8 305.87 33
-2 2 -8 323.57 34.7
-2 2 -8 401.06 36.9
-2 2 -8 345.67 36
-2 2 -8 338.17 36.2
-2 2 -8 356.06 42.2
-2 2 -8 332.97 31.5
-2 2 -8 334.77 43.2
-2 2 -8 322.67 35
2 -2 8 324.27 38.8
2 -2 8 406.06 32.6
2 -2 8 386.36 34.3
2 -2 8 430.56 36.3
-3 2 -8 73.69 11.8
-3 2 -8 53.09 10.2
-3 2 -8 69.69 12.8
-3 2 -8 59.59 12
-3 2 -8 52.99 11.2
-3 2 -8 101.19 20
-3 2 -8 59.89 8.9
-3 2 -8 61.79 21
3 -2 8 61.59 9.1
3 -2 8 80.29 12.8
-4 2 -8 590.04 66.09
-4 2 -8 506.85 50.99
-4 2 -8 462.95 47.1
-4 2 -8 509.35 52.09
-4 2 -8 560.04 49.2
-4 2 -8 497.25 47.3
-4 2 -8 601.94 53.39
4 -2 8 560.34 45.6
4 -2 8 453.15 47.2
-5 2 -8 14.3 6.4
-5 2 -8 0.6 6.9
-5 2 -8 4.4 4.8
-5 2 -8 10.6 6.2
-5 2 -8 12.3 6.6
-5 2 -8 6.8 5.2
-5 2 -8 9.8 7.9
5 -2 8 4.1 4.6
5 -2 8 15.3 5.2
5 -2 8 11.2 4
5 -2 8 13.1 15.4
5 -2 8 11.6 4.4
5 -2 8 6.5 3.2
-6 2 -8 390.76 41.1
-6 2 -8 340.07 38.3
-6 2 -8 314.67 33.6
6 -2 8 360.46 31.8
6 -2 8 415.86 39.4
6 -2 8 360.06 34.1
6 -2 8 356.76 33.1
6 -2 8 314.07 32.3
-7 2 -8 17.1 4.5
-7 2 -8 19.9 6
-7 2 -8 28.8 8.5
7 -2 8 25.4 4.3
7 -2 8 20.8 4.8
7 -2 8 10.2 4.9
8 1 -8 22.7 6.4
8 1 -8 5.1 8
-8 -1 8 14.7 4.1
7 1 -8 24 7.4
7 1 -8 36.2 8.6
-7 -1 8 37.2 7.6
-7 -1 8 31.2 5.6
6 1 -8 53.59 14.6
6 1 -8 47.2 10.6
6 1 -8 50.59 15.2
6 1 -8 41.4 10.8
-6 -1 8 47 8.4
-6 -1 8 40 6.8
-6 -1 8 29.1 5.8
5 1 -8 -1.5 4.2
5 1 -8 15.4 10.8
5 1 -8 0.1 5
5 1 -8 -1.6 5.3
5 1 -8 -3.9 6.2
5 1 -8 -0.6 3.5
5 1 -8 -4.8 3.6
-5 -1 8 -0.6 2.7
-5 -1 8 -0.1 2.3
-5 -1 8 6.1 3.8
-5 -1 8 -1 1.7
-5 -1 8 1.6 2.3
4 1 -8 5.4 4.7
4 1 -8 -3.4 3.8
4 1 -8 8.1 13.9
4 1 -8 9.4 7.5
4 1 -8 0.3 4.2
-4 -1 8 2.5 1.8
-4 -1 8 -1.5 2.8
-4 -1 8 1.7 2.2
-4 -1 8 1.3 2.3
3 1 -8 43.8 13.2
3 1 -8 51.59 8.9
3 1 -8 36.3 9.5
3 1 -8 53.79 9.7
3 1 -8 50.99 10.3
-3 -1 8 31.9 6.5
-3 -1 8 44.1 6.6
-3 -1 8 43 9.5
-3 -1 8 45.4 8
-3 -1 8 52.59 6.4
-3 -1 8 51.19 8.3
2 1 -8 12 8
2 1 -8 9.6 4.2
2 1 -8 2.5 3
2 1 -8 2.3 4.1
-2 -1 8 6 2.2
-2 -1 8 7.9 2.8
-2 -1 8 8.8 3.8
-2 -1 8 5.8 3
1 1 -8 22 7.2
1 1 -8 28.3 5.1
1 1 -8 21 7.2
1 1 -8 25.3 6.7
1 1 -8 19.9 8.8
1 1 -8 18.9 12.6
-1 -1 8 27.4 4.4
-1 -1 8 17.4 5.5
-1 -1 8 23.9 6.3
-1 -1 8 22 4.1
0 1 -8 280.17 26.8
0 1 -8 274.87 32.3
0 1 -8 289.47 32.7
0 1 -8 279.47 28.5
0 -1 8 306.97 26.1
0 -1 8 287.37 28.7
0 -1 8 255.87 25.3
0 -1 8 329.17 32.9
-1 1 -8 34.9 13.5
-1 1 -8 31.2 7.7
-1 1 -8 49.7 13.4
-1 1 -8 24.3 9.5
-1 1 -8 23.3 7.7
-1 1 -8 26.3 7.8
-1 1 -8 31.4 6.9
-1 1 -8 23.3 9.6
1 -1 8 36.2 7.7
1 -1 8 20.2 6.3
1 -1 8 39.2 9.3
1 -1 8 33 5.1
1 -1 8 34.2 5.7
-2 1 -8 434.76 41.5
-2 1 -8 365.56 46.1
-2 1 -8 430.36 43.4
-2 1 -8 455.05 41.4
-2 1 -8 470.35 42.4
-2 1 -8 478.65 43.4
-2 1 -8 467.75 45.3
2 -1 8 455.65 42.3
2 -1 8 489.85 40.3
2 -1 8 444.76 45.2
2 -1 8 465.65 40.7
2 -1 8 463.85 43.9
-3 1 -8 74.99 29.9
-3 1 -8 60.89 11.5
-3 1 -8 67.99 16.7
-3 1 -8 68.59 10.5
-3 1 -8 47.8 14.8
3 -1 8 56.69 11.9
3 -1 8 43.1 10.7
3 -1 8 59.59 9.2
3 -1 8 68.59 9
3 -1 8 43.7 8.3
3 -1 8 69.29 11.8
-4 1 -8 193.58 25.3
-4 1 -8 206.38 25.1
-4 1 -8 257.77 38.3
-4 1 -8 247.78 28.9
4 -1 8 238.98 22.9
4 -1 8 256.47 28.2
4 -1 8 237.68 28.3
4 -1 8 209.78 24.9
4 -1 8 277.47 25.1
4 -1 8 260.17 23.7
-5 1 -8 36.1 15.9
-5 1 -8 66.79 14.7
-5 1 -8 45.5 10.4
-5 1 -8 66.09 13.8
5 -1 8 62.39 8.7
5 -1 8 59.69 8.6
5 -1 8 48.4 10.6
5 -1 8 67.29 9.4
-6 1 -8 11.1 5.4
-6 1 -8 7.1 4.6
-6 1 -8 17.3 7.3
-6 1 -8 26.6 9.2
6 -1 8 16.1 3.9
6 -1 8 5 6.6
6 -1 8 21 6
6 -1 8 14.4 4
6 -1 8 16.4 4.2
-7 1 -8 3.5 2.9
-7 1 -8 1.3 3.3
-7 1 -8 0.1 2
7 -1 8 -0.5 2.4
7 -1 8 2.3 1.6
8 0 -8 43.5 8.4
8 0 -8 57.09 9.2
-8 0 8 45.4 7.7
7 0 -8 241.68 25.8
7 0 -8 258.17 26.7
-7 0 8 237.48 23.2
-7 0 8 223.28 20.8
-7 0 8 187.98 20.4
6 0 -8 19.5 11.9
6 0 -8 10.6 6.5
6 0 -8 13.8 11.7
-6 0 8 15.9 4.9
-6 0 8 7.4 3.2
-6 0 8 5.1 5.3
-6 0 8 24.8 7.6
-6 0 8 14.1 4.4
5 0 -8 526.75 58.19
5 0 -8 623.64 56.59
5 0 -8 644.74 59.99
5 0 -8 592.04 57.29
-5 0 8 684.93 53.19
-5 0 8 545.45 54.49
-5 0 8 572.74 51.69
-5 0 8 643.44 51.99
-5 0 8 647.74 53.59
4 0 -8 1091.29 94.69
4 0 -8 1149.39 93.59
4 0 -8 1023.8 94.49
4 0 -8 1145.99 98.99
4 0 -8 1096.49 93.99
-4 0 8 1006.2 91.59
-4 0 8 1107.79 88.59
-4 0 8 1013.6 89.49
-4 0 8 1084.59 89.29
3 0 -8 1837.02 151.68
3 0 -8 2089.69 152.08
3 0 -8 1802.42 151.38
3 0 -8 1868.41 153.58
3 0 -8 1935.91 151.78
-3 0 8 1888.01 147.99
-3 0 8 1867.91 150.78
-3 0 8 1584.24 146.69
-3 0 8 1656.63 148.29
-3 0 8 1885.11 150.58
-3 0 8 1719.23 152.38
2 0 -8 3761.72 287.77
2 0 -8 3851.01 284.57
2 0 -8 3406.36 283.77
2 0 -8 3445.16 286.07
-2 0 8 3541.35 283.67
-2 0 8 3482.15 280.97
-2 0 8 3231.58 281.57
-2 0 8 3499.15 280.37
1 0 -8 2409.56 197.38
1 0 -8 2694.03 201.58
1 0 -8 2393.46 197.38
1 0 -8 2412.16 201.78
-1 0 8 2287.57 197.38
-1 0 8 2353.36 194.88
-1 0 8 2471.35 199.18
0 0 -8 3586.74 320.87
0 0 -8 4252.17 320.87
0 0 8 3918.91 322.27
0 0 8 4271.87 322.17
0 0 8 3952.9 318.27
0 0 8 3814.72 319.47
0 0 8 4061.09 317.77
0 0 8 4070.19 318.97
-1 0 -8 -3 2.8
-1 0 -8 -0.9 5
-1 0 -8 1.5 3.4
-1 0 -8 2.7 3.8
-1 0 -8 -0.7 4
1 0 8 3.8 2.9
1 0 8 0.3 3.2
1 0 8 1.6 2.9
1 0 8 3 3
1 0 8 6.1 4.7
1 0 8 -5.3 3.8
1 0 8 -4.9 3
1 0 8 -0.5 4.4
-2 0 -8 1384.96 109.79
-2 0 -8 1271.77 104.19
-2 0 -8 1381.56 105.09
-2 0 -8 1151.98 103.19
-2 0 -8 1227.28 104.19
2 0 8 1272.77 101.29
2 0 8 1144.69 103.99
2 0 8 1221.08 103.69
2 0 8 1100.09 104.79
2 0 8 1274.17 102.09
2 0 8 1056.09 100.19
-3 0 -8 264.37 29.8
-3 0 -8 301.47 31.1
-3 0 -8 276.67 29.5
3 0 8 276.27 26.8
3 0 8 318.87 28.8
3 0 8 290.07 32.3
3 0 8 262.87 29.1
3 0 8 280.47 31.3
-4 0 -8 287.27 31.6
-4 0 -8 301.67 32.4
-4 0 -8 265.67 30.2
4 0 8 290.97 27.4
4 0 8 258.37 29.2
4 0 8 323.47 33.4
4 0 8 285.77 27
4 0 8 254.97 33
4 0 8 306.87 28.7
-5 0 -8 197.18 22.5
-5 0 -8 166.88 20.2
-5 0 -8 151.58 22.3
5 0 8 152.98 18.6
5 0 8 162.28 21.6
5 0 8 132.49 17
5 0 8 165.48 16.2
5 0 8 140.19 16.8
-6 0 -8 81.49 12.1
-6 0 -8 79.99 11.5
6 0 8 84.89 11.4
6 0 8 79.19 8.9
8 -1 -8 146.69 17.6
8 -1 -8 159.98 18
-8 1 8 137.49 15.6
-8 1 8 142.49 16.4
7 -1 -8 832.62 73.29
-7 1 8 728.43 70.09
-7 1 8 835.22 67.19
-7 1 8 869.61 69.79
6 -1 -8 634.64 62.09
6 -1 -8 555.14 57.49
-6 1 8 608.24 52.09
-6 1 8 651.63 54.29
-6 1 8 634.44 52.29
-6 1 8 605.44 59.59
5 -1 -8 1079.09 93.59
5 -1 -8 1146.69 96.49
5 -1 -8 1151.28 92.09
5 -1 -8 1069.49 93.59
5 -1 -8 944.41 88.89
-5 1 8 1083.09 87.29
-5 1 8 942.91 87.79
-5 1 8 1032.6 91.39
-5 1 8 1065.09 88.79
-5 1 8 1170.98 90.59
-5 1 8 1010.7 87.19
4 -1 -8 955.6 80.89
4 -1 -8 1023.5 82.79
4 -1 -8 983.8 84.89
4 -1 -8 983.4 82.39
4 -1 -8 999.5 84.99
-4 1 8 988.5 82.79
-4 1 8 879.51 78.49
-4 1 8 814.52 87.79
-4 1 8 940.81 79.59
3 -1 -8 2542.45 211.28
3 -1 -8 2645.74 208.48
3 -1 -8 2813.52 209.08
3 -1 -8 2562.64 210.78
3 -1 -8 2946.91 210.48
3 -1 -8 2836.12 213.38
-3 1 8 2182.48 205.78
-3 1 8 2538.85 207.18
-3 1 8 2349.06 207.58
-3 1 8 2402.06 210.28
2 -1 -8 27.8 7.9
2 -1 -8 10 6.7
2 -1 -8 14.2 6
2 -1 -8 10.7 5
2 -1 -8 18.2 5.6
2 -1 -8 16 6.7
2 -1 -8 18.3 7
2 -1 -8 22.6 6.6
-2 1 8 14.4 5.3
-2 1 8 17.7 5.8
-2 1 8 13.8 4.1
-2 1 8 18.5 5.3
-2 1 8 8.9 3.4
-2 1 8 18.2 5.4
1 -1 -8 2552.14 196.08
1 -1 -8 2306.37 196.28
1 -1 -8 2490.95 196.98
1 -1 -8 2671.03 201.28
-1 1 8 2444.36 198.88
-1 1 8 2072.89 192.78
-1 1 8 2288.47 194.78
-1 1 8 2465.25 193.58
-1 1 8 2404.16 197.88
0 -1 -8 124.79 17
0 -1 -8 117.59 16.6
0 -1 -8 89.09 13.6
0 -1 -8 125.29 14.7
0 -1 -8 94.19 12.7
0 1 8 95.89 14.5
0 1 8 94.99 12.1
0 1 8 77.09 10.9
0 1 8 72.99 12.2
0 1 8 99.59 11.6
0 1 8 92.89 13
0 1 8 84.89 14.2
-1 -1 -8 1702.53 130.79
-1 -1 -8 1453.55 128.69
-1 -1 -8 1512.35 130.69
-1 -1 -8 1428.26 129.39
-1 -1 -8 1606.54 131.89
1 1 8 1504.45 133.09
1 1 8 1467.05 127.59
1 1 8 1647.84 128.49
1 1 8 1668.23 130.99
1 1 8 1542.45 129.19
1 1 8 1678.63 133.09
-2 -1 -8 96.89 13.8
-2 -1 -8 88.49 14.5
-2 -1 -8 81.89 13.6
-2 -1 -8 107.29 17.4
2 1 8 90.39 15.3
2 1 8 88.09 11.6
2 1 8 97.89 12.9
2 1 8 98.19 15.5
2 1 8 85.59 11.8
2 1 8 94.79 14.5
2 1 8 95.79 15.5
-3 -1 -8 1147.89 90.79
-3 -1 -8 1061.89 90.69
-3 -1 -8 987 91.19
3 1 8 1032.2 86.09
3 1 8 1040.3 92.49
3 1 8 847.72 90.19
3 1 8 993.5 87.49
3 1 8 1063.29 86.69
3 1 8 1124.69 93.89
3 1 8 1042.3 89.49
-4 -1 -8 328.67 31.8
-4 -1 -8 286.07 31.1
4 1 8 284.87 26.6
4 1 8 294.07 32.9
4 1 8 246.18 26.4
4 1 8 309.67 30.3
-5 -1 -8 203.48 22.3
-5 -1 -8 185.18 23.3
-5 -1 -8 191.88 22.2
5 1 8 216.18 21.5
5 1 8 187.78 18.2
-6 -1 -8 57.69 8.5
-6 -1 -8 76.99 9.6
-6 -1 -8 50.39 8.4
6 1 8 73.29 8.7
8 -2 -8 79.39 11.6
8 -2 -8 90.99 12.8
-8 2 8 74.69 9.9
-8 2 8 63.89 10.1
7 -2 -8 144.09 20
7 -2 -8 167.88 20.9
-7 2 8 173.48 18
-7 2 8 156.88 17.8
-7 2 8 160.88 15.3
6 -2 -8 42.5 18.4
6 -2 -8 17.9 7.6
6 -2 -8 26.6 10.1
6 -2 -8 28.3 9.7
-6 2 8 26.5 8.1
-6 2 8 10.3 7.7
-6 2 8 18 6.8
-6 2 8 17.8 4.3
5 -2 -8 257.47 27.2
5 -2 -8 252.47 29.3
5 -2 -8 272.77 28.6
5 -2 -8 253.77 26.5
5 -2 -8 263.47 31.7
-5 2 8 239.68 25.1
-5 2 8 255.87 23.8
-5 2 8 241.58 24.4
-5 2 8 263.57 26.5
-5 2 8 253.07 27.6
-5 2 8 235.38 23.4
4 -2 -8 537.25 49.5
4 -2 -8 552.74 49.2
4 -2 -8 556.44 46.8
4 -2 -8 528.45 47.2
4 -2 -8 521.25 50.29
4 -2 -8 525.45 49.5
-4 2 8 467.75 50.99
-4 2 8 480.85 43.9
-4 2 8 490.15 47.9
-4 2 8 455.95 44.6
3 -2 -8 58.79 11
3 -2 -8 70.39 10.3
3 -2 -8 63.69 11.2
3 -2 -8 60.39 10.7
3 -2 -8 51.09 9.3
3 -2 -8 64.29 11.5
-3 2 8 42.8 9.8
-3 2 8 46.1 7.4
-3 2 8 64.09 10.5
-3 2 8 46.8 7.4
-3 2 8 52.79 8.9
-3 2 8 51.69 8.2
2 -2 -8 543.65 51.29
2 -2 -8 618.84 52.39
2 -2 -8 567.64 49.99
2 -2 -8 520.25 47.9
2 -2 -8 559.64 50.69
-2 2 8 512.45 47
-2 2 8 502.55 45.8
-2 2 8 505.65 48.1
-2 2 8 469.75 45.5
-2 2 8 560.94 50.89
-2 2 8 513.75 47.5
1 -2 -8 33 9.1
1 -2 -8 23.4 7.4
1 -2 -8 32.9 7.2
1 -2 -8 31.1 8.5
1 -2 -8 21.4 7.1
-1 2 8 26.2 5.9
-1 2 8 17.8 4.8
-1 2 8 24.8 6.5
-1 2 8 16.7 6.3
-1 2 8 39.9 9.2
0 -2 -8 1376.76 112.79
0 -2 -8 1256.47 109.19
0 -2 -8 1410.26 109.49
0 2 8 1222.68 112.99
0 2 8 1290.67 119.09
0 2 8 1374.96 108.59
0 2 8 1243.28 110.59
0 2 8 1269.77 109.19
-1 -2 -8 706.73 66.39
-1 -2 -8 698.73 64.89
-1 -2 -8 739.13 63.09
-1 -2 -8 652.93 62.59
1 2 8 735.33 67.59
1 2 8 715.53 61.69
1 2 8 752.72 62.99
1 2 8 720.13 66.99
1 2 8 731.23 64.59
1 2 8 699.53 63.09
-2 -2 -8 92.49 16.4
-2 -2 -8 66.49 13.4
-2 -2 -8 76.29 13
-2 -2 -8 71.29 12
-2 -2 -8 92.69 15.9
-2 -2 -8 88.29 13.5
2 2 8 83.89 14.8
2 2 8 79.19 10.7
2 2 8 86.39 14.1
2 2 8 68.19 12.4
2 2 8 72.69 11
2 2 8 69.29 10.7
2 2 8 59.69 12.7
-3 -2 -8 76.09 12.5
-3 -2 -8 88.69 19.1
-3 -2 -8 110.09 13.6
-3 -2 -8 85.69 14.1
-3 -2 -8 80.79 15.4
3 2 8 82.99 10.8
3 2 8 91.29 14.1
3 2 8 79.69 10.2
3 2 8 78.29 14.8
3 2 8 85.59 13
3 2 8 82.39 11.9
-4 -2 -8 51.89 8.9
-4 -2 -8 72.69 15.2
-4 -2 -8 60.89 10.9
4 2 8 35.3 8.3
4 2 8 37.5 12.2
4 2 8 61.59 7.2
4 2 8 48.6 9.3
-5 -2 -8 3.6 2.6
-5 -2 -8 0.9 2.3
-5 -2 -8 8.7 4
-5 -2 -8 7.3 4.1
5 2 8 4.6 2.8
5 2 8 5.5 7.3
8 -3 -8 39.4 8.9
-8 3 8 38.1 7.6
-8 3 8 34.9 6.2
7 -3 -8 1.7 3.8
7 -3 -8 4.4 4.1
-7 3 8 -0.9 2.6
-7 3 8 -2 3.3
6 -3 -8 9.5 5.3
6 -3 -8 4 4.1
6 -3 -8 -4.2 3.8
6 -3 -8 6.1 4.3
-6 3 8 4.6 3.6
-6 3 8 0.7 5.3
-6 3 8 0.5 2.7
-6 3 8 3.6 5.1
5 -3 -8 32.2 8
5 -3 -8 19.2 7.3
5 -3 -8 35.4 8.1
5 -3 -8 19 7.4
5 -3 -8 0.3 11.5
-5 3 8 16.4 4.3
-5 3 8 22.1 6.3
-5 3 8 8.2 5.7
-5 3 8 23.3 6.5
-5 3 8 15.4 7
-5 3 8 12.1 3.9
4 -3 -8 203.48 24.7
4 -3 -8 190.28 36.2
4 -3 -8 212.58 22.5
4 -3 -8 216.68 24.5
4 -3 -8 232.58 23.2
4 -3 -8 233.88 22.5
-4 3 8 174.58 23.3
-4 3 8 202.28 22.1
-4 3 8 177.78 19.5
3 -3 -8 121.89 16.8
3 -3 -8 118.49 15.6
3 -3 -8 134.19 15.7
3 -3 -8 140.19 19.6
3 -3 -8 131.79 19.9
-3 3 8 92.99 13.7
-3 3 8 106.69 14.8
-3 3 8 97.39 12.4
-3 3 8 86.79 13
-3 3 8 102.79 17.7
-3 3 8 113.29 12.8
2 -3 -8 627.14 59.49
2 -3 -8 626.64 56.29
2 -3 -8 626.24 58.09
2 -3 -8 761.32 61.69
-2 3 8 623.64 55.79
-2 3 8 631.24 56.39
-2 3 8 534.55 58.59
-2 3 8 621.84 54.19
1 -3 -8 150.98 24
1 -3 -8 129.19 18.6
1 -3 -8 141.79 16.3
1 -3 -8 119.19 16.8
1 -3 -8 128.29 17.8
-1 3 8 136.49 17
-1 3 8 124.59 17.6
-1 3 8 120.49 15
-1 3 8 101.49 15.5
-1 3 8 148.19 20
-1 3 8 147.39 15.4
0 -3 -8 1253.07 106.49
0 -3 -8 1239.78 108.59
0 3 8 1330.37 105.69
0 3 8 1232.78 108.39
0 3 8 1091.49 106.29
0 3 8 1214.88 111.39
0 3 8 1379.76 105.49
0 3 8 1358.46 108.19
-1 -3 -8 393.26 44.2
-1 -3 -8 396.16 38.8
-1 -3 -8 413.76 41.1
1 3 8 396.76 36.8
1 3 8 412.26 40.5
1 3 8 391.16 37
1 3 8 424.96 40.1
-2 -3 -8 655.63 60.99
-2 -3 -8 710.23 63.99
-2 -3 -8 653.13 60.49
2 3 8 693.93 66.39
2 3 8 756.32 63.09
2 3 8 650.23 62.49
2 3 8 751.72 59.29
-3 -3 -8 -1.1 2.9
-3 -3 -8 11.7 8.3
-3 -3 -8 8.3 4.7
3 3 8 -1.2 7.4
3 3 8 1.7 4.8
3 3 8 8.1 4.4
3 3 8 2.5 2.8
-4 -3 -8 49.3 9.8
-4 -3 -8 56.49 10.1
4 3 8 59.39 8.2
4 3 8 35.9 10.4
8 -4 -8 5.1 3.2
8 -4 -8 -0.6 3.4
-8 4 8 2.4 2.6
-8 4 8 0.3 2.3
7 -4 -8 7.4 4.8
7 -4 -8 10.6 5.5
-7 4 8 8.9 4.7
-7 4 8 6.4 3.2
6 -4 -8 -0.9 4.6
6 -4 -8 1.5 4.2
6 -4 -8 4.6 3.9
-6 4 8 6.9 3.6
-6 4 8 -0.3 2.9
5 -4 -8 44.9 9.4
5 -4 -8 54.79 9.2
5 -4 -8 40.3 10.5
5 -4 -8 39.8 8.8
-5 4 8 34 9.8
-5 4 8 49.2 12.2
-5 4 8 46.6 7.8
-5 4 8 48 9
4 -4 -8 118.69 18.1
4 -4 -8 140.69 17.2
4 -4 -8 131.59 28.3
4 -4 -8 121.69 18.1
4 -4 -8 143.49 16.8
-4 4 8 123.29 16.3
-4 4 8 129.39 14.1
-4 4 8 121.89 18.7
3 -4 -8 1.1 3.9
3 -4 -8 5.7 5.3
3 -4 -8 6.4 5.3
3 -4 -8 4.5 4.7
3 -4 -8 18.8 12.1
3 -4 -8 -0.3 4.2
-3 4 8 1.7 6.9
-3 4 8 3.3 3.6
-3 4 8 5.5 3.7
-3 4 8 -3.7 4
2 -4 -8 203.48 20.2
2 -4 -8 175.08 21.2
2 -4 -8 165.18 21.9
2 -4 -8 128.49 25
2 -4 -8 206.68 19.9
2 -4 -8 151.68 19.1
-2 4 8 169.28 20.2
-2 4 8 178.68 19.9
-2 4 8 157.68 17.5
-2 4 8 129.89 21.9
-2 4 8 130.39 17.2
1 -4 -8 16.8 14.5
1 -4 -8 7.3 5.9
1 -4 -8 7.5 5.1
1 -4 -8 34.5 9.3
1 -4 -8 15.7 6.2
-1 4 8 8.7 4.3
-1 4 8 5.5 11.2
-1 4 8 2.2 4.5
-1 4 8 11.5 5.5
-1 4 8 10.9 5.5
0 -4 -8 71.99 28.9
0 -4 -8 138.89 21.8
0 4 8 120.89 20
-1 -4 -8 3.7 4.2
-1 -4 -8 2.3 4.1
1 4 8 1.8 4.1
1 4 8 -2.6 3.1
1 4 8 0.4 3.4
-2 -4 -8 24.1 7.5
-2 -4 -8 28.2 7.2
2 4 8 16.6 5.7
2 4 8 15.1 5.8
-3 -4 -8 44.4 9.2
3 4 8 60.89 8.4
3 4 8 54.29 8.8
8 -5 -8 8.2 3.8
-8 5 8 4.6 3
-8 5 8 2.5 2.8
7 -5 -8 67.19 8.9
7 -5 -8 62.99 10.5
-7 5 8 61.29 8.5
-7 5 8 68.99 9.6
6 -5 -8 404.26 39.9
6 -5 -8 406.76 37.5
-6 5 8 424.96 36.6
-6 5 8 401.36 37.7
5 -5 -8 2.5 5.8
5 -5 -8 -2.4 3.2
5 -5 -8 0.1 4
-5 5 8 3.8 3.4
-5 5 8 2.3 3.5
-5 5 8 2.9 6.9
4 -5 -8 619.04 54.19
4 -5 -8 594.54 55.89
4 -5 -8 647.04 54.49
-4 5 8 547.95 53.79
3 -5 -8 15.9 6.3
3 -5 -8 2.4 7.2
3 -5 -8 13.5 5.7
-3 5 8 20.7 6.4
-3 5 8 20.4 7.2
2 -5 -8 319.47 33
2 -5 -8 347.57 35
-2 5 8 349.96 34.1
-2 5 8 331.87 34.2
1 -5 -8 159.28 18.4
1 -5 -8 144.89 19.2
-1 5 8 163.88 19.4
-1 5 8 150.28 19.4
0 -5 -8 19.6 6.8
0 -5 -8 19.1 5.6
0 5 8 8.7 4.7
0 5 8 13.8 5.1
-1 -5 -8 53.19 8.8
1 5 8 51.69 11.6
-2 -5 -8 19.6 4.9
-2 -5 -8 16.5 4.5
2 5 8 17.8 4.7
2 5 8 16 3.8
7 -6 -8 1052.09 86.89
-7 6 8 1078.79 87.59
6 -6 -8 16.9 5
6 -6 -8 3.6 4.4
-6 6 8 0.5 3.8
-6 6 8 9.2 4.7
5 -6 -8 1727.03 136.09
5 -6 -8 1401.46 134.29
-5 6 8 1683.93 132.19
-5 6 8 1704.43 137.59
4 -6 -8 23.6 6.4
4 -6 -8 20.6 7.6
-4 6 8 30.5 7.8
-4 6 8 27.5 8.7
3 -6 -8 1038.3 86.89
3 -6 -8 998.1 84.89
-3 6 8 976.1 85.89
2 -6 -8 132.99 15.9
2 -6 -8 120.49 17.6
-2 6 8 140.59 17.3
1 -6 -8 309.47 33.5
1 -6 -8 381.86 34.2
-1 6 8 331.87 31.9
-1 6 8 338.17 35.9
0 -6 -8 138.49 17.1
0 -6 -8 163.78 15.8
0 6 8 128.39 16
0 6 8 147.19 16
-1 -6 -8 144.29 15
-1 -6 -8 120.29 15.1
6 -7 -8 12 2.9
-6 7 8 20.2 5.5
-6 7 8 4.6 3.4
5 -7 -8 40.1 7.8
-5 7 8 25.9 5.2
4 -7 -8 17.2 4.4
4 -7 -8 19.1 6.7
-4 7 8 14.2 4.3
3 -7 -8 162.08 16.4
3 -7 -8 153.28 18.1
-3 7 8 163.78 17.4
2 -7 -8 -3.1 3.6
2 -7 -8 2.3 3.1
-2 7 8 2.3 3.1
-2 7 8 -2.6 2.7
1 -7 -8 72.59 11.6
1 -7 -8 82.99 8.9
-1 7 8 71.59 9.3
-1 10 -9 -4.6 6.6
-1 10 -9 5 2.9
-2 10 -9 4.6 4.7
-2 10 -9 2.3 3.1
-3 10 -9 4.5 3.3
-3 10 -9 0.9 3.3
-4 10 -9 23.5 9
1 9 -9 14.7 9.7
0 9 -9 122.59 18.1
0 9 -9 179.68 29.4
-1 9 -9 25 17.7
-1 9 -9 27.8 9
-1 9 -9 83.29 28.4
-1 9 -9 39.3 9.7
-2 9 -9 54.19 10
-2 9 -9 95.59 16.3
-2 9 -9 83.99 17.9
-3 9 -9 77.39 11.9
-3 9 -9 67.09 12.4
-3 9 -9 86.79 15.9
-4 9 -9 26.7 7.2
-4 9 -9 18.8 6.4
-4 9 -9 18.1 5.9
-5 9 -9 87.89 13.8
-5 9 -9 68.89 12.5
-5 9 -9 95.39 14.1
-6 9 -9 7.4 4.4
-6 9 -9 -3.2 2.7
-6 9 -9 2.9 3
-3 -8 9 77.29 10.3
-2 -8 9 149.79 16.2
-2 -8 9 153.08 15.1
1 8 -9 136.19 17.6
1 8 -9 158.18 28.3
-1 -8 9 100.09 12.8
0 8 -9 366.56 41.4
0 8 -9 384.06 46.8
-1 8 -9 137.39 21.8
-1 8 -9 148.69 27.6
-1 8 -9 121.29 25.7
-1 8 -9 111.89 23.3
-2 8 -9 538.75 48.4
-2 8 -9 566.64 57.89
-2 8 -9 539.15 54.39
-2 8 -9 519.65 54.79
-2 8 -9 411.26 52.39
-2 8 -9 464.45 47.3
-2 8 -9 470.65 64.19
-2 8 -9 462.15 56.69
-3 8 -9 48.4 14.1
-3 8 -9 57.69 16.6
-3 8 -9 50.99 11.1
-3 8 -9 36.7 9.8
-3 8 -9 51.29 10.8
-3 8 -9 54.09 11.9
-3 8 -9 53.79 15.1
-3 8 -9 32.4 10.6
-3 8 -9 47 10.4
-4 8 -9 410.66 50.09
-4 8 -9 414.56 41.6
-4 8 -9 425.06 40.6
-4 8 -9 344.27 40.6
-5 8 -9 -2.2 4.1
-5 8 -9 3.2 3.8
-5 8 -9 -3 2.9
-5 8 -9 0.8 5.3
-6 8 -9 270.37 27.2
-6 8 -9 191.68 25
-6 8 -9 220.18 24.9
-7 8 -9 1.3 2
-7 8 -9 -1.5 2.2
4 7 -9 12.5 6.2
-4 -7 9 0.6 1.7
-3 -7 9 148.59 14
-3 -7 9 120.79 13.8
2 7 -9 68.99 22.3
2 7 -9 48 11.1
-2 -7 9 27.6 7.6
-2 -7 9 41.7 6.6
-2 -7 9 46.7 6.8
1 7 -9 325.87 35.9
1 7 -9 361.06 41.7
1 7 -9 289.47 32.4
-1 -7 9 305.57 29.1
-1 -7 9 327.77 29.5
0 7 -9 3 4.5
0 7 -9 9.1 9.8
0 7 -9 5.1 6.4
0 7 -9 -8.7 7.7
0 7 -9 6.5 4.6
0 7 -9 17.3 6.5
0 7 -9 12.7 8.6
0 -7 9 9.6 4
-1 7 -9 89.49 13.9
-1 7 -9 56.39 21.6
-1 7 -9 78.09 12.9
-1 7 -9 56.59 11.6
-1 7 -9 61.19 18.3
-1 7 -9 78.09 19.4
-1 7 -9 76.49 15.7
-1 7 -9 89.39 17.4
-1 7 -9 68.49 21.6
-2 7 -9 12.2 5.9
-2 7 -9 8.7 5.8
-2 7 -9 10.9 6.6
-2 7 -9 17.2 8.4
-2 7 -9 14.9 9.4
-2 7 -9 1.9 3.9
-2 7 -9 12.1 9.8
-2 7 -9 8.2 7.6
-2 7 -9 6.1 4.5
-2 7 -9 19.1 11.4
-2 7 -9 9.9 5.5
-3 7 -9 105.19 19.3
-3 7 -9 86.49 18.9
-3 7 -9 153.08 26.3
-3 7 -9 125.39 21.7
-3 7 -9 92.39 21.1
-3 7 -9 105.09 17.2
-3 7 -9 80.39 15.1
-3 7 -9 131.99 23.6
-3 7 -9 100.79 24.5
-4 7 -9 0.4 5.5
-4 7 -9 6.3 3.8
-4 7 -9 -5.6 4.7
-4 7 -9 -2.6 7.9
-4 7 -9 3.5 6.3
-4 7 -9 4.3 5.9
-4 7 -9 4.1 3.6
-4 7 -9 4.7 9.1
-5 7 -9 8.9 6.8
-5 7 -9 9.5 8
-5 7 -9 10.4 7.5
-5 7 -9 6.1 4.2
-5 7 -9 11.7 6.3
5 -7 9 18.9 4.3
-6 7 -9 3.8 4.4
-6 7 -9 10.4 6.2
-6 7 -9 6.5 7.6
-6 7 -9 2.6 4.6
6 -7 9 16.9 5.3
6 -7 9 10.3 3.2
-7 7 -9 -1.1 3.5
-7 7 -9 16 8.8
-7 7 -9 6.8 3.8
7 -7 9 4.1 2.6
5 6 -9 57.29 14
-5 -6 9 29.5 6.1
-4 -6 9 263.57 27.6
-4 -6 9 309.57 27.4
-4 -6 9 348.57 27.7
3 6 -9 102.39 23.8
3 6 -9 96.89 15.9
-3 -6 9 92.99 11.1
-3 -6 9 82.39 10.9
-3 -6 9 103.49 11
2 6 -9 730.23 66.69
2 6 -9 687.13 67.69
2 6 -9 636.34 59.39
2 6 -9 578.44 58.49
-2 -6 9 584.04 53.79
1 6 -9 317.47 41.7
1 6 -9 299.97 34.2
1 6 -9 311.17 36.9
1 6 -9 299.77 40.8
1 6 -9 252.87 42
1 6 -9 295.47 32.1
1 6 -9 241.18 32.1
-1 -6 9 354.46 28.2
-1 -6 9 287.07 30.4
0 6 -9 1605.04 127.99
0 6 -9 1181.48 119.89
0 6 -9 1325.07 123.79
0 6 -9 1387.76 138.79
0 6 -9 1370.36 120.39
0 6 -9 1525.35 121.59
0 6 -9 1528.95 128.39
0 -6 9 1397.56 118.59
-1 6 -9 498.35 49.7
-1 6 -9 484.45 49
-1 6 -9 504.05 54.89
-1 6 -9 601.24 50.29
-1 6 -9 517.25 52.29
-1 6 -9 455.85 53.09
-1 6 -9 423.66 59.49
-1 6 -9 564.64 49.99
-1 6 -9 496.15 51.79
-2 6 -9 940.31 82.19
-2 6 -9 836.02 72.89
-2 6 -9 730.33 70.79
-2 6 -9 646.44 69.79
-2 6 -9 825.02 71.59
-2 6 -9 803.12 71.99
-2 6 -9 859.91 83.59
-2 6 -9 835.22 74.69
-2 6 -9 768.42 74.79
-2 6 -9 688.83 73.29
-3 6 -9 842.82 81.59
-3 6 -9 1032.3 85.09
-3 6 -9 936.81 84.69
-3 6 -9 919.51 90.89
-3 6 -9 842.72 82.19
-3 6 -9 946.91 84.89
-3 6 -9 1005.4 84.49
-3 6 -9 941.81 83.19
-3 6 -9 835.42 96.19
-4 6 -9 106.19 15.5
-4 6 -9 86.89 18.8
-4 6 -9 95.69 16.3
-4 6 -9 75.99 15.4
-4 6 -9 76.59 20.8
-4 6 -9 69.89 25.6
-4 6 -9 63.69 19
-4 6 -9 106.29 22.7
-4 6 -9 102.89 16.3
4 -6 9 94.99 10.6
-5 6 -9 559.74 51.79
-5 6 -9 423.26 50.49
-5 6 -9 554.74 57.39
-5 6 -9 528.95 50.69
-5 6 -9 502.25 49.99
5 -6 9 452.85 49.9
-6 6 -9 165.48 24.1
-6 6 -9 188.88 24.5
6 -6 9 255.37 21.6
6 -6 9 221.68 20.6
6 -6 9 221.18 20.3
-7 6 -9 337.67 37.5
7 -6 9 378.86 31.5
7 -6 9 359.86 33.6
-5 -5 9 329.57 26.8
-5 -5 9 273.37 26.3
-5 -5 9 292.37 27.3
4 5 -9 440.96 48.3
4 5 -9 312.07 38.7
-4 -5 9 372.86 33.5
-4 -5 9 386.06 33.6
-4 -5 9 387.16 38.7
-4 -5 9 397.06 34.4
3 5 -9 429.56 56.79
3 5 -9 424.46 45.1
3 5 -9 327.07 53.39
3 5 -9 410.06 42
3 5 -9 351.36 44.2
-3 -5 9 394.36 36.3
-3 -5 9 454.15 36.5
-3 -5 9 411.66 38.8
-3 -5 9 455.05 37.1
2 5 -9 1012 98.49
2 5 -9 1028.1 109.79
2 5 -9 935.61 94.59
2 5 -9 1207.68 105.19
-2 -5 9 1155.48 89.89
-2 -5 9 1108.19 92.49
-2 -5 9 1157.28 89.39
1 5 -9 282.07 41.1
1 5 -9 254.57 30
1 5 -9 302.87 31.6
1 5 -9 318.27 35.2
1 5 -9 324.07 36.2
1 5 -9 221.48 35.7
1 5 -9 293.57 32.6
1 5 -9 230.38 37.4
-1 -5 9 331.57 26.2
0 5 -9 3209.98 232.38
0 5 -9 2686.13 223.68
0 5 -9 2356.56 242.48
0 5 -9 2910.71 223.68
0 5 -9 2597.44 228.38
0 5 -9 2888.71 226.48
0 5 -9 2363.56 228.28
-1 5 -9 1.3 8
-1 5 -9 12.6 9.4
-1 5 -9 5.5 6.3
-1 5 -9 19.8 6.7
-1 5 -9 1.4 4.6
-1 5 -9 2.3 9.5
-1 5 -9 10 5.6
-1 5 -9 11 5.8
-1 5 -9 4.7 6.8
-1 5 -9 7.3 4.8
-1 5 -9 5.9 5
-1 5 -9 1.1 4.9
-1 5 -9 5.7 5.1
1 -5 9 4.7 4.2
-2 5 -9 1298.77 108.69
-2 5 -9 1400.06 122.59
-2 5 -9 1197.58 109.59
-2 5 -9 1334.17 108.89
-2 5 -9 1206.68 108.39
-2 5 -9 1423.26 116.79
-2 5 -9 1291.07 108.09
-2 5 -9 1069.49 108.29
-2 5 -9 1366.56 108.69
-2 5 -9 1007.8 112.49
2 -5 9 1386.56 100.89
2 -5 9 1080.29 105.09
-3 5 -9 151.28 21.3
-3 5 -9 186.48 23.2
-3 5 -9 190.88 24.6
-3 5 -9 230.08 30.1
-3 5 -9 173.58 23.4
-3 5 -9 204.18 26.9
-3 5 -9 194.98 28.9
-3 5 -9 202.28 23.8
-3 5 -9 183.58 34.3
-3 5 -9 209.48 24.6
-4 5 -9 644.74 61.79
-4 5 -9 519.95 56.69
-4 5 -9 566.24 58.39
-4 5 -9 558.84 57.19
-4 5 -9 529.75 57.89
-4 5 -9 660.43 58.19
-4 5 -9 657.53 58.59
4 -5 9 674.23 58.29
-5 5 -9 -0.7 3.4
-5 5 -9 13.8 5.3
-5 5 -9 5.3 5.2
-5 5 -9 6 4.5
-5 5 -9 7.7 7.5
-5 5 -9 2.2 7.9
5 -5 9 0.5 3
5 -5 9 2.2 2.6
5 -5 9 -0.6 3.5
5 -5 9 0.5 6
-6 5 -9 249.78 29.9
-6 5 -9 260.47 29.7
-6 5 -9 251.87 33.7
6 -5 9 275.37 29.4
6 -5 9 301.87 25.9
-7 5 -9 30.9 9.6
-7 5 -9 31.8 7
-7 5 -9 26.9 7.1
-7 5 -9 24.5 6.1
7 -5 9 45.2 5.9
7 -5 9 32.8 6.8
7 -5 9 40.4 5.7
-6 -4 9 312.17 30.3
-6 -4 9 365.76 29.6
5 4 -9 80.49 15.8
5 4 -9 67.89 13.1
-5 -4 9 64.39 8.3
-5 -4 9 53.19 7.7
-5 -4 9 67.99 14.7
-5 -4 9 55.59 9.7
4 4 -9 381.16 41.5
4 4 -9 429.26 43.7
4 4 -9 428.76 47.4
4 4 -9 458.15 51.39
-4 -4 9 426.56 39
-4 -4 9 423.86 36.7
-4 -4 9 407.16 36.6
-4 -4 9 441.96 37.6
-4 -4 9 367.46 37.9
3 4 -9 487.15 54.99
3 4 -9 428.26 48.5
3 4 -9 400.86 44.8
3 4 -9 399.56 43.2
3 4 -9 424.96 52.79
3 4 -9 384.96 46.2
-3 -4 9 413.96 37.7
-3 -4 9 492.45 38.2
-3 -4 9 465.65 38.7
2 4 -9 536.25 60.09
2 4 -9 471.55 58.49
2 4 -9 534.55 54.29
2 4 -9 501.85 51.09
-2 -4 9 586.04 45.7
-2 -4 9 563.64 46.1
1 4 -9 41.6 13.8
1 4 -9 39.5 17.3
1 4 -9 30.2 13.5
1 4 -9 28.4 10.8
1 4 -9 34.7 10.4
1 4 -9 40.5 10.3
-1 -4 9 40.2 6.1
-1 -4 9 43.5 5.8
0 4 -9 356.06 39.2
0 4 -9 304.87 32.2
0 4 -9 243.78 34.5
0 4 -9 310.77 32.6
0 4 -9 287.37 35.9
0 4 -9 342.57 34.8
0 4 -9 307.57 32.7
0 -4 9 318.27 30.9
0 -4 9 348.87 29
0 -4 9 321.77 30.8
-1 4 -9 144.29 22.7
-1 4 -9 103.39 16.3
-1 4 -9 136.39 16.6
-1 4 -9 119.79 17.5
-1 4 -9 134.39 17.1
-1 4 -9 117.09 16.1
-1 4 -9 81.99 28.1
-1 4 -9 83.49 18.3
-1 4 -9 108.79 15.4
-1 4 -9 88.99 18.1
1 -4 9 113.79 14.7
1 -4 9 137.29 11.8
1 -4 9 109.69 20.2
-2 4 -9 201.98 42.7
-2 4 -9 253.77 34.9
-2 4 -9 303.77 30.7
-2 4 -9 252.77 31.7
-2 4 -9 252.27 30.1
-2 4 -9 320.67 41.5
-2 4 -9 280.27 32.5
-2 4 -9 309.77 36
-3 4 -9 700.43 62.29
-3 4 -9 711.43 60.39
-3 4 -9 552.84 61.29
-3 4 -9 617.84 60.39
-3 4 -9 573.44 58.89
-3 4 -9 699.43 61.49
-4 4 -9 203.58 27.1
-4 4 -9 225.48 28.8
-4 4 -9 290.87 28.6
-4 4 -9 223.98 27.7
-4 4 -9 253.67 30
-5 4 -9 179.48 24.3
-5 4 -9 155.88 21.1
5 -4 9 188.48 19.1
5 -4 9 191.08 19.6
5 -4 9 190.18 23.4
5 -4 9 182.88 18.2
-6 4 -9 0.4 3.2
-6 4 -9 0.6 4.7
-6 4 -9 7.9 5.8
-6 4 -9 -5.8 3.9
-6 4 -9 2.9 4.4
6 -4 9 2.1 8.2
6 -4 9 -1.5 3
6 -4 9 3.3 4.2
6 -4 9 1.9 2.5
6 -4 9 4.4 3
-7 4 -9 42.3 9.4
7 -4 9 53.59 8
7 -4 9 61.39 8.5
7 3 -9 68.09 9.2
7 3 -9 91.79 11.7
-7 -3 9 75.69 9.9
-7 -3 9 71.79 7.7
6 3 -9 44.7 11.4
6 3 -9 47.5 11.4
-6 -3 9 43.1 6.5
-6 -3 9 34.3 6.3
-6 -3 9 49.1 9.7
-6 -3 9 40.8 6
5 3 -9 386.06 34.9
5 3 -9 363.86 42.9
5 3 -9 356.46 39.5
-5 -3 9 353.26 32.8
-5 -3 9 367.86 32.1
-5 -3 9 327.77 33.5
-5 -3 9 364.86 32.2
4 3 -9 521.55 54.29
4 3 -9 431.26 45.1
4 3 -9 476.05 48
4 3 -9 447.06 49.8
4 3 -9 531.05 51.59
4 3 -9 466.05 54.79
-4 -3 9 465.05 43.7
-4 -3 9 536.45 42.3
-4 -3 9 518.25 42.3
-4 -3 9 453.25 45.8
3 3 -9 1138.79 110.29
3 3 -9 1158.98 102.69
3 3 -9 1215.28 110.19
3 3 -9 1094.59 111.39
3 3 -9 1299.97 98.89
3 3 -9 1073.29 103.39
3 3 -9 1204.78 112.19
-3 -3 9 1113.49 98.49
-3 -3 9 1275.87 97.29
-3 -3 9 1141.79 96.29
-3 -3 9 1231.98 102.29
2 3 -9 1602.64 139.69
2 3 -9 1566.94 132.99
2 3 -9 1588.84 153.48
2 3 -9 1612.94 137.69
2 3 -9 1453.75 139.69
-2 -3 9 1715.73 129.09
1 3 -9 905.61 90.89
1 3 -9 981.9 84.59
1 3 -9 967.6 83.69
1 3 -9 938.71 88.39
1 3 -9 859.81 98.59
-1 -3 9 1033.6 79.69
-1 -3 9 1007.5 82.89
-1 -3 9 1021.7 82.99
0 3 -9 2163.28 181.58
0 3 -9 2040.7 181.98
0 3 -9 2248.48 188.38
0 3 -9 2081.59 181.28
0 3 -9 2102.99 180.68
0 -3 9 2326.97 176.18
0 -3 9 2367.46 180.98
0 -3 9 2234.68 180.18
0 -3 9 2249.87 176.18
-1 3 -9 723.93 65.59
-1 3 -9 736.83 65.59
-1 3 -9 695.93 65.29
-1 3 -9 654.63 66.09
-1 3 -9 719.23 73.49
-1 3 -9 668.13 65.39
1 -3 9 748.03 61.89
1 -3 9 813.42 66.59
1 -3 9 731.83 60.99
1 -3 9 841.62 67.99
-2 3 -9 3834.42 296.47
-2 3 -9 3587.44 303.57
-2 3 -9 3450.25 297.27
-2 3 -9 3640.94 296.57
-2 3 -9 3323.17 296.87
-2 3 -9 3510.95 296.77
-2 3 -9 3854.21 309.37
2 -3 9 4056.49 292.37
-3 3 -9 8.7 5.8
-3 3 -9 24.7 7.3
-3 3 -9 5.5 5.8
-3 3 -9 7.6 6.4
-3 3 -9 -0.4 9.1
-3 3 -9 3.8 10.4
3 -3 9 9.4 3.8
3 -3 9 6.3 6.6
3 -3 9 9.5 3.4
-4 3 -9 1336.47 122.69
-4 3 -9 1463.45 124.99
-4 3 -9 1332.47 123.69
-4 3 -9 1450.85 120.89
4 -3 9 1532.55 116.89
-5 3 -9 17.3 6.5
-5 3 -9 33.5 11.2
-5 3 -9 17.6 8
-5 3 -9 20.5 8
-5 3 -9 16.5 9
-5 3 -9 13.8 5.9
5 -3 9 5.3 4.9
5 -3 9 24.4 5.4
5 -3 9 19.3 7.5
5 -3 9 14.1 4.5
5 -3 9 26.4 6
-6 3 -9 218.28 27.5
-6 3 -9 180.88 24.9
6 -3 9 191.78 20.7
6 -3 9 154.28 23.8
6 -3 9 218.68 19.9
6 -3 9 206.98 19.3
-7 3 -9 5.3 4
-7 3 -9 11.9 5.4
7 -3 9 9.9 3.3
7 2 -9 3.1 2.5
7 2 -9 12.5 8.1
7 2 -9 1.4 3.6
-7 -2 9 -1 1.2
-7 -2 9 5.7 2.9
-7 -2 9 2.1 1.8
6 2 -9 114.89 17.2
6 2 -9 131.99 15.5
6 2 -9 129.59 20
-6 -2 9 110.39 12.6
-6 -2 9 112.19 12.4
-6 -2 9 118.29 14.4
5 2 -9 91.39 16.6
5 2 -9 96.89 17.1
5 2 -9 94.79 17.3
5 2 -9 137.79 24.4
5 2 -9 104.39 20.3
-5 -2 9 79.29 13.6
-5 -2 9 97.49 11.9
-5 -2 9 114.69 11.7
4 2 -9 312.67 37.5
4 2 -9 302.67 36.1
4 2 -9 286.77 38.8
4 2 -9 264.87 30.6
4 2 -9 260.57 31.5
4 2 -9 337.27 33.7
4 2 -9 288.77 34.5
-4 -2 9 304.47 27.4
-4 -2 9 319.97 28.4
-4 -2 9 322.07 29.1
-4 -2 9 319.27 27.6
3 2 -9 543.95 56.99
3 2 -9 444.16 47.4
3 2 -9 531.95 49.7
3 2 -9 531.85 56.89
3 2 -9 465.35 51.39
3 2 -9 567.44 58.89
-3 -2 9 535.35 44.3
-3 -2 9 512.65 44.2
-3 -2 9 555.74 45.1
-3 -2 9 528.65 47.1
-3 -2 9 496.15 45.5
2 2 -9 231.58 24.7
2 2 -9 242.58 24.4
2 2 -9 215.88 31.8
2 2 -9 236.78 28.5
2 2 -9 240.98 29.4
2 2 -9 257.57 34.7
2 2 -9 252.17 25.9
2 2 -9 219.38 24.1
-2 -2 9 243.58 21.5
-2 -2 9 236.98 24.5
-2 -2 9 210.78 21.6
-2 -2 9 229.08 21.8
1 2 -9 581.64 64.69
1 2 -9 690.23 60.79
1 2 -9 824.42 69.29
1 2 -9 624.34 67.19
1 2 -9 701.33 61.79
1 2 -9 649.04 59.69
-1 -2 9 733.53 61.99
-1 -2 9 720.83 62.29
-1 -2 9 786.62 58.49
0 2 -9 20 10.1
0 2 -9 38.4 8.9
0 2 -9 24.9 7.2
0 2 -9 37.9 9.2
0 2 -9 27.7 7.6
0 2 -9 27.9 7.3
0 2 -9 34 11.1
0 2 -9 37.8 5.7
0 -2 9 28.5 8.5
0 -2 9 32.6 5.5
0 -2 9 33.2 8.1
0 -2 9 27 7.5
-1 2 -9 209.18 19
-1 2 -9 219.08 28.6
-1 2 -9 200.88 22.3
-1 2 -9 194.38 22.3
-1 2 -9 194.88 22.3
-1 2 -9 162.88 23.8
-1 2 -9 190.78 23.1
-1 2 -9 207.78 20.8
1 -2 9 195.68 19.6
1 -2 9 214.78 24.7
1 -2 9 194.78 19
-2 2 -9 400.36 45.8
-2 2 -9 416.46 39.2
-2 2 -9 363.16 36.7
-2 2 -9 387.76 41
-2 2 -9 403.06 39.9
-2 2 -9 436.76 35.8
-2 2 -9 409.76 40.2
2 -2 9 442.06 36.6
2 -2 9 348.17 36.1
2 -2 9 436.36 37.1
2 -2 9 415.66 40.1
-3 2 -9 -0.1 8
-3 2 -9 14.4 5.5
-3 2 -9 0 4.2
-3 2 -9 11.1 4.8
-3 2 -9 5.5 3.6
-3 2 -9 6 14.4
-3 2 -9 3 5.2
-3 2 -9 14.7 6.9
3 -2 9 0.5 6.6
3 -2 9 10.9 4.1
3 -2 9 4.1 2.9
3 -2 9 -0.1 5
3 -2 9 3.8 4
-4 2 -9 216.88 25.8
-4 2 -9 209.38 25.9
-4 2 -9 259.27 28
-4 2 -9 193.48 21.4
-4 2 -9 177.48 21.6
-4 2 -9 188.28 21.9
-4 2 -9 248.88 37.4
4 -2 9 198.28 25
4 -2 9 201.18 24.2
4 -2 9 198.58 20.3
4 -2 9 170.78 21.5
4 -2 9 245.08 21.6
-5 2 -9 31.9 9.3
-5 2 -9 37.7 11.6
-5 2 -9 24.4 9.8
-5 2 -9 19.7 6.5
5 -2 9 29.3 7.1
5 -2 9 33.8 6.4
5 -2 9 36.5 6.5
5 -2 9 28.7 8.9
5 -2 9 35.3 6.6
-6 2 -9 95.89 15.1
-6 2 -9 71.59 12.5
-6 2 -9 48.1 9.3
6 -2 9 67.29 8.6
6 -2 9 64.29 9.2
6 -2 9 65.29 10.1
6 -2 9 64.39 8.4
-7 2 -9 0 2
-7 2 -9 2.4 2.7
7 -2 9 2.5 1.6
7 -2 9 4.4 2.3
7 -2 9 -0.8 2.1
8 1 -9 11.6 3.8
-8 -1 9 21.8 4.8
7 1 -9 43.7 11.8
7 1 -9 25.4 8.7
-7 -1 9 19.7 4
-7 -1 9 20.5 5.6
-7 -1 9 23 5.7
-7 -1 9 46 11.7
6 1 -9 109.19 16.4
6 1 -9 107.19 20.6
6 1 -9 102.99 14.9
-6 -1 9 116.89 12.7
-6 -1 9 119.89 12.5
-6 -1 9 117.59 13.7
-6 -1 9 92.09 11.9
5 1 -9 44.7 11.2
5 1 -9 48.9 11.7
5 1 -9 45 11.4
5 1 -9 62.09 13.7
5 1 -9 44.1 13.2
5 1 -9 65.09 13
-5 -1 9 58.79 10.7
-5 -1 9 60.39 8.5
-5 -1 9 50.29 7.6
-5 -1 9 60.59 8.2
-5 -1 9 59.29 9.3
4 1 -9 335.07 38.3
4 1 -9 355.46 41
4 1 -9 310.57 35.4
4 1 -9 372.86 41.8
4 1 -9 356.46 36.5
-4 -1 9 370.26 32.9
-4 -1 9 363.26 36.7
-4 -1 9 384.76 32.1
-4 -1 9 353.76 33.2
3 1 -9 154.88 23
3 1 -9 150.28 20.5
3 1 -9 133.29 25.5
3 1 -9 149.29 18.1
3 1 -9 151.08 18.7
-3 -1 9 125.39 14.4
-3 -1 9 142.99 17.2
-3 -1 9 149.19 14.7
-3 -1 9 139.59 15.1
2 1 -9 199.98 25.2
2 1 -9 245.38 23.5
2 1 -9 238.38 29
2 1 -9 206.68 30
2 1 -9 209.98 26.2
2 1 -9 219.38 22.9
2 1 -9 221.98 22.6
-2 -1 9 191.78 20.5
-2 -1 9 208.48 20.2
-2 -1 9 170.98 19.1
-2 -1 9 209.38 19.6
-2 -1 9 198.18 22.7
1 1 -9 625.74 55.49
1 1 -9 661.63 56.89
1 1 -9 550.14 57.59
1 1 -9 677.13 70.99
1 1 -9 649.04 61.59
1 1 -9 664.13 61.69
1 1 -9 669.03 55.49
-1 -1 9 597.44 56.49
-1 -1 9 587.34 57.09
-1 -1 9 600.64 53.39
-1 -1 9 671.23 53.29
0 1 -9 76.29 21.5
0 1 -9 48.9 9.8
0 1 -9 52.89 14.4
0 1 -9 49.99 9.3
0 1 -9 43.8 9.1
0 1 -9 56.29 9.3
0 1 -9 48.2 12.6
0 1 -9 57.39 8.6
0 -1 9 57.59 8.1
0 -1 9 52.59 9.9
0 -1 9 47.9 10.5
0 -1 9 56.69 7.8
-1 1 -9 343.37 30.5
-1 1 -9 306.97 32.2
-1 1 -9 370.66 44.1
-1 1 -9 320.47 32
-1 1 -9 336.37 32.2
-1 1 -9 302.47 30.6
1 -1 9 331.37 30.1
1 -1 9 289.77 30.8
1 -1 9 296.07 32.6
1 -1 9 341.57 29.5
1 -1 9 262.57 28.7
1 -1 9 333.17 35
-2 1 -9 268.37 29.2
-2 1 -9 281.77 33.1
-2 1 -9 267.47 25.7
-2 1 -9 304.87 33.9
-2 1 -9 267.67 27.5
2 -1 9 206.78 27.8
2 -1 9 245.88 26.3
2 -1 9 260.97 24.3
2 -1 9 211.08 23.1
2 -1 9 201.88 26.5
2 -1 9 236.28 24.6
-3 1 -9 173.98 22
-3 1 -9 168.28 20.3
-3 1 -9 170.38 22.1
-3 1 -9 178.48 20.5
3 -1 9 164.98 18.1
3 -1 9 186.88 22.6
3 -1 9 200.38 20
3 -1 9 186.08 19
3 -1 9 170.88 20.2
-4 1 -9 106.29 16.4
-4 1 -9 122.29 17.3
-4 1 -9 108.29 16.2
-4 1 -9 105.79 16.4
-4 1 -9 138.39 25
4 -1 9 111.89 13.8
4 -1 9 77.09 12.6
4 -1 9 113.29 12.9
4 -1 9 89.59 18.7
-5 1 -9 31.3 8.9
-5 1 -9 36.1 11.9
-5 1 -9 46.7 10
-5 1 -9 32.7 7.5
5 -1 9 21.6 5.9
5 -1 9 36.4 6.9
5 -1 9 35.3 6.2
5 -1 9 19.6 10.5
5 -1 9 32.6 6
-6 1 -9 2.4 3.2
-6 1 -9 13.9 5.9
-6 1 -9 3.6 3.3
-6 1 -9 1.3 3.2
6 -1 9 7.9 2.8
6 -1 9 1.9 3.1
6 -1 9 2.1 3.5
6 -1 9 2.5 2.1
8 0 -9 1.9 3
8 0 -9 1.2 2.6
-8 0 9 0.5 2.2
7 0 -9 453.25 44.2
7 0 -9 485.95 43.7
-7 0 9 461.45 39.3
-7 0 9 459.35 41.3
6 0 -9 54.29 10.7
6 0 -9 56.29 11.3
-6 0 9 53.59 7.9
-6 0 9 34.5 6.3
-6 0 9 44.1 8.7
5 0 -9 1195.08 97.39
5 0 -9 1113.59 93.19
5 0 -9 1009.2 97.19
5 0 -9 1020.4 93.49
-5 0 9 1112.19 88.89
-5 0 9 1108.19 90.29
-5 0 9 900.51 94.09
-5 0 9 1139.69 88.79
4 0 -9 311.37 33.8
4 0 -9 310.37 30.5
4 0 -9 264.47 33.5
4 0 -9 312.27 31.2
4 0 -9 293.67 34.4
-4 0 9 272.97 27.2
-4 0 9 277.37 26.7
-4 0 9 229.48 28.3
-4 0 9 289.57 27.1
3 0 -9 613.44 52.99
3 0 -9 605.24 55.99
3 0 -9 607.44 53.69
-3 0 9 529.55 52.49
-3 0 9 548.25 49.6
-3 0 9 552.84 50.69
2 0 -9 23.5 8.2
2 0 -9 43.9 11.9
2 0 -9 34.3 8.2
2 0 -9 35.5 8.1
2 0 -9 29.3 8.3
2 0 -9 45.8 12.6
-2 0 9 37 8.1
-2 0 9 29.6 5.8
-2 0 9 39.6 6.2
-2 0 9 24.1 5.3
-2 0 9 23.2 6.6
1 0 -9 838.72 71.29
1 0 -9 852.41 75.99
1 0 -9 882.91 71.39
1 0 -9 825.72 71.09
1 0 -9 954.7 77.09
-1 0 9 751.82 68.69
-1 0 9 820.62 68.39
-1 0 9 687.03 67.69
-1 0 9 729.73 69.09
-1 0 9 882.71 73.69
0 0 -9 298.77 29.8
0 0 -9 311.17 30
0 0 -9 342.97 35.8
0 0 -9 314.77 30
0 0 9 257.37 27.4
0 0 9 292.07 29.2
0 0 9 278.87 32
0 0 9 292.57 27.7
0 0 9 288.17 28.3
-1 0 -9 1366.76 115.49
-1 0 -9 1619.44 144.99
-1 0 -9 1364.46 115.09
-1 0 -9 1432.06 116.09
1 0 9 1336.87 113.79
1 0 9 1420.66 113.29
1 0 9 1226.98 112.49
1 0 9 1357.56 115.19
1 0 9 1321.17 116.09
-2 0 -9 504.15 47.4
-2 0 -9 530.85 51.39
-2 0 -9 526.35 47.8
-2 0 -9 518.65 47.3
-2 0 -9 498.05 46.9
2 0 9 467.35 53.19
2 0 9 519.15 47.3
2 0 9 495.35 44.1
2 0 9 507.55 45.5
2 0 9 413.06 47.7
2 0 9 496.95 46.5
-3 0 -9 982.4 82.19
-3 0 -9 933.21 80.99
-3 0 -9 1009 82.49
-3 0 -9 968.3 82.29
3 0 9 766.22 81.89
3 0 9 926.51 84.59
3 0 9 919.61 77.59
3 0 9 958.4 78.29
3 0 9 879.81 80.19
-4 0 -9 165.68 20.2
-4 0 -9 145.19 19.8
-4 0 -9 202.18 28.7
-4 0 -9 134.49 18.5
4 0 9 147.49 17.3
4 0 9 128.59 15.7
4 0 9 163.78 16.8
4 0 9 165.48 21.2
4 0 9 160.88 18.5
-5 0 -9 284.67 28.4
-5 0 -9 263.37 27
-5 0 -9 259.67 29.1
5 0 9 301.47 26.9
5 0 9 244.18 23.9
5 0 9 281.07 24.1
5 0 9 212.88 24.6
-6 0 -9 78.99 10.6
-6 0 -9 73.79 14.1
6 0 9 86.59 10.1
6 0 9 94.39 9.3
8 -1 -9 0.9 2.2
8 -1 -9 -0.9 2.6
-8 1 9 1.7 2.5
7 -1 -9 -0.7 3.6
7 -1 -9 1.8 3.6
-7 1 9 -0.7 2.2
-7 1 9 2.7 2.5
-7 1 9 2.8 3.3
-7 1 9 12.3 6.2
6 -1 -9 84.09 14.9
6 -1 -9 98.09 15.2
-6 1 9 107.19 14.3
-6 1 9 105.89 11.5
-6 1 9 89.59 10.8
-6 1 9 103.89 13.1
5 -1 -9 -3.8 4.5
5 -1 -9 -1.5 5.3
5 -1 -9 8.6 8.3
5 -1 -9 -1.4 4.2
-5 1 9 -0.3 2.6
-5 1 9 1.2 3.3
-5 1 9 0.5 1.7
-5 1 9 0.6 2.1
-5 1 9 5.1 4.6
4 -1 -9 -3.9 4
4 -1 -9 13.8 6.8
4 -1 -9 -2.8 4.9
4 -1 -9 8.4 9
4 -1 -9 8.3 5.5
4 -1 -9 5.2 5.1
-4 1 9 3.6 2.7
-4 1 9 3.4 2.5
-4 1 9 2 3
3 -1 -9 162.88 19.6
3 -1 -9 141.49 19
3 -1 -9 173.28 20.6
3 -1 -9 185.28 19.4
3 -1 -9 133.59 17.1
-3 1 9 132.89 18
-3 1 9 147.89 15.2
-3 1 9 131.89 16.3
-3 1 9 114.29 14.8
-3 1 9 139.39 15.9
2 -1 -9 1120.99 100.79
2 -1 -9 1051.29 96.49
2 -1 -9 1356.26 102.99
2 -1 -9 1219.68 100.39
2 -1 -9 1235.78 99.49
-2 1 9 1115.79 94.79
-2 1 9 1108.99 96.59
-2 1 9 1074.29 97.19
-2 1 9 1085.59 99.69
-2 1 9 1168.18 96.09
1 -1 -9 522.85 47.9
1 -1 -9 548.95 46.4
1 -1 -9 553.54 51.39
-1 1 9 497.75 44.5
-1 1 9 489.65 46.1
-1 1 9 473.15 48.9
-1 1 9 461.55 44.6
0 -1 -9 310.87 32.1
0 -1 -9 317.27 32.6
0 -1 -9 313.87 31.3
0 1 9 315.17 29.8
0 1 9 321.27 31
0 1 9 349.47 35.9
0 1 9 291.37 29.4
0 1 9 317.67 34.8
-1 -1 -9 20.7 10.9
-1 -1 -9 9.7 5.9
-1 -1 -9 23.7 12.2
1 1 9 19.2 7
1 1 9 17.2 5.3
1 1 9 32.3 13.3
1 1 9 20.8 5.7
1 1 9 13.1 4.8
1 1 9 19.2 8.2
-2 -1 -9 4.9 9.5
-2 -1 -9 2.3 6.7
-2 -1 -9 10.6 5.3
-2 -1 -9 11.9 6.2
-2 -1 -9 6.7 7.6
-2 -1 -9 3.6 4.6
2 1 9 6.4 4.4
2 1 9 6.3 3.7
2 1 9 2.3 3.5
2 1 9 15 7.4
2 1 9 13.4 5
-3 -1 -9 195.18 20.9
-3 -1 -9 176.18 21.7
-3 -1 -9 161.38 23.6
-3 -1 -9 191.68 21
3 1 9 186.68 18.6
3 1 9 182.48 23.2
3 1 9 148.39 18.6
3 1 9 197.38 21.4
3 1 9 154.68 18
-4 -1 -9 82.59 12
-4 -1 -9 59.79 10.2
-4 -1 -9 62.89 10.6
4 1 9 57.49 8.9
4 1 9 70.29 9
4 1 9 59.79 8.2
4 1 9 58.69 12.8
4 1 9 70.19 11.2
-5 -1 -9 158.98 17.2
5 1 9 147.59 13.8
5 1 9 152.08 16.4
8 -2 -9 20.2 5.9
8 -2 -9 22.7 5
-8 2 9 16.6 4.2
-8 2 9 9.8 6.2
7 -2 -9 5.3 3.8
-7 2 9 3.6 3.3
-7 2 9 2.4 2.5
-7 2 9 0 3.9
6 -2 -9 10 5.4
6 -2 -9 3.4 5.9
6 -2 -9 10.6 5.9
-6 2 9 4 3.2
-6 2 9 20.7 5.9
-6 2 9 12.9 3.9
-6 2 9 12.2 4.7
5 -2 -9 501.65 48.5
5 -2 -9 449.66 51.09
5 -2 -9 516.45 49.5
5 -2 -9 492.25 46
5 -2 -9 493.65 47.3
-5 2 9 464.85 40.4
-5 2 9 457.85 41.6
-5 2 9 426.56 44.7
-5 2 9 425.36 40.2
-5 2 9 446.26 42.1
4 -2 -9 45.4 10.2
4 -2 -9 74.69 14.8
4 -2 -9 37 8.9
4 -2 -9 37.2 9.9
4 -2 -9 31.9 8.9
-4 2 9 45 9.2
-4 2 9 47.2 7.1
-4 2 9 36.8 8.7
-4 2 9 45.7 7.3
3 -2 -9 29.5 8.6
3 -2 -9 30.9 11.5
3 -2 -9 31.9 8
3 -2 -9 36.5 9.3
3 -2 -9 35.1 9.5
3 -2 -9 29.5 8
-3 2 9 20.9 7.7
-3 2 9 33.6 6.2
-3 2 9 34.5 9.3
-3 2 9 42 7.3
-3 2 9 31.9 6.1
2 -2 -9 195.88 24.8
2 -2 -9 205.48 30.4
2 -2 -9 184.98 24.4
2 -2 -9 230.78 24.2
2 -2 -9 245.58 22.8
2 -2 -9 248.28 23.1
-2 2 9 197.78 20.6
-2 2 9 205.08 21.7
-2 2 9 156.68 24.9
-2 2 9 202.68 22.6
-2 2 9 168.68 31.9
1 -2 -9 201.38 21.8
1 -2 -9 183.08 23
1 -2 -9 190.68 22.2
1 -2 -9 192.08 24.7
-1 2 9 178.98 20.6
-1 2 9 194.18 19.8
-1 2 9 169.58 27.8
-1 2 9 190.58 21.4
0 -2 -9 25.8 7.5
0 -2 -9 13 7.4
0 -2 -9 17.9 5.7
0 -2 -9 28.7 7.9
0 -2 -9 15.4 7.9
0 2 9 21.9 8.4
0 2 9 12.1 6.1
0 2 9 14.9 5.1
0 2 9 10.4 6
0 2 9 19.9 5.4
-1 -2 -9 537.75 50.49
-1 -2 -9 549.74 48.6
-1 -2 -9 535.35 46.3
-1 -2 -9 474.05 45.4
1 2 9 492.65 51.29
1 2 9 544.75 45.6
1 2 9 432.46 46.9
1 2 9 425.56 48.6
1 2 9 422.36 49.4
1 2 9 559.24 48.4
1 2 9 542.45 44.9
-2 -2 -9 174.68 20.2
-2 -2 -9 133.89 16.7
2 2 9 158.18 16.3
2 2 9 148.89 20.5
2 2 9 158.28 18.8
2 2 9 106.89 15.9
2 2 9 144.29 15.7
-3 -2 -9 82.39 12.3
-3 -2 -9 116.79 15
3 2 9 72.89 10.1
3 2 9 112.99 14.4
3 2 9 105.99 10.9
3 2 9 68.89 15.1
3 2 9 117.39 14.6
-4 -2 -9 2.5 3.2
-4 -2 -9 3.6 3.7
-4 -2 -9 1.5 3.3
4 2 9 4.5 3.3
4 2 9 7.7 2.4
8 -3 -9 101.79 12.8
8 -3 -9 106.99 12.6
-8 3 9 103.99 12
-8 3 9 99.79 11
7 -3 -9 152.28 20
-7 3 9 158.48 17
-7 3 9 151.68 17.7
6 -3 -9 248.48 27
6 -3 -9 312.97 31.5
6 -3 -9 287.27 31.2
6 -3 -9 271.37 32.4
-6 3 9 297.57 25.6
-6 3 9 335.07 28.6
-6 3 9 297.07 28.8
5 -3 -9 699.23 56.79
5 -3 -9 634.94 57.59
5 -3 -9 670.13 59.89
-5 3 9 656.33 56.19
-5 3 9 659.63 57.09
-5 3 9 498.05 66.09
-5 3 9 633.24 53.89
4 -3 -9 8.3 4.9
4 -3 -9 3.8 4.5
4 -3 -9 -12.1 10.5
4 -3 -9 2.8 5.7
4 -3 -9 -2.6 4.7
4 -3 -9 2.8 5.7
-4 3 9 -3.2 4.2
-4 3 9 -4.8 4.3
-4 3 9 3.8 2.7
-4 3 9 -2 3.6
-4 3 9 1.4 2.7
3 -3 -9 1099.79 92.19
3 -3 -9 1006.9 91.69
3 -3 -9 1163.38 88.29
3 -3 -9 1099.99 87.39
3 -3 -9 1040.7 89.79
3 -3 -9 1090.69 87.49
-3 3 9 978.1 87.29
-3 3 9 933.01 87.49
-3 3 9 937.21 84.99
-3 3 9 958.8 84.79
-3 3 9 986.4 91.09
2 -3 -9 548.75 56.19
2 -3 -9 625.44 54.09
2 -3 -9 628.54 56.59
2 -3 -9 717.33 59.99
2 -3 -9 586.44 57.99
-2 3 9 618.54 55.89
-2 3 9 629.54 55.29
-2 3 9 631.94 59.29
-2 3 9 595.04 52.39
-2 3 9 574.14 52.49
-2 3 9 523.75 53.69
1 -3 -9 206.68 26.9
1 -3 -9 221.38 24.9
1 -3 -9 214.58 23.1
1 -3 -9 233.68 27.8
1 -3 -9 266.97 25.1
-1 3 9 204.18 24.1
-1 3 9 164.98 28
-1 3 9 194.88 27.5
-1 3 9 186.48 24.1
-1 3 9 235.48 22.2
0 -3 -9 141.79 17.9
0 -3 -9 132.29 21.9
0 3 9 139.49 17.7
0 3 9 116.19 14.3
0 3 9 146.79 15.1
0 3 9 99.59 25.6
0 3 9 101.09 15.7
-1 -3 -9 98.39 12.7
-1 -3 -9 89.39 13.9
1 3 9 63.09 10.8
1 3 9 89.79 13.5
1 3 9 78.49 10.5
-2 -3 -9 154.68 18.8
-2 -3 -9 213.58 23
2 3 9 230.58 22.4
2 3 9 193.38 18
-3 -3 -9 1.9 4.2
-3 -3 -9 4.1 4
-3 -3 -9 4.5 3.8
3 3 9 4 3
3 3 9 -4 4.6
4 3 9 39.1 6.2
8 -4 -9 28 5.2
8 -4 -9 35.2 5.7
-8 4 9 17.8 4.9
7 -4 -9 68.59 10.5
7 -4 -9 48.2 8.4
-7 4 9 65.29 9.1
-7 4 9 65.89 8.7
6 -4 -9 228.38 22.7
6 -4 -9 171.28 22.7
6 -4 -9 205.58 23
-6 4 9 204.08 20.2
5 -4 -9 36.9 8.1
5 -4 -9 57.09 10.2
-5 4 9 40.1 8.4
-5 4 9 50.09 9.7
4 -4 -9 31.4 8.4
4 -4 -9 30.7 7
4 -4 -9 24.1 7.8
-4 4 9 36.2 6.8
-4 4 9 25.4 7.3
3 -4 -9 88.19 13.1
3 -4 -9 68.89 11.5
3 -4 -9 64.79 15.9
-3 4 9 52.69 10.6
-3 4 9 64.79 12.5
-3 4 9 77.09 11.7
2 -4 -9 37.4 9.7
2 -4 -9 31.9 9.8
2 -4 -9 27.7 7.4
-2 4 9 30 8.1
-2 4 9 33.7 6.8
-2 4 9 44 8.7
1 -4 -9 22.6 6.5
1 -4 -9 13.8 6.5
-1 4 9 9.6 6.8
-1 4 9 25.3 7.4
-1 4 9 19.3 6.3
-1 4 9 15.4 4.1
0 -4 -9 68.59 11.6
0 -4 -9 59.89 10.6
0 4 9 62.89 10.6
0 4 9 48.6 7.5
0 4 9 52.49 10.3
-1 -4 -9 30.3 6.7
-1 -4 -9 33.6 8.4
1 4 9 43.5 8.3
1 4 9 40.6 11.4
-2 -4 -9 23.9 5.9
2 4 9 9.3 3.5
2 4 9 11.3 4.2
-3 -4 -9 0.1 2.1
-3 -4 -9 3.8 3.4
3 4 9 4.3 2.2
7 -5 -9 116.89 12.6
7 -5 -9 130.49 14.8
-7 5 9 127.09 12.3
6 -5 -9 28.6 5.9
6 -5 -9 23.2 7.4
-6 5 9 20.3 5.4
-6 5 9 24.2 5.6
5 -5 -9 393.26 34.9
5 -5 -9 299.67 32.3
-5 5 9 301.47 30.3
4 -5 -9 25.3 8
-4 5 9 36.1 7.7
-4 5 9 50.99 8.6
3 -5 -9 313.67 31.7
3 -5 -9 317.37 29.7
-3 5 9 291.77 30.8
2 -5 -9 -2.8 3.3
2 -5 -9 -3.8 3.6
2 -5 -9 -0.5 3.4
-2 5 9 -2.9 3.9
-2 5 9 1.5 3.1
1 -5 -9 344.17 35.8
1 -5 -9 355.06 34.2
-1 5 9 323.87 38.6
-1 5 9 339.57 33.1
0 -5 -9 90.89 11
0 -5 -9 91.59 12.6
0 5 9 59.89 11.2
0 5 9 87.19 11.1
-1 -5 -9 123.79 15.7
-1 -5 -9 137.09 15.4
1 5 9 127.69 16
1 5 9 116.89 12.9
6 -6 -9 734.63 61.59
6 -6 -9 713.93 59.39
5 -6 -9 14.3 3.8
5 -6 -9 12.8 5.1
-5 6 9 14.6 4.5
-5 6 9 10.6 4.5
-5 6 9 5 3.9
4 -6 -9 1027.8 92.69
4 -6 -9 1135.29 90.69
-4 6 9 1141.19 90.89
-4 6 9 1123.49 92.69
3 -6 -9 278.87 27.1
3 -6 -9 299.67 29.5
-3 6 9 306.87 27.6
-3 6 9 296.37 28.9
2 -6 -9 761.52 62.69
2 -6 -9 792.52 65.49
-2 6 9 706.13 64.49
1 -6 -9 458.45 38.9
1 -6 -9 453.65 36.2
-1 6 9 364.06 37.4
0 6 9 158.18 15.9
0 9 -10 455.75 50.99
-1 9 -10 -0.5 2.7
-1 9 -10 6.4 7.4
-1 9 -10 1.5 7.3
-2 9 -10 180.98 25.1
-2 9 -10 236.48 29.5
-3 9 -10 15.9 7.4
-4 9 -10 75.19 11.4
-5 9 -10 10.7 4.8
-5 9 -10 9 4.7
-5 9 -10 12.5 4.6
2 8 -10 25.4 8.8
1 8 -10 309.67 40.7
0 8 -10 139.09 26.4
0 8 -10 145.89 20.1
-1 8 -10 113.99 23.5
-1 8 -10 136.59 19.2
-1 8 -10 115.39 22.2
-1 8 -10 84.99 15.3
-1 8 -10 172.28 30.8
-2 8 -10 191.48 28.3
-2 8 -10 218.28 24.3
-2 8 -10 223.28 27.9
-2 8 -10 207.48 28.7
-2 8 -10 204.58 37.5
-2 8 -10 185.98 23.6
-2 8 -10 253.37 32.2
-2 8 -10 231.48 32.5
-3 8 -10 154.18 21.6
-3 8 -10 126.69 18.5
-3 8 -10 178.98 20.1
-3 8 -10 157.08 26.4
-3 8 -10 155.68 19
-3 8 -10 99.99 23.7
-4 8 -10 164.38 29.6
-4 8 -10 191.38 23.1
-4 8 -10 255.77 27.5
-5 8 -10 74.79 12.1
-5 8 -10 62.59 13.5
-5 8 -10 91.49 13.9
-5 8 -10 104.39 15
-6 8 -10 102.19 14.7
3 7 -10 12.1 8.5
3 7 -10 19.5 7.1
-3 -7 10 15.3 3.4
2 7 -10 69.39 15.9
2 7 -10 83.69 12.2
2 7 -10 143.89 25.4
-2 -7 10 99.09 11.4
-2 -7 10 112.19 11.5
1 7 -10 148.89 19.9
1 7 -10 149.99 20.4
1 7 -10 194.98 30.8
-1 -7 10 180.98 17.1
0 7 -10 21.3 7.7
0 7 -10 15.3 8
0 7 -10 14.5 7.2
0 7 -10 28.5 12.2
0 7 -10 13.8 6
0 7 -10 0.9 8.9
0 7 -10 20.6 11.6
-1 7 -10 430.76 39.8
-1 7 -10 363.96 41.6
-1 7 -10 405.06 46.3
-1 7 -10 415.26 48.3
-1 7 -10 343.17 38.6
-1 7 -10 284.97 50.09
-1 7 -10 441.36 40.3
-2 7 -10 7.2 9.4
-2 7 -10 -3.6 5
-2 7 -10 4.8 4.2
-2 7 -10 2.4 3.7
-2 7 -10 11.1 4.7
-2 7 -10 3.6 4.9
-2 7 -10 1.7 4.5
-2 7 -10 1 4.2
-2 7 -10 4.1 4.5
-2 7 -10 1.8 5
-2 7 -10 8.8 5.8
-3 7 -10 257.17 30.6
-3 7 -10 309.17 32.4
-3 7 -10 286.97 32.6
-3 7 -10 328.47 32.7
-3 7 -10 221.28 38.5
-3 7 -10 294.87 31.9
-3 7 -10 369.26 42.7
-3 7 -10 255.47 30.9
-4 7 -10 18.9 7.1
-4 7 -10 25.6 9
-4 7 -10 7.1 7
-4 7 -10 19 6.3
-4 7 -10 5.7 7
-4 7 -10 33.1 9.5
-5 7 -10 181.98 22.5
-5 7 -10 167.88 22
-5 7 -10 178.28 21.7
-5 7 -10 154.98 22.4
-6 7 -10 -7.7 4.6
-6 7 -10 1.1 3.5
-6 7 -10 0.3 2.5
4 6 -10 15.8 7.1
4 6 -10 18.9 9
-4 -6 10 9.5 2.9
-4 -6 10 16.9 3.6
3 6 -10 51.09 15.9
3 6 -10 82.19 16.4
-3 -6 10 49.6 7.5
-3 -6 10 51.79 7.3
-3 -6 10 45.9 6.7
2 6 -10 230.48 27.6
2 6 -10 207.38 27.2
2 6 -10 212.58 36.4
2 6 -10 269.97 33.6
2 6 -10 315.67 41.2
-2 -6 10 299.17 23.8
-2 -6 10 242.58 23.4
1 6 -10 53.39 17.8
1 6 -10 54.59 13.2
1 6 -10 62.59 18.5
1 6 -10 31.4 14.4
1 6 -10 46.1 10.4
1 6 -10 52.89 9.9
1 6 -10 41.7 16.9
0 6 -10 99.49 15
0 6 -10 97.59 20.7
0 6 -10 107.39 17.1
0 6 -10 119.69 16.1
0 6 -10 116.99 20.4
0 6 -10 101.19 24.4
0 6 -10 83.19 22.1
0 -6 10 120.69 11.6
-1 6 -10 134.99 18.6
-1 6 -10 168.98 19.7
-1 6 -10 146.09 22.7
-1 6 -10 176.58 25.9
-1 6 -10 107.79 28.3
-1 6 -10 105.39 19.8
-1 6 -10 136.79 18.8
-2 6 -10 390.16 41.9
-2 6 -10 458.55 43.8
-2 6 -10 484.75 46.4
-2 6 -10 371.96 42.9
-2 6 -10 460.05 50.69
-2 6 -10 458.35 60.09
-2 6 -10 450.95 43.3
-2 6 -10 482.15 54.69
-2 6 -10 346.07 42.3
-2 6 -10 442.96 46.1
-2 6 -10 421.36 42.6
-3 6 -10 28.3 8.8
-3 6 -10 45.3 17.6
-3 6 -10 45 13.2
-3 6 -10 37.5 10.2
-3 6 -10 41.5 14.1
-3 6 -10 38.5 9.6
-3 6 -10 36.7 12.2
-4 6 -10 332.47 38.6
-4 6 -10 424.26 40.5
-4 6 -10 328.37 37.6
-4 6 -10 377.66 38.5
-4 6 -10 394.76 40
-5 6 -10 48.2 13.4
-5 6 -10 59.79 12
-5 6 -10 49.7 11.4
-5 6 -10 74.29 12.3
-5 6 -10 53.39 11
-6 6 -10 233.78 27.8
-6 6 -10 238.68 31.2
-6 6 -10 231.98 28
6 -6 10 322.77 25.7
6 -6 10 291.37 24.3
6 -6 10 282.37 25.7
-7 6 -10 22.3 7.4
-7 6 -10 21.6 5.3
5 5 -10 51.99 11.4
5 5 -10 54.49 10
-5 -5 10 50.09 7.5
-5 -5 10 46.2 6.3
-5 -5 10 44 6
4 5 -10 16.2 8
4 5 -10 19.1 10.4
4 5 -10 6.4 6.1
-4 -5 10 10.7 3.2
-4 -5 10 7.2 2.9
3 5 -10 76.79 14.3
3 5 -10 59.69 17.7
3 5 -10 61.99 18.7
3 5 -10 56.59 11
-3 -5 10 43.9 8.5
-3 -5 10 63.99 8.5
-3 -5 10 57.89 8
2 5 -10 6.5 5.1
2 5 -10 -1 6.8
2 5 -10 -0.9 10.8
2 5 -10 3.6 12.1
2 5 -10 -4.6 4.7
-2 -5 10 3.8 2.4
-2 -5 10 0.8 7.1
1 5 -10 935.81 89.59
1 5 -10 1112.19 96.29
1 5 -10 956.5 97.79
1 5 -10 1017.7 90.69
1 5 -10 915.21 100.19
1 5 -10 1012.9 89.69
1 5 -10 1051.29 106.69
-1 -5 10 1196.78 84.59
0 5 -10 187.78 27.6
0 5 -10 195.08 23.1
0 5 -10 189.28 23.8
0 5 -10 179.28 22.9
0 5 -10 153.88 29.2
0 5 -10 198.98 23.2
0 5 -10 182.98 27.1
0 -5 10 208.18 18
-1 5 -10 1464.95 134.09
-1 5 -10 1348.86 130.59
-1 5 -10 1508.15 124.89
-1 5 -10 1525.35 127.39
-1 5 -10 1424.36 127.99
-1 5 -10 1459.85 125.19
-1 5 -10 1528.65 125.39
-2 5 -10 414.46 40.6
-2 5 -10 376.66 47.4
-2 5 -10 368.46 49.3
-2 5 -10 326.87 38.8
-2 5 -10 388.36 40.1
-2 5 -10 407.86 53.39
-2 5 -10 386.46 40.2
-2 5 -10 426.46 42.1
-2 5 -10 428.96 41.3
-2 5 -10 399.36 42.3
2 -5 10 366.06 38.9
2 -5 10 465.45 34.6
-3 5 -10 400.46 42.1
-3 5 -10 353.76 40.2
-3 5 -10 401.26 42
-3 5 -10 380.06 38.8
-3 5 -10 459.75 48.2
-3 5 -10 441.66 42
-3 5 -10 419.26 41.8
-4 5 -10 370.86 35
-4 5 -10 325.27 35.6
-4 5 -10 263.67 33.4
-4 5 -10 321.67 35.6
-4 5 -10 303.17 34.2
-5 5 -10 227.28 27.3
-5 5 -10 199.58 24.9
-5 5 -10 195.38 27.6
-5 5 -10 178.48 25.8
5 -5 10 262.37 22
5 -5 10 268.47 23.8
-6 5 -10 374.26 44.5
-6 5 -10 403.66 40.3
6 -5 10 440.76 38.1
6 -5 10 489.25 37.3
-7 5 -10 0.2 4
-7 5 -10 10.3 5.6
7 -5 10 12.4 2.4
7 -5 10 8.4 2.6
6 4 -10 118.39 15.2
-6 -4 10 109.59 10.9
-6 -4 10 102.89 12.7
5 4 -10 8.6 7.1
5 4 -10 8.2 6.4
-5 -4 10 1.5 2.2
-5 -4 10 -1.6 3.7
-5 -4 10 6.3 2.7
4 4 -10 182.28 25.9
4 4 -10 209.68 25.4
4 4 -10 261.57 31.1
4 4 -10 238.08 32.2
-4 -4 10 223.38 21.8
-4 -4 10 212.78 22.8
-4 -4 10 213.38 22.4
-4 -4 10 252.07 21.6
3 4 -10 5.4 4.7
3 4 -10 12.6 10.9
3 4 -10 4.7 6.2
3 4 -10 0.6 5.7
-3 -4 10 7.5 4.3
-3 -4 10 7.6 3.2
-3 -4 10 10 3.7
2 4 -10 687.23 67.99
2 4 -10 646.34 73.19
2 4 -10 729.43 71.09
2 4 -10 777.62 79.19
2 4 -10 756.02 75.89
-2 -4 10 781.32 62.49
-2 -4 10 830.72 63.29
1 4 -10 254.87 35
1 4 -10 288.77 43.2
1 4 -10 262.47 36.8
1 4 -10 272.77 33.4
1 4 -10 287.57 29.4
1 4 -10 286.57 30
-1 -4 10 251.37 30.6
0 4 -10 1898.51 168.78
0 4 -10 2245.68 169.88
0 4 -10 2004.3 172.48
0 4 -10 2087.79 176.78
0 4 -10 2062.59 168.38
0 4 -10 1924.71 169.38
0 -4 10 2003.9 167.28
-1 4 -10 150.78 21.3
-1 4 -10 167.88 21
-1 4 -10 164.38 23.7
-1 4 -10 161.08 20.8
-1 4 -10 171.68 21.3
-1 4 -10 154.58 20.4
-1 4 -10 164.78 26.6
1 -4 10 180.28 20.7
1 -4 10 185.88 16.5
-2 4 -10 674.53 71.19
-2 4 -10 598.94 58.79
-2 4 -10 542.95 56.19
-2 4 -10 630.64 58.99
-2 4 -10 642.64 58.99
-2 4 -10 591.34 59.39
-2 4 -10 530.25 67.59
-2 4 -10 706.73 59.69
2 -4 10 577.54 58.29
2 -4 10 695.63 53.79
2 -4 10 734.33 54.79
-3 4 -10 143.79 19.9
-3 4 -10 91.99 26.4
-3 4 -10 125.19 19.1
-3 4 -10 136.39 18.3
-3 4 -10 119.89 17.8
-3 4 -10 128.99 20.7
-3 4 -10 133.59 18.9
3 -4 10 146.39 15.4
3 -4 10 150.78 14.8
-4 4 -10 268.07 34.1
-4 4 -10 303.67 33.7
-4 4 -10 311.17 38.2
4 -4 10 372.66 29.9
4 -4 10 284.07 28.6
4 -4 10 349.67 30
-5 4 -10 4 6.7
-5 4 -10 4.2 4.4
-5 4 -10 1 3.7
-5 4 -10 4.4 4.1
5 -4 10 4.2 3.2
5 -4 10 1.3 2.6
5 -4 10 2.8 2.6
-6 4 -10 103.19 13.7
-6 4 -10 142.49 27.7
-6 4 -10 110.99 17
6 -4 10 129.19 14
6 -4 10 138.29 13
6 -4 10 133.19 13.2
-7 4 -10 2.3 3.8
-7 4 -10 1.8 2.4
7 -4 10 0.5 1.5
7 -4 10 -0.6 1.6
6 3 -10 14.2 5.9
-6 -3 10 9.5 2.8
-6 -3 10 8.7 3.7
-6 -3 10 8.8 2.6
-6 -3 10 2.9 3.1
5 3 -10 308.07 37.6
5 3 -10 294.37 30
5 3 -10 362.66 36.9
-5 -3 10 309.77 30.5
-5 -3 10 352.56 30.2
-5 -3 10 301.17 29
-5 -3 10 374.56 29.8
4 3 -10 1.1 5
4 3 -10 9.9 7.3
4 3 -10 -7.9 9.6
4 3 -10 8.2 7.4
4 3 -10 0.3 7.1
4 3 -10 2.6 4.6
-4 -3 10 8.9 3.3
-4 -3 10 7.5 4.5
-4 -3 10 9.1 3.7
-4 -3 10 4.9 2.5
3 3 -10 671.53 72.49
3 3 -10 730.13 71.89
3 3 -10 676.83 68.49
3 3 -10 728.73 70.99
3 3 -10 664.93 63.99
3 3 -10 562.84 63.79
-3 -3 10 677.43 58.49
-3 -3 10 676.23 59.89
-3 -3 10 810.82 60.39
-3 -3 10 772.62 58.89
2 3 -10 268.97 35.3
2 3 -10 278.77 38.1
2 3 -10 297.37 32.5
2 3 -10 233.08 34.8
2 3 -10 268.67 34.1
2 3 -10 267.37 28.9
-2 -3 10 219.88 24.2
-2 -3 10 300.97 25.3
1 3 -10 213.78 29.5
1 3 -10 201.98 37
1 3 -10 241.58 25.7
1 3 -10 216.48 31.5
1 3 -10 194.18 29
1 3 -10 245.18 32.8
1 3 -10 267.47 26.9
-1 -3 10 246.88 22.3
-1 -3 10 258.17 21.9
-1 -3 10 247.88 25.5
0 3 -10 1027.6 94.09
0 3 -10 1001.1 99.69
0 3 -10 1021 93.19
0 3 -10 1144.49 94.79
0 -3 10 1124.09 89.09
0 -3 10 1149.98 94.59
0 -3 10 1142.59 89.49
-1 3 -10 140.29 22.3
-1 3 -10 134.09 19.9
-1 3 -10 172.78 21
-1 3 -10 183.98 20.7
-1 3 -10 174.28 20.8
-1 3 -10 204.78 28.5
-1 3 -10 114.69 27
1 -3 10 190.98 17.6
1 -3 10 144.29 20.4
1 -3 10 199.58 17.4
-2 3 -10 1002.4 87.49
-2 3 -10 1026.9 86.79
-2 3 -10 890.01 87.39
-2 3 -10 1004.5 99.59
-2 3 -10 1005.8 87.69
-2 3 -10 976.8 97.09
2 -3 10 1008.4 89.29
2 -3 10 1021.3 82.99
-3 3 -10 276.17 31.4
-3 3 -10 272.27 32
-3 3 -10 230.48 31.8
-3 3 -10 352.46 46.7
-3 3 -10 305.97 30.1
-3 3 -10 277.67 31
3 -3 10 291.67 27.4
3 -3 10 330.07 27.4
3 -3 10 242.78 26.1
-4 3 -10 629.74 68.89
-4 3 -10 540.35 56.99
-4 3 -10 511.45 49.7
-4 3 -10 523.15 53.79
-4 3 -10 625.14 54.19
4 -3 10 465.65 47.3
4 -3 10 594.04 47.1
4 -3 10 501.05 51.99
-5 3 -10 45.1 12
-5 3 -10 25.1 10.5
-5 3 -10 42.7 10.6
5 -3 10 45.8 7
5 -3 10 47 7.2
5 -3 10 41.2 7.3
-6 3 -10 125.19 17.3
6 -3 10 106.49 12.8
6 -3 10 128.69 14.2
6 -3 10 153.38 13.4
7 2 -10 1.6 3
-7 -2 10 0.1 1.5
-7 -2 10 -1.2 1.4
-7 -2 10 4.1 2.9
6 2 -10 17.3 6.3
6 2 -10 9.4 3.8
-6 -2 10 7.1 3.2
-6 -2 10 8.1 2.8
-6 -2 10 15.4 4
-6 -2 10 15.4 5.6
5 2 -10 -4.2 3.4
5 2 -10 -4.6 9.8
5 2 -10 6.1 5.8
5 2 -10 4.5 5.4
-5 -2 10 -0.4 2
-5 -2 10 0.4 2.9
-5 -2 10 0.8 2.3
-5 -2 10 1.4 1.8
4 2 -10 14.8 7.3
4 2 -10 25.7 7.1
4 2 -10 29.2 10.9
4 2 -10 33.9 11.9
4 2 -10 19.5 7.4
4 2 -10 12.3 9.2
-4 -2 10 25.3 5.3
-4 -2 10 25.6 6.3
-4 -2 10 32.3 5.3
-4 -2 10 25.7 5.3
3 2 -10 0.4 4
3 2 -10 -2.3 6.7
3 2 -10 9.4 4.9
3 2 -10 0.6 5.2
3 2 -10 4.2 4.4
3 2 -10 -1.3 4.5
3 2 -10 1.2 4.7
-3 -2 10 -1 3.1
-3 -2 10 0.6 2.2
-3 -2 10 2.3 2.4
-3 -2 10 0.6 1.6
-3 -2 10 -0.4 3
2 2 -10 307.17 35.6
2 2 -10 304.27 41.2
2 2 -10 311.37 38.3
2 2 -10 273.67 30.6
2 2 -10 283.87 29.8
2 2 -10 361.26 33.2
2 2 -10 347.27 40.5
2 2 -10 330.27 32.6
-2 -2 10 322.67 32.1
-2 -2 10 317.87 28.9
1 2 -10 28 12.4
1 2 -10 7.9 7.6
1 2 -10 -0.3 3.8
1 2 -10 11.5 5.5
1 2 -10 3.6 3.9
1 2 -10 -0.4 5.3
1 2 -10 1.6 3.6
-1 -2 10 -0.1 3.8
-1 -2 10 0.1 1.9
-1 -2 10 3.7 3.1
0 2 -10 1186.88 96.69
0 2 -10 1066.89 91.59
0 2 -10 1188.38 93.39
0 2 -10 957.1 113.09
0 2 -10 991.6 103.79
0 2 -10 1076.09 95.29
0 2 -10 1275.17 106.79
0 2 -10 1053.89 90.39
0 2 -10 1108.49 96.29
0 -2 10 1131.09 92.69
0 -2 10 1172.98 92.39
0 -2 10 1205.38 98.39
-1 2 -10 -5 3.8
-1 2 -10 2.4 4.4
-1 2 -10 -5.6 6.3
-1 2 -10 2.8 3.9
-1 2 -10 14.2 9.5
-1 2 -10 1.8 5.6
1 -2 10 -1.6 3.8
1 -2 10 1 2.3
1 -2 10 3.8 3
1 -2 10 6 4.9
-2 2 -10 884.91 80.29
-2 2 -10 755.02 70.09
-2 2 -10 816.12 71.79
-2 2 -10 822.42 67.69
-2 2 -10 829.12 71.89
2 -2 10 857.81 68.89
2 -2 10 707.73 67.09
2 -2 10 699.03 68.19
2 -2 10 775.42 74.59
2 -2 10 864.41 68.39
-3 2 -10 8.3 6.3
-3 2 -10 10.9 5.2
-3 2 -10 17.2 7.6
-3 2 -10 11.8 10.3
-3 2 -10 8.4 5.3
3 -2 10 16 4.2
3 -2 10 11.5 6.6
3 -2 10 11.3 4.9
3 -2 10 12.6 4.4
3 -2 10 2.9 6.1
-4 2 -10 147.29 19.7
-4 2 -10 126.49 16
-4 2 -10 140.29 19.2
-4 2 -10 185.18 29.1
4 -2 10 108.39 15.3
4 -2 10 148.89 16
4 -2 10 126.89 14.7
4 -2 10 124.89 14.3
-5 2 -10 46.3 10.9
-5 2 -10 32.5 10.8
-5 2 -10 39.8 10.5
5 -2 10 47.3 6.9
5 -2 10 38.9 7.9
5 -2 10 48.6 6.7
-6 2 -10 1.1 3.8
-6 2 -10 5.2 5
-6 2 -10 3 2.3
6 -2 10 0.1 1.5
6 -2 10 -0.5 1.6
6 -2 10 -1 2.6
7 1 -10 433.66 34.1
7 1 -10 350.96 35.5
-7 -1 10 369.96 32
-7 -1 10 365.36 33.6
6 1 -10 261.27 29.1
6 1 -10 277.87 27.3
-6 -1 10 238.08 24.7
-6 -1 10 260.27 24.2
-6 -1 10 278.57 26
-6 -1 10 296.17 24.6
5 1 -10 244.28 29.4
5 1 -10 233.48 26
5 1 -10 239.78 27.6
5 1 -10 213.98 28.4
-5 -1 10 242.78 22.7
-5 -1 10 267.07 24.5
-5 -1 10 245.68 22.8
-5 -1 10 240.38 23.6
4 1 -10 818.72 66.19
4 1 -10 703.53 65.29
4 1 -10 577.04 66.69
4 1 -10 801.02 71.59
4 1 -10 706.93 64.19
4 1 -10 698.13 70.49
-4 -1 10 714.23 60.29
-4 -1 10 624.04 63.99
-4 -1 10 780.12 60.79
-4 -1 10 759.92 61.99
3 1 -10 230.18 29
3 1 -10 152.98 23.6
3 1 -10 188.78 27.2
3 1 -10 197.38 22.8
3 1 -10 190.28 21.7
3 1 -10 162.68 20.7
-3 -1 10 154.78 17.5
-3 -1 10 177.38 21.1
-3 -1 10 171.28 18.5
-3 -1 10 194.08 18
2 1 -10 2506.05 205.08
2 1 -10 2171.28 195.68
2 1 -10 2612.74 199.38
2 1 -10 2396.96 191.18
2 1 -10 2433.26 191.08
2 1 -10 2536.95 192.48
2 1 -10 2257.57 196.68
-2 -1 10 2147.99 187.68
-2 -1 10 2077.09 188.18
-2 -1 10 2350.16 188.88
-2 -1 10 2289.47 192.78
1 1 -10 149.59 16.3
1 1 -10 116.49 16
1 1 -10 149.99 27.1
1 1 -10 130.79 22.6
1 1 -10 102.29 17
1 1 -10 158.28 21.8
1 1 -10 147.79 18.2
-1 -1 10 134.89 14.4
-1 -1 10 129.49 18
-1 -1 10 145.79 16.1
-1 -1 10 122.89 14.8
0 1 -10 1815.42 149.29
0 1 -10 1891.11 147.29
0 1 -10 2024.1 159.38
0 1 -10 1845.82 156.58
0 1 -10 1960.4 156.78
0 1 -10 1623.94 147.49
0 -1 10 1614.34 148.19
0 -1 10 1722.13 146.49
0 -1 10 1728.03 146.99
0 -1 10 1767.12 145.89
0 -1 10 1815.52 152.38
-1 1 -10 157.38 20.6
-1 1 -10 233.98 31.9
-1 1 -10 185.98 30.4
-1 1 -10 184.58 19.4
-1 1 -10 158.18 20.7
-1 1 -10 209.98 28.1
-1 1 -10 168.88 19.3
1 -1 10 156.58 19.5
1 -1 10 158.88 19.1
1 -1 10 162.08 28.4
1 -1 10 176.88 19.5
1 -1 10 215.88 19.7
-2 1 -10 465.15 44.6
-2 1 -10 438.56 42.1
-2 1 -10 469.55 44.3
-2 1 -10 519.05 42.6
-2 1 -10 488.65 50.69
-2 1 -10 466.75 48.8
2 -1 10 480.75 42.4
2 -1 10 429.76 40.6
2 -1 10 498.95 41.6
2 -1 10 410.36 42.4
2 -1 10 360.66 45.3
-3 1 -10 20.6 9.1
-3 1 -10 28 13
-3 1 -10 44.1 16.3
-3 1 -10 35.8 9
-3 1 -10 44.6 10
3 -1 10 23 12.1
3 -1 10 22.3 9.3
3 -1 10 42.1 7.3
3 -1 10 30.7 7.6
-4 1 -10 166.78 20.3
-4 1 -10 164.48 20
-4 1 -10 194.38 28.7
-4 1 -10 148.79 17.5
4 -1 10 131.39 17.1
4 -1 10 157.48 18.5
4 -1 10 139.69 16
4 -1 10 159.78 17.5
-5 1 -10 42.7 9.4
-5 1 -10 38.6 8.6
-5 1 -10 24.9 6.1
-5 1 -10 34.1 9.3
5 -1 10 32.6 6.8
5 -1 10 38.1 6.8
5 -1 10 36.6 5.7
5 -1 10 30.1 5.6
-6 1 -10 3.3 2.8
-6 1 -10 9.5 3.2
6 -1 10 15.1 2.9
6 -1 10 11.7 3.4
6 -1 10 8.2 2.7
7 0 -10 122.59 14.5
7 0 -10 117.99 15.2
-7 0 10 120.29 11.7
-7 0 10 118.19 13.4
6 0 -10 143.99 17.9
6 0 -10 151.68 19.9
-6 0 10 141.09 15.5
-6 0 10 135.69 14.8
-6 0 10 159.08 16.8
-6 0 10 165.78 15.5
5 0 -10 1176.78 107.69
5 0 -10 1249.18 107.39
5 0 -10 1245.88 106.49
5 0 -10 1133.79 103.59
-5 0 10 1226.78 99.49
-5 0 10 1198.78 100.49
-5 0 10 1249.28 99.69
-5 0 10 1242.88 100.99
4 0 -10 286.77 34.3
4 0 -10 320.17 32.2
4 0 -10 296.57 30.8
4 0 -10 353.26 37.3
4 0 -10 295.17 36.3
4 0 -10 322.37 33.8
-4 0 10 297.37 27.8
-4 0 10 291.77 28.9
-4 0 10 271.17 31
3 0 -10 2099.39 193.78
3 0 -10 2501.15 200.08
3 0 -10 2552.44 191.58
3 0 -10 2212.98 189.98
-3 0 10 2367.26 187.08
-3 0 10 2432.36 188.28
-3 0 10 2193.68 186.58
-3 0 10 2218.88 191.78
2 0 -10 44.5 9.3
2 0 -10 43.7 10.8
2 0 -10 43.8 12.7
2 0 -10 55.99 16.5
2 0 -10 43.3 10
2 0 -10 47.9 9
2 0 -10 32.6 12
-2 0 10 37.8 7.8
-2 0 10 42 7.4
-2 0 10 36.3 7.2
-2 0 10 41.3 13.6
1 0 -10 2210.78 170.08
1 0 -10 1988.4 160.68
1 0 -10 1984.2 166.08
1 0 -10 2007 160.78
1 0 -10 2053.79 161.28
-1 0 10 1761.12 157.58
-1 0 10 1824.62 157.88
-1 0 10 1962.8 167.48
-1 0 10 1807.22 159.28
0 0 -10 347.07 33.1
0 0 -10 340.97 32.7
0 0 -10 354.16 38.9
0 0 -10 331.97 32.5
0 0 10 269.47 34.7
0 0 10 321.07 32.9
0 0 10 360.16 32.8
0 0 10 332.87 31.7
0 0 10 281.27 29.9
-1 0 -10 1901.71 158.58
-1 0 -10 1909.31 159.78
-1 0 -10 1984.5 159.48
-1 0 -10 2065.69 159.88
1 0 10 2068.99 157.88
1 0 10 1644.54 162.78
1 0 10 1904.31 157.08
1 0 10 1929.41 158.58
1 0 10 1940.91 159.48
-2 0 -10 712.13 66.39
-2 0 -10 775.72 67.19
-2 0 -10 794.72 67.79
-2 0 -10 794.42 68.09
-2 0 -10 644.14 68.79
2 0 10 774.62 71.69
2 0 10 730.43 65.99
2 0 10 785.72 64.79
2 0 10 770.42 67.39
2 0 10 780.92 65.19
-3 0 -10 380.66 36.5
-3 0 -10 392.96 36.6
-3 0 -10 378.66 37.3
3 0 10 316.77 38.4
3 0 10 389.96 34.1
3 0 10 365.56 36.2
3 0 10 380.26 34.3
3 0 10 371.16 35.3
-4 0 -10 297.57 29.5
-4 0 -10 280.27 27
-4 0 -10 245.48 27.4
4 0 10 274.57 26.8
4 0 10 237.98 24.5
4 0 10 243.98 25.2
4 0 10 276.57 24.7
-5 0 -10 38.4 8.3
-5 0 -10 51.39 8.2
-5 0 -10 52.69 7.5
5 0 10 44.2 7.3
5 0 10 44.1 6.1
5 0 10 35.5 5.4
7 -1 -10 4.3 3.9
7 -1 -10 4.5 3.8
-7 1 10 6.1 2.4
-7 1 10 7.3 3.6
6 -1 -10 363.66 35.3
6 -1 -10 370.16 36.6
6 -1 -10 312.87 37.4
-6 1 10 296.97 30.7
-6 1 10 382.06 33.1
-6 1 10 403.56 31.5
5 -1 -10 743.43 65.69
5 -1 -10 757.42 67.19
5 -1 -10 708.53 63.29
5 -1 -10 620.74 65.39
-5 1 10 596.94 59.09
-5 1 10 739.03 58.69
-5 1 10 675.43 58.59
-5 1 10 735.83 60.39
4 -1 -10 273.27 33.5
4 -1 -10 296.97 30.3
4 -1 -10 327.17 33.8
4 -1 -10 284.97 32.1
4 -1 -10 302.57 31.8
-4 1 10 264.77 26.9
-4 1 10 261.97 25.8
-4 1 10 256.37 29.6
-4 1 10 254.37 26.9
3 -1 -10 399.26 41.7
3 -1 -10 517.85 45.9
3 -1 -10 490.65 44.8
3 -1 -10 543.85 52.49
3 -1 -10 490.95 47.5
3 -1 -10 520.55 47.6
-3 1 10 456.75 40.8
-3 1 10 419.96 45
-3 1 10 429.06 41.9
-3 1 10 417.66 40.2
-3 1 10 421.06 41.4
2 -1 -10 372.66 34.5
2 -1 -10 354.46 33.3
2 -1 -10 390.16 37.1
2 -1 -10 260.37 33.1
2 -1 -10 319.87 31
-2 1 10 317.97 29.8
-2 1 10 331.47 30
-2 1 10 301.27 31.1
-2 1 10 270.37 30.2
-2 1 10 304.97 34.8
1 -1 -10 616.94 51.39
1 -1 -10 574.44 54.79
1 -1 -10 592.74 51.59
1 -1 -10 460.35 48.1
-1 1 10 546.95 49.99
-1 1 10 526.85 47.6
-1 1 10 575.84 49.7
-1 1 10 543.15 48
-1 1 10 458.45 52.29
0 -1 -10 4.4 8.2
0 -1 -10 2.4 5.1
0 -1 -10 12 5.2
0 -1 -10 -3.2 4.6
0 -1 -10 5.6 3.6
0 -1 -10 4.6 5.6
0 1 10 10.2 4
0 1 10 1.9 3.3
0 1 10 1.9 4.1
0 1 10 2.7 4.4
-1 -1 -10 439.46 40.2
-1 -1 -10 505.95 50.09
-1 -1 -10 399.66 41.5
-1 -1 -10 507.75 48.8
-1 -1 -10 405.76 40.7
1 1 10 417.86 40.9
1 1 10 420.96 38.4
1 1 10 407.96 38.5
1 1 10 337.97 38.6
-2 -1 -10 -0.3 3.7
-2 -1 -10 19 8.7
-2 -1 -10 -0.1 2.8
-2 -1 -10 -4.9 4.9
2 1 10 -1 2.8
2 1 10 -4.4 2.5
2 1 10 -0.7 7.6
2 1 10 -0.4 3.7
2 1 10 0.3 2.6
-3 -1 -10 20 6.3
-3 -1 -10 26.9 10.8
-3 -1 -10 30 6.8
-3 -1 -10 39.2 8.4
3 1 10 19.1 5.9
3 1 10 19.4 4.7
3 1 10 20.6 5.9
3 1 10 20 4.7
-4 -1 -10 74.49 10
-4 -1 -10 65.49 12.8
4 1 10 96.49 11.2
4 1 10 57.29 7.7
-5 -1 -10 13.3 4.3
5 1 10 19.9 4.6
7 -2 -10 105.39 13.8
7 -2 -10 99.59 13.3
-7 2 10 112.99 12.3
6 -2 -10 22.1 7.1
6 -2 -10 24.1 8.1
6 -2 -10 25.6 8.3
-6 2 10 31.1 5.2
-6 2 10 11.6 6
-6 2 10 25.8 6.1
5 -2 -10 423.56 40.8
5 -2 -10 376.76 42.6
-5 2 10 409.56 36.1
-5 2 10 413.56 37.9
-5 2 10 440.76 39.2
4 -2 -10 88.19 16
4 -2 -10 88.79 15.1
-4 2 10 72.89 14
-4 2 10 112.99 14.2
-4 2 10 93.69 11.1
3 -2 -10 220.68 26.5
3 -2 -10 238.78 24.9
3 -2 -10 204.78 30.4
3 -2 -10 207.78 26.6
-3 2 10 194.28 20.8
-3 2 10 207.98 22.8
-3 2 10 200.78 21.9
-3 2 10 218.78 26.2
-3 2 10 189.58 27
-3 2 10 204.48 20.6
2 -2 -10 318.07 33.2
2 -2 -10 305.67 30
2 -2 -10 325.07 31.9
-2 2 10 244.08 30.9
-2 2 10 218.28 30.6
-2 2 10 265.27 28.5
-2 2 10 264.27 26.4
1 -2 -10 96.19 16
1 -2 -10 82.69 14.9
1 -2 -10 76.29 12.5
1 -2 -10 79.09 14.2
-1 2 10 72.39 10.5
-1 2 10 68.89 14.2
-1 2 10 59.99 11.4
-1 2 10 73.79 10.1
-1 2 10 59.99 10
0 -2 -10 62.29 14.5
0 -2 -10 34.1 8.2
0 -2 -10 49.4 10.3
0 -2 -10 52.69 15.2
0 2 10 43 8.4
0 2 10 45.1 7.3
0 2 10 49.9 16.9
0 2 10 37 9.1
0 2 10 50.89 8.9
-1 -2 -10 55.79 10.1
-1 -2 -10 48.7 13.4
-1 -2 -10 37.2 10.9
1 2 10 54.49 10.3
1 2 10 43.6 7.5
1 2 10 48.2 8.2
-2 -2 -10 8 5.1
-2 -2 -10 10.4 7.3
-2 -2 -10 1.9 3.3
2 2 10 7.5 3.6
2 2 10 8.7 4.6
-3 -2 -10 14.7 7.4
-3 -2 -10 0.9 2.9
-3 -2 -10 10.6 6.2
3 2 10 0.6 2.8
3 2 10 4.6 2.1
-4 -2 -10 0.3 2.1
-4 -2 -10 3.5 3.3
4 2 10 3.3 2.2
7 -3 -10 162.88 17.4
7 -3 -10 132.29 15.8
-7 3 10 157.68 15.6
6 -3 -10 322.27 36.9
6 -3 -10 439.86 37.7
6 -3 -10 319.17 36.1
-6 3 10 362.76 31.8
-6 3 10 456.45 35
5 -3 -10 187.08 21.4
5 -3 -10 182.28 21.8
5 -3 -10 190.48 24.2
-5 3 10 174.68 22.1
-5 3 10 197.68 20
-5 3 10 181.58 17.6
4 -3 -10 1471.55 116.99
4 -3 -10 1339.37 111.99
4 -3 -10 1308.47 114.59
-4 3 10 1458.05 115.59
-4 3 10 1196.28 111.79
-4 3 10 1474.45 111.99
3 -3 -10 88.09 13.7
3 -3 -10 82.59 12.7
-3 3 10 85.29 12.8
-3 3 10 63.69 9.7
-3 3 10 60.49 11.1
-3 3 10 98.59 13.4
2 -3 -10 1750.82 139.29
2 -3 -10 1587.14 144.29
2 -3 -10 1840.02 135.49
2 -3 -10 1850.71 159.98
-2 3 10 1714.53 135.19
-2 3 10 1425.26 134.59
-2 3 10 1422.36 137.29
-2 3 10 1726.13 138.39
1 -3 -10 185.48 20.8
1 -3 -10 190.28 22.1
-1 3 10 145.49 19.5
-1 3 10 183.28 22.4
-1 3 10 194.28 19.3
-1 3 10 214.88 22.5
0 -3 -10 872.21 74.39
0 -3 -10 838.12 77.19
0 3 10 785.82 73.79
0 3 10 914.11 74.59
0 3 10 809.72 70.29
-1 -3 -10 109.09 17.1
-1 -3 -10 110.09 14.6
1 3 10 97.99 11.2
1 3 10 84.89 14.1
1 3 10 118.49 14.7
-2 -3 -10 101.59 16.5
2 3 10 135.89 16.4
2 3 10 110.49 10.8
2 3 10 114.19 14.7
-3 -3 -10 47.8 9.1
7 -4 -10 81.89 9.8
7 -4 -10 94.49 11.3
6 -4 -10 13.1 5
6 -4 -10 8.5 4.6
6 -4 -10 13.8 5.8
-6 4 10 13 4.4
-6 4 10 15.7 4.1
5 -4 -10 465.95 45.2
5 -4 -10 512.05 46.6
5 -4 -10 478.55 42.9
-5 4 10 507.35 44.2
-5 4 10 546.25 45.5
4 -4 -10 -0.3 5.7
4 -4 -10 0.1 4.1
-4 4 10 -6.5 4.7
-4 4 10 8.8 6.2
-4 4 10 3.8 3.6
3 -4 -10 488.95 44.7
-3 4 10 415.06 40.9
-3 4 10 452.05 43.7
-3 4 10 526.95 44.2
2 -4 -10 17.3 6.9
2 -4 -10 24.2 7.3
2 -4 -10 8.9 5.3
-2 4 10 16.7 5.2
-2 4 10 21.9 6.2
1 -4 -10 273.87 26.5
1 -4 -10 330.77 30.6
1 -4 -10 258.87 31.6
-1 4 10 299.77 29.3
0 -4 -10 55.79 10.1
0 -4 -10 70.99 12.5
0 4 10 74.39 12
-1 -4 -10 31.1 7.5
-1 -4 -10 29.5 7.2
1 4 10 20.1 5.4
1 4 10 25.2 5.9
-2 -4 -10 1.7 2.2
-2 -4 -10 8 5
2 4 10 0.4 2.7
6 -5 -10 -0.8 2.3
6 -5 -10 -0.2 2.8
-6 5 10 1.4 2.7
-6 5 10 0.4 2.2
5 -5 -10 74.29 11.1
-5 5 10 78.39 11
-5 5 10 68.89 9.3
4 -5 -10 -2.9 3.3
4 -5 -10 -2.9 3.1
-4 5 10 -2.4 2.3
-4 5 10 6.7 4.3
3 -5 -10 23.3 6.7
3 -5 -10 17.5 4.9
-3 5 10 24.8 6.8
2 -5 -10 1.9 5.1
2 -5 -10 3.3 3.6
-2 5 10 5 4.1
-2 5 10 -0.3 2.9
1 -5 -10 -3.8 2.6
1 -5 -10 1.1 3.5
1 -5 -10 4.4 3.1
-1 5 10 2.3 3.2
-1 5 10 -0.8 2
0 -5 -10 -0.9 2.2
0 -5 -10 1.5 3
0 5 10 1.8 3.4
0 5 10 -1.1 2.8
4 -6 -10 264.77 26
-4 6 10 299.17 26.1
3 -6 -10 15.7 4
-3 6 10 11.7 4.3
2 -6 -10 66.89 9
-1 9 -11 112.19 19.5
2 8 -11 34.3 8
2 8 -11 23 7.9
1 8 -11 47.8 13.9
1 8 -11 34.5 11.4
0 8 -11 8.1 8.7
0 8 -11 5.2 3.3
0 8 -11 17.7 9.1
0 8 -11 11.4 7.7
-1 8 -11 100.99 24.3
-1 8 -11 94.39 14.5
-1 8 -11 74.39 18.4
-2 8 -11 1.7 5.4
-2 8 -11 1.4 7.5
-2 8 -11 -1.1 8.7
-2 8 -11 0.8 5.1
-3 8 -11 64.79 11.1
-3 8 -11 69.89 10.2
-4 8 -11 3.6 3.5
-4 8 -11 1.3 2.3
-4 8 -11 -2.3 3.6
-5 8 -11 89.69 13.2
-5 8 -11 114.49 17.4
3 7 -11 5.8 6.5
3 7 -11 3.3 5.1
2 7 -11 13.4 5.4
2 7 -11 32.1 11.6
2 7 -11 20 9.5
-2 -7 11 16 3.9
1 7 -11 31.2 9.3
1 7 -11 37.6 7.3
1 7 -11 61.59 13.4
0 7 -11 129.79 23.6
0 7 -11 139.59 25.5
0 7 -11 127.49 17.3
0 7 -11 118.49 16.2
0 7 -11 132.59 25.9
0 7 -11 93.29 18.1
-1 7 -11 231.28 24.9
-1 7 -11 230.38 26.2
-1 7 -11 242.18 30.5
-1 7 -11 237.18 30.8
-1 7 -11 185.28 23.9
-1 7 -11 171.88 34.7
-2 7 -11 58.99 10.3
-2 7 -11 36.9 9.3
-2 7 -11 63.59 10.6
-2 7 -11 61.39 13
-2 7 -11 39.7 9.2
-2 7 -11 26.6 11.4
-3 7 -11 43.5 9
-3 7 -11 42.5 9.3
-3 7 -11 40.8 10.7
-3 7 -11 28.6 10.1
-3 7 -11 40.5 11.6
-3 7 -11 19.7 11
-3 7 -11 42.5 9.6
-4 7 -11 61.69 11.8
-4 7 -11 53.99 10.2
-4 7 -11 49.7 10.9
-4 7 -11 68.09 11.9
-5 7 -11 43.5 11.3
-6 7 -11 6.8 5
-6 7 -11 8.9 4.6
4 6 -11 14.5 5.5
-4 -6 11 20 3.9
3 6 -11 167.28 21.5
-3 -6 11 209.68 17.5
-3 -6 11 173.28 18.6
2 6 -11 56.59 16.7
2 6 -11 31.8 10.2
2 6 -11 52.99 15
2 6 -11 22.6 6.7
-2 -6 11 32.8 5.6
-2 -6 11 41.9 5.7
1 6 -11 123.09 25.3
1 6 -11 125.39 18.8
1 6 -11 176.48 23.9
1 6 -11 130.99 27
1 6 -11 187.28 29.5
1 6 -11 161.28 20.7
-1 -6 11 170.58 16.7
-1 -6 11 185.68 17.7
0 6 -11 57.79 13.5
0 6 -11 34.1 13.6
0 6 -11 43.6 9.4
0 6 -11 66.79 16
0 6 -11 47.6 10
0 6 -11 35.1 9.2
0 6 -11 51.39 19.8
0 -6 11 63.79 8.7
-1 6 -11 83.69 16.8
-1 6 -11 77.29 12.9
-1 6 -11 82.49 17
-1 6 -11 35.4 18
-1 6 -11 60.39 14.2
-1 6 -11 57.09 10.8
-2 6 -11 22.5 7.7
-2 6 -11 28.8 13
-2 6 -11 9.9 5.6
-2 6 -11 15.2 8.6
-2 6 -11 13.4 6.2
-2 6 -11 18.6 7.7
-2 6 -11 19.5 7.2
-2 6 -11 25.8 8.2
-3 6 -11 116.39 16.2
-3 6 -11 104.69 15.4
-3 6 -11 106.09 15.6
-3 6 -11 101.19 16
-3 6 -11 101.69 18.7
-3 6 -11 116.09 16.9
-4 6 -11 215.08 25
-4 6 -11 184.38 24
-4 6 -11 218.08 24.3
4 -6 11 202.58 18.9
-5 6 -11 9.1 6.2
-5 6 -11 8.1 5.8
-5 6 -11 3.9 4.8
-5 6 -11 11.4 5.2
5 -6 11 2.8 2.6
5 -6 11 7.9 5.8
-6 6 -11 0 6.4
-6 6 -11 16.4 5.7
-6 6 -11 30.7 8.7
5 5 -11 0.6 3.5
-5 -5 11 0.2 1.3
-5 -5 11 -0.1 1.5
4 5 -11 96.19 15.7
4 5 -11 160.18 20.1
4 5 -11 167.28 20.1
-4 -5 11 117.99 13.3
-4 -5 11 132.99 13
-4 -5 11 125.29 13.4
3 5 -11 69.69 15.8
3 5 -11 53.49 14.8
3 5 -11 80.49 14.1
3 5 -11 38.9 10.2
-3 -5 11 59.89 8.2
-3 -5 11 60.69 7.7
-3 -5 11 81.79 9
2 5 -11 416.36 48.5
2 5 -11 358.56 41
2 5 -11 402.36 48.5
2 5 -11 396.36 50.39
-2 -5 11 451.35 36.5
-2 -5 11 456.55 36.9
1 5 -11 106.19 23.8
1 5 -11 85.49 14.1
1 5 -11 69.99 20.2
1 5 -11 107.39 22
1 5 -11 96.69 16.8
-1 -5 11 101.79 10.8
-1 -5 11 103.59 10.8
0 5 -11 32.5 15.7
0 5 -11 60.19 11.3
0 5 -11 51.39 11.8
0 5 -11 73.59 15
0 5 -11 41.7 18.5
0 -5 11 62.09 7.5
-1 5 -11 130.29 17.9
-1 5 -11 132.59 17.7
-1 5 -11 135.09 18
-1 5 -11 129.09 22.8
-2 5 -11 128.29 20.4
-2 5 -11 130.79 17.8
-2 5 -11 118.29 17
-2 5 -11 128.09 22.3
-2 5 -11 102.69 23.3
-3 5 -11 0.8 3.4
-3 5 -11 7.6 4.9
-3 5 -11 11.1 5.9
-3 5 -11 7 7.4
-3 5 -11 0.4 5.9
-3 5 -11 3.5 4.1
3 -5 11 6.4 3.3
3 -5 11 5 3.1
-4 5 -11 24.6 8.5
-4 5 -11 21.5 7.4
-4 5 -11 31.7 9
-4 5 -11 21.8 6.6
4 -5 11 28.8 5.2
4 -5 11 20.8 5.6
-5 5 -11 63.39 11.7
-5 5 -11 76.89 13.1
-5 5 -11 56.89 14.7
-5 5 -11 44.9 9.4
5 -5 11 64.29 8.4
5 -5 11 70.39 8.2
5 -5 11 51.49 7.6
-6 5 -11 10.8 5.6
-6 5 -11 5.1 5.2
6 -5 11 8.9 2.6
6 -5 11 8.7 2.6
5 4 -11 110.79 14.1
5 4 -11 89.39 14.8
-5 -4 11 92.29 11.1
-5 -4 11 79.79 10.9
-5 -4 11 71.79 9.7
4 4 -11 383.96 41.9
4 4 -11 428.76 46.7
4 4 -11 478.25 46.9
4 4 -11 445.36 45.7
-4 -4 11 411.96 38.5
-4 -4 11 441.76 38.6
-4 -4 11 499.35 38.4
3 4 -11 11.3 6.6
3 4 -11 13.2 9.4
3 4 -11 6.9 4.5
3 4 -11 3.7 9.2
-3 -4 11 3.8 2.8
-3 -4 11 9.5 3.4
2 4 -11 987.9 129.19
2 4 -11 1255.87 111.99
-2 -4 11 1343.87 102.59
-2 -4 11 1304.87 101.79
1 4 -11 -0.4 3.5
1 4 -11 5.3 3.8
1 4 -11 10.1 8.5
1 4 -11 5.1 7
1 4 -11 4.3 6.7
1 4 -11 11 6.9
-1 -4 11 7.1 3
-1 -4 11 -0.2 5
0 4 -11 1421.46 134.99
0 4 -11 1616.74 129.59
0 4 -11 1634.94 128.49
0 4 -11 1355.16 130.89
0 4 -11 1629.04 132.09
0 -4 11 1317.67 127.09
0 -4 11 1662.33 123.09
-1 4 -11 33.3 9.6
-1 4 -11 31.1 8.5
-1 4 -11 34.3 9.1
-1 4 -11 18.2 6.6
-1 4 -11 31.6 15.1
-1 4 -11 26.1 9.1
-1 4 -11 40 12.7
1 -4 11 20.6 7.5
1 -4 11 31 5.7
-2 4 -11 994.1 85.39
-2 4 -11 1013.7 85.89
-2 4 -11 812.72 84.39
-2 4 -11 1001.4 97.99
-2 4 -11 991.6 85.89
-2 4 -11 991.2 97.59
2 -4 11 1034.7 80.49
2 -4 11 871.21 86.69
2 -4 11 1013.2 80.59
-3 4 -11 14 7.8
-3 4 -11 18.9 12.1
-3 4 -11 37.3 8.8
-3 4 -11 25.3 8.3
-3 4 -11 31.7 8.2
-3 4 -11 35.3 10
3 -4 11 25.3 5.6
3 -4 11 22.2 5.2
-4 4 -11 260.77 29.2
-4 4 -11 312.27 32.8
-4 4 -11 334.37 33
-4 4 -11 308.47 32.8
-4 4 -11 246.78 39
4 -4 11 281.37 26.6
4 -4 11 295.87 26.9
4 -4 11 302.07 27.4
-5 4 -11 19.6 7.7
-5 4 -11 7.6 4.2
-5 4 -11 13 6.4
-5 4 -11 19.3 8
5 -4 11 11.7 3.2
5 -4 11 10.4 3.6
5 -4 11 17.6 3.7
-6 4 -11 203.48 21.1
6 -4 11 166.58 16.3
6 -4 11 148.19 15.5
6 3 -11 116.19 13.7
-6 -3 11 105.99 11.2
-6 -3 11 95.59 10.4
-6 -3 11 110.49 10.6
5 3 -11 29.9 9.3
-5 -3 11 28.3 4.8
-5 -3 11 22.6 5.7
-5 -3 11 28.6 5.2
4 3 -11 334.67 36.3
4 3 -11 308.27 31.2
4 3 -11 261.77 33.4
-4 -3 11 330.07 27.1
-4 -3 11 329.57 27.1
-4 -3 11 240.68 26.8
-4 -3 11 278.57 27.7
3 3 -11 198.38 29.8
3 3 -11 187.68 27.4
3 3 -11 197.18 23.6
3 3 -11 146.39 21.8
-3 -3 11 211.68 18.7
-3 -3 11 194.68 19.8
-3 -3 11 186.68 19.2
-3 -3 11 200.28 18.6
2 3 -11 546.65 64.29
2 3 -11 681.03 65.69
2 3 -11 485.75 59.19
2 3 -11 624.04 55.39
2 3 -11 562.24 57.09
-2 -3 11 598.14 51.19
-2 -3 11 571.74 49.99
-2 -3 11 633.44 50.29
-2 -3 11 592.14 54.19
1 3 -11 463.05 49.3
1 3 -11 463.15 45
1 3 -11 422.66 51.39
1 3 -11 504.25 44.2
1 3 -11 447.06 49.2
1 3 -11 428.76 57.99
-1 -3 11 381.76 43.4
-1 -3 11 495.05 41.1
-1 -3 11 544.25 40.8
0 3 -11 490.75 43.7
0 3 -11 342.37 50.29
0 3 -11 416.66 44.3
0 3 -11 417.26 60.49
0 3 -11 491.85 50.49
0 3 -11 483.05 44.6
0 -3 11 402.06 44.1
0 -3 11 536.45 40.1
-1 3 -11 418.96 60.99
-1 3 -11 525.65 67.49
-1 3 -11 565.84 51.89
-1 3 -11 523.55 51.19
-1 3 -11 562.54 52.39
-1 3 -11 576.14 60.69
1 -3 11 517.95 53.29
1 -3 11 608.04 48.6
1 -3 11 600.94 48.1
-2 3 -11 144.09 23.6
-2 3 -11 133.79 16.7
-2 3 -11 119.19 23
-2 3 -11 103.49 15.4
-2 3 -11 115.39 15.9
2 -3 11 105.09 17.6
2 -3 11 89.89 15.7
2 -3 11 104.69 13.3
2 -3 11 122.69 13.2
-3 3 -11 465.45 43.4
-3 3 -11 526.75 58.89
-3 3 -11 411.36 40.8
-3 3 -11 419.76 42.7
3 -3 11 395.46 37.7
3 -3 11 432.26 39
3 -3 11 375.66 47
3 -3 11 456.65 38.6
-4 3 -11 26.5 8.8
-4 3 -11 46.9 17
-4 3 -11 29.4 8.4
-4 3 -11 38.7 10.6
4 -3 11 39.9 6.7
4 -3 11 35.5 6.4
4 -3 11 35.4 6.4
-5 3 -11 106.99 18.1
-5 3 -11 145.79 19.3
5 -3 11 116.59 13.5
5 -3 11 132.39 13.3
5 -3 11 132.99 19
5 -3 11 131.19 13.4
-6 3 -11 38.8 8
6 -3 11 55.79 6.3
6 -3 11 50.29 6.3
6 2 -11 34.1 8
-6 -2 11 37.1 6.8
-6 -2 11 30.9 5.2
-6 -2 11 27 5.6
5 2 -11 44.2 11
5 2 -11 49.8 10.8
5 2 -11 46.7 10.3
-5 -2 11 37.8 7.4
-5 -2 11 53.09 8.6
-5 -2 11 54.99 7.3
-5 -2 11 52.29 6.9
4 2 -11 138.79 18.2
4 2 -11 110.99 15.8
4 2 -11 145.69 21.7
4 2 -11 148.79 22.7
-4 -2 11 159.68 15.1
-4 -2 11 132.89 14.5
-4 -2 11 156.38 15.7
-4 -2 11 160.18 16.1
3 2 -11 16.3 6.2
3 2 -11 14.9 8
3 2 -11 7.8 7.5
-3 -2 11 10 9.4
-3 -2 11 12.9 3.5
-3 -2 11 9.6 3.7
2 2 -11 420.86 41.2
2 2 -11 418.16 52.79
2 2 -11 392.96 45.6
2 2 -11 435.16 49.3
2 2 -11 511.05 44.6
2 2 -11 552.74 52.29
-2 -2 11 452.25 44.5
-2 -2 11 462.85 39.9
-2 -2 11 479.45 41.6
1 2 -11 103.19 14.7
1 2 -11 104.89 17.9
1 2 -11 83.29 17.6
1 2 -11 109.99 15.2
1 2 -11 98.19 14.5
1 2 -11 110.79 17.8
1 2 -11 132.69 24.9
-1 -2 11 115.39 12.5
-1 -2 11 117.49 16.3
-1 -2 11 127.79 13.5
-1 -2 11 100.39 13.3
-1 -2 11 103.79 12.1
0 2 -11 402.46 34.3
0 2 -11 370.96 45.4
0 2 -11 361.76 35.8
0 2 -11 429.36 54.89
0 2 -11 366.86 37.1
0 2 -11 378.56 42.3
0 -2 11 327.37 33.2
0 -2 11 360.66 38.9
0 -2 11 370.86 33.7
0 -2 11 370.16 34.3
-1 2 -11 213.68 22.6
-1 2 -11 234.48 34.8
-1 2 -11 183.58 22.4
-1 2 -11 181.08 21.7
-1 2 -11 229.08 29.8
-1 2 -11 158.98 29.5
1 -2 11 151.58 19.9
1 -2 11 206.98 19.8
1 -2 11 190.48 19.4
1 -2 11 209.38 25.9
1 -2 11 177.48 20
-2 2 -11 111.89 14.8
-2 2 -11 87.19 19.9
-2 2 -11 130.19 23.4
-2 2 -11 96.89 15.3
2 -2 11 76.49 14.9
2 -2 11 91.99 15.9
2 -2 11 84.99 12.1
2 -2 11 89.79 11.4
-3 2 -11 37.3 9.5
-3 2 -11 38.4 9.8
-3 2 -11 61.19 18.3
3 -2 11 18.8 5.9
3 -2 11 28.5 6.3
3 -2 11 32.9 6.7
3 -2 11 34.2 6.3
-4 2 -11 66.59 16
-4 2 -11 63.19 10.9
-4 2 -11 66.59 11.1
4 -2 11 46.8 7.5
4 -2 11 59.99 7.9
4 -2 11 52.29 9
4 -2 11 33.5 9.9
-5 2 -11 6 4.3
-5 2 -11 1.9 3.4
-5 2 -11 -1.9 1.8
5 -2 11 1.4 1.8
5 -2 11 -1.1 2.7
5 -2 11 0.1 2
5 -2 11 3.7 3.6
7 1 -11 41.9 8.1
-7 -1 11 32.7 4.8
-7 -1 11 36.3 6.4
6 1 -11 5.1 4.4
6 1 -11 3.2 3.3
-6 -1 11 8.8 3.8
-6 -1 11 1.2 2.8
-6 -1 11 8.4 3.8
-6 -1 11 5.3 2.5
5 1 -11 241.98 25.2
5 1 -11 249.18 29.1
5 1 -11 218.08 27.8
-5 -1 11 269.37 23.3
-5 -1 11 266.37 24.2
-5 -1 11 221.68 22.7
-5 -1 11 267.57 24.4
4 1 -11 4.8 6.5
4 1 -11 8.6 4.2
4 1 -11 8.3 6.7
4 1 -11 5.9 5
4 1 -11 15.2 8
-4 -1 11 9 3.3
-4 -1 11 6.2 3.5
-4 -1 11 10.2 4.1
-4 -1 11 8.3 3.4
3 1 -11 1133.29 104.79
3 1 -11 1108.39 94.69
3 1 -11 1063.89 100.69
3 1 -11 1170.98 95.39
-3 -1 11 1138.69 93.29
-3 -1 11 1223.38 92.69
-3 -1 11 1031.6 96.49
-3 -1 11 1084.29 93.39
-3 -1 11 1100.89 91.99
2 1 -11 55.89 14.6
2 1 -11 79.99 18.6
2 1 -11 66.99 11.9
2 1 -11 66.39 12.9
2 1 -11 92.79 16.7
2 1 -11 90.09 12.3
2 1 -11 99.79 13.1
-2 -1 11 81.19 13.9
-2 -1 11 85.49 10.5
-2 -1 11 80.59 11.3
-2 -1 11 72.19 11.3
1 1 -11 2160.08 161.68
1 1 -11 1995.4 162.88
1 1 -11 1864.71 167.68
1 1 -11 2100.79 160.78
1 1 -11 2032.4 170.68
-1 -1 11 1778.02 160.28
-1 -1 11 2107.99 161.28
-1 -1 11 1839.32 165.68
-1 -1 11 1818.92 159.18
-1 -1 11 1999.9 159.88
0 1 -11 809.42 64.39
0 1 -11 839.52 63.89
0 1 -11 728.03 65.99
0 1 -11 691.23 63.99
0 1 -11 791.42 73.39
0 -1 11 678.03 62.69
0 -1 11 682.33 63.99
0 -1 11 756.52 64.49
0 -1 11 753.62 63.49
0 -1 11 657.43 69.19
-1 1 -11 436.06 34.8
-1 1 -11 375.26 37.1
-1 1 -11 350.06 35.6
-1 1 -11 394.56 35.2
-1 1 -11 349.47 43.1
1 -1 11 368.96 41
1 -1 11 354.36 34.3
1 -1 11 369.76 36
1 -1 11 345.97 35
1 -1 11 347.37 34
-2 1 -11 614.54 55.69
-2 1 -11 661.63 54.69
-2 1 -11 671.33 57.59
-2 1 -11 578.94 59.59
2 -1 11 609.14 60.99
2 -1 11 631.84 54.09
2 -1 11 598.14 53.49
2 -1 11 648.04 55.29
2 -1 11 558.04 54.49
-3 1 -11 115.99 21.6
-3 1 -11 102.79 14
-3 1 -11 92.29 13.4
-3 1 -11 91.39 12.4
3 -1 11 97.49 11.6
3 -1 11 69.69 11.8
3 -1 11 84.79 11.9
-4 1 -11 322.37 30.5
-4 1 -11 316.67 37.9
-4 1 -11 339.97 31.9
4 -1 11 298.27 27.9
4 -1 11 296.07 27.7
4 -1 11 282.67 28.9
-5 1 -11 22.8 8.1
-5 1 -11 19.9 5
5 -1 11 27.1 4.4
5 -1 11 19.5 4.9
5 -1 11 18.7 3.9
7 0 -11 18.6 5.2
7 0 -11 13.9 4.2
-7 0 11 13.1 3.7
-7 0 11 16.3 3.2
6 0 -11 131.39 17.1
-6 0 11 149.29 14
5 0 -11 173.08 19.5
5 0 -11 133.49 21.1
5 0 -11 177.48 22.3
-5 0 11 159.18 16.6
-5 0 11 176.98 18.2
-5 0 11 171.58 17.9
-5 0 11 175.48 16.9
4 0 -11 456.85 45.7
4 0 -11 452.85 49.4
4 0 -11 450.95 43
4 0 -11 550.74 49.8
4 0 -11 490.95 44.6
-4 0 11 418.96 40.7
-4 0 11 484.85 42.3
-4 0 11 467.85 42.3
3 0 -11 60.49 12.4
3 0 -11 40.1 11.2
3 0 -11 67.39 14.4
3 0 -11 60.19 10.6
3 0 -11 35.7 12.5
-3 0 11 36.2 9.9
-3 0 11 48.7 8.5
-3 0 11 49.6 8.2
-3 0 11 59.99 8.1
2 0 -11 251.07 29.7
2 0 -11 188.78 26.5
2 0 -11 253.67 25.6
2 0 -11 180.58 25.6
2 0 -11 241.68 33.7
2 0 -11 227.68 24.4
2 0 -11 268.07 25.5
-2 0 11 206.38 23.3
-2 0 11 230.28 28.1
-2 0 11 239.98 25.3
-2 0 11 235.18 22.6
1 0 -11 440.06 41.6
1 0 -11 501.55 42.9
1 0 -11 498.35 42.4
1 0 -11 493.85 49.4
1 0 -11 372.06 44.8
-1 0 11 399.86 46
-1 0 11 411.26 46
-1 0 11 426.76 41.3
-1 0 11 471.25 40.5
-1 0 11 434.76 39.8
0 0 -11 531.15 56.69
0 0 -11 694.83 58.19
0 0 -11 692.83 57.89
0 0 -11 688.23 64.49
0 0 11 618.24 62.99
0 0 11 603.44 57.49
0 0 11 660.03 56.39
0 0 11 654.33 55.99
-1 0 -11 611.84 57.99
-1 0 -11 599.84 59.29
-1 0 -11 469.65 50.89
-1 0 -11 590.14 56.29
1 0 11 449.86 49
1 0 11 524.85 46.4
1 0 11 458.05 46.8
-2 0 -11 482.35 42.7
-2 0 -11 415.06 42.6
-2 0 -11 476.35 41.9
2 0 11 451.85 42.8
2 0 11 487.45 40.9
2 0 11 414.36 40.6
2 0 11 462.65 42.2
-3 0 -11 465.25 40.6
-3 0 -11 417.06 41.4
-3 0 -11 506.25 41.6
3 0 11 411.76 40.4
3 0 11 478.35 39.6
3 0 11 432.96 41.1
3 0 11 431.26 39.5
-4 0 -11 -1.3 3.1
-4 0 -11 -0.9 2.5
-4 0 -11 -1 4.7
-4 0 -11 3.9 4.3
4 0 11 3.2 2.8
4 0 11 0.9 2
4 0 11 1.3 2.2
7 -1 -11 6.1 2.7
7 -1 -11 13.5 4.4
-7 1 11 7.9 2.8
6 -1 -11 81.19 17.5
6 -1 -11 31 7.8
6 -1 -11 50.09 9.9
-6 1 11 47.6 6.9
5 -1 -11 2 3.7
5 -1 -11 0 3.8
5 -1 -11 12 5.8
-5 1 11 6.1 2.9
-5 1 11 2 2.9
-5 1 11 3.3 3
-5 1 11 4 3.3
4 -1 -11 181.08 26.7
4 -1 -11 217.18 25.4
4 -1 -11 226.78 24.3
-4 1 11 209.68 22.1
-4 1 11 209.28 21.7
-4 1 11 231.88 21.1
3 -1 -11 73.99 12.9
3 -1 -11 31.2 9.6
3 -1 -11 73.59 12
3 -1 -11 41.7 11.1
3 -1 -11 63.69 13.9
-3 1 11 57.09 8.7
-3 1 11 54.49 9.1
-3 1 11 48.9 10.5
-3 1 11 46.6 7.8
2 -1 -11 102.39 21.7
2 -1 -11 123.39 16.6
2 -1 -11 140.99 28
2 -1 -11 84.09 15.1
2 -1 -11 85.69 19.2
2 -1 -11 86.79 12.5
-2 1 11 100.39 26.8
-2 1 11 108.79 13.7
-2 1 11 90.89 16.4
1 -1 -11 43 18.5
1 -1 -11 41.6 14.1
1 -1 -11 40 14.2
1 -1 -11 26.3 8.9
1 -1 -11 31.9 7.6
-1 1 11 37.8 8.4
-1 1 11 44.6 7.6
-1 1 11 37.1 12.5
0 -1 -11 700.73 57.59
0 -1 -11 617.64 61.99
0 -1 -11 733.53 80.69
0 1 11 580.44 55.99
0 1 11 651.03 55.09
0 1 11 620.64 54.99
0 1 11 519.35 60.29
0 1 11 665.83 57.59
-1 -1 -11 203.88 21.6
-1 -1 -11 180.28 23.9
-1 -1 -11 211.28 27.2
1 1 11 166.38 20.6
1 1 11 171.68 19.1
1 1 11 188.88 19.6
-2 -1 -11 187.28 20.2
2 1 11 170.78 18
2 1 11 193.28 20.6
2 1 11 176.48 18.2
-3 -1 -11 24.1 5.8
-3 -1 -11 28.2 6.5
-3 -1 -11 15.2 7.2
3 1 11 38.7 6.9
3 1 11 24.5 5
-4 -1 -11 26.9 6
-4 -1 -11 27.8 4.4
4 1 11 27.6 3.8
7 -2 -11 43 7.9
-7 2 11 52.19 6.8
6 -2 -11 350.96 33.2
6 -2 -11 309.57 32.8
-6 2 11 369.96 32
-6 2 11 372.96 29.8
5 -2 -11 264.67 32.3
5 -2 -11 339.27 31.5
-5 2 11 337.07 27.6
-5 2 11 347.47 29.7
-5 2 11 257.07 26.8
4 -2 -11 370.66 34.4
4 -2 -11 338.97 37.7
4 -2 -11 327.07 33.4
-4 2 11 300.87 30.2
-4 2 11 347.77 30.5
-4 2 11 353.16 32.5
3 -2 -11 136.19 17.1
3 -2 -11 127.09 20.5
-3 2 11 130.49 15.9
-3 2 11 113.39 13.8
-3 2 11 104.49 13.2
-3 2 11 108.49 14.4
2 -2 -11 524.95 46.7
2 -2 -11 598.84 55.79
2 -2 -11 422.96 46.4
-2 2 11 454.15 44.4
-2 2 11 487.65 43.2
-2 2 11 488.75 45.8
1 -2 -11 411.96 44.3
1 -2 -11 362.56 35.8
-1 2 11 339.47 35.4
-1 2 11 335.47 34.2
-1 2 11 362.46 33.1
0 -2 -11 256.37 28.9
0 -2 -11 186.78 25.1
0 -2 -11 216.18 23.5
0 2 11 193.88 20.6
0 2 11 198.98 23.2
0 2 11 215.58 20.9
-1 -2 -11 155.78 18.2
-1 -2 -11 216.98 22.5
1 2 11 214.58 18.9
1 2 11 174.58 19.9
-2 -2 -11 60.59 9.5
-2 -2 -11 64.79 12.6
2 2 11 46.5 6.6
2 2 11 48 8.8
-3 -2 -11 16.1 4.6
-3 -2 -11 3.8 3.8
3 2 11 10.9 3.5
6 -3 -11 116.39 13.6
6 -3 -11 98.19 13.8
-6 3 11 118.99 13
-6 3 11 140.79 20.8
5 -3 -11 76.69 12
5 -3 -11 124.39 16.7
5 -3 -11 81.69 13.5
-5 3 11 94.49 14.9
4 -3 -11 344.77 33.8
4 -3 -11 308.07 36.2
-4 3 11 352.86 30.6
-4 3 11 374.46 33.4
-4 3 11 335.37 32.4
3 -3 -11 222.88 27.6
3 -3 -11 213.98 23.8
-3 3 11 232.38 23.5
-3 3 11 199.98 23.2
2 -3 -11 442.46 40.2
-2 3 11 397.46 36.5
-2 3 11 379.86 39
-2 3 11 466.75 40.4
1 -3 -11 52.89 11.7
1 -3 -11 43.2 10.2
1 -3 -11 57.69 9.8
-1 3 11 66.79 12.8
-1 3 11 45.8 9.6
-1 3 11 50.09 7.6
0 -3 -11 87.19 14.9
0 -3 -11 106.39 15.8
0 -3 -11 126.39 14.8
0 3 11 121.99 14.9
0 3 11 127.29 14.2
-1 -3 -11 6.6 5
-1 -3 -11 7.6 4.4
1 3 11 10.3 3.2
1 3 11 12.4 4
-2 -3 -11 187.08 17.7
2 3 11 147.29 16
6 -4 -11 8.5 3.2
6 -4 -11 7.5 3
-6 4 11 5.6 3.8
5 -4 -11 -1.4 3.5
5 -4 -11 0.1 3.3
-5 4 11 10.2 4.1
-5 4 11 3.9 3.2
4 -4 -11 1.9 3.4
4 -4 -11 -1.2 2.5
-4 4 11 -0.5 4.8
-4 4 11 0 2.7
3 -4 -11 -4.1 3
3 -4 -11 -0.4 2.8
-3 4 11 0 4.8
2 -4 -11 22.6 6.7
2 -4 -11 20.1 7.3
-2 4 11 12 4.2
1 -4 -11 36.7 7.8
1 -4 -11 30.3 6.5
-1 4 11 48.4 8.5
0 -4 -11 13.3 4.3
0 4 11 11 3.5
-4 5 11 762.62 63.19
3 -5 -11 380.96 36.1
2 -5 -11 239.48 23.9
-2 5 11 241.88 21.7
-2 5 11 237.08 25.6
1 8 -12 2.6 5
1 8 -12 0.3 4.7
0 8 -12 27.7 9.3
0 8 -12 15.1 6.6
0 8 -12 21.7 9.4
-1 8 -12 56.29 15.8
-2 8 -12 5.6 6.3
-2 8 -12 5.2 9.2
-3 8 -12 5.2 3.7
-4 8 -12 12.7 6.6
2 7 -12 2 5.1
2 7 -12 0.9 5.1
2 7 -12 3.9 3.6
1 7 -12 353.06 37.4
1 7 -12 292.27 30.7
0 7 -12 227.28 29.7
0 7 -12 192.48 22.6
-1 7 -12 110.69 15.1
-1 7 -12 115.09 19.1
-1 7 -12 123.29 24.2
-2 7 -12 158.48 18.7
-2 7 -12 146.99 23.6
-3 7 -12 0.4 5
-3 7 -12 -3.2 2.4
-3 7 -12 3.6 4.1
-3 7 -12 0.1 4.8
-3 7 -12 3.9 3.5
-4 7 -12 16.4 5.2
-4 7 -12 11.9 6.9
-4 7 -12 29.5 6.3
-5 7 -12 -0.7 2.3
-5 7 -12 0.3 3.9
3 6 -12 79.79 11.1
-3 -6 12 83.99 9.2
-3 -6 12 76.39 10.5
2 6 -12 27.7 8.5
2 6 -12 25.9 10
2 6 -12 30.8 15.8
2 6 -12 17.3 5.7
-2 -6 12 16.6 3.5
1 6 -12 201.18 29.9
1 6 -12 215.88 27.7
1 6 -12 252.87 32.3
1 6 -12 161.18 21.7
1 6 -12 174.28 24.3
-1 -6 12 231.78 21
0 6 -12 3.2 7.8
0 6 -12 1.3 3.6
0 6 -12 5.8 6.5
0 6 -12 1.2 4.1
-1 6 -12 62.59 10.7
-1 6 -12 68.79 10.9
-1 6 -12 49.9 12.5
-1 6 -12 55.79 12.9
-2 6 -12 44.9 9.4
-2 6 -12 46.8 9.5
-2 6 -12 35.1 8.9
-2 6 -12 50.09 18.5
-2 6 -12 30 11.5
-3 6 -12 155.38 19.4
-3 6 -12 140.99 21.5
-3 6 -12 140.19 20
-3 6 -12 161.98 19.9
-3 6 -12 185.58 20.1
-4 6 -12 2.3 3.3
-4 6 -12 -0.3 4.3
-4 6 -12 12.6 5.4
-4 6 -12 1.5 3.2
-4 6 -12 4.6 6.4
-5 6 -12 35.4 8
-5 6 -12 32.7 7.9
-5 6 -12 39 8
4 5 -12 16.5 5.8
-4 -5 12 8.4 2.4
-4 -5 12 13.3 3.1
3 5 -12 1 3.2
3 5 -12 6.2 4
3 5 -12 6.2 12.6
-3 -5 12 -1.5 2.2
-3 -5 12 -1.3 2.5
-3 -5 12 -0.5 1.7
2 5 -12 100.19 19.1
2 5 -12 66.79 16.6
2 5 -12 61.19 14.4
2 5 -12 59.09 10.8
-2 -5 12 70.69 8.3
-2 -5 12 80.19 9.1
-2 -5 12 64.29 8.2
1 5 -12 76.89 13
1 5 -12 105.19 21.8
1 5 -12 106.89 22.4
1 5 -12 88.39 15.5
1 5 -12 115.59 20.5
-1 -5 12 77.49 12.1
-1 -5 12 96.99 10.1
0 5 -12 40.3 12.6
0 5 -12 50.99 9.9
0 5 -12 68.79 14
0 5 -12 62.49 10.3
0 5 -12 40.8 17.7
0 5 -12 55.29 13.1
0 -5 12 49 7.4
-1 5 -12 11.4 5.2
-1 5 -12 8.5 6.9
-1 5 -12 4.1 5.6
-1 5 -12 -2.6 9.2
-1 5 -12 8.4 5.2
1 -5 12 13.4 3.9
-2 5 -12 44.9 9.2
-2 5 -12 58.69 17.8
-2 5 -12 28.8 12.1
-2 5 -12 39.5 8.8
-2 5 -12 38.8 13.7
-2 5 -12 37.9 9.1
2 -5 12 35.7 6.3
2 -5 12 51.19 6.5
-3 5 -12 44.4 9
-3 5 -12 38.8 13.1
-3 5 -12 50.99 9.6
-3 5 -12 44.2 9.7
-3 5 -12 25.1 11.2
3 -5 12 43.4 6.5
3 -5 12 43.9 6.4
-4 5 -12 54.59 10.3
-4 5 -12 44.1 11.6
4 -5 12 40.3 7.7
4 -5 12 36.2 7.3
4 -5 12 44.8 6.2
-5 5 -12 -1.6 2.2
-5 5 -12 -1.6 3.4
-5 5 -12 3.2 4.8
5 -5 12 0.2 2.2
5 -5 12 0.4 2.3
5 4 -12 46.4 7.7
-5 -4 12 30.8 4.8
4 4 -12 39.6 9.1
4 4 -12 49.9 11.3
-4 -4 12 55.29 7.5
-4 -4 12 71.89 7.7
-4 -4 12 58.09 7.2
3 4 -12 230.28 25.9
3 4 -12 254.57 30.6
3 4 -12 205.78 28.4
-3 -4 12 243.28 21.8
-3 -4 12 246.78 24.4
-3 -4 12 245.58 22.4
2 4 -12 72.29 16.6
2 4 -12 58.69 10.4
2 4 -12 39.7 13.7
-2 -4 12 59.99 7.5
-2 -4 12 66.09 8.3
-2 -4 12 51.79 8
1 4 -12 316.97 45.8
1 4 -12 379.56 42.1
1 4 -12 364.96 36.6
1 4 -12 380.46 35.2
-1 -4 12 339.67 34.1
-1 -4 12 377.86 32.4
0 4 -12 0.3 3.9
0 4 -12 4.8 6.5
0 4 -12 4.5 4.7
0 4 -12 0.8 4.5
0 4 -12 6.8 9
0 -4 12 1.1 2.1
0 -4 12 -0.3 3.3
-1 4 -12 454.85 41.7
-1 4 -12 447.56 49.5
-1 4 -12 422.76 42
-1 4 -12 504.15 60.69
-1 4 -12 410.36 41.4
1 -4 12 392.56 40.1
-2 4 -12 402.66 46.2
-2 4 -12 364.76 37.1
-2 4 -12 337.97 36.5
-2 4 -12 414.96 46.6
-2 4 -12 377.56 37.7
2 -4 12 347.17 33.4
2 -4 12 413.36 33.7
-3 4 -12 138.69 25.6
-3 4 -12 132.09 16.5
-3 4 -12 151.48 18.2
-3 4 -12 116.59 16.6
3 -4 12 129.29 13.9
3 -4 12 143.89 14.5
3 -4 12 124.39 16.5
-4 4 -12 355.06 34.7
-4 4 -12 396.06 39.5
4 -4 12 301.77 29.5
4 -4 12 317.77 29
4 -4 12 320.67 29.2
-5 4 -12 26.5 6.3
-5 4 -12 39.5 8.2
5 -4 12 28.8 4.6
5 -4 12 17.5 4.1
5 3 -12 38.1 8.3
-5 -3 12 27.6 5.9
-5 -3 12 35.3 5
-5 -3 12 35.2 6.5
4 3 -12 387.36 44.5
4 3 -12 400.36 40.1
4 3 -12 439.96 44
-4 -3 12 409.56 37.1
-4 -3 12 431.06 37.4
-4 -3 12 474.05 37
3 3 -12 2 4
3 3 -12 -0.3 2.7
3 3 -12 7.9 5.6
3 3 -12 0.2 6
-3 -3 12 7.1 2.7
-3 -3 12 -0.4 2.4
-3 -3 12 -0.3 2
2 3 -12 572.34 64.69
2 3 -12 657.23 55.99
-2 -3 12 620.74 50.89
-2 -3 12 589.24 50.89
-2 -3 12 566.24 51.39
1 3 -12 36.1 14.2
1 3 -12 67.09 15
1 3 -12 67.79 10.8
1 3 -12 52.19 10.3
1 3 -12 63.19 13.1
1 3 -12 70.19 20
-1 -3 12 51.49 8.2
-1 -3 12 68.79 8.8
0 3 -12 438.86 57.59
0 3 -12 450.25 45.7
0 3 -12 514.55 46.6
0 3 -12 514.55 45.4
0 3 -12 438.86 50.09
0 3 -12 553.74 65.59
0 -3 12 471.65 49.2
0 -3 12 524.25 42.3
0 -3 12 455.35 41.7
-1 3 -12 141.09 22.3
-1 3 -12 122.89 16.6
-1 3 -12 136.59 27.4
-1 3 -12 144.29 17.9
1 -3 12 139.59 14.5
1 -3 12 88.89 28.3
1 -3 12 121.59 14.3
1 -3 12 133.09 14.9
-2 3 -12 385.46 43.4
-2 3 -12 310.47 31.5
-2 3 -12 311.67 37.7
-2 3 -12 325.57 32.5
2 -3 12 300.17 28.4
2 -3 12 288.87 28.9
2 -3 12 278.57 30.6
-3 3 -12 49.99 10
-3 3 -12 62.79 10.7
-3 3 -12 68.29 19.7
3 -3 12 57.39 8.3
3 -3 12 60.19 9.7
3 -3 12 53.59 7.7
-4 3 -12 83.59 19
-4 3 -12 112.69 15
-4 3 -12 120.49 16.5
4 -3 12 102.89 11.5
4 -3 12 103.49 11.4
4 -3 12 102.99 12.1
-5 3 -12 22.2 5.8
-5 3 -12 33.6 6.9
-5 3 -12 14.5 5.1
5 -3 12 20.9 4
6 2 -12 8.8 4
-6 -2 12 8 2.9
-6 -2 12 5 2
5 2 -12 0.9 4.2
5 2 -12 8.3 4.7
-5 -2 12 4 3
-5 -2 12 9.8 3.1
-5 -2 12 8.3 2.8
-5 -2 12 9.7 3.2
4 2 -12 15.5 7.2
4 2 -12 5.8 3.6
4 2 -12 1.1 3.5
-4 -2 12 1.9 5.2
-4 -2 12 3.8 2.2
-4 -2 12 3.7 2.9
-4 -2 12 3.4 3
3 2 -12 18.2 5.8
3 2 -12 21.1 9
3 2 -12 23.2 8.8
3 2 -12 18.2 7.9
-3 -2 12 23.4 6
-3 -2 12 19.7 5.1
-3 -2 12 20.8 5.4
2 2 -12 4.9 4.5
2 2 -12 19.2 8.6
2 2 -12 21.2 8.3
2 2 -12 10.3 7.9
2 2 -12 5.8 4.6
-2 -2 12 16.7 3.8
-2 -2 12 10.2 4.1
-2 -2 12 12.9 3.9
-2 -2 12 7.3 3.9
1 2 -12 395.76 49.8
1 2 -12 372.16 36.8
1 2 -12 366.96 37.6
-1 -2 12 294.57 33.4
-1 -2 12 340.37 33.2
-1 -2 12 406.66 40
-1 -2 12 411.96 35
-1 -2 12 421.16 34.1
0 2 -12 17.1 10.4
0 2 -12 12.3 5.4
0 2 -12 6 12.8
0 2 -12 7.5 4.4
0 -2 12 11.1 3.9
0 -2 12 6.3 3.2
0 -2 12 13.9 6.9
-1 2 -12 163.78 20.4
-1 2 -12 221.98 32
-1 2 -12 209.98 27.3
-1 2 -12 185.98 19.7
1 -2 12 167.38 17.8
1 -2 12 170.38 18.7
1 -2 12 130.39 17.8
1 -2 12 162.78 17.9
-2 2 -12 39.4 13.2
-2 2 -12 21.2 8.4
-2 2 -12 30.1 7.6
-2 2 -12 29.7 8.1
2 -2 12 26.5 6.9
2 -2 12 30.1 6.1
2 -2 12 44.4 8.1
2 -2 12 32.8 6.5
-3 2 -12 80.79 17.7
-3 2 -12 57.39 10.2
-3 2 -12 51.79 9.8
3 -2 12 51.39 8.7
3 -2 12 58.79 9.2
3 -2 12 50.39 7.7
3 -2 12 53.39 8
-4 2 -12 59.19 13.9
-4 2 -12 88.69 11.6
-4 2 -12 90.49 11.4
4 -2 12 73.29 8.6
4 -2 12 64.89 10.1
4 -2 12 51.99 7.9
4 -2 12 65.79 9.3
-5 2 -12 6.4 3.3
-5 2 -12 1.7 3.9
-5 2 -12 2.4 2.9
5 -2 12 2.9 2.4
5 -2 12 4.6 2.5
6 1 -12 12.9 5.3
-6 -1 12 10 2.7
-6 -1 12 6.2 2.4
-6 -1 12 9.4 4.2
5 1 -12 220.88 19.5
-5 -1 12 203.48 19.8
4 1 -12 5.8 6.6
4 1 -12 3.6 4.2
4 1 -12 17.9 8.1
4 1 -12 8 3.9
-4 -1 12 5.7 3.9
-4 -1 12 9.3 4.3
-4 -1 12 12.4 3.8
-4 -1 12 10.4 3.5
3 1 -12 321.67 33
3 1 -12 281.97 34.3
3 1 -12 253.57 26.1
3 1 -12 248.78 27.4
-3 -1 12 277.97 25.3
-3 -1 12 243.18 25.2
-3 -1 12 274.87 26.3
-3 -1 12 282.77 26
2 1 -12 33.5 12.3
2 1 -12 26.5 8.9
2 1 -12 14.5 10.7
2 1 -12 23.1 6.8
2 1 -12 44.4 8.3
2 1 -12 25.3 8.3
-2 -1 12 32.4 6.3
-2 -1 12 22.3 5.9
1 1 -12 381.96 42.6
1 1 -12 436.56 37.5
1 1 -12 468.55 52.09
1 1 -12 401.16 38.8
-1 -1 12 375.06 37.2
-1 -1 12 412.16 36.9
-1 -1 12 408.26 37
-1 -1 12 382.76 45.3
-1 -1 12 431.16 38.5
0 1 -12 -2.5 4.3
0 1 -12 4.7 8.1
0 1 -12 1.4 3.1
0 1 -12 3.5 5.7
0 -1 12 6 4
0 -1 12 4.8 3.1
0 -1 12 0.7 3.2
-1 1 -12 452.65 42.3
-1 1 -12 378.96 42.9
-1 1 -12 581.64 55.29
-1 1 -12 533.35 41.8
-1 1 -12 512.55 52.09
1 -1 12 451.05 42.9
1 -1 12 432.16 42.6
1 -1 12 465.85 42
1 -1 12 459.85 41.7
-2 1 -12 33.5 9.5
-2 1 -12 47.7 9
2 -1 12 46.7 9
2 -1 12 41.6 7.4
2 -1 12 46 8.3
2 -1 12 45.2 7.7
-3 1 -12 176.98 22.2
-3 1 -12 203.38 29
-3 1 -12 221.38 20.4
3 -1 12 181.58 19.6
3 -1 12 176.68 19.6
3 -1 12 208.48 21.6
3 -1 12 193.78 19
-4 1 -12 1.8 3.8
-4 1 -12 5.6 3.4
-4 1 -12 11.6 6.3
4 -1 12 8.7 2.8
4 -1 12 4.4 2.2
4 -1 12 4 4.2
6 0 -12 23.4 5.3
6 0 -12 25.6 6.5
-6 0 12 15.4 3.7
-6 0 12 26.6 5.4
-6 0 12 24.5 4.4
5 0 -12 134.29 19.2
5 0 -12 148.59 16.3
5 0 -12 158.58 19.2
-5 0 12 163.68 16.9
-5 0 12 150.48 16.2
-5 0 12 160.18 16.4
-5 0 12 181.78 15.8
4 0 -12 3.7 4.8
4 0 -12 6 5.9
4 0 -12 4.4 3.9
4 0 -12 6 4.4
-4 0 12 5.8 3.8
-4 0 12 5.1 3.3
-4 0 12 4.7 3.5
-4 0 12 4.8 2.7
3 0 -12 260.67 32.1
3 0 -12 264.67 25.4
3 0 -12 233.28 24.9
3 0 -12 245.88 27.4
-3 0 12 220.78 25
-3 0 12 255.27 23.6
-3 0 12 247.48 24.8
2 0 -12 159.18 19.1
2 0 -12 204.78 20.3
2 0 -12 199.48 28.5
-2 0 12 170.78 19.7
-2 0 12 188.38 18.9
-2 0 12 165.68 19.5
1 0 -12 114.09 15.1
1 0 -12 142.69 15.7
1 0 -12 173.48 26.8
1 0 -12 92.49 16.5
-1 0 12 118.09 15.1
-1 0 12 142.39 15
-1 0 12 119.99 15.2
-1 0 12 124.79 14.7
0 0 -12 53.09 15.9
0 0 -12 36.8 8.3
0 0 -12 51.99 11.4
0 0 -12 56.19 9.1
0 0 12 51.99 9
0 0 12 41.2 8.3
0 0 12 47.4 8.5
0 0 12 59.69 8.9
-1 0 -12 214.18 27.7
-1 0 -12 255.87 22.5
-1 0 -12 179.88 27.5
-1 0 -12 214.88 22.6
1 0 12 228.68 21.7
1 0 12 188.58 21
1 0 12 210.08 22.7
-2 0 -12 93.19 14
-2 0 -12 102.99 18.2
-2 0 -12 91.49 12.7
2 0 12 80.39 10.7
2 0 12 108.99 11.7
-3 0 -12 4 2.4
-3 0 -12 -0.9 3.9
3 0 12 1.6 2.3
3 0 12 -0.8 2.5
3 0 12 0.9 2.3
6 -1 -12 32.1 6.7
6 -1 -12 26.5 5.5
-6 1 12 31.9 5.7
-6 1 12 37.1 5.5
5 -1 -12 64.29 10.7
5 -1 -12 51.29 10.6
5 -1 -12 74.29 10.2
-5 1 12 59.69 8.6
-5 1 12 75.59 10.2
-5 1 12 88.89 10
4 -1 -12 79.59 11.9
4 -1 -12 71.69 12.6
4 -1 -12 81.79 14.6
-4 1 12 92.59 10.4
-4 1 12 82.09 9.8
-4 1 12 99.99 11.9
3 -1 -12 649.83 65.49
3 -1 -12 717.23 59.49
-3 1 12 689.13 56.99
-3 1 12 604.74 59.89
-3 1 12 677.03 57.19
2 -1 -12 34.5 11.2
2 -1 -12 32.4 7.7
-2 1 12 35.2 7
-2 1 12 24.4 5.7
-2 1 12 23.6 5.9
-2 1 12 41.5 8
1 -1 -12 295.57 27.4
1 -1 -12 218.48 28.3
-1 1 12 251.87 26.6
-1 1 12 287.37 27.9
-1 1 12 271.67 25.7
0 -1 -12 101.59 12.9
0 -1 -12 109.59 18.1
0 -1 -12 82.79 14.9
0 1 12 94.89 13.9
0 1 12 96.09 11.9
0 1 12 87.39 13
0 1 12 86.69 11.1
-1 -1 -12 5.1 5.3
-1 -1 -12 11.3 4.8
-1 -1 -12 7.3 4.7
-1 -1 -12 0.8 2.3
1 1 12 6.9 3.8
1 1 12 1.9 2.6
1 1 12 4.9 3.9
1 1 12 8 3.1
-2 -1 -12 57.09 11.5
-2 -1 -12 56.69 8.1
2 1 12 55.19 8.3
2 1 12 52.19 7
-3 -1 -12 20.6 5.8
3 1 12 13.1 4.2
6 -2 -12 383.76 35.2
6 -2 -12 386.86 33.6
5 -2 -12 -0.2 3.3
5 -2 -12 1.7 3
5 -2 -12 2.8 4.7
-5 2 12 -0.7 2.7
-5 2 12 -0.3 2
4 -2 -12 851.81 71.59
4 -2 -12 713.13 73.09
3 -2 -12 202.78 24.6
3 -2 -12 202.88 20.3
-3 2 12 171.48 19.2
-3 2 12 141.79 16.8
2 -2 -12 535.65 47.2
2 -2 -12 495.35 53.09
-2 2 12 512.05 44.8
-2 2 12 532.55 47.5
1 -2 -12 290.77 27.3
1 -2 -12 253.57 31.8
-1 2 12 282.97 25.2
-1 2 12 205.38 25.8
-1 2 12 309.47 28.3
0 -2 -12 413.36 42.3
0 -2 -12 443.26 45.3
0 -2 -12 479.45 43.2
0 2 12 371.36 39
0 2 12 466.05 41.7
-1 -2 -12 280.07 25.6
1 2 12 252.57 23.5
1 2 12 286.17 26.5
-2 -2 -12 84.89 9
-2 -2 -12 70.59 11.8
2 2 12 94.09 11.7
5 -3 -12 449.66 43.2
-5 3 12 551.94 43.4
4 -3 -12 303.27 28.6
-4 3 12 277.47 25.4
-4 3 12 327.57 28.4
3 -3 -12 569.04 45.7
3 -3 -12 428.36 47.6
-3 3 12 512.95 41.7
2 -3 -12 460.55 45.6
2 -3 -12 463.95 41.8
-2 3 12 529.45 42.9
-2 3 12 419.56 38.4
1 -3 -12 163.48 18
-1 3 12 174.28 18.2
0 -3 -12 111.39 13.7
4 -4 -12 99.19 14.1
4 -4 -12 136.79 14.2
-4 4 12 136.29 13.7
3 -4 -12 4.8 3.3
3 -4 -12 5.2 2.8
-3 4 12 5.6 3
2 -4 -12 46.2 7.7
1 7 -13 276.07 31.3
0 7 -13 45.4 12.3
0 7 -13 42.7 7.3
-1 7 -13 352.36 37.9
-1 7 -13 458.65 43.4
-1 7 -13 471.25 50.89
-2 7 -13 1.9 2.8
-2 7 -13 0.7 3.7
-2 7 -13 1.1 2.8
-2 7 -13 1.9 4.8
-3 7 -13 179.58 19.6
-3 7 -13 173.08 24.5
-4 7 -13 15.9 4.9
2 6 -13 135.29 15.5
2 6 -13 139.49 17.5
1 6 -13 0.8 2.7
1 6 -13 -0.3 3.6
1 6 -13 3.5 3.5
0 6 -13 213.78 22.5
0 6 -13 188.58 31.1
-1 6 -13 55.79 17
-1 6 -13 50.89 12.5
-1 6 -13 73.89 11
-1 6 -13 72.59 12
-1 6 -13 84.59 13.7
-2 6 -13 161.48 23.7
-2 6 -13 168.98 19.1
-3 6 -13 50.69 8.8
-3 6 -13 38.3 12.6
-3 6 -13 41.5 7.6
-3 6 -13 36.1 7.8
-4 6 -13 52.79 11.5
-4 6 -13 50.39 8.3
3 5 -13 7.2 4.9
3 5 -13 2.8 3.5
-3 -5 13 4.8 2.3
-3 -5 13 6.1 2.2
2 5 -13 23.9 5.7
2 5 -13 23.9 9
2 5 -13 33 10.9
-2 -5 13 12.6 3.4
-2 -5 13 17.4 4.3
1 5 -13 90.19 26.6
1 5 -13 39 12.8
1 5 -13 37.4 8.9
-1 -5 13 42.3 7.1
-1 -5 13 38 5.3
0 5 -13 18.7 5.7
0 5 -13 13.2 9.6
0 5 -13 19.5 11.3
0 5 -13 19.6 7.2
0 -5 13 21.3 4
0 -5 13 17.2 4.1
-1 5 -13 18.7 7.4
-1 5 -13 11.5 4.4
-1 5 -13 14.2 10.5
-1 5 -13 19.5 5.8
-1 5 -13 15.3 7.8
1 -5 13 9.9 3.6
-2 5 -13 14.3 5.7
-2 5 -13 8.4 7
-2 5 -13 9.4 6.7
-2 5 -13 11.8 4.9
2 -5 13 12.3 3.4
2 -5 13 9.9 4.1
-3 5 -13 0.3 5.1
-3 5 -13 8.7 4
-3 5 -13 1.7 4.9
-3 5 -13 20.2 6.2
3 -5 13 9.8 3.3
-4 5 -13 20.2 5.3
-4 5 -13 31.6 7.5
4 4 -13 410.56 37.2
-4 -4 13 408.66 32.5
-4 -4 13 331.97 32.7
3 4 -13 70.09 13.5
3 4 -13 103.39 16.2
-3 -4 13 103.99 11.5
-3 -4 13 91.99 10
-3 -4 13 102.29 10.1
2 4 -13 379.86 46.9
2 4 -13 299.27 35.6
2 4 -13 304.27 30
-2 -4 13 260.57 25.9
-2 -4 13 316.37 25.9
-2 -4 13 254.77 25.3
1 4 -13 217.08 31.9
1 4 -13 226.98 24.2
1 4 -13 271.17 29.7
-1 -4 13 210.98 20.1
-1 -4 13 219.88 20.7
-1 -4 13 207.38 20.2
0 4 -13 134.79 17.3
0 4 -13 126.59 20.1
0 4 -13 157.98 17.3
0 4 -13 163.18 28.8
0 -4 13 145.59 14.6
0 -4 13 131.29 14.2
-1 4 -13 188.78 27.7
-1 4 -13 236.38 24.7
-1 4 -13 279.47 37.9
-1 4 -13 268.17 24.7
1 -4 13 210.48 21.2
1 -4 13 232.38 21.1
1 -4 13 209.08 20.9
-2 4 -13 35.2 8.7
-2 4 -13 38.6 11.7
-2 4 -13 43.2 11.6
-2 4 -13 44.1 13.3
2 -4 13 55.49 7.5
2 -4 13 45.4 6.3
-3 4 -13 170.78 25.2
-3 4 -13 172.08 17.7
-3 4 -13 138.99 17.4
3 -4 13 144.99 13.9
3 -4 13 121.99 15.5
3 -4 13 119.39 14.3
-4 4 -13 -2.8 4.9
-4 4 -13 5.7 3.7
-4 4 -13 4.7 3.3
4 -4 13 1.8 2
4 -4 13 6.5 2.3
5 3 -13 -1.1 2.9
-5 -3 13 4.6 1.7
-5 -3 13 0.6 1.6
4 3 -13 123.19 16.3
-4 -3 13 139.09 12.3
-4 -3 13 106.99 12.1
-4 -3 13 124.09 12.8
3 3 -13 14.1 8.6
3 3 -13 7.8 4.5
3 3 -13 17.8 8.5
-3 -3 13 12.5 3
-3 -3 13 8.4 3.7
2 3 -13 276.47 35.4
2 3 -13 322.17 35.3
2 3 -13 284.27 29.2
-2 -3 13 277.17 26.5
-2 -3 13 280.87 25.9
1 3 -13 27 11.1
1 3 -13 16.4 5.5
1 3 -13 29 13.8
1 3 -13 10.6 5.3
-1 -3 13 20.9 5.1
-1 -3 13 16.1 5.2
0 3 -13 336.87 36.6
0 3 -13 361.76 40.6
0 3 -13 442.56 52.69
0 3 -13 392.76 35.9
0 -3 13 402.76 35.8
0 -3 13 437.16 36.6
0 -3 13 342.77 33.6
-1 3 -13 37.6 11.9
-1 3 -13 49.8 9.3
-1 3 -13 49.3 9
-1 3 -13 52.59 15.4
1 -3 13 46.9 6.8
-2 3 -13 460.05 46.4
-2 3 -13 393.36 37.6
-2 3 -13 407.26 39.1
-2 3 -13 310.77 38.5
2 -3 13 375.06 34.2
2 -3 13 407.96 34.2
2 -3 13 389.66 34.9
-3 3 -13 10.4 6.4
-3 3 -13 3.6 2.7
-3 3 -13 3.6 3.5
3 -3 13 5.1 2.2
3 -3 13 0.7 2
3 -3 13 2.3 2.9
-4 3 -13 182.28 18.7
4 -3 13 177.58 17
4 -3 13 148.39 15.4
5 2 -13 4.7 3.4
-5 -2 13 6.8 3.8
-5 -2 13 6.5 2.2
-5 -2 13 1.6 1.7
4 2 -13 24.7 7.2
4 2 -13 14.1 5.6
4 2 -13 10.1 4.3
-4 -2 13 24.8 4.5
-4 -2 13 13.3 3.9
-4 -2 13 19.5 3.9
3 2 -13 56.99 9.7
3 2 -13 49.9 12.3
3 2 -13 56.59 13.7
-3 -2 13 66.19 9.5
-3 -2 13 54.79 8.2
-3 -2 13 69.79 8.8
-3 -2 13 67.59 8.1
2 2 -13 23.6 9.9
2 2 -13 13.6 6.2
2 2 -13 21.3 6.1
2 2 -13 23.9 11.2
-2 -2 13 22.8 6.4
-2 -2 13 29.2 5.2
-2 -2 13 19.1 4.7
1 2 -13 63.39 10.4
1 2 -13 83.79 18.2
1 2 -13 55.89 11.6
-1 -2 13 60.69 9.2
-1 -2 13 63.79 8.6
0 2 -13 0.5 3.3
0 2 -13 1 4.8
0 2 -13 6.5 5.4
0 2 -13 13.5 9.2
0 -2 13 -0.4 2.9
0 -2 13 3.2 4.2
0 -2 13 5.9 3.1
0 -2 13 5.5 3.2
-1 2 -13 28 9.5
-1 2 -13 15.4 5.2
-1 2 -13 12.7 5.1
-1 2 -13 29.2 9.5
1 -2 13 15.8 4.4
1 -2 13 19.7 4.7
1 -2 13 16.3 4.6
-2 2 -13 4.1 3.8
-2 2 -13 7 4
-2 2 -13 4.9 5.5
-2 2 -13 2.7 4.9
2 -2 13 4.5 2.9
2 -2 13 2 2.3
2 -2 13 2 5
-3 2 -13 2.8 5
-3 2 -13 0 4.3
-3 2 -13 0.8 2.5
3 -2 13 2.2 1.9
3 -2 13 3.7 2.2
-4 2 -13 4.4 3.4
-4 2 -13 4.5 3.2
4 -2 13 6.5 2.2
4 -2 13 4.3 2
5 1 -13 41.4 8
-5 -1 13 41.1 6.9
-5 -1 13 34.1 5.4
-5 -1 13 51.99 6.3
4 1 -13 1080.29 91.79
-4 -1 13 1192.58 88.29
-4 -1 13 1073.89 88.19
-4 -1 13 1111.49 88.59
-4 -1 13 938.71 88.59
3 1 -13 6.7 5.3
3 1 -13 8.5 5.6
3 1 -13 6.3 3.8
-3 -1 13 5.5 3.6
-3 -1 13 4.2 2.9
-3 -1 13 3.8 3.2
2 1 -13 670.53 68.09
2 1 -13 599.34 58.19
-2 -1 13 740.23 57.39
-2 -1 13 634.94 60.39
-2 -1 13 714.13 57.59
1 1 -13 23 6.1
1 1 -13 38 13.3
1 1 -13 17.3 6.7
-1 -1 13 33.9 9.2
-1 -1 13 35 6.3
-1 -1 13 22.1 6.7
0 1 -13 664.83 62.99
0 1 -13 498.65 48.8
0 1 -13 511.65 53.49
0 -1 13 549.15 51.29
0 -1 13 565.54 47.9
0 -1 13 588.84 48.5
0 -1 13 510.55 52.19
-1 1 -13 541.05 51.59
1 -1 13 483.05 43.9
1 -1 13 538.05 44.4
1 -1 13 456.75 44
1 -1 13 522.75 45.5
-2 1 -13 71.09 15.2
2 -1 13 89.99 10.6
2 -1 13 93.99 10.4
2 -1 13 88.99 10.6
-3 1 -13 76.39 10.3
-3 1 -13 74.89 13.5
3 -1 13 92.69 9.3
5 0 -13 -2.1 2.6
5 0 -13 -0.9 2.9
-5 0 13 -1.7 1.8
-5 0 13 4.9 2.2
-5 0 13 3 2
4 0 -13 -0.2 4.9
4 0 -13 -1 3
4 0 -13 2.3 3.3
-4 0 13 -2.5 3.1
-4 0 13 3 2.7
-4 0 13 5.1 2.7
-4 0 13 -0.5 2.1
3 0 -13 120.69 13.5
3 0 -13 128.09 19.5
-3 0 13 135.59 14
-3 0 13 106.99 14
-3 0 13 146.29 14.8
2 0 -13 42 12.8
2 0 -13 44.9 8.1
-2 0 13 48.9 7.3
-2 0 13 46.7 7.7
-2 0 13 51.59 8.5
1 0 -13 73.19 10.4
1 0 -13 83.59 16.8
-1 0 13 90.19 10.6
-1 0 13 66.09 10.4
0 0 -13 2.3 2.8
0 0 -13 -2.6 4
0 0 -13 2.7 5.1
0 0 -13 4 3.5
0 0 13 0.7 2.7
0 0 13 7.1 3.6
0 0 13 2 3.3
0 0 13 0 1.9
-1 0 -13 1.7 2.2
-1 0 -13 2.3 3.7
-1 0 -13 -2.9 4.9
1 0 13 0.5 2.8
1 0 13 1.6 2.6
1 0 13 5.6 3.7
1 0 13 2.9 2.5
-2 0 -13 2 3.3
-2 0 -13 -1.8 1.7
2 0 13 4.8 3
2 0 13 3.2 2.1
2 0 13 -0.1 2
5 -1 -13 3.7 2.9
5 -1 -13 10.2 2.8
-5 1 13 7 2.6
-5 1 13 7.1 2.9
4 -1 -13 145.79 14.7
4 -1 -13 118.79 17.5
-4 1 13 120.99 13.9
-4 1 13 172.98 15.8
-4 1 13 170.48 14.6
3 -1 -13 22.3 8.1
3 -1 -13 21.7 5.3
-3 1 13 35.2 7.1
-3 1 13 28.9 5.3
2 -1 -13 366.26 32.1
2 -1 -13 287.27 42.6
-2 1 13 340.67 31.6
-2 1 13 400.76 34.4
-2 1 13 367.76 34.9
1 -1 -13 90.79 11.3
1 -1 -13 105.29 16.7
-1 1 13 91.89 12
-1 1 13 111.09 14.2
-1 1 13 73.69 11.7
0 -1 -13 17 4.4
0 -1 -13 12.7 4.8
0 1 13 17.9 5
0 1 13 23.9 10.2
0 1 13 20.1 4.2
-1 -1 -13 16.4 5.7
1 1 13 14.5 3.2
1 1 13 10.1 3.2
2 1 13 3.9 1.9
5 -2 -13 274.77 25
-5 2 13 303.07 26.2
4 -2 -13 392.46 36.6
-4 2 13 408.56 36.1
-4 2 13 430.96 35
3 -2 -13 119.89 13.4
-3 2 13 122.99 12
-3 2 13 124.99 14.1
-2 2 13 278.67 24.5
1 -2 -13 32.6 6.4
1 -2 -13 37.7 7.7
-1 2 13 29 5.8
3 -3 -13 56.89 6.6
3 -3 -13 36.3 7.2
2 -3 -13 18 3.7
1 6 -14 0.9 2.3
1 6 -14 0.1 3.4
1 6 -14 0.3 2.7
0 6 -14 51.89 12.5
0 6 -14 91.19 13.8
0 6 -14 69.09 10.7
-1 6 -14 1.2 3.6
-1 6 -14 -1 2.3
-1 6 -14 0.3 2.3
-2 6 -14 10.6 5.8
-2 6 -14 8.3 4.9
-2 6 -14 7.7 4.1
2 5 -14 27.2 6
2 5 -14 38.1 7.8
1 5 -14 88.89 11.4
1 5 -14 87.29 15
0 5 -14 26.4 9.1
0 5 -14 7.3 6.1
0 5 -14 6.6 3.4
0 5 -14 13.4 4.8
-1 5 -14 38.6 7.1
-1 5 -14 53.89 12.9
-1 5 -14 32.7 8.1
-2 5 -14 1 2.4
-2 5 -14 0.6 3.9
-2 5 -14 7.9 3.2
-2 5 -14 -1.4 3
-3 5 -14 1.8 2.7
-3 5 -14 15.3 6.8
-3 5 -14 9.3 3.3
3 4 -14 54.59 8.7
3 4 -14 49 8.2
-3 -4 14 47.2 5.7
2 4 -14 596.44 56.59
-2 -4 14 697.73 54.09
-2 -4 14 676.13 54.19
1 4 -14 56.09 14.4
1 4 -14 36.4 8
1 4 -14 37.7 7.6
1 4 -14 51.49 12
-1 -4 14 47.5 5.7
0 4 -14 642.44 61.69
0 4 -14 651.83 59.09
0 -4 14 692.83 56.59
0 -4 14 631.14 55.69
0 -4 14 767.82 55.99
-1 4 -14 2.5 4.2
-1 4 -14 11 6.8
-1 4 -14 0.5 1.9
-1 4 -14 2.8 2.8
1 -4 14 4.3 2.6
1 -4 14 -1.4 2.5
-2 4 -14 455.35 41.6
-2 4 -14 442.06 45.9
2 -4 14 481.65 38.6
2 -4 14 455.45 38.7
-3 4 -14 53.59 7.5
-3 4 -14 52.49 7.8
3 -4 14 52.29 7.8
4 3 -14 19.7 5.2
-4 -3 14 26 5.3
-4 -3 14 26.7 4.1
3 3 -14 57.09 10.5
3 3 -14 52.39 9.6
-3 -3 14 53.99 6.6
-3 -3 14 57.49 6.9
2 3 -14 272.87 25.4
2 3 -14 240.68 29.8
-2 -3 14 235.28 24.1
-2 -3 14 267.07 22.9
1 3 -14 58.39 12.6
1 3 -14 23.2 6.1
-1 -3 14 33.6 6.6
-1 -3 14 43.5 5.8
0 3 -14 336.27 32.6
0 -3 14 353.46 31
0 -3 14 344.27 29.9
-1 3 -14 31.6 6.9
-1 3 -14 34.9 10.5
1 -3 14 34.8 5.6
1 -3 14 34.2 6.8
1 -3 14 28.1 4.9
-2 3 -14 123.79 13.4
2 -3 14 97.69 10.6
2 -3 14 93.69 12.3
-3 3 -14 28 8.4
-3 3 -14 9.6 4.4
3 -3 14 18.7 3.5
3 -3 14 21 3.7
4 2 -14 157.68 17.4
-4 -2 14 129.59 13.5
3 2 -14 2.6 4.8
3 2 -14 2 2.6
3 2 -14 4.7 4.3
-3 -2 14 3.1 3.2
-3 -2 14 2.9 2.1
-3 -2 14 1 1.7
2 2 -14 329.17 34.2
2 2 -14 273.47 26.2
-2 -2 14 236.38 25.9
1 2 -14 151.38 23
-1 -2 14 134.09 14
-1 -2 14 147.09 14.1
-1 -2 14 127.89 15
0 2 -14 168.08 18.6
0 2 -14 208.88 27.2
0 2 -14 155.98 20.5
0 -2 14 164.18 18
0 -2 14 201.68 17.5
-1 2 -14 9.8 5
-1 2 -14 6 3.5
-1 2 -14 10.4 6.2
1 -2 14 7.4 3
1 -2 14 14.7 3.7
1 -2 14 11.5 3.9
-2 2 -14 140.59 17.7
-2 2 -14 113.59 13.2
2 -2 14 130.29 12.1
2 -2 14 103.09 11.8
-4 -1 14 255.57 20.4
-4 -1 14 231.48 21.6
-4 -1 14 193.68 20
3 1 -14 384.36 41.2
-3 -1 14 421.96 35.8
-3 -1 14 396.16 35.4
-3 -1 14 457.45 35.8
2 1 -14 215.38 23.5
2 1 -14 283.47 31
-2 -1 14 275.77 25.7
1 1 -14 294.17 31.7
-1 -1 14 228.38 22
-1 -1 14 194.18 22.9
-1 -1 14 207.78 23.7
-1 -1 14 275.07 22.4
0 1 -14 368.66 36.6
0 1 -14 491.95 42.1
0 -1 14 411.36 39.1
-1 1 -14 15.5 6.1
-1 1 -14 21.2 6.7
1 -1 14 28.2 6.2
-2 1 -14 339.77 41.1
2 -1 14 391.86 34.8
2 -1 14 471.05 35.4
4 0 -14 1.5 2.7
-4 0 14 -3.5 2
-4 0 14 4.8 2.6
-4 0 14 1.9 2
3 0 -14 61.59 10.5
-3 0 14 57.19 9.5
-3 0 14 46.9 6.7
2 0 -14 87.29 13.9
-2 0 14 74.89 10.5
-2 0 14 60.49 8.2
1 0 -14 137.99 19
-1 0 14 148.09 13.7
-1 0 14 111.89 13
0 0 -14 -0.9 1.8
0 0 -14 4 3.4
0 0 14 4.1 2.6
0 0 14 1.1 1.7
0 0 14 0.3 2.3
1 0 14 15.4 3.6
1 0 14 9.5 2.7
3 -1 -14 7.1 3.6
-3 1 14 9.3 2.5
-3 1 14 7.7 2.6
-2 1 14 218.58 22.6
-2 1 14 245.88 24
-2 1 14 282.17 22.1
1 -1 -14 0 2.3
1 4 -15 182.48 22.1
1 4 -15 135.09 15.2
0 4 -15 112.99 12.5
-1 4 -15 113.89 14.1
-1 4 -15 141.49 13.5
-1 4 -15 91.49 16
2 3 -15 41.8 7.7
1 3 -15 2.6 2.3
1 3 -15 5.2 4
1 3 -15 3.9 4.4
-1 -3 15 8.8 2.4
-1 -3 15 5.1 2.2
0 3 -15 108.29 15.5
0 -3 15 116.19 10.9
0 -3 15 114.39 11.7
-1 3 -15 -0.7 1.3
-1 3 -15 0.6 2.3
1 -3 15 1.2 2.1
2 2 -15 226.48 29.1
-2 -2 15 302.87 23.4
1 2 -15 21.1 4.3
1 2 -15 19.3 8
-1 -2 15 24.8 4.5
0 2 -15 43.4 5.9
0 2 -15 46.1 8.7
0 2 -15 39.8 6.7
-1 0 0 897.51 82.09
-1 0 0 1074.39 82.19
1 0 0 1148.59 81.99
1 0 0 1011.1 82.89
2 0 0 5506.25 504.25
2 0 0 7244.48 505.65
-3 0 0 458.85 40.6
3 0 0 410.96 39.7
3 0 0 492.15 40.9
3 0 0 480.45 39
3 0 0 405.06 40.1
3 0 0 468.85 38.9
3 0 0 413.66 37.7
-4 0 0 8648.33 656.33
-4 0 0 8375.96 655.53
-4 0 0 8005.7 658.03
-4 0 0 8682.53 655.83
4 0 0 8374.36 659.43
4 0 0 7520.45 656.53
4 0 0 7253.27 659.83
4 0 0 9533.35 657.03
-5 0 0 1578.34 132.79
-5 0 0 1558.14 129.69
-5 0 0 1645.64 129.19
-5 0 0 1674.73 129.19
-5 0 0 1517.55 131.69
-5 0 0 1514.75 128.59
5 0 0 1386.16 133.19
5 0 0 1864.11 138.29
-6 0 0 1569.14 142.59
-6 0 0 1506.45 132.09
6 0 0 1850.11 140.69
-7 0 0 842.72 86.99
7 0 0 1177.38 87.99
7 0 0 1029.2 90.49
7 0 0 1088.39 90.49
7 0 0 940.81 81.99
-8 0 0 147.29 15.9
-8 0 0 169.68 18.7
-8 0 0 111.69 16
-9 0 0 11.5 4
-9 0 0 11.8 3.9
9 0 0 9.1 3
9 0 0 5.8 4.1
9 -1 0 10.5 3.9
9 -1 0 8.2 4
-9 1 0 7.9 3.3
-9 1 0 10.7 3.9
-9 1 0 4.1 2.7
8 -1 0 4 4.5
8 -1 0 1.1 2.5
8 -1 0 0.2 8.1
8 -1 0 -6.2 4.2
-8 1 0 0.2 3.5
-8 1 0 3.3 3.7
7 -1 0 152.58 20.8
7 -1 0 167.58 15.4
7 -1 0 124.49 17.4
7 -1 0 151.08 15.4
-7 1 0 128.89 17.7
-7 1 0 119.79 16.9
6 -1 0 131.49 17.7
6 -1 0 99.19 13.4
6 -1 0 129.39 15.2
6 -1 0 133.69 13.8
6 -1 0 144.29 18.3
6 -1 0 126.79 15.7
-6 1 0 125.29 16.1
-6 1 0 130.69 16.2
-6 1 0 116.29 16.7
5 -1 0 1218.48 100.89
5 -1 0 1193.18 101.49
5 -1 0 1141.79 103.99
5 -1 0 1389.16 108.39
5 -1 0 1105.69 102.29
5 -1 0 1153.38 103.49
-5 1 0 1151.08 100.09
-5 1 0 1317.27 100.29
-5 1 0 1296.97 103.99
-5 1 0 1341.97 100.69
4 -1 0 86.39 11.3
4 -1 0 67.49 8.6
4 -1 0 55.19 7.9
4 -1 0 68.79 9.7
4 -1 0 51.09 7.9
-4 1 0 86.29 9.2
-4 1 0 67.19 8.6
-4 1 0 72.19 9.4
-4 1 0 82.39 7.8
3 -1 0 3484.45 298.47
3 -1 0 3919.21 298.87
3 -1 0 3709.33 299.07
3 -1 0 4190.68 299.57
3 -1 0 3531.35 299.87
-3 1 0 3776.62 304.37
2 -1 0 420.86 40.7
2 -1 0 515.65 42.5
2 -1 0 444.06 41
2 -1 0 514.65 40.4
2 -1 0 568.14 42.1
2 -1 0 528.55 41.8
-2 1 0 467.35 41
-2 1 0 577.24 43.3
-2 1 0 546.45 42.7
1 -1 0 1314.17 103.29
1 -1 0 1253.87 102.99
1 -1 0 1456.45 102.79
-1 1 0 1164.58 103.19
-1 1 0 1184.98 102.99
-1 1 0 1418.26 103.39
0 -1 0 2125.39 153.88
0 1 0 1763.82 153.08
-1 -1 0 2026.6 162.38
1 1 0 2074.69 163.88
-2 -1 0 3320.57 247.88
-2 -1 0 3236.28 246.58
-2 -1 0 3166.18 246.28
2 1 0 2706.03 248.68
-3 -1 0 583.64 49.8
-3 -1 0 569.44 47.7
-3 -1 0 619.64 48.2
3 1 0 510.45 50.99
-4 -1 0 3302.37 255.67
-4 -1 0 3094.49 255.67
-4 -1 0 3307.77 256.37
-4 -1 0 3158.68 259.07
4 1 0 3163.08 261.57
-5 -1 0 4 3.1
-5 -1 0 8.7 5.1
-5 -1 0 15.6 4.5
-5 -1 0 0 4
-5 -1 0 2.2 2.3
5 1 0 1 3.6
5 1 0 19 7.8
5 1 0 6 3.4
5 1 0 2.1 4.7
5 1 0 7.2 6.3
5 1 0 5.1 4.6
5 1 0 12 5.5
5 1 0 14.2 6.4
-6 -1 0 416.36 43.7
-6 -1 0 541.35 47.4
-6 -1 0 496.35 47.9
-6 -1 0 432.36 42.4
6 1 0 594.14 42.4
-7 -1 0 2.2 3.8
-7 -1 0 6.1 4.9
7 1 0 -3 5.2
7 1 0 13.1 5.5
-8 -1 0 210.98 22.6
-8 -1 0 180.98 20.4
8 1 0 257.57 23.3
9 -2 0 118.99 16.8
-9 2 0 100.19 13.9
-9 2 0 100.39 12.7
8 -2 0 8.4 5.1
8 -2 0 9.1 6
8 -2 0 8.1 3.3
8 -2 0 5.9 5.5
8 -2 0 2.4 5.2
8 -2 0 4 3.6
-8 2 0 7.7 4.1
-8 2 0 0.9 4.7
7 -2 0 19.1 6.4
7 -2 0 30.7 6.4
7 -2 0 18.4 5.8
7 -2 0 18.7 7.9
7 -2 0 27.2 5.7
7 -2 0 44.4 9.9
7 -2 0 27.4 9.2
-7 2 0 23.4 7
-7 2 0 27.4 7
6 -2 0 61.19 9.8
6 -2 0 40.9 7.4
6 -2 0 33.3 7.6
6 -2 0 56.19 10.3
6 -2 0 49 16.3
6 -2 0 61.89 11.1
6 -2 0 62.89 8.9
6 -2 0 42.6 7.3
-6 2 0 40.7 7.8
-6 2 0 68.19 10.4
-6 2 0 67.59 9.9
5 -2 0 281.27 28.1
5 -2 0 338.27 33.1
5 -2 0 241.58 25.2
5 -2 0 273.07 26.2
-5 2 0 260.97 26.8
4 -2 0 94.49 11.3
4 -2 0 87.89 11.7
4 -2 0 91.79 10.8
4 -2 0 89.19 10.5
4 -2 0 109.89 13.7
4 -2 0 101.99 10.9
-4 2 0 97.19 9
-4 2 0 103.39 10.7
-4 2 0 111.79 17.8
3 -2 0 2076.39 168.68
3 -2 0 2099.79 169.38
3 -2 0 2245.88 171.98
3 -2 0 2377.46 171.08
3 -2 0 2217.48 172.18
-3 2 0 1972.8 169.08
-3 2 0 2027.3 172.58
-3 2 0 2064.89 168.28
2 -2 0 71.89 7.1
2 -2 0 58.09 7.2
2 -2 0 73.59 7.3
2 -2 0 66.69 6.2
-2 2 0 63.49 7.3
-2 2 0 47.4 6.7
1 -2 0 1424.16 111.89
1 -2 0 1577.24 112.09
1 -2 0 1458.65 111.59
1 -2 0 1449.76 111.49
-1 2 0 1330.87 111.99
-1 2 0 1386.26 112.29
-1 2 0 1238.28 111.69
0 -2 0 1201.88 87.59
0 -2 0 1213.28 87.19
0 -2 0 1151.78 87.59
0 2 0 945.61 87.39
0 2 0 914.01 86.99
1 2 0 3488.25 266.37
1 2 0 3167.78 266.47
-2 -2 0 34.9 4.7
-2 -2 0 34.6 5.7
-2 -2 0 33.2 4.6
2 2 0 29.2 4
2 2 0 51.19 9.4
2 2 0 26.6 8.4
-3 -2 0 1222.68 96.79
-3 -2 0 1300.97 96.59
-3 -2 0 1180.58 96.69
-3 -2 0 1196.78 99.29
3 2 0 1020.1 95.89
-4 -2 0 3 2.9
-4 -2 0 0.3 4.3
-4 -2 0 8.7 3.9
-4 -2 0 10.9 5.4
-4 -2 0 5.5 3.1
-4 -2 0 6.3 4
-4 -2 0 1.8 8.9
4 2 0 0.2 5
4 2 0 2.9 5.7
4 2 0 9.2 6.3
-5 -2 0 12.6 5.3
-5 -2 0 2.2 3
-5 -2 0 8.9 4.1
5 2 0 9.3 5.7
5 2 0 6.6 6.9
-6 -2 0 1.7 2.9
-6 -2 0 1.4 5.2
-6 -2 0 -6.7 3.9
-6 -2 0 1 3.6
6 2 0 2.9 5.5
6 2 0 -7.6 6.6
-7 -2 0 29.1 8.1
-7 -2 0 38.5 8.2
7 2 0 46.1 8.9
7 2 0 50.49 8.6
8 2 0 36.4 6.9
8 2 0 48.9 10.3
10 -3 0 3.7 3.1
-10 3 0 1.2 1.2
9 -3 0 169.48 17.9
9 -3 0 160.98 19.7
9 -3 0 145.99 14.1
-9 3 0 112.79 15.4
8 -3 0 40.5 8.8
8 -3 0 65.19 8.8
8 -3 0 73.09 12.3
8 -3 0 73.19 13
8 -3 0 50.59 8.6
8 -3 0 69.29 12.6
-8 3 0 73.39 14.9
-8 3 0 49.4 10.5
7 -3 0 267.37 30.2
7 -3 0 193.18 24.5
7 -3 0 220.08 24.3
7 -3 0 233.68 23.4
7 -3 0 240.78 29.4
7 -3 0 232.18 28.6
7 -3 0 279.67 27.4
-7 3 0 268.27 28.9
-7 3 0 290.07 26.5
6 -3 0 45.9 9.8
6 -3 0 40.2 7.9
6 -3 0 45.8 13.5
6 -3 0 41.6 8
6 -3 0 59.79 9.8
6 -3 0 43.3 7.7
-6 3 0 59.79 11
-6 3 0 73.59 13.5
-6 3 0 63.09 9.2
-6 3 0 62.29 13.2
5 -3 0 1076.69 89.39
5 -3 0 1020.4 86.19
5 -3 0 1139.49 88.49
5 -3 0 1010.9 87.69
5 -3 0 950.6 86.39
4 -3 0 114.69 12.6
4 -3 0 109.09 11.7
4 -3 0 97.19 9.1
4 -3 0 130.19 11.9
4 -3 0 97.89 10.2
4 -3 0 102.79 11.8
4 -3 0 83.89 14
-4 3 0 85.09 12.7
-4 3 0 114.89 15.4
3 -3 0 2679.73 213.98
3 -3 0 2857.01 215.48
3 -3 0 2717.13 215.78
3 -3 0 2986.3 214.88
-3 3 0 2227.08 215.68
2 -3 0 31 3.9
2 -3 0 36.1 4.7
2 -3 0 34.4 4.2
2 -3 0 33 3.4
2 -3 0 38.4 5.1
-2 3 0 24.7 2.9
-2 3 0 26.6 4.4
-2 3 0 27.5 5.2
-2 3 0 43.6 6
1 -3 0 2870.91 229.38
1 -3 0 2857.91 229.48
1 -3 0 2853.81 235.28
1 -3 0 2968.8 229.28
1 -3 0 2924.01 229.08
0 -3 0 1121.79 84.79
0 -3 0 965.2 86.49
0 -3 0 1118.79 85.69
0 -3 0 1042.6 86.09
0 3 0 1019.2 85.89
-1 -3 0 2437.16 186.68
-1 -3 0 2050.79 186.48
-1 -3 0 2522.95 185.28
-1 -3 0 2578.54 185.18
1 3 0 2014.2 185.28
-2 -3 0 4494.35 330.57
-2 -3 0 4187.58 330.67
-2 -3 0 3746.33 332.97
-2 -3 0 4218.28 333.27
-2 -3 0 3944.81 330.57
2 3 0 4370.56 328.67
-3 -3 0 404.46 37.6
-3 -3 0 424.36 38
-3 -3 0 431.36 37.8
-3 -3 0 446.86 38.3
-3 -3 0 447.16 41.6
-3 -3 0 408.36 39.6
-4 -3 0 890.11 87.99
-4 -3 0 925.21 91.99
-4 -3 0 1150.88 88.39
-4 -3 0 1061.59 87.89
-4 -3 0 1126.09 89.39
-4 -3 0 1202.78 92.09
-5 -3 0 36.7 9.3
-5 -3 0 35.4 7.4
-5 -3 0 47.1 8.2
-5 -3 0 38.7 10.2
-5 -3 0 48.5 8.4
-5 -3 0 35.9 7.7
5 3 0 68.79 13.1
5 3 0 47.7 9.8
5 3 0 48.2 13.1
5 3 0 68.79 11.8
-6 -3 0 98.59 16
-6 -3 0 97.59 11.6
-6 -3 0 124.89 15.9
6 3 0 119.79 18.6
6 3 0 131.69 15.7
-7 -3 0 44.9 7.7
-7 -3 0 39.2 8.2
7 3 0 35.7 7.2
7 3 0 44.4 7.9
7 3 0 57.39 12.8
-10 4 0 13 3.9
9 -4 0 13.4 3.5
9 -4 0 18 5.6
9 -4 0 12.5 4.2
-9 4 0 16.3 5.8
-9 4 0 11.7 4.2
8 -4 0 139.79 16.2
8 -4 0 137.29 15.5
8 -4 0 146.69 18.5
8 -4 0 148.39 17.5
-8 4 0 149.39 16.9
7 -4 0 116.29 18.4
7 -4 0 112.89 14.8
7 -4 0 149.88 18.3
7 -4 0 157.18 17.5
7 -4 0 128.39 16.6
7 -4 0 117.19 15.5
-7 4 0 151.88 18.8
-7 4 0 134.99 21.8
-7 4 0 153.28 16.6
6 -4 0 145.19 17.6
6 -4 0 170.48 20.3
6 -4 0 150.58 18.8
6 -4 0 180.68 19.2
6 -4 0 167.68 21.8
6 -4 0 177.88 18.7
-6 4 0 183.58 18.6
-6 4 0 209.48 23.9
-6 4 0 186.58 25
5 -4 0 219.58 23.6
5 -4 0 203.08 21.9
5 -4 0 211.98 21.9
5 -4 0 212.28 20
5 -4 0 205.48 22.4
-5 4 0 221.68 21.3
-5 4 0 250.47 28
4 -4 0 349.47 30.7
4 -4 0 355.36 31.3
4 -4 0 377.06 31.9
4 -4 0 328.27 32.1
4 -4 0 357.36 33.3
-4 4 0 335.77 38.2
3 -4 0 -1.2 1.3
3 -4 0 -0.5 1.8
3 -4 0 6.6 2.3
-3 4 0 2.5 3.1
-3 4 0 1.3 1.9
2 -4 0 553.64 46.4
2 -4 0 561.34 47.3
2 -4 0 624.44 49.3
2 -4 0 485.65 46.8
2 -4 0 603.84 47.4
-2 4 0 602.94 52.29
1 -4 0 39.8 4.9
1 -4 0 30.5 3.5
1 -4 0 43.3 4.8
1 -4 0 32.5 4.8
1 -4 0 35 4.9
1 -4 0 37.1 5.7
-1 4 0 43 6.3
-1 4 0 37.8 7.2
0 -4 0 13 4.1
0 -4 0 18.5 3.4
0 -4 0 16 3.8
0 -4 0 19.2 4.1
0 -4 0 25.1 3.8
0 4 0 20.1 3.9
-1 -4 0 427.16 34.1
-1 -4 0 344.37 36.2
-1 -4 0 377.66 34.2
-1 -4 0 421.06 34.5
-1 -4 0 390.46 36.2
-2 -4 0 3.3 2.4
-2 -4 0 10.8 5.2
-2 -4 0 7 4.5
-2 -4 0 6 3.2
-2 -4 0 1.4 3.2
-2 -4 0 14.8 5.2
2 4 0 14.4 9.4
2 4 0 -1.1 4.3
-3 -4 0 130.99 14.6
-3 -4 0 123.99 14.8
-3 -4 0 110.79 14.3
-3 -4 0 123.49 16.3
-3 -4 0 129.69 13.9
-3 -4 0 111.89 17.2
3 4 0 125.19 16.6
-4 -4 0 11 4.2
-4 -4 0 11.3 5.7
-4 -4 0 4.7 3.8
-4 -4 0 1.1 3.9
-4 -4 0 7 8.5
-4 -4 0 8 3.6
-4 -4 0 0.8 2.5
4 4 0 11.2 12.4
4 4 0 6 6.5
4 4 0 14.4 6.3
4 4 0 4.6 6.6
4 4 0 4.8 8.9
-5 -4 0 57.79 11.3
-5 -4 0 51.99 8.4
-5 -4 0 63.09 12.3
5 4 0 63.49 11.1
5 4 0 76.69 12.1
5 4 0 55.79 12.6
-6 -4 0 7.4 4.1
-6 -4 0 11.9 5.7
-6 -4 0 5.2 2.9
6 4 0 5.2 5.8
6 4 0 11.2 8.5
6 4 0 16.3 5.5
-7 -4 0 14.9 3.6
7 4 0 7.1 3.1
-10 5 0 21.9 6
-10 5 0 19.6 3.7
9 -5 0 69.69 8.7
9 -5 0 61.39 11.5
9 -5 0 64.09 11.1
-9 5 0 51.99 8.5
-9 5 0 54.99 11.6
8 -5 0 263.27 26.2
8 -5 0 185.98 23.7
8 -5 0 203.58 23.2
8 -5 0 268.37 26.4
8 -5 0 230.08 22.5
8 -5 0 206.98 27.3
-8 5 0 267.57 24.2
-8 5 0 220.38 24.4
-8 5 0 219.08 31.8
7 -5 0 98.29 14.9
7 -5 0 148.39 16.6
7 -5 0 109.39 18.6
7 -5 0 111.99 14.2
7 -5 0 115.49 16
-7 5 0 136.49 15.1
-7 5 0 96.59 16.9
6 -5 0 658.43 66.99
6 -5 0 759.02 61.29
6 -5 0 749.82 64.99
6 -5 0 696.73 63.49
6 -5 0 788.02 66.39
6 -5 0 589.24 62.59
-6 5 0 838.72 72.49
5 -5 0 142.69 16.9
5 -5 0 165.58 21.2
5 -5 0 167.18 19.2
5 -5 0 158.88 18
-5 5 0 185.48 26.6
-5 5 0 188.98 22.4
-5 5 0 161.08 17.2
-5 5 0 200.68 20.2
4 -5 0 2124.39 178.08
4 -5 0 2171.08 180.18
4 -5 0 2286.67 179.18
4 -5 0 2192.58 181.68
4 -5 0 2279.77 178.58
-4 5 0 2067.99 189.68
-4 5 0 2376.66 182.18
3 -5 0 1213.48 101.89
3 -5 0 1303.77 102.49
3 -5 0 1244.38 104.79
3 -5 0 1191.18 101.99
3 -5 0 1255.37 103.79
-3 5 0 1307.77 105.39
-3 5 0 1259.47 112.19
2 -5 0 786.32 62.99
2 -5 0 751.12 65.19
2 -5 0 736.03 62.89
2 -5 0 727.53 61.89
2 -5 0 736.93 62.39
-2 5 0 853.71 65.19
-2 5 0 706.93 67.49
1 -5 0 1882.41 156.58
1 -5 0 2018.2 156.08
1 -5 0 1944.81 155.58
1 -5 0 1906.41 156.18
1 -5 0 1914.51 158.58
1 -5 0 2080.49 155.78
-1 5 0 1830.02 158.98
0 -5 0 742.33 58.99
0 -5 0 706.13 59.29
0 -5 0 660.33 61.39
0 -5 0 729.53 59.09
0 -5 0 785.62 58.79
0 5 0 582.24 59.39
-1 -5 0 467.05 40.2
-1 -5 0 440.36 42.6
-1 -5 0 459.85 40.1
-1 -5 0 511.85 40.5
-1 -5 0 398.96 42.4
-1 -5 0 494.85 39.6
1 5 0 364.46 41.4
-2 -5 0 174.88 19.4
-2 -5 0 185.08 19.8
-2 -5 0 204.98 19.7
-2 -5 0 189.78 21.8
-2 -5 0 213.18 19.5
-2 -5 0 190.48 20.1
2 5 0 140.29 21.1
2 5 0 206.78 31
2 5 0 157.88 31.3
-3 -5 0 37.2 9.3
-3 -5 0 49.8 8.6
-3 -5 0 35.2 7.6
-3 -5 0 58.59 8.6
-3 -5 0 49 8.5
-3 -5 0 34.2 6.9
3 5 0 86.19 23.3
3 5 0 43.3 10.9
-4 -5 0 11.4 5.4
-4 -5 0 -10.8 11
-4 -5 0 11 6.2
-4 -5 0 8.5 7.2
-4 -5 0 8.4 7.4
4 5 0 14.6 11
-5 -5 0 3.5 3.4
-5 -5 0 -3.2 8.3
-5 -5 0 -0.4 2.2
-5 -5 0 0.9 2.5
5 5 0 -2.2 3.3
5 5 0 0.5 2.9
5 5 0 13.6 7.4
-6 -5 0 0.9 2.1
6 5 0 -0.9 2.5
6 5 0 -0.1 2.1
9 -6 0 68.89 10.8
9 -6 0 79.89 11.4
9 -6 0 103.49 15.9
9 -6 0 103.39 10.1
-9 6 0 73.59 10
-9 6 0 88.39 14.6
8 -6 0 96.79 15.2
8 -6 0 140.89 26.4
8 -6 0 134.19 14.4
8 -6 0 120.09 16.2
8 -6 0 110.89 16.2
-8 6 0 99.99 21.1
-8 6 0 151.28 16.5
7 -6 0 664.23 55.19
7 -6 0 567.94 56.59
7 -6 0 557.44 55.39
7 -6 0 728.83 63.79
-7 6 0 543.55 68.19
-7 6 0 690.33 64.49
6 -6 0 18 6
6 -6 0 24.4 7.5
6 -6 0 21.8 6.4
6 -6 0 12.2 7.2
6 -6 0 24.5 6.8
6 -6 0 23.7 7.1
6 -6 0 24.4 7.8
-6 6 0 25.1 12.2
-6 6 0 28.1 11.7
-6 6 0 21.3 12.9
-6 6 0 25.1 6.4
-6 6 0 26.1 9
-6 6 0 41.8 8.8
5 -6 0 2216.18 190.68
5 -6 0 2538.55 194.18
5 -6 0 2353.76 192.38
5 -6 0 2361.96 191.48
5 -6 0 2127.59 190.68
-5 6 0 2195.08 206.58
-5 6 0 2438.66 190.38
-5 6 0 2370.96 206.58
-5 6 0 2647.24 200.78
4 -6 0 91.29 10.7
4 -6 0 72.59 12.7
4 -6 0 90.79 12.2
4 -6 0 65.69 11.1
4 -6 0 80.69 10.9
4 -6 0 76.59 9.8
4 -6 0 64.19 12.9
-4 6 0 67.09 15.5
-4 6 0 85.79 15.8
-4 6 0 71.99 12.5
-4 6 0 83.59 16.1
-4 6 0 70.89 9.8
-4 6 0 80.69 13.5
-4 6 0 67.59 16
3 -6 0 1682.93 131.79
3 -6 0 1457.45 128.29
3 -6 0 1679.93 128.09
3 -6 0 1794.32 129.09
3 -6 0 1370.36 133.89
3 -6 0 1618.04 128.39
3 -6 0 1681.63 130.79
-3 6 0 1423.96 134.79
-3 6 0 1545.95 127.69
-3 6 0 1442.66 136.59
2 -6 0 153.88 19.7
2 -6 0 175.18 25.9
2 -6 0 153.28 17
2 -6 0 178.98 17.7
2 -6 0 188.38 17.1
2 -6 0 185.08 17.1
-2 6 0 175.08 17.3
-2 6 0 135.09 19.7
1 -6 0 619.14 52.09
1 -6 0 659.53 51.39
1 -6 0 600.64 57.29
1 -6 0 567.54 54.79
1 -6 0 560.14 62.79
-1 6 0 577.54 54.79
-1 6 0 588.94 52.19
0 -6 0 72.49 9.4
0 -6 0 68.49 12.3
0 -6 0 62.39 9.3
0 -6 0 66.09 9.7
0 -6 0 69.19 9
0 -6 0 64.89 9.2
0 6 0 58.49 15.7
0 6 0 63.09 10.3
-1 -6 0 2 2.5
-1 -6 0 0 2.9
-1 -6 0 13.5 5.6
-1 -6 0 2 3
-1 -6 0 1.3 2.4
1 6 0 4.4 4.2
1 6 0 -3.6 12.6
1 6 0 -1.5 8.7
1 6 0 -0.4 7.1
-2 -6 0 35.2 8.2
-2 -6 0 29.8 6.7
-2 -6 0 28.2 7.3
-2 -6 0 25.9 6.8
-2 -6 0 31.1 7.8
-2 -6 0 32.7 8.5
2 6 0 41 10.8
2 6 0 43 16.3
2 6 0 32.2 12.4
2 6 0 36.8 10.3
-3 -6 0 21.1 6.1
-3 -6 0 21.2 7.2
-3 -6 0 9.8 6.4
3 6 0 29.1 10.2
3 6 0 30.2 13.2
3 6 0 30.3 9.3
-4 -6 0 -1.1 4.3
-4 -6 0 8.1 4.6
-4 -6 0 7.2 3.2
-4 -6 0 3.2 2.4
4 6 0 8.7 4.3
4 6 0 15.3 6.6
-5 -6 0 4.9 3
5 6 0 5.3 3.6
9 -7 0 4.2 2.3
9 -7 0 7.9 2.3
9 -7 0 8.1 3.1
-9 7 0 5.1 3.4
-9 7 0 0.5 2.2
-9 7 0 -3.6 3.7
8 -7 0 19.7 6.4
8 -7 0 18.4 5.4
8 -7 0 27.5 6.8
-8 7 0 17 6.2
-8 7 0 30.5 9.8
7 -7 0 52.09 8.5
7 -7 0 44.9 9.2
7 -7 0 41.4 8.3
7 -7 0 27.5 8.7
7 -7 0 31.9 7.5
-7 7 0 56.59 9.6
-7 7 0 52.49 14.9
-7 7 0 39.7 14.9
-7 7 0 52.99 8.4
6 -7 0 45.4 10.2
6 -7 0 35.5 8
6 -7 0 25.5 10.4
6 -7 0 50.29 9.1
6 -7 0 36.9 8.5
-6 7 0 46.8 18
-6 7 0 50.79 15
-6 7 0 45.7 14.2
5 -7 0 366.06 34.2
5 -7 0 317.87 32.3
5 -7 0 341.77 34.3
5 -7 0 325.87 31.1
5 -7 0 333.07 31.6
-5 7 0 294.37 44.2
-5 7 0 344.77 35.9
-5 7 0 250.47 39.7
4 -7 0 3 3.1
4 -7 0 1 2.3
4 -7 0 2 2.5
4 -7 0 -2.4 3.4
4 -7 0 6.5 4.8
-4 7 0 4 4.8
-4 7 0 4.5 5.7
-4 7 0 0.9 5.2
-4 7 0 2.2 3.1
-4 7 0 3.4 4.8
-4 7 0 -0.7 4.8
3 -7 0 6.2 4.2
3 -7 0 7.8 3.4
3 -7 0 6.1 3.2
3 -7 0 13.2 5.8
3 -7 0 6.5 3
3 -7 0 14.6 5.3
-3 7 0 8.8 8.5
-3 7 0 14 9.3
-3 7 0 6 6.1
-3 7 0 8.9 6.9
2 -7 0 3.3 2.7
2 -7 0 8.6 3.9
2 -7 0 7.3 3
2 -7 0 3.5 2.9
2 -7 0 10.4 5.2
2 -7 0 5.1 4.2
2 -7 0 -0.5 2.9
-2 7 0 15.5 7.8
-2 7 0 3.1 8.5
-2 7 0 1.8 5.8
-2 7 0 9.8 5.5
1 -7 0 124.09 14
1 -7 0 124.09 14.6
1 -7 0 125.49 14.2
1 -7 0 97.79 15.3
1 -7 0 125.39 14
1 -7 0 105.29 13.7
-1 7 0 126.89 15.4
-1 7 0 99.19 22.8
0 -7 0 73.39 13.3
0 -7 0 72.79 10.5
0 -7 0 72.59 10.1
0 -7 0 63.49 10.5
0 -7 0 66.79 10.6
0 7 0 77.09 17.8
0 7 0 70.79 20.6
0 7 0 69.19 12.8
-1 -7 0 281.77 26.1
-1 -7 0 303.47 27.7
-1 -7 0 274.27 29.8
-1 -7 0 267.97 27.5
-1 -7 0 223.98 25.1
-1 -7 0 266.67 27.4
1 7 0 210.28 29.2
-2 -7 0 68.79 13.1
-2 -7 0 83.99 10.4
-2 -7 0 71.79 10.4
-2 -7 0 69.19 10.7
2 7 0 58.39 12.9
2 7 0 95.49 15.2
-3 -7 0 0.7 3.8
-3 -7 0 1.5 2.6
-3 -7 0 -4.8 2.8
-3 -7 0 0.6 1.9
3 7 0 2.1 3.8
3 7 0 -3.2 3.2
-4 -7 0 1.9 2.3
-4 -7 0 4.1 2.8
4 7 0 2 3.4
4 7 0 2.3 3.1
9 -8 0 27.6 5.5
9 -8 0 43 5.2
-9 8 0 34.1 5.6
8 -8 0 4.3 3.5
8 -8 0 -1.6 5.4
8 -8 0 2.3 2.7
8 -8 0 4.5 2.7
-8 8 0 1.9 4.2
-8 8 0 4.1 2.9
7 -8 0 4 3.1
7 -8 0 8.3 4.1
7 -8 0 11 3.8
7 -8 0 8 5.2
-7 8 0 4.6 8
-7 8 0 4.1 6.6
-7 8 0 9.9 4.6
-7 8 0 10.7 4.9
6 -8 0 2.1 4.8
6 -8 0 -3.1 3.2
6 -8 0 -6.1 3.4
6 -8 0 0.4 2.7
6 -8 0 0.1 2.8
-6 8 0 2.7 3.4
-6 8 0 6.5 4.2
-6 8 0 -0.3 3.8
-6 8 0 -7 5.2
5 -8 0 15 7.1
5 -8 0 17.5 5.3
5 -8 0 6.5 5.2
5 -8 0 21.5 7.6
5 -8 0 12.7 4.3
5 -8 0 15.7 9.3
-5 8 0 19 16.6
-5 8 0 9.8 6.4
-5 8 0 24.6 11.7
-5 8 0 31.9 10.6
-5 8 0 42.8 12.7
4 -8 0 144.49 18.1
4 -8 0 130.19 16.3
4 -8 0 133.29 15.8
4 -8 0 124.09 15.4
4 -8 0 141.39 17.3
-4 8 0 155.08 16.5
3 -8 0 127.09 13.6
3 -8 0 113.59 15.3
3 -8 0 95.29 13.7
3 -8 0 91.29 14.4
-3 8 0 96.29 16.3
-3 8 0 69.49 19.1
-3 8 0 108.89 13.6
2 -8 0 480.65 46
2 -8 0 543.05 48.9
2 -8 0 530.35 45.5
2 -8 0 486.05 46.2
2 -8 0 493.15 45.2
-2 8 0 505.65 46.4
1 -8 0 0.1 2.5
1 -8 0 -1.8 8.3
1 -8 0 -0.6 3.7
1 -8 0 4.2 2.5
-1 8 0 2.1 6.8
-1 8 0 -5.4 5.7
0 -8 0 110.69 17.3
0 -8 0 125.29 14.8
0 -8 0 118.89 15.3
0 8 0 111.99 17.5
0 8 0 136.39 27.5
0 8 0 155.58 22.9
-1 -8 0 9.9 3.5
-1 -8 0 9.7 4
-1 -8 0 10.9 4.3
-1 -8 0 10.7 5.5
1 8 0 27.7 10.3
1 8 0 30.3 13.6
1 8 0 24.8 6.7
-2 -8 0 137.89 17.7
-2 -8 0 165.98 15.7
-3 -8 0 36.5 6.7
-3 -8 0 57.59 5.6
3 8 0 41.8 8.5
8 -9 0 53.49 6
8 -9 0 38.8 6.3
-8 9 0 45.9 6.9
7 -9 0 7.7 5
7 -9 0 18 4.2
7 -9 0 19.9 4.5
-7 9 0 30.9 7.3
-7 9 0 6.6 5.6
6 -9 0 301.67 29.5
6 -9 0 301.37 27.7
5 -9 0 127.59 21.8
5 -9 0 138.99 15.3
5 -9 0 135.79 16.5
5 -9 0 104.99 15.9
4 -9 0 75.89 13
4 -9 0 82.09 12.2
4 -9 0 120.09 12.9
4 -9 0 112.19 15.4
-4 9 0 74.49 13.9
3 -9 0 249.38 24
3 -9 0 256.07 26.4
3 -9 0 268.67 24.8
3 -9 0 238.78 22.7
3 -9 0 179.08 23.4
-3 9 0 161.68 34.1
2 -9 0 39.1 6.6
2 -9 0 10.5 6.6
2 -9 0 20.1 8.2
2 -9 0 32.9 7
2 -9 0 21.1 5.8
-2 9 0 28.9 10.1
-2 9 0 35.6 14.9
-2 9 0 23.7 11.6
1 -9 0 313.97 39.4
1 -9 0 347.37 32.2
1 -9 0 311.77 32.8
1 -9 0 351.66 32.3
-1 9 0 392.26 43.8
-1 9 0 404.16 45.3
0 -9 0 0.5 3.5
0 -9 0 0.7 2.1
0 -9 0 8.1 5
0 -9 0 0.5 2.6
0 9 0 2 3.7
0 9 0 8.4 6.1
-1 -9 0 124.39 12.6
6 -10 0 1.1 2.4
6 -10 0 -5.7 5.7
-6 10 0 4 3.8
-6 10 0 -5.8 4.2
-6 10 0 3 3.6
5 -10 0 -0.7 2.3
5 -10 0 0.9 4.1
5 -10 0 4.5 2.6
5 -10 0 -6.5 4.2
-5 10 0 3.3 5.3
-5 10 0 -5 3.2
-5 10 0 2.9 4.5
4 -10 0 23 5
4 -10 0 8.8 6.1
4 -10 0 18.1 5.8
4 -10 0 20.8 6.2
-4 10 0 21 11.1
-4 10 0 25.5 10
3 -10 0 37.8 6.4
3 -10 0 23 8.1
3 -10 0 38.4 7.2
-3 10 0 23.9 8.8
-3 10 0 53.69 14.3
2 -10 0 46.3 6.6
-2 10 0 57.49 14.1
-2 10 0 50.39 9.1
1 -10 0 76.59 8.5
1 -10 0 80.89 12
1 -10 0 61.39 8.6
-1 10 -1 28.9 9.6
1 -10 1 36.7 6
-2 10 -1 2.3 4.5
-2 10 -1 2.6 5
-2 10 -1 -2.2 4.1
2 -10 1 5 4.7
2 -10 1 -0.8 6.3
2 -10 1 -0.5 2.5
2 -10 1 6.1 2.9
-3 10 -1 44.9 12.4
3 -10 1 70.19 9
3 -10 1 54.99 9.1
-4 10 -1 6 7.4
-4 10 -1 2.7 5.1
-4 10 -1 1.3 3.7
4 -10 1 4.3 2.8
4 -10 1 5.9 4.1
4 -10 1 -1.2 8.8
4 -10 1 5.8 3.2
5 -10 1 45.2 9.2
5 -10 1 56.89 7.6
-6 10 -1 2.2 3.7
-6 10 -1 -1.8 3.6
-6 10 -1 -1 3.8
6 -10 1 0.3 1.6
6 -10 1 1.5 2
7 -10 1 10.4 3.6
7 -10 1 15 3.1
1 9 -1 2.2 6.4
-1 -9 1 2.8 2.3
-1 -9 1 4.2 2.2
-1 -9 1 8.3 5.4
0 9 -1 388.86 38
0 -9 1 307.87 33.2
0 -9 1 350.46 32.2
-1 9 -1 45.6 11.7
-1 9 -1 34.2 11.5
-1 9 -1 41.1 12.6
1 -9 1 14.3 8.9
1 -9 1 24.7 6
1 -9 1 36.1 7.2
1 -9 1 32.4 11.2
1 -9 1 19.6 5.9
-2 9 -1 172.18 23.3
-2 9 -1 185.48 30.5
2 -9 1 139.49 17.8
2 -9 1 163.48 18.5
2 -9 1 157.58 20
2 -9 1 146.69 17
-3 9 -1 5.1 5.2
-3 9 -1 9.4 9
-3 9 -1 16.9 6.7
-3 9 -1 13.3 9.5
3 -9 1 15.4 6.2
3 -9 1 12.7 4.6
3 -9 1 18.3 4.9
3 -9 1 14.8 5.2
3 -9 1 9.2 6.4
-4 9 -1 124.69 24.8
-4 9 -1 106.49 20.2
-4 9 -1 71.59 14.3
4 -9 1 105.09 13.3
4 -9 1 98.49 12.6
4 -9 1 89.59 13.2
4 -9 1 99.49 14
-5 9 -1 102.39 20.1
5 -9 1 173.68 16.1
5 -9 1 105.99 15.3
5 -9 1 171.48 16.6
5 -9 1 156.68 21.3
5 -9 1 110.99 21
-6 9 -1 18.3 9.5
-6 9 -1 27.3 9.7
6 -9 1 32.7 6.4
6 -9 1 26.9 6.1
6 -9 1 23.1 5.5
6 -9 1 37.8 6.5
-7 9 -1 128.29 22.6
-7 9 -1 171.78 18.5
7 -9 1 155.58 15.3
7 -9 1 136.59 19.1
7 -9 1 149.88 16.7
7 -9 1 137.59 15.5
-8 9 -1 5.1 3.4
-8 9 -1 11.3 3.8
8 -9 1 3.3 2.1
8 -9 1 -1.3 4.7
8 -9 1 5.8 2.1
3 8 -1 15.3 5.4
-3 -8 1 2.2 2.3
-3 -8 1 6.5 2.2
2 8 -1 1.2 5.4
2 8 -1 13.2 4.8
-2 -8 1 7 3.1
-2 -8 1 4.9 4.3
-2 -8 1 1.6 3.6
-2 -8 1 1.7 2.1
1 8 -1 23.7 12
1 8 -1 10.2 6.5
1 8 -1 7.8 5.9
-1 -8 1 3 3.6
-1 -8 1 12 4.1
-1 -8 1 19.7 6.9
-1 -8 1 13 4
0 8 -1 23.8 7.3
0 8 -1 9.8 10.3
0 8 -1 28.2 9.4
0 -8 1 19 5.4
0 -8 1 18.9 5.7
0 -8 1 25.8 7.7
0 -8 1 24.1 6.1
-1 8 -1 47.1 10.3
-1 8 -1 67.19 15.9
-1 8 -1 59.49 12.8
-1 8 -1 81.09 19.6
1 -8 1 51.59 9.5
1 -8 1 63.29 9.1
1 -8 1 47.8 11.1
1 -8 1 55.99 9.4
1 -8 1 51.19 11.1
-2 8 -1 137.09 22.9
-2 8 -1 125.09 18.1
-2 8 -1 159.88 20.2
2 -8 1 189.48 19.3
2 -8 1 200.98 19.5
2 -8 1 186.38 18.2
2 -8 1 156.98 18.1
2 -8 1 172.08 20.7
-3 8 -1 354.66 41
-3 8 -1 365.66 43.9
-3 8 -1 329.27 36.1
3 -8 1 341.17 38.1
3 -8 1 431.56 38.2
3 -8 1 457.25 40.8
3 -8 1 470.15 37.7
3 -8 1 463.35 38.4
3 -8 1 413.36 36.9
-4 8 -1 325.87 27.8
-4 8 -1 249.68 33
4 -8 1 223.28 27.8
4 -8 1 264.87 27
4 -8 1 245.08 28.1
4 -8 1 322.37 30.5
4 -8 1 311.77 28.5
4 -8 1 283.27 27.2
-5 8 -1 29 14.3
-5 8 -1 33.9 14.2
5 -8 1 43.6 8.4
5 -8 1 33.5 8.9
5 -8 1 46 8
5 -8 1 40 11.7
5 -8 1 35.1 9.2
-6 8 -1 38.1 12.7
-6 8 -1 35 11.1
-6 8 -1 53.39 11.3
6 -8 1 43 8.2
6 -8 1 33.4 7.9
-7 8 -1 13.2 7.7
-7 8 -1 13.9 7.9
-7 8 -1 6.9 6.4
-7 8 -1 -1 7.1
-7 8 -1 10.5 5.6
7 -8 1 4 3.1
7 -8 1 6.8 3.5
7 -8 1 4.5 3.2
7 -8 1 3.6 2.7
-8 8 -1 52.49 13
8 -8 1 44.5 7.1
8 -8 1 53.89 7.4
8 -8 1 35.3 7.6
-9 8 -1 1.3 2.1
-9 8 -1 -0.3 3.3
9 -8 1 -0.4 2.2
9 -8 1 0.4 3
9 -8 1 2.1 1.5
4 7 -1 6.8 4.7
4 7 -1 6.4 2.7
-4 -7 1 4.4 3.1
-4 -7 1 11.8 3
-4 -7 1 3 2.4
3 7 -1 61.09 13.9
3 7 -1 28.7 11.4
-3 -7 1 21.5 6.5
-3 -7 1 29.7 5.5
-3 -7 1 37.8 6.4
-3 -7 1 26.9 6
2 7 -1 119.89 18.3
2 7 -1 168.48 21
-2 -7 1 121.09 17.5
-2 -7 1 123.89 14.9
-2 -7 1 130.69 14.6
-2 -7 1 109.19 14.7
1 7 -1 322.07 34.1
1 7 -1 252.17 31.2
1 7 -1 274.47 39.1
-1 -7 1 272.07 29.4
-1 -7 1 255.07 27
-1 -7 1 217.38 28.8
-1 -7 1 254.37 25.9
-1 -7 1 259.77 25.9
-1 -7 1 276.07 27.8
0 7 -1 871.61 83.89
0 7 -1 1170.88 96.29
0 7 -1 944.31 100.19
0 -7 1 1055.79 82.29
0 -7 1 977 82.59
0 -7 1 1009.5 82.99
0 -7 1 823.42 83.99
0 -7 1 923.11 82.79
-1 7 -1 15.5 7.1
-1 7 -1 39.2 12.8
-1 7 -1 27 11.8
-1 7 -1 34.8 12.6
1 -7 1 23 5.8
1 -7 1 22.5 5.9
1 -7 1 32.7 5.5
1 -7 1 30.6 7.1
1 -7 1 26.2 6.3
-2 7 -1 390.86 40.3
-2 7 -1 406.46 36.1
-2 7 -1 366.56 40.8
2 -7 1 355.36 38.9
2 -7 1 369.56 35.3
2 -7 1 421.76 37
2 -7 1 419.46 36.6
2 -7 1 461.95 36.4
2 -7 1 390.16 36.2
-3 7 -1 -0.4 7
-3 7 -1 2.4 3.6
-3 7 -1 6.7 3.7
-3 7 -1 1.4 7.9
-3 7 -1 4.2 7.4
-3 7 -1 3.2 5.1
-3 7 -1 -3.3 4.6
3 -7 1 3.8 3.6
3 -7 1 3.4 2.4
3 -7 1 -0.9 4.2
3 -7 1 0.8 2.1
3 -7 1 -1.6 2.3
-4 7 -1 644.14 73.59
-4 7 -1 691.33 77.39
4 -7 1 871.01 67.79
4 -7 1 795.12 66.69
4 -7 1 836.42 66.69
4 -7 1 826.62 69.89
4 -7 1 745.43 66.29
-5 7 -1 200.08 30.8
-5 7 -1 237.98 26.8
-5 7 -1 200.78 32.2
-5 7 -1 242.68 24.1
5 -7 1 178.98 21.9
5 -7 1 201.38 21.7
5 -7 1 169.68 21.7
5 -7 1 230.78 23.9
5 -7 1 201.68 21.9
5 -7 1 172.18 24.2
-6 7 -1 615.64 63.49
-6 7 -1 596.34 64.69
-6 7 -1 643.34 58.99
6 -7 1 485.15 47.2
6 -7 1 461.15 51.29
6 -7 1 465.75 48.5
6 -7 1 556.14 50.29
6 -7 1 525.75 48.4
-7 7 -1 102.59 22.5
7 -7 1 119.19 14.8
7 -7 1 162.68 31.7
7 -7 1 106.99 14.9
7 -7 1 98.39 14.6
7 -7 1 100.69 13
7 -7 1 92.19 13.3
-8 7 -1 44.5 8.9
-8 7 -1 40.6 13.8
-8 7 -1 53.99 8.6
-8 7 -1 55.49 10.1
8 -7 1 27.5 6.5
8 -7 1 38.6 7.2
8 -7 1 40.9 8.7
8 -7 1 28.5 7.5
-9 7 -1 13.9 5.8
9 -7 1 12.1 3
9 -7 1 5.9 2.5
5 6 -1 2.5 3.1
5 6 -1 2.2 2.8
-5 -6 1 -1.8 1.8
-5 -6 1 -2 2.5
-4 -6 1 365.66 37.1
-4 -6 1 403.86 34.9
3 6 -1 52.29 18.1
3 6 -1 92.49 31.1
-3 -6 1 28.6 7
-3 -6 1 46.5 7.5
-3 -6 1 33.5 7.8
-3 -6 1 38.4 10.9
2 6 -1 623.24 56.69
2 6 -1 519.95 54.69
-2 -6 1 566.04 51.19
-2 -6 1 595.24 51.49
-2 -6 1 563.74 50.69
-2 -6 1 486.45 49
-2 -6 1 592.24 50.09
-2 -6 1 586.94 53.69
1 6 -1 203.48 26.5
1 6 -1 174.78 32.1
-1 -6 1 179.38 19.2
-1 -6 1 174.38 21.9
-1 -6 1 179.48 18.7
-1 -6 1 177.98 20
-1 -6 1 199.18 19.8
-1 -6 1 179.78 19.7
0 6 -1 906.51 89.79
0 6 -1 801.32 76.79
0 6 -1 794.22 85.09
0 6 -1 1040.7 82.69
0 -6 1 954.7 76.19
0 -6 1 979 76.29
0 -6 1 975.3 76.99
0 -6 1 766.72 77.09
0 -6 1 911.71 78.89
0 -6 1 987.5 75.59
0 -6 1 840.62 79.99
1 -6 1 1067.49 98.89
1 -6 1 1087.39 96.49
1 -6 1 1217.88 96.49
1 -6 1 1244.38 95.49
1 -6 1 1113.59 95.69
1 -6 1 1244.18 95.89
-2 6 -1 756.72 74.49
-2 6 -1 858.01 75.19
-2 6 -1 738.33 69.19
2 -6 1 870.71 69.09
2 -6 1 847.92 73.59
2 -6 1 874.41 69.59
2 -6 1 864.51 70.89
2 -6 1 903.71 70.19
-3 6 -1 1941.61 171.58
-3 6 -1 1818.72 164.78
-3 6 -1 1846.82 165.98
-3 6 -1 1816.72 158.28
3 -6 1 1893.31 159.78
3 -6 1 2107.49 162.58
3 -6 1 2083.19 160.78
3 -6 1 1959.9 157.68
3 -6 1 2128.69 158.48
-4 6 -1 35.3 10.1
-4 6 -1 31.7 10.5
-4 6 -1 43.5 10.3
-4 6 -1 26 10.6
-4 6 -1 40.9 10.3
-4 6 -1 26.3 6
4 -6 1 26.1 6
4 -6 1 49.5 16.4
4 -6 1 49.2 10.6
4 -6 1 33.4 10
4 -6 1 28.6 7.1
-5 6 -1 555.54 56.89
-5 6 -1 600.64 62.69
-5 6 -1 604.34 49.9
-5 6 -1 648.44 54.59
-5 6 -1 666.03 53.59
-5 6 -1 489.25 60.99
-5 6 -1 620.84 56.79
5 -6 1 564.74 51.39
5 -6 1 578.04 52.39
5 -6 1 485.75 49.1
5 -6 1 581.04 50.79
5 -6 1 481.35 49.8
-6 6 -1 7 3.7
-6 6 -1 9.4 5.8
-6 6 -1 11.9 7.9
-6 6 -1 3.2 4.6
-6 6 -1 4.3 6.9
6 -6 1 17.9 8.1
6 -6 1 3.5 4.2
6 -6 1 -6.6 5.2
6 -6 1 6.6 7.3
6 -6 1 4 4.3
6 -6 1 0 4.6
-7 6 -1 335.37 38.8
7 -6 1 330.77 32.6
7 -6 1 342.17 37.5
7 -6 1 297.67 32
7 -6 1 303.17 30.4
-8 6 -1 0.4 5.9
-8 6 -1 9.6 5.3
-8 6 -1 5.5 3.4
-8 6 -1 2.5 4.6
8 -6 1 13.1 4.9
8 -6 1 4.4 4.2
8 -6 1 6.2 3.8
8 -6 1 1.5 2.9
8 -6 1 2.2 5.7
-9 6 -1 98.29 17
-9 6 -1 120.49 12.6
9 -6 1 96.89 12.7
9 -6 1 123.89 12.4
9 -6 1 129.69 14.1
6 5 -1 87.99 12.1
6 5 -1 98.69 10.9
-6 -5 1 74.79 10.5
5 5 -1 5 8.1
5 5 -1 6.5 3.9
5 5 -1 2.2 4.3
-5 -5 1 4.5 3
-5 -5 1 -4.2 3.5
-5 -5 1 -0.1 3.5
-5 -5 1 0.4 1.8
-4 -5 1 287.77 25.9
-4 -5 1 267.17 28.5
-4 -5 1 223.48 24.9
-4 -5 1 272.27 26.7
-4 -5 1 255.57 28.9
3 5 -1 41.6 17.6
-3 -5 1 2 2.7
-3 -5 1 1.9 4.5
-3 -5 1 1.6 2.7
-3 -5 1 5.8 4.9
2 5 -1 473.35 50.19
2 5 -1 529.35 62.79
-2 -5 1 518.95 60.09
-2 -5 1 492.15 44.2
-2 -5 1 503.85 47.1
-2 -5 1 485.55 45
-2 -5 1 530.65 44.2
-2 -5 1 507.25 44.8
-2 -5 1 501.05 45
1 5 -1 214.28 34.9
-1 -5 1 246.98 27.8
-1 -5 1 273.77 25.4
-1 -5 1 269.27 25.2
-1 -5 1 270.17 27.5
-1 -5 1 297.37 25.3
0 -5 1 469.25 36.9
0 -5 1 464.55 37.2
0 -5 1 353.36 38.9
0 -5 1 442.66 37.2
0 -5 1 412.56 37.5
0 -5 1 416.96 38.5
-1 5 -1 1893.71 158.08
1 -5 1 1944.21 154.48
1 -5 1 1868.71 157.88
1 -5 1 1853.41 155.18
1 -5 1 1967.2 154.58
1 -5 1 1914.31 155.28
1 -5 1 2058.99 154.48
-2 5 -1 3.4 2.5
-2 5 -1 2.9 2.8
2 -5 1 1.1 1.5
2 -5 1 3.2 1.8
2 -5 1 2.7 1.8
2 -5 1 3.3 2.1
2 -5 1 2.4 1.5
-3 5 -1 607.14 58.09
-3 5 -1 619.14 52.29
3 -5 1 622.54 50.69
3 -5 1 649.04 51.09
3 -5 1 585.14 50.59
3 -5 1 511.45 60.19
-4 5 -1 143.19 22.1
-4 5 -1 129.19 17.6
-4 5 -1 155.98 21.5
4 -5 1 152.28 15.9
4 -5 1 169.28 15.8
4 -5 1 157.48 17.1
4 -5 1 148.49 18.1
4 -5 1 180.88 16.9
-5 5 -1 -3.1 3.5
-5 5 -1 0.9 2.7
-5 5 -1 4.8 6.1
-5 5 -1 7.9 6.3
-5 5 -1 -3.9 4.1
-5 5 -1 3.9 3.5
5 -5 1 5.5 2.5
5 -5 1 1.3 2.5
5 -5 1 6.1 3.5
5 -5 1 -2.9 4.7
5 -5 1 8.5 5.2
5 -5 1 2 2
5 -5 1 2.7 4.7
-6 5 -1 121.09 19.1
-6 5 -1 84.59 21.9
-6 5 -1 145.99 20.5
-6 5 -1 139.99 15.6
6 -5 1 94.39 13.7
6 -5 1 90.79 13.2
6 -5 1 98.89 13.5
6 -5 1 119.09 14.1
6 -5 1 110.89 17.2
6 -5 1 99.89 14.4
-7 5 -1 7.6 8.4
-7 5 -1 17.8 7.5
-7 5 -1 24.5 8.6
7 -5 1 10.6 4.3
7 -5 1 15.9 5.7
7 -5 1 9.2 5.3
7 -5 1 10.9 8.7
7 -5 1 8.4 5
-8 5 -1 19.6 5.8
-8 5 -1 34.9 12
-8 5 -1 32.1 8.4
8 -5 1 14.7 5.3
8 -5 1 25.6 7.7
8 -5 1 22.7 8.4
8 -5 1 22.1 5.9
-9 5 -1 8.7 4.7
-9 5 -1 6 5.4
9 -5 1 2.1 3.6
9 -5 1 1.8 5.8
9 -5 1 1.1 2.6
9 -5 1 2.8 3.1
-10 5 -1 30.2 5.6
7 4 -1 4.1 4.8
7 4 -1 0.8 2.2
-7 -4 1 3.3 2.6
-6 -4 1 250.17 24.1
-6 -4 1 207.78 24.6
-6 -4 1 205.98 19.9
5 4 -1 24 7.4
5 4 -1 13.1 7.9
-5 -4 1 8.1 4.1
-5 -4 1 23 8.7
-5 -4 1 12.2 7.2
-5 -4 1 11.1 3.6
-5 -4 1 20.7 10.2
-5 -4 1 6.8 7.4
-4 -4 1 1328.07 124.59
-4 -4 1 1445.46 133.79
-4 -4 1 1323.07 131.79
-4 -4 1 1737.33 128.59
-4 -4 1 1706.83 124.99
3 4 -1 480.25 46.6
-3 -4 1 492.15 43.5
-3 -4 1 525.15 43.5
-3 -4 1 526.25 44.7
-3 -4 1 451.85 43.7
-3 -4 1 482.15 48.1
-3 -4 1 500.95 46.2
-2 -4 1 3287.27 251.57
-2 -4 1 3084.89 252.17
-2 -4 1 3033.1 255.07
-2 -4 1 3198.68 252.07
1 4 -1 1140.69 104.19
-1 -4 1 1327.37 107.19
-1 -4 1 1369.36 106.59
-1 -4 1 1196.58 107.39
-1 -4 1 1341.97 105.29
-1 -4 1 1398.86 104.99
0 4 -1 2681.33 226.98
0 -4 1 2692.83 227.68
0 -4 1 3048.5 225.38
0 -4 1 2895.11 226.78
0 -4 1 2861.11 225.48
-1 4 -1 1459.65 137.79
-1 4 -1 1580.74 146.59
1 -4 1 1869.51 138.49
1 -4 1 1742.23 136.49
1 -4 1 1491.55 134.19
1 -4 1 1795.72 136.29
1 -4 1 1829.52 135.79
1 -4 1 1844.92 135.79
-2 4 -1 923.81 69.49
2 -4 1 774.52 66.39
2 -4 1 769.62 68.39
2 -4 1 872.51 69.29
2 -4 1 810.32 67.09
-3 4 -1 2194.98 184.38
3 -4 1 2367.56 184.38
3 -4 1 2324.67 184.88
3 -4 1 2475.45 183.18
3 -4 1 2090.89 183.48
-4 4 -1 133.89 18.6
-4 4 -1 100.89 16.1
4 -4 1 126.19 14.7
4 -4 1 136.19 13.9
4 -4 1 136.69 14.4
4 -4 1 143.89 12.9
4 -4 1 114.39 15.6
-5 4 -1 861.61 68.89
-5 4 -1 975.7 76.49
5 -4 1 800.02 69.09
5 -4 1 793.32 68.79
5 -4 1 718.33 66.29
5 -4 1 764.72 69.09
5 -4 1 824.92 70.89
-6 4 -1 41.4 10.8
-6 4 -1 35.7 9.9
-6 4 -1 49.1 8
-6 4 -1 59.69 10.2
6 -4 1 38.8 9.6
6 -4 1 27.2 9.2
-7 4 -1 235.68 22.7
-7 4 -1 262.07 35.9
-7 4 -1 215.38 23.4
-7 4 -1 139.09 29.2
7 -4 1 203.98 25.7
7 -4 1 183.18 24.7
7 -4 1 204.38 22.4
7 -4 1 178.68 20
7 -4 1 163.48 20.4
7 -4 1 222.58 23.6
7 -4 1 200.08 21.6
-8 4 -1 10.1 10.8
-8 4 -1 12.9 4.9
-8 4 -1 20 8.1
8 -4 1 17.5 5.5
8 -4 1 16.5 4.4
8 -4 1 12.9 5.1
8 -4 1 13.6 5.8
8 -4 1 7.9 6.9
-9 4 -1 9.9 3.9
-9 4 -1 12.5 5.7
9 -4 1 3.3 3.1
9 -4 1 1.1 6.7
9 -4 1 12.4 5.4
-10 4 -1 -1 1.6
-10 4 -1 1.1 1.7
10 -4 1 7.4 3.7
7 3 -1 140.89 15.9
-7 -3 1 121.59 17.9
-7 -3 1 118.39 15.9
6 3 -1 2.1 5.3
6 3 -1 2 3.7
-6 -3 1 -6.4 4
-6 -3 1 2 2.4
-6 -3 1 4.1 3.8
-6 -3 1 1.7 2.6
-6 -3 1 1 5
-5 -3 1 372.76 31.8
-5 -3 1 397.86 35.6
-5 -3 1 326.87 36
-5 -3 1 283.87 31.3
-5 -3 1 310.37 30.9
-5 -3 1 352.66 32.6
4 3 -1 119.29 17.4
4 3 -1 105.09 15.1
-4 -3 1 77.79 11.3
-4 -3 1 88.29 11
-4 -3 1 105.89 13.9
-4 -3 1 75.09 11.3
-4 -3 1 79.19 11
3 3 -1 1001.1 88.59
3 3 -1 775.62 74.79
-3 -3 1 841.12 71.39
-3 -3 1 865.71 71.39
-3 -3 1 874.01 70.79
-3 -3 1 795.02 74.09
-2 -3 1 320.47 32.4
-2 -3 1 346.17 30.4
-2 -3 1 346.57 30.3
-2 -3 1 344.97 32.5
-2 -3 1 364.26 30.3
1 3 -1 769.02 69.99
-1 -3 1 905.41 70.69
-1 -3 1 899.11 70.29
-1 -3 1 899.41 72.19
0 3 -1 2915.01 218.38
0 -3 1 2640.74 218.28
0 -3 1 2755.42 217.78
0 -3 1 2635.34 216.78
-1 3 -1 60.59 7.4
-1 3 -1 43.5 5.7
-1 3 -1 60.19 5.8
1 -3 1 54.59 5.3
1 -3 1 53.69 5.4
1 -3 1 44.5 5
1 -3 1 57.99 5.8
1 -3 1 59.69 6.7
-2 3 -1 7211.38 541.45
-2 3 -1 6488.45 543.05
-3 3 -1 129.09 16.2
-3 3 -1 167.18 18.6
3 -3 1 165.88 14.7
3 -3 1 176.98 16.4
3 -3 1 176.58 15.5
3 -3 1 170.78 16
4 -3 1 4167.78 353.56
4 -3 1 4884.51 353.66
4 -3 1 4196.28 353.36
4 -3 1 4550.94 354.46
-5 3 -1 181.18 17.8
5 -3 1 134.69 15.5
5 -3 1 137.09 17.8
5 -3 1 160.98 15.8
5 -3 1 140.49 16
-6 3 -1 462.05 42.1
-6 3 -1 523.25 41.1
6 -3 1 477.85 39.4
6 -3 1 399.76 39.8
6 -3 1 367.96 38.6
6 -3 1 368.46 37.7
6 -3 1 472.45 41.5
6 -3 1 413.86 42.7
-7 3 -1 548.85 46.7
7 -3 1 519.65 46.4
7 -3 1 453.05 48.6
7 -3 1 525.45 48.9
7 -3 1 452.95 42.6
7 -3 1 432.06 44.2
-8 3 -1 7.8 6.1
-8 3 -1 24.1 8.6
-8 3 -1 9.5 4.3
8 -3 1 15.8 6.5
8 -3 1 8.4 3.8
8 -3 1 2.3 4.9
8 -3 1 12.2 3.8
8 -3 1 11.3 4.7
8 -3 1 19.1 7.5
-9 3 -1 123.99 16.2
-9 3 -1 140.59 19
-9 3 -1 141.69 15.6
8 2 -1 12.3 7.1
8 2 -1 4.8 3.3
-8 -2 1 3.4 2.4
-8 -2 1 3.1 4.4
7 2 -1 30.5 7
-7 -2 1 30.9 8.4
-7 -2 1 23.9 7.1
-7 -2 1 23.5 6.3
6 2 -1 -5.7 7.8
6 2 -1 8.5 5.6
6 2 -1 2.6 5.2
6 2 -1 5.5 4.6
-6 -2 1 1 3
-6 -2 1 0.7 3.8
-6 -2 1 4.8 4.4
-6 -2 1 2.9 2.2
-6 -2 1 0.8 4.6
-6 -2 1 -1 4.9
5 2 -1 37.1 10.6
5 2 -1 33.8 8.6
5 2 -1 37.2 10.3
5 2 -1 34.3 9.9
-5 -2 1 24.7 5.7
-5 -2 1 21.5 6
-5 -2 1 30.2 5.6
-5 -2 1 21.1 6.9
-5 -2 1 27.9 7.9
-5 -2 1 39.6 6.8
4 2 -1 393.06 44.2
4 2 -1 545.45 47.4
-4 -2 1 464.35 40.4
-4 -2 1 458.85 43.7
-4 -2 1 437.36 40.7
-4 -2 1 461.85 42.5
-4 -2 1 451.75 44.8
-4 -2 1 469.95 40.6
3 2 -1 8460.35 588.34
3 2 -1 6776.02 590.94
-3 -2 1 7599.34 586.44
-3 -2 1 7489.85 586.84
-3 -2 1 6816.82 586.54
-3 -2 1 7374.36 589.54
2 2 -1 800.62 77.59
2 2 -1 988.7 80.39
2 2 -1 870.11 81.09
-2 -2 1 1012.5 80.09
-2 -2 1 1018.1 78.49
-2 -2 1 1096.19 78.49
1 2 -1 4102.89 321.47
1 2 -1 3832.12 324.27
1 2 -1 4305.27 324.57
0 2 -1 1971.7 152.68
0 -2 1 1954.3 151.58
0 -2 1 1814.22 151.98
1 -2 1 971.4 70.69
1 -2 1 801.32 70.09
-2 2 -1 131.49 13.3
-2 2 -1 110.19 11.9
2 -2 1 137.09 12.1
2 -2 1 130.99 11.9
2 -2 1 133.09 11.2
-3 2 -1 78.29 9.2
3 -2 1 82.49 8.2
3 -2 1 78.99 8.3
3 -2 1 80.19 8.5
3 -2 1 66.69 6.8
3 -2 1 59.99 9.4
-4 2 -1 1209.38 112.19
-4 2 -1 1185.28 109.89
4 -2 1 1466.85 112.29
4 -2 1 1343.87 114.49
4 -2 1 1629.64 118.59
4 -2 1 1368.86 112.49
4 -2 1 1582.04 117.39
-5 2 -1 13.6 5.1
-5 2 -1 24.6 6.5
5 -2 1 20.4 6.1
5 -2 1 16.7 4.3
5 -2 1 9.6 3.2
5 -2 1 7.2 3.3
-6 2 -1 44 9.1
-6 2 -1 28.4 7.1
6 -2 1 19.4 5.5
6 -2 1 30.3 7.8
6 -2 1 27.1 8
6 -2 1 34 6
6 -2 1 26.4 7.9
-7 2 -1 45.4 9.5
-7 2 -1 33.2 8.7
7 -2 1 54.79 8.2
7 -2 1 41.7 7.7
7 -2 1 32.8 10.8
7 -2 1 51.59 11
7 -2 1 44.8 10.1
7 -2 1 42.7 8.3
7 -2 1 61.89 12.2
-8 2 -1 8.2 6.1
-8 2 -1 3.9 4
8 -2 1 7.6 4.3
8 -2 1 11.4 7
8 -2 1 9.7 3.5
8 -2 1 7.3 6.4
8 -2 1 10.3 4.8
8 -2 1 8.2 5
-9 2 -1 -0.5 3.9
-9 2 -1 2.8 2.7
-9 2 -1 4.2 3.1
9 -2 1 2.7 6.7
9 -2 1 2 3.4
-8 -1 1 29.5 9
-8 -1 1 25.9 6.2
-8 -1 1 45.7 10.6
-7 -1 1 83.49 10.8
-7 -1 1 127.09 16
-7 -1 1 114.59 20
6 1 -1 70.09 12
6 1 -1 40.9 12.4
6 1 -1 46.6 12.1
6 1 -1 70.79 17.5
-6 -1 1 58.69 10.8
-6 -1 1 43.4 8.1
-6 -1 1 32.3 6.8
-6 -1 1 50.69 8.2
-6 -1 1 44.3 10.4
5 1 -1 618.74 47.6
5 1 -1 512.75 51.99
5 1 -1 674.43 56.69
5 1 -1 608.94 50.99
-5 -1 1 555.14 48.5
-5 -1 1 482.65 47
-5 -1 1 507.35 50.69
-5 -1 1 575.44 50.69
-5 -1 1 515.65 47.4
-5 -1 1 531.75 48.1
-5 -1 1 557.74 51.69
4 1 -1 2778.82 246.68
-4 -1 1 3140.49 246.08
-4 -1 1 2986.9 242.18
-4 -1 1 3039.8 242.58
-4 -1 1 3229.38 242.18
3 1 -1 841.62 73.19
3 1 -1 739.53 74.79
-3 -1 1 951.2 72.39
-3 -1 1 1007.9 72.79
2 1 -1 6498.75 515.15
1 1 -1 2040.4 170.48
1 1 -1 2158.58 169.48
1 1 -1 2259.17 170.58
-1 -1 1 2109.29 170.38
-1 1 -1 22.6 3.1
-1 1 -1 19.2 2.6
-1 1 -1 25.2 2.6
1 -1 1 22.2 2.3
1 -1 1 26.1 2.4
1 -1 1 24.8 2.6
1 -1 1 24.9 2.2
-2 1 -1 3443.66 274.67
2 -1 1 3488.45 275.47
2 -1 1 3035.3 276.47
2 -1 1 3982.8 277.67
-3 1 -1 1153.88 90.59
3 -1 1 1049.99 86.19
3 -1 1 1191.18 89.89
3 -1 1 1016.7 86.49
3 -1 1 955.1 86.69
4 -1 1 830.12 76.49
4 -1 1 900.51 77.49
4 -1 1 987.6 74.59
-5 1 -1 129.89 16.1
-5 1 -1 120.39 14.5
-5 1 -1 94.29 11.9
5 -1 1 119.09 15.2
5 -1 1 105.09 13.7
5 -1 1 88.59 11.7
5 -1 1 106.39 12.1
5 -1 1 119.39 12.9
5 -1 1 99.69 14.7
-6 1 -1 188.58 22.8
-6 1 -1 209.58 22.7
6 -1 1 219.98 21.6
6 -1 1 164.28 21.8
6 -1 1 197.48 19.9
6 -1 1 251.27 25.9
6 -1 1 233.88 25.8
6 -1 1 179.48 24.6
-7 1 -1 -1.2 4.3
-7 1 -1 6.9 5
7 -1 1 6.6 7.2
7 -1 1 1.4 5.2
7 -1 1 2.7 2.8
7 -1 1 5.8 5.5
7 -1 1 -3.7 3.6
7 -1 1 0.1 2.7
7 -1 1 5.9 4.5
-8 1 -1 125.79 16.4
-8 1 -1 134.59 17.1
-8 1 -1 101.09 14
8 -1 1 146.09 12.9
8 -1 1 133.49 21.1
-9 1 -1 61.19 8.6
-9 1 -1 56.29 9.2
9 -1 1 72.19 10.6
9 0 -1 1.1 2.9
9 0 -1 4.7 2.4
-9 0 1 -1.4 3.6
-9 0 1 -2.2 2.5
-9 0 1 4.1 4.9
8 0 -1 9.2 5.4
8 0 -1 3.2 3.9
-8 0 1 6.2 3.9
-8 0 1 1.2 3.5
7 0 -1 72.39 17
7 0 -1 48.4 7.5
7 0 -1 74.69 13.2
7 0 -1 55.09 11.1
7 0 -1 62.29 11.8
-7 0 1 52.79 10.3
-7 0 1 41.4 8
-7 0 1 65.29 11.3
6 0 -1 4.8 5.7
6 0 -1 -3.9 4.3
6 0 -1 -0.8 5
6 0 -1 -1.5 3.2
6 0 -1 4.4 5.7
6 0 -1 -1.7 6.9
6 0 -1 -2.2 3.3
6 0 -1 3.9 5.1
-6 0 1 -0.3 2.7
-6 0 1 0.6 4
-6 0 1 4.1 3.4
-6 0 1 4.3 4.3
-6 0 1 1.1 4.3
-6 0 1 3.5 3.2
5 0 -1 193.18 22.7
5 0 -1 246.38 27.9
5 0 -1 188.88 24.6
5 0 -1 278.77 22.6
-5 0 1 229.78 24.6
-5 0 1 195.38 23.7
-5 0 1 256.17 24.6
-5 0 1 256.47 22.2
-5 0 1 243.58 22
-5 0 1 248.78 22.8
-5 0 1 248.68 22.6
4 0 -1 1545.15 141.19
4 0 -1 1516.55 143.29
4 0 -1 1603.04 143.09
4 0 -1 1769.12 141.19
4 0 -1 1509.75 143.69
-4 0 1 1945.51 142.89
-4 0 1 1881.51 140.09
-4 0 1 1755.72 139.89
-4 0 1 1938.61 140.99
-4 0 1 1978.6 140.59
3 0 -1 313.57 27.3
3 0 -1 301.27 26.5
3 0 -1 277.07 27.9
3 0 -1 248.58 27.3
3 0 -1 286.67 26.4
3 0 -1 309.67 27.2
3 0 -1 356.06 28.9
2 0 -1 1754.42 150.38
2 0 -1 2060.99 149.29
2 0 -1 1765.82 149.79
2 0 -1 1789.52 149.39
-2 0 1 2007.4 149.88
1 0 -1 889.21 75.09
1 0 -1 892.31 75.49
1 0 -1 1040.2 75.89
0 0 1 774.72 61.49
-1 0 -1 1973.5 155.88
2 0 1 2482.65 198.38
2 0 1 2438.96 197.68
-3 0 -1 382.46 30.4
-3 0 -1 376.06 28.3
-3 0 -1 344.07 27.1
3 0 1 310.37 31.4
3 0 1 276.87 28.9
3 0 1 275.67 30.2
-4 0 -1 7856.01 616.84
-4 0 -1 7322.77 619.34
-4 0 -1 7444.06 616.44
4 0 1 7014.6 621.54
4 0 1 8165.98 617.84
4 0 1 8988.8 621.34
-5 0 -1 1039.8 88.59
-5 0 -1 1253.07 92.39
-5 0 -1 922.61 88.79
-5 0 -1 1075.59 92.19
-5 0 -1 997.7 93.09
5 0 1 1052.29 91.09
5 0 1 1052.99 94.19
5 0 1 1267.57 99.19
-6 0 -1 4689.23 426.06
6 0 1 5186.98 422.66
6 0 1 6120.99 422.46
6 0 1 5267.87 425.66
-7 0 -1 49.99 18.3
-7 0 -1 36.3 9.2
-7 0 -1 39.9 10.2
7 0 1 69.79 13.3
7 0 1 57.09 12.1
7 0 1 79.99 22.5
7 0 1 58.29 11.5
-8 0 -1 473.55 41
8 0 1 374.86 41.2
-9 0 -1 12 3.4
-9 0 -1 17.6 5.8
9 0 1 19.4 4.4
9 -1 -1 4.3 3.5
-9 1 1 -1.2 4.4
-9 1 1 1 5
-9 1 1 -3.4 2
-9 1 1 -2.7 2.2
8 -1 -1 15.4 5
8 -1 -1 20.3 6.3
8 -1 -1 17.1 7.3
-8 1 1 6.4 4.3
-8 1 1 9.8 3.8
7 -1 -1 4.4 5.5
7 -1 -1 7.5 5.9
7 -1 -1 7.3 4.7
7 -1 -1 1.2 5.5
7 -1 -1 5.8 7
7 -1 -1 3.9 3.2
-7 1 1 2 3.5
-7 1 1 -2.8 3
6 -1 -1 54.49 10.7
6 -1 -1 42.5 9.2
6 -1 -1 42.7 6.8
6 -1 -1 47.5 7.2
6 -1 -1 48.7 8.7
6 -1 -1 40 14.7
6 -1 -1 37.5 10.5
-6 1 1 54.39 12.1
-6 1 1 55.69 8.2
-6 1 1 42.6 8.6
-6 1 1 40.9 7.7
-6 1 1 45.5 9.5
-6 1 1 25.3 7.8
5 -1 -1 1115.99 110.69
5 -1 -1 1400.86 116.79
5 -1 -1 1238.58 110.99
5 -1 -1 1193.78 110.29
-5 1 1 1449.76 111.39
-5 1 1 1445.06 110.29
-5 1 1 1506.95 111.09
-5 1 1 1490.85 109.69
4 -1 -1 5.9 3.6
4 -1 -1 0 2.1
4 -1 -1 3.8 2.3
-4 1 1 6.5 1.9
-4 1 1 4.4 2.2
-4 1 1 2.6 2.4
3 -1 -1 3607.64 304.87
3 -1 -1 4350.46 308.27
3 -1 -1 3743.03 304.97
3 -1 -1 3467.35 304.77
3 -1 -1 3516.35 304.27
3 -1 -1 4083.79 303.37
3 -1 -1 4085.49 305.07
2 -1 -1 930.41 84.19
2 -1 -1 1022.4 83.69
2 -1 -1 1092.69 84.99
2 -1 -1 1064.39 84.59
2 -1 -1 1070.19 83.79
2 -1 -1 1172.58 85.19
-2 1 1 1080.59 84.69
-2 1 1 1099.19 84.29
-2 1 1 1053.09 85.79
-2 1 1 890.21 83.49
1 -1 -1 1302.07 113.09
1 -1 -1 1414.86 113.49
1 -1 -1 1412.66 112.59
1 -1 -1 1421.86 113.19
1 -1 -1 1501.15 113.29
-1 1 1 1472.95 113.39
0 -1 -1 749.82 59.89
0 -1 -1 766.22 59.49
0 -1 -1 843.32 59.49
0 -1 -1 742.13 60.19
0 -1 -1 845.92 59.79
0 1 1 639.94 59.79
0 1 1 642.44 59.19
0 1 1 782.22 60.79
0 1 1 697.33 60.19
-1 -1 -1 1982.9 157.48
-1 -1 -1 2083.59 158.38
-1 -1 -1 1889.91 157.98
-2 -1 -1 3816.02 305.97
-2 -1 -1 4045.8 304.97
-2 -1 -1 3944.21 304.67
2 1 1 3579.84 307.97
-3 -1 -1 889.81 72.49
-3 -1 -1 913.11 72.79
-3 -1 -1 906.51 72.39
-3 -1 -1 894.51 74.79
3 1 1 806.52 76.59
-4 -1 -1 4.7 2.9
-4 -1 -1 -2.3 3.4
-4 -1 -1 1.9 2.5
-4 -1 -1 0.4 1.8
4 1 1 6 5.4
4 1 1 4.2 5.5
4 1 1 4.1 3.5
4 1 1 6.8 4
-5 -1 -1 90.19 13.4
-5 -1 -1 72.09 10.3
-5 -1 -1 80.59 12.8
-5 -1 -1 53.69 9
-5 -1 -1 52.69 11.7
-5 -1 -1 64.09 9.9
-5 -1 -1 56.99 13.4
5 1 1 97.59 10.4
5 1 1 90.39 13.7
5 1 1 71.69 12
5 1 1 94.49 11.3
5 1 1 88.49 10.2
-6 -1 -1 443.56 55.79
-6 -1 -1 468.15 48.4
-6 -1 -1 479.55 47.4
6 1 1 539.85 43.4
6 1 1 592.24 52.29
-7 -1 -1 21.9 6.4
-7 -1 -1 11.8 5.5
7 1 1 19.7 5.9
7 1 1 7.3 4.8
7 1 1 -5.2 6.4
-8 -1 -1 29.4 7.7
-8 -1 -1 31.4 6.1
8 1 1 42.6 7.1
8 1 1 34.2 7.4
9 -2 -1 101.29 14.3
-9 2 1 72.09 11.2
8 -2 -1 115.89 17.4
8 -2 -1 73.89 12.1
8 -2 -1 127.69 11.5
8 -2 -1 114.99 16.8
8 -2 -1 109.39 14.8
-8 2 1 96.79 13.7
-8 2 1 76.29 12.6
7 -2 -1 573.44 50.69
7 -2 -1 593.04 48.8
7 -2 -1 523.25 53.89
7 -2 -1 570.34 54.99
7 -2 -1 573.94 52.29
-7 2 1 543.65 51.19
-7 2 1 580.44 50.99
6 -2 -1 313.57 34.2
6 -2 -1 224.18 27.3
6 -2 -1 205.18 23.6
6 -2 -1 231.28 27.3
6 -2 -1 259.77 29.1
6 -2 -1 270.47 27.3
6 -2 -1 231.38 24.5
6 -2 -1 273.37 26.1
-6 2 1 304.07 26.7
-6 2 1 313.87 26.6
-6 2 1 262.97 26.3
5 -2 -1 859.61 71.39
5 -2 -1 735.23 65.89
5 -2 -1 629.64 66.89
-5 2 1 804.32 66.59
-5 2 1 838.52 63.69
-5 2 1 827.92 68.29
4 -2 -1 17.1 3.9
4 -2 -1 16.9 5
4 -2 -1 20.5 2.9
4 -2 -1 13.4 3.9
4 -2 -1 15.7 4.6
4 -2 -1 16.6 6
4 -2 -1 14.4 4.1
-4 2 1 27.1 5.8
-4 2 1 17.9 3.9
3 -2 -1 1125.79 84.49
3 -2 -1 982 83.29
3 -2 -1 1030.1 85.49
3 -2 -1 908.11 82.99
3 -2 -1 1013.2 84.49
3 -2 -1 1049.3 85.29
-3 2 1 973.4 82.89
-3 2 1 1206.48 85.99
2 -2 -1 1132.49 87.49
2 -2 -1 1021.8 87.59
2 -2 -1 1149.78 87.29
2 -2 -1 1143.19 86.39
2 -2 -1 957.1 86.69
2 -2 -1 1196.98 87.19
-2 2 1 1089.09 87.99
-2 2 1 922.71 86.69
1 -2 -1 48.3 5.1
1 -2 -1 58.39 5.9
1 -2 -1 45 4.9
1 -2 -1 46.7 4.9
1 -2 -1 53.09 6.5
-1 2 1 48.1 5.3
0 -2 -1 1941.91 170.78
0 -2 -1 2424.06 169.78
0 -2 -1 2191.58 170.28
0 -2 -1 2423.56 169.88
0 -2 -1 2359.36 170.48
0 2 1 1958.9 169.48
0 2 1 1890.41 170.28
0 2 1 2171.58 171.18
0 2 1 2163.18 170.68
0 2 1 1866.11 169.18
-1 -2 -1 5 1.6
-1 -2 -1 9 2.9
1 2 1 4.3 2.6
1 2 1 1.5 2.1
1 2 1 3.6 3
-2 -2 -1 117.69 11.8
-2 -2 -1 118.39 11.9
-2 -2 -1 110.69 13
-2 -2 -1 114.99 13
2 2 1 119.29 14.1
2 2 1 117.29 16.7
2 2 1 126.49 17.9
-3 -2 -1 42 7.8
-3 -2 -1 45.4 8
-3 -2 -1 37.8 6.2
-3 -2 -1 44.2 6.5
-3 -2 -1 51.49 7.1
3 2 1 65.69 10.1
3 2 1 54.89 9.1
-4 -2 -1 9.1 2.8
-4 -2 -1 4 4.7
-4 -2 -1 17.9 5.7
-4 -2 -1 9.4 3.5
-4 -2 -1 7.5 6.1
-4 -2 -1 6.7 3.2
-4 -2 -1 1.4 2.6
4 2 1 4.4 4.4
4 2 1 1.7 3.7
4 2 1 -0.7 4.9
4 2 1 4 5
4 2 1 0.1 5.1
4 2 1 6.2 9.8
4 2 1 19 6.2
-5 -2 -1 98.09 15.9
-5 -2 -1 103.59 13.1
-5 -2 -1 84.29 12.6
-5 -2 -1 110.59 12.5
-5 -2 -1 99.29 12.3
-6 -2 -1 23.2 7.4
-6 -2 -1 31.1 8.4
6 2 1 32 8.8
6 2 1 41.8 18.7
6 2 1 43.5 11.7
6 2 1 31 9.2
-7 -2 -1 -0.3 3.1
7 2 1 -1 3.2
7 2 1 3.6 4.1
-8 -2 -1 0.1 2.5
-8 -2 -1 0.8 3.3
8 2 1 0.6 5.1
-10 3 1 6.6 3.4
-10 3 1 5.8 2.6
9 -3 -1 0.8 3.3
9 -3 -1 1.4 2.1
9 -3 -1 4 5.4
-9 3 1 3 3.2
8 -3 -1 50.09 8.7
8 -3 -1 46.6 11.9
8 -3 -1 46.3 10.7
8 -3 -1 21.5 8.9
8 -3 -1 36 6.7
-8 3 1 60.99 9.4
-8 3 1 31.1 7.8
7 -3 -1 174.28 18.6
7 -3 -1 166.68 23.6
7 -3 -1 151.68 21.8
7 -3 -1 206.48 22.5
7 -3 -1 210.98 30.2
7 -3 -1 221.18 21.7
7 -3 -1 146.19 19.4
7 -3 -1 179.58 19.4
-7 3 1 206.48 20.8
-7 3 1 179.28 21.4
-7 3 1 195.98 20.7
6 -3 -1 28.5 7.6
6 -3 -1 23.4 7.1
6 -3 -1 18.1 5.5
6 -3 -1 27.5 7.2
-6 3 1 30.1 6.7
-6 3 1 20.4 6.7
-6 3 1 26.8 6.2
5 -3 -1 1848.42 155.18
5 -3 -1 1897.71 154.98
5 -3 -1 2003.4 151.28
5 -3 -1 1874.11 152.48
5 -3 -1 1845.02 153.08
5 -3 -1 1807.72 152.88
4 -3 -1 1344.77 106.59
4 -3 -1 1310.87 107.59
4 -3 -1 1298.97 105.29
4 -3 -1 1222.28 103.59
4 -3 -1 1140.89 102.89
4 -3 -1 1378.96 104.79
3 -3 -1 5290.97 380.36
3 -3 -1 4935.71 381.46
3 -3 -1 4420.86 381.76
3 -3 -1 4929.91 380.86
-3 3 1 4402.76 378.46
2 -3 -1 2821.72 230.28
2 -3 -1 2912.11 231.28
2 -3 -1 2928.81 230.98
2 -3 -1 2933.71 232.28
2 -3 -1 2996.3 230.28
2 -3 -1 2941.01 229.38
2 -3 -1 2748.32 229.88
1 -3 -1 3603.74 280.87
1 -3 -1 3454.75 281.77
1 -3 -1 3074.09 279.97
1 -3 -1 3718.93 280.57
1 -3 -1 3880.01 281.07
0 -3 -1 1810.92 149.88
0 -3 -1 1929.91 149.88
0 -3 -1 1953.4 148.89
0 -3 -1 1704.33 150.78
0 -3 -1 2054.39 149.19
0 3 1 1725.13 150.98
-1 -3 -1 1031.5 82.29
-1 -3 -1 1043.3 83.99
-1 -3 -1 1084.89 82.09
-1 -3 -1 929.41 84.19
-1 -3 -1 953.9 83.19
-1 -3 -1 1020.9 82.19
-1 -3 -1 997 81.99
-2 -3 -1 889.91 65.79
-2 -3 -1 795.42 68.79
-2 -3 -1 798.12 67.39
-2 -3 -1 843.62 69.29
-2 -3 -1 832.72 66.09
-2 -3 -1 880.11 66.39
2 3 1 706.03 73.49
2 3 1 681.43 63.79
2 3 1 746.53 65.49
2 3 1 705.83 80.19
-3 -3 -1 236.88 21.9
-3 -3 -1 231.68 21.3
-3 -3 -1 202.78 24.2
-3 -3 -1 203.38 20.6
-3 -3 -1 217.98 25.3
-3 -3 -1 194.58 21.1
-3 -3 -1 237.38 23.6
3 3 1 193.88 23.2
-4 -3 -1 193.98 25
-4 -3 -1 201.98 21.4
-4 -3 -1 200.28 20.6
-4 -3 -1 209.18 22
-4 -3 -1 185.58 25
-4 -3 -1 199.38 20.3
4 3 1 224.28 26.3
-5 -3 -1 30.6 7.6
-5 -3 -1 19.7 7.3
-5 -3 -1 40.4 7.2
-5 -3 -1 46.2 10.5
-5 -3 -1 28.6 5.8
-5 -3 -1 34.4 9.6
5 3 1 34.4 8.4
5 3 1 51.49 10.8
5 3 1 57.49 13.2
5 3 1 32.5 11.4
-6 -3 -1 122.79 15.3
-6 -3 -1 117.49 13.5
-6 -3 -1 97.19 16
6 3 1 119.69 14.5
6 3 1 90.29 20.3
6 3 1 125.89 15.6
-7 -3 -1 16.4 4.5
-7 -3 -1 10.1 4.1
7 3 1 13.7 4.3
7 3 1 22.4 10.6
7 3 1 7.2 4.2
10 -4 -1 9.7 3.7
-10 4 1 7.1 2.8
-10 4 1 6.2 2.9
9 -4 -1 25.9 6.9
9 -4 -1 11.7 5.2
9 -4 -1 11.4 4
9 -4 -1 7.3 3.7
-9 4 1 10.6 3.7
-9 4 1 13.1 5.5
8 -4 -1 11.4 3.6
8 -4 -1 14.6 8
8 -4 -1 7.4 6.4
8 -4 -1 11 4.3
8 -4 -1 14.6 5.9
-8 4 1 6 4.4
-8 4 1 13.2 5.4
7 -4 -1 43.9 12.2
7 -4 -1 41.2 8
7 -4 -1 59.59 10.2
7 -4 -1 59.29 11.7
7 -4 -1 59.99 11.7
-7 4 1 63.59 9.5
-7 4 1 52.59 10.9
-7 4 1 51.19 10.5
-7 4 1 65.69 13.5
6 -4 -1 275.47 30.9
6 -4 -1 315.87 30.3
6 -4 -1 279.27 28.6
6 -4 -1 235.68 26.5
-6 4 1 326.67 27.8
-6 4 1 310.37 28.8
-6 4 1 257.97 31.6
5 -4 -1 19.2 5.7
5 -4 -1 16.1 6.5
5 -4 -1 17.8 4.3
5 -4 -1 16.9 4.3
5 -4 -1 18.2 4.5
5 -4 -1 37.8 8.2
5 -4 -1 12.9 5.4
-5 4 1 23.1 6.2
-5 4 1 21.2 9.1
4 -4 -1 2361.06 197.38
4 -4 -1 2357.76 194.48
4 -4 -1 2552.24 195.18
4 -4 -1 2343.37 195.38
4 -4 -1 2257.07 196.08
-4 4 1 2712.43 200.08
3 -4 -1 49.4 7.6
3 -4 -1 42.7 6.1
3 -4 -1 55.49 7
3 -4 -1 46.5 6.4
3 -4 -1 43.7 11
3 -4 -1 43.5 6.9
2 -4 -1 6519.65 523.55
2 -4 -1 6760.02 527.05
2 -4 -1 7534.05 526.35
2 -4 -1 6233.38 524.95
2 -4 -1 6383.36 523.15
2 -4 -1 6543.75 522.75
2 -4 -1 6394.56 523.35
1 -4 -1 69.19 10.9
1 -4 -1 52.49 6.5
1 -4 -1 55.59 6.8
1 -4 -1 52.29 6.4
1 -4 -1 51.59 7.6
1 -4 -1 53.79 6.7
0 -4 -1 4579.94 336.87
0 -4 -1 4452.65 336.67
0 -4 -1 4598.54 336.47
0 -4 -1 4289.37 336.67
0 -4 -1 4381.06 338.17
0 -4 -1 3699.53 337.77
0 4 1 4010 337.87
0 4 1 3901.01 340.67
-1 -4 -1 189.68 18.3
-1 -4 -1 201.98 18.5
-1 -4 -1 161.98 19.2
-1 -4 -1 206.78 18
-1 -4 -1 191.38 18.2
-1 -4 -1 197.88 20.3
1 4 1 138.89 21.8
-2 -4 -1 1365.16 107.09
-2 -4 -1 1321.67 110.59
-2 -4 -1 1272.07 106.19
-2 -4 -1 1465.75 109.19
-2 -4 -1 1360.26 106.19
-2 -4 -1 1334.37 107.09
-2 -4 -1 1274.67 108.79
-2 -4 -1 1153.48 108.29
2 4 1 1081.69 110.09
2 4 1 1326.37 119.49
-3 -4 -1 76.09 10.6
-3 -4 -1 64.59 11.8
-3 -4 -1 65.19 9.4
-3 -4 -1 68.19 9.9
-3 -4 -1 57.29 9.5
-3 -4 -1 64.59 9.1
-3 -4 -1 40.4 13.2
3 4 1 73.89 12.6
3 4 1 111.59 22.3
-4 -4 -1 289.77 27.7
-4 -4 -1 321.47 31.1
-4 -4 -1 243.08 27.7
-4 -4 -1 214.48 30.5
-4 -4 -1 286.17 29
-4 -4 -1 297.87 27.4
4 4 1 331.47 31.3
-5 -4 -1 50.39 10.4
-5 -4 -1 49.5 12.3
5 4 1 65.69 14
5 4 1 55.59 10.8
5 4 1 65.79 10.9
5 4 1 89.59 17.8
-6 -4 -1 22 6.9
-10 5 1 10.3 2.7
-10 5 1 10.3 3.4
9 -5 -1 256.77 24.5
9 -5 -1 303.27 27.7
-9 5 1 235.68 29.3
-9 5 1 266.07 25.3
8 -5 -1 -4.3 2.3
8 -5 -1 12.5 7.5
8 -5 -1 1.3 3.5
8 -5 -1 -4.5 2.5
8 -5 -1 -1.1 3.8
8 -5 -1 0 4.6
-8 5 1 4.7 3.4
-8 5 1 1.4 2.9
-8 5 1 -6.7 4.5
7 -5 -1 877.31 80.29
7 -5 -1 1044.2 79.29
7 -5 -1 1060.89 78.29
7 -5 -1 798.62 75.99
7 -5 -1 820.52 73.89
7 -5 -1 802.82 74.79
-7 5 1 758.62 79.89
6 -5 -1 42.7 10.1
6 -5 -1 54.59 9.6
6 -5 -1 71.49 13.1
6 -5 -1 47.8 8.9
6 -5 -1 72.29 11
-6 5 1 77.49 16.1
5 -5 -1 2925.51 231.28
5 -5 -1 2900.61 234.68
5 -5 -1 2545.35 231.98
5 -5 -1 2827.32 229.68
5 -5 -1 2902.61 232.08
5 -5 -1 2832.12 230.18
5 -5 -1 2557.74 229.38
-5 5 1 3178.18 246.68
-5 5 1 2753.72 236.88
-5 5 1 2701.73 229.08
-5 5 1 3355.36 235.78
4 -5 -1 -0.2 2.4
4 -5 -1 0.1 2.7
4 -5 -1 3.4 4.3
4 -5 -1 -0.6 1.7
4 -5 -1 2.1 2.6
-4 5 1 29.6 13.7
-4 5 1 4.5 3
3 -5 -1 2855.11 234.98
3 -5 -1 3000.3 232.78
3 -5 -1 2918.21 233.98
3 -5 -1 2966.5 232.08
3 -5 -1 2775.02 232.08
2 -5 -1 1515.05 120.09
2 -5 -1 1591.64 119.79
2 -5 -1 1406.96 121.99
2 -5 -1 1452.65 119.89
2 -5 -1 1412.96 118.99
1 -5 -1 1180.18 97.29
1 -5 -1 1276.57 98.09
1 -5 -1 1205.48 97.89
1 -5 -1 1326.37 97.69
1 -5 -1 1054.29 99.29
-1 5 1 1112.49 100.89
0 -5 -1 868.11 90.39
0 -5 -1 1041.8 88.09
0 -5 -1 1094.39 85.79
0 -5 -1 1010.7 88.19
0 -5 -1 1032 85.49
0 -5 -1 1075.89 88.09
0 -5 -1 1121.59 86.09
0 5 1 931.41 86.39
0 5 1 1130.29 94.89
-1 -5 -1 1006.4 76.09
-1 -5 -1 950.1 76.79
-1 -5 -1 944.71 77.09
-1 -5 -1 904.31 78.59
-1 -5 -1 936.51 76.39
-1 -5 -1 900.31 75.79
-1 -5 -1 803.72 84.79
1 5 1 782.12 78.39
-2 -5 -1 848.42 81.39
-2 -5 -1 823.92 76.69
-2 -5 -1 933.61 77.59
-2 -5 -1 946.91 77.09
-2 -5 -1 1051.39 76.89
2 5 1 759.02 79.19
2 5 1 988.9 107.29
-3 -5 -1 0.3 2.6
-3 -5 -1 13.4 4.3
-3 -5 -1 1.3 9
-3 -5 -1 9.9 5.1
-3 -5 -1 6.9 4.9
-3 -5 -1 2 4.2
-3 -5 -1 5.2 3.5
3 5 1 7.4 12.6
3 5 1 -1.6 5.8
3 5 1 -11.9 9.2
3 5 1 6.2 4.9
-4 -5 -1 270.07 24.4
-4 -5 -1 262.67 27.6
-4 -5 -1 198.68 27.4
-4 -5 -1 206.48 23.2
4 5 1 307.07 28.4
-5 -5 -1 24.4 4.8
-5 -5 -1 19.2 6.1
-5 -5 -1 24.2 8.1
5 5 1 31.6 8.5
5 5 1 34.2 7
-6 -5 -1 47.8 7.8
6 5 1 39.2 7.8
9 -6 -1 -2.1 2
9 -6 -1 -2.8 2
9 -6 -1 10.3 4.8
-9 6 1 -0.5 2
-9 6 1 -0.3 4.2
-9 6 1 2.1 3.1
8 -6 -1 202.68 32.6
8 -6 -1 272.07 24.8
8 -6 -1 266.97 27.8
8 -6 -1 235.78 25.2
-8 6 1 227.98 34.2
-8 6 1 265.07 28.7
-8 6 1 296.47 25.7
7 -6 -1 149.59 19.2
7 -6 -1 168.28 21.2
7 -6 -1 180.28 22.6
7 -6 -1 171.38 21.3
7 -6 -1 171.58 20
7 -6 -1 224.98 30.2
-7 6 1 222.08 27.8
-7 6 1 147.39 30.2
-7 6 1 211.68 20.2
-7 6 1 198.38 29.7
6 -6 -1 1930.51 164.98
6 -6 -1 1900.51 167.88
6 -6 -1 1907.51 165.78
6 -6 -1 2121.19 168.48
6 -6 -1 1985.3 167.28
-6 6 1 2189.08 181.48
-6 6 1 2093.09 179.88
-6 6 1 2129.59 169.68
5 -6 -1 2545.15 210.28
5 -6 -1 2302.47 211.18
5 -6 -1 2390.06 208.98
5 -6 -1 2723.53 212.58
5 -6 -1 2580.44 209.18
-5 6 1 2751.32 217.18
-5 6 1 2854.51 222.68
4 -6 -1 2069.69 177.28
4 -6 -1 2261.37 174.88
4 -6 -1 2029.2 174.08
4 -6 -1 2281.57 177.18
4 -6 -1 2242.38 174.58
4 -6 -1 2167.48 175.28
-4 6 1 2026.5 173.78
3 -6 -1 2704.73 236.88
3 -6 -1 2926.51 237.48
3 -6 -1 2900.41 236.98
3 -6 -1 3088.09 240.68
3 -6 -1 2821.52 241.08
3 -6 -1 2985.9 238.18
3 -6 -1 3080.29 239.78
-3 6 1 3149.68 237.48
2 -6 -1 1309.17 116.59
2 -6 -1 1483.75 116.89
2 -6 -1 1418.36 119.89
2 -6 -1 1442.86 117.49
2 -6 -1 1313.77 120.29
2 -6 -1 1356.06 118.79
2 -6 -1 1555.54 118.89
2 -6 -1 1470.75 116.79
-2 6 1 1506.45 117.69
1 -6 -1 4140.19 323.97
1 -6 -1 4010.6 324.37
1 -6 -1 3998.5 324.37
1 -6 -1 3599.54 327.07
1 -6 -1 3923.61 326.57
1 -6 -1 3925.41 323.67
1 -6 -1 4390.26 323.97
-1 6 1 4469.75 325.97
0 -6 -1 117.79 14.2
0 -6 -1 117.19 14.1
0 -6 -1 111.69 14.3
0 -6 -1 118.19 16.6
0 -6 -1 133.29 14.2
0 -6 -1 114.99 14.4
0 6 1 126.79 16.9
0 6 1 120.29 24.2
-1 -6 -1 2842.72 228.28
-1 -6 -1 2374.96 223.18
-1 -6 -1 2974 219.58
1 6 1 2473.75 219.28
-2 -6 -1 18.9 5.1
-2 -6 -1 26.6 6.3
-2 -6 -1 28.4 8.5
-2 -6 -1 10 6.1
-2 -6 -1 27.3 6.2
-2 -6 -1 25.4 7.4
2 6 1 18.6 7.6
2 6 1 33.3 11
-3 -6 -1 608.44 52.09
-3 -6 -1 466.35 47.9
-3 -6 -1 653.53 48.7
-3 -6 -1 469.05 48.7
-4 -6 -1 -2 2.9
-4 -6 -1 1.4 3.4
-4 -6 -1 1.7 2.8
4 6 1 -0.3 2.9
4 6 1 -1.5 4.1
-5 -6 -1 106.99 12.4
9 -7 -1 32.7 6.2
9 -7 -1 32.7 6.1
-9 7 1 43.9 6.1
8 -7 -1 10.8 4.2
8 -7 -1 3.4 3.4
8 -7 -1 6.2 4
8 -7 -1 -3 3.8
-8 7 1 5.4 3.2
-8 7 1 3.6 8.5
-8 7 1 5.7 4.1
-8 7 1 9.4 5.1
7 -7 -1 29.7 7.3
7 -7 -1 49.5 11.1
7 -7 -1 46.3 8.9
7 -7 -1 47.1 9
-7 7 1 44.1 13.5
-7 7 1 51.89 9.3
-7 7 1 48.4 7.6
6 -7 -1 0.4 3.5
6 -7 -1 -8.4 8.3
6 -7 -1 0.3 4.3
6 -7 -1 5.8 3.5
6 -7 -1 2.3 3.6
6 -7 -1 1.4 4
-6 7 1 1.7 4.1
-6 7 1 2.2 3.1
-6 7 1 2.1 4.4
-6 7 1 1 7.1
-6 7 1 -8.8 6.8
-6 7 1 0.3 4.4
5 -7 -1 78.99 10.6
5 -7 -1 62.39 10
5 -7 -1 56.49 11.9
5 -7 -1 71.19 11.6
5 -7 -1 55.99 9.8
5 -7 -1 71.79 11
-5 7 1 87.49 14.5
-5 7 1 40.1 15.7
-5 7 1 76.99 10.4
-5 7 1 55.29 20.5
4 -7 -1 138.39 20.2
4 -7 -1 174.78 19.2
4 -7 -1 180.48 20.6
4 -7 -1 175.08 18.1
4 -7 -1 162.98 20.4
-4 7 1 175.58 18.4
3 -7 -1 172.18 22.2
3 -7 -1 190.68 21.1
3 -7 -1 205.68 20.9
3 -7 -1 197.88 21.4
3 -7 -1 209.28 23.1
3 -7 -1 191.78 20.5
-3 7 1 229.38 21.7
-3 7 1 223.48 37.3
2 -7 -1 430.16 38
2 -7 -1 396.46 40
2 -7 -1 379.56 39.7
2 -7 -1 418.96 38
2 -7 -1 433.16 39.3
2 -7 -1 395.26 37.6
2 -7 -1 409.46 38.6
-2 7 1 462.15 39.2
1 -7 -1 1.4 4.4
1 -7 -1 5.8 3.2
1 -7 -1 -3.1 2.6
1 -7 -1 3.4 6.1
1 -7 -1 -0.3 1.9
1 -7 -1 1.1 2
-1 7 1 7.4 6.9
-1 7 1 -2 2.9
-1 7 1 6.8 6.9
0 -7 -1 2 2.4
0 -7 -1 9.4 4
0 -7 -1 -4.4 3.3
0 -7 -1 -1.8 1.9
0 -7 -1 -1.4 3.9
0 7 1 3.9 3.9
0 7 1 4.6 8.5
0 7 1 3 6.9
-1 -7 -1 6.6 4.8
-1 -7 -1 7.5 3.8
-1 -7 -1 -1.7 4.9
1 7 1 2.6 9.8
1 7 1 4 6.1
1 7 1 4.1 5.1
-2 -7 -1 19.7 6.9
-2 -7 -1 33.3 6.7
2 7 1 63.29 17.8
2 7 1 46.7 9.5
-3 -7 -1 9.6 3.2
-3 -7 -1 2.9 3.6
-3 -7 -1 4.5 2.7
3 7 1 11.4 4.3
3 7 1 2.1 5.5
-4 -7 -1 5.8 3.4
4 7 1 12.8 2.7
4 7 1 11 4
9 -8 -1 -1.1 1.3
9 -8 -1 -0.4 2.2
-9 8 1 0.4 1.6
8 -8 -1 82.79 14
8 -8 -1 84.69 10.5
-8 8 1 61.19 10.2
-8 8 1 100.09 14.1
7 -8 -1 19.8 5.5
7 -8 -1 16 5.2
7 -8 -1 20.5 5.5
7 -8 -1 10.4 4.6
-7 8 1 13.5 4.6
-7 8 1 22.4 5.1
-7 8 1 20.2 9
6 -8 -1 129.29 16
6 -8 -1 116.59 15.8
6 -8 -1 98.99 15.5
6 -8 -1 140.89 17.4
6 -8 -1 130.09 14.7
-6 8 1 144.59 18.8
5 -8 -1 4.6 3.6
5 -8 -1 1.7 4.5
5 -8 -1 3.8 4.8
5 -8 -1 6.8 3.7
5 -8 -1 3.1 3.4
-5 8 1 4.9 5
-5 8 1 9.3 6.2
-5 8 1 26.8 15.7
-5 8 1 -1.7 5
-5 8 1 14.9 4.8
4 -8 -1 489.15 48
4 -8 -1 466.45 45.2
4 -8 -1 511.55 44.7
4 -8 -1 504.55 47.1
3 -8 -1 64.49 9.5
3 -8 -1 57.49 11.1
3 -8 -1 58.39 9.3
3 -8 -1 41.8 12.3
3 -8 -1 60.29 9.1
3 -8 -1 53.79 10.7
-3 8 1 35.3 16.3
-3 8 1 54.59 14.9
-3 8 1 47.7 14.8
-3 8 1 68.99 10.8
-3 8 1 54.59 22.4
2 -8 -1 263.37 25.6
2 -8 -1 260.57 26.6
2 -8 -1 267.07 29.9
2 -8 -1 280.27 33.2
-2 8 1 193.68 50.69
1 -8 -1 1.9 2
1 -8 -1 4.2 4.7
1 -8 -1 2 5.3
1 -8 -1 -3.5 4.8
1 -8 -1 6.2 3.9
1 -8 -1 5 3.4
-1 8 1 1.5 6.6
-1 8 1 9.1 7.6
-1 8 1 -0.6 3.8
0 -8 -1 6.4 4
0 -8 -1 12.8 5.9
0 -8 -1 9.1 4.3
0 -8 -1 6 3.9
0 -8 -1 13.4 6
0 8 1 12.8 10.3
0 8 1 18.2 8.3
0 8 1 3.6 5.3
-1 -8 -1 2.7 2.9
-1 -8 -1 -0.6 1.9
-1 -8 -1 4.7 4.2
-1 -8 -1 -1.3 2.9
1 8 1 4.4 4.7
1 8 1 4.7 8.7
1 8 1 2.2 4.9
-2 -8 -1 -1.9 1.9
-2 -8 -1 -0.3 2.9
-2 -8 -1 2.6 2.2
2 8 1 -2.8 2.6
2 8 1 1.2 4.6
8 -9 -1 14.9 3.5
8 -9 -1 6.1 2.8
-8 9 1 1.8 3
7 -9 -1 12.9 4.9
7 -9 -1 10 4.1
7 -9 -1 16.2 4.3
7 -9 -1 11.9 3.5
-7 9 1 20.2 5.8
-7 9 1 17.4 7.2
6 -9 -1 19.8 6.1
6 -9 -1 18.7 5
6 -9 -1 11.7 5
6 -9 -1 16.3 4.7
-6 9 1 9.9 7.2
-6 9 1 10.1 8.5
-6 9 1 27.9 7.9
5 -9 -1 4.9 2.8
5 -9 -1 4.6 3.4
5 -9 -1 8.7 4
5 -9 -1 1.8 6.8
5 -9 -1 12.8 7.9
-5 9 1 7.4 6.3
-5 9 1 9.4 5.9
-5 9 1 6.1 5.1
-5 9 1 3.9 5.5
4 -9 -1 67.69 12.2
4 -9 -1 58.69 12.1
4 -9 -1 85.89 10.6
4 -9 -1 83.99 10.5
-4 9 1 88.79 17.1
-4 9 1 100.19 22.4
-4 9 1 88.89 14.2
3 -9 -1 3.5 4.1
3 -9 -1 1.6 4.3
3 -9 -1 3.1 2.6
3 -9 -1 2 3
3 -9 -1 -0.2 8.7
-3 9 1 -7 4.2
-3 9 1 5.2 7.3
-3 9 1 3.8 6.2
2 -9 -1 125.09 16.6
2 -9 -1 141.39 19.6
2 -9 -1 136.09 19.9
2 -9 -1 153.08 16.3
2 -9 -1 145.39 16.2
-2 9 1 195.38 30.9
-2 9 1 184.98 24.6
-2 9 1 149.79 20.9
1 -9 -1 4 4.7
1 -9 -1 2.3 2.7
1 -9 -1 1.9 4.3
-1 9 1 -0.2 5.3
-1 9 1 2.6 6.1
-1 9 1 15.5 5.9
-1 9 1 1.3 5
0 -9 -1 151.28 18
0 -9 -1 143.09 14.9
0 -9 -1 154.38 15.3
0 9 1 148.99 19.3
-1 -9 -1 8.4 3.4
-1 -9 -1 0.2 1.7
1 9 1 0.4 2.5
6 -10 -1 52.09 7.3
6 -10 -1 47.2 8.3
5 -10 -1 3.7 3.4
5 -10 -1 4.3 2.7
5 -10 -1 10.7 3
-5 10 1 1 3.9
-5 10 1 4.1 4.8
-5 10 1 0.4 4.7
4 -10 -1 80.29 9.2
-4 10 1 57.39 13.7
-4 10 1 74.09 17.2
3 -10 -1 6.2 2.8
3 -10 -1 6.8 4.5
3 -10 -1 7.5 3.2
-3 10 1 3.8 5.1
-3 10 1 1.5 5
2 -10 -1 74.49 8.9
2 -10 -1 89.59 11.7
0 -10 2 0.4 2.6
0 -10 2 -0.7 2
-1 10 -2 209.28 23.6
-1 10 -2 172.98 25.6
1 -10 2 163.88 17.4
1 -10 2 160.18 17.5
-2 10 -2 0.3 4.9
-2 10 -2 8 5
-2 10 -2 -3.5 5.6
2 -10 2 3.4 3.4
2 -10 2 -0.4 2.7
2 -10 2 -2.1 2.8
3 -10 2 207.08 21.6
3 -10 2 239.28 22.2
3 -10 2 219.28 23
-4 10 -2 5.7 4.2
-4 10 -2 7.1 5.7
-4 10 -2 1.7 3.6
4 -10 2 5.9 2.8
4 -10 2 3.8 3.6
4 -10 2 3.5 2.8
-5 10 -2 77.79 14.2
5 -10 2 106.89 12.8
5 -10 2 97.19 11.3
5 -10 2 105.09 12.5
-6 10 -2 2.9 3.2
-6 10 -2 6.3 4.8
-6 10 -2 -2 4.1
6 -10 2 3.7 2.1
6 -10 2 -0.9 1.6
6 -10 2 -3 4.8
-7 10 -2 37.7 10.1
7 -10 2 24.2 4
-2 -9 2 78.99 13.7
-2 -9 2 81.89 9.6
1 9 -2 4.3 5.5
-1 -9 2 -1.4 2.3
-1 -9 2 4.3 9.7
-1 -9 2 0.3 2.1
0 9 -2 320.77 33.7
0 -9 2 291.77 27.7
0 -9 2 258.97 27.2
-1 9 -2 10.1 8.6
-1 9 -2 35.1 11.3
-1 9 -2 12.6 6.8
1 -9 2 -0.1 9.9
1 -9 2 16.4 4.6
1 -9 2 16.8 5.5
1 -9 2 17.5 7.8
1 -9 2 20 5.1
-2 9 -2 287.17 39.1
2 -9 2 207.38 22.5
2 -9 2 220.48 26.5
2 -9 2 228.88 23.7
2 -9 2 197.68 25.3
-3 9 -2 138.19 16.9
-3 9 -2 149.49 23
-3 9 -2 77.99 22.2
3 -9 2 112.69 13.5
3 -9 2 87.69 12.9
3 -9 2 99.89 12.8
3 -9 2 128.89 16.5
-4 9 -2 156.78 28.7
-4 9 -2 120.19 18.1
-4 9 -2 122.49 21.8
4 -9 2 111.79 16.1
4 -9 2 120.29 13.9
4 -9 2 88.69 14.3
-5 9 -2 60.59 11.7
-5 9 -2 36.6 11.5
5 -9 2 65.99 9.4
5 -9 2 101.19 20.7
-6 9 -2 147.89 25.7
6 -9 2 183.08 18.4
6 -9 2 184.98 19
6 -9 2 185.98 19.9
-7 9 -2 71.99 19.8
7 -9 2 60.89 9.1
7 -9 2 64.39 8.2
7 -9 2 51.19 7.7
7 -9 2 50.59 11.5
-8 9 -2 11.3 4.8
-8 9 -2 13.6 4.8
8 -9 2 17.3 3.4
8 -9 2 14.3 3.5
3 8 -2 18.2 6.4
-3 -8 2 4.7 2.1
-3 -8 2 10.2 2.8
-3 -8 2 10.1 6.1
-2 -8 2 83.79 11.1
-2 -8 2 120.09 13.3
-2 -8 2 96.29 15
-1 -8 2 98.99 11.6
-1 -8 2 65.39 13.8
-1 -8 2 62.69 10
-1 -8 2 76.49 11.5
0 8 -2 473.55 71.69
0 8 -2 672.03 66.19
0 8 -2 646.94 55.39
0 -8 2 590.04 55.19
0 -8 2 691.03 54.79
0 -8 2 502.45 53.09
0 -8 2 605.54 53.09
-1 8 -2 10.1 6
-1 8 -2 55.19 17.3
-1 8 -2 6.4 6
-1 8 -2 2.5 5.8
-1 8 -2 13.7 11.4
1 -8 2 0.3 6.6
1 -8 2 16 5.6
1 -8 2 13 4.5
1 -8 2 9.7 4.4
1 -8 2 12.5 4
-2 8 -2 161.48 24.6
-2 8 -2 143.99 27.8
-2 8 -2 158.68 20.3
2 -8 2 194.08 19
2 -8 2 154.28 18.6
2 -8 2 164.18 18.5
2 -8 2 164.98 17.5
-3 8 -2 6.2 5
-3 8 -2 14.8 7.4
-3 8 -2 26 7.8
-3 8 -2 11.9 7.1
-3 8 -2 22.5 10.9
3 -8 2 12.3 5.5
3 -8 2 14.5 4.1
3 -8 2 13.7 4.5
3 -8 2 6.5 4.6
3 -8 2 12.6 5.1
-4 8 -2 194.58 28.8
-4 8 -2 290.77 34.5
-4 8 -2 303.27 39.5
4 -8 2 247.38 24.8
4 -8 2 230.48 24.3
4 -8 2 192.58 23.9
4 -8 2 274.37 27.2
4 -8 2 235.38 24
-5 8 -2 1.9 4.5
-5 8 -2 0.1 4.8
-5 8 -2 -5 5.9
-5 8 -2 2.5 8
-5 8 -2 4.1 6.2
-5 8 -2 5.5 5.8
5 -8 2 4.3 3.4
5 -8 2 8.6 4.6
5 -8 2 14 5.9
5 -8 2 12.4 6.1
-6 8 -2 122.99 23.8
-6 8 -2 154.28 21.2
6 -8 2 135.69 15.6
6 -8 2 117.59 15.1
6 -8 2 158.48 31.8
6 -8 2 135.19 16.4
6 -8 2 114.09 16.1
6 -8 2 124.39 16.7
-7 8 -2 3.3 6.5
-7 8 -2 16.4 5.5
-7 8 -2 9.3 6.5
-7 8 -2 12.2 5.7
7 -8 2 8 3.9
7 -8 2 4.1 2.7
7 -8 2 10.8 4.2
7 -8 2 7 5
-8 8 -2 4.2 3.4
-8 8 -2 1.4 3.3
-8 8 -2 8 7.1
8 -8 2 7.6 2.9
8 -8 2 1.8 2.4
8 -8 2 3.2 3
8 -8 2 1.2 3.5
-9 8 -2 51.89 8.7
9 -8 2 59.39 7.9
9 -8 2 57.59 7.7
4 7 -2 174.58 19.5
4 7 -2 154.08 13.7
-4 -7 2 102.39 14.6
-4 -7 2 120.99 13.1
3 7 -2 23.2 12.4
3 7 -2 8.5 6.9
3 7 -2 2 4.8
-3 -7 2 8 3
-3 -7 2 0.8 3.9
-3 -7 2 0.6 3.3
-3 -7 2 14.4 4.3
-2 -7 2 1108.19 84.69
-2 -7 2 935.01 87.69
-2 -7 2 923.81 85.59
-2 -7 2 1031.7 84.19
-2 -7 2 986 86.89
1 7 -2 156.48 31.2
1 7 -2 152.78 29.4
-1 -7 2 123.69 18.9
-1 -7 2 165.28 17.1
-1 -7 2 119.49 16.1
-1 -7 2 140.89 17.3
-1 -7 2 163.28 16.4
-1 -7 2 134.89 17.4
0 7 -2 1912.41 147.29
0 7 -2 1805.22 153.78
0 -7 2 1777.72 142.19
0 -7 2 1746.63 142.99
0 -7 2 1642.54 142.69
0 -7 2 1586.64 142.09
-1 7 -2 338.17 41.6
-1 7 -2 209.08 34.9
-1 7 -2 205.08 23.7
-1 7 -2 238.98 28.9
-1 7 -2 256.37 30.5
-1 7 -2 245.08 27.2
1 -7 2 260.37 24.7
1 -7 2 251.67 25.1
1 -7 2 252.37 23.7
1 -7 2 263.47 24.5
1 -7 2 252.07 24
-2 7 -2 514.85 47.3
-2 7 -2 416.26 41.4
-2 7 -2 400.16 48.5
-2 7 -2 452.15 47.1
2 -7 2 527.35 43.4
2 -7 2 509.05 42.6
2 -7 2 533.45 42.2
-3 7 -2 331.77 38.6
-3 7 -2 274.27 38.2
-3 7 -2 340.67 37.4
3 -7 2 397.56 35.3
3 -7 2 370.46 31.8
3 -7 2 351.66 32.2
3 -7 2 353.86 32.3
-4 7 -2 50.49 14.5
-4 7 -2 78.79 12.9
-4 7 -2 53.59 9.2
-4 7 -2 53.89 12.5
-4 7 -2 45.9 12.8
-4 7 -2 50.69 12.6
4 -7 2 47.9 8.2
4 -7 2 43.1 14.8
4 -7 2 61.29 9.1
4 -7 2 54.29 8.9
-5 7 -2 1127.49 104.09
-5 7 -2 1340.87 102.09
-5 7 -2 1114.99 116.69
-5 7 -2 1182.88 110.79
-5 7 -2 1310.97 107.69
-5 7 -2 1046.4 99.99
5 -7 2 1017.9 97.19
5 -7 2 1146.59 103.09
5 -7 2 1161.88 100.19
5 -7 2 1260.97 99.49
-6 7 -2 107.79 18.7
-6 7 -2 87.29 12.6
-6 7 -2 89.09 19.4
-6 7 -2 109.79 16.5
-6 7 -2 102.39 21
6 -7 2 78.99 14.1
6 -7 2 91.29 13.9
6 -7 2 71.19 11.7
6 -7 2 65.89 12
6 -7 2 54.99 12
-7 7 -2 86.09 12.3
-7 7 -2 66.59 19.8
-7 7 -2 99.09 14.4
7 -7 2 77.29 11.7
7 -7 2 69.59 10.8
7 -7 2 61.29 12
-8 7 -2 7.6 4.7
-8 7 -2 10.4 5.8
-8 7 -2 4.1 6.4
-8 7 -2 6.7 4.4
8 -7 2 4.5 6.1
8 -7 2 1.7 3.2
8 -7 2 2.9 3
8 -7 2 5.3 3.1
-9 7 -2 1.8 3.7
-9 7 -2 2.3 2.5
9 -7 2 1 2
9 -7 2 -5.4 2.8
9 -7 2 -0.2 1.8
5 6 -2 263.97 28.3
-5 -6 2 256.87 26.1
-5 -6 2 283.57 24.1
-4 -6 2 90.09 11.5
-4 -6 2 96.99 14.3
-4 -6 2 116.19 12.7
-3 -6 2 500.75 43
-3 -6 2 487.35 46.4
-3 -6 2 471.35 42.8
-3 -6 2 439.36 44
-3 -6 2 480.05 44.5
2 6 -2 671.63 58.69
2 6 -2 521.45 57.09
-2 -6 2 578.04 52.89
-2 -6 2 626.74 52.59
-2 -6 2 587.54 54.59
-2 -6 2 585.44 55.69
-2 -6 2 632.44 53.29
-2 -6 2 578.14 53.39
1 6 -2 246.88 38.6
1 6 -2 294.27 29.7
1 6 -2 237.98 29.7
-1 -6 2 230.48 26.6
-1 -6 2 267.57 23.8
-1 -6 2 227.38 23.7
-1 -6 2 242.08 24
-1 -6 2 224.88 24.7
-1 -6 2 237.98 24.3
0 6 -2 1561.64 143.29
0 6 -2 1395.86 134.49
0 6 -2 1489.45 145.99
0 -6 2 1830.92 134.09
0 -6 2 1488.45 137.99
0 -6 2 1854.31 137.09
0 -6 2 1718.93 134.89
0 -6 2 1761.32 134.99
-1 6 -2 303.47 37
-1 6 -2 420.16 41.2
-1 6 -2 327.27 34.5
1 -6 2 397.76 31.2
1 -6 2 351.36 32.3
1 -6 2 359.56 31.2
1 -6 2 343.47 32.5
1 -6 2 295.17 34.1
1 -6 2 381.76 31.4
-2 6 -2 4579.94 331.67
-2 6 -2 4012.9 324.57
-2 6 -2 3573.54 331.97
-2 6 -2 4215.38 324.47
2 -6 2 3962.6 318.17
2 -6 2 3886.01 318.97
2 -6 2 4048.09 317.97
2 -6 2 3754.92 317.27
2 -6 2 4030.1 322.47
-3 6 -2 18.1 6
-3 6 -2 20.4 7.9
-3 6 -2 9.5 5.7
-3 6 -2 8.7 6.2
-3 6 -2 8.7 6
3 -6 2 13.1 6.2
3 -6 2 8.4 3.6
3 -6 2 16 4.2
3 -6 2 13.4 4.9
3 -6 2 8.8 3.2
-4 6 -2 3148.78 270.37
-4 6 -2 3129.79 264.07
-4 6 -2 3102.39 267.57
-4 6 -2 3522.15 266.77
-4 6 -2 3321.57 264.57
-4 6 -2 3088.09 267.87
4 -6 2 3096.89 258.27
4 -6 2 3062.59 264.07
4 -6 2 3285.77 263.37
4 -6 2 3512.65 259.67
4 -6 2 3267.17 261.17
-5 6 -2 108.29 18.7
-5 6 -2 74.99 14
-5 6 -2 97.79 13.3
-5 6 -2 77.79 11.1
-5 6 -2 79.09 14.5
-5 6 -2 81.79 17.7
-5 6 -2 93.89 14.3
-5 6 -2 72.89 15.2
5 -6 2 92.59 13.1
5 -6 2 91.19 20.4
5 -6 2 89.19 13.7
5 -6 2 75.89 11.7
5 -6 2 90.69 13.6
5 -6 2 97.19 12.3
5 -6 2 74.59 11.1
-6 6 -2 1201.78 90.09
-6 6 -2 998.3 100.49
-6 6 -2 1224.18 118.39
-6 6 -2 1168.48 94.99
6 -6 2 956.4 90.29
6 -6 2 1018.1 88.99
6 -6 2 988.5 90.69
6 -6 2 981 97.89
-7 6 -2 90.89 17.1
-7 6 -2 89.39 18.8
7 -6 2 106.29 13
7 -6 2 85.69 12.9
7 -6 2 103.99 14.2
7 -6 2 96.19 13.6
7 -6 2 102.19 18.3
-8 6 -2 315.17 41.7
-8 6 -2 275.27 32.2
8 -6 2 367.36 31.3
8 -6 2 330.37 33.1
8 -6 2 357.56 32.4
8 -6 2 323.87 37.1
8 -6 2 368.26 33.4
-9 6 -2 123.89 13.3
-9 6 -2 111.79 17.7
9 -6 2 120.89 15.6
9 -6 2 167.48 14.5
9 -6 2 141.09 15.4
9 -6 2 157.78 15.8
6 5 -2 56.99 10.2
6 5 -2 69.99 8.7
-6 -5 2 55.39 8.7
-6 -5 2 50.89 6.4
5 5 -2 17 7.4
5 5 -2 12.8 5.1
-5 -5 2 13.7 3.8
-5 -5 2 6.8 4.2
-5 -5 2 11.5 3.4
-4 -5 2 131.99 17.1
-4 -5 2 101.59 13.9
-4 -5 2 136.89 16.4
-4 -5 2 104.39 15
-4 -5 2 134.49 14.9
-4 -5 2 148.69 16.2
3 5 -2 7.1 13.4
3 5 -2 4.7 4.9
-3 -5 2 1.1 2.5
-3 -5 2 3.3 2.6
-3 -5 2 -3.6 4
-3 -5 2 2.7 2.9
-3 -5 2 3.3 2.5
2 5 -2 153.18 31.5
-2 -5 2 162.88 17.8
-2 -5 2 170.38 17.6
-2 -5 2 126.09 20.5
-2 -5 2 200.98 20.2
-2 -5 2 169.98 16.9
-2 -5 2 157.78 20.9
-2 -5 2 172.88 17.6
1 5 -2 300.77 32.1
1 5 -2 395.06 47
-1 -5 2 371.66 32.5
-1 -5 2 349.96 36.7
-1 -5 2 387.26 33.1
-1 -5 2 404.86 32.4
-1 -5 2 375.16 35.4
0 5 -2 44.6 7.5
0 -5 2 58.09 7.1
0 -5 2 44.9 8.4
0 -5 2 54.39 8
0 -5 2 66.49 7.4
-1 5 -2 566.64 55.09
1 -5 2 588.54 55.09
1 -5 2 631.64 52.99
1 -5 2 645.04 52.09
1 -5 2 647.94 52.89
1 -5 2 690.73 51.99
-2 5 -2 396.26 40
2 -5 2 426.16 36.3
2 -5 2 398.46 34.9
2 -5 2 420.36 35.4
2 -5 2 482.15 39
-3 5 -2 134.49 18.6
-3 5 -2 128.59 13.8
3 -5 2 148.79 14.1
3 -5 2 143.19 16.2
3 -5 2 145.19 14.5
3 -5 2 151.18 15.8
-4 5 -2 688.53 66.59
-4 5 -2 861.41 74.99
-4 5 -2 780.22 69.39
-4 5 -2 762.62 72.89
4 -5 2 820.12 66.09
4 -5 2 811.12 68.49
4 -5 2 743.23 64.69
4 -5 2 772.72 66.99
4 -5 2 835.02 65.89
-5 5 -2 55.69 9.7
-5 5 -2 44.1 7.8
-5 5 -2 52.49 11.8
-5 5 -2 59.79 15
-5 5 -2 62.79 11.5
-5 5 -2 69.89 10.7
-5 5 -2 45.6 12.2
5 -5 2 35.2 7.7
5 -5 2 53.39 8
5 -5 2 50.99 10.8
5 -5 2 33.8 9
5 -5 2 43.7 7.9
-6 5 -2 547.95 63.19
-6 5 -2 592.84 52.29
-6 5 -2 528.35 50.79
6 -5 2 474.45 43.6
6 -5 2 455.75 48.2
6 -5 2 437.56 44.4
6 -5 2 527.35 44.4
6 -5 2 442.26 44.9
6 -5 2 440.36 43.6
-7 5 -2 69.79 14.3
-7 5 -2 115.29 22.6
-7 5 -2 110.39 24.5
7 -5 2 83.99 16.8
7 -5 2 88.79 12.9
7 -5 2 73.49 11.8
7 -5 2 99.09 11.9
7 -5 2 99.79 13.6
-8 5 -2 135.09 17.1
-8 5 -2 148.59 24.4
8 -5 2 139.59 17.5
8 -5 2 145.39 21.5
8 -5 2 149.59 15.8
8 -5 2 151.48 16.6
8 -5 2 131.19 16.8
-9 5 -2 25.3 9.6
-9 5 -2 37.6 6.6
9 -5 2 29 5.8
9 -5 2 34 7.5
7 4 -2 37.6 6.2
7 4 -2 37.8 10.3
6 4 -2 7.8 7.8
6 4 -2 7.2 3.6
6 4 -2 2.9 3.7
-6 -4 2 0.7 1.9
-6 -4 2 -0.1 2
-6 -4 2 2.4 3.5
-6 -4 2 5.6 4.8
5 4 -2 37.6 9.2
5 4 -2 49.1 18.2
-5 -4 2 24.9 6.2
-5 -4 2 17.8 5.2
-5 -4 2 33.9 8.4
-5 -4 2 26.6 7.4
-5 -4 2 21.6 5.4
4 4 -2 16.7 7.2
-4 -4 2 3.5 3
-4 -4 2 4.8 4.9
-4 -4 2 3.5 3.3
-4 -4 2 4.2 3.5
-4 -4 2 4.3 3.3
3 4 -2 22.4 8
3 4 -2 9.4 9.1
-3 -4 2 16 4.3
-3 -4 2 25.2 5.8
-3 -4 2 20.1 8.3
-3 -4 2 17.6 5
-3 -4 2 30.6 7.1
-3 -4 2 14.4 5
-2 -4 2 500.75 48
-2 -4 2 541.35 44.8
-2 -4 2 523.65 45.1
-2 -4 2 535.75 45.7
1 4 -2 0.7 1.6
-1 -4 2 2.6 1.6
-1 -4 2 1.9 1.7
-1 -4 2 1.6 2.3
0 4 -2 3203.98 254.97
0 4 -2 3540.25 258.57
0 -4 2 3145.39 254.47
0 -4 2 3076.89 252.47
0 -4 2 3148.78 253.17
0 -4 2 3042.6 255.47
-1 4 -2 458.95 40.2
1 -4 2 445.26 37.4
1 -4 2 425.86 36.8
1 -4 2 461.15 39.3
-2 4 -2 5668.13 431.76
-2 4 -2 5665.03 427.16
2 -4 2 4884.31 428.06
2 -4 2 5274.67 427.36
2 -4 2 5552.64 429.26
-3 4 -2 2 2.4
-3 4 -2 2.1 2.5
3 -4 2 3.4 2.4
3 -4 2 1.6 2.3
3 -4 2 4.3 1.9
3 -4 2 3.4 1.7
-4 4 -2 1875.21 154.08
4 -4 2 1802.92 147.59
4 -4 2 1572.34 145.79
4 -4 2 1897.31 147.99
4 -4 2 1961.1 149.59
4 -4 2 1896.11 148.49
-5 4 -2 337.47 29.1
5 -4 2 292.97 31.5
5 -4 2 289.27 28.6
5 -4 2 276.27 33.4
5 -4 2 329.87 28.8
5 -4 2 293.77 29.4
-6 4 -2 77.99 23.3
-6 4 -2 143.19 15.9
6 -4 2 115.69 17.2
6 -4 2 120.39 14.5
6 -4 2 105.89 15.8
6 -4 2 94.69 12.8
6 -4 2 134.19 13.9
-7 4 -2 287.87 37
-7 4 -2 201.98 23.6
7 -4 2 188.78 21.8
7 -4 2 229.08 24.2
7 -4 2 192.08 26.1
7 -4 2 238.58 23.9
7 -4 2 214.18 27.1
7 -4 2 197.28 21.2
-8 4 -2 6.9 7.6
-8 4 -2 -1.4 4.9
-8 4 -2 0.6 2.5
8 -4 2 -1 2.7
8 -4 2 -2.8 2.7
8 -4 2 2.5 3.2
8 -4 2 -2 5
8 -4 2 0.8 3.2
9 -4 2 117.69 15.1
9 -4 2 117.79 12.7
9 -4 2 132.49 19.7
7 3 -2 63.09 9.4
-7 -3 2 65.29 9.5
-7 -3 2 43.3 6.1
-7 -3 2 50.39 10.3
6 3 -2 18.6 7
-6 -3 2 16.4 4.3
-6 -3 2 9.8 4.3
-6 -3 2 16.4 4.6
-6 -3 2 22.5 7.2
-6 -3 2 33.4 8
5 3 -2 1278.47 111.89
-5 -3 2 1315.07 108.69
-5 -3 2 1360.06 111.29
-5 -3 2 1407.86 107.99
-5 -3 2 1304.07 110.29
-5 -3 2 1239.78 112.59
-5 -3 2 1244.08 107.29
4 3 -2 132.29 17.9
4 3 -2 123.79 18
4 3 -2 157.18 21.4
-4 -3 2 110.19 15.5
-4 -3 2 122.39 14.2
-4 -3 2 108.09 13.7
-4 -3 2 109.89 17.5
-4 -3 2 125.49 13.8
-4 -3 2 125.49 13.5
3 3 -2 2495.35 218.98
3 3 -2 2892.31 222.38
-3 -3 2 2573.34 216.48
-3 -3 2 2595.04 213.38
-3 -3 2 2746.03 212.68
2 3 -2 1325.17 116.59
-2 -3 2 1497.65 117.89
-2 -3 2 1442.06 113.19
-2 -3 2 1390.46 115.99
-2 -3 2 1374.06 113.79
1 3 -2 3126.69 254.27
1 3 -2 3244.68 257.57
-1 -3 2 3327.17 255.87
-1 -3 2 3014.6 253.97
-1 -3 2 3294.67 253.57
0 -3 2 339.67 29.5
0 -3 2 345.27 28.6
1 -3 2 2284.57 211.48
1 -3 2 3080.99 213.68
-2 3 -2 103.99 12
-2 3 -2 101.09 9.7
2 -3 2 91.59 8.3
2 -3 2 115.79 10.6
2 -3 2 102.59 9.3
-3 3 -2 1264.77 114.79
3 -3 2 1352.76 110.89
3 -3 2 1458.45 112.49
3 -3 2 1496.35 112.99
-4 3 -2 60.69 9.4
-4 3 -2 31.5 9.5
4 -3 2 53.89 7
4 -3 2 44.2 6.3
4 -3 2 40.7 6.5
4 -3 2 48.6 8.3
4 -3 2 55.29 7
5 -3 2 872.51 75.49
5 -3 2 800.22 71.09
5 -3 2 884.91 72.09
-6 3 -2 381.56 40.7
6 -3 2 398.26 35.9
6 -3 2 352.26 34.2
6 -3 2 377.06 37.7
6 -3 2 339.77 32.5
6 -3 2 352.56 37.9
6 -3 2 347.47 33.4
-7 3 -2 289.17 27.4
7 -3 2 215.78 25
7 -3 2 224.58 24.3
7 -3 2 295.67 30.7
7 -3 2 262.17 26.9
7 -3 2 229.58 23.5
7 -3 2 220.78 28.8
-8 3 -2 127.49 20.3
-8 3 -2 150.58 21.8
-8 3 -2 131.29 17.7
8 -3 2 148.99 16.1
8 -3 2 131.09 17.6
8 -3 2 150.68 20.2
8 -3 2 169.08 17.7
8 -3 2 159.68 15.8
-9 3 -2 99.79 13.4
-9 3 -2 67.59 10.5
-9 3 -2 74.59 11
9 -3 2 63.49 8
8 2 -2 22.2 5.7
8 2 -2 27.1 9.2
-8 -2 2 17 4.4
-8 -2 2 30.3 8.6
7 2 -2 12 5.6
-7 -2 2 3.8 4.6
-7 -2 2 6.2 2.7
-7 -2 2 7.1 4.6
6 2 -2 677.93 60.89
-6 -2 2 598.84 54.79
-6 -2 2 728.43 58.69
-6 -2 2 547.15 54.39
-6 -2 2 650.33 54.09
-6 -2 2 604.64 53.69
-6 -2 2 651.83 58.99
5 2 -2 94.39 14.1
5 2 -2 104.09 16
5 2 -2 110.99 17.2
5 2 -2 81.69 13.7
-5 -2 2 74.49 10
-5 -2 2 77.69 10.5
-5 -2 2 61.59 13.3
-5 -2 2 82.49 10.6
-5 -2 2 89.69 12.6
-5 -2 2 74.59 10.5
4 2 -2 1468.85 118.99
-4 -2 2 1303.37 112.29
-4 -2 2 1237.68 114.09
-4 -2 2 1417.96 112.99
-4 -2 2 1469.05 113.09
-4 -2 2 1398.86 116.39
3 2 -2 2207.58 206.38
3 2 -2 2212.28 205.38
3 2 -2 2824.62 211.08
-3 -2 2 2797.82 204.98
-3 -2 2 2739.93 207.78
-3 -2 2 2722.33 204.48
-3 -2 2 2447.66 204.78
2 2 -2 822.52 72.59
-2 -2 2 804.82 70.59
-2 -2 2 829.22 69.89
-2 -2 2 945.51 72.79
-2 -2 2 935.11 70.49
1 2 -2 3488.05 284.57
1 2 -2 3773.52 285.17
1 2 -2 3576.44 284.77
-1 -2 2 3464.45 284.07
-2 2 -2 3785.22 304.17
2 -2 2 4317.47 303.27
2 -2 2 3442.46 303.27
-3 2 -2 249.97 21.6
-3 2 -2 269.57 23.9
3 -2 2 226.68 20.9
3 -2 2 209.08 20.5
3 -2 2 255.27 21.4
-4 2 -2 1713.33 143.69
4 -2 2 1687.13 143.89
4 -2 2 1608.14 143.19
4 -2 2 1784.62 141.99
4 -2 2 1904.31 141.59
4 -2 2 1846.12 142.59
-5 2 -2 0 2.4
-5 2 -2 4.6 3.3
5 -2 2 0.5 2.2
5 -2 2 -3 2.3
5 -2 2 1.7 2.3
5 -2 2 -0.6 2.1
-6 2 -2 121.99 14.6
-6 2 -2 108.19 16.5
6 -2 2 91.39 11.6
6 -2 2 98.89 13.4
6 -2 2 97.29 15
6 -2 2 87.09 15.1
6 -2 2 96.09 11.3
6 -2 2 89.29 12.4
-7 2 -2 65.69 11.7
7 -2 2 67.29 9.5
7 -2 2 71.39 12
7 -2 2 73.99 11
7 -2 2 68.59 10
7 -2 2 61.89 12.7
7 -2 2 94.29 15.5
7 -2 2 69.59 16.1
-8 2 -2 8.9 4.3
-8 2 -2 0.2 4.5
8 -2 2 7.3 4.9
8 -2 2 -3.1 4.7
8 -2 2 8.3 3.5
8 -2 2 9.9 6.5
8 -2 2 7.8 3.1
-9 2 -2 13.9 4.5
-9 2 -2 14.8 4.2
-9 2 -2 6.6 3.5
9 -2 2 15.2 4.5
9 1 -2 25.7 9.5
9 1 -2 21.3 5
-8 -1 2 96.69 12.2
-8 -1 2 86.09 14.2
7 1 -2 83.99 12.1
-7 -1 2 58.59 12.6
-7 -1 2 68.69 8.7
6 1 -2 2175.28 173.18
6 1 -2 2180.48 172.38
-6 -1 2 1960.9 165.28
-6 -1 2 2043.9 169.88
-6 -1 2 1818.62 165.58
-6 -1 2 2163.48 169.28
5 1 -2 17.3 7.4
5 1 -2 10.4 5.4
5 1 -2 12.1 6
-5 -1 2 10.8 3.4
-5 -1 2 8.5 5.9
-5 -1 2 15.8 4.4
-5 -1 2 17.3 6.9
-5 -1 2 10.2 3.5
-5 -1 2 17.6 4.5
4 1 -2 2612.34 253.07
-4 -1 2 3332.97 249.38
-4 -1 2 3185.58 249.58
-4 -1 2 3383.06 249.97
3 1 -2 667.83 60.09
3 1 -2 579.74 60.99
-3 -1 2 809.52 59.29
-3 -1 2 765.12 61.09
-3 -1 2 760.82 59.69
2 1 -2 2928.21 253.07
2 1 -2 3131.69 253.47
-2 -1 2 3353.46 253.87
-2 -1 2 3329.27 252.27
-1 1 -2 4248.48 335.67
-2 1 -2 4564.64 359.96
-3 1 -2 758.22 56.19
-3 1 -2 732.93 58.29
-3 1 -2 742.13 57.89
3 -1 2 745.03 57.29
3 -1 2 557.54 57.79
3 -1 2 598.24 56.69
-4 1 -2 2184.18 160.78
-4 1 -2 1912.11 156.98
4 -1 2 2087.29 157.58
4 -1 2 1845.02 159.58
4 -1 2 1888.91 157.68
4 -1 2 1823.12 160.28
-5 1 -2 1114.69 82.39
5 -1 2 931.41 78.89
5 -1 2 783.72 82.09
5 -1 2 914.71 79.39
5 -1 2 1018.4 83.09
-6 1 -2 11.9 6.8
6 -1 2 25 9
6 -1 2 13.4 8.8
6 -1 2 16.7 5.1
6 -1 2 17.7 10.7
6 -1 2 15.8 5.2
6 -1 2 16.8 6.3
-7 1 -2 303.47 37.2
-7 1 -2 323.27 36.5
7 -1 2 405.56 39.9
7 -1 2 400.46 33.1
7 -1 2 383.46 39.4
7 -1 2 412.06 37.1
7 -1 2 349.67 33.2
-8 1 -2 27.6 7.8
-8 1 -2 23.8 7.1
8 -1 2 11.4 10.8
8 -1 2 28.6 7.5
8 -1 2 24 9.5
8 -1 2 30.5 5.3
-9 1 -2 86.69 10.8
-9 1 -2 85.69 11.6
9 -1 2 87.69 13
9 0 -2 8.4 3.9
-9 0 2 6.4 3.6
-9 0 2 16 4.2
8 0 -2 31.9 9.1
8 0 -2 34.2 7.1
-8 0 2 22.3 6.1
-8 0 2 21.7 7
7 0 -2 99.39 15.6
7 0 -2 91.19 21.3
7 0 -2 105.79 13.9
-7 0 2 86.19 12.3
-7 0 2 63.59 9.3
-7 0 2 75.79 12.7
6 0 -2 10.4 4.9
6 0 -2 13.7 4.2
6 0 -2 16.4 7.1
6 0 -2 10 5.5
6 0 -2 9.5 5.8
6 0 -2 11.5 8.3
-6 0 2 12.9 4.4
-6 0 2 6 3.1
-6 0 2 10.1 3.5
-6 0 2 8.9 3.7
-6 0 2 0.5 4.1
-6 0 2 15.5 5.9
5 0 -2 17.2 6.9
5 0 -2 3.6 3.4
5 0 -2 9.7 5.2
5 0 -2 0 4.4
5 0 -2 5.5 4.5
5 0 -2 0 3.9
5 0 -2 2.3 5.7
5 0 -2 1.9 3.6
-5 0 2 4.4 2.4
-5 0 2 3.1 2.2
-5 0 2 5.9 2.4
-5 0 2 10.6 4.2
-5 0 2 7 4.1
4 0 -2 646.54 60.69
4 0 -2 698.73 63.59
-4 0 2 714.73 60.79
-4 0 2 807.22 62.69
-4 0 2 744.23 62.09
-4 0 2 789.72 60.49
3 0 -2 2221.48 179.78
3 0 -2 2025.3 181.38
-3 0 2 2462.85 179.48
-3 0 2 2290.77 180.48
2 0 -2 2588.04 237.98
2 0 -2 2928.71 239.18
2 0 -2 3179.58 238.68
2 0 -2 3364.26 239.38
-2 0 2 2979.2 238.78
1 0 -2 808.42 67.59
1 0 -2 778.22 67.59
-1 0 2 973.9 67.59
-1 0 2 811.22 68.49
0 0 -2 916.91 66.69
0 0 -2 766.52 66.09
0 0 -2 806.22 65.99
0 0 -2 857.21 66.29
0 0 2 796.82 66.19
-1 0 -2 824.62 73.79
-1 0 -2 826.12 73.09
-1 0 -2 951.2 73.59
-1 0 -2 938.71 72.69
-1 0 -2 932.71 74.19
-1 0 -2 905.91 72.49
1 0 2 1030.3 74.19
2 0 2 4357.36 365.86
2 0 2 4875.61 367.86
-3 0 -2 201.28 21.7
-3 0 -2 220.28 20.2
3 0 2 245.68 24.4
3 0 2 228.18 21.3
3 0 2 229.38 23.1
3 0 2 228.58 23.8
4 0 2 3940.31 307.27
4 0 2 3431.16 308.07
4 0 2 4011.8 303.47
-5 0 -2 6.3 4.9
-5 0 -2 6.1 3.7
-5 0 -2 9.8 7.1
-5 0 -2 5.4 4.8
5 0 2 7.6 3.3
5 0 2 9.8 5.3
5 0 2 3 4.2
5 0 2 11.7 4.5
5 0 2 11.7 6.1
5 0 2 13.6 4.2
-6 0 -2 343.97 37.7
-6 0 -2 307.67 37.5
-6 0 -2 329.67 36
6 0 2 376.56 39.4
6 0 2 288.47 43.4
6 0 2 445.86 41
6 0 2 383.16 33.1
6 0 2 377.66 34.6
6 0 2 408.36 33.9
6 0 2 429.76 37.4
-7 0 -2 10 5.6
-7 0 -2 7.5 4.9
-7 0 -2 7.2 7
-7 0 -2 22.1 13.6
7 0 2 3.6 3.2
7 0 2 7.8 7.9
7 0 2 5.7 5.3
7 0 2 4.7 4.5
-8 0 -2 163.58 18.4
-8 0 -2 126.69 15.3
8 0 2 185.28 18.6
-9 1 2 63.99 11.4
-9 1 2 54.69 8.7
-9 1 2 41.8 7.1
8 -1 -2 2.9 4.1
8 -1 -2 -2.8 3.4
-8 1 2 3.5 3.5
-8 1 2 1.7 3.2
7 -1 -2 127.49 18.5
7 -1 -2 130.29 13.8
7 -1 -2 137.39 16.9
-7 1 2 124.09 15.7
-7 1 2 110.89 15
-7 1 2 95.09 12.5
6 -1 -2 38.3 9.9
6 -1 -2 41.1 9.1
6 -1 -2 35.8 8.6
6 -1 -2 58.59 10.7
6 -1 -2 39.8 7.1
6 -1 -2 42.6 7.3
-6 1 2 41.2 10.9
-6 1 2 40.9 6.9
-6 1 2 32.9 6.2
-6 1 2 35.1 7.5
-6 1 2 27.3 6.5
-6 1 2 31.3 5.9
-6 1 2 51.59 8.7
5 -1 -2 547.25 55.39
5 -1 -2 625.44 58.69
5 -1 -2 557.74 54.39
5 -1 -2 627.24 53.69
-5 1 2 693.23 53.79
-5 1 2 611.64 55.29
-5 1 2 704.63 53.19
-5 1 2 671.93 52.49
-5 1 2 643.84 54.49
4 -1 -2 774.22 74.29
4 -1 -2 753.62 70.89
-4 1 2 903.11 72.39
-4 1 2 924.11 73.19
-4 1 2 919.31 71.59
-4 1 2 955 71.29
3 -1 -2 123.29 13.2
3 -1 -2 142.59 17.2
3 -1 -2 152.48 13.7
3 -1 -2 111.09 14.3
3 -1 -2 149.59 15.2
-3 1 2 159.88 16.2
-3 1 2 153.18 14.2
-3 1 2 166.88 15
-3 1 2 150.98 13.9
2 -1 -2 1544.25 133.29
2 -1 -2 1650.43 133.89
2 -1 -2 1639.74 133.79
2 -1 -2 1556.34 132.89
2 -1 -2 1725.23 133.59
2 -1 -2 1618.04 132.69
-2 1 2 1770.52 132.99
-2 1 2 1711.93 134.79
-2 1 2 1759.22 133.49
1 -1 -2 193.38 16.2
1 -1 -2 200.08 15.8
1 -1 -2 154.18 15.5
1 -1 -2 191.08 16.3
1 -1 -2 181.68 16.8
-1 1 2 174.18 16.2
0 -1 -2 3097.39 244.48
0 1 2 3060.99 244.38
-1 -1 -2 2422.76 186.58
-1 -1 -2 2268.97 186.18
-1 -1 -2 2270.47 186.68
-1 -1 -2 2275.97 187.68
-1 -1 -2 2584.14 187.88
1 1 2 2294.17 187.88
-2 -1 -2 2841.82 219.98
-2 -1 -2 2695.43 218.68
-2 -1 -2 2779.32 220.38
-2 -1 -2 2679.43 218.58
-3 -1 -2 2077.39 168.38
-3 -1 -2 2060.79 167.78
-3 -1 -2 2125.79 169.68
-3 -1 -2 2153.88 171.18
-3 -1 -2 2057.29 168.18
-4 -1 -2 35.2 8.3
-4 -1 -2 28.9 7.6
-4 -1 -2 50.79 9.8
-4 -1 -2 57.79 11.2
-4 -1 -2 34.5 7.8
-4 -1 -2 33 6.4
-4 -1 -2 36.6 7.3
-4 -1 -2 34 6.5
4 1 2 51.89 9
4 1 2 44.1 7.5
4 1 2 48.7 7.6
4 1 2 16.6 10
-5 -1 -2 4.6 4.3
-5 -1 -2 13.6 5.4
-5 -1 -2 4.2 4.4
-5 -1 -2 8.1 6.7
-5 -1 -2 9.3 4.1
5 1 2 2.8 3.7
5 1 2 5 4.7
5 1 2 5.1 4.6
5 1 2 6.7 4.9
5 1 2 3.7 3.1
5 1 2 4.6 2.7
-6 -1 -2 1 12.7
-6 -1 -2 4.2 6.5
-6 -1 -2 5.8 4.6
-6 -1 -2 10.5 5
6 1 2 4.1 4.3
6 1 2 2.6 2.7
6 1 2 4.3 3
6 1 2 8.9 4.7
6 1 2 10 6.4
-7 -1 -2 2.6 3.3
-7 -1 -2 -0.3 3.5
7 1 2 -1 6.1
7 1 2 1.9 3.3
7 1 2 4.4 3.6
-8 -1 -2 6.3 6.5
-8 -1 -2 12.9 4.8
8 1 2 11.6 4.4
8 1 2 10.7 3.5
9 -2 -2 31.8 8
-9 2 2 21.5 6.3
-9 2 2 24.6 5.1
8 -2 -2 35.2 9.9
8 -2 -2 45.1 10.1
-8 2 2 31.6 7.4
-8 2 2 41.5 8.8
7 -2 -2 655.53 58.09
7 -2 -2 634.74 52.39
7 -2 -2 692.53 61.59
7 -2 -2 584.54 55.39
7 -2 -2 591.34 56.19
7 -2 -2 587.64 58.79
-7 2 2 582.94 54.89
-7 2 2 607.14 54.39
6 -2 -2 21.1 6.2
6 -2 -2 5.5 3.4
6 -2 -2 16.6 6.4
6 -2 -2 33 13.6
6 -2 -2 10.1 4.2
6 -2 -2 21.1 7.2
6 -2 -2 14.9 5.2
6 -2 -2 12.5 6.1
6 -2 -2 6.8 4.1
-6 2 2 12.1 4.9
-6 2 2 19.6 5.6
-6 2 2 14.4 5.2
-6 2 2 27.5 5.6
5 -2 -2 3431.56 290.37
5 -2 -2 3877.01 292.77
5 -2 -2 3091.49 286.97
-5 2 2 3966.6 286.77
4 -2 -2 249.78 23.6
4 -2 -2 195.08 20
4 -2 -2 209.38 21.9
4 -2 -2 186.68 21
4 -2 -2 181.08 20.8
4 -2 -2 196.88 22.1
4 -2 -2 246.88 20.3
-4 2 2 271.57 23.3
-4 2 2 238.58 20.8
-4 2 2 251.57 20.6
3 -2 -2 9829.52 744.53
3 -2 -2 9999 745.03
3 -2 -2 8465.05 746.03
2 -2 -2 826.12 70.29
2 -2 -2 835.62 68.59
2 -2 -2 897.81 69.19
-2 2 2 778.12 68.99
-2 2 2 897.01 70.59
1 -2 -2 7492.65 592.74
0 -2 -2 1340.27 113.09
0 -2 -2 1369.16 112.39
0 -2 -2 1359.16 111.49
0 -2 -2 1380.06 111.29
0 -2 -2 1484.65 111.89
0 -2 -2 1330.27 111.79
0 2 2 1479.75 111.99
0 2 2 1334.17 111.39
0 2 2 1385.06 112.59
0 2 2 1470.05 113.39
-1 -2 -2 4308.57 311.97
-1 -2 -2 4410.06 311.77
-1 -2 -2 3514.35 312.47
-1 -2 -2 4226.28 310.97
-1 -2 -2 4237.18 313.07
-1 -2 -2 4166.08 311.47
1 2 2 3528.55 315.27
1 2 2 3287.47 314.67
1 2 2 3657.13 311.37
-2 -2 -2 883.01 72.89
-2 -2 -2 842.82 72.39
-2 -2 -2 872.21 74.99
-2 -2 -2 873.01 73.59
-2 -2 -2 824.92 72.99
-2 -2 -2 863.41 73.29
-2 -2 -2 835.12 74.99
2 2 2 898.41 79.59
2 2 2 1041.5 82.79
2 2 2 1014.6 75.99
-3 -2 -2 606.94 55.69
-3 -2 -2 652.93 52.99
-3 -2 -2 619.34 56.59
-3 -2 -2 633.44 53.59
-3 -2 -2 644.74 52.39
-3 -2 -2 595.54 53.39
-4 -2 -2 802.82 71.39
-4 -2 -2 843.52 73.49
-4 -2 -2 896.81 76.79
-4 -2 -2 806.12 71.99
-4 -2 -2 862.71 78.39
-4 -2 -2 840.62 72.09
-4 -2 -2 831.62 74.29
-4 -2 -2 922.31 78.19
-4 -2 -2 1004.3 76.29
4 2 2 830.22 75.39
-5 -2 -2 94.29 21.9
-5 -2 -2 115.59 17.9
-5 -2 -2 137.79 18
-5 -2 -2 111.59 22.8
5 2 2 127.79 17.3
5 2 2 156.08 17.9
5 2 2 135.69 20.5
5 2 2 145.59 14.1
-6 -2 -2 247.98 26.3
-6 -2 -2 223.58 26.7
6 2 2 265.27 26.6
6 2 2 212.28 27.5
-7 -2 -2 5.7 4.9
7 2 2 9.7 5.9
10 -3 -2 4.6 2.5
-10 3 2 -0.5 2
-10 3 2 -0.1 1.7
9 -3 -2 193.58 21.6
9 -3 -2 187.58 19.7
-9 3 2 155.18 18.3
8 -3 -2 77.69 15.7
8 -3 -2 55.99 15.5
8 -3 -2 50.59 8.5
-8 3 2 75.99 10.7
-8 3 2 72.89 11
7 -3 -2 465.15 44.1
7 -3 -2 478.05 45.2
7 -3 -2 434.56 40.8
7 -3 -2 456.85 47
-7 3 2 503.75 42.8
-7 3 2 469.85 44.7
-7 3 2 469.35 43
6 -3 -2 461.95 41.4
6 -3 -2 450.35 40.4
6 -3 -2 417.86 41.5
6 -3 -2 396.16 39.5
6 -3 -2 379.46 38.4
6 -3 -2 426.26 42.7
-6 3 2 451.15 42.9
-6 3 2 489.65 39.6
-6 3 2 389.06 41.8
5 -3 -2 766.82 67.59
5 -3 -2 626.34 63.59
5 -3 -2 722.23 63.19
5 -3 -2 768.12 64.39
5 -3 -2 744.33 65.19
5 -3 -2 756.42 61.39
5 -3 -2 668.73 62.49
5 -3 -2 705.63 61.99
5 -3 -2 637.34 61.19
5 -3 -2 752.02 61.09
-5 3 2 792.22 62.29
-5 3 2 855.41 65.59
4 -3 -2 978.1 78.69
4 -3 -2 975.1 81.39
4 -3 -2 943.21 80.19
4 -3 -2 968.8 78.09
4 -3 -2 929.01 77.49
4 -3 -2 883.61 77.29
4 -3 -2 916.91 78.89
3 -3 -2 310.47 26.9
3 -3 -2 296.97 27
3 -3 -2 294.87 29.2
3 -3 -2 282.97 26.4
3 -3 -2 284.47 27.4
3 -3 -2 293.87 28.2
-3 3 2 334.57 28.3
-3 3 2 333.57 28.9
-3 3 2 288.97 26.8
2 -3 -2 2701.73 203.28
2 -3 -2 2740.33 204.08
2 -3 -2 2496.85 203.48
2 -3 -2 2598.84 204.98
2 -3 -2 2568.84 204.48
2 -3 -2 2681.53 206.58
2 -3 -2 2190.38 203.48
-2 3 2 2513.35 204.28
-2 3 2 2559.14 204.88
-2 3 2 2518.25 205.38
1 -3 -2 600.64 49.1
1 -3 -2 598.24 46.8
1 -3 -2 566.04 46.4
1 -3 -2 593.04 46.3
1 -3 -2 451.15 45.6
1 -3 -2 605.64 47.7
-1 3 2 511.45 47.5
0 -3 -2 512.45 41.8
0 -3 -2 494.85 41.9
0 -3 -2 502.45 41.6
0 -3 -2 499.35 43
0 -3 -2 484.55 42.5
0 -3 -2 460.45 43.7
0 3 2 511.55 43.8
0 3 2 506.25 44.7
-1 -3 -2 2008.6 150.78
-1 -3 -2 1703.33 151.88
-1 -3 -2 1989 149.69
-1 -3 -2 1854.51 150.28
-1 -3 -2 2073.49 149.39
-1 -3 -2 1947.01 149.19
-1 -3 -2 1939.01 151.68
1 3 2 1678.23 153.68
1 3 2 1506.85 154.58
-2 -3 -2 -5.2 4.7
-2 -3 -2 -0.6 2.3
-2 -3 -2 2.7 1.9
-2 -3 -2 3.4 2
-2 -3 -2 1.4 2.3
-2 -3 -2 0.6 2
2 3 2 -3.2 3.5
2 3 2 -11.9 6.1
2 3 2 -2.4 3
2 3 2 -3.5 7.2
2 3 2 2.5 4.8
-3 -3 -2 975.1 89.09
-3 -3 -2 1038.7 91.89
-3 -3 -2 1175.78 90.59
-3 -3 -2 984.4 86.79
-3 -3 -2 1060.89 87.19
-3 -3 -2 1119.19 93.09
-3 -3 -2 1020.9 92.19
-3 -3 -2 1072.09 86.99
-3 -3 -2 1128.29 88.69
3 3 2 944.51 89.89
-4 -3 -2 54.39 8.9
-4 -3 -2 46.4 8.5
-4 -3 -2 39.1 11.1
-4 -3 -2 56.79 10.8
-4 -3 -2 38.9 8.1
-4 -3 -2 68.09 10.1
-4 -3 -2 42.5 7.6
4 3 2 52.49 10.6
4 3 2 72.79 12.9
-5 -3 -2 171.48 23.3
-5 -3 -2 209.58 26.3
-5 -3 -2 222.68 21.3
-5 -3 -2 248.08 26
5 3 2 254.17 25.9
-6 -3 -2 36.6 8.6
-6 -3 -2 43.4 9.5
6 3 2 49 9.3
6 3 2 59.49 15.2
-7 -3 -2 12 4.2
7 3 2 13.5 3.8
10 -4 -2 21.8 5.2
9 -4 -2 0.9 2.2
9 -4 -2 -3.3 5.2
-9 4 2 2.7 2.9
8 -4 -2 8.8 6.3
8 -4 -2 1 4.3
8 -4 -2 -1.7 2.5
8 -4 -2 -1.9 6.4
8 -4 -2 -5.6 5.4
8 -4 -2 0.8 4
8 -4 -2 1.5 3.2
-8 4 2 -1.9 2.7
-8 4 2 -1.1 5.1
-8 4 2 0.5 3.1
7 -4 -2 26.9 8.8
7 -4 -2 7.9 4.7
7 -4 -2 6.7 5.2
7 -4 -2 15.2 6.8
7 -4 -2 12.3 4.5
7 -4 -2 5.7 7.1
7 -4 -2 23.8 7.2
-7 4 2 20.3 6.8
-7 4 2 17.2 5.5
-7 4 2 10.6 6.5
6 -4 -2 127.29 18
6 -4 -2 120.69 15.4
6 -4 -2 135.29 17.7
6 -4 -2 121.69 14.9
6 -4 -2 129.39 16.7
6 -4 -2 136.69 15
6 -4 -2 120.89 19.4
-6 4 2 144.09 16.3
-6 4 2 136.49 19.9
-6 4 2 118.99 17.7
-6 4 2 146.89 15.8
-6 4 2 152.18 17
5 -4 -2 260.17 28.1
5 -4 -2 243.98 26.6
5 -4 -2 278.07 27.9
5 -4 -2 278.27 30.5
5 -4 -2 272.57 27
5 -4 -2 275.97 29.1
5 -4 -2 255.77 26.6
-5 4 2 288.17 26.8
-5 4 2 321.97 28.7
-5 4 2 343.97 27.7
-5 4 2 334.07 31.9
4 -4 -2 21.9 5.1
4 -4 -2 12 3.9
4 -4 -2 14.2 5.4
4 -4 -2 12.4 3.9
4 -4 -2 19.1 5.5
-4 4 2 16.6 5.9
3 -4 -2 128.89 13.4
3 -4 -2 131.39 13.9
3 -4 -2 153.58 14
3 -4 -2 115.39 16.2
3 -4 -2 119.99 17
3 -4 -2 132.19 14.6
-3 4 2 145.39 16.2
-3 4 2 129.79 16.3
2 -4 -2 634.54 52.39
2 -4 -2 635.94 51.69
2 -4 -2 612.34 55.49
2 -4 -2 647.34 52.09
2 -4 -2 586.64 51.89
2 -4 -2 622.34 53.89
2 -4 -2 608.74 53.09
1 -4 -2 168.88 18.1
1 -4 -2 186.38 17
1 -4 -2 175.08 16.9
1 -4 -2 165.08 16.8
1 -4 -2 204.28 20.6
1 -4 -2 172.78 17.1
0 -4 -2 3 1.7
0 -4 -2 8.9 2.9
0 -4 -2 7.3 2.5
0 -4 -2 4.8 2.1
0 -4 -2 1.8 1.7
0 4 2 12 5.2
0 4 2 -1.1 2.9
0 4 2 0 2.2
-1 -4 -2 2 1.8
-1 -4 -2 10.5 8.1
-1 -4 -2 4.7 3.1
-1 -4 -2 9.9 3.1
-1 -4 -2 -0.2 2.9
-1 -4 -2 4.1 4
-1 -4 -2 2.9 2
-1 -4 -2 2.5 2.1
-1 -4 -2 4.1 2.4
1 4 2 4.1 4.8
1 4 2 6.6 5
-2 -4 -2 2.9 3.1
-2 -4 -2 -3.8 4.4
-2 -4 -2 3.6 3.1
-2 -4 -2 6 2.7
-2 -4 -2 2.7 3.8
-2 -4 -2 -1.6 4.5
-2 -4 -2 5.8 2.7
-2 -4 -2 6.3 3.1
2 4 2 12.2 7.6
2 4 2 -0.6 5.4
2 4 2 -5 5.8
2 4 2 8.4 4.5
-3 -4 -2 102.29 12.8
-3 -4 -2 89.09 11.7
-3 -4 -2 103.59 14.7
-3 -4 -2 111.69 13.3
-3 -4 -2 104.69 12.9
-3 -4 -2 107.79 13.6
3 4 2 80.09 14.2
-4 -4 -2 11.7 7.2
-4 -4 -2 22.8 7
-4 -4 -2 19 6.5
-4 -4 -2 20.4 4.9
-4 -4 -2 20.1 5.4
-4 -4 -2 22.1 7
4 4 2 32.2 12.4
4 4 2 27.2 7.3
4 4 2 4 11.5
4 4 2 23.5 7.3
4 4 2 39.9 12.2
-5 -4 -2 53.39 8.2
-5 -4 -2 67.79 12.1
5 4 2 86.99 12.1
5 4 2 84.59 14.9
-6 -4 -2 9.4 3.3
-6 -4 -2 8.8 4.5
6 4 2 5.9 3.2
-10 5 2 2.1 2.1
9 -5 -2 104.49 16.3
9 -5 -2 78.79 8.1
-9 5 2 67.09 10.5
-9 5 2 55.89 12
8 -5 -2 52.39 11.3
8 -5 -2 41.3 8.4
8 -5 -2 58.39 10.9
8 -5 -2 41.5 10.1
8 -5 -2 53.79 8
8 -5 -2 25.6 9.5
8 -5 -2 29.7 10.7
-8 5 2 42.8 8.7
-8 5 2 47.6 8.2
7 -5 -2 177.98 21.8
7 -5 -2 135.79 18.9
7 -5 -2 157.28 18.4
7 -5 -2 152.48 22.8
7 -5 -2 201.58 24.7
7 -5 -2 203.18 21.3
-7 5 2 196.08 20.1
-7 5 2 174.68 23.5
-7 5 2 153.18 23.2
-7 5 2 187.88 19.2
-7 5 2 165.58 23.7
6 -5 -2 5.1 4.4
6 -5 -2 1.1 3.7
6 -5 -2 8.3 4
6 -5 -2 -3.1 3.7
6 -5 -2 5.6 5.3
6 -5 -2 -0.9 4.8
6 -5 -2 1.2 3
-6 5 2 -9.6 6.2
-6 5 2 1.6 5.2
-6 5 2 4.7 3.5
5 -5 -2 26.7 7.4
5 -5 -2 21.2 5.9
5 -5 -2 26.7 7.9
5 -5 -2 33.6 6.5
5 -5 -2 29 6.9
5 -5 -2 31.6 6.8
5 -5 -2 24.4 6.2
-5 5 2 38.2 11.2
-5 5 2 29.8 7.5
-5 5 2 34.1 10.5
-5 5 2 31 6.3
-5 5 2 42.7 8.2
-5 5 2 19.5 10.9
4 -5 -2 147.59 16.6
4 -5 -2 147.39 16.3
4 -5 -2 150.38 19
4 -5 -2 168.98 16.7
4 -5 -2 155.08 20.9
4 -5 -2 155.88 17.8
4 -5 -2 131.59 16.3
-4 5 2 159.18 21.3
-4 5 2 183.28 22.5
-4 5 2 149.69 16.2
3 -5 -2 1421.86 116.49
3 -5 -2 1438.86 119.19
3 -5 -2 1215.88 114.19
3 -5 -2 1485.85 115.09
3 -5 -2 1389.06 114.89
3 -5 -2 1428.86 115.39
3 -5 -2 1368.66 117.79
-3 5 2 1503.95 116.19
2 -5 -2 118.69 13.1
2 -5 -2 115.79 13.9
2 -5 -2 109.49 12.7
2 -5 -2 119.39 12.7
2 -5 -2 101.49 14.2
2 -5 -2 121.89 12.6
-2 5 2 130.99 13.7
1 -5 -2 1123.49 95.19
1 -5 -2 1098.09 92.59
1 -5 -2 1218.98 93.59
1 -5 -2 1084.19 95.19
1 -5 -2 1204.38 92.99
-1 5 2 1180.98 101.89
-1 5 2 984.1 96.09
0 -5 -2 350.56 31.1
0 -5 -2 357.36 33.5
0 -5 -2 356.16 31.3
0 -5 -2 392.66 31.2
0 -5 -2 286.97 30.7
0 -5 -2 374.96 31.6
0 -5 -2 316.97 33
0 5 2 292.07 31.6
0 5 2 375.36 33.7
0 5 2 284.77 32.9
-1 -5 -2 604.24 47.6
-1 -5 -2 587.04 47.6
-1 -5 -2 538.35 46.2
-1 -5 -2 462.55 48.4
-1 -5 -2 420.96 50.79
-1 -5 -2 528.85 48.8
-1 -5 -2 534.15 46.1
-1 -5 -2 551.94 46.6
1 5 2 477.45 49
-2 -5 -2 21.1 6.2
-2 -5 -2 37.2 9.1
-2 -5 -2 54.39 13.4
-2 -5 -2 20.7 5.9
2 5 2 50.59 17.2
2 5 2 23.7 10.7
2 5 2 30.8 8.6
-3 -5 -2 684.13 60.59
-3 -5 -2 697.23 57.19
-3 -5 -2 596.24 61.69
-3 -5 -2 656.93 58.09
-3 -5 -2 559.54 57.49
-3 -5 -2 697.83 59.69
-3 -5 -2 621.54 56.59
3 5 2 682.03 60.99
3 5 2 716.93 64.49
-4 -5 -2 171.68 20.5
-4 -5 -2 156.68 17
-4 -5 -2 157.28 21.7
4 5 2 184.38 20.6
4 5 2 197.68 21.5
-5 -5 -2 143.89 17.8
-5 -5 -2 149.88 22.4
5 5 2 215.68 22.8
5 5 2 186.88 18.7
9 -6 -2 1.3 1.8
9 -6 -2 0 3.3
9 -6 -2 -3.4 3.2
-9 6 2 -2.9 2.1
-9 6 2 1.1 4.4
-9 6 2 4.2 2.3
8 -6 -2 52.59 13
8 -6 -2 24.1 7.7
8 -6 -2 34.9 6.8
8 -6 -2 36.8 6.9
8 -6 -2 23.6 7.8
-8 6 2 18.7 8.6
-8 6 2 26.1 7.6
-8 6 2 31.2 6.3
7 -6 -2 290.17 34.9
7 -6 -2 221.68 23.7
7 -6 -2 213.08 22.6
7 -6 -2 222.58 29.2
-7 6 2 202.98 29.6
-7 6 2 166.38 32.4
6 -6 -2 666.53 53.79
6 -6 -2 508.25 52.29
6 -6 -2 607.64 56.19
6 -6 -2 550.14 51.89
6 -6 -2 600.14 55.09
6 -6 -2 578.14 54.19
-6 6 2 656.53 52.89
-6 6 2 691.63 55.59
-6 6 2 500.85 61.09
5 -6 -2 278.77 31.3
5 -6 -2 327.47 31
5 -6 -2 324.17 30.9
5 -6 -2 352.66 33.8
5 -6 -2 327.37 32
5 -6 -2 331.67 33.9
5 -6 -2 350.26 31.7
-5 6 2 281.77 44.1
-5 6 2 344.67 46.7
-5 6 2 326.77 30.7
4 -6 -2 870.21 74.49
4 -6 -2 815.32 71.79
4 -6 -2 872.51 72.29
4 -6 -2 896.51 75.49
4 -6 -2 824.12 72.89
4 -6 -2 858.11 72.59
-4 6 2 826.42 71.89
3 -6 -2 2.4 2.3
3 -6 -2 12 3.7
3 -6 -2 1.4 2.4
3 -6 -2 5 2.6
3 -6 -2 14.5 4.3
-3 6 2 6.1 8.8
-3 6 2 1 4.5
-3 6 2 2.4 3
2 -6 -2 928.71 79.49
2 -6 -2 916.41 81.59
2 -6 -2 898.81 78.69
2 -6 -2 926.01 79.69
2 -6 -2 914.21 78.89
2 -6 -2 986.7 79.09
2 -6 -2 950.1 81.29
-2 6 2 1026 80.39
1 -6 -2 65.29 9
1 -6 -2 43.4 9.9
1 -6 -2 38.9 8.4
1 -6 -2 53.79 8.4
1 -6 -2 46.9 8.2
1 -6 -2 48.4 7.6
-1 6 2 52.99 9.8
-1 6 2 42.8 9.3
-1 6 2 75.39 15.7
0 -6 -2 2864.11 224.38
0 -6 -2 2674.93 224.08
0 -6 -2 2883.71 225.38
0 -6 -2 2764.02 225.28
0 -6 -2 2709.23 225.18
0 -6 -2 2551.24 226.98
0 6 2 3074.59 244.38
0 6 2 2825.42 228.18
-1 -6 -2 343.27 29.9
-1 -6 -2 316.17 30.3
-1 -6 -2 322.67 32.7
1 6 2 247.58 31.9
-2 -6 -2 828.32 75.59
-2 -6 -2 792.72 69.19
-2 -6 -2 763.92 74.49
-3 -6 -2 19 4.8
-3 -6 -2 19 6.3
-3 -6 -2 16.6 11.3
-3 -6 -2 4.8 6.1
-3 -6 -2 30.9 6
3 6 2 30.3 8
3 6 2 46.6 12.4
-4 -6 -2 58.19 7.6
-4 -6 -2 64.99 10
9 -7 -2 61.19 8.5
-9 7 2 57.89 7.2
8 -7 -2 20.9 4.8
8 -7 -2 13.5 5
8 -7 -2 7.7 5.9
8 -7 -2 10.6 4.8
-8 7 2 7.2 4.6
-8 7 2 12.5 7.2
-8 7 2 14.9 4.1
7 -7 -2 160.08 20.5
7 -7 -2 175.38 21.7
7 -7 -2 200.68 22.3
7 -7 -2 198.28 19.6
-7 7 2 229.88 22.4
-7 7 2 143.49 25.5
-7 7 2 202.28 19.8
6 -7 -2 130.79 25.2
6 -7 -2 134.69 15.9
6 -7 -2 133.09 20.6
6 -7 -2 125.59 16.7
6 -7 -2 160.78 19.5
-6 7 2 87.59 30.2
-6 7 2 151.28 19.1
-6 7 2 89.59 26.4
-6 7 2 177.28 22.7
5 -7 -2 173.68 21
5 -7 -2 155.18 18.7
5 -7 -2 155.38 20.3
5 -7 -2 168.38 19.3
5 -7 -2 149.39 17.7
5 -7 -2 147.59 18.9
-5 7 2 201.08 24.8
-5 7 2 177.08 18.4
4 -7 -2 58.99 12.2
4 -7 -2 88.29 12.6
4 -7 -2 74.69 10.4
4 -7 -2 90.19 11.9
4 -7 -2 67.79 10.2
4 -7 -2 85.69 11.2
-4 7 2 49.4 15.5
-4 7 2 75.99 10.8
3 -7 -2 65.39 9.9
3 -7 -2 74.69 11.9
3 -7 -2 57.59 9.6
3 -7 -2 71.99 9.7
3 -7 -2 58.89 10.8
3 -7 -2 63.99 9.9
-3 7 2 84.69 10.8
-3 7 2 54.29 18.8
2 -7 -2 120.49 17.3
2 -7 -2 152.38 16.4
2 -7 -2 179.08 18.3
2 -7 -2 141.39 16.2
2 -7 -2 143.49 17
2 -7 -2 164.48 19.2
2 -7 -2 151.88 18.7
-2 7 2 131.99 19.6
-2 7 2 174.78 18.5
-2 7 2 120.09 20.4
1 -7 -2 8.3 4.2
1 -7 -2 10.1 4
1 -7 -2 17.1 5.8
1 -7 -2 16.9 6.6
1 -7 -2 14.6 4.5
1 -7 -2 13.2 4.9
1 -7 -2 12.6 5.4
-1 7 2 36.9 11.4
-1 7 2 15 5.8
0 -7 -2 26.5 7.8
0 -7 -2 35.6 7.1
0 -7 -2 21.9 7.4
0 -7 -2 22.5 5.3
0 -7 -2 22.1 7.5
0 -7 -2 31.9 5.8
0 -7 -2 13.5 6.7
0 7 2 13.3 8.1
0 7 2 14.2 10
0 7 2 13.8 6.4
-1 -7 -2 1.4 3.5
-1 -7 -2 24.9 7.8
1 7 2 8.8 9.9
1 7 2 10.2 5.3
-2 -7 -2 8.3 4.9
-2 -7 -2 12.3 3.8
-2 -7 -2 6.4 3
-2 -7 -2 0.9 5
2 7 2 9 4.2
2 7 2 13.8 9.3
2 7 2 6.8 4.4
-3 -7 -2 73.09 11
-3 -7 -2 86.69 9.6
3 7 2 99.59 15.4
3 7 2 100.19 11.5
8 -8 -2 261.87 23.7
8 -8 -2 212.88 21.5
-8 8 2 247.08 22.9
7 -8 -2 85.89 10.5
7 -8 -2 66.29 9.8
7 -8 -2 55.09 10.9
7 -8 -2 86.19 11.5
-7 8 2 74.59 12.9
-7 8 2 88.79 12.3
-7 8 2 74.39 16.6
6 -8 -2 492.45 44.7
6 -8 -2 499.25 41.6
6 -8 -2 413.96 42.6
6 -8 -2 450.05 41.9
6 -8 -2 474.45 43.6
5 -8 -2 241.88 26.1
5 -8 -2 265.47 28.2
5 -8 -2 271.77 26
5 -8 -2 278.97 28.4
5 -8 -2 220.78 26.4
-5 8 2 324.67 27.2
4 -8 -2 327.17 33.4
4 -8 -2 372.36 33.7
4 -8 -2 338.37 35.7
4 -8 -2 348.57 35.9
4 -8 -2 371.86 35.1
-4 8 2 406.66 35
3 -8 -2 117.29 13.4
3 -8 -2 88.79 14.2
3 -8 -2 115.29 16
3 -8 -2 99.29 13.8
3 -8 -2 107.69 14.5
3 -8 -2 113.09 13.1
-3 8 2 116.19 14.7
-3 8 2 71.39 25.9
2 -8 -2 199.78 19.9
2 -8 -2 186.78 22
2 -8 -2 200.98 20
2 -8 -2 168.48 20.2
2 -8 -2 191.08 22.4
-2 8 2 143.89 32.7
-2 8 2 206.58 22.2
1 -8 -2 51.09 11.2
1 -8 -2 57.69 12.4
1 -8 -2 39.5 8.4
1 -8 -2 51.19 8.4
1 -8 -2 64.99 9.1
-1 8 2 43.5 10.8
-1 8 2 84.89 16.6
-1 8 2 67.99 17.8
0 -8 -2 12.6 3.9
0 -8 -2 7.3 3.4
0 -8 -2 11.6 5.6
0 -8 -2 2.4 7.1
0 -8 -2 4.7 3.4
0 8 2 17.7 8
0 8 2 16.6 9.1
0 8 2 6.9 4.8
-1 -8 -2 4.4 2.7
-1 -8 -2 1 2.4
-1 -8 -2 -3.3 3
1 8 2 -0.3 3.3
1 8 2 3.9 5.1
1 8 2 -3.3 2.9
-2 -8 -2 35.6 5
2 8 2 42 9.7
2 8 2 30.3 6
7 -9 -2 4.7 2.8
7 -9 -2 8.3 2.8
7 -9 -2 2.9 3.2
-7 9 2 2.8 4.8
-7 9 2 8.8 4.2
6 -9 -2 41.9 6.6
6 -9 -2 41.5 8.1
6 -9 -2 38.5 6.4
6 -9 -2 45.9 7.4
-6 9 2 25.4 8
5 -9 -2 1.4 3.7
5 -9 -2 0.2 3.8
5 -9 -2 3.6 2.9
5 -9 -2 -0.6 2.4
-5 9 2 0.5 5.4
-5 9 2 -4.7 3.7
-5 9 2 4.8 3.9
-5 9 2 1 3.8
4 -9 -2 38.4 10
4 -9 -2 42.2 6.8
4 -9 -2 27.5 6.8
4 -9 -2 44.8 7
-4 9 2 31.8 9.4
-4 9 2 51.99 16.6
-4 9 2 38.3 11.9
-4 9 2 23.4 7.8
3 -9 -2 3.6 2.9
3 -9 -2 3.7 3.1
3 -9 -2 4.6 2.8
3 -9 -2 8.1 7.7
-3 9 2 4.8 6.9
-3 9 2 -1.8 6
2 -9 -2 17.6 5.7
2 -9 -2 10.1 3.7
2 -9 -2 15.7 5.8
2 -9 -2 11.5 3.9
-2 9 2 25 12.5
-2 9 2 15.4 5.3
-2 9 2 21.1 9.8
1 -9 -2 21.4 7.3
1 -9 -2 28.5 5.4
1 -9 -2 25.7 5.4
1 -9 -2 32.6 7.6
-1 9 2 18.7 6.4
-1 9 2 37.5 7.3
-1 9 2 39.4 10.5
0 -9 -2 7.9 4.7
0 -9 -2 8.5 3.6
0 -9 -2 7.5 2.4
0 9 2 12.6 5
0 9 2 12.5 4.4
5 -10 -2 124.09 14.9
5 -10 -2 141.89 13.5
5 -10 -2 146.89 14.8
4 -10 -2 53.59 7.9
-4 10 2 50.19 13.9
-4 10 2 54.69 11.4
3 -10 -2 165.48 17
3 -10 -2 198.28 18.8
-3 10 2 185.58 22
-4 11 -3 3.5 4.2
-4 11 -3 3 4.6
4 -11 3 3.1 4.2
0 -10 3 131.89 14.8
1 -10 3 128.29 14.2
1 -10 3 125.29 13.9
-2 10 -3 215.78 24.7
-2 10 -3 225.98 30.5
-3 10 -3 318.47 35.5
-3 10 -3 310.97 46.5
-4 10 -3 67.29 12.1
-4 10 -3 81.39 18
-4 10 -3 122.99 25.5
4 -10 3 83.19 10.7
4 -10 3 93.59 11.1
4 -10 3 97.89 11.9
-5 10 -3 183.88 24.3
5 -10 3 193.28 21.5
5 -10 3 233.98 22.3
-6 10 -3 2 3.6
-6 10 -3 -2.2 4.2
-6 10 -3 -0.8 2.9
6 -10 3 -0.7 3.5
6 -10 3 2 2
2 9 -3 3.8 3.3
-2 -9 3 4.4 2.3
-2 -9 3 7.9 2.4
-1 -9 3 103.29 15.6
-1 -9 3 92.29 11.2
-1 -9 3 94.39 11.4
0 9 -3 3.6 4.1
0 9 -3 11.8 8.7
0 9 -3 1 11.1
0 -9 3 7.2 3.6
0 -9 3 0.4 4.4
0 -9 3 6 3
-1 9 -3 110.89 15.5
-1 9 -3 120.69 24.2
1 -9 3 85.89 15
1 -9 3 88.19 12.1
1 -9 3 106.69 13
1 -9 3 91.89 13.2
2 -9 3 228.68 24.1
2 -9 3 262.17 28.1
2 -9 3 241.48 24.2
2 -9 3 215.18 26.1
-3 9 -3 -3.8 7.4
-3 9 -3 3.2 5.7
-3 9 -3 5.3 4.8
-3 9 -3 1.5 5.1
-3 9 -3 4.4 4.7
3 -9 3 3.4 4.2
3 -9 3 5.3 5.7
3 -9 3 6.6 2.9
3 -9 3 3.2 2.4
-4 9 -3 194.68 30.3
-4 9 -3 211.48 27.1
-4 9 -3 253.27 38.3
4 -9 3 232.88 23.4
4 -9 3 206.28 22.9
4 -9 3 280.17 26.6
-5 9 -3 29.5 7.3
-5 9 -3 24.6 10.9
-5 9 -3 11.9 5.9
-5 9 -3 36.9 11.8
5 -9 3 8.1 12.7
5 -9 3 20.4 5.1
5 -9 3 16.4 4.9
5 -9 3 29 6
-6 9 -3 67.59 13.3
6 -9 3 73.39 9.9
6 -9 3 85.79 11.1
-7 9 -3 0.1 5.1
-7 9 -3 4.6 4.5
-7 9 -3 4.9 7
-7 9 -3 3 4.4
7 -9 3 2 2.4
7 -9 3 -0.1 2.6
-8 9 -3 82.19 11.4
-8 9 -3 39 12.3
8 -9 3 74.59 9.2
8 -9 3 55.79 7.5
3 8 -3 -3.3 2.2
-3 -8 3 0.3 1.3
-3 -8 3 5.3 4.6
-3 -8 3 3 2.2
-2 -8 3 39.7 7
-2 -8 3 42.1 7.3
-2 -8 3 36.3 6.2
-2 -8 3 32 8.8
-1 -8 3 98.59 14
-1 -8 3 103.19 13.5
-1 -8 3 141.59 14.8
0 -8 3 95.89 18.5
0 -8 3 89.59 11.5
0 -8 3 84.59 12.1
0 -8 3 56.99 12.9
0 -8 3 109.89 15.4
-1 8 -3 172.98 21
-1 8 -3 151.38 26.3
-1 8 -3 193.38 30.2
-1 8 -3 157.78 25.6
1 -8 3 156.18 16.6
1 -8 3 139.89 18.1
1 -8 3 121.29 17
1 -8 3 140.49 19.7
-2 8 -3 108.89 17.7
-2 8 -3 165.38 19
-2 8 -3 142.49 21
-2 8 -3 88.49 22.2
2 -8 3 151.68 14.8
2 -8 3 127.69 15.8
2 -8 3 117.79 14.6
-3 8 -3 65.99 17.3
-3 8 -3 69.29 12.1
-3 8 -3 57.09 12.3
-3 8 -3 67.09 15
3 -8 3 57.39 9.1
3 -8 3 82.69 11
3 -8 3 77.39 9.5
3 -8 3 70.09 11.7
-4 8 -3 159.78 28.8
-4 8 -3 115.99 21.2
-4 8 -3 131.89 24
-4 8 -3 200.68 21.4
-4 8 -3 155.58 24.8
4 -8 3 196.08 18.8
4 -8 3 177.18 20.5
4 -8 3 155.28 17.4
-5 8 -3 421.76 49.6
-5 8 -3 427.46 53.99
-5 8 -3 402.16 45.1
-5 8 -3 473.75 50.79
5 -8 3 407.36 39.7
5 -8 3 473.05 41.3
5 -8 3 448.26 42.3
-6 8 -3 347.27 40.8
-6 8 -3 302.07 35.4
-6 8 -3 315.87 34.6
6 -8 3 232.78 26.7
-7 8 -3 62.49 14.9
7 -8 3 42 7.3
7 -8 3 30.1 6.9
7 -8 3 32 8.4
7 -8 3 51.79 7.4
-8 8 -3 23.2 6.1
-8 8 -3 16.8 9.4
8 -8 3 18.6 4.7
8 -8 3 28.6 5.1
8 -8 3 15.2 5.6
-9 8 -3 10.8 4.4
9 -8 3 15.2 3.4
9 -8 3 13.3 2.7
4 7 -3 120.09 15.8
-4 -7 3 116.69 14.2
-4 -7 3 82.79 12.7
-4 -7 3 111.59 11.6
3 7 -3 10.7 5.9
3 7 -3 7.5 14
3 7 -3 8.9 6
-3 -7 3 -3.6 4.3
-3 -7 3 4.9 3.1
-3 -7 3 3.6 2.2
-3 -7 3 4.2 3
-2 -7 3 202.78 27.3
-2 -7 3 237.68 25.3
-2 -7 3 278.07 25.5
-2 -7 3 226.08 23.6
-2 -7 3 266.17 27.2
-2 -7 3 237.38 27.4
1 7 -3 7.4 6.7
1 7 -3 -2.3 4.7
1 7 -3 0.3 6.6
1 7 -3 4.7 5.7
1 7 -3 38.4 20.1
-1 -7 3 -1 2.1
-1 -7 3 -3.1 3
-1 -7 3 -0.3 7.2
-1 -7 3 3.9 2.7
-1 -7 3 9.6 4.9
-1 -7 3 -2.1 3.3
0 7 -3 863.31 72.79
0 7 -3 773.32 74.49
0 -7 3 774.62 64.49
0 -7 3 702.33 64.89
0 -7 3 703.23 65.19
-1 7 -3 93.49 25.8
-1 7 -3 65.59 11.2
-1 7 -3 53.39 11.9
-1 7 -3 62.09 19.2
-1 7 -3 55.29 13.5
-1 7 -3 63.59 11.7
1 -7 3 69.79 8.7
1 -7 3 60.99 9.4
1 -7 3 66.99 8.8
1 -7 3 55.69 8.9
-2 7 -3 408.96 49.6
-2 7 -3 566.14 53.09
-2 7 -3 529.55 48.5
-2 7 -3 496.85 49.2
2 -7 3 510.45 43.1
2 -7 3 480.85 44.3
2 -7 3 499.55 43.4
-3 7 -3 14.8 7.2
-3 7 -3 2.5 4.1
-3 7 -3 0.1 3.4
-3 7 -3 18.4 7.5
-3 7 -3 -2.7 6.4
-3 7 -3 -1.4 5.9
-3 7 -3 3 4.6
3 -7 3 -2.4 2.4
3 -7 3 -0.1 1.9
3 -7 3 17 5.5
3 -7 3 4.5 3.4
-4 7 -3 1977.4 167.48
-4 7 -3 1724.83 168.88
-4 7 -3 2034.3 164.38
-4 7 -3 1939.41 172.08
-4 7 -3 1789.82 166.88
4 -7 3 2168.58 159.88
4 -7 3 2022.1 162.28
4 -7 3 2065.69 159.08
4 -7 3 1856.71 158.58
-5 7 -3 18.1 9
-5 7 -3 13.6 8.3
-5 7 -3 10.9 5
-5 7 -3 4.5 7.6
-5 7 -3 18.9 9.5
-5 7 -3 21.7 9.2
5 -7 3 9.4 4.5
5 -7 3 18.8 7
5 -7 3 16.5 6.6
5 -7 3 4.5 7.4
-6 7 -3 1013.7 89.19
6 -7 3 888.31 77.99
6 -7 3 898.11 77.19
6 -7 3 908.11 84.49
6 -7 3 880.81 78.49
-7 7 -3 30.9 12.8
-7 7 -3 47.5 10.6
7 -7 3 19.5 5.6
7 -7 3 27.2 7.2
7 -7 3 32 8.1
7 -7 3 43.3 7.7
-8 7 -3 77.39 13.8
-8 7 -3 102.09 13.9
8 -7 3 66.79 10.5
8 -7 3 75.59 10.5
8 -7 3 83.39 10.2
8 -7 3 77.19 11.5
-9 7 -3 13.7 5.4
9 -7 3 15.9 3.8
9 -7 3 13.2 3.6
9 -7 3 24.3 4.7
5 6 -3 43.3 8.5
-5 -6 3 64.19 9
-5 -6 3 41.5 6.2
-5 -6 3 44.5 6.6
4 6 -3 -2.9 3.1
4 6 -3 4.4 9.7
4 6 -3 1.7 3.9
-4 -6 3 -0.3 2.7
-4 -6 3 1.1 3.2
-4 -6 3 3.3 2.8
-4 -6 3 -3.6 2.1
3 6 -3 5 4.6
3 6 -3 -11.9 14.7
3 6 -3 8.2 6.2
-3 -6 3 6.2 3
-3 -6 3 5.2 5.4
-3 -6 3 -0.2 2.3
-3 -6 3 2.7 2.9
-3 -6 3 16.6 5.6
2 6 -3 19.3 10.6
2 6 -3 20.1 16.5
2 6 -3 17.1 8.8
2 6 -3 1.9 6.9
-2 -6 3 21.8 5.1
-2 -6 3 15 4.8
-2 -6 3 5.4 6.3
-2 -6 3 14.5 7.1
1 6 -3 319.67 34.5
1 6 -3 313.27 34.3
1 6 -3 285.97 44.8
1 6 -3 224.88 37.2
-1 -6 3 295.67 28.6
-1 -6 3 323.17 28.5
-1 -6 3 276.57 31.4
-1 -6 3 324.67 27.8
-1 -6 3 291.47 28.6
0 6 -3 78.49 15
0 6 -3 88.59 16.4
0 6 -3 96.49 14.9
0 6 -3 72.29 18.2
0 6 -3 68.99 11.5
0 6 -3 99.69 20.6
0 -6 3 104.59 11.4
0 -6 3 113.69 10.8
0 -6 3 102.79 10.9
0 -6 3 70.69 14.1
0 -6 3 100.09 13.5
0 -6 3 104.69 12.4
-1 6 -3 1056.49 83.69
-1 6 -3 873.71 76.59
-1 6 -3 838.52 82.69
-1 6 -3 717.03 76.39
-1 6 -3 778.62 78.09
1 -6 3 1018.1 72.79
1 -6 3 869.51 74.49
-2 6 -3 7.4 4.8
-2 6 -3 6.1 4.7
-2 6 -3 4.6 5.4
-2 6 -3 9.4 8.2
-2 6 -3 10.3 8.9
-2 6 -3 17.3 9.1
2 -6 3 7.9 2.6
2 -6 3 4.9 2.4
2 -6 3 18.1 6.1
2 -6 3 8.2 3.1
-3 6 -3 760.92 64.19
-3 6 -3 623.54 63.69
-3 6 -3 745.43 63.49
-3 6 -3 648.54 65.39
-3 6 -3 622.64 68.09
-3 6 -3 796.92 67.39
-3 6 -3 652.83 64.59
3 -6 3 693.03 58.39
3 -6 3 728.13 58.39
3 -6 3 714.53 60.99
3 -6 3 695.73 62.29
3 -6 3 677.33 58.59
-4 6 -3 785.12 71.39
-4 6 -3 692.53 68.99
-4 6 -3 828.82 69.29
-4 6 -3 738.73 69.89
-4 6 -3 647.84 71.79
-4 6 -3 718.63 72.19
-4 6 -3 749.23 73.69
4 -6 3 763.92 64.19
4 -6 3 779.22 65.09
4 -6 3 835.72 67.29
4 -6 3 818.32 69.59
4 -6 3 839.62 64.99
-5 6 -3 29.5 5.7
-5 6 -3 41 8.5
-5 6 -3 34.3 9.4
-5 6 -3 44.1 12.6
-5 6 -3 40.7 12.4
-5 6 -3 36 10
-5 6 -3 33.9 10.1
-5 6 -3 29.2 7.8
5 -6 3 33.9 6.8
5 -6 3 43.8 12.8
5 -6 3 46.7 9
-6 6 -3 676.23 58.79
-6 6 -3 722.13 69.19
6 -6 3 727.23 64.49
6 -6 3 678.93 57.09
6 -6 3 610.94 57.49
6 -6 3 623.94 58.79
6 -6 3 676.13 57.79
6 -6 3 571.34 57.79
-7 6 -3 2.5 5.9
-7 6 -3 5 10.7
-7 6 -3 8.9 8.3
-7 6 -3 12.3 6.6
-7 6 -3 4 4.9
7 -6 3 13.4 7.6
7 -6 3 7.1 4
-8 6 -3 373.56 37.4
-8 6 -3 446.46 38.6
-8 6 -3 338.07 45.1
-8 6 -3 470.15 37.5
8 -6 3 409.76 35.7
8 -6 3 367.16 42
8 -6 3 386.16 37.4
8 -6 3 388.96 36.7
8 -6 3 389.86 37.7
-9 6 -3 -1.7 2.6
9 -6 3 -0.1 2.6
9 -6 3 -1.3 2.2
9 -6 3 0.2 2.4
9 -6 3 2.7 5.5
6 5 -3 1.3 2.8
6 5 -3 4.8 2.6
6 5 -3 3.7 6.1
-6 -5 3 -1.3 1.9
-6 -5 3 0.3 1.8
-6 -5 3 -2.1 2.6
5 5 -3 8.2 4.6
5 5 -3 16.9 12
5 5 -3 8.8 5
-5 -5 3 7 4.6
-5 -5 3 8.3 3.6
-5 -5 3 5.4 2.9
4 5 -3 17.9 6.7
4 5 -3 17.1 17
4 5 -3 20.5 7.4
-4 -5 3 26.5 7.4
-4 -5 3 14.2 5.2
-4 -5 3 13.3 5.8
-4 -5 3 16 4.9
-4 -5 3 11.6 4.3
3 5 -3 41.7 11.5
3 5 -3 42.7 25.2
3 5 -3 36.2 10.3
-3 -5 3 44.1 11.1
-3 -5 3 46.4 7.6
2 5 -3 194.18 25.1
2 5 -3 257.07 32.7
2 5 -3 200.08 37.4
-2 -5 3 214.68 24.1
-2 -5 3 246.38 23.4
-2 -5 3 189.18 27.7
-2 -5 3 237.88 26.8
-2 -5 3 253.97 22.9
-2 -5 3 270.07 22.5
1 5 -3 89.09 11.5
1 5 -3 98.69 25.3
1 5 -3 129.19 19.5
1 5 -3 86.49 17.1
-1 -5 3 92.29 13.2
-1 -5 3 76.79 13.7
-1 -5 3 99.29 10.4
-1 -5 3 105.39 10.9
-1 -5 3 109.69 11.7
0 5 -3 546.45 51.69
0 -5 3 628.84 52.09
0 -5 3 666.43 49.4
0 -5 3 628.94 50.19
0 -5 3 489.05 52.39
-1 5 -3 152.68 18
1 -5 3 165.38 16.1
1 -5 3 164.68 16
1 -5 3 167.28 14.6
1 -5 3 149.79 17.4
1 -5 3 175.58 15.3
-2 5 -3 55.29 9.3
2 -5 3 35.8 4.6
2 -5 3 40.5 4.5
2 -5 3 49.4 6
2 -5 3 44.2 6.3
2 -5 3 48.2 5.1
-3 5 -3 100.59 15.8
3 -5 3 91.89 11.3
3 -5 3 92.49 9.7
3 -5 3 90.09 9.7
3 -5 3 90.59 11.8
-4 5 -3 149.69 18.6
-4 5 -3 139.89 20.5
-4 5 -3 136.79 15.5
-4 5 -3 158.48 20.8
-4 5 -3 164.78 23.1
-4 5 -3 151.38 19.2
-4 5 -3 160.08 21.7
4 -5 3 166.88 16.2
4 -5 3 144.19 14.9
4 -5 3 184.58 18.6
4 -5 3 169.28 17.1
4 -5 3 171.58 16.2
-5 5 -3 30.2 9.5
-5 5 -3 38.7 10.1
-5 5 -3 22.4 6.6
-5 5 -3 25.5 9.2
-5 5 -3 28.4 9.6
-5 5 -3 26.6 10.5
5 -5 3 21.5 6.2
5 -5 3 11.8 5.9
5 -5 3 10 6.1
5 -5 3 22 5.3
5 -5 3 13.1 4.4
-6 5 -3 150.48 20.3
-6 5 -3 118.09 24.4
-6 5 -3 156.68 21.1
-6 5 -3 140.29 23.9
6 -5 3 103.09 14.4
6 -5 3 132.09 18.2
6 -5 3 99.39 13.7
6 -5 3 91.59 15.5
6 -5 3 128.49 19.6
-7 5 -3 6.4 6.7
-7 5 -3 17.7 9.2
-7 5 -3 18.6 6.8
-7 5 -3 36.7 15.2
-7 5 -3 37 7.7
-7 5 -3 28 7.4
7 -5 3 11 4.4
7 -5 3 27.6 9.1
7 -5 3 23.1 8.6
7 -5 3 22.5 7.1
7 -5 3 15.4 5.2
-8 5 -3 -0.5 3.9
-8 5 -3 -0.4 3.4
-8 5 -3 -1 4.8
-8 5 -3 -2.1 5.1
-8 5 -3 -8.3 8.6
8 -5 3 5.9 6.6
8 -5 3 -3.9 3.1
8 -5 3 6.1 3.4
8 -5 3 5.9 4.5
8 -5 3 6.6 3.3
-9 5 -3 2.9 3.6
-9 5 -3 2.1 2.7
9 -5 3 4.7 3.6
9 -5 3 5.5 4.9
9 -5 3 6.8 2.8
9 -5 3 9.8 3.9
7 4 -3 320.47 26
-7 -4 3 238.38 25.4
6 4 -3 85.69 11.7
6 4 -3 68.29 14.7
-6 -4 3 74.99 12
-5 -4 3 1120.59 91.59
-5 -4 3 1148.89 91.59
-5 -4 3 1076.49 94.49
-5 -4 3 1055.89 92.79
-4 -4 3 971.4 87.69
-4 -4 3 1067.19 86.29
-4 -4 3 1018.9 85.29
-4 -4 3 1050.19 85.29
-4 -4 3 999.4 86.29
3 4 -3 3468.95 305.97
-3 -4 3 3777.92 306.67
-3 -4 3 3316.97 303.07
-3 -4 3 3549.24 301.07
-3 -4 3 4092.29 301.97
-3 -4 3 3932.71 302.37
-3 -4 3 4287.07 301.47
2 4 -3 4826.32 407.96
-2 -4 3 5325.77 402.96
-2 -4 3 5408.46 403.36
-2 -4 3 5152.98 407.16
-2 -4 3 4693.83 403.66
1 4 -3 1480.75 126.49
1 4 -3 1473.35 123.19
-1 -4 3 1613.54 121.79
-1 -4 3 1571.24 124.89
-1 -4 3 1440.56 122.39
0 4 -3 4485.35 332.37
0 4 -3 4500.35 330.07
0 -4 3 3859.91 328.47
0 -4 3 3977.8 327.17
0 -4 3 3849.42 325.97
-1 4 -3 34.3 6.6
-1 4 -3 35 6.1
1 -4 3 31.1 4
1 -4 3 26.5 4.3
1 -4 3 30 5.2
1 -4 3 36.1 3.7
-2 4 -3 6160.38 485.65
2 -4 3 6028 481.15
-3 4 -3 41.6 7.9
-3 4 -3 33.5 5.1
3 -4 3 37.3 6.2
3 -4 3 43.8 5.2
3 -4 3 44 4.8
3 -4 3 38.5 6.1
4 -4 3 4796.92 385.66
4 -4 3 4912.01 385.06
4 -4 3 5036.6 385.06
4 -4 3 4655.93 384.86
-5 4 -3 34.6 13
-5 4 -3 53.79 10.6
-5 4 -3 56.79 13.5
-5 4 -3 49.99 10.9
5 -4 3 31.8 9
5 -4 3 32.7 5.6
5 -4 3 31 6.4
5 -4 3 36.1 9.9
-6 4 -3 475.35 56.99
-6 4 -3 569.14 50.79
6 -4 3 529.45 47.2
6 -4 3 570.64 51.69
6 -4 3 514.95 48
6 -4 3 468.55 45
6 -4 3 506.05 46.1
-7 4 -3 103.49 21.5
-7 4 -3 70.19 12.6
7 -4 3 79.89 14.8
7 -4 3 102.79 16.4
7 -4 3 90.49 12.5
7 -4 3 91.49 13.8
7 -4 3 90.69 11.4
7 -4 3 78.69 11.7
-8 4 -3 106.39 15.3
-8 4 -3 146.69 21.5
-8 4 -3 104.79 18.6
-8 4 -3 139.19 18.4
8 -4 3 134.79 15.6
8 -4 3 125.19 19.7
8 -4 3 128.79 14.1
8 -4 3 127.99 15.7
8 -4 3 118.29 15
-9 4 -3 6 8
-9 4 -3 -3.3 2.1
-9 4 -3 0.1 2.4
9 -4 3 -3.2 2.6
9 -4 3 0.6 2.4
9 -4 3 -2.8 2.3
8 3 -3 -0.5 3.1
8 3 -3 -0.5 2.1
-8 -3 3 0.7 2.3
7 3 -3 36.3 12.6
7 3 -3 26.6 6.5
-7 -3 3 16.6 5.3
-7 -3 3 10.7 4.1
-7 -3 3 33.8 9.9
6 3 -3 41 9.9
-6 -3 3 78.89 16.5
-6 -3 3 37.6 7.7
-6 -3 3 69.39 9
-6 -3 3 51.99 7.5
-6 -3 3 75.29 14.2
-6 -3 3 67.39 11.1
5 3 -3 43.3 11.9
5 3 -3 47.8 14.2
-5 -3 3 56.59 8.7
-5 -3 3 59.09 8.6
-5 -3 3 45.9 9.8
-5 -3 3 50.59 7.8
-5 -3 3 39.9 9.7
4 3 -3 152.68 20.5
4 3 -3 210.48 26.9
4 3 -3 191.88 22.8
-4 -3 3 193.78 19.4
-4 -3 3 184.58 18.8
-4 -3 3 185.68 20.8
-4 -3 3 194.48 28.3
-4 -3 3 200.08 19.7
-4 -3 3 192.58 18.7
3 3 -3 150.78 19.4
3 3 -3 178.68 22.1
3 3 -3 139.49 23
-3 -3 3 171.08 16.9
-3 -3 3 179.28 16.6
-3 -3 3 190.98 20.4
-3 -3 3 173.38 17.4
2 3 -3 1253.67 121.69
2 3 -3 1543.95 121.79
-2 -3 3 1581.74 118.39
1 3 -3 873.91 70.29
1 3 -3 701.53 66.09
-1 -3 3 790.12 67.29
-1 -3 3 855.91 63.89
0 3 -3 1082.09 88.39
0 -3 3 1023.9 84.19
0 -3 3 1079.09 84.39
1 -3 3 2714.03 215.68
-2 3 -3 370.96 31.3
-2 3 -3 398.96 38.3
2 -3 3 398.76 31.5
2 -3 3 414.76 32.8
2 -3 3 351.66 31.5
-3 3 -3 277.17 28.3
3 -3 3 310.17 25.6
3 -3 3 293.97 25.6
3 -3 3 303.47 25.9
-4 3 -3 7.4 3.8
4 -3 3 11.1 2.9
4 -3 3 10.3 4.2
4 -3 3 9.2 2.9
4 -3 3 12.2 3.4
5 -3 3 190.28 17.9
5 -3 3 181.88 19.3
5 -3 3 196.48 22.2
-6 3 -3 139.19 17.9
6 -3 3 136.99 20.3
6 -3 3 150.48 15.9
6 -3 3 164.48 17
6 -3 3 145.29 18.8
6 -3 3 179.18 21
6 -3 3 155.08 17.6
-7 3 -3 377.76 33.8
-7 3 -3 286.07 38.8
-7 3 -3 287.07 31.7
7 -3 3 327.87 30.4
7 -3 3 261.67 34.4
7 -3 3 330.57 32.5
7 -3 3 324.77 31.4
7 -3 3 330.77 29.6
-8 3 -3 165.58 24.3
-8 3 -3 167.58 23.3
-8 3 -3 179.88 21.5
8 -3 3 185.08 22.3
8 -3 3 247.58 27
8 -3 3 187.78 20.8
8 -3 3 217.48 19.5
8 -3 3 220.58 22.5
-9 3 -3 7.1 3.5
-9 3 -3 6.1 4.2
-9 3 -3 15.4 4.7
-9 3 -3 10.8 3.5
9 -3 3 11.8 4.1
9 -3 3 17 4.8
8 2 -3 17 4.6
-8 -2 3 21.8 5.6
-8 -2 3 9.3 5.5
7 2 -3 162.58 20.1
-7 -2 3 164.88 20
-7 -2 3 159.58 18.5
-7 -2 3 143.69 15.1
6 2 -3 40.5 9.1
6 2 -3 50.89 10.7
-6 -2 3 41.4 9.7
-6 -2 3 28.4 8.7
-6 -2 3 36.8 6.4
-6 -2 3 36.4 6.9
-6 -2 3 25.7 6.5
-6 -2 3 45.9 7.4
5 2 -3 823.52 73.19
5 2 -3 852.81 73.29
5 2 -3 956.9 74.19
-5 -2 3 780.52 70.69
-5 -2 3 718.83 71.79
-5 -2 3 833.52 69.09
-5 -2 3 784.42 68.69
-5 -2 3 807.72 68.09
-5 -2 3 775.12 67.99
4 2 -3 10.2 5
4 2 -3 13.9 6.5
4 2 -3 10.4 3.9
4 2 -3 13.5 6.4
-4 -2 3 17 4.4
-4 -2 3 10.7 3.5
-4 -2 3 14.7 4
-4 -2 3 11.1 5.2
-4 -2 3 12.8 6
-3 -2 3 242.68 24
-3 -2 3 227.28 20.9
-3 -2 3 238.18 21.3
2 2 -3 46.8 7.4
-2 -2 3 51.19 5.4
-2 -2 3 52.19 5.7
-2 -2 3 48.1 5.5
-2 -2 3 46.5 7
0 2 -3 2078.79 159.18
0 -2 3 1877.71 157.78
-1 2 -3 6283.77 497.25
-2 2 -3 3163.68 251.97
2 -2 3 2900.11 249.88
2 -2 3 3407.46 249.48
3 -2 3 83.99 10.9
3 -2 3 97.99 9.7
3 -2 3 90.29 8.8
3 -2 3 98.79 9.6
-4 2 -3 256.07 21.2
4 -2 3 213.28 23
4 -2 3 213.98 21.2
4 -2 3 201.98 20.7
4 -2 3 236.98 21.4
-5 2 -3 119.09 13.4
5 -2 3 108.39 12.1
5 -2 3 100.69 12.4
5 -2 3 103.69 14.5
5 -2 3 85.69 11.2
5 -2 3 98.09 14.7
5 -2 3 115.89 14.5
-6 2 -3 353.36 37.2
6 -2 3 415.26 38
6 -2 3 284.17 30.9
6 -2 3 316.97 39.2
6 -2 3 354.36 32.6
-7 2 -3 211.28 26.4
-7 2 -3 226.18 28.9
7 -2 3 267.07 30
7 -2 3 259.87 24.3
7 -2 3 297.77 31.2
7 -2 3 261.97 23.5
7 -2 3 190.18 25.6
7 -2 3 234.18 26
-8 2 -3 -2.6 3.1
-8 2 -3 -0.3 2.8
-8 2 -3 -1.6 2.9
8 -2 3 4.2 4
8 -2 3 1.9 3.8
8 -2 3 7.7 7.2
8 -2 3 1.9 2.4
8 -2 3 -1.5 2.1
-9 2 -3 18 4.6
-9 2 -3 11.6 4
-9 2 -3 20.4 4.8
9 1 -3 4.4 2.1
9 1 -3 6.2 5.5
-9 -1 3 5.3 2.4
-8 -1 3 98.49 12.3
-8 -1 3 83.29 12.9
-7 -1 3 80.49 9.4
-7 -1 3 65.09 10.8
-7 -1 3 101.39 11.8
6 1 -3 204.58 25.5
6 1 -3 165.08 20.6
6 1 -3 169.98 21.6
6 1 -3 200.78 20.6
-6 -1 3 141.09 19.2
-6 -1 3 157.78 16.3
-6 -1 3 139.29 16.2
-6 -1 3 131.69 16.4
-6 -1 3 173.78 19.3
-6 -1 3 138.59 15.5
5 1 -3 890.31 74.39
5 1 -3 949.8 75.19
5 1 -3 768.52 75.99
5 1 -3 835.92 74.89
-5 -1 3 889.61 72.39
-5 -1 3 735.13 74.29
-5 -1 3 882.41 71.89
-5 -1 3 873.81 74.19
-5 -1 3 940.71 72.89
-5 -1 3 941.61 76.49
-5 -1 3 839.72 71.89
4 1 -3 338.87 32.6
4 1 -3 309.17 34
4 1 -3 405.26 34.2
-4 -1 3 357.26 30.6
-4 -1 3 369.16 33.6
-4 -1 3 352.86 31
-4 -1 3 339.17 31.8
3 1 -3 2718.93 245.18
-3 -1 3 3219.88 243.78
-3 -1 3 3267.07 246.18
2 1 -3 437.16 44
2 1 -3 509.35 44.5
2 1 -3 574.34 44.7
-2 -1 3 478.35 44.8
-2 -1 3 550.84 44.7
-2 -1 3 562.74 43.4
-2 -1 3 541.85 42.9
1 1 -3 5933.31 416.96
1 1 -3 4620.04 416.66
0 1 -3 4994.1 395.66
-1 1 -3 2250.27 187.88
-1 1 -3 2471.25 189.58
1 -1 3 2401.76 188.98
-2 1 -3 4582.34 338.27
-2 1 -3 4062.39 337.77
2 -1 3 4177.68 338.67
-3 1 -3 66.29 6.6
-3 1 -3 52.19 5.6
3 -1 3 63.89 11.2
3 -1 3 49.1 7.8
3 -1 3 36.3 7.3
3 -1 3 51.29 6.5
4 -1 3 2690.93 209.98
4 -1 3 2475.05 207.08
-5 1 -3 642.94 52.89
-5 1 -3 583.14 52.39
5 -1 3 465.05 48.5
5 -1 3 513.95 48.4
5 -1 3 655.13 54.09
5 -1 3 574.34 51.69
5 -1 3 598.74 54.19
-6 1 -3 1802.72 171.08
-6 1 -3 1888.01 175.38
6 -1 3 2354.46 169.78
6 -1 3 2103.89 168.18
6 -1 3 2421.66 175.48
6 -1 3 2065.19 167.18
6 -1 3 1889.01 170.28
-7 1 -3 355.96 36.9
-7 1 -3 327.67 38.3
-7 1 -3 344.67 39.8
7 -1 3 330.07 35
7 -1 3 342.07 39.8
7 -1 3 344.07 31.6
7 -1 3 419.66 42.7
7 -1 3 361.66 33.1
7 -1 3 414.76 36.8
7 -1 3 264.17 41.7
-8 1 -3 120.89 14.6
-8 1 -3 95.49 12.4
8 -1 3 127.39 15.6
8 -1 3 75.39 11.2
-9 1 -3 4.3 2.3
-9 1 -3 -0.1 2.3
9 -1 3 3.1 3.7
-9 0 3 16.9 4.9
-9 0 3 22.4 4.4
8 0 -3 165.48 19.5
-8 0 3 122.49 15
-8 0 3 118.29 15.9
7 0 -3 19.1 6.6
7 0 -3 10.2 5.3
7 0 -3 4.7 15
-7 0 3 5.6 4.8
-7 0 3 6.9 4.3
-7 0 3 9.8 3.3
6 0 -3 887.31 82.69
6 0 -3 972 82.99
6 0 -3 872.41 72.69
6 0 -3 971 75.49
-6 0 3 743.33 70.89
-6 0 3 771.12 71.29
-6 0 3 867.31 75.09
5 0 -3 62.89 9.4
5 0 -3 76.39 11.2
5 0 -3 83.99 13
-5 0 3 73.49 8.7
-5 0 3 74.19 10
-5 0 3 63.49 9.9
-5 0 3 79.19 9.3
-5 0 3 81.79 11.5
-5 0 3 79.99 11
-5 0 3 80.69 9.3
4 0 -3 8715.23 632.84
4 0 -3 7753.12 631.94
-4 0 3 7732.93 629.34
-4 0 3 7519.95 631.04
-4 0 3 8125.89 629.04
3 0 -3 3.5 2.1
3 0 -3 13.2 4.3
3 0 -3 1.7 1.6
-3 0 3 6.6 2.3
-3 0 3 5.9 2.5
-3 0 3 2.3 1.3
-3 0 3 5.9 2.4
2 0 -3 4823.72 361.86
2 0 -3 3803.12 356.06
2 0 -3 4252.57 357.06
2 0 -3 4635.74 357.16
-2 0 3 5003.9 355.76
-2 0 3 4515.65 359.06
1 0 -3 478.35 39.7
1 0 -3 398.46 38.3
-1 0 3 522.15 38.5
0 0 -3 803.82 67.79
0 0 -3 885.71 66.49
0 0 3 814.62 66.19
0 0 3 796.72 66.79
-1 0 -3 995.8 90.39
-1 0 -3 1241.38 89.79
-1 0 -3 1122.49 88.29
-1 0 -3 1210.18 89.19
-1 0 -3 1174.48 87.79
1 0 3 1047.5 90.49
1 0 3 967.3 91.19
-2 0 -3 470.55 41.5
-2 0 -3 607.24 44.1
-2 0 -3 521.15 41.7
-2 0 -3 469.65 42.8
-2 0 -3 451.75 44
2 0 3 602.94 47.7
-3 0 -3 2863.71 244.88
-3 0 -3 3135.19 243.68
-3 0 -3 3389.86 246.28
-3 0 -3 2901.11 247.18
-4 0 -3 9.1 3.9
-4 0 -3 9.4 4
-4 0 -3 8.2 4.6
4 0 3 22.2 5.2
4 0 3 12.8 3.9
4 0 3 16.9 6.3
-5 0 -3 206.18 25.4
-5 0 -3 230.58 26.9
-5 0 -3 205.68 26.3
-5 0 -3 267.07 27.9
5 0 3 294.57 29.5
5 0 3 273.37 23.8
5 0 3 294.77 24.6
5 0 3 240.38 26.1
-6 0 -3 6.5 7.7
-6 0 -3 3.1 5.8
-6 0 -3 3.1 5
-6 0 -3 10.6 5.8
6 0 3 3.3 3.6
6 0 3 2.6 3
6 0 3 4.7 2.9
6 0 3 3.1 5.1
6 0 3 9.4 5.5
6 0 3 1.6 5.2
-7 0 -3 53.99 10.1
-7 0 -3 39 10
7 0 3 59.89 9.9
7 0 3 31.2 8.1
7 0 3 44.7 6.6
7 0 3 31.6 6.4
8 0 3 62.59 10.3
8 0 3 72.89 10.1
9 -1 -3 43.1 9.9
9 -1 -3 53.39 7.3
-9 1 3 37.3 7.5
8 -1 -3 4.9 5.2
8 -1 -3 7.1 4.6
-8 1 3 0.9 3.4
-8 1 3 5.4 3.8
7 -1 -3 141.79 26.5
7 -1 -3 132.49 12.1
7 -1 -3 127.79 16.2
7 -1 -3 147.19 19.7
7 -1 -3 106.99 17.8
-7 1 3 91.29 11.9
-7 1 3 92.39 14.6
-7 1 3 119.09 14.8
6 -1 -3 124.09 11.8
6 -1 -3 116.99 16.2
6 -1 -3 92.49 13.9
-6 1 3 108.19 13
-6 1 3 102.49 13.6
-6 1 3 95.59 14.4
-6 1 3 108.69 12.1
-6 1 3 98.49 13.3
-6 1 3 92.59 11
-6 1 3 108.49 11.6
-6 1 3 73.09 14.5
5 -1 -3 758.82 68.19
5 -1 -3 667.43 61.99
5 -1 -3 707.63 62.59
5 -1 -3 649.93 63.99
5 -1 -3 868.21 65.89
5 -1 -3 626.74 64.29
5 -1 -3 843.72 64.29
5 -1 -3 718.53 64.99
5 -1 -3 631.54 65.79
-5 1 3 738.83 61.89
-5 1 3 755.02 64.59
-5 1 3 812.02 62.09
-5 1 3 844.72 62.89
-5 1 3 769.82 63.29
-5 1 3 829.12 64.49
4 -1 -3 12.7 4.1
4 -1 -3 14.7 4.5
4 -1 -3 14.1 4.2
4 -1 -3 19.6 4
4 -1 -3 27.5 6
-4 1 3 20 4.3
-4 1 3 15.7 3.6
-4 1 3 16 4.1
-4 1 3 18.2 3.5
-4 1 3 19.1 4
3 -1 -3 820.12 63.19
3 -1 -3 617.64 61.99
3 -1 -3 811.32 61.59
3 -1 -3 692.53 60.59
3 -1 -3 604.34 60.89
-3 1 3 787.32 60.39
-3 1 3 809.12 61.19
-3 1 3 760.72 61.19
2 -1 -3 108.09 11.6
2 -1 -3 113.29 11.8
2 -1 -3 104.09 11.6
2 -1 -3 114.79 12.3
2 -1 -3 128.09 12.5
2 -1 -3 108.79 11.1
-2 1 3 110.39 11.2
-2 1 3 126.69 12.9
-2 1 3 127.29 12
-2 1 3 113.69 10.7
1 -1 -3 3.4 1.9
1 -1 -3 3.3 1.7
1 -1 -3 4.3 1.6
1 -1 -3 2.9 1.3
1 -1 -3 4.5 1.5
1 -1 -3 5.2 1.6
-1 1 3 3.7 1.4
-1 1 3 2.4 1.2
-1 1 3 3.3 1.4
-1 1 3 3 1.2
0 -1 -3 206.78 19.1
0 -1 -3 214.08 19.4
0 -1 -3 212.48 19.3
0 -1 -3 245.68 20.8
0 -1 -3 211.88 19.6
0 1 3 246.78 19.8
0 1 3 220.58 19.9
0 1 3 221.28 19.8
0 1 3 256.87 21.3
0 1 3 227.78 20.6
-1 -1 -3 225.38 20.2
-1 -1 -3 241.68 19.6
-1 -1 -3 229.88 19.6
-1 -1 -3 262.47 21.6
1 1 3 179.78 22.2
-2 -1 -3 526.05 40.4
-2 -1 -3 453.45 37.9
-2 -1 -3 439.76 37.4
-2 -1 -3 420.66 38.5
-2 -1 -3 449.16 38.6
-2 -1 -3 436.66 40.3
-3 -1 -3 196.38 17.7
-3 -1 -3 232.98 21.4
-3 -1 -3 212.78 18.7
-3 -1 -3 155.28 18.7
-3 -1 -3 185.48 25.8
-3 -1 -3 199.18 19.4
-4 -1 -3 199.78 20.9
-4 -1 -3 159.88 22.4
-4 -1 -3 145.29 20.1
-4 -1 -3 151.58 18.6
-4 -1 -3 185.88 21.1
-4 -1 -3 191.78 21.3
4 1 3 217.48 18.8
4 1 3 203.48 20.9
-5 -1 -3 53.69 11.2
-5 -1 -3 55.19 11.7
5 1 3 62.19 12.5
5 1 3 75.59 11.2
5 1 3 62.59 12.7
5 1 3 69.39 8.6
5 1 3 40.2 8.6
5 1 3 59.99 8.3
-6 -1 -3 24.9 12.4
-6 -1 -3 16.8 7.3
-6 -1 -3 25.5 7.7
6 1 3 33.2 8.2
6 1 3 38.8 7.9
6 1 3 29.5 8.7
6 1 3 36.2 10.8
6 1 3 36.8 5.7
6 1 3 19.7 5.2
-7 -1 -3 6.7 4.7
-7 -1 -3 1.4 4.5
7 1 3 9.7 4
7 1 3 5.1 4.5
7 1 3 11.5 5.7
-8 -1 -3 16.9 4.8
-8 -1 -3 28.6 5.4
8 1 3 16.8 4.2
9 -2 -3 0.2 3.6
9 -2 -3 3.8 4.2
9 -2 -3 5.1 4.2
-9 2 3 1.2 2.7
-9 2 3 5.7 3.2
8 -2 -3 102.09 14.7
8 -2 -3 108.99 16.6
-8 2 3 95.19 12.7
-8 2 3 94.09 13.4
7 -2 -3 2.9 4.1
7 -2 -3 6.7 6.2
7 -2 -3 -0.2 6.4
7 -2 -3 9.6 3.6
7 -2 -3 0 7.2
7 -2 -3 7.9 3.2
-7 2 3 3.1 7.6
-7 2 3 3.8 3.5
-7 2 3 -2.4 3.2
6 -2 -3 227.38 28.3
6 -2 -3 187.98 22.6
6 -2 -3 220.88 20.2
6 -2 -3 212.68 24.9
6 -2 -3 188.58 22
6 -2 -3 237.98 22.3
6 -2 -3 184.78 20.1
6 -2 -3 187.78 22.7
-6 2 3 219.38 21.7
-6 2 3 199.58 22.4
-6 2 3 176.88 18.9
-6 2 3 215.58 21
-6 2 3 206.78 19.6
5 -2 -3 22.7 5.2
5 -2 -3 18 5.6
5 -2 -3 20.5 5.3
5 -2 -3 25.9 9
5 -2 -3 26.1 7.1
5 -2 -3 21.1 5.3
5 -2 -3 18.3 5.8
5 -2 -3 24.1 6.6
-5 2 3 29.4 6
-5 2 3 21.8 5.1
-5 2 3 22.5 6.6
-5 2 3 26.6 5.5
-5 2 3 24.5 5.2
-5 2 3 37.5 6.2
-5 2 3 24.8 4.5
4 -2 -3 436.86 44.5
4 -2 -3 529.75 46.9
4 -2 -3 432.56 45.2
4 -2 -3 464.85 47
4 -2 -3 465.05 45.9
4 -2 -3 492.05 45.2
4 -2 -3 552.04 48.5
-4 2 3 583.14 44.9
-4 2 3 581.14 45.3
-4 2 3 616.24 44.6
-4 2 3 591.24 46.4
-4 2 3 614.14 47.6
3 -2 -3 445.16 39.2
3 -2 -3 393.56 37.5
3 -2 -3 426.46 37.3
3 -2 -3 410.46 36.8
3 -2 -3 414.16 37.4
3 -2 -3 422.26 38.5
-3 2 3 500.95 38.3
-3 2 3 470.65 37.7
-3 2 3 397.66 36.2
2 -2 -3 932.31 78.89
2 -2 -3 929.81 78.09
2 -2 -3 1003 77.49
2 -2 -3 906.21 77.59
-2 2 3 888.31 77.19
-2 2 3 975.8 77.89
-2 2 3 988 78.29
1 -2 -3 1382.26 108.89
1 -2 -3 1407.76 110.69
1 -2 -3 1308.87 108.39
1 -2 -3 1267.87 109.49
1 -2 -3 1319.77 110.09
1 -2 -3 1280.37 108.19
-1 2 3 1272.07 108.59
-1 2 3 1495.65 110.49
-1 2 3 1414.76 109.39
0 -2 -3 1215.38 103.29
0 -2 -3 1192.08 103.19
0 -2 -3 1307.67 105.19
0 -2 -3 1200.78 102.79
0 2 3 1351.86 103.69
0 2 3 1295.77 104.39
0 2 3 1367.06 105.49
0 2 3 1382.26 104.29
0 2 3 1225.08 103.49
-1 -2 -3 888.71 72.79
-1 -2 -3 909.51 73.59
-1 -2 -3 885.81 75.19
-1 -2 -3 994.8 76.09
-1 -2 -3 859.41 73.89
-1 -2 -3 932.11 73.69
1 2 3 784.92 77.39
1 2 3 868.91 76.59
1 2 3 945.01 74.49
-2 -2 -3 315.37 28.9
-2 -2 -3 319.17 27.9
-2 -2 -3 309.77 28.6
-2 -2 -3 338.37 31.4
-2 -2 -3 332.87 29.2
-2 -2 -3 312.87 28.3
2 2 3 328.47 34.1
-3 -2 -3 464.05 39.2
-3 -2 -3 463.25 38.4
-3 -2 -3 463.25 40.3
-3 -2 -3 428.86 43.2
-3 -2 -3 462.55 39.1
-3 -2 -3 460.35 42.7
-3 -2 -3 391.66 39
-3 -2 -3 485.55 43.3
3 2 3 477.55 41.5
3 2 3 364.26 40.9
-4 -2 -3 31.6 8.8
-4 -2 -3 17 8.7
-4 -2 -3 30 6.7
-4 -2 -3 19.2 6.1
-4 -2 -3 16.6 5.6
4 2 3 29.5 7.2
4 2 3 42.1 7.5
4 2 3 47 12.5
4 2 3 24.3 7.3
-5 -2 -3 145.69 25.3
-5 -2 -3 137.59 20.5
-5 -2 -3 163.78 19.8
5 2 3 181.58 19.6
5 2 3 141.59 19
5 2 3 179.88 16
5 2 3 142.79 16.1
5 2 3 134.89 21.5
-6 -2 -3 12.3 5.9
-6 -2 -3 8.2 5
6 2 3 10.7 4.8
6 2 3 13.2 4.9
6 2 3 17.5 7.6
-7 -2 -3 3.2 3.4
-7 -2 -3 3.5 3.1
7 2 3 3.2 3.1
7 2 3 4.9 2.7
9 -3 -3 7.1 5.6
9 -3 -3 0.1 5.1
-9 3 3 6.8 3.6
-9 3 3 2.9 3.5
8 -3 -3 80.89 13.3
8 -3 -3 86.09 9.2
8 -3 -3 78.89 14.9
-8 3 3 74.29 11.4
-8 3 3 70.79 10.7
7 -3 -3 199.28 23.2
7 -3 -3 196.58 23.8
7 -3 -3 176.48 25.1
7 -3 -3 203.18 20.1
7 -3 -3 209.08 24.3
7 -3 -3 219.88 20.9
7 -3 -3 239.68 25.3
-7 3 3 201.58 21.1
-7 3 3 188.58 21.5
6 -3 -3 36.6 7.7
6 -3 -3 57.99 10.8
6 -3 -3 28.5 7.6
6 -3 -3 57.99 11.5
6 -3 -3 52.79 9.8
6 -3 -3 49.2 9
6 -3 -3 39.4 8.5
-6 3 3 45.8 8.7
-6 3 3 53.79 8.5
-6 3 3 52.09 8.1
-6 3 3 30 10
5 -3 -3 932.61 84.89
5 -3 -3 1124.29 89.19
5 -3 -3 1023.4 84.19
5 -3 -3 888.11 83.59
5 -3 -3 975.9 84.79
5 -3 -3 1080.39 84.49
5 -3 -3 1015 89.49
5 -3 -3 1090.79 86.39
5 -3 -3 1012.4 86.79
4 -3 -3 66.89 10
4 -3 -3 59.49 10.8
4 -3 -3 61.19 8.4
4 -3 -3 61.39 8.3
4 -3 -3 60.99 8.6
4 -3 -3 65.29 8.9
4 -3 -3 62.69 9.3
-4 3 3 64.49 8.1
-4 3 3 78.99 9.8
-4 3 3 54.19 12.5
-4 3 3 80.69 10.3
-4 3 3 73.59 8.8
3 -3 -3 4054.69 332.87
3 -3 -3 4258.77 330.97
3 -3 -3 4270.57 331.87
3 -3 -3 4100.09 334.27
3 -3 -3 4033.2 331.87
3 -3 -3 4330.97 330.97
-3 3 3 4194.48 331.87
-3 3 3 4066.99 332.67
2 -3 -3 601.94 50.09
2 -3 -3 572.44 50.29
2 -3 -3 585.04 50.99
2 -3 -3 585.84 49.6
2 -3 -3 541.45 49.4
2 -3 -3 577.14 49.3
2 -3 -3 610.64 52.59
-2 3 3 595.44 51.49
-2 3 3 663.73 52.49
-2 3 3 567.04 50.19
-2 3 3 630.84 50.99
1 -3 -3 6059.09 473.05
1 -3 -3 5185.08 475.25
1 -3 -3 6368.26 473.15
1 -3 -3 5962 474.15
1 -3 -3 6466.05 473.65
1 -3 -3 6189.48 473.05
1 -3 -3 5848.92 473.65
-1 3 3 5619.64 473.95
-1 3 3 6114.89 475.05
0 -3 -3 400.36 34.9
0 -3 -3 373.06 32.5
0 -3 -3 372.06 32
0 -3 -3 389.66 32
0 -3 -3 376.36 31.6
0 3 3 432.06 35.8
0 3 3 308.67 32.8
0 3 3 300.17 32.2
0 3 3 333.07 32.5
-1 -3 -3 560.14 54.59
-1 -3 -3 635.14 55.49
-1 -3 -3 649.14 54.59
-1 -3 -3 702.93 55.59
-1 -3 -3 662.23 57.59
-1 -3 -3 671.03 58.49
-1 -3 -3 686.23 54.59
1 3 3 691.63 60.39
1 3 3 613.74 61.19
-2 -3 -3 1018.3 81.89
-2 -3 -3 926.01 80.69
-2 -3 -3 1007 78.09
-2 -3 -3 848.52 77.59
-2 -3 -3 780.62 76.19
-2 -3 -3 992.1 76.39
-2 -3 -3 907.31 80.29
-2 -3 -3 970 76.09
2 3 3 842.22 79.19
2 3 3 801.12 77.99
2 3 3 1117.69 89.89
2 3 3 1006.7 85.89
2 3 3 783.92 78.89
-3 -3 -3 50.39 7.4
-3 -3 -3 54.59 8.4
-3 -3 -3 44 9.3
-3 -3 -3 55.79 9.1
-3 -3 -3 44.8 11.1
-3 -3 -3 38.1 7
-3 -3 -3 58.79 14.8
-3 -3 -3 37.7 10.9
3 3 3 55.49 10.6
3 3 3 57.99 11.3
3 3 3 53.49 10.2
3 3 3 46.6 9.8
3 3 3 63.79 16.4
3 3 3 75.39 15.6
-4 -3 -3 487.55 46.4
-4 -3 -3 570.04 51.29
-4 -3 -3 499.25 51.79
-4 -3 -3 489.25 49.2
4 3 3 579.94 56.59
4 3 3 525.35 50.99
4 3 3 658.43 51.99
-5 -3 -3 -4.6 3.2
-5 -3 -3 -0.6 7.8
5 3 3 2.5 4.4
5 3 3 2.9 4.1
5 3 3 11 10.1
5 3 3 -12.2 8
5 3 3 -0.2 3.4
-6 -3 -3 97.49 19.6
-6 -3 -3 93.69 14.6
6 3 3 111.79 14.2
6 3 3 98.29 12.9
-7 -3 -3 2.8 2.4
-7 -3 -3 2.4 2.4
7 3 3 -2.1 1.9
7 3 3 0.9 2.2
-10 4 3 3 2.8
9 -4 -3 27.5 7.6
9 -4 -3 45.5 10
-9 4 3 46.4 7.6
8 -4 -3 11.6 5.2
8 -4 -3 18.1 4.6
8 -4 -3 11.5 5.8
8 -4 -3 5.6 3.4
8 -4 -3 9.3 6.3
-8 4 3 5.3 4.4
-8 4 3 6.8 4.1
-8 4 3 6.5 4.4
7 -4 -3 357.56 29.2
7 -4 -3 247.88 28.8
7 -4 -3 321.97 32.7
7 -4 -3 271.57 33.7
7 -4 -3 336.87 32.5
7 -4 -3 275.47 30.5
7 -4 -3 366.36 34.2
-7 4 3 304.87 29.9
-7 4 3 311.27 29.3
-7 4 3 289.67 33.9
6 -4 -3 101.69 12.5
6 -4 -3 86.39 11.9
6 -4 -3 86.49 13
6 -4 -3 87.89 14.3
6 -4 -3 68.39 18.4
6 -4 -3 98.69 19.2
6 -4 -3 53.49 13.9
6 -4 -3 77.99 12.2
-6 4 3 104.99 13.4
-6 4 3 76.29 13.2
-6 4 3 77.79 12
5 -4 -3 1496.45 127.49
5 -4 -3 1430.86 125.59
5 -4 -3 1648.73 125.29
5 -4 -3 1560.24 125.59
5 -4 -3 1531.45 129.39
5 -4 -3 1520.65 124.99
5 -4 -3 1400.56 123.99
5 -4 -3 1357.06 128.79
5 -4 -3 1542.55 126.79
-5 4 3 1429.16 124.59
-5 4 3 1746.93 129.79
-5 4 3 1633.84 124.49
4 -4 -3 1191.68 91.59
4 -4 -3 1124.59 96.89
4 -4 -3 1107.49 93.69
4 -4 -3 1142.09 94.69
4 -4 -3 1105.49 91.89
4 -4 -3 1087.19 92.69
4 -4 -3 1132.09 91.29
4 -4 -3 986 90.49
-4 4 3 1070.09 91.19
-4 4 3 1090.29 91.69
3 -4 -3 24.3 9
-3 4 3 40.3 7.5
2 -4 -3 1126.29 93.69
2 -4 -3 1064.99 94.59
2 -4 -3 1193.98 90.09
2 -4 -3 1158.58 94.49
2 -4 -3 1100.29 89.99
2 -4 -3 1140.79 90.49
2 -4 -3 1117.29 89.69
-2 4 3 965.3 92.79
-2 4 3 994.6 92.19
1 -4 -3 424.56 34.4
1 -4 -3 394.96 38.3
1 -4 -3 370.66 34.5
1 -4 -3 378.16 34.4
1 -4 -3 386.76 34.3
0 -4 -3 2672.03 216.48
0 -4 -3 2514.75 213.18
0 -4 -3 2937.11 211.98
0 -4 -3 2724.73 212.28
0 -4 -3 2746.93 211.88
0 -4 -3 2535.35 211.68
0 -4 -3 2298.27 215.38
0 -4 -3 2562.64 212.08
0 4 3 2851.81 218.58
0 4 3 2583.54 214.28
-1 -4 -3 31 9.4
-1 -4 -3 31.9 6.5
-1 -4 -3 28.6 5.7
-1 -4 -3 42.7 8.5
-1 -4 -3 35.4 6.3
-1 -4 -3 39.5 6
-1 -4 -3 36.2 10.1
-1 -4 -3 24.3 6.9
1 4 3 20.2 9.6
1 4 3 29.4 8.8
1 4 3 38.3 9.3
-2 -4 -3 1441.56 135.09
-2 -4 -3 1801.12 134.49
-2 -4 -3 1787.02 132.69
-2 -4 -3 1588.84 130.29
-2 -4 -3 1623.24 130.59
-2 -4 -3 1554.54 131.29
-2 -4 -3 1678.93 130.59
-2 -4 -3 1413.26 132.79
2 4 3 1728.03 136.09
2 4 3 1360.96 133.39
-3 -4 -3 19.6 9.3
-3 -4 -3 33.6 7.8
-3 -4 -3 26 5.8
-3 -4 -3 31.4 8.4
-3 -4 -3 41.7 12.1
3 4 3 60.59 16.2
3 4 3 32.6 8.7
3 4 3 25.1 7.6
3 4 3 44.4 13.8
-4 -4 -3 81.39 16.1
-4 -4 -3 92.99 12
-4 -4 -3 109.99 15.7
4 4 3 126.59 18.9
-5 -4 -3 4.9 4.1
-5 -4 -3 3.1 4.3
5 4 3 -3 5.1
5 4 3 -4.5 4.8
5 4 3 3.5 3.3
-6 -4 -3 20.3 5.5
-6 -4 -3 15 4.8
6 4 3 26.1 5.2
9 -5 -3 24.5 3.3
9 -5 -3 45.3 9
9 -5 -3 18.1 6.5
-9 5 3 19.1 5.5
-9 5 3 29 8
8 -5 -3 320.67 37.9
8 -5 -3 418.46 37.9
8 -5 -3 377.16 33.4
8 -5 -3 405.36 37.8
-8 5 3 344.07 36.7
-8 5 3 387.26 34.9
7 -5 -3 111.09 15.9
7 -5 -3 91.39 21.4
7 -5 -3 99.89 12.9
7 -5 -3 88.09 13
7 -5 -3 122.29 15.2
-7 5 3 103.19 12.7
-7 5 3 73.49 13.1
-7 5 3 71.39 15.1
6 -5 -3 83.69 11.8
6 -5 -3 96.19 15.8
6 -5 -3 114.39 14.8
6 -5 -3 78.79 12.1
6 -5 -3 82.69 12.8
6 -5 -3 114.09 19.4
6 -5 -3 128.69 21.2
-6 5 3 106.69 13.3
-6 5 3 76.59 13
-6 5 3 81.19 19.4
-6 5 3 97.19 12.6
-6 5 3 86.29 17.1
5 -5 -3 1194.08 111.49
5 -5 -3 1328.17 113.09
5 -5 -3 1221.88 109.99
5 -5 -3 1378.96 111.29
5 -5 -3 1412.86 114.59
5 -5 -3 1447.46 111.69
5 -5 -3 1146.99 111.29
-5 5 3 1503.55 118.79
-5 5 3 1280.57 110.69
-5 5 3 1549.74 116.69
4 -5 -3 77.29 13.3
4 -5 -3 69.69 10.9
4 -5 -3 57.79 9.9
4 -5 -3 70.29 10.2
4 -5 -3 94.79 17
4 -5 -3 65.79 9.6
4 -5 -3 69.99 12.7
-4 5 3 95.39 11.7
-4 5 3 97.29 15.6
3 -5 -3 1772.82 148.69
3 -5 -3 1754.02 146.59
3 -5 -3 1671.03 144.99
3 -5 -3 1585.44 144.29
3 -5 -3 1871.01 148.09
3 -5 -3 1823.22 144.99
3 -5 -3 1861.01 145.89
-3 5 3 1905.71 145.79
-3 5 3 1823.12 145.99
2 -5 -3 265.87 27
2 -5 -3 302.17 26.8
2 -5 -3 264.07 25.9
2 -5 -3 256.97 28.1
2 -5 -3 243.68 25.4
2 -5 -3 269.27 25.6
2 -5 -3 267.97 25.6
2 -5 -3 308.97 29
-2 5 3 288.57 26.9
-2 5 3 281.77 26.7
1 -5 -3 1281.37 113.89
1 -5 -3 1301.07 116.99
1 -5 -3 1343.57 116.79
1 -5 -3 1447.76 115.19
1 -5 -3 1382.06 115.89
1 -5 -3 1380.36 114.59
1 -5 -3 1465.05 114.39
1 -5 -3 1496.15 114.99
-1 5 3 1470.75 116.59
0 -5 -3 251.47 26.8
0 -5 -3 241.28 23.9
0 -5 -3 232.88 26.6
0 -5 -3 199.48 28.4
0 -5 -3 261.87 24.4
0 -5 -3 247.38 24.6
0 -5 -3 269.47 24.9
0 -5 -3 283.67 24.2
0 5 3 240.08 26.5
0 5 3 197.48 24.9
0 5 3 283.97 27.2
-1 -5 -3 12.4 4.7
-1 -5 -3 22.1 5.1
-1 -5 -3 19.1 5.2
-1 -5 -3 15.8 6.4
-1 -5 -3 11.1 8.1
-1 -5 -3 18.7 5.5
1 5 3 10.8 12
1 5 3 14.6 6.6
-2 -5 -3 127.09 14.8
-2 -5 -3 133.19 16.5
-2 -5 -3 134.19 16.2
-2 -5 -3 171.38 19.5
-2 -5 -3 132.49 16.1
-2 -5 -3 125.49 15
-2 -5 -3 109.59 19.4
2 5 3 148.49 20.6
2 5 3 113.29 17.6
-3 -5 -3 23.4 7.8
-3 -5 -3 25.3 9.2
-3 -5 -3 28 10.5
-3 -5 -3 26.6 6.4
-3 -5 -3 29 8
3 5 3 28.1 10.7
-4 -5 -3 11.2 4.8
-4 -5 -3 15 5
4 5 3 3.4 5.9
4 5 3 11.4 5.1
-5 -5 -3 12.7 3.9
5 5 3 8.2 3.9
5 5 3 11.2 4.3
9 -6 -3 7.5 3.7
9 -6 -3 4.5 2.4
-9 6 3 1.1 2.4
-9 6 3 1.4 4.3
-9 6 3 5.8 3.2
8 -6 -3 193.88 21.1
8 -6 -3 205.58 17.6
8 -6 -3 171.28 17.7
8 -6 -3 213.68 25
8 -6 -3 138.39 19.2
-8 6 3 160.68 21
-8 6 3 181.78 18.7
7 -6 -3 7.8 4.6
7 -6 -3 2.2 4.2
7 -6 -3 1.2 4.2
7 -6 -3 9.3 5
7 -6 -3 8 6.2
-7 6 3 3.6 3.3
-7 6 3 5.2 5.8
-7 6 3 5.3 4.2
-7 6 3 23.2 11.9
6 -6 -3 52.69 11.7
6 -6 -3 31.7 8.8
6 -6 -3 51.39 10.4
6 -6 -3 47.8 8.1
6 -6 -3 44.4 8
-6 6 3 55.89 8.6
-6 6 3 50.09 9.2
-6 6 3 33.8 14.2
-6 6 3 27.6 13.6
5 -6 -3 9.8 4.2
5 -6 -3 12 5.2
5 -6 -3 7.1 4.3
5 -6 -3 7.3 4.2
5 -6 -3 8.7 6.1
5 -6 -3 17 5.3
5 -6 -3 1.7 4.3
-5 6 3 15.1 11.3
-5 6 3 11.4 6.5
-5 6 3 18.1 8.2
-5 6 3 9 4.1
-5 6 3 12.4 8.7
4 -6 -3 279.67 27
4 -6 -3 310.77 29.9
4 -6 -3 275.57 28.2
4 -6 -3 232.88 25.6
4 -6 -3 248.38 25.7
4 -6 -3 257.37 26.9
-4 6 3 291.37 26.9
3 -6 -3 378.46 35.9
3 -6 -3 393.16 35.5
3 -6 -3 385.86 36.3
2 -6 -3 80.39 10.8
2 -6 -3 73.59 10.6
2 -6 -3 79.49 13.4
2 -6 -3 78.49 10.4
2 -6 -3 95.39 11.8
-2 6 3 74.39 13.7
-2 6 3 54.59 13.8
-2 6 3 96.89 14.3
1 -6 -3 82.29 10.9
1 -6 -3 83.79 10.9
1 -6 -3 83.79 11
1 -6 -3 48.3 13.1
1 -6 -3 75.79 11.4
1 -6 -3 81.09 12.9
1 -6 -3 64.79 10.2
1 -6 -3 63.79 9.4
-1 6 3 115.59 21.3
-1 6 3 80.09 12.1
0 -6 -3 52.59 9.5
0 -6 -3 55.59 9
0 -6 -3 41.2 7.8
0 -6 -3 59.29 9.3
0 -6 -3 52.39 8.8
0 -6 -3 61.29 11.6
0 -6 -3 52.59 12.8
0 -6 -3 68.39 9.9
0 6 3 38 11.8
0 6 3 63.59 11.4
-1 -6 -3 25.5 7.2
-1 -6 -3 1.6 2.4
-1 -6 -3 -8.5 7.1
-1 -6 -3 11.7 5.4
-1 -6 -3 2.8 4.6
-1 -6 -3 6.6 3.5
-1 -6 -3 2.5 3.5
1 6 3 8 4.3
1 6 3 4.8 10.6
-2 -6 -3 137.29 16.3
-2 -6 -3 123.39 16.7
-2 -6 -3 155.08 21.7
-2 -6 -3 152.78 16.2
-2 -6 -3 169.48 19.5
2 6 3 150.88 19.4
-3 -6 -3 51.09 9.4
-3 -6 -3 44.8 10.4
-3 -6 -3 52.29 10.6
3 6 3 57.09 9.9
-4 -6 -3 59.09 9.4
4 6 3 69.79 11.2
4 6 3 58.79 8.2
9 -7 -3 17.8 4
-9 7 3 22.4 4.5
8 -7 -3 274.77 21.9
8 -7 -3 230.48 29
-8 7 3 185.68 26.2
-8 7 3 259.77 25.3
7 -7 -3 52.09 12.6
7 -7 -3 26.1 6.7
7 -7 -3 32.1 8.4
-7 7 3 35.5 7.2
-7 7 3 29.3 10.9
6 -7 -3 563.54 53.59
6 -7 -3 523.05 51.99
6 -7 -3 648.04 55.59
6 -7 -3 592.24 51.79
6 -7 -3 652.13 55.89
-6 7 3 626.84 55.29
-6 7 3 626.44 52.69
-6 7 3 577.14 55.49
5 -7 -3 337.87 31.5
5 -7 -3 307.67 31.8
5 -7 -3 329.57 34.9
5 -7 -3 345.87 34.4
5 -7 -3 369.16 35.6
-5 7 3 338.67 32.1
4 -7 -3 568.44 50.09
4 -7 -3 571.24 52.69
4 -7 -3 550.54 50.89
4 -7 -3 547.95 49.5
4 -7 -3 602.44 52.99
4 -7 -3 485.05 51.29
-4 7 3 619.14 50.99
3 -7 -3 846.92 71.69
3 -7 -3 825.62 74.19
3 -7 -3 818.52 73.89
3 -7 -3 811.02 70.99
3 -7 -3 755.12 71.99
3 -7 -3 864.21 72.79
-3 7 3 944.51 73.39
2 -7 -3 357.96 35.2
2 -7 -3 352.46 36.2
2 -7 -3 351.16 34.7
2 -7 -3 346.17 33.9
2 -7 -3 378.16 37.1
2 -7 -3 373.36 34.2
-2 7 3 404.86 36.7
1 -7 -3 282.67 26.4
1 -7 -3 226.88 28.7
1 -7 -3 275.07 27.6
1 -7 -3 267.07 28.3
1 -7 -3 305.27 30.1
1 -7 -3 244.78 26.1
1 -7 -3 249.58 27.5
-1 7 3 335.97 30.8
0 -7 -3 350.96 36.8
0 -7 -3 358.96 36.3
0 -7 -3 409.06 35.6
0 -7 -3 397.66 38.7
0 -7 -3 384.06 35.1
0 7 3 500.25 51.49
0 7 3 358.16 38.6
-1 -7 -3 138.59 17.6
-1 -7 -3 135.29 14.5
-1 -7 -3 130.39 14.6
1 7 3 128.49 17.5
1 7 3 129.89 20.7
-2 -7 -3 3.4 5.5
-2 -7 -3 4.8 2.5
-2 -7 -3 -5 3.7
2 7 3 6 4.1
2 7 3 0.4 3.9
2 7 3 10.7 6.2
-3 -7 -3 26.3 5.6
3 7 3 33.9 5.6
8 -8 -3 87.29 9.1
8 -8 -3 75.29 10.4
-8 8 3 86.49 10.1
7 -8 -3 430.86 36.8
7 -8 -3 304.87 38.5
7 -8 -3 439.96 36.2
-7 8 3 415.76 35
-7 8 3 327.57 47
6 -8 -3 740.33 57.59
6 -8 -3 596.44 55.69
6 -8 -3 676.43 54.29
6 -8 -3 606.74 54.59
6 -8 -3 644.74 57.19
-6 8 3 634.14 58.79
-6 8 3 565.54 57.29
5 -8 -3 541.65 46.5
5 -8 -3 450.35 42.7
5 -8 -3 404.76 43.6
5 -8 -3 438.36 45.6
-5 8 3 537.45 44.4
-5 8 3 576.14 53.19
4 -8 -3 704.43 70.09
4 -8 -3 884.21 70.39
4 -8 -3 868.91 73.79
4 -8 -3 712.03 71.09
-4 8 3 994.3 72.79
3 -8 -3 86.09 12.5
3 -8 -3 66.49 10
3 -8 -3 70.39 10
3 -8 -3 57.39 10.1
3 -8 -3 68.29 12.4
-3 8 3 65.09 22.6
-3 8 3 96.69 12.8
2 -8 -3 1159.68 91.89
2 -8 -3 1000.2 90.49
2 -8 -3 891.51 88.59
2 -8 -3 1070.59 87.89
2 -8 -3 1151.48 90.79
-2 8 3 1223.98 92.29
-2 8 3 889.01 110.79
1 -8 -3 80.89 13.9
1 -8 -3 86.19 13.6
1 -8 -3 109.59 11.9
1 -8 -3 73.89 11.8
1 -8 -3 93.09 11.3
-1 8 3 122.49 23.9
-1 8 3 73.69 17.7
-1 8 3 84.89 13.7
0 -8 -3 751.32 65.89
0 -8 -3 702.53 61.89
0 8 3 678.53 69.19
0 8 3 826.52 66.39
-1 -8 -3 154.98 15.2
-1 -8 -3 158.78 18.1
1 8 3 192.58 18.2
7 -9 -3 43.2 7.5
7 -9 -3 48.6 5.7
-7 9 3 48.2 7.4
6 -9 -3 17.4 3.6
-6 9 3 10 4.8
-6 9 3 12.4 5
5 -9 -3 164.08 14.8
5 -9 -3 123.49 15.7
-5 9 3 144.89 20.1
4 -9 -3 4.5 5.9
4 -9 -3 16.5 4.9
4 -9 -3 7.8 3.2
4 -9 -3 10.9 4.7
-4 9 3 17.4 5.3
-4 9 3 11.2 7.9
-4 9 3 4.1 6.5
3 -9 -3 155.98 16.6
3 -9 -3 138.29 18.1
-3 9 3 223.68 28.2
-3 9 3 157.18 18.1
-3 9 3 182.08 31.2
2 -9 -3 51.39 9.2
2 -9 -3 37.7 6.5
-2 9 3 54.09 14.4
-2 9 3 58.79 11.7
-2 9 3 51.99 8.7
1 -9 -3 109.19 13.2
1 -9 -3 105.69 10.8
-3 11 -4 63.49 11.7
-4 11 -4 3.7 5
-4 11 -4 -4.6 3.5
0 -10 4 135.09 13.1
0 -10 4 106.69 12.7
-1 10 -4 5.4 7.3
-1 10 -4 8.9 5.8
1 -10 4 3 3.6
1 -10 4 8.5 3.1
-2 10 -4 102.79 18.9
-2 10 -4 89.99 12.2
-3 10 -4 7 5.2
-3 10 -4 -1.2 4.8
-3 10 -4 16.4 8.9
-3 10 -4 15 5.1
3 -10 4 2.7 3.5
3 -10 4 5.1 3.6
-4 10 -4 133.39 16.7
-4 10 -4 119.19 23.7
-4 10 -4 86.39 14
-4 10 -4 142.99 20.6
4 -10 4 78.09 12
4 -10 4 117.69 13
4 -10 4 106.49 12.9
5 -10 4 45.8 10.3
5 -10 4 81.69 9.1
5 -10 4 65.89 13.2
-6 10 -4 56.29 12.2
6 -10 4 62.19 8.3
6 -10 4 75.99 8.5
2 9 -4 22.7 7.1
-2 -9 4 7.9 2.5
-2 -9 4 8.1 2.5
1 9 -4 42 11.4
0 9 -4 1 5.4
0 9 -4 1.8 5.5
0 -9 4 -3.8 2.9
0 -9 4 3 5.4
0 -9 4 -1 1.8
-1 9 -4 2.4 5.7
-1 9 -4 12 11.4
-1 9 -4 6.5 6.1
-1 9 -4 3.2 6.6
1 -9 4 4.2 2.7
1 -9 4 -6.9 5.2
1 -9 4 -2 2.7
-2 9 -4 8.8 5
-2 9 -4 16.5 9
-2 9 -4 19.4 7.3
-2 9 -4 12.8 7.8
-2 9 -4 24.2 10.7
2 -9 4 5 4.1
2 -9 4 19.1 6.3
2 -9 4 14.4 6.4
2 -9 4 9.1 3.9
-3 9 -4 155.58 19.1
-3 9 -4 105.69 24.1
-3 9 -4 177.38 23.5
3 -9 4 128.29 18
3 -9 4 132.49 15.3
3 -9 4 136.19 17.8
-4 9 -4 2.2 5.9
-4 9 -4 0 3.8
-4 9 -4 -0.2 3.2
-4 9 -4 4.3 7.8
4 -9 4 8 6.7
4 -9 4 6 3.3
4 -9 4 4.6 3.2
4 -9 4 10.6 6.4
-5 9 -4 24.5 10.8
-5 9 -4 51.29 14
-5 9 -4 51.69 9.4
-5 9 -4 48.4 13.3
-5 9 -4 32.7 10.4
5 -9 4 40.1 7
5 -9 4 45.9 7.5
-6 9 -4 0.2 5.8
-6 9 -4 4.8 4.6
-6 9 -4 2 4.4
-6 9 -4 8.9 5.8
6 -9 4 4.2 3.6
6 -9 4 2.2 2.4
6 -9 4 -1.7 2.6
-7 9 -4 29 9
7 -9 4 18 4.7
7 -9 4 30.3 5.1
7 -9 4 25.7 6.9
-8 9 -4 65.89 10.9
8 -9 4 34.4 5.9
8 -9 4 51.39 5.8
3 8 -4 21.7 6.4
-3 -8 4 18.5 4.4
-3 -8 4 24 4.3
-3 -8 4 27.6 6.5
-2 -8 4 134.39 15.6
-2 -8 4 168.38 17.2
1 8 -4 321.77 40.8
-1 -8 4 273.67 26.5
-1 -8 4 282.77 26.3
-1 -8 4 211.78 25.6
0 8 -4 424.86 52.99
0 8 -4 425.66 46.5
0 -8 4 317.57 34
0 -8 4 342.97 33.5
0 -8 4 418.96 47.7
0 -8 4 324.47 34.2
-1 8 -4 75.69 19.2
-1 8 -4 68.39 12.1
1 -8 4 86.29 14
1 -8 4 67.89 12.2
-2 8 -4 753.82 78.29
-2 8 -4 859.51 66.89
2 -8 4 649.74 59.99
2 -8 4 603.74 61.19
2 -8 4 706.43 60.89
-3 8 -4 31.2 9.9
-3 8 -4 24.6 10
-3 8 -4 38.8 9.2
-3 8 -4 17 10.4
-3 8 -4 40.1 11.9
-3 8 -4 54.59 12.6
3 -8 4 36.2 9
3 -8 4 47.6 7
3 -8 4 25.4 6.5
3 -8 4 36.6 7
-4 8 -4 300.87 38.2
-4 8 -4 408.36 37.3
-4 8 -4 316.47 44.7
-4 8 -4 273.47 38.9
4 -8 4 381.26 32.7
4 -8 4 372.56 35.4
4 -8 4 388.16 36.4
-5 8 -4 2.8 5.8
-5 8 -4 9.3 7.3
-5 8 -4 3.5 6.2
-5 8 -4 18.5 8.3
-5 8 -4 -1 8.6
-5 8 -4 9.3 6.9
5 -8 4 4.5 3.4
5 -8 4 22.2 14.1
5 -8 4 6.1 3.6
-6 8 -4 35.4 12.6
-6 8 -4 36.3 10.9
6 -8 4 29.1 7.2
6 -8 4 15.9 6.1
6 -8 4 22.1 5.6
-7 8 -4 -3.1 3.9
-7 8 -4 2.4 3.6
-7 8 -4 1.5 3.8
-7 8 -4 1.2 5.8
7 -8 4 2.5 2.7
-8 8 -4 16.1 4.9
-8 8 -4 28.5 7
8 -8 4 17.8 4
8 -8 4 7.7 4.4
4 7 -4 164.28 20.3
-4 -7 4 177.98 16.8
-4 -7 4 163.58 18.1
3 7 -4 62.49 11.5
-3 -7 4 53.89 11.3
-3 -7 4 52.89 8.4
-3 -7 4 67.29 9.3
-3 -7 4 49.1 7.6
2 7 -4 322.57 35.2
-2 -7 4 415.86 36.8
-2 -7 4 403.96 36.3
-2 -7 4 436.26 35.9
-2 -7 4 400.16 42.7
-2 -7 4 356.06 36.8
1 7 -4 43.5 17.2
1 7 -4 107.79 17.8
1 7 -4 54.49 23.9
-1 -7 4 77.09 11.4
-1 -7 4 80.69 10.7
-1 -7 4 79.99 10.1
-1 -7 4 63.59 11.7
-1 -7 4 80.19 11.3
0 7 -4 1515.95 127.39
0 7 -4 1472.75 125.99
0 7 -4 1555.54 136.79
0 -7 4 1433.66 116.59
0 -7 4 1329.07 116.79
0 -7 4 1177.98 118.19
0 -7 4 1450.45 115.99
-1 7 -4 117.79 24.1
-1 7 -4 140.69 17.8
-1 7 -4 135.29 17.5
-1 7 -4 135.19 23.7
-1 7 -4 109.49 19.3
-1 7 -4 145.09 18.6
1 -7 4 126.49 16
1 -7 4 152.38 15.2
1 -7 4 135.89 15
1 -7 4 158.78 14.8
-2 7 -4 1561.74 168.98
-2 7 -4 1849.21 150.58
-2 7 -4 1775.22 155.08
-2 7 -4 1967.9 155.38
2 -7 4 1913.71 147.39
2 -7 4 1894.21 148.19
2 -7 4 1772.22 148.59
-3 7 -4 847.32 72.19
-3 7 -4 700.53 71.49
-3 7 -4 660.13 76.39
-3 7 -4 708.33 71.29
3 -7 4 826.82 67.59
3 -7 4 789.82 63.99
3 -7 4 773.92 66.29
3 -7 4 760.62 64.69
-4 7 -4 2254.87 181.58
-4 7 -4 2239.08 181.88
-4 7 -4 2125.19 184.58
-4 7 -4 1994.6 186.08
-4 7 -4 1798.62 182.48
4 -7 4 2428.66 176.58
4 -7 4 2123.09 178.48
4 -7 4 2402.26 176.18
-5 7 -4 362.86 34.3
-5 7 -4 325.37 38.9
-5 7 -4 306.37 36.3
-5 7 -4 333.17 40
-5 7 -4 364.96 42.8
-5 7 -4 289.27 34.9
5 -7 4 292.47 30.4
5 -7 4 302.97 31.4
-6 7 -4 923.11 78.49
6 -7 4 754.92 72.59
6 -7 4 897.51 68.39
6 -7 4 713.13 66.29
6 -7 4 633.44 66.29
-7 7 -4 124.99 16.7
-7 7 -4 83.49 18.7
7 -7 4 109.49 13.7
7 -7 4 109.89 12.6
7 -7 4 86.09 14.3
7 -7 4 82.49 13.7
-8 7 -4 178.98 19.9
-8 7 -4 206.98 20.9
8 -7 4 191.08 21.7
8 -7 4 214.28 19.2
8 -7 4 147.39 18.6
8 -7 4 173.28 18.7
-9 7 -4 26.8 7.7
9 -7 4 34.5 5.4
5 6 -4 8.3 3.4
-5 -6 4 10.6 3.2
-5 -6 4 4.5 4
-5 -6 4 9.1 3.9
-5 -6 4 7.3 2.7
4 6 -4 5.4 10.5
4 6 -4 4.7 4.5
4 6 -4 4 4.3
-4 -6 4 3.2 2.6
-4 -6 4 5.7 4.8
-4 -6 4 2.1 2.8
-4 -6 4 0.7 2.4
3 6 -4 85.89 15.4
3 6 -4 83.29 15.5
-3 -6 4 53.19 9
-3 -6 4 41.6 7.6
-3 -6 4 52.99 11.5
-3 -6 4 53.09 8.4
-3 -6 4 52.89 9
2 6 -4 58.59 30.2
2 6 -4 97.99 19.8
2 6 -4 75.09 15.1
-2 -6 4 83.89 10.5
-2 -6 4 75.19 10.8
-2 -6 4 53.19 11.9
-2 -6 4 65.89 12
-2 -6 4 85.99 11.9
1 6 -4 85.19 25.7
1 6 -4 101.29 16.7
1 6 -4 81.29 20.2
1 6 -4 96.19 17
-1 -6 4 90.39 10.9
-1 -6 4 86.29 10.5
-1 -6 4 93.99 11.5
0 6 -4 179.88 26.8
0 6 -4 128.09 17.2
0 6 -4 141.19 18.5
0 6 -4 149.49 23.2
0 6 -4 123.89 18.7
0 6 -4 141.79 24.2
0 6 -4 169.98 21.4
0 6 -4 136.89 21.7
0 6 -4 160.58 19.4
0 -6 4 168.78 15.6
0 -6 4 182.68 16.8
0 -6 4 180.88 19.5
-1 6 -4 44.2 8
-1 6 -4 25.6 9.2
-1 6 -4 18.9 7.6
-1 6 -4 38.2 10.6
-1 6 -4 42.5 13.7
-1 6 -4 30.9 9.3
-1 6 -4 23.3 7.4
-1 6 -4 24.8 9.4
1 -6 4 40.4 4.9
1 -6 4 31.3 8.7
1 -6 4 28.7 6.5
1 -6 4 36.3 7.2
1 -6 4 31.4 5.5
-2 6 -4 0.4 4.8
-2 6 -4 0.9 5.5
-2 6 -4 -3.9 7.5
-2 6 -4 9.2 6.5
-2 6 -4 -2.2 7.1
-2 6 -4 7.2 4.2
-2 6 -4 3.3 4.2
-2 6 -4 15.1 6.1
-2 6 -4 3.6 7.4
-2 6 -4 5.2 4.9
-2 6 -4 2.4 5.5
2 -6 4 5.9 4.2
2 -6 4 9.4 2.3
2 -6 4 9 2.9
-3 6 -4 14.6 8.7
-3 6 -4 27.4 11
-3 6 -4 16.6 6.4
-3 6 -4 8.7 5.1
-3 6 -4 16.7 7.4
-3 6 -4 8.1 5.5
-3 6 -4 23.5 7.6
-3 6 -4 18.3 7.1
-3 6 -4 23 6.4
-3 6 -4 13.6 5.4
3 -6 4 30.6 7.2
3 -6 4 13.5 3.4
3 -6 4 24.5 5.1
3 -6 4 25.2 7.3
-4 6 -4 100.19 14.8
-4 6 -4 106.49 15
-4 6 -4 119.79 17.5
-4 6 -4 108.19 17.7
-4 6 -4 87.49 20.9
-4 6 -4 119.59 18.1
-4 6 -4 92.19 17.4
-4 6 -4 101.49 15
-4 6 -4 80.09 14.6
4 -6 4 125.39 12.5
4 -6 4 98.59 13
4 -6 4 84.09 11.9
4 -6 4 108.99 15.8
-5 6 -4 1.8 5.6
-5 6 -4 -0.8 3.4
-5 6 -4 -4.5 4.4
-5 6 -4 16.7 7.7
-5 6 -4 0.9 5.9
-5 6 -4 2.5 5.5
5 -6 4 -2.6 3.3
5 -6 4 -4.6 3
5 -6 4 0.9 2.4
5 -6 4 5.2 4.6
-6 6 -4 40.6 9.9
-6 6 -4 46 11
-6 6 -4 32.5 11.6
-6 6 -4 46.4 12.8
6 -6 4 19.3 5.7
6 -6 4 33.6 9.7
6 -6 4 13.1 5.4
6 -6 4 21 5.6
6 -6 4 30.9 8.3
-7 6 -4 -0.9 4.9
-7 6 -4 1.4 4.6
-7 6 -4 5.2 7.9
-7 6 -4 7.3 5.1
-7 6 -4 -3.9 8
-7 6 -4 15 12.7
7 -6 4 1 2.8
7 -6 4 -0.4 2.3
7 -6 4 1.3 6.3
7 -6 4 -0.2 4.4
7 -6 4 -3.3 3.4
7 -6 4 1.4 3.1
-8 6 -4 3.3 3.1
-8 6 -4 -2.8 3.6
-8 6 -4 1.3 3.7
8 -6 4 1.3 2.6
8 -6 4 -1.7 2.9
8 -6 4 4.7 3.5
8 -6 4 1.5 5.4
-9 6 -4 1.6 2.9
9 -6 4 7.5 2.7
9 -6 4 8.3 3.9
9 -6 4 2.3 2.3
-6 -5 4 55.89 6.7
-6 -5 4 47.5 8.3
-6 -5 4 40.9 5.7
5 5 -4 486.35 45.5
-5 -5 4 469.85 43.7
-5 -5 4 418.96 41.1
-5 -5 4 503.65 41.4
4 5 -4 429.96 41.3
-4 -5 4 350.16 36.4
-4 -5 4 367.46 33.6
-4 -5 4 385.76 33.7
-4 -5 4 353.66 34.9
-4 -5 4 328.67 34.5
3 5 -4 493.75 48
-3 -5 4 420.06 37.7
-3 -5 4 406.76 38.9
-3 -5 4 442.46 38.7
-3 -5 4 382.96 37.6
2 5 -4 437.26 50.39
2 5 -4 490.75 54.19
-2 -5 4 505.35 44.9
-2 -5 4 570.14 54.49
-2 -5 4 496.45 48.6
-2 -5 4 509.05 43.5
-2 -5 4 539.25 44.2
1 5 -4 115.99 17.6
1 5 -4 119.79 14.5
1 5 -4 87.49 12.1
1 5 -4 73.69 13.9
-1 -5 4 92.39 10.3
-1 -5 4 103.89 10.6
-1 -5 4 92.49 11.7
-1 -5 4 104.29 13.9
0 5 -4 1124.59 110.89
0 5 -4 1323.27 108.89
0 -5 4 1304.77 106.19
0 -5 4 1355.86 108.39
0 -5 4 1400.56 106.49
-1 5 -4 26 6
-1 5 -4 19.4 6.1
1 -5 4 27.4 6.6
1 -5 4 22.9 4.7
1 -5 4 22.5 3.9
2 -5 4 1581.94 141.29
2 -5 4 1789.72 142.59
2 -5 4 1966 142.89
-3 5 -4 50.79 9.5
-3 5 -4 54.09 10.9
-3 5 -4 32.8 15.2
3 -5 4 48.8 7.5
3 -5 4 59.19 6.6
3 -5 4 59.29 7.5
3 -5 4 47.8 8.1
-4 5 -4 649.54 60.19
-4 5 -4 658.83 61.19
-4 5 -4 688.93 59.79
-4 5 -4 564.84 58.49
-4 5 -4 499.15 64.29
-4 5 -4 519.95 62.79
-4 5 -4 689.13 61.19
4 -5 4 713.33 56.29
4 -5 4 664.63 54.59
4 -5 4 637.14 53.99
4 -5 4 696.73 54.49
-5 5 -4 59.69 13.1
-5 5 -4 60.49 16.6
-5 5 -4 81.39 14.5
-5 5 -4 82.99 14.4
5 -5 4 67.69 12.4
5 -5 4 57.59 9.1
5 -5 4 71.59 9.5
-6 5 -4 135.19 26
-6 5 -4 179.38 21.1
-6 5 -4 157.68 20.5
-6 5 -4 132.79 27.5
6 -5 4 122.59 15.6
6 -5 4 123.99 14.7
6 -5 4 94.79 20.1
6 -5 4 111.99 14.8
-7 5 -4 -7.4 12.7
-7 5 -4 3.7 3.8
-7 5 -4 -1.5 5.6
-7 5 -4 -3.2 3.8
-7 5 -4 -2.8 6.4
-7 5 -4 0.3 4.2
7 -5 4 -1.3 2.7
7 -5 4 0.1 2.5
7 -5 4 15.2 7.2
7 -5 4 4.6 4.8
7 -5 4 0.7 2.8
7 -5 4 2.9 4
-8 5 -4 12.6 4.6
-8 5 -4 4.7 4.1
-8 5 -4 3.8 7.1
-8 5 -4 8.5 6.8
8 -5 4 5.9 3.3
8 -5 4 12.1 4.3
8 -5 4 8.5 3.8
8 -5 4 10.2 6.6
8 -5 4 4.8 3.8
9 -5 4 3.6 2.5
9 -5 4 8.4 2.8
7 4 -4 5.2 2.9
7 4 -4 3.7 6.2
-7 -4 4 2.2 2.4
-7 -4 4 -0.2 2.8
6 4 -4 1.8 7
6 4 -4 3.7 3.5
6 4 -4 3.3 5.4
-6 -4 4 5.2 3.2
-6 -4 4 3.2 3.1
-6 -4 4 5.6 2.7
-6 -4 4 4.7 2.5
5 4 -4 109.09 18.5
-5 -4 4 74.19 10.5
-5 -4 4 77.99 10.2
-5 -4 4 63.39 9.3
-5 -4 4 76.39 12.4
-5 -4 4 63.79 11
4 4 -4 9.5 6.1
4 4 -4 17.4 15.8
4 4 -4 8.1 7
-4 -4 4 8.1 4.7
-4 -4 4 11.9 4.2
-4 -4 4 12.6 4
-4 -4 4 14.3 4.7
-4 -4 4 22.2 6.2
3 4 -4 1384.36 118.19
3 4 -4 1583.14 140.89
3 4 -4 1379.36 114.89
3 4 -4 1263.07 116.29
-3 -4 4 1333.17 110.09
-3 -4 4 1323.47 109.19
-3 -4 4 1145.79 110.79
-3 -4 4 1324.57 114.19
-3 -4 4 1223.48 108.79
-3 -4 4 1465.85 108.99
2 4 -4 256.97 29.7
2 4 -4 269.17 30.8
-2 -4 4 301.87 27.9
-2 -4 4 321.77 31
-2 -4 4 318.67 27.1
-2 -4 4 330.37 26.9
1 4 -4 4383.56 387.86
1 4 -4 4400.56 384.96
-1 -4 4 4744.03 383.76
-1 -4 4 5824.62 387.46
0 4 -4 486.15 48.7
0 4 -4 574.14 47.4
0 -4 4 546.05 42.9
0 -4 4 491.15 46.1
0 -4 4 570.74 43.2
-1 4 -4 7337.97 533.35
1 -4 4 6279.57 527.45
1 -4 4 6461.45 529.75
2 -4 4 2519.45 209.38
2 -4 4 2760.82 211.38
3 -4 4 8353.36 663.93
3 -4 4 8494.95 663.83
3 -4 4 8347.46 662.33
-4 4 -4 2895.81 247.28
-4 4 -4 3442.76 253.17
4 -4 4 3383.26 247.48
4 -4 4 2994.6 246.08
4 -4 4 2699.03 247.58
4 -4 4 3109.29 249.18
-5 4 -4 2056.49 171.58
-5 4 -4 1923.71 168.08
-5 4 -4 2014.1 168.48
-5 4 -4 2082.99 164.48
-6 4 -4 1298.17 112.59
6 -4 4 1329.47 113.69
6 -4 4 1232.68 114.19
6 -4 4 1389.16 108.59
6 -4 4 1280.97 108.99
-7 4 -4 82.29 13.2
-7 4 -4 91.99 17.8
-7 4 -4 99.19 14.4
-7 4 -4 85.49 13.1
-7 4 -4 51.99 17
7 -4 4 62.59 12.3
7 -4 4 60.79 10.4
7 -4 4 63.99 13.9
7 -4 4 101.09 16.7
7 -4 4 74.49 10.4
7 -4 4 83.29 11.1
-8 4 -4 517.95 50.59
-8 4 -4 403.26 43.6
-8 4 -4 389.86 47.4
8 -4 4 500.45 44.7
8 -4 4 558.54 42.7
8 -4 4 543.75 44.5
-9 4 -4 22.5 4.7
-9 4 -4 6 3.4
-9 4 -4 10.9 5.4
9 -4 4 21.5 4.8
9 -4 4 12.9 3.1
8 3 -4 0.2 4.5
8 3 -4 2.2 1.9
-8 -3 4 0.1 1.9
7 3 -4 105.99 12.6
-7 -3 4 75.19 10.8
-7 -3 4 94.79 12.3
6 3 -4 6.7 5.3
-6 -3 4 -0.3 4.2
-6 -3 4 4.1 3.1
-6 -3 4 10.1 3.4
-6 -3 4 7.2 3
5 3 -4 519.05 44.9
5 3 -4 459.75 43.7
5 3 -4 386.76 41.9
-5 -3 4 428.96 38.4
-5 -3 4 422.76 39
-5 -3 4 416.26 39.2
-5 -3 4 401.86 40.7
-5 -3 4 445.66 38.5
4 3 -4 652.03 62.89
4 3 -4 698.53 62.29
4 3 -4 645.24 60.29
4 3 -4 639.04 60.59
-4 -3 4 583.24 57.49
-4 -3 4 699.23 55.79
-4 -3 4 689.03 56.99
-4 -3 4 701.63 56.59
-4 -3 4 620.24 55.59
3 3 -4 103.29 14.2
3 3 -4 102.99 16.2
3 3 -4 86.89 14
-3 -3 4 119.69 14.8
-3 -3 4 113.89 11.9
-3 -3 4 110.09 12.4
-3 -3 4 130.39 11.8
2 3 -4 1690.33 155.68
-2 -3 4 1871.11 151.48
-2 -3 4 2027.6 155.88
-2 -3 4 2014.9 152.78
1 3 -4 2.2 2.1
1 3 -4 8.6 2.9
1 3 -4 11 3.6
-1 -3 4 3.5 2.2
-1 -3 4 6.3 1.8
-1 -3 4 1.3 0.8
0 3 -4 2104.89 201.98
0 -3 4 2891.31 198.78
-1 3 -4 42.6 6.7
-1 3 -4 47.8 7.2
1 -3 4 38 5.3
-2 3 -4 294.97 29.5
2 -3 4 298.57 27.4
2 -3 4 333.57 26
2 -3 4 339.97 27.1
-3 3 -4 1277.07 106.99
3 -3 4 1263.27 105.19
3 -3 4 1202.58 108.29
3 -3 4 1498.35 104.99
-4 3 -4 60.39 13.7
4 -3 4 64.39 8.1
-5 3 -4 328.87 39.3
5 -3 4 342.67 33.5
5 -3 4 366.56 36.7
5 -3 4 342.37 35
5 -3 4 300.67 34.8
5 -3 4 379.56 31.9
5 -3 4 340.87 31.5
-6 3 -4 184.98 19.8
-6 3 -4 209.78 21.3
6 -3 4 157.48 18.3
6 -3 4 175.78 22.2
6 -3 4 149.59 17.2
6 -3 4 159.38 17.8
6 -3 4 135.59 21.1
-7 3 -4 187.38 24.5
-7 3 -4 218.28 24.8
-7 3 -4 235.08 29.2
7 -3 4 211.38 21.9
7 -3 4 228.98 23.8
7 -3 4 279.97 29.4
7 -3 4 254.77 29.2
7 -3 4 212.38 24.6
-8 3 -4 3.5 4.6
-8 3 -4 6.5 4.6
-8 3 -4 8.2 3.5
8 -3 4 11.4 5.2
8 -3 4 3.4 3.5
8 -3 4 8.9 3.5
8 -3 4 14.7 5.5
8 -3 4 10.3 6.6
-9 3 -4 6.2 4.1
-9 3 -4 3.7 4.7
-9 3 -4 5.7 2.5
9 -3 4 5.4 2
9 -3 4 8.5 4
8 2 -4 6.8 6.3
-8 -2 4 14 7.4
-8 -2 4 4.5 3.2
7 2 -4 33.5 8.7
-7 -2 4 19.2 7.8
-7 -2 4 24.4 6.6
-7 -2 4 16.5 3.6
-7 -2 4 10.9 4.6
6 2 -4 56.69 11.2
6 2 -4 44.3 10.2
6 2 -4 63.69 11.7
-6 -2 4 31.1 10.1
-6 -2 4 45.6 7.2
-6 -2 4 40.4 7.6
-6 -2 4 26.5 6.4
-6 -2 4 34.7 8.4
-6 -2 4 35.3 6.2
5 2 -4 14.3 8.1
5 2 -4 15.5 8.3
5 2 -4 19.3 7.9
5 2 -4 16.9 6.7
5 2 -4 8.6 5.6
-5 -2 4 3.2 2.7
-5 -2 4 10 3.8
-5 -2 4 8.6 4.5
-5 -2 4 6.8 5.1
-5 -2 4 17.5 4.1
4 2 -4 59.49 11.3
4 2 -4 61.59 13.7
4 2 -4 63.99 10.9
4 2 -4 54.79 10
-4 -2 4 59.79 8.8
-4 -2 4 62.69 8.7
-4 -2 4 83.09 11.7
-4 -2 4 79.29 8.9
-4 -2 4 60.49 8.1
-4 -2 4 48.7 9.6
-4 -2 4 69.49 8.1
3 2 -4 1310.17 114.29
-3 -2 4 1560.54 117.59
-3 -2 4 1327.87 110.99
-3 -2 4 1451.65 110.89
-3 -2 4 1253.47 111.19
2 2 -4 20.9 5.8
2 2 -4 33.3 5.7
-2 -2 4 22 4.8
-2 -2 4 27.9 3.6
-2 -2 4 24.1 3.6
-2 -2 4 30 4
1 2 -4 1163.88 104.29
-1 -2 4 1351.36 101.69
-1 -2 4 1337.27 101.99
-1 -2 4 1221.28 103.69
0 2 -4 2986.8 264.77
0 2 -4 3742.33 269.17
-1 2 -4 1832.42 146.69
-1 2 -4 1940.11 150.08
1 -2 4 1797.22 148.69
-2 2 -4 345.17 28.9
-2 2 -4 287.07 26.5
-2 2 -4 311.97 29
2 -2 4 327.37 27.9
-3 2 -4 89.59 9.1
-3 2 -4 88.99 10.8
3 -2 4 70.89 9.1
-4 2 -4 9.4 3.4
-4 2 -4 2.6 2.3
4 -2 4 3.9 3.3
4 -2 4 0.8 2
-5 2 -4 58.09 9.5
-5 2 -4 74.09 10.3
-5 2 -4 66.49 11.3
5 -2 4 62.99 8.6
5 -2 4 65.29 8.8
5 -2 4 56.19 11.1
5 -2 4 81.19 12.5
5 -2 4 56.09 11.5
5 -2 4 50.49 8.5
-6 2 -4 1.1 5.6
-6 2 -4 8.9 5
-6 2 -4 4.1 4
-6 2 -4 11.7 6.1
6 -2 4 -2.2 2.8
6 -2 4 6.4 3.2
6 -2 4 1.6 6.6
6 -2 4 1 4.4
6 -2 4 4 3.2
-7 2 -4 120.19 19.7
7 -2 4 165.08 19.1
7 -2 4 150.88 16.7
7 -2 4 170.88 17.9
7 -2 4 151.28 24.6
7 -2 4 171.48 23.8
-8 2 -4 6.5 4.8
-8 2 -4 2.9 4
-8 2 -4 8.8 5.6
8 -2 4 9.8 4.5
8 -2 4 4.2 2.5
8 -2 4 21.9 9.1
8 -2 4 9.9 3
8 -2 4 1.8 4.1
-9 2 -4 9.7 3.1
-9 2 -4 9.3 3.4
8 1 -4 190.58 20.3
-8 -1 4 140.99 16.8
-8 -1 4 146.49 17.7
7 1 -4 25.7 8.8
7 1 -4 16.3 12.9
7 1 -4 40.7 8.1
7 1 -4 39.4 8.8
-7 -1 4 26.8 8.2
-7 -1 4 27.2 5.6
-7 -1 4 30.3 7.4
6 1 -4 936.11 78.59
-6 -1 4 876.01 71.89
-6 -1 4 757.42 73.49
-6 -1 4 913.51 74.89
-6 -1 4 752.12 72.09
-6 -1 4 938.41 76.79
-6 -1 4 897.21 75.99
5 1 -4 54.99 8.9
5 1 -4 43.1 10.8
5 1 -4 38.5 9.2
5 1 -4 54.09 10.4
5 1 -4 54.99 11.5
-5 -1 4 59.99 9.1
-5 -1 4 48.5 8.1
-5 -1 4 42 9
-5 -1 4 48.9 7.1
-5 -1 4 53.09 7.4
-5 -1 4 44.3 10.5
-5 -1 4 43.8 7
-5 -1 4 55.09 6.9
4 1 -4 226.28 23.9
4 1 -4 236.38 25.6
-4 -1 4 241.38 21.4
-4 -1 4 245.28 22.8
-4 -1 4 225.68 21.7
-4 -1 4 253.77 24.5
3 1 -4 117.29 14.3
3 1 -4 125.19 14.1
-3 -1 4 123.39 14.7
-3 -1 4 128.99 12.9
-3 -1 4 136.09 14.5
-3 -1 4 130.69 12.6
-3 -1 4 123.69 11.8
2 1 -4 1064.89 85.39
2 1 -4 1107.19 86.19
-2 -1 4 989.4 83.39
-2 -1 4 1023.2 83.99
-2 -1 4 979.8 85.49
-2 -1 4 1083.59 84.49
1 1 -4 2265.37 185.68
-1 -1 4 2465.75 185.88
-1 -1 4 2270.47 185.28
0 1 -4 1926.81 155.48
0 -1 4 1736.23 152.68
0 -1 4 2098.69 153.48
-1 1 -4 1338.67 112.59
1 -1 4 1386.46 110.19
-2 1 -4 827.42 64.09
2 -1 4 759.72 60.69
2 -1 4 665.43 62.79
2 -1 4 706.13 62.09
-3 1 -4 458.35 39.9
-3 1 -4 421.86 43.8
3 -1 4 405.86 42.4
3 -1 4 504.35 40.3
3 -1 4 524.35 42.6
-4 1 -4 391.46 38.1
-4 1 -4 478.95 40.7
-4 1 -4 438.16 39.3
4 -1 4 510.25 42.1
4 -1 4 412.26 37.8
4 -1 4 466.85 38.8
4 -1 4 354.56 41
-5 1 -4 1576.44 134.69
-5 1 -4 1485.55 133.89
-5 1 -4 1658.03 136.69
5 -1 4 1860.51 132.19
5 -1 4 1605.24 130.69
5 -1 4 1442.46 133.49
5 -1 4 1742.43 138.19
5 -1 4 1553.24 132.09
-6 1 -4 127.49 18.1
-6 1 -4 94.59 20.2
-6 1 -4 114.69 18.1
6 -1 4 137.39 14.9
6 -1 4 140.39 17.8
6 -1 4 153.18 20.4
6 -1 4 139.09 19.7
6 -1 4 145.99 15.4
6 -1 4 152.68 16.4
-7 1 -4 152.18 20.3
-7 1 -4 184.68 22.4
7 -1 4 174.68 21.9
7 -1 4 168.78 19.1
7 -1 4 196.88 18.4
7 -1 4 234.08 23
7 -1 4 223.08 25.1
7 -1 4 179.48 18.5
-8 1 -4 19.8 7.2
8 -1 4 4.3 3.8
8 -1 4 13.7 3.1
8 -1 4 29.3 9.5
9 0 -4 7.2 4.9
-9 0 4 1 2.1
-9 0 4 -4.1 2.6
8 0 -4 4.8 5.1
8 0 -4 10.5 5.7
8 0 -4 2.2 4
-8 0 4 1.5 2.9
-8 0 4 7.6 4
7 0 -4 1.9 13.3
7 0 -4 16.4 7
7 0 -4 21.5 6.3
-7 0 4 23.3 6.8
-7 0 4 16.7 4.1
-7 0 4 23.1 4.5
-7 0 4 22.7 6.5
6 0 -4 9.1 6.5
6 0 -4 21.4 8.8
6 0 -4 19.8 8
-6 0 4 13.5 3.9
-6 0 4 12.3 3.7
-6 0 4 12.1 4.3
-6 0 4 4 4.5
-6 0 4 14.3 4.2
5 0 -4 264.87 27.7
5 0 -4 227.68 27.7
5 0 -4 301.47 31.5
5 0 -4 262.57 29.7
-5 0 4 305.57 25.5
-5 0 4 273.07 25.3
-5 0 4 317.17 28.9
-5 0 4 259.77 27.7
-5 0 4 298.27 27.7
-5 0 4 308.77 26.1
-5 0 4 285.17 27
4 0 -4 7.7 3.7
4 0 -4 7.3 2.9
4 0 -4 7 4.2
4 0 -4 8.4 3.7
4 0 -4 7.2 4.9
-4 0 4 10.4 3.5
-4 0 4 13.2 3.2
-4 0 4 7.3 2.3
-4 0 4 7.3 3
-4 0 4 8.6 3.8
3 0 -4 3126.39 260.27
3 0 -4 3023.8 262.87
-3 0 4 3257.47 258.27
-3 0 4 3391.66 259.67
-3 0 4 3202.28 260.17
-3 0 4 3521.35 259.27
-3 0 4 3259.67 257.97
2 0 -4 110.09 12.1
2 0 -4 134.19 13.2
2 0 -4 130.19 13.4
-2 0 4 139.39 12.8
-2 0 4 102.99 14.4
-2 0 4 125.69 11.4
-2 0 4 122.99 12
1 0 -4 2218.88 181.88
1 0 -4 1954.3 182.48
-1 0 4 2400.66 180.48
-1 0 4 2279.77 181.68
-1 0 4 2526.65 182.08
0 0 -4 106.89 12.5
0 0 -4 123.99 11.5
0 0 -4 97.29 10.8
0 0 -4 129.79 11.9
0 0 4 104.29 10.6
0 0 4 130.59 11
0 0 4 137.79 12.6
0 0 4 109.79 11.4
-1 0 -4 3328.67 273.97
-1 0 -4 3076.69 273.17
1 0 4 3730.03 273.77
1 0 4 3834.52 275.17
1 0 4 3764.62 274.87
1 0 4 2926.91 278.47
-2 0 -4 1995.7 159.98
3 0 4 1004.1 86.09
3 0 4 1005.4 89.09
3 0 4 1024.7 86.59
3 0 4 1180.78 96.09
-4 0 -4 425.26 46.5
-4 0 -4 588.74 49.9
4 0 4 482.55 52.39
4 0 4 609.94 46.4
4 0 4 484.35 44.1
-5 0 -4 -2.9 4.6
-5 0 -4 13 6.6
-5 0 -4 -1.5 6.1
5 0 4 -5 5.5
5 0 4 6.2 5
5 0 4 1.2 4.1
5 0 4 2.2 2.9
5 0 4 4.6 2.8
-6 0 -4 4.1 4.8
-6 0 -4 4.9 6.6
-6 0 -4 20 7.1
6 0 4 15.5 7
6 0 4 5.8 2.8
6 0 4 10 5.3
6 0 4 7.2 5.5
6 0 4 11.2 5
-7 0 -4 15.3 6.6
7 0 4 29.2 7.5
7 0 4 19.2 4.2
7 0 4 18.7 7.9
7 0 4 18.1 6.6
7 0 4 24.1 4.6
-8 0 -4 10.8 4
-8 0 -4 16.6 5.1
8 0 4 15.6 4.2
8 0 4 0.9 5.6
9 -1 -4 8.2 4
9 -1 -4 4.2 4.1
-9 1 4 4.8 2.7
-9 1 4 3.6 2.9
-8 1 4 176.78 19.3
-8 1 4 178.68 20.2
7 -1 -4 323.87 39.5
7 -1 -4 286.57 31.1
7 -1 -4 265.87 27.8
-7 1 4 253.97 26.5
-7 1 4 256.27 27.1
-7 1 4 242.08 23.6
6 -1 -4 337.67 25.3
6 -1 -4 274.97 29.8
6 -1 -4 282.07 30.1
6 -1 -4 290.47 31.8
6 -1 -4 323.87 36.4
-6 1 4 248.48 25.2
-6 1 4 278.07 28.3
-6 1 4 293.17 30
-6 1 4 230.68 27.6
-6 1 4 293.37 26.5
-6 1 4 289.37 25.9
-6 1 4 252.97 30.6
-6 1 4 290.67 25.7
5 -1 -4 1478.65 116.79
5 -1 -4 1291.27 110.19
5 -1 -4 1154.18 109.79
5 -1 -4 1357.56 107.99
5 -1 -4 1338.27 114.99
-5 1 4 1267.07 110.39
-5 1 4 1439.96 108.79
-5 1 4 1321.67 109.29
-5 1 4 1398.76 108.79
-5 1 4 1272.17 107.79
-5 1 4 1458.85 110.89
-5 1 4 1263.77 110.09
4 -1 -4 450.55 40.6
4 -1 -4 480.35 41
4 -1 -4 426.66 40.2
4 -1 -4 491.05 41.5
4 -1 -4 480.85 43.5
-4 1 4 473.25 41.1
-4 1 4 458.55 41.1
-4 1 4 469.05 39.6
-4 1 4 472.85 41.5
-4 1 4 458.35 39.1
3 -1 -4 2316.27 189.88
3 -1 -4 2348.36 188.68
3 -1 -4 2323.07 189.68
3 -1 -4 1984.5 187.18
3 -1 -4 2102.59 188.28
3 -1 -4 2155.28 187.78
-3 1 4 2519.55 186.98
-3 1 4 2542.55 186.68
-3 1 4 2541.75 188.68
-3 1 4 2605.14 188.08
2 -1 -4 18.7 3.6
2 -1 -4 14.8 4.2
2 -1 -4 13 3.4
-2 1 4 19.6 3.3
-2 1 4 26.1 3.3
-2 1 4 20.2 3.8
1 -1 -4 421.56 39.2
1 -1 -4 433.56 39.6
1 -1 -4 422.66 38.9
1 -1 -4 504.75 40.9
-1 1 4 484.55 39.1
-1 1 4 473.25 39.3
-1 1 4 447.26 39.8
-1 1 4 545.65 39
0 -1 -4 50.99 5.7
0 -1 -4 48.1 6
0 -1 -4 46.2 5.5
0 -1 -4 50.69 6.7
0 -1 -4 44.2 5.5
0 1 4 58.69 6.9
0 1 4 45.6 6
0 1 4 49.5 6.6
0 1 4 43.9 5.6
-1 -1 -4 2 1.2
-1 -1 -4 1.6 1.5
-1 -1 -4 3.5 1.6
-1 -1 -4 6.7 2.7
-1 -1 -4 5 1.5
1 1 4 2.7 2.2
1 1 4 3.7 1.3
1 1 4 1.9 2.3
-2 -1 -4 3.2 1.5
-2 -1 -4 0.5 2.3
-2 -1 -4 3.1 1.8
-2 -1 -4 11.4 3.3
2 1 4 10.3 4.2
2 1 4 8 4.3
2 1 4 4.5 2.6
2 1 4 3.7 3.6
2 1 4 1.9 2.2
-3 -1 -4 14.1 4.1
-3 -1 -4 3.5 2.1
-3 -1 -4 4.5 4
-3 -1 -4 8.5 4.9
-3 -1 -4 3.4 2.6
3 1 4 2.9 3.5
3 1 4 -0.4 3
3 1 4 5.2 2.7
3 1 4 3.7 4
3 1 4 7.6 4.6
3 1 4 6.4 3.3
3 1 4 3.2 3.7
-4 -1 -4 54.69 9.5
-4 -1 -4 56.59 13
-4 -1 -4 57.89 10.8
-4 -1 -4 53.79 10.6
4 1 4 34.2 13.7
4 1 4 40 9.8
4 1 4 62.89 12.1
4 1 4 55.59 8.1
4 1 4 64.19 9.4
4 1 4 60.49 12.1
4 1 4 46.5 10.4
4 1 4 66.49 8.6
-5 -1 -4 42.8 10.7
-5 -1 -4 53.19 13.7
-5 -1 -4 35.8 13.4
-5 -1 -4 33 9.3
5 1 4 58.29 7.8
5 1 4 53.39 12.2
5 1 4 52.29 7.6
5 1 4 38.3 9.7
5 1 4 57.69 11.9
5 1 4 52.89 8.6
5 1 4 53.29 10
-6 -1 -4 18.2 6.3
-6 -1 -4 12.9 6.2
6 1 4 11.3 3.2
6 1 4 4.7 3.5
6 1 4 19.7 6.3
6 1 4 17.2 5.6
6 1 4 10.2 6.9
-7 -1 -4 -0.1 2.9
7 1 4 -2.2 2.2
7 1 4 6.8 4.3
9 -2 -4 51.99 9.8
9 -2 -4 31.2 7.1
-9 2 4 35.6 6.9
-9 2 4 26.1 5.6
8 -2 -4 784.02 64.49
8 -2 -4 654.73 59.19
-8 2 4 617.44 58.49
-8 2 4 640.24 57.79
7 -2 -4 10.1 5.7
7 -2 -4 7.4 4.7
7 -2 -4 -0.1 3
-7 2 4 3.9 3.7
-7 2 4 2 3.4
-7 2 4 9.1 3.9
6 -2 -4 1619.24 146.79
6 -2 -4 1946.71 147.59
6 -2 -4 1777.22 145.29
6 -2 -4 1542.15 146.79
6 -2 -4 1795.22 150.58
6 -2 -4 2117.39 156.78
-6 2 4 1810.32 145.89
-6 2 4 1841.42 143.09
-6 2 4 1600.54 143.59
-6 2 4 1655.33 146.69
-6 2 4 1884.21 145.29
5 -2 -4 226.08 22.1
5 -2 -4 201.98 21.9
5 -2 -4 262.47 23.5
5 -2 -4 225.68 27.4
5 -2 -4 211.58 23.7
5 -2 -4 243.48 22.9
5 -2 -4 232.98 23.5
5 -2 -4 224.78 23.6
-5 2 4 232.18 23.5
-5 2 4 178.18 22.7
-5 2 4 248.08 21.1
-5 2 4 214.38 20.5
-5 2 4 226.08 21.8
-5 2 4 209.48 21.1
-5 2 4 249.18 22.6
4 -2 -4 3073.29 259.87
4 -2 -4 3222.28 259.47
4 -2 -4 3061.19 258.47
4 -2 -4 3111.19 262.37
4 -2 -4 2993.3 259.47
4 -2 -4 3302.87 262.07
4 -2 -4 3011.6 258.57
-4 2 4 3486.05 257.57
-4 2 4 3623.24 260.77
-4 2 4 3390.76 259.67
-4 2 4 3360.96 258.07
3 -2 -4 2889.31 242.08
3 -2 -4 2850.01 241.68
3 -2 -4 2845.42 244.38
3 -2 -4 3204.58 243.28
3 -2 -4 2649.33 242.28
3 -2 -4 2831.52 243.68
3 -2 -4 2921.71 241.58
-3 2 4 3479.15 243.68
-3 2 4 3215.98 242.48
-3 2 4 3253.57 240.88
-3 2 4 3193.88 241.28
2 -2 -4 4265.97 355.36
2 -2 -4 4224.68 353.06
2 -2 -4 4249.98 354.46
2 -2 -4 4149.78 353.66
2 -2 -4 4360.66 353.36
-2 2 4 4580.74 352.76
-2 2 4 4898.41 354.66
-2 2 4 4891.91 353.96
1 -2 -4 7715.43 645.94
1 -2 -4 8064.89 646.14
1 -2 -4 7814.52 648.04
-1 2 4 9116.39 645.94
0 -2 -4 2958.4 252.57
0 -2 -4 3049.59 254.67
0 -2 -4 3093.09 252.17
0 -2 -4 2972.5 252.67
0 -2 -4 3023.4 252.77
0 -2 -4 2872.61 252.27
0 2 4 3533.95 255.57
0 2 4 3390.46 253.07
0 2 4 3453.45 254.37
0 2 4 3241.48 253.27
0 2 4 3132.59 254.07
0 2 4 3386.16 253.67
-1 -2 -4 3365.36 280.57
-1 -2 -4 3535.35 280.57
-1 -2 -4 3401.86 284.97
-1 -2 -4 3502.25 281.07
-1 -2 -4 3684.23 280.37
-1 -2 -4 3589.84 281.37
1 2 4 3469.85 284.27
1 2 4 3545.45 286.07
1 2 4 3666.33 282.67
-2 -2 -4 978.7 79.99
-2 -2 -4 899.01 79.39
-2 -2 -4 1005 81.39
-2 -2 -4 1053.39 84.39
-2 -2 -4 870.61 80.39
2 2 4 965.3 85.99
2 2 4 1133.79 83.69
2 2 4 1038.1 82.99
2 2 4 1036.2 88.49
2 2 4 881.61 82.09
2 2 4 855.51 83.79
-3 -2 -4 1342.17 111.59
-3 -2 -4 1211.38 109.89
-3 -2 -4 1104.29 104.99
-3 -2 -4 1250.37 108.69
-3 -2 -4 1143.29 105.39
-3 -2 -4 1217.88 107.69
3 2 4 1361.96 109.69
3 2 4 1327.57 109.69
3 2 4 1542.65 115.39
3 2 4 1488.25 107.49
-4 -2 -4 94.09 18.3
-4 -2 -4 92.59 14.2
-4 -2 -4 73.49 14.8
-4 -2 -4 96.29 13.5
-4 -2 -4 70.69 14.3
4 2 4 95.79 17.5
4 2 4 91.19 14
4 2 4 100.79 11.7
4 2 4 96.99 12.1
4 2 4 110.39 17.5
4 2 4 117.69 13.6
-5 -2 -4 246.08 36.5
-5 -2 -4 246.68 29
-5 -2 -4 246.88 27.4
5 2 4 240.88 27.9
5 2 4 217.98 23.3
5 2 4 301.87 32.5
5 2 4 301.47 28.2
5 2 4 278.97 23.9
-6 -2 -4 -1.4 3.6
-6 -2 -4 -5.2 3.6
6 2 4 -0.7 3.1
6 2 4 10.4 5
6 2 4 0.9 4.8
-7 -2 -4 18.3 5.4
-7 -2 -4 17.7 5.1
7 2 4 22.8 5.9
7 2 4 26.6 4.9
9 -3 -4 -0.7 4.2
9 -3 -4 -4.5 3
-9 3 4 1.9 3.1
-9 3 4 3.4 3.3
8 -3 -4 25.7 8.4
8 -3 -4 21.2 6.5
8 -3 -4 23.1 5.5
-8 3 4 27.1 6.8
-8 3 4 21.7 5.3
7 -3 -4 10 3.8
7 -3 -4 17.8 7.1
7 -3 -4 13.1 6.6
7 -3 -4 19.5 4.4
-7 3 4 19.1 6.7
-7 3 4 10.4 6.3
-7 3 4 20.3 5.7
-7 3 4 18.4 6
6 -3 -4 161.18 22.1
6 -3 -4 167.08 18.6
6 -3 -4 170.68 20
6 -3 -4 131.19 17.1
6 -3 -4 156.08 32.3
6 -3 -4 202.28 28.6
-6 3 4 158.68 19.3
-6 3 4 161.48 16.1
5 -3 -4 614.64 56.59
5 -3 -4 587.94 53.89
5 -3 -4 652.93 58.39
5 -3 -4 556.34 51.39
5 -3 -4 716.93 59.39
5 -3 -4 585.84 50.99
5 -3 -4 611.24 51.89
5 -3 -4 559.34 52.59
5 -3 -4 664.93 53.29
5 -3 -4 549.85 53.09
5 -3 -4 640.24 53.89
-5 3 4 636.64 50.29
-5 3 4 658.03 54.39
-5 3 4 544.25 51.49
-5 3 4 487.05 50.49
-5 3 4 560.14 50.99
4 -3 -4 330.97 29.5
4 -3 -4 291.87 27.8
4 -3 -4 281.07 27.9
4 -3 -4 268.37 28.1
4 -3 -4 299.57 30.8
4 -3 -4 263.27 29.4
4 -3 -4 284.17 29.1
4 -3 -4 319.27 35.9
-4 3 4 359.56 30.1
-4 3 4 314.67 27.7
-4 3 4 332.67 27.1
-4 3 4 346.37 30.8
-4 3 4 286.17 27.6
3 -3 -4 71.59 11.1
3 -3 -4 62.59 8.7
3 -3 -4 63.99 8.4
3 -3 -4 58.19 8.3
-3 3 4 84.09 8.8
-3 3 4 77.79 8.5
2 -3 -4 720.63 59.59
2 -3 -4 763.42 62.79
2 -3 -4 679.93 60.59
2 -3 -4 657.03 58.89
2 -3 -4 694.23 58.99
2 -3 -4 734.63 59.09
2 -3 -4 668.83 59.69
-2 3 4 743.53 60.69
-2 3 4 768.12 61.69
-2 3 4 653.83 58.89
1 -3 -4 13.4 4.2
1 -3 -4 12.9 5.5
1 -3 -4 12.5 3.4
1 -3 -4 13.9 3.7
1 -3 -4 23.8 4.4
1 -3 -4 19.4 4.4
1 -3 -4 21.1 3.8
-1 3 4 15.6 4.5
-1 3 4 13.9 4.7
-1 3 4 21 4.4
0 -3 -4 688.33 61.79
0 -3 -4 767.92 62.29
0 -3 -4 789.72 61.69
0 -3 -4 734.03 61.99
0 -3 -4 746.83 61.49
0 -3 -4 731.63 62.49
0 -3 -4 792.02 65.39
0 3 4 719.13 62.49
0 3 4 723.23 63.69
0 3 4 707.13 64.39
0 3 4 728.03 63.29
-1 -3 -4 10.9 2.7
-1 -3 -4 4.8 3.3
-1 -3 -4 -2.4 3.8
-1 -3 -4 4.5 3.2
-1 -3 -4 16 6.2
-1 -3 -4 0.6 2.6
-1 -3 -4 8.8 3.4
-1 -3 -4 6.9 2.9
1 3 4 5.7 4.9
1 3 4 4.8 4
1 3 4 12.6 5
1 3 4 13.9 5.5
1 3 4 6 4.2
1 3 4 2.1 3.6
1 3 4 1.7 3.7
-2 -3 -4 310.37 28.6
-2 -3 -4 363.16 33.6
-2 -3 -4 322.47 29.6
-2 -3 -4 258.57 27.9
-2 -3 -4 266.77 28.9
-2 -3 -4 319.57 28.7
-2 -3 -4 324.27 30
-2 -3 -4 355.06 32
2 3 4 329.67 36
2 3 4 279.77 31.5
2 3 4 290.27 31.5
2 3 4 334.17 38.6
2 3 4 303.27 32.4
-3 -3 -4 3.8 5.1
-3 -3 -4 9.9 9
-3 -3 -4 -0.5 3.5
-3 -3 -4 8 6
-3 -3 -4 6 4.6
3 3 4 8.3 5.1
3 3 4 11.6 4.8
3 3 4 0.4 5.2
-4 -3 -4 145.59 17.6
-4 -3 -4 181.78 23
-4 -3 -4 181.58 21.2
-4 -3 -4 162.48 20.8
4 3 4 151.38 24.3
4 3 4 184.08 21.6
4 3 4 230.48 27.9
4 3 4 150.48 21
4 3 4 207.18 17.7
-5 -3 -4 38.6 9.4
5 3 4 50.79 8.8
5 3 4 36.4 9.2
5 3 4 41.6 11.4
-6 -3 -4 -4.9 4.4
-6 -3 -4 1.6 3.8
-6 -3 -4 -0.7 3.2
6 3 4 -3.6 2.4
6 3 4 0.4 2.5
9 -4 -4 37.8 7.7
9 -4 -4 63.79 10.1
-9 4 4 43.3 7.7
8 -4 -4 323.07 26.4
8 -4 -4 308.87 31.6
8 -4 -4 342.27 32.1
8 -4 -4 293.97 33.5
-8 4 4 296.77 30.6
-8 4 4 271.47 28.3
-8 4 4 310.37 29.8
7 -4 -4 76.09 12.1
7 -4 -4 67.69 9.8
7 -4 -4 74.39 12.5
7 -4 -4 80.99 13.8
7 -4 -4 83.09 15.4
7 -4 -4 83.19 10.5
-7 4 4 76.19 10.5
-7 4 4 63.79 13.5
-7 4 4 60.99 12.1
-7 4 4 64.09 10.8
6 -4 -4 3288.47 247.48
6 -4 -4 3257.77 246.08
6 -4 -4 2907.31 244.18
6 -4 -4 3012.8 247.48
6 -4 -4 2910.71 243.18
6 -4 -4 3110.29 245.28
6 -4 -4 3055.39 247.58
-6 4 4 2998.2 244.78
-6 4 4 3012.7 243.88
-6 4 4 2845.62 247.88
5 -4 -4 9.2 4.2
5 -4 -4 -5.1 5.7
5 -4 -4 2 3.3
5 -4 -4 8.7 4.8
5 -4 -4 8.3 5
5 -4 -4 4.3 4
5 -4 -4 6.2 4.2
5 -4 -4 3.4 3.4
-5 4 4 3.8 3.8
-5 4 4 10.3 5.1
-5 4 4 8.3 3.8
4 -4 -4 4113.89 322.87
4 -4 -4 3642.34 321.87
4 -4 -4 3913.51 324.47
4 -4 -4 4181.98 325.67
4 -4 -4 4567.04 325.37
4 -4 -4 4006.7 326.87
4 -4 -4 4067.89 329.67
4 -4 -4 4263.07 323.47
4 -4 -4 3967.6 323.57
4 -4 -4 3854.71 327.57
-4 4 4 3928.81 323.07
3 -4 -4 513.05 47.8
3 -4 -4 551.74 47.4
3 -4 -4 481.05 46.7
3 -4 -4 543.95 46.6
3 -4 -4 596.24 52.59
3 -4 -4 569.54 50.19
3 -4 -4 548.05 49.9
-3 4 4 548.55 47.4
-3 4 4 522.15 46.8
2 -4 -4 1108.99 94.49
2 -4 -4 1094.19 96.49
2 -4 -4 1177.98 94.29
2 -4 -4 1090.79 95.29
2 -4 -4 1216.48 99.49
2 -4 -4 1135.89 96.59
2 -4 -4 1021.9 93.69
2 -4 -4 1060.59 94.59
2 -4 -4 1155.38 94.39
-2 4 4 1200.88 95.19
-2 4 4 1190.48 95.69
-2 4 4 1343.07 99.29
1 -4 -4 748.23 60.49
1 -4 -4 715.23 60.59
1 -4 -4 732.73 65.19
1 -4 -4 678.43 62.29
1 -4 -4 722.93 60.89
1 -4 -4 685.53 62.49
1 -4 -4 657.13 59.99
1 -4 -4 706.93 60.89
1 -4 -4 676.83 61.19
-1 4 4 778.62 61.99
-1 4 4 787.62 62.99
0 -4 -4 703.63 63.79
0 -4 -4 662.13 66.69
0 -4 -4 791.32 63.39
0 -4 -4 724.33 65.19
0 -4 -4 759.12 64.29
0 -4 -4 731.43 68.29
0 -4 -4 769.42 65.99
0 -4 -4 692.93 63.49
0 -4 -4 769.32 64.39
0 -4 -4 723.33 63.09
0 4 4 871.11 67.49
0 4 4 831.02 66.29
-1 -4 -4 822.22 71.69
-1 -4 -4 889.71 74.19
-1 -4 -4 874.91 72.49
-1 -4 -4 795.12 72.89
-1 -4 -4 815.72 70.59
-1 -4 -4 911.11 71.49
-1 -4 -4 797.72 75.39
-1 -4 -4 879.81 77.99
-1 -4 -4 827.92 70.69
1 4 4 929.21 73.29
1 4 4 914.01 75.69
1 4 4 813.12 74.29
1 4 4 693.83 79.19
-2 -4 -4 1.6 2.8
-2 -4 -4 3.4 4.3
-2 -4 -4 11.4 5.6
-2 -4 -4 6.1 3.8
-2 -4 -4 0.2 5.6
-2 -4 -4 0.7 3
-2 -4 -4 0.3 3.3
2 4 4 -0.2 6
2 4 4 -3.3 4.9
2 4 4 3.1 5.2
-3 -4 -4 17.1 6.7
-3 -4 -4 15.7 5
-3 -4 -4 29.2 8.6
-3 -4 -4 19.5 7.2
3 4 4 24.1 7.3
3 4 4 22.8 6.7
3 4 4 20.4 8.8
-4 -4 -4 68.59 13.6
-4 -4 -4 92.49 14.2
4 4 4 74.29 12.7
4 4 4 97.69 16.7
4 4 4 94.79 12.8
-5 -4 -4 1.3 3
-5 -4 -4 3.6 4
5 4 4 7.4 3.5
5 4 4 2.7 3
9 -5 -4 66.99 13.3
-9 5 4 79.49 11.3
-9 5 4 62.19 8.3
8 -5 -4 111.49 20
8 -5 -4 106.89 14.6
8 -5 -4 77.49 16.6
8 -5 -4 102.79 10.3
-8 5 4 88.89 12.4
7 -5 -4 341.47 31.7
7 -5 -4 265.17 32.7
7 -5 -4 325.67 29
-7 5 4 270.77 35.1
-7 5 4 301.57 28.7
6 -5 -4 1678.03 128.59
6 -5 -4 1559.84 127.49
6 -5 -4 1671.83 131.49
6 -5 -4 1537.55 126.49
6 -5 -4 1343.17 130.09
6 -5 -4 1737.53 130.99
-6 5 4 1415.66 132.69
-6 5 4 1669.83 127.29
-6 5 4 1360.96 127.89
-6 5 4 1549.54 127.89
5 -5 -4 225.78 22.5
5 -5 -4 188.18 20.6
5 -5 -4 167.08 19.7
5 -5 -4 189.98 21.9
5 -5 -4 195.78 23.2
5 -5 -4 152.08 20.2
5 -5 -4 204.08 24.5
5 -5 -4 172.48 19.3
-5 5 4 231.18 25.9
-5 5 4 198.58 21.2
-5 5 4 207.28 24.7
-5 5 4 193.68 20.6
4 -5 -4 1613.14 126.29
4 -5 -4 1479.65 123.29
4 -5 -4 1412.66 123.49
4 -5 -4 1453.55 124.79
4 -5 -4 1448.16 127.49
4 -5 -4 1519.25 122.79
4 -5 -4 1426.66 121.99
-4 5 4 1606.74 123.79
3 -5 -4 805.02 65.59
3 -5 -4 760.72 67.49
3 -5 -4 760.22 64.69
3 -5 -4 744.53 66.49
3 -5 -4 722.93 68.59
3 -5 -4 772.62 68.79
3 -5 -4 674.53 63.89
3 -5 -4 704.63 65.09
-3 5 4 764.82 72.39
-3 5 4 771.12 65.29
-3 5 4 835.32 73.29
-3 5 4 833.12 66.09
2 -5 -4 1683.43 139.99
2 -5 -4 1632.14 141.59
2 -5 -4 1664.13 137.79
2 -5 -4 1680.13 138.99
2 -5 -4 1714.93 137.29
2 -5 -4 1592.44 136.69
2 -5 -4 1680.63 137.49
2 -5 -4 1603.04 140.69
2 -5 -4 1662.03 139.79
-2 5 4 1777.22 138.69
-2 5 4 1824.12 139.29
1 -5 -4 20.9 5.8
1 -5 -4 37.2 6.8
1 -5 -4 16.6 8.1
1 -5 -4 33.4 6.7
1 -5 -4 17 6.2
1 -5 -4 31.4 6
1 -5 -4 25.6 6
1 -5 -4 25.2 9.2
1 -5 -4 20.4 5.2
-1 5 4 30.4 8.1
-1 5 4 30.4 8.2
0 -5 -4 1128.19 85.39
0 -5 -4 874.71 83.69
0 -5 -4 864.21 82.79
0 -5 -4 1115.29 84.59
0 -5 -4 951.8 88.19
0 -5 -4 1034.1 84.99
0 5 4 1032 89.19
-1 -5 -4 691.53 69.59
-1 -5 -4 819.02 70.19
-1 -5 -4 841.32 68.09
-1 -5 -4 799.82 69.29
-1 -5 -4 883.31 75.49
-1 -5 -4 853.71 71.79
-1 -5 -4 788.52 69.29
-1 -5 -4 732.23 73.19
1 5 4 790.42 72.49
1 5 4 808.62 72.39
-2 -5 -4 486.75 51.79
-2 -5 -4 566.34 56.89
-2 -5 -4 615.94 54.09
-2 -5 -4 552.44 52.69
-2 -5 -4 648.34 51.19
-2 -5 -4 671.23 55.59
2 5 4 562.24 54.79
-3 -5 -4 202.88 22.8
-3 -5 -4 176.48 18
-3 -5 -4 161.68 23.3
3 5 4 188.18 22.2
3 5 4 233.98 22
-4 -5 -4 393.26 41.3
4 5 4 390.66 32.6
4 5 4 292.07 35.6
-5 -5 -4 62.89 7.8
9 -6 -4 2.8 2.8
-9 6 4 2.4 2.3
-9 6 4 -2 4.1
-9 6 4 4.6 2.3
8 -6 -4 60.69 9.8
-8 6 4 59.79 8.5
-8 6 4 52.49 10.2
-8 6 4 37.4 9.6
7 -6 -4 18.2 6.2
7 -6 -4 10.2 6
7 -6 -4 13.6 6.8
7 -6 -4 18.5 5.3
7 -6 -4 5.5 6.9
-7 6 4 15.6 5
-7 6 4 2.8 7.6
-7 6 4 12.2 5.3
6 -6 -4 170.48 30.8
6 -6 -4 185.48 20.6
6 -6 -4 220.68 20.4
6 -6 -4 186.88 25.7
6 -6 -4 234.38 24.1
6 -6 -4 212.68 22.1
6 -6 -4 160.68 18.9
-6 6 4 179.98 19.8
-6 6 4 168.88 31.3
-6 6 4 108.89 32.8
-6 6 4 148.29 22.2
5 -6 -4 17.5 6.6
5 -6 -4 7 4.6
5 -6 -4 17.9 5.1
5 -6 -4 17.2 5.6
5 -6 -4 15.5 5.1
5 -6 -4 16.2 6.1
5 -6 -4 11.9 8.1
-5 6 4 10.6 6.6
-5 6 4 7.8 9
-5 6 4 -0.5 10.1
-5 6 4 31.4 7.3
4 -6 -4 58.09 10.6
4 -6 -4 71.99 11.1
4 -6 -4 42.3 8.1
4 -6 -4 69.29 13.8
4 -6 -4 48.5 8.3
4 -6 -4 41.5 8.1
4 -6 -4 45.3 8
-4 6 4 49.8 8.6
-4 6 4 35.7 8.6
3 -6 -4 576.84 58.29
3 -6 -4 545.55 51.89
3 -6 -4 509.45 49.1
3 -6 -4 520.35 47.8
3 -6 -4 551.54 50.69
3 -6 -4 543.25 51.09
-3 6 4 598.44 50.09
2 -6 -4 709.53 64.49
2 -6 -4 645.04 62.19
2 -6 -4 706.13 65.99
2 -6 -4 705.83 63.49
2 -6 -4 705.73 62.69
2 -6 -4 713.03 61.29
2 -6 -4 625.34 69.59
2 -6 -4 720.23 63.79
-2 6 4 835.62 64.59
-2 6 4 770.62 64.89
1 -6 -4 247.98 27.1
1 -6 -4 278.87 27.2
1 -6 -4 261.17 26.8
1 -6 -4 270.77 27.2
1 -6 -4 212.48 29.4
1 -6 -4 279.27 26.1
1 -6 -4 278.57 29
1 -6 -4 275.57 25.9
-1 6 4 233.08 29.5
-1 6 4 327.97 30
0 -6 -4 164.88 23.7
0 -6 -4 187.68 20.5
0 -6 -4 179.18 20.4
0 -6 -4 189.78 21.2
0 -6 -4 186.08 19.4
0 -6 -4 196.38 22.4
0 -6 -4 172.78 18.9
0 6 4 222.08 29.1
0 6 4 174.88 24.6
0 6 4 188.38 22.6
-1 -6 -4 53.39 16
-1 -6 -4 58.09 11.1
-1 -6 -4 68.99 9.7
-1 -6 -4 65.29 14.4
-1 -6 -4 56.09 10.6
-1 -6 -4 52.99 8.5
1 6 4 64.79 12.5
-2 -6 -4 262.27 26.9
-2 -6 -4 248.58 23
-2 -6 -4 243.38 29
2 6 4 242.38 26.8
-3 -6 -4 17.3 5.7
-3 -6 -4 27.4 7.3
3 6 4 44.3 10.1
3 6 4 21.7 6.5
-4 -6 -4 65.89 7.8
4 6 4 54.59 8.5
8 -7 -4 193.28 16.2
8 -7 -4 188.58 19.7
-8 7 4 175.68 18.2
7 -7 -4 6.5 4.4
7 -7 -4 12.8 4.8
7 -7 -4 9.1 5.9
7 -7 -4 6 8.7
7 -7 -4 17.3 5.8
-7 7 4 3.2 5.2
-7 7 4 9.2 3.8
-7 7 4 16.6 4.9
6 -7 -4 57.49 9.2
6 -7 -4 66.29 11.5
6 -7 -4 81.09 10.1
6 -7 -4 78.59 13
-6 7 4 77.99 10.8
-6 7 4 67.59 11.1
5 -7 -4 9.4 5.2
5 -7 -4 8.6 4.5
5 -7 -4 5 3.8
5 -7 -4 14.6 8.8
5 -7 -4 9.2 5.5
5 -7 -4 8.1 4.9
-5 7 4 4.3 14.1
-5 7 4 6 6
-5 7 4 11.4 4.7
4 -7 -4 245.28 32.2
4 -7 -4 213.48 25.4
4 -7 -4 178.98 20.2
4 -7 -4 154.18 18.6
4 -7 -4 177.98 23.2
3 -7 -4 101.79 14.6
3 -7 -4 82.09 10.4
3 -7 -4 70.59 11.9
3 -7 -4 49.3 12.8
3 -7 -4 72.49 11.1
3 -7 -4 72.59 10
2 -7 -4 298.47 32.3
2 -7 -4 257.07 27.3
2 -7 -4 231.08 25.8
2 -7 -4 277.67 30.7
-2 7 4 336.47 34.8
1 -7 -4 132.79 21.8
1 -7 -4 125.09 15
1 -7 -4 140.79 16.7
1 -7 -4 118.19 17.6
1 -7 -4 133.29 15.2
-1 7 4 163.68 22.3
-1 7 4 153.68 18.7
0 -7 -4 206.78 19.1
0 -7 -4 189.38 22
0 -7 -4 161.78 21.9
0 7 4 198.08 27
0 7 4 179.58 22.1
-1 -7 -4 158.98 21.2
-1 -7 -4 116.99 16.1
-1 -7 -4 157.68 18.2
1 7 4 104.29 21.5
1 7 4 122.99 16.1
-2 -7 -4 106.39 13.3
2 7 4 124.09 13.3
2 7 4 96.09 14.4
8 -8 -4 3 2.8
-8 8 4 3.1 2.8
-8 8 4 5.5 2.1
7 -8 -4 45.6 6.2
7 -8 -4 40.4 8.3
7 -8 -4 26.7 8.5
-7 8 4 33 11.1
-7 8 4 42 6.7
6 -8 -4 0.5 2.7
6 -8 -4 4.1 5.3
6 -8 -4 3.1 4.3
6 -8 -4 8.3 7.2
-6 8 4 0.3 5.6
-6 8 4 -1 4.3
-6 8 4 1.6 2.5
-6 8 4 3.3 4.6
5 -8 -4 192.68 21.3
5 -8 -4 181.98 17.8
5 -8 -4 167.18 20.3
-5 8 4 138.89 23.1
-5 8 4 207.98 23.2
-5 8 4 201.68 19.7
4 -8 -4 -3.2 3.3
4 -8 -4 0.4 2.5
4 -8 -4 -0.4 3.3
4 -8 -4 1.3 2.4
4 -8 -4 12.1 10.1
-4 8 4 -1.6 2.8
-4 8 4 1.2 4.3
-4 8 4 -0.3 6.4
3 -8 -4 384.66 37.1
3 -8 -4 354.96 33.7
3 -8 -4 400.46 43.2
-3 8 4 403.96 37.2
-3 8 4 365.16 52.69
2 -8 -4 8.1 3.4
2 -8 -4 7.2 2.9
2 -8 -4 10.1 5.4
-2 8 4 11.7 8.3
-2 8 4 15.5 6.5
1 -8 -4 293.47 31.3
1 -8 -4 389.66 35
1 -8 -4 412.26 34.9
-1 8 4 355.86 35
-1 8 4 339.97 44.3
0 -8 -4 6.6 2.6
0 -8 -4 8 4.3
0 8 4 7.4 4.9
0 8 4 7.8 4
0 8 4 15.5 6.7
-1 -8 -4 109.59 13
1 8 4 93.79 11.7
6 -9 -4 41.4 7.2
6 -9 -4 36.2 5.2
-6 9 4 32.5 5.6
5 -9 -4 311.77 26
5 -9 -4 234.08 25
5 -9 -4 280.27 22.7
-5 9 4 220.98 27.2
4 -9 -4 119.79 13.5
4 -9 -4 95.29 10.3
-4 9 4 91.39 12.2
-4 9 4 115.69 17
-4 9 4 105.19 18.7
3 -9 -4 123.39 11.5
3 -9 -4 131.89 14.7
-3 9 4 90.79 19.3
-3 9 4 115.59 13.7
2 -9 -4 134.39 12.7
2 -9 -4 110.59 13.8
-2 9 4 126.59 15.2
1 -9 -4 2.8 3.2
-1 9 4 -0.1 1.7
-1 9 4 1.7 2.9
-4 11 -5 -0.3 4.9
0 10 -5 13.7 6.2
0 -10 5 12.2 4
-1 10 -5 376.46 39.5
-1 10 -5 412.16 46.4
-2 10 -5 20.5 8.4
2 -10 5 16.3 5.8
-3 10 -5 73.79 10.7
-3 10 -5 92.99 13.7
3 -10 5 61.49 11.6
-4 10 -5 75.69 13.7
-4 10 -5 93.19 14.2
-4 10 -5 80.79 11.9
-4 10 -5 114.59 33.2
4 -10 5 69.89 11.1
4 -10 5 66.59 9.5
-5 10 -5 30.1 8.4
5 -10 5 37.1 6.8
5 -10 5 34.1 7.4
6 -10 5 147.59 15.2
-7 10 -5 -1.6 2.3
-7 10 -5 1.8 2.6
2 9 -5 15.3 7.7
2 9 -5 14.5 5.6
-2 -9 5 11.6 3.6
-2 -9 5 7.6 3.1
1 9 -5 71.09 13.7
-1 -9 5 35.5 7.7
-1 -9 5 38.2 7.4
0 9 -5 203.88 26.2
0 9 -5 203.38 31.6
-1 9 -5 53.79 12.3
-1 9 -5 15 7.8
1 -9 5 32.6 7.8
-2 9 -5 29.7 8.4
-2 9 -5 35.7 7.8
-2 9 -5 41.2 13.2
2 -9 5 26.7 8.2
2 -9 5 18.7 5.2
2 -9 5 18 5.3
-3 9 -5 49.7 11.3
-3 9 -5 44.9 9.7
-3 9 -5 47.5 16.4
3 -9 5 56.99 8
3 -9 5 46.5 8
3 -9 5 52.09 11.8
-4 9 -5 75.19 13.1
-4 9 -5 56.59 18.4
-4 9 -5 70.59 11.6
-4 9 -5 67.19 14.8
4 -9 5 73.19 9.7
-5 9 -5 4.6 6.7
-5 9 -5 1 3.9
-5 9 -5 6.4 6.7
-5 9 -5 5.3 3.3
-5 9 -5 -0.6 3.7
5 -9 5 3.4 3.2
5 -9 5 -2.2 3
-6 9 -5 19.7 7.7
-6 9 -5 43.8 11.7
-6 9 -5 10.6 6.5
-6 9 -5 27.6 9.7
6 -9 5 21 5.4
6 -9 5 18.4 4.6
6 -9 5 18.8 4.9
-7 9 -5 4.6 4.3
-7 9 -5 -0.8 4.4
-7 9 -5 -2.5 3.2
-7 9 -5 -2 3.1
7 -9 5 3.1 3.4
7 -9 5 0.3 2
-8 9 -5 0.5 2
-8 9 -5 -2.5 3.6
-8 9 -5 1.8 2.1
8 -9 5 -0.7 1.9
3 8 -5 47.8 8.8
-3 -8 5 25.5 4.9
-3 -8 5 32.3 5.6
-2 -8 5 133.79 16.2
-2 -8 5 162.98 16.2
-2 -8 5 147.49 19.4
1 8 -5 15 8
1 8 -5 -1.7 16.2
1 8 -5 23 8.1
1 8 -5 8.5 6.1
-1 -8 5 1.6 2.9
-1 -8 5 13.6 5.4
-1 -8 5 6.3 4.4
0 -8 5 476.65 47.3
0 -8 5 588.14 47.5
-1 8 -5 2.3 6.9
-1 8 -5 11.2 10
-1 8 -5 9.7 9.3
-1 8 -5 -3.3 5.6
-1 8 -5 -1.4 5.3
-1 8 -5 3.6 4.2
1 -8 5 5.4 5.5
1 -8 5 3.3 3.1
1 -8 5 -2.6 2.7
-2 8 -5 624.24 58.79
-2 8 -5 708.53 70.19
2 -8 5 562.54 50.99
2 -8 5 606.84 53.39
2 -8 5 513.45 50.29
-3 8 -5 71.69 13.2
-3 8 -5 80.49 12.5
-3 8 -5 38.5 12.2
-3 8 -5 76.29 14.6
-3 8 -5 58.39 11.7
3 -8 5 69.79 11
3 -8 5 62.19 9.2
3 -8 5 46.3 8.7
-4 8 -5 1164.28 115.39
-4 8 -5 1442.96 115.09
-4 8 -5 1356.56 115.29
4 -8 5 1414.36 108.99
4 -8 5 1397.06 109.79
4 -8 5 1148.79 110.19
-5 8 -5 409.46 47.6
-5 8 -5 310.97 46.5
-5 8 -5 295.87 43.6
-5 8 -5 395.66 38.4
-5 8 -5 390.16 46.8
-5 8 -5 383.26 40.4
5 -8 5 385.96 34.3
6 -8 5 294.97 26.6
6 -8 5 264.77 25.7
6 -8 5 234.08 25
-7 8 -5 55.09 10.1
-7 8 -5 29.4 11.9
7 -8 5 36.6 6.9
7 -8 5 38.9 7.3
7 -8 5 38.2 6.5
8 -8 5 133.39 12.5
8 -8 5 117.69 12.9
4 7 -5 39.5 8.2
-4 -7 5 41.7 8.7
-4 -7 5 51.99 6.8
-4 -7 5 33.2 6.8
3 7 -5 122.09 17.2
-3 -7 5 98.19 11.5
-3 -7 5 83.09 11.2
-3 -7 5 73.79 10.3
2 7 -5 14.8 6.8
2 7 -5 6.2 16.7
-2 -7 5 5.8 3.6
-2 -7 5 14.3 6.6
-2 -7 5 14.6 4.6
-2 -7 5 9 5.1
-2 -7 5 -4.6 8.5
-2 -7 5 6.2 2.9
1 7 -5 209.68 44.6
1 7 -5 245.88 36.8
-1 -7 5 263.97 26.5
-1 -7 5 227.78 27.8
-1 -7 5 312.47 26.3
-1 -7 5 298.17 26.8
-1 -7 5 259.37 27.1
0 7 -5 -0.6 4.8
0 7 -5 8.6 6.9
0 7 -5 0.3 6.4
0 7 -5 -2 6.3
0 7 -5 1.9 5.1
0 7 -5 -0.7 5.3
0 7 -5 23.9 13.3
0 -7 5 13.1 5.4
0 -7 5 9.1 3.5
-1 7 -5 580.14 55.09
-1 7 -5 506.55 52.69
-1 7 -5 608.94 61.69
-1 7 -5 468.95 56.89
-1 7 -5 540.35 59.29
-1 7 -5 557.14 60.89
1 -7 5 598.74 49.1
1 -7 5 610.64 48.1
-2 7 -5 121.99 27.3
-2 7 -5 134.89 20.5
-2 7 -5 162.68 20.4
-2 7 -5 158.48 17.9
-2 7 -5 161.48 26.8
-2 7 -5 172.98 23.9
-2 7 -5 167.18 25.4
2 -7 5 122.59 14
2 -7 5 136.49 16
-3 7 -5 451.55 44.7
-3 7 -5 397.36 53.19
-3 7 -5 393.66 41.2
-3 7 -5 373.56 41.8
-3 7 -5 390.66 40.6
-3 7 -5 339.87 40.9
3 -7 5 415.66 34.3
3 -7 5 403.76 37.4
3 -7 5 338.57 35.2
-4 7 -5 265.97 28.9
-4 7 -5 216.98 33.3
-4 7 -5 244.68 31.2
-4 7 -5 292.07 29.8
-4 7 -5 241.78 40.8
-4 7 -5 282.47 32.1
-4 7 -5 203.28 26.7
-4 7 -5 291.97 34.5
4 -7 5 248.78 23.9
-5 7 -5 100.39 16.2
-5 7 -5 81.09 16.3
-5 7 -5 72.89 14.1
-5 7 -5 89.19 17.6
-5 7 -5 84.39 13.3
-5 7 -5 67.39 16.4
5 -7 5 53.09 9.6
5 -7 5 74.29 10.3
-6 7 -5 306.27 36.4
-6 7 -5 278.77 34.1
6 -7 5 256.77 26.3
6 -7 5 296.27 37.7
6 -7 5 275.77 26.9
-7 7 -5 -1.5 3.5
-7 7 -5 8.5 6.9
-7 7 -5 3.1 4.2
7 -7 5 1.9 3.1
7 -7 5 1.8 2.7
7 -7 5 4.8 5.3
7 -7 5 0.9 2.4
-8 7 -5 339.07 32.8
8 -7 5 345.37 32.1
8 -7 5 386.46 33.1
8 -7 5 362.36 31.2
-9 7 -5 2.1 2.2
9 -7 5 3.4 2.3
5 6 -5 4.1 3.4
5 6 -5 14.8 9.1
-5 -6 5 2 2.6
-5 -6 5 2.9 2
-5 -6 5 3.1 3.4
-5 -6 5 3.3 1.8
4 6 -5 -1.1 2.5
4 6 -5 7.5 10
4 6 -5 -2.1 3.8
-4 -6 5 10.7 4.5
-4 -6 5 2.5 2.5
-4 -6 5 1.5 2.4
-4 -6 5 2.2 2.2
3 6 -5 9 15.1
3 6 -5 -3.4 3.9
-3 -6 5 0.3 4
-3 -6 5 5.2 2.6
-3 -6 5 -1 3.2
-3 -6 5 0.3 1.9
2 6 -5 12.5 8.4
2 6 -5 11.1 7.3
2 6 -5 16.3 17
2 6 -5 -2.1 7.8
-2 -6 5 16.4 5.1
-2 -6 5 14.5 4.3
-2 -6 5 10.4 4.1
-2 -6 5 16.2 4.8
1 6 -5 -1 4.2
1 6 -5 6.6 5.5
1 6 -5 10.2 7.3
1 6 -5 5 6.5
0 6 -5 247.28 26.3
0 6 -5 290.17 31.8
0 6 -5 209.38 26
0 6 -5 229.28 34.4
0 6 -5 307.77 28.6
0 6 -5 260.67 33.5
0 6 -5 247.88 31
0 6 -5 245.68 26.6
0 6 -5 216.88 30.8
0 -6 5 249.58 24.3
0 -6 5 251.17 22.8
0 -6 5 274.07 27.9
-1 6 -5 114.49 18.5
-1 6 -5 91.59 13.3
-1 6 -5 95.19 16.4
-1 6 -5 88.39 13.2
-1 6 -5 87.19 14.9
-1 6 -5 72.19 14.5
-1 6 -5 86.39 16.6
-1 6 -5 66.79 14.3
-1 6 -5 97.69 13.1
1 -6 5 82.09 13
1 -6 5 90.09 8.9
1 -6 5 95.39 10.4
1 -6 5 77.19 11.8
1 -6 5 66.99 10
-2 6 -5 191.48 23.1
-2 6 -5 222.48 30
-2 6 -5 180.28 22.2
-2 6 -5 144.29 23.3
-2 6 -5 171.48 21.8
-2 6 -5 224.08 26.6
-2 6 -5 185.48 23.4
-2 6 -5 175.08 23.8
-2 6 -5 181.48 21.1
-2 6 -5 233.28 23.3
2 -6 5 184.98 18.5
2 -6 5 208.18 22.1
-3 6 -5 347.57 35.6
-3 6 -5 308.47 36
-3 6 -5 278.77 33
-3 6 -5 291.77 34.7
-3 6 -5 369.16 37.4
-3 6 -5 323.97 34.8
-3 6 -5 346.47 34.8
3 -6 5 366.16 29.2
3 -6 5 339.87 31.6
3 -6 5 335.47 33.5
3 -6 5 368.06 30
-4 6 -5 12.4 6.4
-4 6 -5 8.7 4.6
-4 6 -5 29.2 9.4
-4 6 -5 13.2 7.3
-4 6 -5 10.8 7.2
-4 6 -5 7.3 5.6
-4 6 -5 8.5 5.6
-4 6 -5 7 6.2
-4 6 -5 20.8 9.7
-4 6 -5 18.5 8.2
4 -6 5 11.6 4.8
4 -6 5 3.9 3
-5 6 -5 166.68 23.4
-5 6 -5 167.08 22.5
-5 6 -5 152.98 22.3
-5 6 -5 157.98 19
-5 6 -5 129.49 19.9
5 -6 5 112.69 14.5
5 -6 5 128.19 18
5 -6 5 114.49 14.7
-6 6 -5 2.8 5.5
-6 6 -5 -0.3 6.4
-6 6 -5 -1.6 4.1
-6 6 -5 -0.9 4.3
-6 6 -5 0.2 5.3
-6 6 -5 3.6 9.6
6 -6 5 3.6 2.9
6 -6 5 -3.3 3.7
6 -6 5 3.1 3
6 -6 5 6 6.3
-7 6 -5 26.6 7.5
-7 6 -5 18.3 6.5
-7 6 -5 20.1 12.2
-7 6 -5 27 10.1
7 -6 5 14.8 5.3
7 -6 5 15.1 5
7 -6 5 15.4 7.2
7 -6 5 20.4 4.9
7 -6 5 23.7 5
-8 6 -5 -5 7.2
-8 6 -5 -1.2 2.6
-8 6 -5 0.9 3
-8 6 -5 -1.9 4
8 -6 5 0.5 2.3
8 -6 5 1.6 2.3
8 -6 5 2.9 3.1
8 -6 5 -0.6 3
-9 6 -5 1 1.8
9 -6 5 3.7 2.2
9 -6 5 -0.2 4.4
9 -6 5 1.7 1.6
6 5 -5 -1.4 2.3
6 5 -5 7.1 6.7
-6 -5 5 -2.6 2.6
-6 -5 5 0.8 1.5
-6 -5 5 -0.3 1.6
5 5 -5 35.8 7.9
5 5 -5 43.6 16.4
5 5 -5 19.3 7.6
-5 -5 5 21.7 6.6
-5 -5 5 25.6 5.6
-5 -5 5 21.3 4.9
-5 -5 5 14 4.7
4 5 -5 60.29 12.6
4 5 -5 36.9 10.3
4 5 -5 66.99 12.3
-4 -5 5 29.6 7.7
-4 -5 5 46.2 10.8
-4 -5 5 56.69 7.8
-4 -5 5 40.2 7.7
-4 -5 5 44.8 7.8
3 5 -5 86.89 28.1
3 5 -5 55.99 14
3 5 -5 58.59 17.2
3 5 -5 62.49 14.7
-3 -5 5 74.39 17.1
-3 -5 5 52.39 11.2
-3 -5 5 64.19 9.2
-3 -5 5 75.89 9.3
-3 -5 5 46.5 8.7
2 5 -5 494.65 55.19
2 5 -5 594.94 54.19
2 5 -5 614.44 58.19
2 5 -5 593.94 60.29
2 5 -5 537.45 59.99
-2 -5 5 590.44 49.4
-2 -5 5 578.24 51.19
-2 -5 5 644.24 50.19
1 5 -5 354.56 41.4
1 5 -5 375.16 43
1 5 -5 449.66 43.1
-1 -5 5 398.86 38.4
-1 -5 5 405.16 33.8
-1 -5 5 370.16 35.1
0 5 -5 460.95 41.5
0 5 -5 505.05 45.9
0 5 -5 454.35 41.3
0 5 -5 354.36 42.8
0 5 -5 483.25 46.8
0 5 -5 361.66 45.5
0 5 -5 418.86 46.4
0 -5 5 490.65 36.5
0 -5 5 467.75 48.2
0 -5 5 400.86 38.1
-1 5 -5 1485.05 119.99
-1 5 -5 1429.96 116.79
-1 5 -5 1185.08 120.49
-1 5 -5 1267.87 124.89
-1 5 -5 1553.04 146.89
1 -5 5 1427.06 110.89
1 -5 5 1407.26 111.19
1 -5 5 1376.36 114.89
-2 5 -5 996.9 88.79
-2 5 -5 869.01 89.79
-2 5 -5 1141.99 89.39
-2 5 -5 982.9 90.69
-2 5 -5 1050.29 92.79
2 -5 5 997.7 83.59
2 -5 5 1089.69 83.19
-3 5 -5 147.99 20.4
-3 5 -5 172.58 20.4
-3 5 -5 150.18 20.1
-3 5 -5 157.88 20.8
-3 5 -5 173.48 21.6
-3 5 -5 142.79 25
-3 5 -5 165.08 20.5
3 -5 5 188.38 17.4
3 -5 5 202.78 18.3
-4 5 -5 681.13 69.39
-4 5 -5 787.32 68.79
-4 5 -5 721.43 69.19
-4 5 -5 720.63 72.39
-4 5 -5 882.81 71.59
-4 5 -5 834.32 71.29
-4 5 -5 902.01 71.99
-4 5 -5 703.33 72.89
4 -5 5 681.73 63.49
-5 5 -5 3.2 5.5
-5 5 -5 10.2 6.8
-5 5 -5 7 5.2
-5 5 -5 15.4 8.6
-5 5 -5 5.5 5.7
-5 5 -5 6.1 5.2
-5 5 -5 11.7 5.4
-5 5 -5 -16.1 10.5
5 -5 5 6.4 3.1
5 -5 5 7.9 5.4
5 -5 5 4.3 3
-6 5 -5 362.96 46.3
-6 5 -5 370.26 39.5
-6 5 -5 295.67 41.8
6 -5 5 400.86 35.7
6 -5 5 362.76 40.6
6 -5 5 355.16 33.5
6 -5 5 394.36 40
6 -5 5 346.17 35.8
6 -5 5 426.26 35.1
-7 5 -5 4.5 13.6
-7 5 -5 24.2 12.7
-7 5 -5 6.1 4.8
-7 5 -5 15.8 9.9
-7 5 -5 9 5.8
-7 5 -5 15.1 6.1
7 -5 5 6 3.4
7 -5 5 7.8 3.8
7 -5 5 5.7 6
7 -5 5 12.6 4.4
7 -5 5 22.5 8.8
7 -5 5 0.5 2.9
-8 5 -5 190.78 19.9
-8 5 -5 140.99 21.7
8 -5 5 156.08 17.4
8 -5 5 182.28 22.8
8 -5 5 184.58 17.2
8 -5 5 167.98 18.4
-9 5 -5 -0.7 1.7
9 -5 5 0.4 1.6
9 -5 5 -0.6 2.2
9 -5 5 1.3 1.8
7 4 -5 3.1 5.6
7 4 -5 1.7 2.4
-7 -4 5 -1.9 2.2
-7 -4 5 1.5 1.6
-6 -4 5 94.09 10.9
-6 -4 5 100.09 10.9
-6 -4 5 101.59 13.3
-6 -4 5 87.39 11.1
5 4 -5 82.09 14.1
5 4 -5 115.49 20.9
-5 -4 5 90.19 17.3
-5 -4 5 80.89 11.2
-5 -4 5 74.59 11.6
-5 -4 5 80.09 10.3
4 4 -5 221.28 27.3
4 4 -5 221.78 26.9
-4 -4 5 223.78 21.4
-4 -4 5 184.48 22.4
-4 -4 5 233.38 25.3
-4 -4 5 166.28 22.4
-4 -4 5 209.08 20.6
3 4 -5 46.9 13.1
3 4 -5 37.8 10.2
3 4 -5 64.29 17.4
3 4 -5 33.2 18.2
3 4 -5 56.69 10.6
3 4 -5 33.1 10.1
3 4 -5 52.29 14.2
-3 -4 5 44.8 7.8
-3 -4 5 55.59 7
-3 -4 5 43 9.2
-3 -4 5 58.49 7.7
-3 -4 5 46.9 7.8
2 4 -5 221.28 27.5
2 4 -5 224.78 27.9
2 4 -5 232.58 25.7
2 4 -5 209.88 27.8
-2 -4 5 252.57 21.8
-2 -4 5 280.27 22.4
-2 -4 5 255.37 26.4
-2 -4 5 233.18 23.1
1 4 -5 113.19 16.3
1 4 -5 101.79 14
-1 -4 5 141.09 17.4
-1 -4 5 141.09 11.8
0 4 -5 501.35 46.4
0 -4 5 454.35 45.1
0 -4 5 556.84 42.5
0 -4 5 546.95 42.8
-1 4 -5 1570.34 141.79
-1 4 -5 1831.12 140.99
1 -4 5 1660.43 136.69
1 -4 5 1755.42 138.39
-2 4 -5 484.45 48.1
-2 4 -5 528.05 46.5
-3 4 -5 1167.88 100.59
-3 4 -5 1363.36 97.89
3 -4 5 1026.2 94.69
-4 4 -5 55.49 14.4
-4 4 -5 64.69 11
-4 4 -5 54.79 8
-4 4 -5 65.69 12.9
-4 4 -5 77.59 11.5
-4 4 -5 60.19 6.4
-4 4 -5 63.99 11
-4 4 -5 74.79 13.9
4 -4 5 51.69 7.9
4 -4 5 41.3 7
4 -4 5 43.8 10.8
-5 4 -5 1137.69 104.89
-5 4 -5 1323.57 108.79
-5 4 -5 1290.77 108.59
-5 4 -5 1234.68 105.09
-5 4 -5 1125.59 99.59
-6 4 -5 95.99 14.1
-6 4 -5 80.79 14.9
6 -4 5 103.29 12.5
6 -4 5 90.39 15.8
6 -4 5 91.59 12.7
6 -4 5 88.79 14.5
6 -4 5 103.69 11.9
6 -4 5 108.89 17.2
-7 4 -5 285.57 35.6
-7 4 -5 240.48 40.6
-7 4 -5 242.58 36
-7 4 -5 273.27 29.5
7 -4 5 249.08 25.2
7 -4 5 283.37 38.2
7 -4 5 258.97 28.6
7 -4 5 271.37 33.2
7 -4 5 309.77 27.9
-8 4 -5 74.69 10.8
-8 4 -5 58.29 12.8
-8 4 -5 67.39 12.4
8 -4 5 89.09 10.3
8 -4 5 82.29 10
8 -4 5 80.89 11.4
8 -4 5 101.49 11.5
8 -4 5 79.89 14.3
-9 4 -5 31.2 5.6
9 -4 5 51.39 5.9
7 3 -5 64.49 14.4
-7 -3 5 35.6 8.5
-7 -3 5 35.2 7.6
6 3 -5 330.07 33.1
-6 -3 5 290.97 29.9
-6 -3 5 340.47 29.6
-6 -3 5 337.57 32.3
-6 -3 5 316.27 29.2
5 3 -5 174.28 21.6
5 3 -5 163.38 21.6
-5 -3 5 144.19 18.5
-5 -3 5 148.99 17.2
-5 -3 5 155.98 17.1
-5 -3 5 161.28 16.5
-5 -3 5 159.88 16.8
4 3 -5 613.74 58.99
4 3 -5 588.34 58.89
4 3 -5 645.24 59.39
-4 -3 5 636.94 54.19
-4 -3 5 686.73 55.59
-4 -3 5 675.33 54.19
-4 -3 5 705.53 54.99
-4 -3 5 551.14 55.59
3 3 -5 21.8 11.2
3 3 -5 9.9 5.6
3 3 -5 7.1 6.6
3 3 -5 -2.8 4.2
3 3 -5 15 5.1
-3 -3 5 4.9 2.1
-3 -3 5 6.8 4.4
-3 -3 5 -1.3 2.8
-3 -3 5 4.3 2.3
2 3 -5 703.63 67.19
-2 -3 5 826.62 66.89
-2 -3 5 775.32 62.59
-2 -3 5 767.72 62.49
-2 -3 5 757.02 62.79
-1 -3 5 926.41 80.09
-1 -3 5 970.4 77.39
-1 -3 5 964.8 76.99
-1 -3 5 953.6 76.29
0 3 -5 2942.01 267.17
0 -3 5 3719.13 266.27
0 -3 5 3272.27 264.87
-1 3 -5 6174.68 501.15
1 -3 5 6546.45 498.55
1 -3 5 6194.28 498.85
-2 3 -5 17.1 4.9
-2 3 -5 12.5 4.1
2 -3 5 10 4.2
2 -3 5 10.2 1.4
-3 3 -5 610.74 53.39
3 -3 5 538.45 51.39
3 -3 5 721.43 53.29
-4 3 -5 90.19 15
-4 3 -5 68.59 16.1
4 -3 5 88.29 9.9
4 -3 5 68.79 12.1
4 -3 5 82.09 10
4 -3 5 96.79 12.6
-5 3 -5 190.48 29.1
5 -3 5 234.98 25
5 -3 5 254.27 27
5 -3 5 217.38 27.4
5 -3 5 230.38 23.3
5 -3 5 270.07 23.4
5 -3 5 220.88 22.2
-6 3 -5 55.99 15.9
-6 3 -5 35.5 14.9
-6 3 -5 56.99 11.4
-6 3 -5 59.49 11.7
-6 3 -5 69.89 14.3
6 -3 5 40.3 8.2
6 -3 5 44.6 9.9
6 -3 5 52.79 11.8
6 -3 5 39.8 7.6
6 -3 5 50.39 11.2
6 -3 5 45.3 7.9
-7 3 -5 93.69 16.3
-7 3 -5 75.89 17
-7 3 -5 103.09 17
-7 3 -5 122.69 16
7 -3 5 126.39 20.2
7 -3 5 93.69 13.6
7 -3 5 140.89 19.9
7 -3 5 114.39 15.4
7 -3 5 115.59 13
7 -3 5 140.29 14.4
-8 3 -5 35.6 9.7
-8 3 -5 40.1 10.6
-8 3 -5 40.1 8.3
8 -3 5 55.29 9.1
8 -3 5 53.29 7.3
8 -3 5 57.09 7.4
8 -3 5 47.6 7.9
-9 3 -5 12.5 3
9 -3 5 11.9 4
9 -3 5 13.5 2.7
-8 -2 5 63.79 8.8
-7 -2 5 163.48 17.8
-7 -2 5 213.08 18.7
-7 -2 5 209.68 21.5
6 2 -5 1.8 4.3
6 2 -5 0 3.8
6 2 -5 6.1 8.9
-6 -2 5 -4.7 3
-6 -2 5 0 2.8
-6 -2 5 1.3 3.6
-6 -2 5 1.2 1.8
-6 -2 5 2.1 2.4
5 2 -5 1131.09 111.49
5 2 -5 1470.95 113.39
5 2 -5 1436.86 116.29
-5 -2 5 1227.28 107.59
-5 -2 5 1277.37 106.99
-5 -2 5 1328.37 108.29
-5 -2 5 1256.17 107.39
-5 -2 5 1426.06 118.69
4 2 -5 87.09 13.9
4 2 -5 91.09 14.2
4 2 -5 103.59 15.4
4 2 -5 119.19 18.3
4 2 -5 86.09 16.6
-4 -2 5 105.89 12.2
-4 -2 5 115.29 16.6
-4 -2 5 100.39 12.5
-4 -2 5 107.59 11.7
-4 -2 5 105.89 11.1
-3 -2 5 6774.32 518.85
-3 -2 5 6552.34 519.15
-3 -2 5 6670.23 518.15
-3 -2 5 6222.98 518.25
-3 -2 5 6572.54 522.25
2 2 -5 42.2 7.1
2 2 -5 61.79 9
-2 -2 5 51.79 8
-2 -2 5 49.6 5.6
-2 -2 5 52.69 6.2
1 2 -5 3315.77 253.67
-1 -2 5 3407.56 247.88
-1 -2 5 3058.99 247.18
-1 -2 5 2834.22 249.18
-1 -2 5 2974.2 245.98
0 2 -5 316.27 27.3
0 2 -5 321.17 30.6
0 -2 5 317.67 28.3
0 -2 5 325.57 28.4
0 -2 5 361.26 27.2
-1 2 -5 2595.74 206.08
-1 2 -5 2826.12 209.58
1 -2 5 2338.57 204.78
1 -2 5 2346.47 207.78
1 -2 5 2884.51 208.08
-2 2 -5 100.09 10.3
-2 2 -5 110.29 13.7
-2 2 -5 104.09 12.8
3 -2 5 1696.33 148.49
3 -2 5 2038.4 146.59
3 -2 5 1646.54 149.59
3 -2 5 1885.91 146.49
-4 2 -5 62.29 11.8
-4 2 -5 74.79 12.4
-4 2 -5 63.59 10
-4 2 -5 55.29 9.3
-4 2 -5 70.79 9
4 -2 5 52.29 7.8
4 -2 5 64.69 11
4 -2 5 56.19 8.3
4 -2 5 52.59 9.9
-5 2 -5 68.49 12.2
-5 2 -5 96.49 23.4
-5 2 -5 66.09 13.2
-5 2 -5 90.69 13.9
-5 2 -5 74.59 11.1
5 -2 5 62.19 9.9
5 -2 5 88.19 13.7
5 -2 5 73.19 9.4
5 -2 5 64.69 11.7
5 -2 5 71.29 9.6
5 -2 5 55.09 11.9
-6 2 -5 51.69 12.7
-6 2 -5 53.89 10.6
-6 2 -5 57.89 11.4
-6 2 -5 46.6 10.5
6 -2 5 49.7 8.5
6 -2 5 64.99 13.2
6 -2 5 61.39 12.7
6 -2 5 50.49 8.3
6 -2 5 52.29 11.3
6 -2 5 44.7 8.8
-7 2 -5 5.1 8.8
-7 2 -5 8.1 5.3
-7 2 -5 4.5 4.5
-7 2 -5 -3.6 4.8
7 -2 5 0.7 3.9
7 -2 5 3.6 3.1
7 -2 5 6 3.6
7 -2 5 2.6 2.9
7 -2 5 13.4 5.3
8 -2 5 18.1 9.1
8 -2 5 11.2 3.6
8 -2 5 12.2 3.2
8 -2 5 5.1 4.7
8 1 -5 95.49 12.9
-8 -1 5 62.19 9.6
-8 -1 5 66.89 10.7
-8 -1 5 68.09 7.8
7 1 -5 19.7 7
7 1 -5 18.8 6.4
7 1 -5 27.2 8.4
-7 -1 5 21.5 6.1
-7 -1 5 11.8 3.4
-7 -1 5 16.6 4.2
-7 -1 5 11.5 4.1
-7 -1 5 13.1 6.2
6 1 -5 432.26 41.2
-6 -1 5 376.06 34.6
-6 -1 5 406.56 35
-6 -1 5 391.16 35.4
-6 -1 5 364.66 38.2
-6 -1 5 403.46 37.2
-6 -1 5 387.26 35.5
5 1 -5 128.99 17.8
5 1 -5 125.19 16.1
5 1 -5 103.49 15.4
5 1 -5 97.19 16.3
-5 -1 5 123.69 14.6
-5 -1 5 116.89 13
-5 -1 5 124.19 12.6
-5 -1 5 115.99 12.8
-5 -1 5 131.39 14.6
4 1 -5 879.91 71.79
4 1 -5 677.13 70.69
4 1 -5 739.93 71.89
4 1 -5 786.92 72.39
-4 -1 5 893.51 67.69
-4 -1 5 842.12 67.99
-4 -1 5 779.62 68.49
-4 -1 5 879.71 71.49
-4 -1 5 901.01 69.49
3 1 -5 1979.4 157.08
3 1 -5 1783.12 156.68
-3 -1 5 2042.6 156.98
-3 -1 5 1941.21 154.38
-3 -1 5 1901.01 154.88
-3 -1 5 1855.71 153.48
-3 -1 5 1947.21 153.28
2 1 -5 677.83 55.59
2 1 -5 648.74 53.89
-2 -1 5 625.74 54.49
-2 -1 5 633.84 53.19
-2 -1 5 639.74 52.79
-2 -1 5 596.44 51.79
1 1 -5 933.41 75.49
1 1 -5 883.01 72.49
-1 -1 5 848.22 71.19
-1 -1 5 840.52 70.19
0 1 -5 1646.94 108.19
0 1 -5 1216.48 110.69
0 -1 5 1398.16 106.09
0 -1 5 1210.98 108.09
0 -1 5 1200.88 106.39
-1 1 -5 2163.28 168.48
-1 1 -5 2104.09 165.18
-1 1 -5 2094.49 164.18
1 -1 5 2012.6 164.58
1 -1 5 2035.1 165.88
1 -1 5 1907.61 163.48
-2 1 -5 134.09 16
-2 1 -5 173.58 18
-2 1 -5 168.78 16.4
2 -1 5 162.88 18.4
2 -1 5 162.08 17.9
2 -1 5 186.48 17.9
2 -1 5 171.98 16
-3 1 -5 1325.17 106.09
-3 1 -5 1123.29 105.59
3 -1 5 1359.06 105.69
3 -1 5 1459.05 108.69
3 -1 5 1193.88 108.69
-4 1 -5 3.5 3.7
-4 1 -5 -0.1 3.7
-4 1 -5 6.8 6
4 -1 5 9.6 5.3
4 -1 5 3.2 2.7
4 -1 5 4.3 2.6
4 -1 5 1.3 3.2
4 -1 5 6.3 4.5
-5 1 -5 829.22 66.59
-5 1 -5 609.04 69.49
-5 1 -5 684.13 64.49
-5 1 -5 619.44 63.29
5 -1 5 806.02 70.69
5 -1 5 717.63 63.89
5 -1 5 648.84 60.59
5 -1 5 815.22 62.49
-6 1 -5 88.99 14.1
-6 1 -5 100.99 15.3
6 -1 5 98.29 14.4
6 -1 5 99.69 11.8
6 -1 5 116.59 17
6 -1 5 104.09 17.1
6 -1 5 96.79 12.1
6 -1 5 110.79 15
-7 1 -5 121.79 19.8
-7 1 -5 149.39 18.2
7 -1 5 140.99 14.8
7 -1 5 152.78 14.9
7 -1 5 141.69 17.7
7 -1 5 128.09 19.8
7 -1 5 182.68 18.8
-8 1 -5 8.3 3.9
-8 1 -5 -0.4 2.3
8 -1 5 -0.2 2.7
8 -1 5 0.7 1.8
9 0 -5 11.2 4.2
9 0 -5 9.8 5.1
-9 0 5 8.5 2.8
-9 0 5 2.9 4
8 0 -5 77.09 13.1
8 0 -5 47.9 15.2
8 0 -5 66.99 10
-8 0 5 66.59 9.7
7 0 -5 4.9 21.6
7 0 -5 3.3 4.5
-7 0 5 0.1 2.1
-7 0 5 -1.3 2.3
-7 0 5 0.8 3.3
6 0 -5 445.16 44.2
6 0 -5 406.76 41
6 0 -5 469.15 47.2
-6 0 5 390.26 42.7
-6 0 5 461.15 38.4
-6 0 5 388.56 40.6
-6 0 5 447.46 38.5
-6 0 5 452.65 40.5
-6 0 5 469.45 39
-6 0 5 472.25 39.3
5 0 -5 24.8 6.4
5 0 -5 34.7 9.9
5 0 -5 21 7.2
5 0 -5 24.8 7.2
-5 0 5 23.8 6.5
-5 0 5 21.8 5.5
-5 0 5 22.9 4.2
-5 0 5 29.7 8
-5 0 5 18 4.7
-5 0 5 20.2 5.7
4 0 -5 897.91 74.39
4 0 -5 924.01 76.19
4 0 -5 705.33 75.79
-4 0 5 869.31 72.69
-4 0 5 928.11 72.59
-4 0 5 839.72 71.19
-4 0 5 894.51 70.89
-4 0 5 861.01 73.89
3 0 -5 46 7.4
3 0 -5 30.3 6.6
3 0 -5 47.7 7.6
-3 0 5 43.1 5.3
-3 0 5 46.8 5.6
-3 0 5 42.2 6
-3 0 5 43.2 6.5
2 0 -5 2886.51 250.47
2 0 -5 2953.5 249.68
-2 0 5 3355.06 248.88
-2 0 5 3289.47 247.78
1 0 -5 359.46 32
1 0 -5 299.27 32.7
-1 0 5 360.06 30.3
-1 0 5 369.26 31.4
-1 0 5 401.96 32.5
-1 0 5 381.66 31.6
0 0 -5 2255.97 175.08
0 0 -5 1872.51 173.88
0 0 5 2243.28 173.58
0 0 5 1979.6 173.38
0 0 5 2175.48 174.48
0 0 5 2558.84 175.38
-1 0 -5 319.17 30.1
-1 0 -5 342.77 29.8
-1 0 -5 398.96 31.5
-1 0 -5 394.16 39.3
1 0 5 291.07 30.5
1 0 5 400.66 32.2
1 0 5 327.57 30
1 0 5 321.37 31.9
-2 0 -5 111.29 13.5
-2 0 -5 140.39 16.8
-2 0 -5 119.59 11.9
2 0 5 116.99 14.2
-3 0 -5 330.77 34.8
-3 0 -5 431.56 37
-3 0 -5 419.86 36.6
3 0 5 361.96 36.8
-4 0 -5 62.69 11.1
-4 0 -5 80.19 12.2
-4 0 -5 64.59 11.3
-4 0 -5 46.1 10.7
-4 0 -5 54.39 10.7
4 0 5 61.89 8.9
4 0 5 77.99 12.6
4 0 5 75.29 10
4 0 5 67.79 11
4 0 5 60.49 12.5
4 0 5 78.19 9.6
4 0 5 93.39 14.3
-5 0 -5 9.6 7.4
-5 0 -5 -4.5 6.8
-5 0 -5 8.6 7.2
-5 0 -5 5.9 4.5
5 0 5 -2.5 3.7
5 0 5 -5.8 6.9
5 0 5 4.4 3.8
5 0 5 4 2.6
5 0 5 3.7 5.5
5 0 5 2.9 3.5
5 0 5 5.7 3.4
-6 0 -5 32.2 13.7
-6 0 -5 14.4 6.4
-6 0 -5 13.7 10
6 0 5 16.8 6.1
6 0 5 13.3 4.6
6 0 5 9 6.8
6 0 5 2.5 5.7
6 0 5 9 3.2
-7 0 -5 14.8 5.7
-7 0 -5 19.7 6.1
7 0 5 4.7 3.3
7 0 5 21.1 7.4
7 0 5 20.6 6.1
7 0 5 12 2.9
7 0 5 14.5 10.2
-8 0 -5 16 4.5
8 0 5 26.5 5
9 -1 -5 11.4 4.9
9 -1 -5 19.7 5.2
9 -1 -5 22.1 6.1
-9 1 5 14.6 4.3
-9 1 5 9.4 3.2
8 -1 -5 283.27 24.6
8 -1 -5 266.67 28.2
-8 1 5 204.78 24.2
-8 1 5 202.88 23.1
7 -1 -5 23 8.7
7 -1 -5 14 5.7
7 -1 -5 8.6 11.9
-7 1 5 23.2 6.2
-7 1 5 8.5 9.1
-7 1 5 19.7 6.2
-7 1 5 15 3.9
-7 1 5 19.6 4.6
6 -1 -5 1533.75 144.09
6 -1 -5 1297.77 113.19
6 -1 -5 1263.57 110.89
6 -1 -5 1158.18 109.49
-6 1 5 1340.17 107.19
-6 1 5 1317.27 106.29
-6 1 5 1400.06 108.49
-6 1 5 1359.16 106.39
-6 1 5 1183.68 109.29
5 -1 -5 107.99 14.5
5 -1 -5 117.99 17.1
5 -1 -5 119.19 16.5
5 -1 -5 96.89 14.4
-5 1 5 99.79 12.7
-5 1 5 125.19 14.7
-5 1 5 121.89 12.5
-5 1 5 110.99 13.8
-5 1 5 106.09 11.8
-5 1 5 124.89 12
4 -1 -5 4087.19 343.67
4 -1 -5 3881.31 342.27
4 -1 -5 4079.19 345.47
4 -1 -5 3977.3 343.67
-4 1 5 4805.22 343.27
-4 1 5 4668.83 340.97
-4 1 5 4580.44 341.47
3 -1 -5 2154.98 179.58
3 -1 -5 2067.49 178.08
3 -1 -5 2339.67 180.88
3 -1 -5 2060.49 181.58
3 -1 -5 2176.68 181.48
3 -1 -5 2586.54 183.08
-3 1 5 2247.08 178.28
-3 1 5 2169.68 178.58
-3 1 5 2280.57 179.98
-3 1 5 2303.67 180.78
2 -1 -5 7913.51 661.53
2 -1 -5 8438.16 661.13
2 -1 -5 8389.56 662.73
-2 1 5 8719.63 659.93
1 -1 -5 4112.19 366.96
1 -1 -5 4678.13 367.56
1 -1 -5 4186.88 365.46
1 -1 -5 4035.6 366.96
1 -1 -5 5207.78 368.96
-1 1 5 4852.91 365.36
-1 1 5 4655.73 366.46
-1 1 5 5152.78 366.76
-1 1 5 4650.63 365.66
0 -1 -5 6831.02 544.75
0 -1 -5 7157.98 545.55
0 -1 -5 6259.27 548.65
0 -1 -5 6141.89 544.45
0 -1 -5 6364.36 544.85
0 1 5 7537.15 546.85
0 1 5 7415.46 544.95
0 1 5 7438.06 545.25
-1 -1 -5 4870.91 353.66
-1 -1 -5 3957.2 349.77
-1 -1 -5 4749.82 351.86
-1 -1 -5 4694.03 350.56
1 1 5 4366.56 351.26
1 1 5 4183.18 354.26
1 1 5 4123.99 351.46
1 1 5 4435.56 353.26
-2 -1 -5 2047 176.08
-2 -1 -5 1862.51 173.98
2 1 5 2293.67 179.88
2 1 5 2397.96 174.68
2 1 5 2363.76 175.28
2 1 5 1999.4 177.08
-3 -1 -5 1573.64 141.99
-3 -1 -5 1652.33 143.59
-3 -1 -5 1688.63 144.19
-3 -1 -5 1925.51 145.39
-3 -1 -5 1640.24 149.19
3 1 5 1769.42 140.59
3 1 5 1593.54 142.89
3 1 5 1989.8 147.09
3 1 5 1751.02 144.39
-4 -1 -5 104.89 15.9
-4 -1 -5 113.89 17.9
-4 -1 -5 143.69 21.9
-4 -1 -5 106.09 16.5
4 1 5 145.09 15.8
4 1 5 126.59 14.5
4 1 5 146.49 21.3
4 1 5 134.79 19.5
4 1 5 148.39 15.3
-5 -1 -5 287.17 35.9
-5 -1 -5 352.66 34
-5 -1 -5 331.77 35.3
5 1 5 277.17 33.3
5 1 5 332.47 30
5 1 5 339.47 29.8
5 1 5 347.97 37
5 1 5 362.66 37.3
5 1 5 358.46 33.9
5 1 5 304.07 31.8
-6 -1 -5 2.9 6.1
-6 -1 -5 2.3 4
-6 -1 -5 3.9 4.3
6 1 5 6.8 2.7
6 1 5 9.2 5.6
6 1 5 6.8 2.9
6 1 5 12.2 6.8
6 1 5 14.4 5.1
-7 -1 -5 27.2 6.7
-7 -1 -5 33.1 7.4
7 1 5 39.5 6.8
7 1 5 14.1 7.8
-9 2 5 126.79 14
-9 2 5 119.29 12.9
8 -2 -5 0.1 4.5
8 -2 -5 4.3 4.1
-8 2 5 1.2 2.9
-8 2 5 3.3 3.1
7 -2 -5 859.21 77.79
7 -2 -5 985.2 82.89
7 -2 -5 926.71 94.09
-7 2 5 885.21 76.99
-7 2 5 921.41 76.29
-7 2 5 835.82 73.19
6 -2 -5 269.87 30
6 -2 -5 285.27 30
6 -2 -5 312.97 36.1
6 -2 -5 310.07 33.3
6 -2 -5 317.17 26.4
-6 2 5 345.27 31.5
-6 2 5 307.97 28.1
-6 2 5 276.57 29.5
-6 2 5 257.37 25.7
-6 2 5 289.97 26.1
-6 2 5 243.28 26.3
5 -2 -5 1820.82 146.39
5 -2 -5 1967.8 150.28
5 -2 -5 1832.82 152.58
5 -2 -5 1690.73 149.39
5 -2 -5 2025.3 146.19
5 -2 -5 1829.92 153.58
5 -2 -5 1773.32 149.59
5 -2 -5 1915.71 147.99
-5 2 5 1881.21 149.39
-5 2 5 1814.12 148.59
-5 2 5 1717.03 146.99
-5 2 5 1761.32 148.09
-5 2 5 1863.01 149.59
-5 2 5 1645.44 146.29
-5 2 5 1748.13 145.69
-5 2 5 1761.92 145.79
4 -2 -5 2265.57 163.98
4 -2 -5 1731.53 162.38
4 -2 -5 1978.3 161.18
4 -2 -5 1784.82 160.78
4 -2 -5 1823.22 162.98
4 -2 -5 1996.2 159.68
4 -2 -5 1956.2 159.58
4 -2 -5 2166.58 158.98
4 -2 -5 2152.88 161.28
4 -2 -5 2152.38 160.08
-4 2 5 1903.91 158.38
-4 2 5 1959 160.28
-4 2 5 1964.8 157.88
-4 2 5 1897.61 160.48
-4 2 5 1840.42 159.88
3 -2 -5 2867.81 240.68
3 -2 -5 3014.5 239.38
3 -2 -5 3017.3 240.08
3 -2 -5 2935.91 242.38
3 -2 -5 2705.53 242.38
3 -2 -5 3012.2 239.98
-3 2 5 3023.7 239.08
-3 2 5 3157.38 240.88
-3 2 5 3036.6 238.58
-3 2 5 3219.18 241.68
2 -2 -5 6744.33 567.54
2 -2 -5 6753.22 569.04
2 -2 -5 6593.94 570.14
2 -2 -5 6402.96 567.94
2 -2 -5 6676.73 567.54
-2 2 5 7920.41 566.94
-2 2 5 7663.03 568.74
-2 2 5 8299.67 570.04
-2 2 5 7512.65 567.34
1 -2 -5 777.02 62.19
1 -2 -5 668.53 60.59
1 -2 -5 675.43 60.09
1 -2 -5 712.83 62.79
1 -2 -5 625.94 59.79
1 -2 -5 618.14 59.39
-1 2 5 765.32 61.19
-1 2 5 735.13 59.49
-1 2 5 805.92 62.39
-1 2 5 771.02 61.09
-1 2 5 762.02 60.89
0 -2 -5 3765.42 317.87
0 -2 -5 3720.03 315.57
0 -2 -5 3866.51 315.07
0 -2 -5 3708.63 315.67
0 -2 -5 3831.12 316.07
0 -2 -5 3597.24 314.97
0 2 5 4209.68 318.17
0 2 5 4213.78 315.87
0 2 5 4095.59 318.27
0 2 5 4090.89 316.27
0 2 5 4215.88 317.27
0 2 5 4288.87 317.27
-1 -2 -5 72.99 9.2
-1 -2 -5 92.89 12.3
-1 -2 -5 69.09 10.9
-1 -2 -5 77.39 10.1
-1 -2 -5 82.59 9.4
-1 -2 -5 98.39 10.1
-1 -2 -5 96.59 11.6
1 2 5 75.69 10.8
1 2 5 86.59 13.2
1 2 5 81.79 10.3
1 2 5 77.39 11.4
1 2 5 68.39 10.4
1 2 5 94.69 12.7
-2 -2 -5 1905.11 146.49
-2 -2 -5 1518.85 148.49
-2 -2 -5 1818.52 149.09
-2 -2 -5 1944.71 151.68
-2 -2 -5 1783.62 150.28
-2 -2 -5 1901.01 148.59
2 2 5 2104.19 148.79
2 2 5 2006.4 149.59
2 2 5 1774.92 149.88
2 2 5 1899.81 154.98
2 2 5 1709.93 147.09
2 2 5 1572.54 148.79
2 2 5 1666.33 150.28
2 2 5 1748.33 152.08
-3 -2 -5 206.58 25.8
-3 -2 -5 230.18 27.3
-3 -2 -5 207.68 24
-3 -2 -5 216.38 24.5
3 2 5 257.87 24.6
3 2 5 229.08 28.3
3 2 5 184.18 25.6
3 2 5 251.77 23.5
3 2 5 275.07 23.6
3 2 5 232.68 29.2
3 2 5 225.18 25.3
-4 -2 -5 1186.08 103.79
-4 -2 -5 1104.79 101.39
-4 -2 -5 1265.67 102.09
-4 -2 -5 1095.39 117.69
4 2 5 1262.57 101.99
4 2 5 1288.47 98.09
4 2 5 1005.2 101.39
4 2 5 1163.18 99.39
4 2 5 1288.47 98.49
-5 -2 -5 207.28 22.4
-5 -2 -5 214.68 25
5 2 5 232.48 18.7
5 2 5 147.09 20.5
5 2 5 171.58 22.4
5 2 5 205.68 22.2
5 2 5 166.88 23.8
-6 -2 -5 257.47 27.2
-6 -2 -5 207.48 23.5
6 2 5 263.17 26.2
6 2 5 309.07 25.9
-7 -2 -5 32.6 6.9
7 2 5 17.7 6.4
7 2 5 32.2 4.6
9 -3 -5 2.1 4
9 -3 -5 4.8 2.9
-9 3 5 2.9 3.1
-9 3 5 1.9 2.8
8 -3 -5 52.49 10.8
8 -3 -5 42.7 8.8
-8 3 5 35.8 7.7
-8 3 5 30.3 7.3
7 -3 -5 4.8 5.5
7 -3 -5 -0.9 3.8
7 -3 -5 -4.7 3.1
7 -3 -5 4.7 4.6
-7 3 5 -4.4 6.1
-7 3 5 1.8 3.1
-7 3 5 2.2 3.5
-7 3 5 4.1 3.8
6 -3 -5 231.98 29.9
6 -3 -5 261.07 27.9
6 -3 -5 289.17 24.5
6 -3 -5 273.67 28.6
6 -3 -5 296.27 36.1
-6 3 5 261.57 25.5
-6 3 5 236.58 29.3
-6 3 5 245.28 23.8
-6 3 5 267.27 26.5
5 -3 -5 76.79 14.1
5 -3 -5 81.99 12
5 -3 -5 88.69 11.7
5 -3 -5 79.79 12.7
5 -3 -5 91.49 15.6
5 -3 -5 88.39 13.5
5 -3 -5 72.49 10.8
5 -3 -5 81.49 11
5 -3 -5 96.29 13
-5 3 5 82.09 11.5
-5 3 5 60.39 9.7
-5 3 5 84.59 12.2
-5 3 5 79.79 9.5
-5 3 5 74.79 10.8
-5 3 5 98.89 10.1
4 -3 -5 390.36 39.4
4 -3 -5 390.76 34.2
4 -3 -5 401.06 35.1
4 -3 -5 402.66 36.6
4 -3 -5 371.86 36.6
4 -3 -5 342.47 33.5
4 -3 -5 363.16 35.7
4 -3 -5 391.16 37.9
-4 3 5 379.56 36.7
-4 3 5 388.76 33.3
-4 3 5 392.46 36.2
-4 3 5 383.86 33.6
3 -3 -5 438.86 42.7
3 -3 -5 466.15 44.3
3 -3 -5 478.05 43.7
3 -3 -5 544.25 47.7
3 -3 -5 572.14 46.2
3 -3 -5 515.35 43.1
3 -3 -5 528.15 46.4
3 -3 -5 468.35 44.9
3 -3 -5 486.55 43.5
-3 3 5 561.04 45.5
-3 3 5 486.25 42.2
-3 3 5 521.55 42.5
-3 3 5 521.85 45.8
-3 3 5 480.45 43.4
-3 3 5 434.66 42.6
2 -3 -5 257.17 25.3
2 -3 -5 243.68 25.4
2 -3 -5 251.87 24.7
2 -3 -5 248.98 32.4
2 -3 -5 299.37 28.8
-2 3 5 283.37 25.6
-2 3 5 289.07 27.1
-2 3 5 312.77 28.3
1 -3 -5 1488.65 118.59
1 -3 -5 1290.47 114.39
1 -3 -5 1357.86 115.09
1 -3 -5 1317.77 115.89
1 -3 -5 1410.86 114.39
1 -3 -5 1468.55 118.89
1 -3 -5 1258.67 114.79
-1 3 5 1430.96 115.69
-1 3 5 1442.76 114.79
-1 3 5 1474.15 117.29
-1 3 5 1567.74 118.69
0 -3 -5 36.3 6.6
0 -3 -5 31 5.4
0 -3 -5 27.3 8.3
0 -3 -5 28.4 6.3
0 -3 -5 36.5 6.2
0 -3 -5 48.4 8.6
0 -3 -5 24.3 5.3
0 -3 -5 42.7 10.4
0 -3 -5 25.3 6.2
0 -3 -5 40.6 6.7
0 3 5 29.6 6.4
0 3 5 28.6 7.2
0 3 5 35.5 7.9
0 3 5 39.7 7.3
-1 -3 -5 2711.43 224.08
-1 -3 -5 3003.9 223.48
-1 -3 -5 2721.33 222.48
-1 -3 -5 2565.94 222.88
-1 -3 -5 2763.92 227.28
-1 -3 -5 2780.22 222.78
-1 -3 -5 2786.72 228.58
-1 -3 -5 3040.9 225.18
-1 -3 -5 2355.56 222.98
-1 -3 -5 2935.51 226.08
1 3 5 2934.21 231.88
1 3 5 2949.21 229.28
1 3 5 2926.21 226.48
1 3 5 3109.29 228.28
1 3 5 2650.93 224.88
1 3 5 2298.97 226.88
-2 -3 -5 117.39 18.4
-2 -3 -5 109.99 13.4
-2 -3 -5 90.89 16
-2 -3 -5 112.29 15.2
-2 -3 -5 93.79 13.1
-2 -3 -5 103.99 13.8
-2 -3 -5 118.09 13.2
2 3 5 112.49 15.4
2 3 5 97.19 21.9
2 3 5 103.29 17.8
2 3 5 122.69 14.9
2 3 5 119.89 14.4
2 3 5 131.29 20.2
2 3 5 98.99 15.8
2 3 5 98.89 15.5
-3 -3 -5 325.17 39.3
-3 -3 -5 305.47 34.2
-3 -3 -5 372.86 33
-3 -3 -5 299.67 32.6
-3 -3 -5 302.17 32.2
3 3 5 348.37 38.7
3 3 5 341.77 33.7
3 3 5 268.87 32.8
3 3 5 330.87 37.5
-4 -3 -5 40.1 10.2
-4 -3 -5 35.7 12.8
-4 -3 -5 48.5 13.9
4 3 5 47.7 7
4 3 5 41.5 15.2
-5 -3 -5 1.5 4.1
-5 -3 -5 -4.3 3.4
5 3 5 2.9 6
5 3 5 6 3.5
5 3 5 8.5 4.3
-6 -3 -5 3.9 3.3
-6 -3 -5 7.2 3.8
6 3 5 8.9 3.1
6 3 5 6.8 3.7
9 -4 -5 12.2 4.7
9 -4 -5 16.3 4.7
-9 4 5 9.4 3.7
8 -4 -5 560.04 51.29
8 -4 -5 479.35 50.99
8 -4 -5 575.94 48.2
-8 4 5 494.65 45.4
-8 4 5 507.15 46.4
7 -4 -5 353.16 38.9
7 -4 -5 358.16 29.6
-7 4 5 250.67 32.7
-7 4 5 302.07 32
-7 4 5 245.18 32.4
6 -4 -5 373.76 32.6
6 -4 -5 405.26 36.5
6 -4 -5 287.17 32.1
6 -4 -5 359.26 34.1
6 -4 -5 386.06 36.8
6 -4 -5 375.76 39.3
-6 4 5 359.16 33.2
-6 4 5 351.16 34
-6 4 5 332.37 36.2
5 -4 -5 3057.99 238.08
5 -4 -5 2623.54 239.78
5 -4 -5 3290.47 247.98
5 -4 -5 2869.21 241.18
5 -4 -5 3034.8 235.88
5 -4 -5 2419.06 238.18
5 -4 -5 2730.03 235.68
-5 4 5 3160.98 233.28
-5 4 5 3130.89 239.68
4 -4 -5 628.54 60.79
4 -4 -5 648.44 62.39
4 -4 -5 767.82 62.99
4 -4 -5 706.83 63.79
4 -4 -5 706.43 66.89
4 -4 -5 743.33 64.59
4 -4 -5 664.43 61.49
4 -4 -5 722.13 73.79
4 -4 -5 710.73 64.09
4 -4 -5 753.22 69.09
-4 4 5 654.23 62.29
-4 4 5 798.22 60.99
-4 4 5 845.72 66.79
-4 4 5 848.42 66.99
3 -4 -5 1304.17 114.39
3 -4 -5 1532.65 120.19
3 -4 -5 1388.56 117.09
3 -4 -5 1519.05 121.09
3 -4 -5 1402.56 115.39
3 -4 -5 1359.46 118.69
3 -4 -5 1371.56 116.39
3 -4 -5 1364.36 115.49
3 -4 -5 1256.77 113.79
-3 4 5 1657.73 120.99
-3 4 5 1457.15 115.59
-3 4 5 1213.18 113.79
-3 4 5 1431.36 115.99
2 -4 -5 840.12 74.99
2 -4 -5 840.82 76.39
2 -4 -5 790.52 73.69
2 -4 -5 854.91 74.79
2 -4 -5 928.21 79.99
2 -4 -5 834.82 75.49
2 -4 -5 895.11 74.39
2 -4 -5 832.22 77.19
-2 4 5 1023.1 80.49
-2 4 5 959.2 75.09
-2 4 5 788.22 75.49
-2 4 5 855.11 74.59
-2 4 5 944.61 75.69
-2 4 5 961.8 76.49
-2 4 5 1050.29 81.29
1 -4 -5 1236.08 98.59
1 -4 -5 1184.78 99.49
1 -4 -5 1184.68 101.19
1 -4 -5 1156.58 102.49
1 -4 -5 1146.79 99.49
1 -4 -5 1173.68 98.09
1 -4 -5 1166.08 101.19
1 -4 -5 1240.68 99.29
1 -4 -5 1278.77 104.99
1 -4 -5 1143.59 99.19
-1 4 5 1319.77 100.89
-1 4 5 1379.96 102.09
-1 4 5 1141.09 99.19
-1 4 5 998 103.69
0 -4 -5 2257.07 186.88
0 -4 -5 2131.59 188.08
0 -4 -5 2276.47 190.88
0 -4 -5 2046 183.08
0 -4 -5 2209.58 186.48
0 -4 -5 2396.76 184.08
0 -4 -5 2232.88 185.38
0 -4 -5 2274.37 185.08
0 -4 -5 2330.87 184.58
0 4 5 2444.16 187.38
0 4 5 2497.55 188.58
-1 -4 -5 685.93 61.29
-1 -4 -5 622.24 56.19
-1 -4 -5 583.14 52.19
-1 -4 -5 632.04 54.79
-1 -4 -5 633.64 53.39
-1 -4 -5 560.34 53.09
1 4 5 547.25 60.79
1 4 5 565.64 60.39
1 4 5 691.13 54.69
1 4 5 555.04 58.39
-2 -4 -5 1476.65 126.19
-2 -4 -5 1483.65 132.59
-2 -4 -5 1576.64 131.29
-2 -4 -5 1531.35 130.59
-2 -4 -5 1563.54 130.19
-2 -4 -5 1609.54 128.99
2 4 5 1718.33 132.19
2 4 5 1352.66 130.89
2 4 5 1713.93 140.59
-3 -4 -5 9.3 6.6
-3 -4 -5 -1.3 4.9
-3 -4 -5 -0.1 5.6
3 4 5 -1.4 5.8
3 4 5 -1 6.6
3 4 5 0.9 4.1
-4 -4 -5 71.09 11.5
-4 -4 -5 74.99 12.7
4 4 5 80.59 11.8
4 4 5 78.89 11.1
4 4 5 63.09 14.1
-5 -4 -5 -0.7 3.1
-5 -4 -5 -0.1 3.6
-5 -4 -5 4.9 4
5 4 5 7.6 3.9
5 4 5 6.8 3
9 -5 -5 0 2.7
9 -5 -5 -6 4
-9 5 5 1.5 2.3
-9 5 5 1.6 3.1
-9 5 5 0.6 2.8
8 -5 -5 11.9 6.5
8 -5 -5 2.8 3.9
-8 5 5 4.1 3.5
-8 5 5 4.3 4.3
-8 5 5 6.3 3.8
7 -5 -5 58.19 11.8
7 -5 -5 59.79 10.5
7 -5 -5 36.2 10.1
7 -5 -5 55.09 7.6
-7 5 5 41.3 8.2
-7 5 5 57.39 9
6 -5 -5 124.19 15.2
6 -5 -5 139.59 19.8
6 -5 -5 153.88 17.8
6 -5 -5 129.09 16.4
6 -5 -5 144.19 15.2
-6 5 5 135.49 15.3
-6 5 5 110.79 15.4
-6 5 5 121.29 18.8
-6 5 5 136.89 16.1
5 -5 -5 379.96 35.7
5 -5 -5 348.57 31.4
5 -5 -5 331.97 31.9
5 -5 -5 294.87 36
5 -5 -5 321.47 36.3
5 -5 -5 359.56 34.7
5 -5 -5 389.56 33.8
-5 5 5 314.77 35.8
-5 5 5 374.16 38.1
-5 5 5 346.17 32
-5 5 5 328.57 32.9
4 -5 -5 259.67 25.3
4 -5 -5 249.18 26.4
4 -5 -5 236.38 23.8
4 -5 -5 236.48 24.2
4 -5 -5 267.67 27.6
4 -5 -5 216.98 24.7
4 -5 -5 275.87 27.6
3 -5 -5 425.46 38.8
3 -5 -5 350.06 38
3 -5 -5 443.16 42.4
3 -5 -5 435.16 42
3 -5 -5 426.16 37.8
-3 5 5 440.26 45.7
2 -5 -5 273.97 28.1
2 -5 -5 218.78 23.4
2 -5 -5 201.78 22.3
2 -5 -5 235.28 23.6
2 -5 -5 231.18 24.3
-2 5 5 253.87 31.3
1 -5 -5 760.52 64.79
1 -5 -5 736.73 63.49
1 -5 -5 734.33 64.89
1 -5 -5 755.72 66.89
1 -5 -5 649.64 64.19
1 -5 -5 719.53 63.19
-1 5 5 820.32 67.09
-1 5 5 813.02 67.49
0 -5 -5 1088.89 92.39
0 -5 -5 1038.1 88.39
0 -5 -5 1087.89 95.29
0 -5 -5 1078.69 90.99
0 -5 -5 1022.2 90.09
0 -5 -5 1024.1 93.89
0 5 5 1124.49 93.59
0 5 5 1076.69 92.99
-1 -5 -5 125.59 15.8
-1 -5 -5 120.69 13.6
-1 -5 -5 102.49 15.8
-1 -5 -5 103.09 17.1
-1 -5 -5 143.09 16.6
1 5 5 113.79 16.6
1 5 5 109.69 16.4
-2 -5 -5 209.88 26.5
-2 -5 -5 233.68 25.4
-2 -5 -5 219.18 20.8
2 5 5 250.77 25.7
2 5 5 190.78 24.4
-3 -5 -5 65.69 11.6
-3 -5 -5 73.39 12.5
3 5 5 83.99 11.8
3 5 5 65.79 11
-4 -5 -5 51.19 9.2
-4 -5 -5 49.99 8.5
4 5 5 49.1 8
9 -6 -5 -0.4 2.5
-9 6 5 1.5 2.3
-9 6 5 1.7 2.1
8 -6 -5 25.1 7.5
8 -6 -5 25.4 9.5
-8 6 5 27.6 7.9
-8 6 5 39.5 7.9
7 -6 -5 32.7 8.3
7 -6 -5 34.4 11.3
7 -6 -5 28.5 11
7 -6 -5 28.7 5.5
-7 6 5 29.8 7.1
6 -6 -5 99.39 13.7
6 -6 -5 104.49 14.7
6 -6 -5 108.49 12.6
6 -6 -5 83.39 16.3
6 -6 -5 127.09 15.9
-6 6 5 113.29 13.6
-6 6 5 101.19 13.5
5 -6 -5 592.64 51.29
5 -6 -5 522.05 49.3
5 -6 -5 544.85 48.8
5 -6 -5 605.94 53.09
5 -6 -5 596.94 52.89
5 -6 -5 520.45 55.39
-5 6 5 594.24 57.29
-5 6 5 566.54 50.89
-5 6 5 572.14 52.89
4 -6 -5 120.29 18.2
4 -6 -5 113.59 15.6
4 -6 -5 103.09 16
4 -6 -5 137.09 17.2
4 -6 -5 86.89 14.7
4 -6 -5 121.79 13.4
4 -6 -5 136.19 15.7
-4 6 5 136.59 15.3
-4 6 5 112.59 15
3 -6 -5 958.8 83.89
3 -6 -5 966.1 82.99
3 -6 -5 793.72 81.59
3 -6 -5 1027.4 86.49
3 -6 -5 1053.19 84.99
3 -6 -5 903.91 80.59
-3 6 5 1097.39 84.29
2 -6 -5 188.18 22
2 -6 -5 197.68 22.6
2 -6 -5 221.88 26
2 -6 -5 211.28 24.1
2 -6 -5 206.28 21.3
2 -6 -5 212.78 22.8
2 -6 -5 213.58 21.4
-2 6 5 231.38 24.2
-2 6 5 218.28 24.7
1 -6 -5 1100.89 93.59
1 -6 -5 1139.09 95.89
1 -6 -5 1070.89 92.19
1 -6 -5 1029.7 91.49
1 -6 -5 1089.89 92.39
-1 6 5 1236.58 95.09
-1 6 5 914.61 92.99
0 -6 -5 54.09 10.8
0 -6 -5 85.89 14.4
0 -6 -5 54.39 8.8
0 -6 -5 57.69 15.7
0 -6 -5 49.99 10.6
0 -6 -5 70.09 12.1
0 -6 -5 49.99 8.2
0 6 5 46.1 11.4
0 6 5 70.09 15.5
-1 -6 -5 224.78 25.8
-1 -6 -5 253.87 22.4
-1 -6 -5 202.88 26.9
1 6 5 268.87 32.4
1 6 5 212.28 25.8
1 6 5 291.27 27.3
-2 -6 -5 21 6.4
-2 -6 -5 15.2 5.5
2 6 5 13 7.3
2 6 5 16.8 6
2 6 5 16.3 9
-3 -6 -5 15.2 5
-3 -6 -5 19.3 4.5
3 6 5 18.9 5.1
3 6 5 16.3 4.4
8 -7 -5 143.49 14.9
-8 7 5 137.69 14.4
7 -7 -5 160.78 24.2
7 -7 -5 128.99 26.5
-7 7 5 137.99 15.8
-7 7 5 161.58 25.2
6 -7 -5 655.53 61.19
6 -7 -5 598.54 56.09
6 -7 -5 768.72 62.59
-6 7 5 693.73 73.09
5 -7 -5 146.09 19.2
5 -7 -5 160.88 19.3
5 -7 -5 138.99 15.3
5 -7 -5 148.29 18.2
-5 7 5 146.79 17.1
-5 7 5 137.39 20.9
4 -7 -5 737.03 65.79
4 -7 -5 665.03 61.99
4 -7 -5 716.93 63.59
4 -7 -5 599.54 61.19
4 -7 -5 802.62 64.59
4 -7 -5 717.13 60.09
-4 7 5 747.23 62.99
3 -7 -5 69.49 12.6
3 -7 -5 47.6 9.8
3 -7 -5 64.99 9.5
3 -7 -5 68.09 14.1
3 -7 -5 49.9 9.7
3 -7 -5 62.79 8.8
-3 7 5 78.49 12
2 -7 -5 124.19 13.8
2 -7 -5 123.39 16.3
2 -7 -5 147.99 17.3
2 -7 -5 91.19 14.9
2 -7 -5 160.68 18.6
2 -7 -5 96.29 14.5
-2 7 5 155.68 17.4
1 -7 -5 4.9 4.5
1 -7 -5 3.4 2.8
1 -7 -5 -4.4 7.8
1 -7 -5 9.1 9.5
1 -7 -5 2.9 3.1
1 -7 -5 7 8.6
-1 7 5 5.9 4
0 -7 -5 -4.4 2.4
0 -7 -5 -10.5 6
0 7 5 7.5 4.1
-1 -7 -5 12.2 4
-1 -7 -5 19.4 6.6
1 7 5 13.6 4.5
1 7 5 12.4 5.7
1 7 5 2.3 4.7
-2 -7 -5 20.1 4.9
2 7 5 9 3.4
2 7 5 14.9 3.5
7 -8 -5 256.97 23.8
-7 8 5 252.07 23.1
6 -8 -5 4.1 3.5
6 -8 -5 4.4 2.7
-6 8 5 2.9 3.3
-6 8 5 -1.3 4.9
-6 8 5 0.7 2.8
5 -8 -5 132.19 13.6
5 -8 -5 155.18 24
-5 8 5 127.59 18.9
4 -8 -5 78.39 10.1
4 -8 -5 73.59 10.2
-4 8 5 109.59 26.4
3 -8 -5 156.98 18.1
3 -8 -5 146.09 16.9
-3 8 5 143.09 17.3
-3 8 5 159.38 28.6
2 -8 -5 328.87 37.6
2 -8 -5 298.57 25.5
-2 8 5 248.78 35
1 -8 -5 94.29 11.8
-1 8 5 80.19 11.6
-1 8 5 71.89 14.7
0 -8 -5 215.78 20.2
0 8 5 187.48 19.3
5 -9 -5 11.3 3.6
-5 9 5 16.2 5.4
-5 9 5 15.8 3.6
4 -9 -5 195.88 21.2
-4 9 5 187.48 18.8
-4 9 5 229.28 23.4
3 -9 -5 10.9 3.8
-3 9 5 9.1 3
-3 9 5 6.9 4.8
0 10 -6 59.79 12
-1 10 -6 473.35 50.89
-1 10 -6 453.25 46.6
-2 10 -6 1.6 3.6
-2 10 -6 5 6.5
-2 10 -6 -7.6 7.3
2 -10 6 -2.2 4
-3 10 -6 505.75 52.69
-4 10 -6 3.1 3.6
-4 10 -6 2.7 5.8
-4 10 -6 3.4 4.2
-4 10 -6 0.6 3
-5 10 -6 400.66 50.29
-5 10 -6 532.15 49
-6 10 -6 4.6 4.7
-6 10 -6 2.9 3.4
-6 10 -6 1.3 4.8
2 9 -6 -4.2 5.3
2 9 -6 0 2.1
-2 -9 6 -1.1 2.5
-2 -9 6 1.3 2.1
1 9 -6 4.4 4
1 9 -6 4.2 8.8
-1 -9 6 3.5 4.5
-1 -9 6 -0.8 2.3
-1 -9 6 -0.5 4.1
0 9 -6 19 11.1
0 9 -6 7.9 4.7
0 -9 6 1 3.1
0 -9 6 14.9 6.4
-1 9 -6 19 9
-2 9 -6 17.2 7.9
-2 9 -6 4.4 6.3
-2 9 -6 5.7 3.8
-2 9 -6 0.2 5.1
-2 9 -6 -3.6 4.5
2 -9 6 10.5 5.1
2 -9 6 1.2 3.3
-3 9 -6 92.09 18.3
-3 9 -6 47 12.4
-3 9 -6 57.49 12.1
-3 9 -6 64.29 17.3
3 -9 6 55.99 9.7
-4 9 -6 0.6 4.6
-4 9 -6 -2.3 3.9
-4 9 -6 1.7 3.4
-4 9 -6 0.6 2.5
-4 9 -6 2.1 5.5
4 -9 6 -1.1 4.9
4 -9 6 -3.3 2.9
-5 9 -6 19.2 6
-5 9 -6 10.8 6.3
-5 9 -6 13.4 7.6
-5 9 -6 16.6 6.8
-5 9 -6 7.8 7.2
5 -9 6 18.9 6.9
5 -9 6 16.4 5
-6 9 -6 9.7 8.1
-6 9 -6 -3.6 3.6
-6 9 -6 3.1 3.6
-6 9 -6 15.6 7.1
6 -9 6 11.5 3.4
6 -9 6 5.3 4.1
-7 9 -6 6.2 4.9
-7 9 -6 0.6 4.4
-7 9 -6 4.2 4.2
7 -9 6 -1.1 3.2
7 -9 6 3.9 3.4
3 8 -6 3.2 3
3 8 -6 11.6 9.2
-3 -8 6 1.4 2.4
-3 -8 6 1.2 1.9
2 8 -6 10.6 12.3
2 8 -6 4.8 4.4
2 8 -6 11.4 6.2
-2 -8 6 5.5 3.2
-2 -8 6 -1.6 3.2
-2 -8 6 1.7 1.8
1 8 -6 12.2 7.1
1 8 -6 -3.9 6.6
1 8 -6 -1.5 4.7
1 8 -6 10.3 15.8
-1 -8 6 5.6 3.5
-1 -8 6 1.7 5.3
-1 -8 6 1.2 3
0 8 -6 14.7 11
0 8 -6 23.3 13
0 8 -6 14.5 8.2
0 8 -6 8.1 6.7
0 -8 6 6.2 3.7
0 -8 6 9.3 3.5
-1 8 -6 1.4 4.6
-1 8 -6 -2.9 8.9
-1 8 -6 5.6 8.1
-1 8 -6 3.6 8.5
-1 8 -6 3.1 6.1
-1 8 -6 7.5 4.6
-1 8 -6 -1.1 7.7
1 -8 6 3.3 3.9
1 -8 6 1.8 3
1 -8 6 5.7 7.6
-2 8 -6 2.8 4.2
-2 8 -6 0.3 6
-2 8 -6 -1.3 4
-2 8 -6 -2.7 4.8
-2 8 -6 4.8 7.1
-2 8 -6 7.1 8
-2 8 -6 5 5.6
-2 8 -6 4.5 3.6
2 -8 6 15.6 9
2 -8 6 -0.8 2.4
-3 8 -6 4.4 4.4
-3 8 -6 1.8 5.7
-3 8 -6 -0.1 4
-3 8 -6 6.4 6.2
-3 8 -6 -4.6 6
-3 8 -6 1.4 4.3
-3 8 -6 8.8 5.6
-3 8 -6 7.4 7.4
-3 8 -6 4.8 6.1
3 -8 6 10.1 3.4
3 -8 6 10.4 7.2
-4 8 -6 117.99 18.9
-4 8 -6 86.39 22
-4 8 -6 126.19 22
-4 8 -6 126.19 21.2
-4 8 -6 156.28 20.8
-4 8 -6 117.59 21.5
4 -8 6 88.99 25
4 -8 6 123.99 13.8
-5 8 -6 1.7 5.2
-5 8 -6 -10 7.4
-5 8 -6 1.4 3.6
-5 8 -6 0.2 4.2
-5 8 -6 -1 4.2
-5 8 -6 5.6 4.2
5 -8 6 4.1 3.1
5 -8 6 1.1 4
-6 8 -6 218.18 30
-6 8 -6 253.67 32.2
-6 8 -6 285.77 40.7
-6 8 -6 280.77 32
-7 8 -6 1.8 4.2
-7 8 -6 -3.6 4.7
-7 8 -6 4 4.4
7 -8 6 1.2 3
7 -8 6 -1.2 2.2
7 -8 6 -1.7 3
-8 8 -6 113.39 13.1
8 -8 6 107.39 11.6
8 -8 6 123.99 11.2
-4 -7 6 31.9 5.7
-4 -7 6 45.6 8.8
-4 -7 6 33.1 6.7
-4 -7 6 42.2 6.1
3 7 -6 30.3 18.9
3 7 -6 15.7 5.5
-3 -7 6 11.6 3.4
-3 -7 6 25.5 7.5
-3 -7 6 9 3.9
-3 -7 6 18.6 4.6
2 7 -6 337.57 38.1
-2 -7 6 250.27 28.2
-2 -7 6 328.27 28.8
-2 -7 6 306.57 28.1
1 7 -6 2.7 6.7
1 7 -6 4.2 5.6
1 7 -6 -7.2 12.5
1 7 -6 3.6 7.6
1 7 -6 4.4 5.4
-1 -7 6 3.8 5.6
-1 -7 6 7.8 3
-1 -7 6 6.8 5.5
0 7 -6 493.55 54.89
0 7 -6 546.65 54.29
0 7 -6 366.26 49.4
0 7 -6 454.25 57.59
0 7 -6 390.06 42.7
0 7 -6 443.06 53.89
0 -7 6 487.95 40.9
0 -7 6 441.56 42.9
0 -7 6 509.45 42.7
-1 7 -6 27 11.6
-1 7 -6 49.99 10
-1 7 -6 38.5 8.2
-1 7 -6 44.1 10.3
-1 7 -6 44 12.8
-1 7 -6 33.9 11.7
-1 7 -6 33.6 12.1
-1 7 -6 38.4 14.7
-1 7 -6 45.1 9.4
-1 7 -6 35.6 9.1
-1 7 -6 33.2 11.2
-1 7 -6 24.7 10.7
1 -7 6 30.4 5.5
-2 7 -6 278.37 37.1
-2 7 -6 329.97 37.6
-2 7 -6 326.27 42.8
-2 7 -6 325.67 32.3
-2 7 -6 316.67 34.9
-2 7 -6 386.76 40.1
-2 7 -6 308.77 33.3
-2 7 -6 307.37 36.9
-2 7 -6 296.97 33.9
2 -7 6 326.57 29.5
2 -7 6 267.37 26.7
-3 7 -6 251.27 29.5
-3 7 -6 253.77 26.6
-3 7 -6 198.78 24.7
-3 7 -6 206.18 26.9
-3 7 -6 186.78 26.5
-3 7 -6 212.08 36.7
-3 7 -6 253.07 27.4
3 -7 6 163.28 23.5
3 -7 6 235.98 20.4
-4 7 -6 83.49 19
-4 7 -6 100.39 15.6
-4 7 -6 98.69 17.1
-4 7 -6 96.19 17.3
-4 7 -6 61.59 16.5
-4 7 -6 85.89 14.7
-4 7 -6 113.39 17.2
-4 7 -6 76.89 15.7
-4 7 -6 87.59 14.6
4 -7 6 104.69 11
4 -7 6 63.59 13.6
-5 7 -6 231.28 25.9
-5 7 -6 268.67 33.3
-5 7 -6 197.48 26.5
-5 7 -6 256.87 31.8
-5 7 -6 172.38 25.8
-5 7 -6 243.18 35.3
5 -7 6 185.18 21
-6 7 -6 -1.6 3.7
-6 7 -6 -3.9 7.9
-6 7 -6 0 4.4
-6 7 -6 2.9 4.1
-6 7 -6 -0.1 4.6
6 -7 6 0.1 2.6
6 -7 6 -1.7 2.4
-7 7 -6 76.29 12.5
-7 7 -6 61.59 15.8
7 -7 6 66.69 13.4
7 -7 6 82.39 10.5
7 -7 6 78.49 10
-8 7 -6 4.5 3.5
-8 7 -6 1.6 2.2
-8 7 -6 5 4.2
8 -7 6 13.3 3.2
8 -7 6 7.9 4.1
8 -7 6 8.4 3.2
5 6 -6 51.89 14.7
-5 -6 6 26 5
-5 -6 6 21.1 5.1
4 6 -6 35.3 15.1
4 6 -6 12.6 5.4
-4 -6 6 4.7 3
-4 -6 6 12.1 3.6
-4 -6 6 11.3 3.5
-4 -6 6 5 5.5
3 6 -6 298.27 37.3
-3 -6 6 257.97 31.9
-3 -6 6 354.36 33.7
-3 -6 6 315.97 28.9
-3 -6 6 326.27 29.8
-3 -6 6 318.77 31
2 6 -6 17.1 15.1
2 6 -6 14.1 7.2
2 6 -6 10 6.4
2 6 -6 31.9 12.9
-2 -6 6 8.4 3.7
-2 -6 6 11.6 3.4
-2 -6 6 6.7 4.6
1 6 -6 652.43 66.19
1 6 -6 604.54 70.59
1 6 -6 667.93 69.59
1 6 -6 707.23 68.19
1 6 -6 580.14 64.69
1 6 -6 745.93 66.19
-1 -6 6 722.33 57.09
-1 -6 6 700.63 59.49
-1 -6 6 682.73 57.29
0 6 -6 54.69 13.1
0 6 -6 58.99 11.1
0 6 -6 43.6 15.5
0 6 -6 87.39 12.4
0 6 -6 90.49 14.6
0 6 -6 66.89 11.3
0 6 -6 56.69 16.1
0 6 -6 82.99 12.4
0 6 -6 68.99 11.4
0 6 -6 65.29 18.4
0 6 -6 45.7 13.2
0 -6 6 79.79 8.3
0 -6 6 54.99 13.5
0 -6 6 65.29 9.8
-1 6 -6 74.09 15.9
-1 6 -6 83.79 16.6
-1 6 -6 88.59 15.6
-1 6 -6 113.29 14.4
-1 6 -6 100.29 13.1
-1 6 -6 97.59 14
-1 6 -6 100.89 13.1
-1 6 -6 78.99 13.6
-1 6 -6 96.19 13.2
-1 6 -6 87.49 15.1
-1 6 -6 65.09 14.6
-1 6 -6 69.89 15
1 -6 6 78.19 14.2
1 -6 6 80.79 10.3
1 -6 6 61.99 9.4
-2 6 -6 32.3 10.2
-2 6 -6 22.6 9.4
-2 6 -6 26.1 7.8
-2 6 -6 24.5 7.8
-2 6 -6 16.9 10.8
-2 6 -6 25.5 7.6
-2 6 -6 20.1 7.3
-2 6 -6 17 8
-2 6 -6 20 6.9
-2 6 -6 22.2 7.3
2 -6 6 31.3 8.2
2 -6 6 19.1 4.8
-3 6 -6 16.8 6.7
-3 6 -6 8.3 5
-3 6 -6 23.5 9
-3 6 -6 10.5 6.3
-3 6 -6 8.2 5.7
-3 6 -6 20 7.2
-3 6 -6 9 5.3
-3 6 -6 15.9 6.3
-3 6 -6 8.4 6.1
-3 6 -6 11.7 8.8
-3 6 -6 3.4 5.7
3 -6 6 11.8 5
3 -6 6 16.1 3.8
-4 6 -6 18.7 6.3
-4 6 -6 32.9 10
-4 6 -6 38.4 12.1
-4 6 -6 20.2 8.5
-4 6 -6 20.8 9.2
-4 6 -6 27.6 10.5
-4 6 -6 16.3 7.3
-4 6 -6 22.4 9.6
-4 6 -6 17.5 7.4
4 -6 6 15.8 4.3
4 -6 6 14.3 6
-5 6 -6 -0.4 3.9
-5 6 -6 7.6 5.4
-5 6 -6 2.1 4.7
-5 6 -6 10.8 7.4
-5 6 -6 22.1 12.5
-5 6 -6 4 4.3
-5 6 -6 0.9 3.4
5 -6 6 2.4 4.4
5 -6 6 2.2 2.9
5 -6 6 23.2 7.3
-6 6 -6 -0.6 4.4
-6 6 -6 0.1 3.5
-6 6 -6 4.1 4.6
-6 6 -6 5.3 9.9
-6 6 -6 -4.3 5.7
-6 6 -6 4.1 3.9
6 -6 6 2.3 4.7
6 -6 6 -1.9 2.1
6 -6 6 1.5 7.5
-7 6 -6 -1.8 8.2
-7 6 -6 2.9 3.3
-7 6 -6 -1.5 3.2
-7 6 -6 0.1 4.2
7 -6 6 5.2 5.3
7 -6 6 4.4 3.1
7 -6 6 1.5 2.7
7 -6 6 2.9 3
-8 6 -6 3.3 3.4
-8 6 -6 8.5 6.4
-8 6 -6 -1.7 4.5
8 -6 6 -2.8 2.3
8 -6 6 1.8 2.4
8 -6 6 1.9 4.4
8 -6 6 2.4 2.1
-9 6 -6 -1.4 1.3
-6 -5 6 108.99 12.3
-6 -5 6 145.49 12.8
-6 -5 6 127.79 14.5
5 5 -6 55.79 17.8
5 5 -6 48.3 8.6
5 5 -6 60.09 13.2
-5 -5 6 42.4 9.2
4 5 -6 122.59 18.9
-4 -5 6 146.59 16.1
-4 -5 6 150.58 15.4
3 5 -6 1153.58 118.19
3 5 -6 1091.49 97.59
3 5 -6 1126.69 98.69
3 5 -6 945.61 96.19
-3 -5 6 1209.48 90.49
-3 -5 6 973.2 92.79
-3 -5 6 998.1 90.09
-3 -5 6 1139.79 92.09
-3 -5 6 1176.48 90.39
2 5 -6 185.98 26
2 5 -6 211.68 27.1
2 5 -6 198.08 23.3
2 5 -6 185.98 31.5
2 5 -6 179.28 24.6
-2 -5 6 197.48 20.8
-2 -5 6 199.88 19.3
-2 -5 6 220.08 19.3
1 5 -6 1250.57 128.89
1 5 -6 1534.15 132.29
1 5 -6 1318.37 125.59
1 5 -6 1581.34 132.89
1 5 -6 1402.66 132.69
1 5 -6 1615.94 131.59
1 5 -6 1634.64 127.29
-1 -5 6 1653.23 121.59
-1 -5 6 1612.94 128.09
-1 -5 6 1477.25 123.59
0 5 -6 424.86 43.5
0 5 -6 412.06 49.99
0 5 -6 380.26 47.4
0 5 -6 461.65 43.5
0 5 -6 537.65 48.3
0 5 -6 472.15 43.6
0 -5 6 458.75 40.7
0 -5 6 512.65 43.9
0 -5 6 499.65 38.2
-1 5 -6 672.43 79.39
-1 5 -6 896.71 69.19
-1 5 -6 905.91 68.89
-1 5 -6 776.92 70.49
-1 5 -6 715.63 72.59
-1 5 -6 825.12 68.99
-1 5 -6 733.03 71.59
1 -5 6 739.13 67.29
1 -5 6 740.13 63.69
1 -5 6 654.93 65.59
-2 5 -6 1121.79 96.19
-2 5 -6 1031.5 87.99
-2 5 -6 905.11 90.69
-2 5 -6 1024.4 88.99
-2 5 -6 987.3 90.09
2 -5 6 998.4 83.19
2 -5 6 972.6 81.49
-3 5 -6 750.52 72.49
-3 5 -6 873.91 75.19
-3 5 -6 752.62 73.59
-3 5 -6 865.21 74.59
-3 5 -6 862.31 73.69
-3 5 -6 882.31 75.79
-3 5 -6 802.02 73.49
3 -5 6 759.22 71.89
3 -5 6 873.41 71.19
3 -5 6 812.72 68.79
-4 5 -6 1029.6 95.59
-4 5 -6 1172.18 94.79
-4 5 -6 1050.09 95.29
-4 5 -6 977.3 97.69
-4 5 -6 1093.49 93.69
-4 5 -6 979.1 101.59
-4 5 -6 1202.88 95.59
-5 5 -6 172.58 24.5
5 -5 6 118.49 15.3
5 -5 6 145.89 19.8
5 -5 6 160.38 21.3
5 -5 6 151.58 16.3
-6 5 -6 120.69 18.3
-6 5 -6 75.29 20.6
-6 5 -6 124.69 16.4
-6 5 -6 143.39 21.4
6 -5 6 109.19 13.2
6 -5 6 110.19 12.8
6 -5 6 78.29 15.7
6 -5 6 133.29 18.8
6 -5 6 104.99 16.8
6 -5 6 100.09 15.1
-7 5 -6 82.19 13.3
-7 5 -6 80.09 18.6
-7 5 -6 129.59 16.7
-7 5 -6 123.59 19.7
-7 5 -6 85.79 19.4
7 -5 6 89.59 12.9
7 -5 6 116.09 14.8
7 -5 6 131.49 13.8
7 -5 6 121.29 18.3
7 -5 6 118.29 12.8
-8 5 -6 94.29 14.9
8 -5 6 64.99 8.9
8 -5 6 84.49 11.5
8 -5 6 51.59 8.9
8 -5 6 65.89 9.6
-9 5 -6 0.8 1.7
9 -5 6 4.2 2.1
9 -5 6 2.7 2
9 -5 6 3.9 3
7 4 -6 73.59 7.6
-7 -4 6 88.69 10.1
-7 -4 6 78.29 8.1
6 4 -6 390.06 43.7
-6 -4 6 477.15 37.9
-6 -4 6 377.46 37.9
-6 -4 6 487.45 40.4
5 4 -6 252.37 27
-5 -4 6 221.68 21
-5 -4 6 215.38 21.4
-5 -4 6 203.38 22.4
-5 -4 6 186.58 21.2
-5 -4 6 209.28 23.3
4 4 -6 717.43 68.19
4 4 -6 632.14 68.19
-4 -4 6 762.42 62.59
-4 -4 6 679.13 64.79
-4 -4 6 767.42 62.79
-4 -4 6 770.42 64.49
-4 -4 6 842.72 63.89
3 4 -6 293.97 32.4
3 4 -6 299.37 36.4
3 4 -6 229.58 28.1
3 4 -6 263.17 30.4
3 4 -6 218.18 27.8
3 4 -6 237.18 27.8
-3 -4 6 256.37 24.9
-3 -4 6 262.27 23.3
-3 -4 6 247.18 23.5
-3 -4 6 204.78 25.5
-3 -4 6 277.47 24
2 4 -6 1004.8 90.19
2 4 -6 1015.2 90.19
2 4 -6 845.72 87.69
2 4 -6 1011.9 87.39
-2 -4 6 1069.29 82.09
-2 -4 6 1062.39 87.99
-2 -4 6 1028.6 82.29
1 4 -6 136.59 19.8
1 4 -6 186.88 22
1 4 -6 168.38 19
1 4 -6 177.48 19.8
1 4 -6 136.79 22.2
1 4 -6 124.09 17.9
1 4 -6 192.38 19.5
-1 -4 6 158.18 14.5
-1 -4 6 169.98 18.8
-1 -4 6 167.28 15.1
0 -4 6 3445.46 277.27
-1 4 -6 152.18 17.7
-1 4 -6 130.79 18.8
1 -4 6 116.19 15.6
1 -4 6 153.88 14.8
1 -4 6 178.38 15.8
-2 4 -6 1010.2 87.19
2 -4 6 1004.8 84.39
2 -4 6 1079.69 80.99
2 -4 6 938.01 84.59
-3 4 -6 48.1 10.3
-3 4 -6 43 9
-3 4 -6 52.09 9.4
-3 4 -6 45.8 10.4
-3 4 -6 43.5 11.1
-3 4 -6 44.2 18.2
-3 4 -6 60.39 11.6
-3 4 -6 46.4 8.8
-3 4 -6 63.59 10.3
3 -4 6 37.2 8.3
3 -4 6 32.9 6.1
-4 4 -6 86.99 14.8
-4 4 -6 110.89 15.2
-4 4 -6 87.19 24.7
4 -4 6 71.49 9.8
4 -4 6 80.19 9.9
4 -4 6 87.59 12.8
4 -4 6 76.39 12.9
-5 4 -6 133.19 18.9
-5 4 -6 156.08 25.4
-5 4 -6 182.28 21.9
-5 4 -6 185.38 16.3
-5 4 -6 141.79 22.2
-5 4 -6 217.28 31.6
-5 4 -6 230.08 30.2
-5 4 -6 202.78 19.4
5 -4 6 149.29 17.6
5 -4 6 122.99 16.8
5 -4 6 147.39 20.3
5 -4 6 120.09 22.8
5 -4 6 188.88 17.9
-6 4 -6 26.6 7
-6 4 -6 43.9 12.4
-6 4 -6 14.9 9.1
-6 4 -6 17.1 6.2
-6 4 -6 15.6 17.6
-6 4 -6 23.9 7.2
-6 4 -6 13.4 10.4
6 -4 6 32 9.9
6 -4 6 30.2 6.8
6 -4 6 24.7 5.7
6 -4 6 20 9
6 -4 6 32.7 7.7
6 -4 6 24 6.3
-7 4 -6 408.76 42.8
-7 4 -6 412.86 39.6
7 -4 6 341.47 35.8
7 -4 6 441.06 38.3
-8 4 -6 -0.4 4.5
-8 4 -6 -3 4.3
-8 4 -6 4 3.6
-8 4 -6 11.1 5.7
8 -4 6 0.3 3.1
8 -4 6 -1.4 1.9
8 -4 6 0.2 3.3
8 -4 6 -0.2 3.8
7 3 -6 63.19 21.8
-7 -3 6 16.2 3.5
-7 -3 6 29.1 6.4
-7 -3 6 26.1 6.1
6 3 -6 205.38 22.6
-6 -3 6 162.28 17.9
-6 -3 6 185.98 20.2
-6 -3 6 162.88 17.3
-6 -3 6 166.78 17.4
5 3 -6 293.47 30.3
5 3 -6 237.98 29.3
5 3 -6 314.57 33
5 3 -6 340.07 41.8
-5 -3 6 255.67 24.9
-5 -3 6 277.37 25.7
-5 -3 6 227.68 26.4
-5 -3 6 245.78 25.6
-5 -3 6 242.68 24.5
4 3 -6 15.7 7.9
4 3 -6 13.7 8.6
4 3 -6 12.2 5.2
4 3 -6 13.7 9.4
-4 -3 6 13.3 4.5
-4 -3 6 15.8 4.1
-4 -3 6 18.9 4.9
-4 -3 6 16.5 5.5
3 3 -6 173.78 24.4
3 3 -6 202.18 24.8
3 3 -6 256.27 27.4
3 3 -6 195.48 26.3
3 3 -6 234.88 27.8
3 3 -6 216.88 25
3 3 -6 243.98 33.9
-3 -3 6 229.58 20.4
-3 -3 6 223.58 20.7
-3 -3 6 257.07 28.2
2 3 -6 21.5 9.7
2 3 -6 0.3 3.7
2 3 -6 -1 3.5
2 3 -6 3.4 2.8
-2 -3 6 -1 1.5
-2 -3 6 0 1
-2 -3 6 -0.4 2.7
-2 -3 6 5.6 3.2
-2 -3 6 2.3 2
1 3 -6 2821.42 255.57
-1 -3 6 3096.89 250.47
-1 -3 6 3116.49 253.47
-1 -3 6 3522.35 250.27
0 3 -6 388.26 36.2
0 -3 6 320.07 34
0 -3 6 397.76 32.9
0 -3 6 388.66 32.3
-1 3 -6 4330.17 340.27
1 -3 6 4137.79 335.57
1 -3 6 4522.55 334.67
1 -3 6 3905.91 335.87
-2 3 -6 284.97 25.9
2 -3 6 199.38 20.1
2 -3 6 202.38 22.5
2 -3 6 246.08 24.3
2 -3 6 270.97 24.2
-3 3 -6 43.5 11.2
-3 3 -6 47.9 9.5
-3 3 -6 45.1 8.4
-3 3 -6 44.5 10.4
-3 3 -6 42.4 5
-3 3 -6 25.1 6.9
3 -3 6 31.1 7.4
3 -3 6 42.9 7.5
3 -3 6 24.6 6.1
3 -3 6 30.9 5.5
-4 3 -6 89.79 15.2
-4 3 -6 94.59 18.8
-4 3 -6 102.69 11.1
-4 3 -6 112.59 15.8
-4 3 -6 81.59 31.6
4 -3 6 84.79 12.9
4 -3 6 75.69 13.6
4 -3 6 84.09 10.9
4 -3 6 88.79 13.1
-5 3 -6 6.1 5
-5 3 -6 34.6 16
-5 3 -6 9.1 4.8
-5 3 -6 16.6 7.7
-5 3 -6 19.8 6.2
-5 3 -6 25.8 10.5
-5 3 -6 9.3 6.2
-5 3 -6 24.8 7.9
5 -3 6 14.5 4.5
5 -3 6 14.4 4.5
5 -3 6 34.6 11.4
5 -3 6 20.5 8.3
5 -3 6 13.4 4.4
5 -3 6 4.8 5.1
-6 3 -6 633.74 55.09
-6 3 -6 548.05 55.09
-6 3 -6 496.85 51.29
-6 3 -6 481.15 51.19
6 -3 6 591.74 57.29
6 -3 6 553.84 51.79
6 -3 6 667.83 56.69
6 -3 6 542.45 50.39
6 -3 6 568.94 49.9
6 -3 6 598.54 49.1
-7 3 -6 0.5 4.3
-7 3 -6 1.2 4
-7 3 -6 6.3 4.7
-7 3 -6 9.7 7.1
7 -3 6 10.2 4.2
7 -3 6 4.4 5.2
7 -3 6 7.1 3.5
7 -3 6 9.1 4
7 -3 6 3.8 3.2
-8 3 -6 19.8 7
-8 3 -6 13.5 4.3
-8 3 -6 5.3 4.5
-8 3 -6 4.7 3.5
8 -3 6 3.4 4.2
8 -3 6 9.9 3.2
8 -3 6 15.1 4.2
8 -3 6 19 4.7
8 2 -6 50.69 10.8
-8 -2 6 36.9 6.3
7 2 -6 5.7 6.6
7 2 -6 2.3 3.7
7 2 -6 5.1 7.5
-7 -2 6 0.9 1.5
-7 -2 6 0.3 2.1
-7 -2 6 1.8 3.3
-7 -2 6 2.5 3.1
6 2 -6 236.78 25.9
6 2 -6 259.37 30
6 2 -6 234.88 29
-6 -2 6 185.68 21.3
-6 -2 6 212.58 27.2
-6 -2 6 219.48 21
-6 -2 6 213.68 20.9
-6 -2 6 210.98 23.2
5 2 -6 11.1 6.4
5 2 -6 9.9 6.8
5 2 -6 -1.6 4.7
5 2 -6 11.3 7.2
-5 -2 6 3.7 4.3
-5 -2 6 6.6 3.2
-5 -2 6 4.6 3.1
-5 -2 6 4.8 2.8
-5 -2 6 5.7 3.3
-5 -2 6 3.4 4.5
4 2 -6 1217.58 101.99
4 2 -6 1180.78 102.49
4 2 -6 1172.38 103.79
4 2 -6 1165.28 102.79
4 2 -6 1351.86 109.79
-4 -2 6 1209.68 96.79
-4 -2 6 1143.99 97.89
-4 -2 6 966.5 98.39
-4 -2 6 1124.09 96.09
-4 -2 6 1283.97 102.09
-4 -2 6 1212.28 96.19
3 2 -6 13.1 9.2
3 2 -6 9.9 4.8
3 2 -6 7.9 4.4
-3 -2 6 8.8 3.2
-3 -2 6 17.1 6
-3 -2 6 12.8 2.8
-3 -2 6 7.9 3.2
2 2 -6 1571.04 143.69
2 2 -6 1750.22 146.39
-2 -2 6 1758.52 140.89
-2 -2 6 1767.92 142.49
-2 -2 6 1880.61 142.19
-2 -2 6 1856.81 145.49
1 2 -6 3063.29 264.87
1 2 -6 2989.5 260.57
-1 -2 6 3603.24 260.67
-1 -2 6 3424.66 258.87
0 2 -6 207.18 25.3
0 2 -6 213.08 24
0 2 -6 250.37 20.5
0 -2 6 240.18 21.5
0 -2 6 261.87 22.4
0 -2 6 208.58 20.8
-1 2 -6 4280.67 321.37
1 -2 6 3838.02 322.17
1 -2 6 4058.49 321.17
-2 2 -6 1401.06 104.39
-2 2 -6 1422.96 111.29
2 -2 6 1143.89 106.99
2 -2 6 1256.27 104.09
2 -2 6 1226.38 105.89
-3 2 -6 3994.6 315.77
-3 2 -6 3774.32 319.87
-3 2 -6 4125.79 319.17
3 -2 6 3527.35 318.67
3 -2 6 3617.04 318.87
3 -2 6 3707.53 314.97
3 -2 6 4566.54 315.57
3 -2 6 4348.56 318.57
-4 2 -6 65.49 11.9
-4 2 -6 54.99 20.7
-4 2 -6 65.99 10.3
-4 2 -6 70.59 12.6
-4 2 -6 68.89 11.5
-4 2 -6 61.09 9.3
-4 2 -6 49.5 10.1
4 -2 6 62.29 11.8
4 -2 6 62.79 14.9
4 -2 6 85.39 12.9
4 -2 6 70.29 9.1
4 -2 6 75.29 11.6
-5 2 -6 843.32 77.09
-5 2 -6 923.61 89.09
-5 2 -6 905.61 77.59
-5 2 -6 945.91 81.59
5 -2 6 831.32 74.49
-6 2 -6 108.89 16.7
-6 2 -6 101.49 17.8
-6 2 -6 150.98 19
-6 2 -6 110.19 16.4
-6 2 -6 92.69 20
6 -2 6 145.19 15.2
6 -2 6 153.48 20.2
6 -2 6 136.39 20.3
6 -2 6 154.68 17.6
6 -2 6 120.39 16.4
6 -2 6 127.69 14.1
-7 2 -6 68.49 14.2
-7 2 -6 45.5 9.7
-7 2 -6 56.19 10.6
7 -2 6 68.69 8.7
7 -2 6 60.29 12.1
7 -2 6 74.09 9.5
7 -2 6 66.99 8.9
7 -2 6 65.39 10.4
-8 2 -6 14.1 5.3
-8 2 -6 14.6 4.4
8 -2 6 27.7 6.1
8 -2 6 15.4 3.2
8 1 -6 12.6 5.4
8 1 -6 9 5.5
8 1 -6 7.8 5.8
-8 -1 6 3.1 3.1
-8 -1 6 3.7 2.3
7 1 -6 58.49 11.5
7 1 -6 64.19 11.6
-7 -1 6 53.09 7.5
-7 -1 6 52.19 10.5
-7 -1 6 60.79 9.6
-7 -1 6 43.3 7.7
6 1 -6 116.39 16.8
6 1 -6 128.89 19.4
6 1 -6 126.49 18
-6 -1 6 100.59 12.6
-6 -1 6 107.49 12.1
-6 -1 6 106.89 14
-6 -1 6 77.39 19.4
5 1 -6 485.95 47.3
5 1 -6 582.14 50.19
5 1 -6 514.25 50.49
-5 -1 6 481.85 45.8
-5 -1 6 476.25 46.1
-5 -1 6 564.64 44.2
-5 -1 6 493.05 47.1
4 1 -6 2143.49 198.38
4 1 -6 2552.14 200.58
4 1 -6 2189.68 201.28
-4 -1 6 2572.54 194.58
-4 -1 6 2620.44 196.48
-4 -1 6 2596.34 195.18
-4 -1 6 2063.59 198.98
-4 -1 6 2712.63 199.78
3 1 -6 1671.53 131.39
3 1 -6 1501.85 129.79
-3 -1 6 1573.64 125.99
-3 -1 6 1678.63 130.49
-3 -1 6 1615.04 128.09
-3 -1 6 1336.07 130.69
-3 -1 6 1613.14 126.49
2 1 -6 4141.09 357.56
-2 -1 6 4759.42 356.96
-2 -1 6 4523.15 355.26
-2 -1 6 4545.75 355.46
1 1 -6 1928.11 161.58
-1 -1 6 1713.53 161.48
-1 -1 6 2250.17 161.88
-1 -1 6 2150.08 160.08
0 1 -6 4025.1 340.07
0 -1 6 4133.99 337.97
0 -1 6 4187.88 338.77
0 -1 6 5023.4 341.67
0 -1 6 3904.21 338.87
0 -1 6 4462.95 339.77
-1 1 -6 5.8 2.3
-1 1 -6 5.8 3.5
-1 1 -6 10.6 4.7
1 -1 6 5 2
1 -1 6 2.6 3
1 -1 6 7.2 2.8
1 -1 6 12 4
-2 1 -6 3922.71 315.37
-3 1 -6 823.22 66.89
-3 1 -6 783.02 66.79
-3 1 -6 745.73 69.19
-3 1 -6 783.32 69.89
3 -1 6 727.43 68.49
-4 1 -6 1013.8 87.39
-4 1 -6 857.61 93.99
-4 1 -6 1173.28 91.09
-4 1 -6 1038.7 87.39
4 -1 6 986.7 86.99
-5 1 -6 52.89 15.4
-5 1 -6 69.79 12
-5 1 -6 58.29 11
-5 1 -6 48 11.3
5 -1 6 59.29 9
5 -1 6 65.49 11.5
5 -1 6 64.69 12.7
5 -1 6 77.39 10.3
5 -1 6 91.29 14.5
5 -1 6 75.89 9.8
-6 1 -6 320.47 45.2
6 -1 6 366.76 36
6 -1 6 310.97 30.6
6 -1 6 312.37 41.3
6 -1 6 362.46 32.3
-7 1 -6 40.9 8.5
-7 1 -6 33.2 9.8
7 -1 6 36.6 5.5
7 -1 6 21.4 5.7
7 -1 6 41.1 8.2
7 -1 6 30.3 9.3
7 -1 6 29.6 5.2
-8 1 -6 14.4 4.3
8 -1 6 13.2 3.5
9 0 -6 14.6 7
9 0 -6 8.3 4.5
-9 0 6 13.1 3.7
8 0 -6 120.59 18.4
8 0 -6 153.28 17.8
8 0 -6 123.99 24.3
-8 0 6 110.59 13.6
-8 0 6 119.39 14.5
-8 0 6 104.09 11
7 0 -6 93.19 12.4
7 0 -6 100.49 15.4
-7 0 6 78.39 11.7
-7 0 6 64.99 9
-7 0 6 91.29 10.1
-7 0 6 82.19 12.5
6 0 -6 152.88 20.3
6 0 -6 128.89 17.4
-6 0 6 172.78 17.7
-6 0 6 147.59 15.3
-6 0 6 156.28 16.1
-6 0 6 153.38 18.5
-6 0 6 136.89 17.3
-6 0 6 152.88 15.5
5 0 -6 413.46 42
5 0 -6 408.76 40.2
5 0 -6 439.76 39.9
5 0 -6 335.67 37
-5 0 6 393.76 34.8
-5 0 6 380.86 37.9
-5 0 6 414.66 37.5
-5 0 6 366.96 35.3
-5 0 6 426.66 35.1
-5 0 6 435.76 36.7
4 0 -6 543.55 48.9
4 0 -6 446.86 46.9
4 0 -6 458.05 47.4
4 0 -6 552.54 49.4
4 0 -6 523.75 48
-4 0 6 547.85 44
-4 0 6 484.35 44.9
-4 0 6 539.45 44.5
-4 0 6 550.44 46
-4 0 6 542.95 47.8
3 0 -6 975.6 80.89
3 0 -6 948.71 81.09
-3 0 6 907.01 77.29
-3 0 6 938.11 79.59
-3 0 6 973.8 78.89
-3 0 6 927.41 76.89
-3 0 6 960.1 80.69
2 0 -6 1568.54 140.39
2 0 -6 1620.24 139.09
2 0 -6 1558.54 139.29
-2 0 6 1881.01 136.99
-2 0 6 1769.92 138.99
-2 0 6 1827.62 138.39
1 0 -6 1018.8 87.09
1 0 -6 1137.39 90.49
1 0 -6 1036.2 87.79
1 0 -6 1124.59 88.99
-1 0 6 1040.3 85.99
-1 0 6 1119.19 87.69
-1 0 6 1055.29 86.99
-1 0 6 971.5 86.59
-1 0 6 1067.39 88.09
0 0 -6 1733.53 143.09
0 0 -6 2010.2 143.99
0 0 -6 1738.23 144.09
0 0 6 1738.13 143.89
0 0 6 1980.5 145.69
0 0 6 1675.83 141.99
0 0 6 1491.05 142.09
0 0 6 1880.81 144.49
-1 0 -6 45.2 6.8
-1 0 -6 53.99 7.7
1 0 6 44.1 7.8
1 0 6 44.4 6.5
1 0 6 56.59 7.7
1 0 6 43.9 6.5
-2 0 -6 214.08 24.3
-2 0 -6 248.28 25.7
2 0 6 271.37 27.8
2 0 6 293.07 24.5
2 0 6 276.27 26.8
2 0 6 268.67 24.7
2 0 6 240.58 26.6
-3 0 -6 10.2 4.7
-3 0 -6 -1.4 3.7
-3 0 -6 6.2 4.6
-3 0 -6 10.6 5.2
-3 0 -6 12.3 4.3
3 0 6 0.5 3.5
3 0 6 5.5 2.7
3 0 6 5.8 4.4
3 0 6 12.7 4.7
3 0 6 2.5 4.9
3 0 6 2.6 2.3
3 0 6 0.9 3.7
-4 0 -6 83.89 19.2
-4 0 -6 142.39 17.3
-4 0 -6 108.79 16.4
4 0 6 146.39 14.7
4 0 6 106.29 22.9
4 0 6 128.59 18.2
4 0 6 126.09 17.8
4 0 6 140.49 15.3
-5 0 -6 2.3 3.1
5 0 6 6.4 5.3
5 0 6 2.4 5.5
5 0 6 9.1 4.9
5 0 6 4.2 3.2
5 0 6 4.6 3
5 0 6 4.8 2.8
-6 0 -6 59.39 12.3
-6 0 -6 46.7 10
6 0 6 51.69 9.8
6 0 6 49.99 10.3
6 0 6 47 7.1
-7 0 -6 1.2 2.8
-7 0 -6 2 3.2
7 0 6 -1.1 2.3
7 0 6 2.8 1.9
9 -1 -6 11.6 4.3
9 -1 -6 4.3 6.6
9 -1 -6 1.9 3.1
-9 1 6 5.2 3.1
-9 1 6 0.9 2
8 -1 -6 141.59 18.9
8 -1 -6 166.88 16.9
-8 1 6 130.69 17.2
-8 1 6 117.69 15.2
7 -1 -6 -1.5 5
7 -1 -6 -6.5 20.9
-7 1 6 -2.4 2.2
-7 1 6 1.5 4.7
-7 1 6 -1.9 3.8
-7 1 6 1.1 4.7
6 -1 -6 555.84 52.59
6 -1 -6 637.94 59.59
6 -1 -6 570.24 55.99
-6 1 6 599.54 51.49
-6 1 6 521.75 51.89
-6 1 6 539.35 53.19
-6 1 6 594.94 49.6
-6 1 6 565.84 52.39
-6 1 6 671.43 50.89
5 -1 -6 8.5 6.2
5 -1 -6 5.1 4.6
5 -1 -6 2.7 3.5
5 -1 -6 5.7 8.7
-5 1 6 1.3 2.6
-5 1 6 10.4 3
-5 1 6 2.3 1.8
-5 1 6 3 4.2
-5 1 6 4 2.3
-5 1 6 -4.4 5.2
-5 1 6 -1.4 2.1
4 -1 -6 966.1 88.29
4 -1 -6 1049.7 90.89
4 -1 -6 1049.89 89.69
4 -1 -6 1054.19 90.89
4 -1 -6 1077.99 89.09
-4 1 6 1045.6 89.09
-4 1 6 1052.49 88.29
-4 1 6 1075.89 88.09
-4 1 6 1100.89 85.69
-4 1 6 1021.6 86.09
3 -1 -6 136.39 14.3
3 -1 -6 150.08 15.8
3 -1 -6 136.59 16.2
3 -1 -6 114.19 15.7
-3 1 6 119.39 13.1
-3 1 6 127.19 14.4
-3 1 6 144.09 15.8
2 -1 -6 4.5 2.6
2 -1 -6 5.4 3.6
2 -1 -6 7.9 3.6
2 -1 -6 7.6 3.2
2 -1 -6 2 2.3
-2 1 6 12 2.9
-2 1 6 3.9 3.1
-2 1 6 3.9 2.6
-2 1 6 8.7 2.5
1 -1 -6 277.47 28.2
1 -1 -6 330.17 29.9
1 -1 -6 309.57 27
-1 1 6 307.97 26.1
-1 1 6 288.07 28.2
-1 1 6 279.87 27.4
-1 1 6 288.87 26.3
0 -1 -6 280.97 24.6
0 -1 -6 238.18 24.7
0 -1 -6 278.57 26.5
0 1 6 257.67 24.2
0 1 6 268.47 25.9
0 1 6 262.07 24.5
0 1 6 278.87 26.9
0 1 6 280.47 26.2
-1 -1 -6 193.28 20.7
-1 -1 -6 217.98 19
-1 -1 -6 174.38 19.1
1 1 6 174.88 18.9
1 1 6 175.18 18.5
1 1 6 194.28 20.6
1 1 6 204.08 29.9
1 1 6 196.68 20.7
-2 -1 -6 1514.35 119.69
-2 -1 -6 1411.86 118.99
-2 -1 -6 1247.58 116.99
-2 -1 -6 1315.87 119.49
2 1 6 1449.55 117.59
2 1 6 1389.16 121.19
2 1 6 1354.86 119.69
2 1 6 1360.06 119.29
2 1 6 1527.25 117.49
2 1 6 1616.34 116.99
-3 -1 -6 124.79 15.6
-3 -1 -6 111.99 15.9
-3 -1 -6 130.69 17.3
-3 -1 -6 127.39 17.1
-3 -1 -6 115.19 16
3 1 6 119.49 13.6
3 1 6 111.89 13.6
3 1 6 91.29 19
3 1 6 125.79 14.6
3 1 6 117.89 18.1
3 1 6 116.49 15.7
3 1 6 121.89 17.3
-4 -1 -6 938.81 83.29
-4 -1 -6 816.82 80.39
-4 -1 -6 908.21 86.39
4 1 6 974.5 82.09
4 1 6 955.3 84.69
4 1 6 928.11 79.59
4 1 6 934.31 77.99
4 1 6 903.71 78.29
4 1 6 1090.79 87.09
-5 -1 -6 33.3 8.6
-5 -1 -6 19.5 18.5
5 1 6 34.7 7.2
5 1 6 21.2 9.4
5 1 6 22.3 8.7
5 1 6 55.89 14.4
5 1 6 40.3 9.7
-6 -1 -6 232.98 26.1
-6 -1 -6 229.08 25.6
6 1 6 203.88 23.9
6 1 6 237.08 21.3
6 1 6 262.27 24.5
-7 -1 -6 33.7 6.4
7 1 6 40.6 6.1
9 -2 -6 1.1 3.5
9 -2 -6 -1.9 1.9
-9 2 6 3.1 2.3
-9 2 6 0 3.2
8 -2 -6 81.79 14.4
8 -2 -6 104.29 12.4
-8 2 6 86.19 12.1
-8 2 6 81.89 11.5
7 -2 -6 6.5 5.9
-7 2 6 -2 5.2
-7 2 6 8.8 7.4
-7 2 6 0.9 4.1
6 -2 -6 62.59 11.1
6 -2 -6 49.99 10.9
6 -2 -6 66.29 13.1
6 -2 -6 83.09 18.7
-6 2 6 41.5 8
-6 2 6 63.39 8.4
-6 2 6 73.09 10.3
-6 2 6 47.5 9.3
-6 2 6 73.29 10.1
5 -2 -6 72.19 11.1
5 -2 -6 49.2 10.2
5 -2 -6 54.29 10.3
5 -2 -6 68.59 13.6
5 -2 -6 78.19 11.5
5 -2 -6 73.89 13.5
-5 2 6 59.09 9.9
-5 2 6 65.59 10.3
-5 2 6 54.59 8.3
-5 2 6 57.39 7.7
-5 2 6 65.99 8.3
-5 2 6 62.19 9.2
-5 2 6 53.79 15.8
4 -2 -6 120.29 13
4 -2 -6 117.49 14.9
4 -2 -6 126.89 13.8
4 -2 -6 111.59 15.9
4 -2 -6 123.19 16.4
4 -2 -6 116.79 15.3
4 -2 -6 132.39 14.8
-4 2 6 127.79 15.2
-4 2 6 118.39 12.2
-4 2 6 110.89 12.5
-4 2 6 125.19 16.8
-4 2 6 95.19 13.9
-4 2 6 105.39 13.7
3 -2 -6 289.87 30.5
3 -2 -6 308.77 31.8
3 -2 -6 300.57 31.6
3 -2 -6 380.86 30.9
3 -2 -6 363.26 29.8
3 -2 -6 342.37 31.6
-3 2 6 303.27 29.1
-3 2 6 312.37 30.1
-3 2 6 279.57 27.5
-3 2 6 310.37 27.8
-3 2 6 318.87 30.9
-3 2 6 294.77 28.2
2 -2 -6 674.83 59.19
2 -2 -6 727.43 60.29
2 -2 -6 668.63 57.89
2 -2 -6 662.13 57.29
2 -2 -6 656.73 59.79
-2 2 6 627.94 56.69
-2 2 6 719.63 59.59
-2 2 6 741.53 56.59
-2 2 6 612.14 58.09
1 -2 -6 3344.77 266.67
1 -2 -6 3142.49 265.07
1 -2 -6 3112.69 265.37
1 -2 -6 3184.38 267.97
-1 2 6 3458.15 267.37
-1 2 6 3482.05 264.97
-1 2 6 3403.06 265.47
-1 2 6 3448.75 268.27
0 -2 -6 35.2 6.5
0 -2 -6 40.5 9
0 -2 -6 35.7 7.9
0 -2 -6 49.4 7.8
0 -2 -6 40.9 7.4
0 -2 -6 34.8 6.3
0 2 6 52.99 8.5
0 2 6 46.9 7.4
0 2 6 58.99 9.1
0 2 6 47.2 7.1
0 2 6 43.6 7.8
0 2 6 45.2 8.3
0 2 6 45.2 7.3
-1 -2 -6 855.21 72.99
-1 -2 -6 805.02 72.19
-1 -2 -6 833.92 70.39
-1 -2 -6 920.91 69.49
1 2 6 873.31 72.99
1 2 6 904.11 71.99
1 2 6 824.92 72.99
1 2 6 705.53 68.69
1 2 6 811.32 69.69
1 2 6 765.42 70.19
1 2 6 724.13 72.99
1 2 6 839.12 72.39
-2 -2 -6 190.98 22.6
-2 -2 -6 180.28 22.7
-2 -2 -6 172.58 20.5
-2 -2 -6 185.98 21.5
2 2 6 167.48 22.2
2 2 6 220.48 23.6
2 2 6 197.08 21
2 2 6 169.28 21.1
2 2 6 207.08 25.5
2 2 6 210.28 26.9
2 2 6 173.18 23
2 2 6 204.68 20.4
2 2 6 189.18 19.7
-3 -2 -6 220.98 26.4
-3 -2 -6 235.78 26
-3 -2 -6 256.57 28.3
-3 -2 -6 253.17 29.1
3 2 6 190.38 26.4
3 2 6 253.77 23.9
3 2 6 285.47 27.7
3 2 6 274.77 26
3 2 6 241.58 30.3
3 2 6 225.98 26.9
-4 -2 -6 249.48 27.2
-4 -2 -6 273.67 33.1
-4 -2 -6 277.77 29.9
-4 -2 -6 263.47 29.6
4 2 6 279.27 24.6
4 2 6 247.08 30.6
4 2 6 263.27 27.6
4 2 6 266.57 31.5
4 2 6 256.97 24.4
4 2 6 217.48 27.3
-5 -2 -6 19.3 7.1
-5 -2 -6 17.5 7.4
-5 -2 -6 12.2 6.3
5 2 6 19.5 4.2
5 2 6 22.7 6.8
5 2 6 15.8 5.7
5 2 6 17.6 6
-6 -2 -6 76.99 10.7
-6 -2 -6 73.69 11.5
6 2 6 85.89 10.2
6 2 6 69.99 10.8
9 -3 -6 -4.4 3.1
9 -3 -6 2.6 2.8
-9 3 6 2.6 2.5
8 -3 -6 475.95 41.1
8 -3 -6 494.55 45.5
-8 3 6 406.56 39.7
-8 3 6 439.96 40.8
7 -3 -6 27.6 8
7 -3 -6 10.5 6.7
7 -3 -6 20.9 8.1
-7 3 6 22.7 6.8
-7 3 6 22.8 8.1
6 -3 -6 1258.27 112.39
6 -3 -6 1315.87 103.29
6 -3 -6 1339.17 109.59
6 -3 -6 1344.87 109.19
-6 3 6 1270.77 104.19
-6 3 6 1323.97 107.49
-6 3 6 1110.59 108.59
-6 3 6 1307.67 106.49
5 -3 -6 947.21 74.29
5 -3 -6 839.12 75.29
5 -3 -6 898.51 80.39
5 -3 -6 973 78.39
5 -3 -6 908.51 70.99
-5 3 6 750.12 75.39
-5 3 6 831.72 75.99
-5 3 6 877.91 75.89
-5 3 6 742.33 71.59
4 -3 -6 555.94 52.29
4 -3 -6 649.04 51.59
4 -3 -6 556.24 54.59
4 -3 -6 620.04 56.79
4 -3 -6 620.14 49.3
4 -3 -6 630.74 53.59
-4 3 6 517.25 50.79
-4 3 6 578.54 49.1
-4 3 6 592.14 53.09
-4 3 6 546.65 52.39
-4 3 6 560.34 49.8
-4 3 6 536.25 50.39
3 -3 -6 209.98 21.5
3 -3 -6 213.28 20.3
3 -3 -6 226.58 24.8
3 -3 -6 228.08 24.2
3 -3 -6 178.58 19.9
3 -3 -6 239.68 25.2
3 -3 -6 231.88 24
3 -3 -6 221.78 23
3 -3 -6 224.28 21.7
3 -3 -6 220.68 22.3
-3 3 6 213.78 20
-3 3 6 222.18 23.5
-3 3 6 196.68 22.8
-3 3 6 191.78 20.4
-3 3 6 185.78 19.6
-3 3 6 206.18 21.3
2 -3 -6 352.86 33
2 -3 -6 346.07 31.8
2 -3 -6 345.87 33.3
2 -3 -6 376.26 36.6
2 -3 -6 322.27 31.8
2 -3 -6 331.67 34.3
2 -3 -6 398.16 38.9
2 -3 -6 360.16 35
-2 3 6 393.56 36.1
-2 3 6 367.16 34.3
-2 3 6 363.86 32.1
-2 3 6 367.16 33.1
-2 3 6 385.76 33.7
1 -3 -6 556.14 49.7
1 -3 -6 501.05 48.2
1 -3 -6 561.54 52.59
1 -3 -6 552.04 49.9
1 -3 -6 562.84 50.99
1 -3 -6 498.65 50.59
1 -3 -6 596.74 53.49
1 -3 -6 501.05 48
1 -3 -6 540.55 50.89
-1 3 6 598.34 51.79
-1 3 6 653.23 53.69
-1 3 6 625.44 54.29
-1 3 6 624.64 49.8
-1 3 6 603.54 50.69
-1 3 6 618.94 50.79
-1 3 6 546.05 49
0 -3 -6 24.8 7.2
0 -3 -6 24.4 5.5
0 -3 -6 37.5 9.9
0 -3 -6 11.7 5.7
0 -3 -6 20.7 5.6
0 -3 -6 24.5 5.9
0 -3 -6 11.1 5.8
0 -3 -6 13.5 4.8
0 3 6 33.1 7.8
0 3 6 21.5 6.2
0 3 6 23.1 6.2
0 3 6 24.5 7.6
0 3 6 34.3 8.4
0 3 6 13.6 7.8
-1 -3 -6 699.63 59.89
-1 -3 -6 663.33 61.79
-1 -3 -6 712.03 56.89
-1 -3 -6 705.63 58.49
-1 -3 -6 663.83 60.19
-1 -3 -6 706.93 63.89
1 3 6 664.33 66.89
1 3 6 662.93 58.69
1 3 6 724.63 62.39
1 3 6 703.23 61.09
1 3 6 607.84 62.69
1 3 6 565.04 59.59
1 3 6 704.33 65.49
1 3 6 644.54 58.89
-2 -3 -6 135.09 18.6
-2 -3 -6 132.29 17.1
-2 -3 -6 137.29 21.5
2 3 6 137.29 15.7
2 3 6 124.79 18.4
2 3 6 98.39 18.4
2 3 6 126.59 17.6
2 3 6 169.28 16.8
2 3 6 119.89 17
2 3 6 137.69 21.1
-3 -3 -6 2.8 14
-3 -3 -6 2.1 5.6
-3 -3 -6 8.8 6
-3 -3 -6 -2.4 4
3 3 6 -8.3 5.7
3 3 6 -5.5 3.6
3 3 6 8.9 6.2
3 3 6 -1.1 2.8
3 3 6 5.1 4.5
-4 -3 -6 0.3 4.1
-4 -3 -6 -6.2 3.6
-4 -3 -6 0.3 4.6
4 3 6 2.4 4.5
4 3 6 2.9 3.8
4 3 6 7.1 4.3
4 3 6 4.2 3.6
-5 -3 -6 17.8 7.9
-5 -3 -6 25.4 6.4
-5 -3 -6 27.5 8.3
5 3 6 32.4 6.7
5 3 6 22.3 6.4
9 -4 -6 168.88 18
-9 4 6 175.08 17.1
8 -4 -6 307.57 34.4
8 -4 -6 334.67 30.6
-8 4 6 315.57 31
-8 4 6 314.07 30
7 -4 -6 250.07 29.2
7 -4 -6 242.98 26.7
7 -4 -6 270.37 26.9
-7 4 6 250.77 24.4
-7 4 6 235.78 25
6 -4 -6 1788.32 135.49
6 -4 -6 1740.83 135.19
6 -4 -6 1555.74 133.09
6 -4 -6 1735.53 129.59
6 -4 -6 1549.54 137.89
-6 4 6 1551.64 132.79
-6 4 6 1540.15 131.69
-6 4 6 1416.46 135.29
5 -4 -6 285.37 27.4
5 -4 -6 313.77 33.9
5 -4 -6 259.77 27.4
5 -4 -6 306.37 31.4
5 -4 -6 330.77 31.5
5 -4 -6 301.37 31.1
5 -4 -6 307.77 29.7
-5 4 6 306.87 33.3
-5 4 6 271.37 29.1
-5 4 6 282.07 28.6
-5 4 6 339.67 28.3
4 -4 -6 6158.78 522.65
4 -4 -6 6691.33 516.15
4 -4 -6 6211.68 524.15
4 -4 -6 5781.62 521.35
4 -4 -6 6614.34 518.55
-4 4 6 7045.8 520.45
-4 4 6 6843.92 513.55
3 -4 -6 603.64 52.59
3 -4 -6 606.24 55.89
3 -4 -6 588.24 53.89
3 -4 -6 538.25 50.19
3 -4 -6 568.14 66.49
3 -4 -6 549.05 52.99
3 -4 -6 507.55 50.39
3 -4 -6 675.33 55.99
-3 4 6 679.83 57.69
-3 4 6 605.74 52.59
-3 4 6 606.04 51.29
-3 4 6 598.04 52.99
2 -4 -6 7187.08 531.25
2 -4 -6 6143.19 528.95
2 -4 -6 6484.65 528.85
2 -4 -6 7101.99 534.85
2 -4 -6 6772.72 532.55
2 -4 -6 6448.45 533.95
2 -4 -6 6666.23 531.45
2 -4 -6 7279.17 537.35
-2 4 6 6297.67 536.25
-2 4 6 7325.87 530.25
-2 4 6 6859.21 531.45
-2 4 6 6507.35 531.85
-2 4 6 5706.83 529.65
-2 4 6 6705.13 537.05
1 -4 -6 142.49 15.2
1 -4 -6 141.29 19
1 -4 -6 148.49 16.4
1 -4 -6 118.29 19.4
1 -4 -6 138.39 18.2
1 -4 -6 139.09 14.9
1 -4 -6 134.79 16
1 -4 -6 140.59 22.2
1 -4 -6 113.29 15.7
1 -4 -6 153.68 16.4
-1 4 6 131.39 16.3
-1 4 6 160.48 18.2
-1 4 6 127.99 20.5
-1 4 6 179.08 19.4
-1 4 6 88.59 21.6
0 -4 -6 891.51 83.19
0 -4 -6 879.01 79.29
0 -4 -6 930.41 80.39
0 -4 -6 973.9 86.19
0 -4 -6 933.41 79.39
0 -4 -6 927.21 81.49
0 4 6 818.72 82.69
0 4 6 1031.1 83.79
0 4 6 1045.9 82.49
-1 -4 -6 156.38 20.5
-1 -4 -6 124.39 26
-1 -4 -6 127.59 15.7
-1 -4 -6 142.09 17.9
-1 -4 -6 148.29 17.6
-1 -4 -6 149.09 18.8
1 4 6 157.88 22.6
1 4 6 145.59 19.1
1 4 6 186.88 18.1
1 4 6 167.38 20.7
-2 -4 -6 258.27 28.3
-2 -4 -6 260.67 28.3
-2 -4 -6 275.67 30.4
2 4 6 242.88 28.9
2 4 6 283.87 29.1
2 4 6 262.37 33.3
-3 -4 -6 8.8 5.3
-3 -4 -6 2.9 5.2
3 4 6 11.1 7.5
3 4 6 5.3 4.5
3 4 6 -0.4 3.2
-4 -4 -6 183.68 19
-4 -4 -6 143.49 20.7
4 4 6 172.98 19.8
4 4 6 214.98 19.1
-5 -4 -6 2.8 2.5
5 4 6 3.3 2.4
9 -5 -6 54.49 6.9
9 -5 -6 56.29 9.9
-9 5 6 57.29 9.1
8 -5 -6 5.6 4.7
8 -5 -6 13.9 5.1
-8 5 6 8.6 5.1
-8 5 6 3 4.9
-8 5 6 16.9 6.8
-8 5 6 6.6 3.7
7 -5 -6 169.88 22.6
7 -5 -6 203.18 21.4
7 -5 -6 178.08 21.6
-7 5 6 184.38 18.9
-7 5 6 191.68 20.1
6 -5 -6 49.3 10.4
6 -5 -6 54.39 8.2
6 -5 -6 48.9 11.8
6 -5 -6 55.19 13.1
6 -5 -6 55.39 10.5
-6 5 6 30 10.2
-6 5 6 60.09 8.6
-6 5 6 48 9.1
-6 5 6 49.7 9.1
5 -5 -6 63.99 9
5 -5 -6 82.09 11.5
5 -5 -6 42.3 10.6
5 -5 -6 76.29 11.6
5 -5 -6 53.59 12.8
5 -5 -6 66.09 12.5
-5 5 6 87.99 14.8
-5 5 6 56.69 9.8
-5 5 6 64.89 10.2
-5 5 6 52.19 12.2
4 -5 -6 83.79 13.9
4 -5 -6 93.39 13.1
4 -5 -6 82.39 10.8
4 -5 -6 77.29 15.2
4 -5 -6 86.19 12.6
4 -5 -6 77.99 11
4 -5 -6 105.49 13.5
-4 5 6 104.99 16.9
-4 5 6 108.59 13.5
3 -5 -6 398.06 38.2
3 -5 -6 362.56 36.2
3 -5 -6 391.16 37.6
3 -5 -6 402.26 39.8
3 -5 -6 354.36 34.4
3 -5 -6 397.56 39.5
-3 5 6 392.06 37.1
-3 5 6 415.46 54.49
-3 5 6 397.56 37.6
2 -5 -6 205.08 30.3
2 -5 -6 272.57 27.6
2 -5 -6 313.77 31.1
2 -5 -6 275.67 28.8
2 -5 -6 282.77 27.9
2 -5 -6 225.48 26.6
2 -5 -6 254.57 25.6
-2 5 6 328.67 29.3
-2 5 6 298.17 29.3
1 -5 -6 40.1 8.8
1 -5 -6 37.3 6.8
1 -5 -6 35.4 9.7
1 -5 -6 50.99 9
1 -5 -6 28.8 6.5
1 -5 -6 40.4 7.8
1 -5 -6 53.49 10.1
-1 5 6 47.4 11
-1 5 6 32.7 8.7
0 -5 -6 268.67 28.5
0 -5 -6 255.67 28.1
0 -5 -6 269.47 30.1
0 -5 -6 259.17 24.9
0 -5 -6 272.67 27.6
0 5 6 287.17 30
0 5 6 265.97 29.5
-1 -5 -6 72.89 10.1
-1 -5 -6 80.59 13.8
-1 -5 -6 75.89 13.2
-1 -5 -6 89.29 13.2
1 5 6 81.69 12.9
1 5 6 70.39 12.6
-2 -5 -6 141.59 18.7
-2 -5 -6 149.39 17.8
2 5 6 139.19 17.5
2 5 6 139.99 17.7
-3 -5 -6 1.4 3.1
-3 -5 -6 0.4 3.8
3 5 6 1.7 2.4
3 5 6 2 2.8
-4 -5 -6 14.8 3.8
4 5 6 15.5 3.6
4 5 6 8.5 3.2
8 -6 -6 38.1 6.9
-8 6 6 29.5 8.2
-8 6 6 40.9 6.6
7 -6 -6 258.07 24.7
7 -6 -6 199.08 24.9
-7 6 6 249.68 23.8
6 -6 -6 150.38 18.1
6 -6 -6 143.29 19.9
6 -6 -6 148.49 14.3
6 -6 -6 177.28 18.8
-6 6 6 138.89 16.5
-6 6 6 128.99 15.7
-6 6 6 118.09 16.1
5 -6 -6 634.64 55.29
5 -6 -6 696.53 55.79
5 -6 -6 553.54 56.19
5 -6 -6 531.25 52.49
5 -6 -6 595.54 50.89
-5 6 6 684.53 53.59
-5 6 6 592.84 53.89
-5 6 6 558.64 57.29
4 -6 -6 83.79 12.7
4 -6 -6 67.49 13.5
4 -6 -6 80.29 14.1
4 -6 -6 72.69 12.5
4 -6 -6 53.69 8.8
4 -6 -6 63.59 12.7
-4 6 6 88.99 13.1
3 -6 -6 307.97 32.7
3 -6 -6 261.77 27.8
3 -6 -6 222.18 24.8
3 -6 -6 314.17 29.9
2 -6 -6 5.3 3.8
2 -6 -6 1.4 6.1
2 -6 -6 5.6 6.6
2 -6 -6 14.1 7.2
-2 6 6 -16.5 11.5
1 -6 -6 93.79 14.2
1 -6 -6 93.59 11.2
1 -6 -6 91.89 16
1 -6 -6 117.09 16.5
-1 6 6 82.89 14.9
-1 6 6 115.39 15.3
0 -6 -6 122.09 11.9
0 -6 -6 96.49 15
0 -6 -6 105.19 16.3
0 6 6 114.79 16.4
0 6 6 104.69 15.4
-1 -6 -6 9.7 4
-1 -6 -6 13.9 10
1 6 6 15.8 5.7
1 6 6 9.9 5.4
-2 -6 -6 11 4.2
-2 -6 -6 11.5 4.2
2 6 6 9.8 3.9
2 6 6 10.7 4.5
8 -7 -6 185.18 16.2
-8 7 6 144.19 17.9
7 -7 -6 478.65 42.4
-7 7 6 485.85 42
6 -7 -6 209.78 20.3
6 -7 -6 170.88 15.3
6 -7 -6 138.69 20.2
-6 7 6 141.39 27.1
-6 7 6 190.98 19.1
5 -7 -6 1129.49 94.99
5 -7 -6 1007.4 91.19
-5 7 6 1243.48 92.99
-5 7 6 1014.5 99.59
4 -7 -6 3 5.3
4 -7 -6 8.8 6.4
4 -7 -6 5.4 10
4 -7 -6 -1.7 5.7
4 -7 -6 2.3 3
-4 7 6 0.5 6.3
-4 7 6 -0.4 4
3 -7 -6 1750.72 142.49
3 -7 -6 1808.82 146.79
-3 7 6 1767.92 146.89
2 -7 -6 355.56 35.5
2 -7 -6 371.96 31.7
-2 7 6 368.56 36.2
1 -7 -6 1100.59 93.09
1 -7 -6 1144.79 88.09
-1 7 6 1051.79 93.49
0 -7 -6 387.96 36
0 -7 -6 437.16 40.6
0 7 6 355.16 35.8
-1 -7 -6 347.17 28.6
1 7 6 270.37 27.6
-6 8 6 115.79 12.7
-5 8 6 86.39 12.2
-5 8 6 96.59 13
4 -8 -6 332.17 28.9
-4 8 6 268.37 34
-4 8 6 301.77 28.6
3 -8 -6 244.68 24.1
-3 8 6 272.47 33.5
-3 8 6 229.58 24
2 -8 -6 94.89 11.8
-2 8 6 95.69 12
1 -8 -6 252.97 22.5
-1 8 6 209.58 22
0 10 -7 64.09 16.1
-1 10 -7 28.5 7.6
-1 10 -7 31.9 13
-1 10 -7 19.2 7.3
-2 10 -7 124.89 22
-2 10 -7 114.59 18.4
-3 10 -7 108.49 17.8
-3 10 -7 82.59 11.2
-3 10 -7 86.49 11
-4 10 -7 26.7 6.1
-4 10 -7 20.3 6.3
-4 10 -7 40.7 9.3
-5 10 -7 71.09 12.8
-6 10 -7 78.69 12.6
-6 10 -7 61.99 11.8
2 9 -7 4.4 2.7
2 9 -7 12.4 6.7
-2 -9 7 6.3 3.4
1 9 -7 4.7 9.8
1 9 -7 3.9 3.5
-1 -9 7 4.3 3
-1 -9 7 13.6 4.6
0 9 -7 6.6 6.2
0 9 -7 25.1 14.5
0 9 -7 6.4 4.9
0 -9 7 3.6 5.2
0 -9 7 -0.7 3.4
-1 9 -7 41.6 13.3
-1 9 -7 21.9 7.5
-1 9 -7 11.2 6.9
-1 9 -7 10.5 11.5
-2 9 -7 59.49 12.1
-2 9 -7 60.49 10.9
-2 9 -7 72.09 14.9
2 -9 7 57.49 9.4
-3 9 -7 1.3 3.8
-3 9 -7 5.7 4.9
-3 9 -7 1.2 4.5
-3 9 -7 2.3 3.3
-3 9 -7 8 4.7
-3 9 -7 2.3 6.7
-4 9 -7 10.6 5.3
-4 9 -7 4.6 3.6
-4 9 -7 7.5 5.9
-4 9 -7 11.8 5.3
-4 9 -7 16.7 9
-5 9 -7 -1.4 3.6
-5 9 -7 -3.7 3.8
-5 9 -7 -0.1 5.2
-5 9 -7 0.3 3.6
-6 9 -7 -0.2 4.6
-6 9 -7 0.4 3.3
-6 9 -7 2.6 4.1
-6 9 -7 2.5 4.1
6 -9 7 0.6 3.5
-7 9 -7 0.2 2.9
-7 9 -7 0.7 3.6
-7 9 -7 1.8 3
3 8 -7 21.4 5.1
-3 -8 7 20.7 6
2 8 -7 117.79 17
-2 -8 7 101.29 13.4
-2 -8 7 118.89 13.2
-2 -8 7 145.79 14.3
1 8 -7 158.18 32.6
1 8 -7 114.79 20
-1 -8 7 100.09 13.2
0 8 -7 22.4 15.2
0 8 -7 23.6 9.1
0 8 -7 39.9 11.4
0 -8 7 17.9 5.8
0 -8 7 19.5 5.7
-1 8 -7 128.09 24.8
-1 8 -7 88.59 25.4
-1 8 -7 103.09 15.1
-1 8 -7 141.39 30.2
-2 8 -7 4 5.7
-2 8 -7 11.3 5.3
-2 8 -7 10.4 5.8
-2 8 -7 15.3 10.9
-2 8 -7 13.2 8.7
-2 8 -7 10.1 9.6
-2 8 -7 18.4 10.1
-2 8 -7 7.7 8.3
-2 8 -7 11.2 6.3
2 -8 7 15.4 6.9
-3 8 -7 86.09 16.4
-3 8 -7 71.19 15
-3 8 -7 68.89 21.5
-3 8 -7 53.79 22.6
-3 8 -7 93.59 18.1
-3 8 -7 86.29 17.8
-4 8 -7 24.5 10.9
-4 8 -7 23.4 7.3
-4 8 -7 25.9 8.1
-4 8 -7 43.6 11.9
-4 8 -7 39.3 11
-4 8 -7 21.1 9.5
-4 8 -7 30.1 12.7
-5 8 -7 49.9 12.6
-5 8 -7 74.49 14.9
-5 8 -7 61.79 15.5
-5 8 -7 58.89 11.5
5 -8 7 43.5 9.8
-6 8 -7 26.2 8.4
-6 8 -7 33.1 11
-6 8 -7 44.5 11.2
-6 8 -7 37.2 11.8
6 -8 7 19.5 5.4
6 -8 7 32.5 6.2
-7 8 -7 -0.6 3.6
-7 8 -7 0 3.4
-7 8 -7 5.1 4.7
7 -8 7 5.9 3.1
7 -8 7 3.6 2.3
-8 8 -7 3.1 3.2
-8 8 -7 -0.8 1.7
8 -8 7 10.6 3
-4 -7 7 25.1 4.6
-4 -7 7 34.3 5.3
3 7 -7 7.9 9.3
3 7 -7 6.3 4.6
3 7 -7 4.1 10.9
-3 -7 7 7 2.8
-3 -7 7 6.5 2.7
2 7 -7 113.19 18.1
2 7 -7 90.49 27.3
-2 -7 7 111.99 14.3
-2 -7 7 107.49 13.5
-2 -7 7 99.09 12.3
1 7 -7 16.5 6.8
1 7 -7 -9.8 8.3
1 7 -7 4.8 5.7
1 7 -7 2.2 9.2
1 7 -7 8.2 8.1
-1 -7 7 11.4 3.1
-1 -7 7 3.4 3
-1 -7 7 19.1 11.8
0 7 -7 211.48 23.7
0 7 -7 243.28 32.2
0 7 -7 254.57 36.2
0 7 -7 173.68 32.7
0 7 -7 149.88 23.5
0 7 -7 231.88 32
0 -7 7 199.58 22.5
0 -7 7 211.38 20.5
-1 7 -7 12.1 8.1
-1 7 -7 2.1 5.8
-1 7 -7 3.8 4.7
-1 7 -7 0.1 4.7
-1 7 -7 6.2 6.9
-1 7 -7 2.4 4.8
-1 7 -7 0.1 4.6
-1 7 -7 -1.4 7
-1 7 -7 -0.5 3.1
-1 7 -7 3.7 3.6
-1 7 -7 6.4 4.7
-1 7 -7 -0.9 5.4
1 -7 7 6.3 3.3
1 -7 7 2.8 4.3
-2 7 -7 265.67 32.2
-2 7 -7 220.88 29.7
-2 7 -7 258.37 29.3
-2 7 -7 254.07 26.9
-2 7 -7 237.18 30.6
-2 7 -7 243.68 27.5
-2 7 -7 234.58 37.6
-2 7 -7 218.18 31.4
-2 7 -7 206.48 26.7
-2 7 -7 191.18 25.7
-3 7 -7 21 7.8
-3 7 -7 11.9 6.7
-3 7 -7 14.2 6
-3 7 -7 16.7 6.2
-3 7 -7 21.6 8.3
-3 7 -7 16 7.1
-3 7 -7 5.5 6.1
-3 7 -7 15.1 11
-3 7 -7 25.2 8.5
-3 7 -7 20.7 7.5
3 -7 7 12.5 7.8
-4 7 -7 173.68 30.4
-4 7 -7 230.38 27.1
-4 7 -7 224.58 27.5
-4 7 -7 173.08 30.4
-4 7 -7 273.17 29.6
-4 7 -7 260.87 29.5
-4 7 -7 210.68 28.4
-4 7 -7 211.68 26.6
-4 7 -7 241.68 31
4 -7 7 269.47 24
4 -7 7 204.38 28.3
-5 7 -7 2.4 5.3
-5 7 -7 -4.7 9.2
-5 7 -7 8.2 5.9
-5 7 -7 7 6.6
-5 7 -7 7.3 7.7
-5 7 -7 6.8 9.5
5 -7 7 5.4 4
5 -7 7 8.9 3
5 -7 7 3.7 9.2
-6 7 -7 124.69 18.3
-6 7 -7 117.69 17.2
-6 7 -7 81.79 15.9
-6 7 -7 121.69 17.7
6 -7 7 77.69 15.9
6 -7 7 96.59 12.2
6 -7 7 105.79 12.3
-7 7 -7 1.9 9.7
-7 7 -7 5.8 4.8
-7 7 -7 2.3 3
-7 7 -7 8.8 4.6
7 -7 7 3 2.9
7 -7 7 6.1 2.8
7 -7 7 2.5 2.4
-8 7 -7 26.8 7.7
-8 7 -7 39.8 6.7
8 -7 7 35.2 5.3
-5 -6 7 114.99 13.5
-5 -6 7 106.29 11.4
4 6 -7 49.8 16.1
4 6 -7 16.1 5.9
4 6 -7 33.7 11.3
-4 -6 7 18.4 7.2
-4 -6 7 27.7 5.2
-4 -6 7 24.1 5.2
3 6 -7 149.59 22.4
3 6 -7 118.69 17.7
-3 -6 7 118.39 12.4
-3 -6 7 107.59 12.9
-3 -6 7 93.39 12.6
-3 -6 7 71.59 14.5
2 6 -7 122.39 21.1
2 6 -7 172.58 28.1
2 6 -7 112.69 16.7
2 6 -7 130.49 20.3
-2 -6 7 122.69 14.1
-2 -6 7 146.29 16.6
-2 -6 7 126.79 13.8
1 6 -7 354.06 52.69
1 6 -7 428.26 49.2
1 6 -7 451.95 47.9
1 6 -7 415.36 42.6
1 6 -7 365.86 51.29
1 6 -7 507.95 48.2
1 6 -7 410.76 48.4
-1 -6 7 460.15 38.5
-1 -6 7 491.85 47.2
-1 -6 7 469.15 38.3
0 6 -7 1.9 5.3
0 6 -7 3.7 5.5
0 6 -7 -1.1 3.8
0 6 -7 2 3.8
0 6 -7 2.2 3.9
0 6 -7 2.1 7.1
0 6 -7 0.1 4.6
0 6 -7 2.3 4.5
0 6 -7 6.6 9.1
0 6 -7 4.6 6.3
0 6 -7 3.9 3.9
0 -6 7 2.7 3.7
0 -6 7 0.4 2
-1 6 -7 626.54 64.59
-1 6 -7 683.93 63.39
-1 6 -7 767.12 69.49
-1 6 -7 764.92 64.99
-1 6 -7 770.52 63.79
-1 6 -7 777.52 64.79
-1 6 -7 778.62 70.69
-1 6 -7 540.15 72.89
-1 6 -7 622.44 70.89
-2 6 -7 -1.3 4.3
-2 6 -7 0.4 4
-2 6 -7 5 4.1
-2 6 -7 -0.8 4.6
-2 6 -7 2.8 4.9
-2 6 -7 -5.8 5.1
-2 6 -7 -3.3 3.3
-2 6 -7 -3.3 3.3
-2 6 -7 0.6 4.6
-2 6 -7 0.8 4.5
-2 6 -7 0.8 3.6
-2 6 -7 6.4 4.1
2 -6 7 2.4 5.7
-3 6 -7 496.25 48.9
-3 6 -7 509.25 50.39
-3 6 -7 496.15 53.59
-3 6 -7 575.84 53.89
-3 6 -7 429.56 49.8
-3 6 -7 597.04 52.09
-3 6 -7 472.25 53.09
3 -6 7 587.84 50.49
-4 6 -7 62.69 13.3
-4 6 -7 66.19 12.4
-4 6 -7 38 15.7
-4 6 -7 52.89 13.9
-4 6 -7 71.59 14.1
-4 6 -7 55.19 12.5
-4 6 -7 51.09 16.4
-4 6 -7 57.89 11.1
-4 6 -7 45.4 13
-4 6 -7 50.39 10.8
4 -6 7 43.2 7.5
4 -6 7 51.09 11.7
-5 6 -7 113.99 21.3
-5 6 -7 154.28 22.1
-5 6 -7 159.98 20.4
5 -6 7 127.69 15.6
5 -6 7 126.19 20.4
5 -6 7 107.69 17.9
5 -6 7 124.29 14.3
-6 6 -7 3.1 5.2
-6 6 -7 3.5 5.3
-6 6 -7 5.8 3.8
-6 6 -7 22.3 15
-6 6 -7 -2.9 8.1
6 -6 7 3.6 2.6
6 -6 7 3.3 4.9
6 -6 7 -2.8 3.9
6 -6 7 8.6 3.1
-7 6 -7 -2.7 6.4
-7 6 -7 -1.8 3
-7 6 -7 -0.7 3.1
-7 6 -7 6.4 5.9
7 -6 7 6.7 3
7 -6 7 -3 5.8
7 -6 7 -0.9 2.1
-8 6 -7 6.7 4.3
-8 6 -7 1.7 3
-8 6 -7 17.4 8.7
8 -6 7 9.1 2.4
8 -6 7 5.3 2.4
8 -6 7 4.9 3.2
-6 -5 7 52.99 6.8
-6 -5 7 76.89 10.9
-6 -5 7 63.59 7.5
5 5 -7 40.7 11.6
5 5 -7 57.49 16.4
5 5 -7 27.9 6.2
-5 -5 7 37.3 5.9
-5 -5 7 43.4 6.9
-5 -5 7 36.1 6.8
-5 -5 7 41.9 12.5
4 5 -7 838.42 64.79
4 5 -7 654.73 66.29
-4 -5 7 754.62 63.59
-4 -5 7 717.53 65.89
-4 -5 7 773.72 64.39
-4 -5 7 772.72 63.59
-4 -5 7 747.83 65.49
3 5 -7 7.9 7.7
3 5 -7 34.4 14.5
3 5 -7 22.3 8.4
3 5 -7 27.2 8.8
3 5 -7 35.2 11.1
3 5 -7 22 7.2
3 5 -7 24.2 17
-3 -5 7 16.1 5.3
-3 -5 7 8.7 8
-3 -5 7 17.2 4.6
-3 -5 7 9.1 4.6
-3 -5 7 15.9 4
2 5 -7 2831.42 243.28
2 5 -7 2920.21 248.08
2 5 -7 2794.62 254.27
2 5 -7 2762.12 239.18
-2 -5 7 2921.41 236.08
-2 -5 7 3160.28 233.68
-2 -5 7 3048.9 233.98
1 5 -7 3.5 7.2
1 5 -7 5.7 5.6
1 5 -7 21.9 10.8
1 5 -7 7 6.9
1 5 -7 20.4 8.6
1 5 -7 9.9 5.7
1 5 -7 1.2 4.4
1 5 -7 11.1 9.2
1 5 -7 17.7 8.3
-1 -5 7 13.1 3.1
-1 -5 7 11.7 9.1
-1 -5 7 19.1 4.8
0 5 -7 1140.89 92.09
0 5 -7 1200.58 96.49
0 5 -7 926.81 90.99
0 5 -7 927.01 94.29
0 5 -7 1155.78 91.69
0 5 -7 965.6 90.39
0 5 -7 948.01 101.49
0 -5 7 1173.58 84.69
-1 5 -7 28.3 8.4
-1 5 -7 13.1 7
-1 5 -7 16.8 7.4
-1 5 -7 7.2 8.5
-1 5 -7 15.9 7.7
-1 5 -7 35.1 11
-1 5 -7 10.6 7.1
-1 5 -7 17.4 6.7
-1 5 -7 24.1 7
-1 5 -7 16.8 6.4
-1 5 -7 14.7 6.5
-1 5 -7 21.5 6.9
1 -5 7 37.9 11
1 -5 7 15.3 4.3
1 -5 7 16.1 4.1
1 -5 7 26.3 7.4
-2 5 -7 1040.6 83.49
-2 5 -7 944.21 82.69
-2 5 -7 915.11 89.29
-2 5 -7 841.82 82.89
-2 5 -7 972.1 82.29
-2 5 -7 1102.19 82.79
-2 5 -7 1043.2 99.19
-2 5 -7 808.42 81.69
-2 5 -7 818.52 83.39
-2 5 -7 1012.3 84.29
2 -5 7 872.71 78.59
-3 5 -7 1533.05 135.79
-3 5 -7 1768.72 133.49
-3 5 -7 1552.64 135.29
-3 5 -7 1770.82 135.39
-3 5 -7 1682.73 134.99
-3 5 -7 1513.35 135.59
-3 5 -7 1501.65 134.59
3 -5 7 1607.04 127.99
3 -5 7 1456.65 132.79
3 -5 7 1549.14 135.49
-4 5 -7 117.89 28.5
-4 5 -7 196.78 25.9
-4 5 -7 188.88 23.9
-4 5 -7 193.28 30.4
-4 5 -7 202.48 24.8
-4 5 -7 180.88 22.5
-4 5 -7 204.08 31.7
-4 5 -7 214.08 25.5
4 -5 7 148.19 21.3
-5 5 -7 1078.49 84.79
-5 5 -7 1000.1 86.29
5 -5 7 785.42 77.59
5 -5 7 961.4 78.09
5 -5 7 839.52 82.29
-6 5 -7 14.7 9.8
-6 5 -7 49.3 13.6
-6 5 -7 40.2 12.3
-6 5 -7 31 10.4
-6 5 -7 27 13.9
-6 5 -7 10 9.8
6 -5 7 50.59 8
6 -5 7 34.8 6.5
6 -5 7 24.9 6.3
-7 5 -7 131.49 21.2
-7 5 -7 158.98 22.2
-7 5 -7 119.59 23
-7 5 -7 166.68 19.9
7 -5 7 135.79 16.2
7 -5 7 197.48 25.5
7 -5 7 177.88 17.8
-8 5 -7 7.2 5.8
-8 5 -7 1.9 4
8 -5 7 7.3 2.6
8 -5 7 3.6 3
8 -5 7 9.6 4.1
-7 -4 7 85.19 9.2
-7 -4 7 63.49 7.8
6 4 -7 25.9 6.8
6 4 -7 31.5 11.3
6 4 -7 32.6 6.9
-6 -4 7 42.1 13.3
-6 -4 7 20.5 5
-6 -4 7 17.2 4.2
-6 -4 7 27.7 5.4
5 4 -7 775.82 63.79
-5 -4 7 603.54 54.99
-5 -4 7 596.14 55.59
-5 -4 7 661.03 55.39
-5 -4 7 632.64 57.69
4 4 -7 76.09 16.6
4 4 -7 70.49 14
4 4 -7 66.89 22.5
-4 -4 7 44.1 9.3
-4 -4 7 51.69 7.4
-4 -4 7 54.59 8.1
-4 -4 7 48.6 8.4
-4 -4 7 41 8.2
3 4 -7 912.21 81.39
3 4 -7 709.83 76.39
3 4 -7 851.61 77.99
3 4 -7 892.21 80.19
-3 -4 7 911.51 74.19
-3 -4 7 830.92 71.89
-3 -4 7 924.41 72.59
-3 -4 7 903.71 71.89
2 4 -7 378.16 54.79
2 4 -7 534.55 47.8
2 4 -7 506.35 49.8
2 4 -7 519.75 52.89
2 4 -7 471.95 48.5
2 4 -7 563.74 50.99
2 4 -7 401.26 48.5
-2 -4 7 481.25 46
-2 -4 7 554.44 48.6
-2 -4 7 498.35 44.8
1 4 -7 3455.85 319.77
1 4 -7 4376.76 311.57
1 4 -7 4094.39 314.17
1 4 -7 3450.35 309.67
1 4 -7 3850.61 311.47
1 4 -7 3390.76 314.27
-1 -4 7 4345.27 305.07
-1 -4 7 3484.65 305.97
-1 -4 7 4171.58 306.27
0 4 -7 2359.96 217.18
0 4 -7 2597.54 217.48
0 4 -7 2981 223.58
0 4 -7 2705.13 217.88
0 -4 7 2418.86 217.08
0 -4 7 2957.8 214.58
0 -4 7 2694.13 213.78
-1 4 -7 4298.97 357.06
-1 4 -7 4762.12 358.36
-1 4 -7 4898.91 357.96
-1 4 -7 4036 358.76
-1 4 -7 4436.26 363.76
-1 4 -7 4119.39 357.96
-1 4 -7 4083.29 357.06
1 -4 7 4949.5 355.56
-2 4 -7 2142.19 165.98
-2 4 -7 1741.43 166.18
-2 4 -7 2019 184.78
-2 4 -7 2257.67 167.98
-2 4 -7 1964.7 166.38
-2 4 -7 2117.29 181.78
-2 4 -7 1731.43 168.68
2 -4 7 2151.08 164.18
2 -4 7 2035 163.38
2 -4 7 1901.91 164.38
-3 4 -7 434.36 42.3
-3 4 -7 461.75 41.9
-3 4 -7 376.96 45.2
-3 4 -7 410.76 41.6
-3 4 -7 375.06 40.6
-3 4 -7 503.05 42.5
-3 4 -7 405.56 51.39
-3 4 -7 471.35 43
3 -4 7 434.06 40.6
3 -4 7 353.76 38.9
-4 4 -7 384.56 57.49
-4 4 -7 510.15 47.6
-4 4 -7 438.86 45.3
-4 4 -7 544.55 47.2
-4 4 -7 566.24 48.8
-4 4 -7 393.16 46
4 -4 7 496.15 41.2
4 -4 7 418.36 40.9
4 -4 7 437.16 44.6
-5 4 -7 104.09 16.4
-5 4 -7 101.29 15.6
-5 4 -7 84.39 13.6
-5 4 -7 86.69 23.9
-5 4 -7 56.19 13.9
-5 4 -7 69.89 15.5
-5 4 -7 68.69 19.9
-5 4 -7 53.09 12.2
5 -4 7 86.49 14.2
5 -4 7 75.49 10.7
5 -4 7 102.19 15.9
5 -4 7 64.89 13.7
-6 4 -7 845.02 76.69
-6 4 -7 730.73 76.59
6 -4 7 899.01 72.99
6 -4 7 876.71 79.89
6 -4 7 889.51 71.79
6 -4 7 801.12 80.29
-7 4 -7 12.8 7.8
-7 4 -7 21 6.5
-7 4 -7 27 9.3
-7 4 -7 23.5 8.3
7 -4 7 35.3 6.5
7 -4 7 24.1 6.4
7 -4 7 35.6 12.2
7 -4 7 32.2 6.1
7 -4 7 26 6
-8 4 -7 79.79 12.4
8 -4 7 85.89 8.8
8 -4 7 70.09 9.5
8 -4 7 88.69 10.7
8 -4 7 61.49 9
7 3 -7 74.29 11.4
7 3 -7 72.49 13.9
-7 -3 7 50.89 8.8
-7 -3 7 57.29 7.2
6 3 -7 14.7 6.9
6 3 -7 19.2 6.3
6 3 -7 21.6 10.9
-6 -3 7 20.6 6
-6 -3 7 9.3 3.8
-6 -3 7 10.5 3.5
-6 -3 7 6.3 3.4
5 3 -7 37.2 10
5 3 -7 27.6 14.5
5 3 -7 54.09 12.4
5 3 -7 21.5 7.6
-5 -3 7 41.3 7.1
-5 -3 7 47.8 8.6
-5 -3 7 44.4 8.4
-5 -3 7 34.3 6.2
-5 -3 7 39 7.3
4 3 -7 128.49 18.8
4 3 -7 75.59 24.7
4 3 -7 108.29 16.7
4 3 -7 117.89 21.5
4 3 -7 113.79 16.8
4 3 -7 154.08 19.8
4 3 -7 96.59 16.6
-4 -3 7 116.49 12.6
-4 -3 7 96.89 15.1
-4 -3 7 114.49 13
-4 -3 7 104.99 12.1
3 3 -7 51.89 10.4
3 3 -7 44.2 11.7
3 3 -7 30.8 15.6
3 3 -7 41 9.8
3 3 -7 32.6 15.7
3 3 -7 34 10.1
3 3 -7 31.1 9.8
3 3 -7 50.89 11
-3 -3 7 36.1 6.5
-3 -3 7 44.6 5.9
-3 -3 7 46.4 6.4
2 3 -7 137.69 17.9
2 3 -7 118.49 15.3
2 3 -7 98.59 15.8
2 3 -7 123.19 19.6
2 3 -7 104.69 21.1
-2 -3 7 108.99 15.4
-2 -3 7 117.89 12.5
-2 -3 7 127.09 11.6
-2 -3 7 116.29 12.6
-2 -3 7 102.99 11.3
1 3 -7 7.8 8.8
1 3 -7 1.8 3.2
1 3 -7 1.2 7.1
1 3 -7 -0.2 3.2
1 3 -7 3.2 3.5
-1 -3 7 4.3 3.1
-1 -3 7 1.2 2.1
-1 -3 7 1.9 2
0 3 -7 703.43 71.89
0 -3 7 867.81 66.69
0 -3 7 908.01 69.39
-1 3 -7 170.98 18.5
1 -3 7 140.89 11.4
1 -3 7 116.69 13.3
1 -3 7 150.68 12.8
1 -3 7 116.59 14.3
-2 3 -7 43.7 10.5
-2 3 -7 57.79 16.2
-2 3 -7 50.99 10.1
-2 3 -7 47.6 9.9
-2 3 -7 64.19 10
-2 3 -7 62.29 10.4
-2 3 -7 67.39 10.8
-2 3 -7 66.99 11.1
-2 3 -7 60.39 9.9
-2 3 -7 66.59 12.3
2 -3 7 69.69 9.8
2 -3 7 59.59 7
2 -3 7 40.8 7.9
2 -3 7 46.5 8.8
-3 3 -7 6.8 5.3
-3 3 -7 9 4.8
-3 3 -7 5.7 5.5
-3 3 -7 1.3 3.9
-3 3 -7 2.6 6
-3 3 -7 1.7 3.4
-3 3 -7 11.1 5.1
-3 3 -7 3.5 10.5
3 -3 7 2.4 4.4
3 -3 7 12 3.8
3 -3 7 5.1 3.7
3 -3 7 0.7 2
3 -3 7 6.2 4.6
-4 3 -7 37.1 6.3
-4 3 -7 42.8 9
-4 3 -7 36.2 9.9
-4 3 -7 47.7 9.7
-4 3 -7 23.7 8.8
-4 3 -7 28 18.2
-4 3 -7 35.3 8
-4 3 -7 49.2 10
-4 3 -7 47.7 9.4
4 -3 7 51.49 7.8
4 -3 7 54.49 10.9
4 -3 7 58.79 7.8
4 -3 7 38.5 10.6
-5 3 -7 36.5 9.8
-5 3 -7 51.69 10.7
-5 3 -7 37.3 9.2
-5 3 -7 26.4 11.2
-5 3 -7 55.19 11.7
5 -3 7 51.89 10.2
5 -3 7 53.29 11.5
5 -3 7 62.79 12.6
5 -3 7 67.29 8.6
5 -3 7 45.2 8.4
5 -3 7 71.09 9.3
-6 3 -7 6.3 5.7
-6 3 -7 4.2 6.6
-6 3 -7 -0.8 7.1
-6 3 -7 -7.3 8.8
-6 3 -7 -1.4 6.8
6 -3 7 15.3 8.7
6 -3 7 8.5 4
6 -3 7 7.8 4.6
6 -3 7 15 7.6
6 -3 7 3 8.7
-7 3 -7 13.8 6.6
-7 3 -7 20.7 6.2
-7 3 -7 21.3 8.7
-7 3 -7 9.2 7.2
7 -3 7 29.5 5.4
7 -3 7 16.5 8.6
7 -3 7 22.6 6.2
7 -3 7 33.3 5.6
-8 3 -7 32 7.1
8 -3 7 30 4.5
8 -3 7 29.3 5.7
8 2 -7 9.9 6.2
-8 -2 7 8.1 2.7
7 2 -7 80.49 15.4
-7 -2 7 50.09 6.8
-7 -2 7 63.09 7.6
-7 -2 7 47.6 8.1
-7 -2 7 73.09 10.4
6 2 -7 286.17 30
6 2 -7 296.37 31.6
6 2 -7 320.77 34.2
6 2 -7 302.27 36.8
-6 -2 7 248.38 24.8
-6 -2 7 228.18 24.4
-6 -2 7 256.17 26.9
5 2 -7 271.87 35.8
5 2 -7 229.48 28
5 2 -7 217.78 26.3
5 2 -7 251.37 29.3
5 2 -7 260.37 30.4
-5 -2 7 254.07 23.2
-5 -2 7 230.18 23.4
-5 -2 7 211.48 23.8
-5 -2 7 231.38 22.3
-5 -2 7 228.08 22.4
4 2 -7 244.68 31
4 2 -7 177.08 23.4
4 2 -7 212.68 25.2
4 2 -7 194.88 26.1
4 2 -7 242.98 26.2
4 2 -7 240.98 26.5
4 2 -7 219.88 32.8
-4 -2 7 239.28 20.5
-4 -2 7 216.78 21.9
-4 -2 7 208.98 20.6
-4 -2 7 209.88 21.8
-4 -2 7 197.18 20.2
3 2 -7 572.74 64.49
3 2 -7 730.73 56.79
3 2 -7 575.94 54.49
3 2 -7 516.85 53.59
3 2 -7 587.44 62.99
3 2 -7 664.03 56.99
3 2 -7 502.05 64.69
-3 -2 7 612.14 50.29
-3 -2 7 653.33 51.79
-3 -2 7 641.24 50.49
-3 -2 7 520.25 51.09
2 2 -7 936.91 82.29
2 2 -7 1031.2 83.79
2 2 -7 964.6 85.49
-2 -2 7 991.4 83.99
-2 -2 7 1015.9 80.79
-2 -2 7 949.31 80.89
-2 -2 7 931.71 78.89
-2 -2 7 963 78.69
1 2 -7 55.59 10.1
1 2 -7 52.99 7.2
-1 -2 7 42.6 7.1
-1 -2 7 47.2 5.6
-1 -2 7 48.2 6.7
0 2 -7 1363.26 109.09
0 -2 7 1376.16 110.69
0 -2 7 1403.26 111.59
0 -2 7 1321.67 108.79
0 -2 7 1293.87 108.19
-1 2 -7 148.99 19.3
-1 2 -7 165.78 15.8
1 -2 7 197.18 19.1
1 -2 7 168.48 16.2
-2 2 -7 860.41 77.19
-2 2 -7 895.81 74.59
-2 2 -7 903.11 75.99
-2 2 -7 684.73 76.59
-2 2 -7 864.51 70.79
2 -2 7 916.61 75.29
-3 2 -7 -1.7 4.3
-3 2 -7 -1.8 8.9
-3 2 -7 2.5 3.9
-3 2 -7 -0.9 3
-3 2 -7 3.6 2.5
-3 2 -7 5.6 4.2
-3 2 -7 12.7 5.7
-3 2 -7 -5.2 8.8
3 -2 7 8.3 4.8
3 -2 7 4.7 7.2
3 -2 7 4.9 4.9
3 -2 7 6.6 3.5
3 -2 7 12.9 4
-4 2 -7 739.43 68.59
-4 2 -7 901.71 70.19
-4 2 -7 864.81 72.49
-4 2 -7 747.83 67.19
-4 2 -7 667.43 70.89
-4 2 -7 734.83 66.99
4 -2 7 675.73 67.19
4 -2 7 872.31 66.89
-5 2 -7 291.17 30.6
-5 2 -7 280.87 38.4
-5 2 -7 273.57 30.8
-5 2 -7 292.17 30.5
-5 2 -7 327.87 37.1
5 -2 7 308.57 30.6
5 -2 7 304.57 29.4
-6 2 -7 115.19 16.7
-6 2 -7 107.39 19
-6 2 -7 112.69 21.1
6 -2 7 127.99 14.2
6 -2 7 123.39 16.2
6 -2 7 136.69 15.5
6 -2 7 150.48 15
6 -2 7 144.79 20
-7 2 -7 33.6 9.5
-7 2 -7 61.59 11.9
-7 2 -7 41.5 8.2
7 -2 7 57.99 7.4
7 -2 7 58.79 9.1
7 -2 7 40.2 7.2
7 -2 7 53.79 7.2
-8 2 -7 43.5 7.8
8 -2 7 42.6 5.6
8 1 -7 20.3 6.7
8 1 -7 7.8 4.8
8 1 -7 14.5 4.7
-8 -1 7 8.5 3.1
-8 -1 7 4.5 2.7
7 1 -7 11.3 5
7 1 -7 8.2 7.6
7 1 -7 13.8 6
-7 -1 7 7.7 3
-7 -1 7 13.8 4.6
-7 -1 7 9.2 3
-7 -1 7 2.6 3.7
6 1 -7 42.8 12.6
6 1 -7 33 10
6 1 -7 42.6 10.6
6 1 -7 56.69 15.5
-6 -1 7 36.1 8
-6 -1 7 33.3 6.4
-6 -1 7 21.4 6.9
-6 -1 7 37.5 5.8
-6 -1 7 28.7 6.3
-6 -1 7 33.3 6.4
5 1 -7 80.99 13.8
5 1 -7 72.89 13.4
5 1 -7 85.39 15.2
5 1 -7 80.39 13
-5 -1 7 84.69 10
-5 -1 7 80.79 9.7
-5 -1 7 80.39 11.1
-5 -1 7 93.39 11.3
-5 -1 7 84.59 10.4
4 1 -7 72.29 15.8
4 1 -7 129.19 23.5
4 1 -7 95.39 14
4 1 -7 91.39 13.7
4 1 -7 77.69 12.7
4 1 -7 81.59 13.2
-4 -1 7 86.59 10.2
-4 -1 7 68.09 10.6
-4 -1 7 76.69 9.6
-4 -1 7 97.69 15.5
-4 -1 7 94.29 9.8
-4 -1 7 76.79 11
-4 -1 7 95.79 11.3
3 1 -7 290.17 30.2
3 1 -7 267.77 34.6
3 1 -7 290.97 29.7
3 1 -7 294.77 34.4
3 1 -7 280.57 30.3
-3 -1 7 296.17 26.4
-3 -1 7 297.97 25.9
-3 -1 7 302.57 27.9
-3 -1 7 308.67 30.6
-3 -1 7 305.07 28.3
2 1 -7 64.99 9.3
2 1 -7 63.99 10.6
-2 -1 7 66.39 7.4
-2 -1 7 55.39 8
-2 -1 7 60.59 8.7
1 1 -7 134.79 14.9
1 1 -7 126.29 17.4
-1 -1 7 139.99 13.3
-1 -1 7 163.08 16.4
-1 -1 7 144.79 13.5
0 1 -7 2.4 2.9
0 1 -7 7.5 3.2
0 -1 7 1.2 2.6
0 -1 7 9.2 3.2
0 -1 7 4 2.5
0 -1 7 5 1.9
0 -1 7 3.4 1.7
0 -1 7 2.1 1.8
-1 1 -7 319.97 26.6
-1 1 -7 279.97 27.7
-1 1 -7 236.78 30.7
1 -1 7 290.57 25.2
1 -1 7 251.17 26.6
1 -1 7 277.07 25.7
1 -1 7 278.97 25.2
-2 1 -7 271.87 28.7
-2 1 -7 261.47 30.6
-2 1 -7 269.87 28
-2 1 -7 285.97 31.3
2 -1 7 295.17 31
2 -1 7 345.67 29.9
2 -1 7 360.96 28.4
-3 1 -7 325.77 31
-3 1 -7 292.97 30.2
-3 1 -7 276.57 31.9
-3 1 -7 308.67 30.1
-3 1 -7 323.97 33.4
-3 1 -7 311.17 30.5
3 -1 7 304.27 28.1
3 -1 7 284.37 32.5
3 -1 7 361.46 29.7
3 -1 7 263.37 29.7
-4 1 -7 248.28 32.8
-4 1 -7 294.47 33.7
-4 1 -7 312.37 45.7
-4 1 -7 251.27 30.6
4 -1 7 317.47 28.9
4 -1 7 327.37 33.5
4 -1 7 335.67 32.9
4 -1 7 326.97 29.8
4 -1 7 354.76 34.9
-5 1 -7 45 14
-5 1 -7 44.3 14
-5 1 -7 38.8 10.8
-5 1 -7 45.3 9.8
5 -1 7 46.8 8.4
5 -1 7 56.29 13
5 -1 7 36.3 7.2
5 -1 7 45.3 9.3
5 -1 7 57.09 11.7
5 -1 7 50.29 7.5
-6 1 -7 145.09 19.5
-6 1 -7 169.68 23.7
6 -1 7 165.68 19.3
6 -1 7 169.98 16.6
6 -1 7 161.18 17.5
6 -1 7 189.48 22.8
6 -1 7 145.89 17
-7 1 -7 -1.9 3.1
-7 1 -7 1.1 3
-7 1 -7 -1.6 2.6
7 -1 7 1.1 2.2
7 -1 7 5.9 3.3
7 -1 7 3.2 2.1
8 0 -7 494.75 44.9
8 0 -7 578.54 47.8
-8 0 7 422.66 39.7
-8 0 7 484.85 46.1
7 0 -7 2.2 4.4
7 0 -7 -6.9 6.8
7 0 -7 4.9 4.1
-7 0 7 3.6 5.4
-7 0 7 1.5 3
-7 0 7 1.3 2.2
-7 0 7 3.2 2.4
-7 0 7 3.2 3.4
6 0 -7 1567.14 134.49
6 0 -7 1543.85 126.29
6 0 -7 1496.15 131.19
-6 0 7 1439.46 124.69
-6 0 7 1605.84 124.99
-6 0 7 1429.16 127.79
-6 0 7 1681.73 127.29
-6 0 7 1622.04 126.19
-6 0 7 1464.65 128.39
5 0 -7 144.19 19.6
5 0 -7 151.98 19.9
5 0 -7 144.99 20.9
5 0 -7 132.89 17.9
5 0 -7 129.19 17.8
5 0 -7 163.48 21.4
-5 0 7 159.78 15.6
-5 0 7 160.98 16.3
-5 0 7 170.58 17.1
-5 0 7 145.59 17.3
-5 0 7 153.88 15.4
4 0 -7 2082.19 172.08
4 0 -7 1896.71 170.18
4 0 -7 2032.3 175.48
4 0 -7 2035.6 171.38
4 0 -7 2087.09 172.48
4 0 -7 1999.7 171.08
-4 0 7 2184.28 169.58
-4 0 7 2173.48 172.88
-4 0 7 2179.58 166.48
-4 0 7 2182.78 169.38
-4 0 7 1894.61 167.28
-4 0 7 2128.39 167.18
3 0 -7 814.32 71.79
3 0 -7 841.82 73.49
3 0 -7 849.91 72.29
3 0 -7 825.42 73.09
-3 0 7 821.02 68.59
-3 0 7 728.33 68.39
-3 0 7 876.31 71.09
-3 0 7 880.31 70.79
-3 0 7 822.42 72.29
2 0 -7 2296.77 176.58
2 0 -7 2135.69 177.48
2 0 -7 2067.29 174.38
2 0 -7 1987.3 175.18
-2 0 7 2006.1 175.08
-2 0 7 2250.67 174.88
-2 0 7 2204.78 172.38
-2 0 7 2306.07 172.98
1 0 -7 1819.32 135.39
1 0 -7 1564.14 135.29
1 0 -7 1574.44 138.09
-1 0 7 1625.84 133.29
-1 0 7 1724.03 136.49
-1 0 7 1599.14 132.99
-1 0 7 1698.23 135.49
0 0 -7 1495.75 122.89
0 0 7 1650.03 125.09
0 0 7 1390.96 120.49
0 0 7 1565.24 123.59
0 0 7 1403.56 120.89
0 0 7 1474.75 121.79
-1 0 -7 1087.59 90.09
-1 0 -7 1068.69 91.89
1 0 7 1091.19 89.49
1 0 7 1218.58 92.49
1 0 7 1057.89 88.49
1 0 7 895.61 89.89
1 0 7 1092.29 88.09
-2 0 -7 817.32 77.59
-2 0 -7 868.41 77.09
-2 0 -7 836.62 76.79
2 0 7 953.8 75.79
2 0 7 890.01 78.99
2 0 7 858.91 77.39
2 0 7 973.5 75.29
2 0 7 987.2 80.09
2 0 7 889.41 79.09
-3 0 -7 559.74 54.69
-3 0 -7 576.54 56.29
-3 0 -7 660.53 56.19
-3 0 -7 567.44 55.09
-3 0 -7 565.24 54.79
3 0 7 678.13 58.59
3 0 7 638.54 52.49
3 0 7 568.24 51.69
3 0 7 519.45 54.19
3 0 7 648.64 56.89
3 0 7 672.43 53.79
-4 0 -7 370.56 38.6
-4 0 -7 319.37 35.5
4 0 7 363.16 38.6
4 0 7 389.16 33.2
4 0 7 333.07 35.2
4 0 7 337.77 37.7
4 0 7 340.27 32.3
4 0 7 410.06 34.6
-5 0 -7 182.88 26.2
5 0 7 167.98 28.3
5 0 7 195.68 18.8
5 0 7 157.68 24.6
5 0 7 192.58 19.7
-6 0 -7 31.3 7.7
-6 0 -7 40.6 10.3
6 0 7 32.3 6.7
6 0 7 49.8 12.6
6 0 7 31.8 5.1
-7 0 -7 54.59 8.3
-7 0 -7 66.59 9.7
7 0 7 67.09 8.8
9 -1 -7 84.89 11.4
-9 1 7 109.39 11.2
8 -1 -7 10.2 5.8
8 -1 -7 14.1 8.7
-8 1 7 4.7 3.7
-8 1 7 11.4 5.2
7 -1 -7 270.97 30
7 -1 -7 238.88 25.3
-7 1 7 228.58 25.8
-7 1 7 282.57 26.2
-7 1 7 268.87 23.7
6 -1 -7 23.6 7.7
6 -1 -7 47.6 11.8
6 -1 -7 69.39 14.7
-6 1 7 35 6.6
-6 1 7 42.1 9
-6 1 7 48.4 7.5
-6 1 7 35 7.9
-6 1 7 45.6 8.6
-6 1 7 41.2 6.4
5 -1 -7 503.95 54.09
5 -1 -7 543.55 55.19
5 -1 -7 604.14 56.59
5 -1 -7 624.44 58.39
5 -1 -7 620.54 58.49
5 -1 -7 622.94 57.09
-5 1 7 585.14 50.49
-5 1 7 585.64 53.89
-5 1 7 609.24 52.99
-5 1 7 634.64 50.79
-5 1 7 586.34 51.39
-5 1 7 651.63 53.69
4 -1 -7 926.51 76.49
4 -1 -7 942.61 76.99
4 -1 -7 884.51 78.29
4 -1 -7 872.21 78.69
4 -1 -7 825.32 76.59
4 -1 -7 948.31 78.79
-4 1 7 868.01 75.79
-4 1 7 907.91 76.59
-4 1 7 871.31 73.89
-4 1 7 877.31 76.29
-4 1 7 859.41 84.49
-4 1 7 873.81 73.29
3 -1 -7 285.97 29.3
3 -1 -7 273.97 29.2
3 -1 -7 298.87 27.5
3 -1 -7 333.47 28.9
3 -1 -7 290.57 29.8
-3 1 7 264.87 25.9
-3 1 7 261.87 28.5
-3 1 7 280.17 28
2 -1 -7 4482.45 385.66
2 -1 -7 5586.24 384.56
2 -1 -7 5649.63 388.56
2 -1 -7 4214.68 385.26
-2 1 7 4607.24 382.86
-2 1 7 4692.13 384.86
-2 1 7 4771.52 386.56
-2 1 7 4616.74 382.26
1 -1 -7 123.09 15.8
1 -1 -7 102.79 14.2
-1 1 7 143.89 13.2
-1 1 7 102.49 11.8
-1 1 7 108.99 13.9
-1 1 7 107.09 14.4
0 -1 -7 3142.09 274.87
0 -1 -7 3529.05 275.77
0 1 7 3506.25 276.97
0 1 7 3668.23 276.07
0 1 7 3513.75 272.77
0 1 7 3146.69 274.27
0 1 7 3415.86 273.27
-1 -1 -7 36.2 7.3
-1 -1 -7 36.8 14.6
-1 -1 -7 15.3 9
-1 -1 -7 23.4 5.9
-1 -1 -7 12 6
-1 -1 -7 34.7 7.2
1 1 7 18.2 7.6
1 1 7 19.3 5.4
1 1 7 26.1 6.9
1 1 7 18.1 5.6
1 1 7 29.2 7.9
1 1 7 31.6 5.7
1 1 7 24.8 6.7
1 1 7 27.5 7.8
-2 -1 -7 1320.17 112.79
-2 -1 -7 1476.55 113.39
-2 -1 -7 1232.58 110.79
-2 -1 -7 1383.26 113.59
-2 -1 -7 1377.36 112.19
2 1 7 1309.57 114.39
2 1 7 1473.25 110.39
2 1 7 1240.68 109.19
2 1 7 1303.47 113.59
2 1 7 1164.18 114.29
2 1 7 1333.47 112.39
2 1 7 1370.46 110.99
-3 -1 -7 384.66 40.3
-3 -1 -7 440.46 40.5
-3 -1 -7 358.16 38.3
-3 -1 -7 373.16 39.1
-3 -1 -7 476.15 49.6
3 1 7 328.47 39
3 1 7 393.56 37.1
3 1 7 436.36 36.5
3 1 7 400.36 41
3 1 7 365.96 35.4
3 1 7 378.96 38.4
3 1 7 434.46 42.8
-4 -1 -7 164.78 22.7
-4 -1 -7 154.58 20
-4 -1 -7 152.08 21
-4 -1 -7 162.48 22
4 1 7 140.79 15.9
4 1 7 149.59 22.4
4 1 7 160.68 16.3
4 1 7 136.69 17.2
4 1 7 170.28 22.3
4 1 7 113.69 18.8
4 1 7 167.88 19.5
-5 -1 -7 251.67 31.2
-5 -1 -7 305.87 31.2
5 1 7 314.17 29.5
5 1 7 328.07 33
5 1 7 235.58 29.3
5 1 7 236.98 25.2
5 1 7 316.67 25.9
-6 -1 -7 15 6.1
-6 -1 -7 17 5.5
6 1 7 15.2 2.8
6 1 7 15 4.4
9 -2 -7 13.6 4.5
9 -2 -7 12.2 5.1
-9 2 7 7.8 3.4
-9 2 7 6.2 2.9
8 -2 -7 2.2 4.3
8 -2 -7 -3.8 3.7
-8 2 7 2.1 3
-8 2 7 -1.2 2.9
7 -2 -7 356.46 38.4
7 -2 -7 377.16 34.9
-7 2 7 386.96 35.3
-7 2 7 377.96 34.4
-7 2 7 346.07 31.6
6 -2 -7 44.9 11.9
6 -2 -7 44.6 10.9
6 -2 -7 32.9 9.4
6 -2 -7 53.49 15.8
6 -2 -7 56.99 10.6
-6 2 7 49.6 7.6
-6 2 7 38.7 8.7
-6 2 7 57.39 9.4
-6 2 7 42.4 6.4
-6 2 7 38.5 8.4
5 -2 -7 2517.95 214.48
5 -2 -7 2624.94 216.08
5 -2 -7 2699.63 212.88
5 -2 -7 2900.61 214.28
5 -2 -7 2688.63 218.08
-5 2 7 2499.35 213.58
-5 2 7 2555.14 209.08
-5 2 7 2497.75 210.08
-5 2 7 2639.44 209.38
-5 2 7 2537.25 210.78
4 -2 -7 4.5 5
4 -2 -7 6 3.9
4 -2 -7 -2.1 3.4
4 -2 -7 -2.3 3.9
4 -2 -7 7.8 5.5
4 -2 -7 6.3 4.1
-4 2 7 8.7 6.3
-4 2 7 3 2.2
-4 2 7 -1.6 4
-4 2 7 2.9 2.1
3 -2 -7 561.54 50.19
3 -2 -7 595.34 53.19
3 -2 -7 666.43 49.8
3 -2 -7 589.84 51.99
3 -2 -7 644.84 52.69
-3 2 7 480.05 46.8
-3 2 7 510.45 47.8
-3 2 7 517.25 49.3
-3 2 7 537.75 50.49
-3 2 7 543.25 50.79
-3 2 7 523.75 48.7
-3 2 7 557.34 47.3
2 -2 -7 8.8 3.8
2 -2 -7 7.1 4.9
2 -2 -7 12.3 5.5
2 -2 -7 12.5 4.5
2 -2 -7 9.1 4
2 -2 -7 10.5 4.3
-2 2 7 8.9 4.5
-2 2 7 6.6 3
-2 2 7 10.1 3.9
-2 2 7 7.1 4.6
-2 2 7 9.7 3.1
-2 2 7 6.7 3.1
1 -2 -7 2.2 3.4
1 -2 -7 0 2
1 -2 -7 5.9 4.1
1 -2 -7 8.9 4.1
1 -2 -7 10 4.3
1 -2 -7 4.2 5.1
-1 2 7 6.9 3.7
-1 2 7 -1.7 2.1
-1 2 7 6.4 3.1
-1 2 7 0 4
-1 2 7 2.4 2.3
0 -2 -7 439.46 39
0 -2 -7 406.36 38.5
0 -2 -7 496.95 38.7
0 -2 -7 401.76 39.9
0 -2 -7 363.56 38.4
0 2 7 420.26 38.4
0 2 7 453.65 41
0 2 7 374.46 36.9
0 2 7 399.66 41
0 2 7 387.76 40.2
0 2 7 406.96 40.1
0 2 7 441.86 37.9
0 2 7 441.86 39.4
-1 -2 -7 19.1 6.9
-1 -2 -7 15.6 6.7
-1 -2 -7 10.4 4.5
-1 -2 -7 16.8 6.3
-1 -2 -7 18 7.3
-1 -2 -7 22.5 6.3
-1 -2 -7 12.8 5.4
1 2 7 21.9 8.4
1 2 7 10.6 3.7
1 2 7 13.5 6.1
1 2 7 10.4 5.3
1 2 7 26.6 8.2
1 2 7 13.2 4.2
1 2 7 6.1 3.6
-2 -2 -7 289.17 29
-2 -2 -7 260.67 29.6
-2 -2 -7 285.47 30.5
-2 -2 -7 275.87 28.7
-2 -2 -7 280.27 30.7
2 2 7 272.67 26.5
2 2 7 274.07 31.1
2 2 7 275.27 29.2
2 2 7 248.98 30.4
2 2 7 265.67 26.8
2 2 7 284.27 31.4
2 2 7 270.67 32
2 2 7 266.87 27.7
-3 -2 -7 48.9 11.2
-3 -2 -7 55.09 11.5
-3 -2 -7 50.09 11.9
-3 -2 -7 56.59 10.8
-3 -2 -7 61.99 11.7
3 2 7 35.4 9.8
3 2 7 69.29 12.7
3 2 7 52.69 9.8
3 2 7 66.59 11.3
3 2 7 43.1 7.8
3 2 7 57.09 12.3
3 2 7 64.79 13.9
3 2 7 55.39 8.5
-4 -2 -7 27.4 8.9
-4 -2 -7 27.4 9
-4 -2 -7 22.7 7.8
4 2 7 30 7.5
4 2 7 30.9 9.7
4 2 7 16.2 7.2
4 2 7 28.6 5.7
4 2 7 26 6.6
-5 -2 -7 156.08 19.3
-5 -2 -7 182.48 19.4
-5 -2 -7 130.89 19.4
5 2 7 152.38 17
5 2 7 136.89 17.7
5 2 7 164.08 13.8
-6 -2 -7 0.5 1.8
-6 -2 -7 2.5 3.8
-6 -2 -7 -3.8 2.2
6 2 7 0.8 2.5
9 -3 -7 0.9 2.8
-9 3 7 7.2 2.7
8 -3 -7 207.08 20.9
8 -3 -7 228.18 26.7
-8 3 7 212.58 22.2
7 -3 -7 68.59 12.7
7 -3 -7 119.99 17.2
7 -3 -7 80.29 13
-7 3 7 96.09 12.7
-7 3 7 91.79 12.2
6 -3 -7 3854.11 308.57
6 -3 -7 3852.81 317.57
6 -3 -7 3760.42 312.47
6 -3 -7 3907.11 309.67
-6 3 7 3622.94 310.07
-6 3 7 3850.11 304.47
-6 3 7 3851.31 306.77
-6 3 7 3947.9 307.87
5 -3 -7 383.56 49.7
5 -3 -7 485.35 42.2
5 -3 -7 478.05 42
5 -3 -7 471.15 44.9
5 -3 -7 474.35 47.9
5 -3 -7 446.86 40.4
-5 3 7 397.76 39.8
-5 3 7 433.46 42.2
-5 3 7 420.26 37.4
-5 3 7 407.26 39.1
-5 3 7 360.76 38
4 -3 -7 8290.17 589.34
4 -3 -7 7304.27 591.24
4 -3 -7 8272.37 586.04
-4 3 7 7072.79 588.04
-4 3 7 6992.6 582.84
-4 3 7 6296.67 584.34
3 -3 -7 255.87 28.5
3 -3 -7 287.87 26.7
3 -3 -7 268.27 29.4
3 -3 -7 259.77 24
3 -3 -7 232.28 26.5
3 -3 -7 304.37 26.8
3 -3 -7 286.77 31.2
3 -3 -7 276.37 28.8
-3 3 7 236.98 25.5
-3 3 7 252.47 28.1
-3 3 7 231.78 26
-3 3 7 252.97 24.2
-3 3 7 243.98 24.1
2 -3 -7 4216.08 358.56
2 -3 -7 4797.72 355.86
2 -3 -7 4063.49 355.66
2 -3 -7 5017.5 359.86
2 -3 -7 4427.36 352.06
2 -3 -7 5122.19 359.86
2 -3 -7 4763.02 355.36
2 -3 -7 4207.48 357.56
-2 3 7 4466.05 358.96
-2 3 7 4258.57 355.16
-2 3 7 4512.25 359.26
-2 3 7 4064.69 353.26
-2 3 7 3875.81 355.26
1 -3 -7 7.2 5.1
1 -3 -7 4.7 4.8
1 -3 -7 14.7 6.4
1 -3 -7 19.6 5.8
1 -3 -7 -2.3 3.4
1 -3 -7 -0.3 5.6
-1 3 7 -0.1 3.3
-1 3 7 6 3.7
-1 3 7 8.5 5.4
-1 3 7 2.3 3.8
-1 3 7 -1.2 3.3
-1 3 7 3.1 4
-1 3 7 10.6 8.2
0 -3 -7 3365.66 293.47
0 -3 -7 3682.83 291.87
0 -3 -7 3635.54 290.27
0 -3 -7 3444.56 296.87
0 3 7 3605.34 292.17
0 3 7 3790.42 289.57
0 3 7 3671.43 295.27
-1 -3 -7 614.94 56.59
-1 -3 -7 535.15 51.79
-1 -3 -7 537.35 51.59
-1 -3 -7 575.54 53.99
1 3 7 549.35 52.39
1 3 7 557.44 50.19
1 3 7 590.34 50.89
1 3 7 512.35 54.69
1 3 7 575.24 53.59
1 3 7 616.94 57.39
-2 -3 -7 908.51 85.89
-2 -3 -7 935.31 83.29
-2 -3 -7 909.71 80.89
-2 -3 -7 993.8 82.49
2 3 7 962.2 82.09
2 3 7 997.3 78.69
2 3 7 809.52 81.79
2 3 7 957.8 86.89
-3 -3 -7 67.69 11.9
-3 -3 -7 73.89 13.2
-3 -3 -7 53.79 11
3 3 7 60.69 12.1
3 3 7 73.79 14.1
3 3 7 71.49 9
3 3 7 79.49 11.7
-4 -3 -7 278.77 29.3
-4 -3 -7 261.57 26.3
-4 -3 -7 298.37 27.1
4 3 7 281.17 27.1
4 3 7 249.97 29.2
-5 -3 -7 6.6 2.5
-5 -3 -7 5.8 3.6
-5 -3 -7 1.4 2.4
5 3 7 9.7 3.7
5 3 7 12.1 3.4
9 -4 -7 12.8 3.7
-9 4 7 10.8 3
8 -4 -7 95.19 14.2
8 -4 -7 97.29 11.5
-8 4 7 96.79 12.2
-8 4 7 95.99 10.9
7 -4 -7 58.69 11.8
7 -4 -7 61.09 10
7 -4 -7 46.1 11
-7 4 7 76.19 10.3
-7 4 7 56.89 8.8
6 -4 -7 11.7 6.4
6 -4 -7 7.2 7.1
6 -4 -7 8.5 7
-6 4 7 9.2 4.7
-6 4 7 8.1 5.7
-6 4 7 6.8 4.7
5 -4 -7 47.5 7.8
5 -4 -7 21.7 7.8
5 -4 -7 53.59 10.3
5 -4 -7 56.99 10
5 -4 -7 61.79 10
5 -4 -7 50.89 12.1
-5 4 7 31.3 7.5
-5 4 7 34.4 10.1
-5 4 7 37.5 8.3
-5 4 7 40.7 7.5
4 -4 -7 0.7 4.8
4 -4 -7 11.2 12.8
4 -4 -7 3.7 4.9
4 -4 -7 3.4 3.6
4 -4 -7 7.1 4.3
4 -4 -7 8.1 4.9
4 -4 -7 1 3.8
-4 4 7 3.4 4.4
-4 4 7 0.1 3.9
-4 4 7 3.9 3.7
-4 4 7 4.3 3.5
3 -4 -7 1378.16 110.09
3 -4 -7 1402.76 106.49
3 -4 -7 1251.67 109.99
3 -4 -7 1329.77 112.49
3 -4 -7 1250.57 114.39
3 -4 -7 1377.76 116.29
3 -4 -7 1290.47 116.39
-3 4 7 1350.16 114.39
-3 4 7 1227.08 109.59
-3 4 7 1210.58 108.89
2 -4 -7 513.25 48.3
2 -4 -7 471.65 50.19
2 -4 -7 451.75 45.5
2 -4 -7 486.25 47.2
2 -4 -7 486.15 42.1
2 -4 -7 416.36 49.8
2 -4 -7 513.25 44.7
-2 4 7 487.05 49.9
-2 4 7 501.85 45.5
-2 4 7 501.25 46.2
-2 4 7 536.85 44.1
-2 4 7 476.75 43.8
1 -4 -7 1110.49 92.39
1 -4 -7 1031.2 96.59
1 -4 -7 1138.09 101.99
1 -4 -7 1083.49 98.59
-1 4 7 1196.48 97.59
-1 4 7 1218.88 95.69
-1 4 7 1184.18 98.49
0 -4 -7 1011.3 88.29
0 -4 -7 978.7 91.39
0 -4 -7 935.41 85.49
0 -4 -7 1101.49 85.59
0 -4 -7 927.31 85.59
0 4 7 1045.3 88.19
0 4 7 928.71 83.69
0 4 7 1055.89 87.29
-1 -4 -7 356.06 36.3
-1 -4 -7 334.07 34.2
-1 -4 -7 339.27 34.7
1 4 7 352.96 32.9
1 4 7 351.46 34.9
1 4 7 323.87 35.4
-2 -4 -7 772.82 65.79
-2 -4 -7 774.12 68.09
2 4 7 784.92 66.19
2 4 7 648.34 65.79
-3 -4 -7 225.58 24.4
-3 -4 -7 163.78 26
3 4 7 224.98 21.8
3 4 7 208.78 24.6
4 4 7 401.56 39.1
4 4 7 458.65 37.2
8 -5 -7 9.9 4
8 -5 -7 -0.1 2.4
-8 5 7 1.9 2.7
7 -5 -7 32.7 7.8
7 -5 -7 39.4 7.6
7 -5 -7 27.8 8.5
-7 5 7 38.3 7.8
6 -5 -7 118.89 15.5
6 -5 -7 142.59 16.3
6 -5 -7 115.99 17.5
-6 5 7 115.29 13.8
-6 5 7 118.09 15
5 -5 -7 15.6 6.5
5 -5 -7 18 7.5
5 -5 -7 6.7 5.7
5 -5 -7 10.7 4
5 -5 -7 22.1 6.6
-5 5 7 7.4 5.6
-5 5 7 14.5 9.8
-5 5 7 14.6 5.5
-5 5 7 16.4 5.8
4 -5 -7 568.74 45.9
4 -5 -7 479.45 48.7
4 -5 -7 519.45 49.6
4 -5 -7 516.25 46.7
4 -5 -7 522.75 47.5
4 -5 -7 520.55 46.9
-4 5 7 428.46 46.1
3 -5 -7 501.25 47.8
3 -5 -7 514.35 47.1
3 -5 -7 523.25 49.8
3 -5 -7 510.05 43.5
3 -5 -7 565.44 48.1
3 -5 -7 514.85 50.19
-3 5 7 521.85 47.4
-3 5 7 520.45 48.2
-3 5 7 439.36 53.69
2 -5 -7 342.07 29.8
2 -5 -7 341.57 35.3
2 -5 -7 296.87 33.2
2 -5 -7 318.47 35.6
2 -5 -7 356.06 33.5
-2 5 7 350.76 33.9
-2 5 7 351.66 34.7
1 -5 -7 227.58 30.4
1 -5 -7 286.47 31.4
1 -5 -7 278.97 28.4
1 -5 -7 242.28 29.2
-1 5 7 280.57 28.9
-1 5 7 269.87 29.3
0 -5 -7 145.49 20.5
0 -5 -7 157.08 19.4
0 5 7 180.38 20.9
0 5 7 171.98 20.7
-1 -5 -7 107.89 15.5
-1 -5 -7 96.49 13.8
1 5 7 110.09 14.3
1 5 7 94.69 14.3
-2 -5 -7 49.99 11.3
-2 -5 -7 53.69 11.8
2 5 7 51.79 12.3
-3 -5 -7 8.2 4.1
-3 -5 -7 6.1 3.5
3 5 7 5.4 2.9
3 5 7 1.3 2.4
8 -6 -7 4.5 3.8
8 -6 -7 2 2.3
-8 6 7 1 2.4
-8 6 7 1.8 2.4
7 -6 -7 102.69 14.9
7 -6 -7 137.49 14.6
-7 6 7 132.19 14.7
6 -6 -7 -4 4.2
6 -6 -7 4.8 4.2
-6 6 7 1.7 4
-6 6 7 5.6 4.1
-6 6 7 0.5 3.3
5 -6 -7 140.29 16.8
5 -6 -7 161.88 25.5
5 -6 -7 125.79 17.5
-5 6 7 142.09 16.3
-5 6 7 142.19 15.5
-5 6 7 97.49 19.7
4 -6 -7 82.69 13.4
4 -6 -7 89.19 13.7
4 -6 -7 71.69 14.2
4 -6 -7 93.39 10.1
-4 6 7 103.39 13.3
-4 6 7 90.69 13.2
3 -6 -7 154.88 19.3
3 -6 -7 177.18 20.9
3 -6 -7 183.08 20.6
3 -6 -7 155.28 15.5
-3 6 7 154.98 19.4
2 -6 -7 60.79 11.4
2 -6 -7 62.69 10.7
2 -6 -7 64.69 11.9
-2 6 7 51.59 10.6
-2 6 7 65.79 11.5
1 -6 -7 163.08 20.2
1 -6 -7 223.68 23.5
-1 6 7 196.98 21.7
-1 6 7 173.98 21.2
0 -6 -7 1.5 3.2
0 6 7 6.9 4.1
0 6 7 -1.9 4.7
-1 -6 -7 48.4 7.8
-1 -6 -7 54.69 8.9
1 6 7 38.1 7.5
1 6 7 39.2 7.6
-2 -6 -7 3.6 3.2
-2 -6 -7 1.9 3.8
2 6 7 0.7 2.2
-7 7 7 8.9 5
-7 7 7 8.7 3.4
6 -7 -7 13.8 4.2
6 -7 -7 0.5 4.1
-6 7 7 0.7 3.8
-6 7 7 7.4 3.8
-6 7 7 10.1 4.2
5 -7 -7 28.4 6.2
-5 7 7 16.4 4.7
-5 7 7 30.3 6.9
-5 7 7 8.1 5.4
4 -7 -7 97.09 17.1
4 -7 -7 98.59 14.5
-4 7 7 99.69 16.7
-4 7 7 95.89 17.1
3 -7 -7 8.4 4.7
3 -7 -7 30.5 7.2
-3 7 7 8.6 7
-3 7 7 19.4 6.4
2 -7 -7 156.08 17.8
2 -7 -7 150.68 17.9
-2 7 7 103.29 16.4
1 -7 -7 27.2 9.8
1 -7 -7 18.5 5.1
-1 7 7 18.6 5.5
0 -7 -7 111.99 13.5
0 -7 -7 105.79 12.7
0 7 7 88.19 11.6
5 -8 -7 160.08 15.8
-5 8 7 139.09 16.1
-5 8 7 196.48 17.6
3 -8 -7 174.58 16.9
-3 8 7 136.19 16.2
-3 8 7 155.28 20.9
-1 10 -8 32.8 9.2
-1 10 -8 44.3 9.1
-2 10 -8 111.19 16.8
-2 10 -8 110.69 18
-4 10 -8 20.5 5.5
-5 10 -8 3.4 3.3
-5 10 -8 4.8 3.6
1 9 -8 67.79 10.6
-1 -9 8 46 9.1
0 9 -8 39.3 26.2
0 9 -8 20.2 6.2
0 9 -8 49.99 14.5
0 9 -8 9.3 6.3
-1 9 -8 209.08 29.4
-1 9 -8 196.48 33
-2 9 -8 -2.6 4.3
-2 9 -8 0.6 6.5
-2 9 -8 1.3 3.4
-2 9 -8 -3.5 3.4
-3 9 -8 171.38 20.8
-3 9 -8 133.89 20.4
-3 9 -8 183.28 25
-3 9 -8 211.08 22.9
-4 9 -8 17.6 7
-4 9 -8 14.4 6.7
-4 9 -8 33.3 11.9
-4 9 -8 19.9 9.1
-5 9 -8 43.3 12
-5 9 -8 27.3 8
-5 9 -8 39.8 10.3
-6 9 -8 7.2 5
-6 9 -8 6 3.8
-6 9 -8 12 6.1
3 8 -8 -0.2 6.1
-3 -8 8 3.5 2.5
2 8 -8 235.98 24.6
-2 -8 8 253.57 21.2
-2 -8 8 178.78 23.7
-2 -8 8 207.18 23.9
1 8 -8 3.1 9.5
1 8 -8 12.6 10.3
1 8 -8 2 4
-1 -8 8 4 3.6
0 8 -8 481.25 59.39
0 8 -8 599.84 58.19
0 8 -8 689.93 66.39
-1 8 -8 35.6 11.7
-1 8 -8 45.2 16.9
-1 8 -8 35.6 13.6
-1 8 -8 24.4 13.2
-1 8 -8 23.8 9.2
-1 8 -8 16.5 5.7
-2 8 -8 388.06 37.5
-2 8 -8 359.76 42.7
-2 8 -8 369.26 44.1
-2 8 -8 305.17 35.7
-2 8 -8 401.36 37.5
-2 8 -8 387.06 43.9
-2 8 -8 285.97 47.4
-3 8 -8 69.29 15.9
-3 8 -8 81.19 13.7
-3 8 -8 71.19 14.1
-3 8 -8 87.79 13.5
-3 8 -8 61.99 14.4
-3 8 -8 71.09 16.8
-3 8 -8 85.29 14.1
-3 8 -8 82.59 14.6
-4 8 -8 104.79 22.2
-4 8 -8 119.09 18.2
-4 8 -8 144.99 19.2
-4 8 -8 136.89 24.1
-4 8 -8 130.39 18.1
-4 8 -8 118.59 19.1
-5 8 -8 138.19 20.2
-5 8 -8 98.39 16.3
-5 8 -8 118.99 19.2
-6 8 -8 16 6.6
-6 8 -8 35.4 9.8
-6 8 -8 30.1 8.9
-6 8 -8 19.5 10.2
6 -8 8 27.9 6.2
6 -8 8 30.3 5.9
-7 8 -8 43 10.9
-7 8 -8 61.69 9.7
4 7 -8 4.7 6.2
-4 -7 8 0.5 1.5
-4 -7 8 1.2 2
3 7 -8 -3.9 4.5
3 7 -8 4.2 8.3
3 7 -8 5 3.5
-3 -7 8 3.7 2.3
-3 -7 8 4.3 2.3
2 7 -8 43.2 14.1
2 7 -8 22.5 14.1
2 7 -8 21.9 7.6
-2 -7 8 21.7 5.4
-2 -7 8 21.8 8.5
-2 -7 8 31 5.8
1 7 -8 9.4 7.6
1 7 -8 -6.2 9
1 7 -8 6.8 6.8
1 7 -8 10.3 6.4
1 7 -8 16 13.9
1 7 -8 7 4
-1 -7 8 8.1 3.3
-1 -7 8 13.9 4
0 7 -8 11.5 5.5
0 7 -8 9.7 10.8
0 7 -8 41.3 12
0 7 -8 33.9 8.2
0 7 -8 19.9 11.4
0 7 -8 42 15
0 7 -8 19.4 9.4
0 -7 8 22.3 5.4
-1 7 -8 25.2 11.9
-1 7 -8 27.4 9.9
-1 7 -8 36.1 12.4
-1 7 -8 21.1 11
-1 7 -8 19.6 7.6
-1 7 -8 24.8 12.5
-1 7 -8 12.1 6.1
-1 7 -8 20.7 8.4
-1 7 -8 20.7 8.6
-1 7 -8 27.4 9.7
-1 7 -8 39.3 8
-2 7 -8 182.18 23.1
-2 7 -8 161.08 22.4
-2 7 -8 165.18 25.6
-2 7 -8 204.38 23.5
-2 7 -8 197.98 26
-2 7 -8 152.48 24.3
-2 7 -8 198.38 30
-2 7 -8 210.88 36.3
-2 7 -8 158.58 21.4
-2 7 -8 195.38 23
-2 7 -8 199.38 26.5
-3 7 -8 29.7 9.2
-3 7 -8 41.9 10.8
-3 7 -8 19.1 9.9
-3 7 -8 47.3 16.3
-3 7 -8 36.7 11.1
-3 7 -8 40.6 13.3
-3 7 -8 41 9.7
-3 7 -8 33.8 9.7
-3 7 -8 22.7 10.8
-3 7 -8 35.8 9.4
-3 7 -8 24.6 12.2
-3 7 -8 30.3 8.8
-4 7 -8 74.69 14
-4 7 -8 129.29 25
-4 7 -8 130.69 18.1
-4 7 -8 105.69 18.1
-4 7 -8 94.29 20.1
-4 7 -8 112.89 25.3
-4 7 -8 89.39 15.3
-4 7 -8 84.99 16.1
4 -7 8 98.19 11.5
-5 7 -8 71.99 14.1
-5 7 -8 58.99 11.8
-5 7 -8 36.4 10.3
-5 7 -8 65.19 14.6
-5 7 -8 48.8 11.5
5 -7 8 46.1 7.2
5 -7 8 32.7 7.3
-6 7 -8 65.39 13.2
-6 7 -8 115.29 16
-6 7 -8 71.59 14.2
6 -7 8 99.39 11.4
6 -7 8 83.99 10.2
-7 7 -8 1.6 2.9
-7 7 -8 12 6.9
-7 7 -8 7.1 3.8
-7 7 -8 0.3 3.3
7 -7 8 8.1 3.6
7 -7 8 2.9 2.5
-8 7 -8 18.9 4.8
-8 7 -8 15.2 4.2
8 -7 8 21.1 4.1
-5 -6 8 57.39 7
-4 -6 8 224.48 25.9
-4 -6 8 255.57 27.4
-4 -6 8 221.68 23.1
-4 -6 8 267.07 22.8
3 6 -8 176.68 32.6
3 6 -8 89.29 16.4
3 6 -8 109.09 15.6
-3 -6 8 110.69 13
-3 -6 8 107.59 13.9
-3 -6 8 129.29 13.5
2 6 -8 152.88 24
2 6 -8 136.79 20.6
2 6 -8 171.58 24.6
2 6 -8 153.08 19.8
-2 -6 8 144.19 19.7
-2 -6 8 158.68 16.3
-2 -6 8 164.58 16.1
1 6 -8 419.46 48.5
1 6 -8 333.07 51.19
1 6 -8 431.66 43.3
1 6 -8 400.76 44.2
1 6 -8 353.96 45.8
1 6 -8 358.16 39
1 6 -8 398.06 43.7
-1 -6 8 411.46 37.5
-1 -6 8 396.56 34.5
0 6 -8 478.85 48.2
0 6 -8 452.95 48.4
0 6 -8 464.45 59.89
0 6 -8 547.55 54.99
0 6 -8 581.64 54.99
0 6 -8 516.95 53.19
0 6 -8 541.95 49
0 -6 8 472.25 45.9
-1 6 -8 1334.97 102.49
-1 6 -8 1159.78 103.29
-1 6 -8 1227.98 101.79
-1 6 -8 1091.39 105.99
-1 6 -8 976.2 104.89
-1 6 -8 1303.77 106.49
-1 6 -8 1071.19 101.59
-2 6 -8 270.67 29.9
-2 6 -8 284.37 29.5
-2 6 -8 278.57 29.9
-2 6 -8 246.18 28.6
-2 6 -8 257.17 31.3
-2 6 -8 331.37 45.4
-2 6 -8 241.28 30.8
-2 6 -8 316.87 36.1
-2 6 -8 261.97 36.1
-2 6 -8 243.18 29.2
-2 6 -8 229.48 31.2
-3 6 -8 392.96 45.2
-3 6 -8 510.95 49.1
-3 6 -8 520.75 48.9
-3 6 -8 514.75 47.2
-3 6 -8 398.56 54.89
-3 6 -8 476.05 47.5
-3 6 -8 451.15 47.4
3 -6 8 500.85 46.9
-4 6 -8 177.18 22.5
-4 6 -8 176.18 23.9
-4 6 -8 166.68 21.6
-4 6 -8 187.78 23.9
-4 6 -8 215.28 26.3
-4 6 -8 153.98 22
4 -6 8 133.39 20.1
4 -6 8 151.48 16.5
-5 6 -8 302.67 36
-5 6 -8 369.76 40.7
-5 6 -8 342.17 45.6
-5 6 -8 284.77 39.8
-5 6 -8 382.36 41
5 -6 8 316.47 30.4
5 -6 8 366.06 31.1
5 -6 8 355.66 37.9
5 -6 8 267.07 36.2
-6 6 -8 24.7 8.4
-6 6 -8 22.1 8.3
-6 6 -8 20 9
-6 6 -8 4.7 10.5
-6 6 -8 40.5 11.3
6 -6 8 23.5 9.6
6 -6 8 37 6.6
-7 6 -8 182.58 27.6
-7 6 -8 202.88 25.4
7 -6 8 260.87 21.9
7 -6 8 219.78 22.1
7 -6 8 249.08 21.2
-8 6 -8 3.6 3.7
-8 6 -8 2.1 2.1
8 -6 8 3.2 2.1
8 -6 8 0.2 1.2
-6 -5 8 145.99 12.7
-6 -5 8 146.09 13.8
-6 -5 8 107.29 12.3
5 5 -8 25.8 8.2
5 5 -8 11 8.9
-5 -5 8 12.8 3.6
-5 -5 8 12 3.6
-5 -5 8 15 4.9
-5 -5 8 19.2 4.7
-4 -5 8 425.16 37.1
-4 -5 8 415.66 37.6
-4 -5 8 432.56 37.1
-4 -5 8 399.26 39.4
3 5 -8 142.29 21.6
3 5 -8 106.39 19.6
3 5 -8 98.39 16.8
3 5 -8 143.99 18.7
3 5 -8 125.39 33.2
-3 -5 8 116.69 14.5
-3 -5 8 142.69 16.6
-3 -5 8 131.59 13.9
-3 -5 8 163.18 16.2
2 5 -8 1342.37 124.19
2 5 -8 1032.1 105.09
2 5 -8 1172.28 105.29
2 5 -8 1202.88 111.89
2 5 -8 1216.68 109.29
2 5 -8 1065.29 108.89
-2 -5 8 1407.46 99.79
-2 -5 8 1243.18 102.09
-2 -5 8 1248.38 99.59
1 5 -8 10.3 6.8
1 5 -8 3.3 6.6
1 5 -8 8.9 5.5
1 5 -8 16.5 10.8
1 5 -8 6.6 4.9
1 5 -8 -1.6 4.9
1 5 -8 1 5.6
1 5 -8 2.3 5.7
-1 -5 8 5.7 2.5
0 5 -8 531.75 68.69
0 5 -8 589.84 60.39
0 5 -8 702.33 62.79
0 5 -8 648.94 59.79
0 5 -8 495.85 56.09
0 5 -8 583.24 56.09
0 5 -8 619.24 56.09
0 -5 8 689.63 60.69
-1 5 -8 98.09 20.8
-1 5 -8 128.39 16.5
-1 5 -8 114.39 16.1
-1 5 -8 80.49 16.8
-1 5 -8 100.29 17.8
-1 5 -8 103.19 15.4
-1 5 -8 125.19 25.9
-1 5 -8 121.79 17.7
-1 5 -8 150.68 18.6
-1 5 -8 116.89 16
1 -5 8 97.09 18.1
-2 5 -8 936.21 75.09
-2 5 -8 911.11 85.69
-2 5 -8 760.62 76.09
-2 5 -8 727.23 75.39
-2 5 -8 871.61 78.19
-2 5 -8 778.02 74.39
-2 5 -8 863.61 75.49
-2 5 -8 847.52 74.79
-2 5 -8 956.1 76.49
2 -5 8 731.73 71.49
-3 5 -8 37.8 9.9
-3 5 -8 18.8 12.5
-3 5 -8 19.5 8.6
-3 5 -8 17.5 7.8
-3 5 -8 29.3 9.3
-3 5 -8 35.9 12.1
-3 5 -8 24.1 19.5
-3 5 -8 19 8.2
-3 5 -8 13.3 8.5
-3 5 -8 13 5.7
-3 5 -8 30 9.9
3 -5 8 17.1 4.1
3 -5 8 5.9 6.1
3 -5 8 28.1 8.4
-4 5 -8 1159.88 103.79
-4 5 -8 929.21 96.69
-4 5 -8 1268.07 99.39
-4 5 -8 1106.39 98.19
-4 5 -8 965 95.79
-4 5 -8 1189.88 97.39
4 -5 8 1172.88 90.69
4 -5 8 964.5 89.99
-5 5 -8 247.58 31.4
-5 5 -8 267.27 30.5
-5 5 -8 238.58 28.8
-5 5 -8 234.78 30.1
5 -5 8 264.27 26
5 -5 8 297.07 31.7
5 -5 8 248.38 24.7
-6 5 -8 121.29 17.2
-6 5 -8 121.79 19.5
-6 5 -8 143.49 19.8
6 -5 8 166.98 21.6
6 -5 8 141.69 16.2
6 -5 8 140.19 17.9
6 -5 8 153.68 15.5
-7 5 -8 73.59 14
-7 5 -8 70.89 18.3
-7 5 -8 91.79 13.5
7 -5 8 61.09 10
7 -5 8 106.59 10.5
-8 5 -8 36.6 8.6
8 -5 8 48.8 6
8 -5 8 52.39 6.1
6 4 -8 5.4 4.3
6 4 -8 5.7 6
-6 -4 8 0 3.5
-6 -4 8 -0.1 3.1
-6 -4 8 3.6 3
5 4 -8 57.09 17.5
5 4 -8 50.69 11.7
-5 -4 8 36.4 7.3
-5 -4 8 36.6 6.9
-5 -4 8 41.8 6.8
4 4 -8 32.9 9.4
4 4 -8 38.7 9.7
4 4 -8 60.69 17.9
4 4 -8 29.7 10.8
4 4 -8 62.29 14.1
4 4 -8 58.19 19.4
-4 -4 8 52.29 8.8
-4 -4 8 48.1 7.7
-4 -4 8 48 7.1
-4 -4 8 46 7.6
-4 -4 8 69.79 11.1
3 4 -8 415.96 42
3 4 -8 324.97 50.89
3 4 -8 490.65 43.3
3 4 -8 468.15 53.79
3 4 -8 336.57 41.8
3 4 -8 404.96 44.1
3 4 -8 434.46 46.3
-3 -4 8 415.46 36
-3 -4 8 377.86 38.9
-3 -4 8 441.16 36.7
2 4 -8 108.69 24.5
2 4 -8 133.29 19.2
2 4 -8 121.99 17.3
2 4 -8 139.29 22.4
2 4 -8 91.99 17.4
-2 -4 8 118.99 12.7
-2 -4 8 138.59 12.8
1 4 -8 710.03 70.19
1 4 -8 881.11 72.09
1 4 -8 793.52 83.79
1 4 -8 846.32 73.29
1 4 -8 931.71 76.99
1 4 -8 802.72 78.09
1 4 -8 659.63 70.59
-1 -4 8 853.21 73.49
-1 -4 8 769.92 72.29
-1 -4 8 821.12 65.79
0 4 -8 220.38 38.8
0 4 -8 242.78 32.6
0 4 -8 283.17 30.2
0 4 -8 331.27 33.4
0 4 -8 307.07 31.5
0 4 -8 361.36 31.8
0 4 -8 252.37 31.1
0 4 -8 309.77 30.9
0 4 -8 239.98 32.5
0 4 -8 249.58 35.9
0 -4 8 337.37 28.3
0 -4 8 332.87 28.6
0 -4 8 334.87 25.1
-1 4 -8 2271.07 190.28
-1 4 -8 2194.68 188.08
-1 4 -8 2206.88 190.38
-1 4 -8 2573.14 197.88
-1 4 -8 2274.17 187.98
-1 4 -8 2038.1 194.38
-1 4 -8 2565.54 188.88
-1 4 -8 2333.57 188.98
1 -4 8 2536.55 182.48
1 -4 8 1829.22 187.48
1 -4 8 2345.57 185.88
-2 4 -8 31.4 8.2
-2 4 -8 40.6 9.2
-2 4 -8 47.3 10
-2 4 -8 33.3 14.1
-2 4 -8 30.1 8.4
-2 4 -8 38.2 14.8
-2 4 -8 33.3 9.4
-2 4 -8 23.8 7.3
-2 4 -8 18 7.3
-2 4 -8 22.1 9.4
-2 4 -8 25 9.1
2 -4 8 14.5 6.4
2 -4 8 33.5 11
-3 4 -8 1127.39 91.49
-3 4 -8 1164.18 92.29
-3 4 -8 947.61 90.99
-3 4 -8 1051.29 93.19
-3 4 -8 973.7 97.09
-3 4 -8 1113.59 93.29
-3 4 -8 826.82 103.19
-3 4 -8 956 90.09
3 -4 8 1038.6 91.19
3 -4 8 1036.4 89.09
3 -4 8 1139.19 86.59
-4 4 -8 41.3 10.3
-4 4 -8 56.69 10.5
-4 4 -8 32.7 10.1
-4 4 -8 45 10.9
-4 4 -8 34.8 9.5
4 -4 8 52.89 11.4
4 -4 8 53.29 7.9
4 -4 8 59.29 8.2
4 -4 8 33.8 9.7
-5 4 -8 1092.29 96.29
-5 4 -8 983.7 83.49
-5 4 -8 883.41 81.19
-5 4 -8 1035.8 85.59
-5 4 -8 792.42 85.29
5 -4 8 751.22 84.79
-6 4 -8 2.5 7.4
-6 4 -8 15.5 6.6
-6 4 -8 15.3 10.8
-6 4 -8 9.7 7
-6 4 -8 18.3 7.1
6 -4 8 24.1 5.2
6 -4 8 7.9 5.8
6 -4 8 12.3 6.8
6 -4 8 17 5
6 -4 8 18.3 5.9
-7 4 -8 300.17 36.1
-7 4 -8 355.86 40.8
-7 4 -8 311.67 33.9
-7 4 -8 348.07 36.5
7 -4 8 435.66 33.6
7 -4 8 376.86 33.3
-8 4 -8 28.7 8.3
8 -4 8 32 4.5
8 -4 8 40.3 6.5
8 -4 8 26.3 4.6
7 3 -8 70.09 7.8
-7 -3 8 66.89 9.4
-7 -3 8 69.69 7.7
6 3 -8 353.16 34
-6 -3 8 333.17 30.3
-6 -3 8 272.97 29.4
-6 -3 8 333.07 28.2
-6 -3 8 269.87 27.5
5 3 -8 69.59 20.2
5 3 -8 73.29 14
-5 -3 8 66.99 11.2
-5 -3 8 68.09 9.4
-5 -3 8 73.39 8.9
-5 -3 8 65.09 10.5
-5 -3 8 66.09 12.4
4 3 -8 1959.6 174.78
4 3 -8 1903.81 177.58
4 3 -8 2259.87 177.98
4 3 -8 2461.35 186.28
4 3 -8 1861.51 185.78
4 3 -8 2173.48 179.88
-4 -3 8 1906.11 170.48
-4 -3 8 2224.68 170.28
-4 -3 8 2347.97 170.48
-4 -3 8 2056.19 171.98
3 3 -8 153.18 22.6
3 3 -8 184.08 24.9
3 3 -8 160.18 22
3 3 -8 176.58 29.8
3 3 -8 149.99 21.2
3 3 -8 194.68 22.2
-3 -3 8 147.09 16.4
-3 -3 8 172.78 16.3
-3 -3 8 200.08 19.1
-3 -3 8 137.49 17.2
-3 -3 8 186.48 17.3
2 3 -8 1939.01 151.78
2 3 -8 1669.23 149.99
2 3 -8 1956.6 155.38
2 3 -8 1596.94 157.48
2 3 -8 1852.81 161.78
2 3 -8 1787.72 155.18
-2 -3 8 1717.83 147.59
-2 -3 8 1877.51 152.98
-2 -3 8 1961.1 148.49
1 3 -8 127.79 16.2
1 3 -8 109.99 19.2
1 3 -8 135.09 24.5
1 3 -8 129.19 16.5
1 3 -8 157.68 21
1 3 -8 133.69 16.6
-1 -3 8 138.79 15.1
-1 -3 8 123.89 12.7
-1 -3 8 130.89 14.5
-1 -3 8 157.18 18.6
0 3 -8 605.44 72.89
0 3 -8 502.75 55.19
0 3 -8 576.44 59.69
0 3 -8 653.33 55.69
0 -3 8 647.14 53.99
0 -3 8 659.63 50.39
0 -3 8 622.54 53.19
-1 3 -8 354.06 36.8
-1 3 -8 402.66 37.4
-1 3 -8 267.57 62.49
-1 3 -8 349.27 37.2
-1 3 -8 286.57 38.3
-1 3 -8 382.76 42.1
-1 3 -8 353.06 35.7
-1 3 -8 379.46 35.8
-1 3 -8 354.56 35.4
1 -3 8 367.56 30.8
1 -3 8 385.46 34.7
-2 3 -8 186.98 21.3
-2 3 -8 166.08 20
-2 3 -8 150.38 20.1
-2 3 -8 142.49 23.3
-2 3 -8 162.38 21.9
-2 3 -8 152.68 20.6
-2 3 -8 176.28 27.3
-2 3 -8 181.08 24.7
-2 3 -8 164.08 21.5
-2 3 -8 185.98 20.2
2 -3 8 166.08 21.7
2 -3 8 203.18 17.3
-3 3 -8 632.84 53.49
-3 3 -8 610.94 54.19
-3 3 -8 548.65 52.79
-3 3 -8 537.55 54.69
-3 3 -8 502.45 53.19
-3 3 -8 570.54 54.79
-4 3 -8 19 7.8
-4 3 -8 20.4 14.4
-4 3 -8 24.1 4.6
-4 3 -8 14.5 5.7
-4 3 -8 25.9 9.4
-4 3 -8 22.8 9.5
-4 3 -8 17.7 7.6
4 -3 8 25.6 9.7
4 -3 8 30.8 9.1
4 -3 8 32.8 10.1
4 -3 8 27.3 6.4
4 -3 8 28.8 6
-5 3 -8 10.7 6.5
-5 3 -8 3.4 4.3
-5 3 -8 10.5 6.9
-5 3 -8 0.8 8.1
-5 3 -8 1.2 3.8
-5 3 -8 3 4.8
-5 3 -8 4.3 4
5 -3 8 5.1 3.4
5 -3 8 4.9 3.5
5 -3 8 4.6 4.6
5 -3 8 0.6 7
5 -3 8 -2.2 4.8
5 -3 8 -1.7 4.8
-6 3 -8 106.89 15
-6 3 -8 88.29 16.3
-6 3 -8 104.99 19.8
-6 3 -8 93.49 18
-6 3 -8 88.99 14.3
-6 3 -8 121.69 17
6 -3 8 104.09 14
6 -3 8 135.89 13.2
6 -3 8 137.59 19
-7 3 -8 -4.5 3.3
-7 3 -8 9.5 7.4
-7 3 -8 0.8 3.6
7 -3 8 3.3 2.3
7 -3 8 3.8 3.2
7 -3 8 -3.3 2.6
-8 3 -8 4.4 2.8
-8 3 -8 1.2 2.1
8 -3 8 1.4 2.8
8 -3 8 0.3 1.5
7 2 -8 142.89 18.2
7 2 -8 131.89 16.5
7 2 -8 146.19 19.2
-7 -2 8 127.79 14.3
-7 -2 8 110.89 16.3
6 2 -8 10.8 5.5
6 2 -8 10.9 6.6
6 2 -8 14.9 8.5
-6 -2 8 10.2 3.4
-6 -2 8 6.1 3.2
-6 -2 8 14.2 4.8
-6 -2 8 9.6 3.8
5 2 -8 70.79 15.4
5 2 -8 113.49 17.2
5 2 -8 97.69 15.3
5 2 -8 88.59 16.3
5 2 -8 99.09 19.5
-5 -2 8 78.99 12.9
-5 -2 8 92.89 12.3
-5 -2 8 92.59 10.7
-5 -2 8 97.59 11
4 2 -8 115.99 17
4 2 -8 105.99 15.9
4 2 -8 91.09 20.3
4 2 -8 117.99 17.7
4 2 -8 103.99 18.9
4 2 -8 132.79 30
4 2 -8 115.79 16.6
-4 -2 8 110.19 12
-4 -2 8 120.79 12.8
-4 -2 8 105.59 11.9
3 2 -8 16.7 8.6
3 2 -8 11.3 6.4
3 2 -8 22.5 8.7
3 2 -8 15.4 8.9
3 2 -8 16.2 5.4
3 2 -8 17.5 7
3 2 -8 29.4 13.2
3 2 -8 21.7 6.7
-3 -2 8 20.7 5.9
-3 -2 8 15.5 3.7
-3 -2 8 14.8 4
-3 -2 8 19.4 4.5
-3 -2 8 16.3 4.9
-3 -2 8 13 5.4
2 2 -8 426.86 40.2
2 2 -8 398.96 38.6
2 2 -8 400.46 38.8
2 2 -8 384.96 39.5
2 2 -8 398.46 48.2
2 2 -8 443.06 43.5
2 2 -8 439.96 43.4
-2 -2 8 487.55 36.2
-2 -2 8 355.96 44.5
-2 -2 8 426.86 37.8
-2 -2 8 430.26 35.4
-2 -2 8 364.46 42.8
1 2 -8 463.15 43.8
1 2 -8 415.36 39
1 2 -8 421.26 36.8
1 2 -8 379.46 39
1 2 -8 374.66 46.9
-1 -2 8 411.36 37.3
-1 -2 8 394.76 34.8
-1 -2 8 404.16 34.8
-1 -2 8 436.06 38.2
0 2 -8 1044.1 95.99
0 2 -8 992.7 89.89
0 2 -8 1096.49 90.39
0 2 -8 976.6 86.49
0 -2 8 1106.69 86.49
0 -2 8 1124.99 90.29
0 -2 8 1103.19 89.29
0 -2 8 1045.5 86.09
-1 2 -8 148.09 29.3
-1 2 -8 160.08 20.3
-1 2 -8 190.58 21.6
-1 2 -8 214.98 21.9
-1 2 -8 184.28 27.1
-1 2 -8 214.88 22.7
-1 2 -8 216.88 18.4
-1 2 -8 185.98 22.5
-1 2 -8 154.58 29.3
1 -2 8 198.68 18.4
1 -2 8 223.78 22.3
1 -2 8 169.78 19.4
1 -2 8 197.68 18.3
-2 2 -8 305.87 33
-2 2 -8 323.57 34.7
-2 2 -8 401.06 36.9
-2 2 -8 345.67 36
-2 2 -8 338.17 36.2
-2 2 -8 356.06 42.2
-2 2 -8 332.97 31.5
-2 2 -8 334.77 43.2
-2 2 -8 322.67 35
2 -2 8 324.27 38.8
2 -2 8 406.06 32.6
2 -2 8 386.36 34.3
2 -2 8 430.56 36.3
-3 2 -8 73.69 11.8
-3 2 -8 53.09 10.2
-3 2 -8 69.69 12.8
-3 2 -8 59.59 12
-3 2 -8 52.99 11.2
-3 2 -8 101.19 20
-3 2 -8 59.89 8.9
-3 2 -8 61.79 21
3 -2 8 61.59 9.1
3 -2 8 80.29 12.8
-4 2 -8 590.04 66.09
-4 2 -8 506.85 50.99
-4 2 -8 462.95 47.1
-4 2 -8 509.35 52.09
-4 2 -8 560.04 49.2
-4 2 -8 497.25 47.3
-4 2 -8 601.94 53.39
4 -2 8 560.34 45.6
4 -2 8 453.15 47.2
-5 2 -8 14.3 6.4
-5 2 -8 0.6 6.9
-5 2 -8 4.4 4.8
-5 2 -8 10.6 6.2
-5 2 -8 12.3 6.6
-5 2 -8 6.8 5.2
-5 2 -8 9.8 7.9
5 -2 8 4.1 4.6
5 -2 8 15.3 5.2
5 -2 8 11.2 4
5 -2 8 13.1 15.4
5 -2 8 11.6 4.4
5 -2 8 6.5 3.2
-6 2 -8 390.76 41.1
-6 2 -8 340.07 38.3
-6 2 -8 314.67 33.6
6 -2 8 360.46 31.8
6 -2 8 415.86 39.4
6 -2 8 360.06 34.1
6 -2 8 356.76 33.1
6 -2 8 314.07 32.3
-7 2 -8 17.1 4.5
-7 2 -8 19.9 6
-7 2 -8 28.8 8.5
7 -2 8 25.4 4.3
7 -2 8 20.8 4.8
7 -2 8 10.2 4.9
8 1 -8 22.7 6.4
8 1 -8 5.1 8
-8 -1 8 14.7 4.1
7 1 -8 24 7.4
7 1 -8 36.2 8.6
-7 -1 8 37.2 7.6
-7 -1 8 31.2 5.6
6 1 -8 53.59 14.6
6 1 -8 47.2 10.6
6 1 -8 50.59 15.2
6 1 -8 41.4 10.8
-6 -1 8 47 8.4
-6 -1 8 40 6.8
-6 -1 8 29.1 5.8
5 1 -8 -1.5 4.2
5 1 -8 15.4 10.8
5 1 -8 0.1 5
5 1 -8 -1.6 5.3
5 1 -8 -3.9 6.2
5 1 -8 -0.6 3.5
5 1 -8 -4.8 3.6
-5 -1 8 -0.6 2.7
-5 -1 8 -0.1 2.3
-5 -1 8 6.1 3.8
-5 -1 8 -1 1.7
-5 -1 8 1.6 2.3
4 1 -8 5.4 4.7
4 1 -8 -3.4 3.8
4 1 -8 8.1 13.9
4 1 -8 9.4 7.5
4 1 -8 0.3 4.2
-4 -1 8 2.5 1.8
-4 -1 8 -1.5 2.8
-4 -1 8 1.7 2.2
-4 -1 8 1.3 2.3
3 1 -8 43.8 13.2
3 1 -8 51.59 8.9
3 1 -8 36.3 9.5
3 1 -8 53.79 9.7
3 1 -8 50.99 10.3
-3 -1 8 31.9 6.5
-3 -1 8 44.1 6.6
-3 -1 8 43 9.5
-3 -1 8 45.4 8
-3 -1 8 52.59 6.4
-3 -1 8 51.19 8.3
2 1 -8 12 8
2 1 -8 9.6 4.2
2 1 -8 2.5 3
2 1 -8 2.3 4.1
-2 -1 8 6 2.2
-2 -1 8 7.9 2.8
-2 -1 8 8.8 3.8
-2 -1 8 5.8 3
1 1 -8 22 7.2
1 1 -8 28.3 5.1
1 1 -8 21 7.2
1 1 -8 25.3 6.7
1 1 -8 19.9 8.8
1 1 -8 18.9 12.6
-1 -1 8 27.4 4.4
-1 -1 8 17.4 5.5
-1 -1 8 23.9 6.3
-1 -1 8 22 4.1
0 1 -8 280.17 26.8
0 1 -8 274.87 32.3
0 1 -8 289.47 32.7
0 1 -8 279.47 28.5
0 -1 8 306.97 26.1
0 -1 8 287.37 28.7
0 -1 8 255.87 25.3
0 -1 8 329.17 32.9
-1 1 -8 34.9 13.5
-1 1 -8 31.2 7.7
-1 1 -8 49.7 13.4
-1 1 -8 24.3 9.5
-1 1 -8 23.3 7.7
-1 1 -8 26.3 7.8
-1 1 -8 31.4 6.9
-1 1 -8 23.3 9.6
1 -1 8 36.2 7.7
1 -1 8 20.2 6.3
1 -1 8 39.2 9.3
1 -1 8 33 5.1
1 -1 8 34.2 5.7
-2 1 -8 434.76 41.5
-2 1 -8 365.56 46.1
-2 1 -8 430.36 43.4
-2 1 -8 455.05 41.4
-2 1 -8 470.35 42.4
-2 1 -8 478.65 43.4
-2 1 -8 467.75 45.3
2 -1 8 455.65 42.3
2 -1 8 489.85 40.3
2 -1 8 444.76 45.2
2 -1 8 465.65 40.7
2 -1 8 463.85 43.9
-3 1 -8 74.99 29.9
-3 1 -8 60.89 11.5
-3 1 -8 67.99 16.7
-3 1 -8 68.59 10.5
-3 1 -8 47.8 14.8
3 -1 8 56.69 11.9
3 -1 8 43.1 10.7
3 -1 8 59.59 9.2
3 -1 8 68.59 9
3 -1 8 43.7 8.3
3 -1 8 69.29 11.8
-4 1 -8 193.58 25.3
-4 1 -8 206.38 25.1
-4 1 -8 257.77 38.3
-4 1 -8 247.78 28.9
4 -1 8 238.98 22.9
4 -1 8 256.47 28.2
4 -1 8 237.68 28.3
4 -1 8 209.78 24.9
4 -1 8 277.47 25.1
4 -1 8 260.17 23.7
-5 1 -8 36.1 15.9
-5 1 -8 66.79 14.7
-5 1 -8 45.5 10.4
-5 1 -8 66.09 13.8
5 -1 8 62.39 8.7
5 -1 8 59.69 8.6
5 -1 8 48.4 10.6
5 -1 8 67.29 9.4
-6 1 -8 11.1 5.4
-6 1 -8 7.1 4.6
-6 1 -8 17.3 7.3
-6 1 -8 26.6 9.2
6 -1 8 16.1 3.9
6 -1 8 5 6.6
6 -1 8 21 6
6 -1 8 14.4 4
6 -1 8 16.4 4.2
-7 1 -8 3.5 2.9
-7 1 -8 1.3 3.3
-7 1 -8 0.1 2
7 -1 8 -0.5 2.4
7 -1 8 2.3 1.6
8 0 -8 43.5 8.4
8 0 -8 57.09 9.2
-8 0 8 45.4 7.7
7 0 -8 241.68 25.8
7 0 -8 258.17 26.7
-7 0 8 237.48 23.2
-7 0 8 223.28 20.8
-7 0 8 187.98 20.4
6 0 -8 19.5 11.9
6 0 -8 10.6 6.5
6 0 -8 13.8 11.7
-6 0 8 15.9 4.9
-6 0 8 7.4 3.2
-6 0 8 5.1 5.3
-6 0 8 24.8 7.6
-6 0 8 14.1 4.4
5 0 -8 526.75 58.19
5 0 -8 623.64 56.59
5 0 -8 644.74 59.99
5 0 -8 592.04 57.29
-5 0 8 684.93 53.19
-5 0 8 545.45 54.49
-5 0 8 572.74 51.69
-5 0 8 643.44 51.99
-5 0 8 647.74 53.59
4 0 -8 1091.29 94.69
4 0 -8 1149.39 93.59
4 0 -8 1023.8 94.49
4 0 -8 1145.99 98.99
4 0 -8 1096.49 93.99
-4 0 8 1006.2 91.59
-4 0 8 1107.79 88.59
-4 0 8 1013.6 89.49
-4 0 8 1084.59 89.29
3 0 -8 1837.02 151.68
3 0 -8 2089.69 152.08
3 0 -8 1802.42 151.38
3 0 -8 1868.41 153.58
3 0 -8 1935.91 151.78
-3 0 8 1888.01 147.99
-3 0 8 1867.91 150.78
-3 0 8 1584.24 146.69
-3 0 8 1656.63 148.29
-3 0 8 1885.11 150.58
-3 0 8 1719.23 152.38
2 0 -8 3761.72 287.77
2 0 -8 3851.01 284.57
2 0 -8 3406.36 283.77
2 0 -8 3445.16 286.07
-2 0 8 3541.35 283.67
-2 0 8 3482.15 280.97
-2 0 8 3231.58 281.57
-2 0 8 3499.15 280.37
1 0 -8 2409.56 197.38
1 0 -8 2694.03 201.58
1 0 -8 2393.46 197.38
1 0 -8 2412.16 201.78
-1 0 8 2287.57 197.38
-1 0 8 2353.36 194.88
-1 0 8 2471.35 199.18
0 0 -8 3586.74 320.87
0 0 -8 4252.17 320.87
0 0 8 3918.91 322.27
0 0 8 4271.87 322.17
0 0 8 3952.9 318.27
0 0 8 3814.72 319.47
0 0 8 4061.09 317.77
0 0 8 4070.19 318.97
-1 0 -8 -3 2.8
-1 0 -8 -0.9 5
-1 0 -8 1.5 3.4
-1 0 -8 2.7 3.8
-1 0 -8 -0.7 4
1 0 8 3.8 2.9
1 0 8 0.3 3.2
1 0 8 1.6 2.9
1 0 8 3 3
1 0 8 6.1 4.7
1 0 8 -5.3 3.8
1 0 8 -4.9 3
1 0 8 -0.5 4.4
-2 0 -8 1384.96 109.79
-2 0 -8 1271.77 104.19
-2 0 -8 1381.56 105.09
-2 0 -8 1151.98 103.19
-2 0 -8 1227.28 104.19
2 0 8 1272.77 101.29
2 0 8 1144.69 103.99
2 0 8 1221.08 103.69
2 0 8 1100.09 104.79
2 0 8 1274.17 102.09
2 0 8 1056.09 100.19
-3 0 -8 264.37 29.8
-3 0 -8 301.47 31.1
-3 0 -8 276.67 29.5
3 0 8 276.27 26.8
3 0 8 318.87 28.8
3 0 8 290.07 32.3
3 0 8 262.87 29.1
3 0 8 280.47 31.3
-4 0 -8 287.27 31.6
-4 0 -8 301.67 32.4
-4 0 -8 265.67 30.2
4 0 8 290.97 27.4
4 0 8 258.37 29.2
4 0 8 323.47 33.4
4 0 8 285.77 27
4 0 8 254.97 33
4 0 8 306.87 28.7
-5 0 -8 197.18 22.5
-5 0 -8 166.88 20.2
-5 0 -8 151.58 22.3
5 0 8 152.98 18.6
5 0 8 162.28 21.6
5 0 8 132.49 17
5 0 8 165.48 16.2
5 0 8 140.19 16.8
-6 0 -8 81.49 12.1
-6 0 -8 79.99 11.5
6 0 8 84.89 11.4
6 0 8 79.19 8.9
8 -1 -8 146.69 17.6
8 -1 -8 159.98 18
-8 1 8 137.49 15.6
-8 1 8 142.49 16.4
7 -1 -8 832.62 73.29
-7 1 8 728.43 70.09
-7 1 8 835.22 67.19
-7 1 8 869.61 69.79
6 -1 -8 634.64 62.09
6 -1 -8 555.14 57.49
-6 1 8 608.24 52.09
-6 1 8 651.63 54.29
-6 1 8 634.44 52.29
-6 1 8 605.44 59.59
5 -1 -8 1079.09 93.59
5 -1 -8 1146.69 96.49
5 -1 -8 1151.28 92.09
5 -1 -8 1069.49 93.59
5 -1 -8 944.41 88.89
-5 1 8 1083.09 87.29
-5 1 8 942.91 87.79
-5 1 8 1032.6 91.39
-5 1 8 1065.09 88.79
-5 1 8 1170.98 90.59
-5 1 8 1010.7 87.19
4 -1 -8 955.6 80.89
4 -1 -8 1023.5 82.79
4 -1 -8 983.8 84.89
4 -1 -8 983.4 82.39
4 -1 -8 999.5 84.99
-4 1 8 988.5 82.79
-4 1 8 879.51 78.49
-4 1 8 814.52 87.79
-4 1 8 940.81 79.59
3 -1 -8 2542.45 211.28
3 -1 -8 2645.74 208.48
3 -1 -8 2813.52 209.08
3 -1 -8 2562.64 210.78
3 -1 -8 2946.91 210.48
3 -1 -8 2836.12 213.38
-3 1 8 2182.48 205.78
-3 1 8 2538.85 207.18
-3 1 8 2349.06 207.58
-3 1 8 2402.06 210.28
2 -1 -8 27.8 7.9
2 -1 -8 10 6.7
2 -1 -8 14.2 6
2 -1 -8 10.7 5
2 -1 -8 18.2 5.6
2 -1 -8 16 6.7
2 -1 -8 18.3 7
2 -1 -8 22.6 6.6
-2 1 8 14.4 5.3
-2 1 8 17.7 5.8
-2 1 8 13.8 4.1
-2 1 8 18.5 5.3
-2 1 8 8.9 3.4
-2 1 8 18.2 5.4
1 -1 -8 2552.14 196.08
1 -1 -8 2306.37 196.28
1 -1 -8 2490.95 196.98
1 -1 -8 2671.03 201.28
-1 1 8 2444.36 198.88
-1 1 8 2072.89 192.78
-1 1 8 2288.47 194.78
-1 1 8 2465.25 193.58
-1 1 8 2404.16 197.88
0 -1 -8 124.79 17
0 -1 -8 117.59 16.6
0 -1 -8 89.09 13.6
0 -1 -8 125.29 14.7
0 -1 -8 94.19 12.7
0 1 8 95.89 14.5
0 1 8 94.99 12.1
0 1 8 77.09 10.9
0 1 8 72.99 12.2
0 1 8 99.59 11.6
0 1 8 92.89 13
0 1 8 84.89 14.2
-1 -1 -8 1702.53 130.79
-1 -1 -8 1453.55 128.69
-1 -1 -8 1512.35 130.69
-1 -1 -8 1428.26 129.39
-1 -1 -8 1606.54 131.89
1 1 8 1504.45 133.09
1 1 8 1467.05 127.59
1 1 8 1647.84 128.49
1 1 8 1668.23 130.99
1 1 8 1542.45 129.19
1 1 8 1678.63 133.09
-2 -1 -8 96.89 13.8
-2 -1 -8 88.49 14.5
-2 -1 -8 81.89 13.6
-2 -1 -8 107.29 17.4
2 1 8 90.39 15.3
2 1 8 88.09 11.6
2 1 8 97.89 12.9
2 1 8 98.19 15.5
2 1 8 85.59 11.8
2 1 8 94.79 14.5
2 1 8 95.79 15.5
-3 -1 -8 1147.89 90.79
-3 -1 -8 1061.89 90.69
-3 -1 -8 987 91.19
3 1 8 1032.2 86.09
3 1 8 1040.3 92.49
3 1 8 847.72 90.19
3 1 8 993.5 87.49
3 1 8 1063.29 86.69
3 1 8 1124.69 93.89
3 1 8 1042.3 89.49
-4 -1 -8 328.67 31.8
-4 -1 -8 286.07 31.1
4 1 8 284.87 26.6
4 1 8 294.07 32.9
4 1 8 246.18 26.4
4 1 8 309.67 30.3
-5 -1 -8 203.48 22.3
-5 -1 -8 185.18 23.3
-5 -1 -8 191.88 22.2
5 1 8 216.18 21.5
5 1 8 187.78 18.2
-6 -1 -8 57.69 8.5
-6 -1 -8 76.99 9.6
-6 -1 -8 50.39 8.4
6 1 8 73.29 8.7
8 -2 -8 79.39 11.6
8 -2 -8 90.99 12.8
-8 2 8 74.69 9.9
-8 2 8 63.89 10.1
7 -2 -8 144.09 20
7 -2 -8 167.88 20.9
-7 2 8 173.48 18
-7 2 8 156.88 17.8
-7 2 8 160.88 15.3
6 -2 -8 42.5 18.4
6 -2 -8 17.9 7.6
6 -2 -8 26.6 10.1
6 -2 -8 28.3 9.7
-6 2 8 26.5 8.1
-6 2 8 10.3 7.7
-6 2 8 18 6.8
-6 2 8 17.8 4.3
5 -2 -8 257.47 27.2
5 -2 -8 252.47 29.3
5 -2 -8 272.77 28.6
5 -2 -8 253.77 26.5
5 -2 -8 263.47 31.7
-5 2 8 239.68 25.1
-5 2 8 255.87 23.8
-5 2 8 241.58 24.4
-5 2 8 263.57 26.5
-5 2 8 253.07 27.6
-5 2 8 235.38 23.4
4 -2 -8 537.25 49.5
4 -2 -8 552.74 49.2
4 -2 -8 556.44 46.8
4 -2 -8 528.45 47.2
4 -2 -8 521.25 50.29
4 -2 -8 525.45 49.5
-4 2 8 467.75 50.99
-4 2 8 480.85 43.9
-4 2 8 490.15 47.9
-4 2 8 455.95 44.6
3 -2 -8 58.79 11
3 -2 -8 70.39 10.3
3 -2 -8 63.69 11.2
3 -2 -8 60.39 10.7
3 -2 -8 51.09 9.3
3 -2 -8 64.29 11.5
-3 2 8 42.8 9.8
-3 2 8 46.1 7.4
-3 2 8 64.09 10.5
-3 2 8 46.8 7.4
-3 2 8 52.79 8.9
-3 2 8 51.69 8.2
2 -2 -8 543.65 51.29
2 -2 -8 618.84 52.39
2 -2 -8 567.64 49.99
2 -2 -8 520.25 47.9
2 -2 -8 559.64 50.69
-2 2 8 512.45 47
-2 2 8 502.55 45.8
-2 2 8 505.65 48.1
-2 2 8 469.75 45.5
-2 2 8 560.94 50.89
-2 2 8 513.75 47.5
1 -2 -8 33 9.1
1 -2 -8 23.4 7.4
1 -2 -8 32.9 7.2
1 -2 -8 31.1 8.5
1 -2 -8 21.4 7.1
-1 2 8 26.2 5.9
-1 2 8 17.8 4.8
-1 2 8 24.8 6.5
-1 2 8 16.7 6.3
-1 2 8 39.9 9.2
0 -2 -8 1376.76 112.79
0 -2 -8 1256.47 109.19
0 -2 -8 1410.26 109.49
0 2 8 1222.68 112.99
0 2 8 1290.67 119.09
0 2 8 1374.96 108.59
0 2 8 1243.28 110.59
0 2 8 1269.77 109.19
-1 -2 -8 706.73 66.39
-1 -2 -8 698.73 64.89
-1 -2 -8 739.13 63.09
-1 -2 -8 652.93 62.59
1 2 8 735.33 67.59
1 2 8 715.53 61.69
1 2 8 752.72 62.99
1 2 8 720.13 66.99
1 2 8 731.23 64.59
1 2 8 699.53 63.09
-2 -2 -8 92.49 16.4
-2 -2 -8 66.49 13.4
-2 -2 -8 76.29 13
-2 -2 -8 71.29 12
-2 -2 -8 92.69 15.9
-2 -2 -8 88.29 13.5
2 2 8 83.89 14.8
2 2 8 79.19 10.7
2 2 8 86.39 14.1
2 2 8 68.19 12.4
2 2 8 72.69 11
2 2 8 69.29 10.7
2 2 8 59.69 12.7
-3 -2 -8 76.09 12.5
-3 -2 -8 88.69 19.1
-3 -2 -8 110.09 13.6
-3 -2 -8 85.69 14.1
-3 -2 -8 80.79 15.4
3 2 8 82.99 10.8
3 2 8 91.29 14.1
3 2 8 79.69 10.2
3 2 8 78.29 14.8
3 2 8 85.59 13
3 2 8 82.39 11.9
-4 -2 -8 51.89 8.9
-4 -2 -8 72.69 15.2
-4 -2 -8 60.89 10.9
4 2 8 35.3 8.3
4 2 8 37.5 12.2
4 2 8 61.59 7.2
4 2 8 48.6 9.3
-5 -2 -8 3.6 2.6
-5 -2 -8 0.9 2.3
-5 -2 -8 8.7 4
-5 -2 -8 7.3 4.1
5 2 8 4.6 2.8
5 2 8 5.5 7.3
8 -3 -8 39.4 8.9
-8 3 8 38.1 7.6
-8 3 8 34.9 6.2
7 -3 -8 1.7 3.8
7 -3 -8 4.4 4.1
-7 3 8 -0.9 2.6
-7 3 8 -2 3.3
6 -3 -8 9.5 5.3
6 -3 -8 4 4.1
6 -3 -8 -4.2 3.8
6 -3 -8 6.1 4.3
-6 3 8 4.6 3.6
-6 3 8 0.7 5.3
-6 3 8 0.5 2.7
-6 3 8 3.6 5.1
5 -3 -8 32.2 8
5 -3 -8 19.2 7.3
5 -3 -8 35.4 8.1
5 -3 -8 19 7.4
5 -3 -8 0.3 11.5
-5 3 8 16.4 4.3
-5 3 8 22.1 6.3
-5 3 8 8.2 5.7
-5 3 8 23.3 6.5
-5 3 8 15.4 7
-5 3 8 12.1 3.9
4 -3 -8 203.48 24.7
4 -3 -8 190.28 36.2
4 -3 -8 212.58 22.5
4 -3 -8 216.68 24.5
4 -3 -8 232.58 23.2
4 -3 -8 233.88 22.5
-4 3 8 174.58 23.3
-4 3 8 202.28 22.1
-4 3 8 177.78 19.5
3 -3 -8 121.89 16.8
3 -3 -8 118.49 15.6
3 -3 -8 134.19 15.7
3 -3 -8 140.19 19.6
3 -3 -8 131.79 19.9
-3 3 8 92.99 13.7
-3 3 8 106.69 14.8
-3 3 8 97.39 12.4
-3 3 8 86.79 13
-3 3 8 102.79 17.7
-3 3 8 113.29 12.8
2 -3 -8 627.14 59.49
2 -3 -8 626.64 56.29
2 -3 -8 626.24 58.09
2 -3 -8 761.32 61.69
-2 3 8 623.64 55.79
-2 3 8 631.24 56.39
-2 3 8 534.55 58.59
-2 3 8 621.84 54.19
1 -3 -8 150.98 24
1 -3 -8 129.19 18.6
1 -3 -8 141.79 16.3
1 -3 -8 119.19 16.8
1 -3 -8 128.29 17.8
-1 3 8 136.49 17
-1 3 8 124.59 17.6
-1 3 8 120.49 15
-1 3 8 101.49 15.5
-1 3 8 148.19 20
-1 3 8 147.39 15.4
0 -3 -8 1253.07 106.49
0 -3 -8 1239.78 108.59
0 3 8 1330.37 105.69
0 3 8 1232.78 108.39
0 3 8 1091.49 106.29
0 3 8 1214.88 111.39
0 3 8 1379.76 105.49
0 3 8 1358.46 108.19
-1 -3 -8 393.26 44.2
-1 -3 -8 396.16 38.8
-1 -3 -8 413.76 41.1
1 3 8 396.76 36.8
1 3 8 412.26 40.5
1 3 8 391.16 37
1 3 8 424.96 40.1
-2 -3 -8 655.63 60.99
-2 -3 -8 710.23 63.99
-2 -3 -8 653.13 60.49
2 3 8 693.93 66.39
2 3 8 756.32 63.09
2 3 8 650.23 62.49
2 3 8 751.72 59.29
-3 -3 -8 -1.1 2.9
-3 -3 -8 11.7 8.3
-3 -3 -8 8.3 4.7
3 3 8 -1.2 7.4
3 3 8 1.7 4.8
3 3 8 8.1 4.4
3 3 8 2.5 2.8
-4 -3 -8 49.3 9.8
-4 -3 -8 56.49 10.1
4 3 8 59.39 8.2
4 3 8 35.9 10.4
8 -4 -8 5.1 3.2
8 -4 -8 -0.6 3.4
-8 4 8 2.4 2.6
-8 4 8 0.3 2.3
7 -4 -8 7.4 4.8
7 -4 -8 10.6 5.5
-7 4 8 8.9 4.7
-7 4 8 6.4 3.2
6 -4 -8 -0.9 4.6
6 -4 -8 1.5 4.2
6 -4 -8 4.6 3.9
-6 4 8 6.9 3.6
-6 4 8 -0.3 2.9
5 -4 -8 44.9 9.4
5 -4 -8 54.79 9.2
5 -4 -8 40.3 10.5
5 -4 -8 39.8 8.8
-5 4 8 34 9.8
-5 4 8 49.2 12.2
-5 4 8 46.6 7.8
-5 4 8 48 9
4 -4 -8 118.69 18.1
4 -4 -8 140.69 17.2
4 -4 -8 131.59 28.3
4 -4 -8 121.69 18.1
4 -4 -8 143.49 16.8
-4 4 8 123.29 16.3
-4 4 8 129.39 14.1
-4 4 8 121.89 18.7
3 -4 -8 1.1 3.9
3 -4 -8 5.7 5.3
3 -4 -8 6.4 5.3
3 -4 -8 4.5 4.7
3 -4 -8 18.8 12.1
3 -4 -8 -0.3 4.2
-3 4 8 1.7 6.9
-3 4 8 3.3 3.6
-3 4 8 5.5 3.7
-3 4 8 -3.7 4
2 -4 -8 203.48 20.2
2 -4 -8 175.08 21.2
2 -4 -8 165.18 21.9
2 -4 -8 128.49 25
2 -4 -8 206.68 19.9
2 -4 -8 151.68 19.1
-2 4 8 169.28 20.2
-2 4 8 178.68 19.9
-2 4 8 157.68 17.5
-2 4 8 129.89 21.9
-2 4 8 130.39 17.2
1 -4 -8 16.8 14.5
1 -4 -8 7.3 5.9
1 -4 -8 7.5 5.1
1 -4 -8 34.5 9.3
1 -4 -8 15.7 6.2
-1 4 8 8.7 4.3
-1 4 8 5.5 11.2
-1 4 8 2.2 4.5
-1 4 8 11.5 5.5
-1 4 8 10.9 5.5
0 -4 -8 71.99 28.9
0 -4 -8 138.89 21.8
0 4 8 120.89 20
-1 -4 -8 3.7 4.2
-1 -4 -8 2.3 4.1
1 4 8 1.8 4.1
1 4 8 -2.6 3.1
1 4 8 0.4 3.4
-2 -4 -8 24.1 7.5
-2 -4 -8 28.2 7.2
2 4 8 16.6 5.7
2 4 8 15.1 5.8
-3 -4 -8 44.4 9.2
3 4 8 60.89 8.4
3 4 8 54.29 8.8
8 -5 -8 8.2 3.8
-8 5 8 4.6 3
-8 5 8 2.5 2.8
7 -5 -8 67.19 8.9
7 -5 -8 62.99 10.5
-7 5 8 61.29 8.5
-7 5 8 68.99 9.6
6 -5 -8 404.26 39.9
6 -5 -8 406.76 37.5
-6 5 8 424.96 36.6
-6 5 8 401.36 37.7
5 -5 -8 2.5 5.8
5 -5 -8 -2.4 3.2
5 -5 -8 0.1 4
-5 5 8 3.8 3.4
-5 5 8 2.3 3.5
-5 5 8 2.9 6.9
4 -5 -8 619.04 54.19
4 -5 -8 594.54 55.89
4 -5 -8 647.04 54.49
-4 5 8 547.95 53.79
3 -5 -8 15.9 6.3
3 -5 -8 2.4 7.2
3 -5 -8 13.5 5.7
-3 5 8 20.7 6.4
-3 5 8 20.4 7.2
2 -5 -8 319.47 33
2 -5 -8 347.57 35
-2 5 8 349.96 34.1
-2 5 8 331.87 34.2
1 -5 -8 159.28 18.4
1 -5 -8 144.89 19.2
-1 5 8 163.88 19.4
-1 5 8 150.28 19.4
0 -5 -8 19.6 6.8
0 -5 -8 19.1 5.6
0 5 8 8.7 4.7
0 5 8 13.8 5.1
-1 -5 -8 53.19 8.8
1 5 8 51.69 11.6
-2 -5 -8 19.6 4.9
-2 -5 -8 16.5 4.5
2 5 8 17.8 4.7
2 5 8 16 3.8
7 -6 -8 1052.09 86.89
-7 6 8 1078.79 87.59
6 -6 -8 16.9 5
6 -6 -8 3.6 4.4
-6 6 8 0.5 3.8
-6 6 8 9.2 4.7
5 -6 -8 1727.03 136.09
5 -6 -8 1401.46 134.29
-5 6 8 1683.93 132.19
-5 6 8 1704.43 137.59
4 -6 -8 23.6 6.4
4 -6 -8 20.6 7.6
-4 6 8 30.5 7.8
-4 6 8 27.5 8.7
3 -6 -8 1038.3 86.89
3 -6 -8 998.1 84.89
-3 6 8 976.1 85.89
2 -6 -8 132.99 15.9
2 -6 -8 120.49 17.6
-2 6 8 140.59 17.3
1 -6 -8 309.47 33.5
1 -6 -8 381.86 34.2
-1 6 8 331.87 31.9
-1 6 8 338.17 35.9
0 -6 -8 138.49 17.1
0 -6 -8 163.78 15.8
0 6 8 128.39 16
0 6 8 147.19 16
-1 -6 -8 144.29 15
-1 -6 -8 120.29 15.1
6 -7 -8 12 2.9
-6 7 8 20.2 5.5
-6 7 8 4.6 3.4
5 -7 -8 40.1 7.8
-5 7 8 25.9 5.2
4 -7 -8 17.2 4.4
4 -7 -8 19.1 6.7
-4 7 8 14.2 4.3
3 -7 -8 162.08 16.4
3 -7 -8 153.28 18.1
-3 7 8 163.78 17.4
2 -7 -8 -3.1 3.6
2 -7 -8 2.3 3.1
-2 7 8 2.3 3.1
-2 7 8 -2.6 2.7
1 -7 -8 72.59 11.6
1 -7 -8 82.99 8.9
-1 7 8 71.59 9.3
-1 10 -9 -4.6 6.6
-1 10 -9 5 2.9
-2 10 -9 4.6 4.7
-2 10 -9 2.3 3.1
-3 10 -9 4.5 3.3
-3 10 -9 0.9 3.3
-4 10 -9 23.5 9
1 9 -9 14.7 9.7
0 9 -9 122.59 18.1
0 9 -9 179.68 29.4
-1 9 -9 25 17.7
-1 9 -9 27.8 9
-1 9 -9 83.29 28.4
-1 9 -9 39.3 9.7
-2 9 -9 54.19 10
-2 9 -9 95.59 16.3
-2 9 -9 83.99 17.9
-3 9 -9 77.39 11.9
-3 9 -9 67.09 12.4
-3 9 -9 86.79 15.9
-4 9 -9 26.7 7.2
-4 9 -9 18.8 6.4
-4 9 -9 18.1 5.9
-5 9 -9 87.89 13.8
-5 9 -9 68.89 12.5
-5 9 -9 95.39 14.1
-6 9 -9 7.4 4.4
-6 9 -9 -3.2 2.7
-6 9 -9 2.9 3
-3 -8 9 77.29 10.3
-2 -8 9 149.79 16.2
-2 -8 9 153.08 15.1
1 8 -9 136.19 17.6
1 8 -9 158.18 28.3
-1 -8 9 100.09 12.8
0 8 -9 366.56 41.4
0 8 -9 384.06 46.8
-1 8 -9 137.39 21.8
-1 8 -9 148.69 27.6
-1 8 -9 121.29 25.7
-1 8 -9 111.89 23.3
-2 8 -9 538.75 48.4
-2 8 -9 566.64 57.89
-2 8 -9 539.15 54.39
-2 8 -9 519.65 54.79
-2 8 -9 411.26 52.39
-2 8 -9 464.45 47.3
-2 8 -9 470.65 64.19
-2 8 -9 462.15 56.69
-3 8 -9 48.4 14.1
-3 8 -9 57.69 16.6
-3 8 -9 50.99 11.1
-3 8 -9 36.7 9.8
-3 8 -9 51.29 10.8
-3 8 -9 54.09 11.9
-3 8 -9 53.79 15.1
-3 8 -9 32.4 10.6
-3 8 -9 47 10.4
-4 8 -9 410.66 50.09
-4 8 -9 414.56 41.6
-4 8 -9 425.06 40.6
-4 8 -9 344.27 40.6
-5 8 -9 -2.2 4.1
-5 8 -9 3.2 3.8
-5 8 -9 -3 2.9
-5 8 -9 0.8 5.3
-6 8 -9 270.37 27.2
-6 8 -9 191.68 25
-6 8 -9 220.18 24.9
-7 8 -9 1.3 2
-7 8 -9 -1.5 2.2
4 7 -9 12.5 6.2
-4 -7 9 0.6 1.7
-3 -7 9 148.59 14
-3 -7 9 120.79 13.8
2 7 -9 68.99 22.3
2 7 -9 48 11.1
-2 -7 9 27.6 7.6
-2 -7 9 41.7 6.6
-2 -7 9 46.7 6.8
1 7 -9 325.87 35.9
1 7 -9 361.06 41.7
1 7 -9 289.47 32.4
-1 -7 9 305.57 29.1
-1 -7 9 327.77 29.5
0 7 -9 3 4.5
0 7 -9 9.1 9.8
0 7 -9 5.1 6.4
0 7 -9 -8.7 7.7
0 7 -9 6.5 4.6
0 7 -9 17.3 6.5
0 7 -9 12.7 8.6
0 -7 9 9.6 4
-1 7 -9 89.49 13.9
-1 7 -9 56.39 21.6
-1 7 -9 78.09 12.9
-1 7 -9 56.59 11.6
-1 7 -9 61.19 18.3
-1 7 -9 78.09 19.4
-1 7 -9 76.49 15.7
-1 7 -9 89.39 17.4
-1 7 -9 68.49 21.6
-2 7 -9 12.2 5.9
-2 7 -9 8.7 5.8
-2 7 -9 10.9 6.6
-2 7 -9 17.2 8.4
-2 7 -9 14.9 9.4
-2 7 -9 1.9 3.9
-2 7 -9 12.1 9.8
-2 7 -9 8.2 7.6
-2 7 -9 6.1 4.5
-2 7 -9 19.1 11.4
-2 7 -9 9.9 5.5
-3 7 -9 105.19 19.3
-3 7 -9 86.49 18.9
-3 7 -9 153.08 26.3
-3 7 -9 125.39 21.7
-3 7 -9 92.39 21.1
-3 7 -9 105.09 17.2
-3 7 -9 80.39 15.1
-3 7 -9 131.99 23.6
-3 7 -9 100.79 24.5
-4 7 -9 0.4 5.5
-4 7 -9 6.3 3.8
-4 7 -9 -5.6 4.7
-4 7 -9 -2.6 7.9
-4 7 -9 3.5 6.3
-4 7 -9 4.3 5.9
-4 7 -9 4.1 3.6
-4 7 -9 4.7 9.1
-5 7 -9 8.9 6.8
-5 7 -9 9.5 8
-5 7 -9 10.4 7.5
-5 7 -9 6.1 4.2
-5 7 -9 11.7 6.3
5 -7 9 18.9 4.3
-6 7 -9 3.8 4.4
-6 7 -9 10.4 6.2
-6 7 -9 6.5 7.6
-6 7 -9 2.6 4.6
6 -7 9 16.9 5.3
6 -7 9 10.3 3.2
-7 7 -9 -1.1 3.5
-7 7 -9 16 8.8
-7 7 -9 6.8 3.8
7 -7 9 4.1 2.6
5 6 -9 57.29 14
-5 -6 9 29.5 6.1
-4 -6 9 263.57 27.6
-4 -6 9 309.57 27.4
-4 -6 9 348.57 27.7
3 6 -9 102.39 23.8
3 6 -9 96.89 15.9
-3 -6 9 92.99 11.1
-3 -6 9 82.39 10.9
-3 -6 9 103.49 11
2 6 -9 730.23 66.69
2 6 -9 687.13 67.69
2 6 -9 636.34 59.39
2 6 -9 578.44 58.49
-2 -6 9 584.04 53.79
1 6 -9 317.47 41.7
1 6 -9 299.97 34.2
1 6 -9 311.17 36.9
1 6 -9 299.77 40.8
1 6 -9 252.87 42
1 6 -9 295.47 32.1
1 6 -9 241.18 32.1
-1 -6 9 354.46 28.2
-1 -6 9 287.07 30.4
0 6 -9 1605.04 127.99
0 6 -9 1181.48 119.89
0 6 -9 1325.07 123.79
0 6 -9 1387.76 138.79
0 6 -9 1370.36 120.39
0 6 -9 1525.35 121.59
0 6 -9 1528.95 128.39
0 -6 9 1397.56 118.59
-1 6 -9 498.35 49.7
-1 6 -9 484.45 49
-1 6 -9 504.05 54.89
-1 6 -9 601.24 50.29
-1 6 -9 517.25 52.29
-1 6 -9 455.85 53.09
-1 6 -9 423.66 59.49
-1 6 -9 564.64 49.99
-1 6 -9 496.15 51.79
-2 6 -9 940.31 82.19
-2 6 -9 836.02 72.89
-2 6 -9 730.33 70.79
-2 6 -9 646.44 69.79
-2 6 -9 825.02 71.59
-2 6 -9 803.12 71.99
-2 6 -9 859.91 83.59
-2 6 -9 835.22 74.69
-2 6 -9 768.42 74.79
-2 6 -9 688.83 73.29
-3 6 -9 842.82 81.59
-3 6 -9 1032.3 85.09
-3 6 -9 936.81 84.69
-3 6 -9 919.51 90.89
-3 6 -9 842.72 82.19
-3 6 -9 946.91 84.89
-3 6 -9 1005.4 84.49
-3 6 -9 941.81 83.19
-3 6 -9 835.42 96.19
-4 6 -9 106.19 15.5
-4 6 -9 86.89 18.8
-4 6 -9 95.69 16.3
-4 6 -9 75.99 15.4
-4 6 -9 76.59 20.8
-4 6 -9 69.89 25.6
-4 6 -9 63.69 19
-4 6 -9 106.29 22.7
-4 6 -9 102.89 16.3
4 -6 9 94.99 10.6
-5 6 -9 559.74 51.79
-5 6 -9 423.26 50.49
-5 6 -9 554.74 57.39
-5 6 -9 528.95 50.69
-5 6 -9 502.25 49.99
5 -6 9 452.85 49.9
-6 6 -9 165.48 24.1
-6 6 -9 188.88 24.5
6 -6 9 255.37 21.6
6 -6 9 221.68 20.6
6 -6 9 221.18 20.3
-7 6 -9 337.67 37.5
7 -6 9 378.86 31.5
7 -6 9 359.86 33.6
-5 -5 9 329.57 26.8
-5 -5 9 273.37 26.3
-5 -5 9 292.37 27.3
4 5 -9 440.96 48.3
4 5 -9 312.07 38.7
-4 -5 9 372.86 33.5
-4 -5 9 386.06 33.6
-4 -5 9 387.16 38.7
-4 -5 9 397.06 34.4
3 5 -9 429.56 56.79
3 5 -9 424.46 45.1
3 5 -9 327.07 53.39
3 5 -9 410.06 42
3 5 -9 351.36 44.2
-3 -5 9 394.36 36.3
-3 -5 9 454.15 36.5
-3 -5 9 411.66 38.8
-3 -5 9 455.05 37.1
2 5 -9 1012 98.49
2 5 -9 1028.1 109.79
2 5 -9 935.61 94.59
2 5 -9 1207.68 105.19
-2 -5 9 1155.48 89.89
-2 -5 9 1108.19 92.49
-2 -5 9 1157.28 89.39
1 5 -9 282.07 41.1
1 5 -9 254.57 30
1 5 -9 302.87 31.6
1 5 -9 318.27 35.2
1 5 -9 324.07 36.2
1 5 -9 221.48 35.7
1 5 -9 293.57 32.6
1 5 -9 230.38 37.4
-1 -5 9 331.57 26.2
0 5 -9 3209.98 232.38
0 5 -9 2686.13 223.68
0 5 -9 2356.56 242.48
0 5 -9 2910.71 223.68
0 5 -9 2597.44 228.38
0 5 -9 2888.71 226.48
0 5 -9 2363.56 228.28
-1 5 -9 1.3 8
-1 5 -9 12.6 9.4
-1 5 -9 5.5 6.3
-1 5 -9 19.8 6.7
-1 5 -9 1.4 4.6
-1 5 -9 2.3 9.5
-1 5 -9 10 5.6
-1 5 -9 11 5.8
-1 5 -9 4.7 6.8
-1 5 -9 7.3 4.8
-1 5 -9 5.9 5
-1 5 -9 1.1 4.9
-1 5 -9 5.7 5.1
1 -5 9 4.7 4.2
-2 5 -9 1298.77 108.69
-2 5 -9 1400.06 122.59
-2 5 -9 1197.58 109.59
-2 5 -9 1334.17 108.89
-2 5 -9 1206.68 108.39
-2 5 -9 1423.26 116.79
-2 5 -9 1291.07 108.09
-2 5 -9 1069.49 108.29
-2 5 -9 1366.56 108.69
-2 5 -9 1007.8 112.49
2 -5 9 1386.56 100.89
2 -5 9 1080.29 105.09
-3 5 -9 151.28 21.3
-3 5 -9 186.48 23.2
-3 5 -9 190.88 24.6
-3 5 -9 230.08 30.1
-3 5 -9 173.58 23.4
-3 5 -9 204.18 26.9
-3 5 -9 194.98 28.9
-3 5 -9 202.28 23.8
-3 5 -9 183.58 34.3
-3 5 -9 209.48 24.6
-4 5 -9 644.74 61.79
-4 5 -9 519.95 56.69
-4 5 -9 566.24 58.39
-4 5 -9 558.84 57.19
-4 5 -9 529.75 57.89
-4 5 -9 660.43 58.19
-4 5 -9 657.53 58.59
4 -5 9 674.23 58.29
-5 5 -9 -0.7 3.4
-5 5 -9 13.8 5.3
-5 5 -9 5.3 5.2
-5 5 -9 6 4.5
-5 5 -9 7.7 7.5
-5 5 -9 2.2 7.9
5 -5 9 0.5 3
5 -5 9 2.2 2.6
5 -5 9 -0.6 3.5
5 -5 9 0.5 6
-6 5 -9 249.78 29.9
-6 5 -9 260.47 29.7
-6 5 -9 251.87 33.7
6 -5 9 275.37 29.4
6 -5 9 301.87 25.9
-7 5 -9 30.9 9.6
-7 5 -9 31.8 7
-7 5 -9 26.9 7.1
-7 5 -9 24.5 6.1
7 -5 9 45.2 5.9
7 -5 9 32.8 6.8
7 -5 9 40.4 5.7
-6 -4 9 312.17 30.3
-6 -4 9 365.76 29.6
5 4 -9 80.49 15.8
5 4 -9 67.89 13.1
-5 -4 9 64.39 8.3
-5 -4 9 53.19 7.7
-5 -4 9 67.99 14.7
-5 -4 9 55.59 9.7
4 4 -9 381.16 41.5
4 4 -9 429.26 43.7
4 4 -9 428.76 47.4
4 4 -9 458.15 51.39
-4 -4 9 426.56 39
-4 -4 9 423.86 36.7
-4 -4 9 407.16 36.6
-4 -4 9 441.96 37.6
-4 -4 9 367.46 37.9
3 4 -9 487.15 54.99
3 4 -9 428.26 48.5
3 4 -9 400.86 44.8
3 4 -9 399.56 43.2
3 4 -9 424.96 52.79
3 4 -9 384.96 46.2
-3 -4 9 413.96 37.7
-3 -4 9 492.45 38.2
-3 -4 9 465.65 38.7
2 4 -9 536.25 60.09
2 4 -9 471.55 58.49
2 4 -9 534.55 54.29
2 4 -9 501.85 51.09
-2 -4 9 586.04 45.7
-2 -4 9 563.64 46.1
1 4 -9 41.6 13.8
1 4 -9 39.5 17.3
1 4 -9 30.2 13.5
1 4 -9 28.4 10.8
1 4 -9 34.7 10.4
1 4 -9 40.5 10.3
-1 -4 9 40.2 6.1
-1 -4 9 43.5 5.8
0 4 -9 356.06 39.2
0 4 -9 304.87 32.2
0 4 -9 243.78 34.5
0 4 -9 310.77 32.6
0 4 -9 287.37 35.9
0 4 -9 342.57 34.8
0 4 -9 307.57 32.7
0 -4 9 318.27 30.9
0 -4 9 348.87 29
0 -4 9 321.77 30.8
-1 4 -9 144.29 22.7
-1 4 -9 103.39 16.3
-1 4 -9 136.39 16.6
-1 4 -9 119.79 17.5
-1 4 -9 134.39 17.1
-1 4 -9 117.09 16.1
-1 4 -9 81.99 28.1
-1 4 -9 83.49 18.3
-1 4 -9 108.79 15.4
-1 4 -9 88.99 18.1
1 -4 9 113.79 14.7
1 -4 9 137.29 11.8
1 -4 9 109.69 20.2
-2 4 -9 201.98 42.7
-2 4 -9 253.77 34.9
-2 4 -9 303.77 30.7
-2 4 -9 252.77 31.7
-2 4 -9 252.27 30.1
-2 4 -9 320.67 41.5
-2 4 -9 280.27 32.5
-2 4 -9 309.77 36
-3 4 -9 700.43 62.29
-3 4 -9 711.43 60.39
-3 4 -9 552.84 61.29
-3 4 -9 617.84 60.39
-3 4 -9 573.44 58.89
-3 4 -9 699.43 61.49
-4 4 -9 203.58 27.1
-4 4 -9 225.48 28.8
-4 4 -9 290.87 28.6
-4 4 -9 223.98 27.7
-4 4 -9 253.67 30
-5 4 -9 179.48 24.3
-5 4 -9 155.88 21.1
5 -4 9 188.48 19.1
5 -4 9 191.08 19.6
5 -4 9 190.18 23.4
5 -4 9 182.88 18.2
-6 4 -9 0.4 3.2
-6 4 -9 0.6 4.7
-6 4 -9 7.9 5.8
-6 4 -9 -5.8 3.9
-6 4 -9 2.9 4.4
6 -4 9 2.1 8.2
6 -4 9 -1.5 3
6 -4 9 3.3 4.2
6 -4 9 1.9 2.5
6 -4 9 4.4 3
-7 4 -9 42.3 9.4
7 -4 9 53.59 8
7 -4 9 61.39 8.5
7 3 -9 68.09 9.2
7 3 -9 91.79 11.7
-7 -3 9 75.69 9.9
-7 -3 9 71.79 7.7
6 3 -9 44.7 11.4
6 3 -9 47.5 11.4
-6 -3 9 43.1 6.5
-6 -3 9 34.3 6.3
-6 -3 9 49.1 9.7
-6 -3 9 40.8 6
5 3 -9 386.06 34.9
5 3 -9 363.86 42.9
5 3 -9 356.46 39.5
-5 -3 9 353.26 32.8
-5 -3 9 367.86 32.1
-5 -3 9 327.77 33.5
-5 -3 9 364.86 32.2
4 3 -9 521.55 54.29
4 3 -9 431.26 45.1
4 3 -9 476.05 48
4 3 -9 447.06 49.8
4 3 -9 531.05 51.59
4 3 -9 466.05 54.79
-4 -3 9 465.05 43.7
-4 -3 9 536.45 42.3
-4 -3 9 518.25 42.3
-4 -3 9 453.25 45.8
3 3 -9 1138.79 110.29
3 3 -9 1158.98 102.69
3 3 -9 1215.28 110.19
3 3 -9 1094.59 111.39
3 3 -9 1299.97 98.89
3 3 -9 1073.29 103.39
3 3 -9 1204.78 112.19
-3 -3 9 1113.49 98.49
-3 -3 9 1275.87 97.29
-3 -3 9 1141.79 96.29
-3 -3 9 1231.98 102.29
2 3 -9 1602.64 139.69
2 3 -9 1566.94 132.99
2 3 -9 1588.84 153.48
2 3 -9 1612.94 137.69
2 3 -9 1453.75 139.69
-2 -3 9 1715.73 129.09
1 3 -9 905.61 90.89
1 3 -9 981.9 84.59
1 3 -9 967.6 83.69
1 3 -9 938.71 88.39
1 3 -9 859.81 98.59
-1 -3 9 1033.6 79.69
-1 -3 9 1007.5 82.89
-1 -3 9 1021.7 82.99
0 3 -9 2163.28 181.58
0 3 -9 2040.7 181.98
0 3 -9 2248.48 188.38
0 3 -9 2081.59 181.28
0 3 -9 2102.99 180.68
0 -3 9 2326.97 176.18
0 -3 9 2367.46 180.98
0 -3 9 2234.68 180.18
0 -3 9 2249.87 176.18
-1 3 -9 723.93 65.59
-1 3 -9 736.83 65.59
-1 3 -9 695.93 65.29
-1 3 -9 654.63 66.09
-1 3 -9 719.23 73.49
-1 3 -9 668.13 65.39
1 -3 9 748.03 61.89
1 -3 9 813.42 66.59
1 -3 9 731.83 60.99
1 -3 9 841.62 67.99
-2 3 -9 3834.42 296.47
-2 3 -9 3587.44 303.57
-2 3 -9 3450.25 297.27
-2 3 -9 3640.94 296.57
-2 3 -9 3323.17 296.87
-2 3 -9 3510.95 296.77
-2 3 -9 3854.21 309.37
2 -3 9 4056.49 292.37
-3 3 -9 8.7 5.8
-3 3 -9 24.7 7.3
-3 3 -9 5.5 5.8
-3 3 -9 7.6 6.4
-3 3 -9 -0.4 9.1
-3 3 -9 3.8 10.4
3 -3 9 9.4 3.8
3 -3 9 6.3 6.6
3 -3 9 9.5 3.4
-4 3 -9 1336.47 122.69
-4 3 -9 1463.45 124.99
-4 3 -9 1332.47 123.69
-4 3 -9 1450.85 120.89
4 -3 9 1532.55 116.89
-5 3 -9 17.3 6.5
-5 3 -9 33.5 11.2
-5 3 -9 17.6 8
-5 3 -9 20.5 8
-5 3 -9 16.5 9
-5 3 -9 13.8 5.9
5 -3 9 5.3 4.9
5 -3 9 24.4 5.4
5 -3 9 19.3 7.5
5 -3 9 14.1 4.5
5 -3 9 26.4 6
-6 3 -9 218.28 27.5
-6 3 -9 180.88 24.9
6 -3 9 191.78 20.7
6 -3 9 154.28 23.8
6 -3 9 218.68 19.9
6 -3 9 206.98 19.3
-7 3 -9 5.3 4
-7 3 -9 11.9 5.4
7 -3 9 9.9 3.3
7 2 -9 3.1 2.5
7 2 -9 12.5 8.1
7 2 -9 1.4 3.6
-7 -2 9 -1 1.2
-7 -2 9 5.7 2.9
-7 -2 9 2.1 1.8
6 2 -9 114.89 17.2
6 2 -9 131.99 15.5
6 2 -9 129.59 20
-6 -2 9 110.39 12.6
-6 -2 9 112.19 12.4
-6 -2 9 118.29 14.4
5 2 -9 91.39 16.6
5 2 -9 96.89 17.1
5 2 -9 94.79 17.3
5 2 -9 137.79 24.4
5 2 -9 104.39 20.3
-5 -2 9 79.29 13.6
-5 -2 9 97.49 11.9
-5 -2 9 114.69 11.7
4 2 -9 312.67 37.5
4 2 -9 302.67 36.1
4 2 -9 286.77 38.8
4 2 -9 264.87 30.6
4 2 -9 260.57 31.5
4 2 -9 337.27 33.7
4 2 -9 288.77 34.5
-4 -2 9 304.47 27.4
-4 -2 9 319.97 28.4
-4 -2 9 322.07 29.1
-4 -2 9 319.27 27.6
3 2 -9 543.95 56.99
3 2 -9 444.16 47.4
3 2 -9 531.95 49.7
3 2 -9 531.85 56.89
3 2 -9 465.35 51.39
3 2 -9 567.44 58.89
-3 -2 9 535.35 44.3
-3 -2 9 512.65 44.2
-3 -2 9 555.74 45.1
-3 -2 9 528.65 47.1
-3 -2 9 496.15 45.5
2 2 -9 231.58 24.7
2 2 -9 242.58 24.4
2 2 -9 215.88 31.8
2 2 -9 236.78 28.5
2 2 -9 240.98 29.4
2 2 -9 257.57 34.7
2 2 -9 252.17 25.9
2 2 -9 219.38 24.1
-2 -2 9 243.58 21.5
-2 -2 9 236.98 24.5
-2 -2 9 210.78 21.6
-2 -2 9 229.08 21.8
1 2 -9 581.64 64.69
1 2 -9 690.23 60.79
1 2 -9 824.42 69.29
1 2 -9 624.34 67.19
1 2 -9 701.33 61.79
1 2 -9 649.04 59.69
-1 -2 9 733.53 61.99
-1 -2 9 720.83 62.29
-1 -2 9 786.62 58.49
0 2 -9 20 10.1
0 2 -9 38.4 8.9
0 2 -9 24.9 7.2
0 2 -9 37.9 9.2
0 2 -9 27.7 7.6
0 2 -9 27.9 7.3
0 2 -9 34 11.1
0 2 -9 37.8 5.7
0 -2 9 28.5 8.5
0 -2 9 32.6 5.5
0 -2 9 33.2 8.1
0 -2 9 27 7.5
-1 2 -9 209.18 19
-1 2 -9 219.08 28.6
-1 2 -9 200.88 22.3
-1 2 -9 194.38 22.3
-1 2 -9 194.88 22.3
-1 2 -9 162.88 23.8
-1 2 -9 190.78 23.1
-1 2 -9 207.78 20.8
1 -2 9 195.68 19.6
1 -2 9 214.78 24.7
1 -2 9 194.78 19
-2 2 -9 400.36 45.8
-2 2 -9 416.46 39.2
-2 2 -9 363.16 36.7
-2 2 -9 387.76 41
-2 2 -9 403.06 39.9
-2 2 -9 436.76 35.8
-2 2 -9 409.76 40.2
2 -2 9 442.06 36.6
2 -2 9 348.17 36.1
2 -2 9 436.36 37.1
2 -2 9 415.66 40.1
-3 2 -9 -0.1 8
-3 2 -9 14.4 5.5
-3 2 -9 0 4.2
-3 2 -9 11.1 4.8
-3 2 -9 5.5 3.6
-3 2 -9 6 14.4
-3 2 -9 3 5.2
-3 2 -9 14.7 6.9
3 -2 9 0.5 6.6
3 -2 9 10.9 4.1
3 -2 9 4.1 2.9
3 -2 9 -0.1 5
3 -2 9 3.8 4
-4 2 -9 216.88 25.8
-4 2 -9 209.38 25.9
-4 2 -9 259.27 28
-4 2 -9 193.48 21.4
-4 2 -9 177.48 21.6
-4 2 -9 188.28 21.9
-4 2 -9 248.88 37.4
4 -2 9 198.28 25
4 -2 9 201.18 24.2
4 -2 9 198.58 20.3
4 -2 9 170.78 21.5
4 -2 9 245.08 21.6
-5 2 -9 31.9 9.3
-5 2 -9 37.7 11.6
-5 2 -9 24.4 9.8
-5 2 -9 19.7 6.5
5 -2 9 29.3 7.1
5 -2 9 33.8 6.4
5 -2 9 36.5 6.5
5 -2 9 28.7 8.9
5 -2 9 35.3 6.6
-6 2 -9 95.89 15.1
-6 2 -9 71.59 12.5
-6 2 -9 48.1 9.3
6 -2 9 67.29 8.6
6 -2 9 64.29 9.2
6 -2 9 65.29 10.1
6 -2 9 64.39 8.4
-7 2 -9 0 2
-7 2 -9 2.4 2.7
7 -2 9 2.5 1.6
7 -2 9 4.4 2.3
7 -2 9 -0.8 2.1
8 1 -9 11.6 3.8
-8 -1 9 21.8 4.8
7 1 -9 43.7 11.8
7 1 -9 25.4 8.7
-7 -1 9 19.7 4
-7 -1 9 20.5 5.6
-7 -1 9 23 5.7
-7 -1 9 46 11.7
6 1 -9 109.19 16.4
6 1 -9 107.19 20.6
6 1 -9 102.99 14.9
-6 -1 9 116.89 12.7
-6 -1 9 119.89 12.5
-6 -1 9 117.59 13.7
-6 -1 9 92.09 11.9
5 1 -9 44.7 11.2
5 1 -9 48.9 11.7
5 1 -9 45 11.4
5 1 -9 62.09 13.7
5 1 -9 44.1 13.2
5 1 -9 65.09 13
-5 -1 9 58.79 10.7
-5 -1 9 60.39 8.5
-5 -1 9 50.29 7.6
-5 -1 9 60.59 8.2
-5 -1 9 59.29 9.3
4 1 -9 335.07 38.3
4 1 -9 355.46 41
4 1 -9 310.57 35.4
4 1 -9 372.86 41.8
4 1 -9 356.46 36.5
-4 -1 9 370.26 32.9
-4 -1 9 363.26 36.7
-4 -1 9 384.76 32.1
-4 -1 9 353.76 33.2
3 1 -9 154.88 23
3 1 -9 150.28 20.5
3 1 -9 133.29 25.5
3 1 -9 149.29 18.1
3 1 -9 151.08 18.7
-3 -1 9 125.39 14.4
-3 -1 9 142.99 17.2
-3 -1 9 149.19 14.7
-3 -1 9 139.59 15.1
2 1 -9 199.98 25.2
2 1 -9 245.38 23.5
2 1 -9 238.38 29
2 1 -9 206.68 30
2 1 -9 209.98 26.2
2 1 -9 219.38 22.9
2 1 -9 221.98 22.6
-2 -1 9 191.78 20.5
-2 -1 9 208.48 20.2
-2 -1 9 170.98 19.1
-2 -1 9 209.38 19.6
-2 -1 9 198.18 22.7
1 1 -9 625.74 55.49
1 1 -9 661.63 56.89
1 1 -9 550.14 57.59
1 1 -9 677.13 70.99
1 1 -9 649.04 61.59
1 1 -9 664.13 61.69
1 1 -9 669.03 55.49
-1 -1 9 597.44 56.49
-1 -1 9 587.34 57.09
-1 -1 9 600.64 53.39
-1 -1 9 671.23 53.29
0 1 -9 76.29 21.5
0 1 -9 48.9 9.8
0 1 -9 52.89 14.4
0 1 -9 49.99 9.3
0 1 -9 43.8 9.1
0 1 -9 56.29 9.3
0 1 -9 48.2 12.6
0 1 -9 57.39 8.6
0 -1 9 57.59 8.1
0 -1 9 52.59 9.9
0 -1 9 47.9 10.5
0 -1 9 56.69 7.8
-1 1 -9 343.37 30.5
-1 1 -9 306.97 32.2
-1 1 -9 370.66 44.1
-1 1 -9 320.47 32
-1 1 -9 336.37 32.2
-1 1 -9 302.47 30.6
1 -1 9 331.37 30.1
1 -1 9 289.77 30.8
1 -1 9 296.07 32.6
1 -1 9 341.57 29.5
1 -1 9 262.57 28.7
1 -1 9 333.17 35
-2 1 -9 268.37 29.2
-2 1 -9 281.77 33.1
-2 1 -9 267.47 25.7
-2 1 -9 304.87 33.9
-2 1 -9 267.67 27.5
2 -1 9 206.78 27.8
2 -1 9 245.88 26.3
2 -1 9 260.97 24.3
2 -1 9 211.08 23.1
2 -1 9 201.88 26.5
2 -1 9 236.28 24.6
-3 1 -9 173.98 22
-3 1 -9 168.28 20.3
-3 1 -9 170.38 22.1
-3 1 -9 178.48 20.5
3 -1 9 164.98 18.1
3 -1 9 186.88 22.6
3 -1 9 200.38 20
3 -1 9 186.08 19
3 -1 9 170.88 20.2
-4 1 -9 106.29 16.4
-4 1 -9 122.29 17.3
-4 1 -9 108.29 16.2
-4 1 -9 105.79 16.4
-4 1 -9 138.39 25
4 -1 9 111.89 13.8
4 -1 9 77.09 12.6
4 -1 9 113.29 12.9
4 -1 9 89.59 18.7
-5 1 -9 31.3 8.9
-5 1 -9 36.1 11.9
-5 1 -9 46.7 10
-5 1 -9 32.7 7.5
5 -1 9 21.6 5.9
5 -1 9 36.4 6.9
5 -1 9 35.3 6.2
5 -1 9 19.6 10.5
5 -1 9 32.6 6
-6 1 -9 2.4 3.2
-6 1 -9 13.9 5.9
-6 1 -9 3.6 3.3
-6 1 -9 1.3 3.2
6 -1 9 7.9 2.8
6 -1 9 1.9 3.1
6 -1 9 2.1 3.5
6 -1 9 2.5 2.1
8 0 -9 1.9 3
8 0 -9 1.2 2.6
-8 0 9 0.5 2.2
7 0 -9 453.25 44.2
7 0 -9 485.95 43.7
-7 0 9 461.45 39.3
-7 0 9 459.35 41.3
6 0 -9 54.29 10.7
6 0 -9 56.29 11.3
-6 0 9 53.59 7.9
-6 0 9 34.5 6.3
-6 0 9 44.1 8.7
5 0 -9 1195.08 97.39
5 0 -9 1113.59 93.19
5 0 -9 1009.2 97.19
5 0 -9 1020.4 93.49
-5 0 9 1112.19 88.89
-5 0 9 1108.19 90.29
-5 0 9 900.51 94.09
-5 0 9 1139.69 88.79
4 0 -9 311.37 33.8
4 0 -9 310.37 30.5
4 0 -9 264.47 33.5
4 0 -9 312.27 31.2
4 0 -9 293.67 34.4
-4 0 9 272.97 27.2
-4 0 9 277.37 26.7
-4 0 9 229.48 28.3
-4 0 9 289.57 27.1
3 0 -9 613.44 52.99
3 0 -9 605.24 55.99
3 0 -9 607.44 53.69
-3 0 9 529.55 52.49
-3 0 9 548.25 49.6
-3 0 9 552.84 50.69
2 0 -9 23.5 8.2
2 0 -9 43.9 11.9
2 0 -9 34.3 8.2
2 0 -9 35.5 8.1
2 0 -9 29.3 8.3
2 0 -9 45.8 12.6
-2 0 9 37 8.1
-2 0 9 29.6 5.8
-2 0 9 39.6 6.2
-2 0 9 24.1 5.3
-2 0 9 23.2 6.6
1 0 -9 838.72 71.29
1 0 -9 852.41 75.99
1 0 -9 882.91 71.39
1 0 -9 825.72 71.09
1 0 -9 954.7 77.09
-1 0 9 751.82 68.69
-1 0 9 820.62 68.39
-1 0 9 687.03 67.69
-1 0 9 729.73 69.09
-1 0 9 882.71 73.69
0 0 -9 298.77 29.8
0 0 -9 311.17 30
0 0 -9 342.97 35.8
0 0 -9 314.77 30
0 0 9 257.37 27.4
0 0 9 292.07 29.2
0 0 9 278.87 32
0 0 9 292.57 27.7
0 0 9 288.17 28.3
-1 0 -9 1366.76 115.49
-1 0 -9 1619.44 144.99
-1 0 -9 1364.46 115.09
-1 0 -9 1432.06 116.09
1 0 9 1336.87 113.79
1 0 9 1420.66 113.29
1 0 9 1226.98 112.49
1 0 9 1357.56 115.19
1 0 9 1321.17 116.09
-2 0 -9 504.15 47.4
-2 0 -9 530.85 51.39
-2 0 -9 526.35 47.8
-2 0 -9 518.65 47.3
-2 0 -9 498.05 46.9
2 0 9 467.35 53.19
2 0 9 519.15 47.3
2 0 9 495.35 44.1
2 0 9 507.55 45.5
2 0 9 413.06 47.7
2 0 9 496.95 46.5
-3 0 -9 982.4 82.19
-3 0 -9 933.21 80.99
-3 0 -9 1009 82.49
-3 0 -9 968.3 82.29
3 0 9 766.22 81.89
3 0 9 926.51 84.59
3 0 9 919.61 77.59
3 0 9 958.4 78.29
3 0 9 879.81 80.19
-4 0 -9 165.68 20.2
-4 0 -9 145.19 19.8
-4 0 -9 202.18 28.7
-4 0 -9 134.49 18.5
4 0 9 147.49 17.3
4 0 9 128.59 15.7
4 0 9 163.78 16.8
4 0 9 165.48 21.2
4 0 9 160.88 18.5
-5 0 -9 284.67 28.4
-5 0 -9 263.37 27
-5 0 -9 259.67 29.1
5 0 9 301.47 26.9
5 0 9 244.18 23.9
5 0 9 281.07 24.1
5 0 9 212.88 24.6
-6 0 -9 78.99 10.6
-6 0 -9 73.79 14.1
6 0 9 86.59 10.1
6 0 9 94.39 9.3
8 -1 -9 0.9 2.2
8 -1 -9 -0.9 2.6
-8 1 9 1.7 2.5
7 -1 -9 -0.7 3.6
7 -1 -9 1.8 3.6
-7 1 9 -0.7 2.2
-7 1 9 2.7 2.5
-7 1 9 2.8 3.3
-7 1 9 12.3 6.2
6 -1 -9 84.09 14.9
6 -1 -9 98.09 15.2
-6 1 9 107.19 14.3
-6 1 9 105.89 11.5
-6 1 9 89.59 10.8
-6 1 9 103.89 13.1
5 -1 -9 -3.8 4.5
5 -1 -9 -1.5 5.3
5 -1 -9 8.6 8.3
5 -1 -9 -1.4 4.2
-5 1 9 -0.3 2.6
-5 1 9 1.2 3.3
-5 1 9 0.5 1.7
-5 1 9 0.6 2.1
-5 1 9 5.1 4.6
4 -1 -9 -3.9 4
4 -1 -9 13.8 6.8
4 -1 -9 -2.8 4.9
4 -1 -9 8.4 9
4 -1 -9 8.3 5.5
4 -1 -9 5.2 5.1
-4 1 9 3.6 2.7
-4 1 9 3.4 2.5
-4 1 9 2 3
3 -1 -9 162.88 19.6
3 -1 -9 141.49 19
3 -1 -9 173.28 20.6
3 -1 -9 185.28 19.4
3 -1 -9 133.59 17.1
-3 1 9 132.89 18
-3 1 9 147.89 15.2
-3 1 9 131.89 16.3
-3 1 9 114.29 14.8
-3 1 9 139.39 15.9
2 -1 -9 1120.99 100.79
2 -1 -9 1051.29 96.49
2 -1 -9 1356.26 102.99
2 -1 -9 1219.68 100.39
2 -1 -9 1235.78 99.49
-2 1 9 1115.79 94.79
-2 1 9 1108.99 96.59
-2 1 9 1074.29 97.19
-2 1 9 1085.59 99.69
-2 1 9 1168.18 96.09
1 -1 -9 522.85 47.9
1 -1 -9 548.95 46.4
1 -1 -9 553.54 51.39
-1 1 9 497.75 44.5
-1 1 9 489.65 46.1
-1 1 9 473.15 48.9
-1 1 9 461.55 44.6
0 -1 -9 310.87 32.1
0 -1 -9 317.27 32.6
0 -1 -9 313.87 31.3
0 1 9 315.17 29.8
0 1 9 321.27 31
0 1 9 349.47 35.9
0 1 9 291.37 29.4
0 1 9 317.67 34.8
-1 -1 -9 20.7 10.9
-1 -1 -9 9.7 5.9
-1 -1 -9 23.7 12.2
1 1 9 19.2 7
1 1 9 17.2 5.3
1 1 9 32.3 13.3
1 1 9 20.8 5.7
1 1 9 13.1 4.8
1 1 9 19.2 8.2
-2 -1 -9 4.9 9.5
-2 -1 -9 2.3 6.7
-2 -1 -9 10.6 5.3
-2 -1 -9 11.9 6.2
-2 -1 -9 6.7 7.6
-2 -1 -9 3.6 4.6
2 1 9 6.4 4.4
2 1 9 6.3 3.7
2 1 9 2.3 3.5
2 1 9 15 7.4
2 1 9 13.4 5
-3 -1 -9 195.18 20.9
-3 -1 -9 176.18 21.7
-3 -1 -9 161.38 23.6
-3 -1 -9 191.68 21
3 1 9 186.68 18.6
3 1 9 182.48 23.2
3 1 9 148.39 18.6
3 1 9 197.38 21.4
3 1 9 154.68 18
-4 -1 -9 82.59 12
-4 -1 -9 59.79 10.2
-4 -1 -9 62.89 10.6
4 1 9 57.49 8.9
4 1 9 70.29 9
4 1 9 59.79 8.2
4 1 9 58.69 12.8
4 1 9 70.19 11.2
-5 -1 -9 158.98 17.2
5 1 9 147.59 13.8
5 1 9 152.08 16.4
8 -2 -9 20.2 5.9
8 -2 -9 22.7 5
-8 2 9 16.6 4.2
-8 2 9 9.8 6.2
7 -2 -9 5.3 3.8
-7 2 9 3.6 3.3
-7 2 9 2.4 2.5
-7 2 9 0 3.9
6 -2 -9 10 5.4
6 -2 -9 3.4 5.9
6 -2 -9 10.6 5.9
-6 2 9 4 3.2
-6 2 9 20.7 5.9
-6 2 9 12.9 3.9
-6 2 9 12.2 4.7
5 -2 -9 501.65 48.5
5 -2 -9 449.66 51.09
5 -2 -9 516.45 49.5
5 -2 -9 492.25 46
5 -2 -9 493.65 47.3
-5 2 9 464.85 40.4
-5 2 9 457.85 41.6
-5 2 9 426.56 44.7
-5 2 9 425.36 40.2
-5 2 9 446.26 42.1
4 -2 -9 45.4 10.2
4 -2 -9 74.69 14.8
4 -2 -9 37 8.9
4 -2 -9 37.2 9.9
4 -2 -9 31.9 8.9
-4 2 9 45 9.2
-4 2 9 47.2 7.1
-4 2 9 36.8 8.7
-4 2 9 45.7 7.3
3 -2 -9 29.5 8.6
3 -2 -9 30.9 11.5
3 -2 -9 31.9 8
3 -2 -9 36.5 9.3
3 -2 -9 35.1 9.5
3 -2 -9 29.5 8
-3 2 9 20.9 7.7
-3 2 9 33.6 6.2
-3 2 9 34.5 9.3
-3 2 9 42 7.3
-3 2 9 31.9 6.1
2 -2 -9 195.88 24.8
2 -2 -9 205.48 30.4
2 -2 -9 184.98 24.4
2 -2 -9 230.78 24.2
2 -2 -9 245.58 22.8
2 -2 -9 248.28 23.1
-2 2 9 197.78 20.6
-2 2 9 205.08 21.7
-2 2 9 156.68 24.9
-2 2 9 202.68 22.6
-2 2 9 168.68 31.9
1 -2 -9 201.38 21.8
1 -2 -9 183.08 23
1 -2 -9 190.68 22.2
1 -2 -9 192.08 24.7
-1 2 9 178.98 20.6
-1 2 9 194.18 19.8
-1 2 9 169.58 27.8
-1 2 9 190.58 21.4
0 -2 -9 25.8 7.5
0 -2 -9 13 7.4
0 -2 -9 17.9 5.7
0 -2 -9 28.7 7.9
0 -2 -9 15.4 7.9
0 2 9 21.9 8.4
0 2 9 12.1 6.1
0 2 9 14.9 5.1
0 2 9 10.4 6
0 2 9 19.9 5.4
-1 -2 -9 537.75 50.49
-1 -2 -9 549.74 48.6
-1 -2 -9 535.35 46.3
-1 -2 -9 474.05 45.4
1 2 9 492.65 51.29
1 2 9 544.75 45.6
1 2 9 432.46 46.9
1 2 9 425.56 48.6
1 2 9 422.36 49.4
1 2 9 559.24 48.4
1 2 9 542.45 44.9
-2 -2 -9 174.68 20.2
-2 -2 -9 133.89 16.7
2 2 9 158.18 16.3
2 2 9 148.89 20.5
2 2 9 158.28 18.8
2 2 9 106.89 15.9
2 2 9 144.29 15.7
-3 -2 -9 82.39 12.3
-3 -2 -9 116.79 15
3 2 9 72.89 10.1
3 2 9 112.99 14.4
3 2 9 105.99 10.9
3 2 9 68.89 15.1
3 2 9 117.39 14.6
-4 -2 -9 2.5 3.2
-4 -2 -9 3.6 3.7
-4 -2 -9 1.5 3.3
4 2 9 4.5 3.3
4 2 9 7.7 2.4
8 -3 -9 101.79 12.8
8 -3 -9 106.99 12.6
-8 3 9 103.99 12
-8 3 9 99.79 11
7 -3 -9 152.28 20
-7 3 9 158.48 17
-7 3 9 151.68 17.7
6 -3 -9 248.48 27
6 -3 -9 312.97 31.5
6 -3 -9 287.27 31.2
6 -3 -9 271.37 32.4
-6 3 9 297.57 25.6
-6 3 9 335.07 28.6
-6 3 9 297.07 28.8
5 -3 -9 699.23 56.79
5 -3 -9 634.94 57.59
5 -3 -9 670.13 59.89
-5 3 9 656.33 56.19
-5 3 9 659.63 57.09
-5 3 9 498.05 66.09
-5 3 9 633.24 53.89
4 -3 -9 8.3 4.9
4 -3 -9 3.8 4.5
4 -3 -9 -12.1 10.5
4 -3 -9 2.8 5.7
4 -3 -9 -2.6 4.7
4 -3 -9 2.8 5.7
-4 3 9 -3.2 4.2
-4 3 9 -4.8 4.3
-4 3 9 3.8 2.7
-4 3 9 -2 3.6
-4 3 9 1.4 2.7
3 -3 -9 1099.79 92.19
3 -3 -9 1006.9 91.69
3 -3 -9 1163.38 88.29
3 -3 -9 1099.99 87.39
3 -3 -9 1040.7 89.79
3 -3 -9 1090.69 87.49
-3 3 9 978.1 87.29
-3 3 9 933.01 87.49
-3 3 9 937.21 84.99
-3 3 9 958.8 84.79
-3 3 9 986.4 91.09
2 -3 -9 548.75 56.19
2 -3 -9 625.44 54.09
2 -3 -9 628.54 56.59
2 -3 -9 717.33 59.99
2 -3 -9 586.44 57.99
-2 3 9 618.54 55.89
-2 3 9 629.54 55.29
-2 3 9 631.94 59.29
-2 3 9 595.04 52.39
-2 3 9 574.14 52.49
-2 3 9 523.75 53.69
1 -3 -9 206.68 26.9
1 -3 -9 221.38 24.9
1 -3 -9 214.58 23.1
1 -3 -9 233.68 27.8
1 -3 -9 266.97 25.1
-1 3 9 204.18 24.1
-1 3 9 164.98 28
-1 3 9 194.88 27.5
-1 3 9 186.48 24.1
-1 3 9 235.48 22.2
0 -3 -9 141.79 17.9
0 -3 -9 132.29 21.9
0 3 9 139.49 17.7
0 3 9 116.19 14.3
0 3 9 146.79 15.1
0 3 9 99.59 25.6
0 3 9 101.09 15.7
-1 -3 -9 98.39 12.7
-1 -3 -9 89.39 13.9
1 3 9 63.09 10.8
1 3 9 89.79 13.5
1 3 9 78.49 10.5
-2 -3 -9 154.68 18.8
-2 -3 -9 213.58 23
2 3 9 230.58 22.4
2 3 9 193.38 18
-3 -3 -9 1.9 4.2
-3 -3 -9 4.1 4
-3 -3 -9 4.5 3.8
3 3 9 4 3
3 3 9 -4 4.6
4 3 9 39.1 6.2
8 -4 -9 28 5.2
8 -4 -9 35.2 5.7
-8 4 9 17.8 4.9
7 -4 -9 68.59 10.5
7 -4 -9 48.2 8.4
-7 4 9 65.29 9.1
-7 4 9 65.89 8.7
6 -4 -9 228.38 22.7
6 -4 -9 171.28 22.7
6 -4 -9 205.58 23
-6 4 9 204.08 20.2
5 -4 -9 36.9 8.1
5 -4 -9 57.09 10.2
-5 4 9 40.1 8.4
-5 4 9 50.09 9.7
4 -4 -9 31.4 8.4
4 -4 -9 30.7 7
4 -4 -9 24.1 7.8
-4 4 9 36.2 6.8
-4 4 9 25.4 7.3
3 -4 -9 88.19 13.1
3 -4 -9 68.89 11.5
3 -4 -9 64.79 15.9
-3 4 9 52.69 10.6
-3 4 9 64.79 12.5
-3 4 9 77.09 11.7
2 -4 -9 37.4 9.7
2 -4 -9 31.9 9.8
2 -4 -9 27.7 7.4
-2 4 9 30 8.1
-2 4 9 33.7 6.8
-2 4 9 44 8.7
1 -4 -9 22.6 6.5
1 -4 -9 13.8 6.5
-1 4 9 9.6 6.8
-1 4 9 25.3 7.4
-1 4 9 19.3 6.3
-1 4 9 15.4 4.1
0 -4 -9 68.59 11.6
0 -4 -9 59.89 10.6
0 4 9 62.89 10.6
0 4 9 48.6 7.5
0 4 9 52.49 10.3
-1 -4 -9 30.3 6.7
-1 -4 -9 33.6 8.4
1 4 9 43.5 8.3
1 4 9 40.6 11.4
-2 -4 -9 23.9 5.9
2 4 9 9.3 3.5
2 4 9 11.3 4.2
-3 -4 -9 0.1 2.1
-3 -4 -9 3.8 3.4
3 4 9 4.3 2.2
7 -5 -9 116.89 12.6
7 -5 -9 130.49 14.8
-7 5 9 127.09 12.3
6 -5 -9 28.6 5.9
6 -5 -9 23.2 7.4
-6 5 9 20.3 5.4
-6 5 9 24.2 5.6
5 -5 -9 393.26 34.9
5 -5 -9 299.67 32.3
-5 5 9 301.47 30.3
4 -5 -9 25.3 8
-4 5 9 36.1 7.7
-4 5 9 50.99 8.6
3 -5 -9 313.67 31.7
3 -5 -9 317.37 29.7
-3 5 9 291.77 30.8
2 -5 -9 -2.8 3.3
2 -5 -9 -3.8 3.6
2 -5 -9 -0.5 3.4
-2 5 9 -2.9 3.9
-2 5 9 1.5 3.1
1 -5 -9 344.17 35.8
1 -5 -9 355.06 34.2
-1 5 9 323.87 38.6
-1 5 9 339.57 33.1
0 -5 -9 90.89 11
0 -5 -9 91.59 12.6
0 5 9 59.89 11.2
0 5 9 87.19 11.1
-1 -5 -9 123.79 15.7
-1 -5 -9 137.09 15.4
1 5 9 127.69 16
1 5 9 116.89 12.9
6 -6 -9 734.63 61.59
6 -6 -9 713.93 59.39
5 -6 -9 14.3 3.8
5 -6 -9 12.8 5.1
-5 6 9 14.6 4.5
-5 6 9 10.6 4.5
-5 6 9 5 3.9
4 -6 -9 1027.8 92.69
4 -6 -9 1135.29 90.69
-4 6 9 1141.19 90.89
-4 6 9 1123.49 92.69
3 -6 -9 278.87 27.1
3 -6 -9 299.67 29.5
-3 6 9 306.87 27.6
-3 6 9 296.37 28.9
2 -6 -9 761.52 62.69
2 -6 -9 792.52 65.49
-2 6 9 706.13 64.49
1 -6 -9 458.45 38.9
1 -6 -9 453.65 36.2
-1 6 9 364.06 37.4
0 6 9 158.18 15.9
0 9 -10 455.75 50.99
-1 9 -10 -0.5 2.7
-1 9 -10 6.4 7.4
-1 9 -10 1.5 7.3
-2 9 -10 180.98 25.1
-2 9 -10 236.48 29.5
-3 9 -10 15.9 7.4
-4 9 -10 75.19 11.4
-5 9 -10 10.7 4.8
-5 9 -10 9 4.7
-5 9 -10 12.5 4.6
2 8 -10 25.4 8.8
1 8 -10 309.67 40.7
0 8 -10 139.09 26.4
0 8 -10 145.89 20.1
-1 8 -10 113.99 23.5
-1 8 -10 136.59 19.2
-1 8 -10 115.39 22.2
-1 8 -10 84.99 15.3
-1 8 -10 172.28 30.8
-2 8 -10 191.48 28.3
-2 8 -10 218.28 24.3
-2 8 -10 223.28 27.9
-2 8 -10 207.48 28.7
-2 8 -10 204.58 37.5
-2 8 -10 185.98 23.6
-2 8 -10 253.37 32.2
-2 8 -10 231.48 32.5
-3 8 -10 154.18 21.6
-3 8 -10 126.69 18.5
-3 8 -10 178.98 20.1
-3 8 -10 157.08 26.4
-3 8 -10 155.68 19
-3 8 -10 99.99 23.7
-4 8 -10 164.38 29.6
-4 8 -10 191.38 23.1
-4 8 -10 255.77 27.5
-5 8 -10 74.79 12.1
-5 8 -10 62.59 13.5
-5 8 -10 91.49 13.9
-5 8 -10 104.39 15
-6 8 -10 102.19 14.7
3 7 -10 12.1 8.5
3 7 -10 19.5 7.1
-3 -7 10 15.3 3.4
2 7 -10 69.39 15.9
2 7 -10 83.69 12.2
2 7 -10 143.89 25.4
-2 -7 10 99.09 11.4
-2 -7 10 112.19 11.5
1 7 -10 148.89 19.9
1 7 -10 149.99 20.4
1 7 -10 194.98 30.8
-1 -7 10 180.98 17.1
0 7 -10 21.3 7.7
0 7 -10 15.3 8
0 7 -10 14.5 7.2
0 7 -10 28.5 12.2
0 7 -10 13.8 6
0 7 -10 0.9 8.9
0 7 -10 20.6 11.6
-1 7 -10 430.76 39.8
-1 7 -10 363.96 41.6
-1 7 -10 405.06 46.3
-1 7 -10 415.26 48.3
-1 7 -10 343.17 38.6
-1 7 -10 284.97 50.09
-1 7 -10 441.36 40.3
-2 7 -10 7.2 9.4
-2 7 -10 -3.6 5
-2 7 -10 4.8 4.2
-2 7 -10 2.4 3.7
-2 7 -10 11.1 4.7
-2 7 -10 3.6 4.9
-2 7 -10 1.7 4.5
-2 7 -10 1 4.2
-2 7 -10 4.1 4.5
-2 7 -10 1.8 5
-2 7 -10 8.8 5.8
-3 7 -10 257.17 30.6
-3 7 -10 309.17 32.4
-3 7 -10 286.97 32.6
-3 7 -10 328.47 32.7
-3 7 -10 221.28 38.5
-3 7 -10 294.87 31.9
-3 7 -10 369.26 42.7
-3 7 -10 255.47 30.9
-4 7 -10 18.9 7.1
-4 7 -10 25.6 9
-4 7 -10 7.1 7
-4 7 -10 19 6.3
-4 7 -10 5.7 7
-4 7 -10 33.1 9.5
-5 7 -10 181.98 22.5
-5 7 -10 167.88 22
-5 7 -10 178.28 21.7
-5 7 -10 154.98 22.4
-6 7 -10 -7.7 4.6
-6 7 -10 1.1 3.5
-6 7 -10 0.3 2.5
4 6 -10 15.8 7.1
4 6 -10 18.9 9
-4 -6 10 9.5 2.9
-4 -6 10 16.9 3.6
3 6 -10 51.09 15.9
3 6 -10 82.19 16.4
-3 -6 10 49.6 7.5
-3 -6 10 51.79 7.3
-3 -6 10 45.9 6.7
2 6 -10 230.48 27.6
2 6 -10 207.38 27.2
2 6 -10 212.58 36.4
2 6 -10 269.97 33.6
2 6 -10 315.67 41.2
-2 -6 10 299.17 23.8
-2 -6 10 242.58 23.4
1 6 -10 53.39 17.8
1 6 -10 54.59 13.2
1 6 -10 62.59 18.5
1 6 -10 31.4 14.4
1 6 -10 46.1 10.4
1 6 -10 52.89 9.9
1 6 -10 41.7 16.9
0 6 -10 99.49 15
0 6 -10 97.59 20.7
0 6 -10 107.39 17.1
0 6 -10 119.69 16.1
0 6 -10 116.99 20.4
0 6 -10 101.19 24.4
0 6 -10 83.19 22.1
0 -6 10 120.69 11.6
-1 6 -10 134.99 18.6
-1 6 -10 168.98 19.7
-1 6 -10 146.09 22.7
-1 6 -10 176.58 25.9
-1 6 -10 107.79 28.3
-1 6 -10 105.39 19.8
-1 6 -10 136.79 18.8
-2 6 -10 390.16 41.9
-2 6 -10 458.55 43.8
-2 6 -10 484.75 46.4
-2 6 -10 371.96 42.9
-2 6 -10 460.05 50.69
-2 6 -10 458.35 60.09
-2 6 -10 450.95 43.3
-2 6 -10 482.15 54.69
-2 6 -10 346.07 42.3
-2 6 -10 442.96 46.1
-2 6 -10 421.36 42.6
-3 6 -10 28.3 8.8
-3 6 -10 45.3 17.6
-3 6 -10 45 13.2
-3 6 -10 37.5 10.2
-3 6 -10 41.5 14.1
-3 6 -10 38.5 9.6
-3 6 -10 36.7 12.2
-4 6 -10 332.47 38.6
-4 6 -10 424.26 40.5
-4 6 -10 328.37 37.6
-4 6 -10 377.66 38.5
-4 6 -10 394.76 40
-5 6 -10 48.2 13.4
-5 6 -10 59.79 12
-5 6 -10 49.7 11.4
-5 6 -10 74.29 12.3
-5 6 -10 53.39 11
-6 6 -10 233.78 27.8
-6 6 -10 238.68 31.2
-6 6 -10 231.98 28
6 -6 10 322.77 25.7
6 -6 10 291.37 24.3
6 -6 10 282.37 25.7
-7 6 -10 22.3 7.4
-7 6 -10 21.6 5.3
5 5 -10 51.99 11.4
5 5 -10 54.49 10
-5 -5 10 50.09 7.5
-5 -5 10 46.2 6.3
-5 -5 10 44 6
4 5 -10 16.2 8
4 5 -10 19.1 10.4
4 5 -10 6.4 6.1
-4 -5 10 10.7 3.2
-4 -5 10 7.2 2.9
3 5 -10 76.79 14.3
3 5 -10 59.69 17.7
3 5 -10 61.99 18.7
3 5 -10 56.59 11
-3 -5 10 43.9 8.5
-3 -5 10 63.99 8.5
-3 -5 10 57.89 8
2 5 -10 6.5 5.1
2 5 -10 -1 6.8
2 5 -10 -0.9 10.8
2 5 -10 3.6 12.1
2 5 -10 -4.6 4.7
-2 -5 10 3.8 2.4
-2 -5 10 0.8 7.1
1 5 -10 935.81 89.59
1 5 -10 1112.19 96.29
1 5 -10 956.5 97.79
1 5 -10 1017.7 90.69
1 5 -10 915.21 100.19
1 5 -10 1012.9 89.69
1 5 -10 1051.29 106.69
-1 -5 10 1196.78 84.59
0 5 -10 187.78 27.6
0 5 -10 195.08 23.1
0 5 -10 189.28 23.8
0 5 -10 179.28 22.9
0 5 -10 153.88 29.2
0 5 -10 198.98 23.2
0 5 -10 182.98 27.1
0 -5 10 208.18 18
-1 5 -10 1464.95 134.09
-1 5 -10 1348.86 130.59
-1 5 -10 1508.15 124.89
-1 5 -10 1525.35 127.39
-1 5 -10 1424.36 127.99
-1 5 -10 1459.85 125.19
-1 5 -10 1528.65 125.39
-2 5 -10 414.46 40.6
-2 5 -10 376.66 47.4
-2 5 -10 368.46 49.3
-2 5 -10 326.87 38.8
-2 5 -10 388.36 40.1
-2 5 -10 407.86 53.39
-2 5 -10 386.46 40.2
-2 5 -10 426.46 42.1
-2 5 -10 428.96 41.3
-2 5 -10 399.36 42.3
2 -5 10 366.06 38.9
2 -5 10 465.45 34.6
-3 5 -10 400.46 42.1
-3 5 -10 353.76 40.2
-3 5 -10 401.26 42
-3 5 -10 380.06 38.8
-3 5 -10 459.75 48.2
-3 5 -10 441.66 42
-3 5 -10 419.26 41.8
-4 5 -10 370.86 35
-4 5 -10 325.27 35.6
-4 5 -10 263.67 33.4
-4 5 -10 321.67 35.6
-4 5 -10 303.17 34.2
-5 5 -10 227.28 27.3
-5 5 -10 199.58 24.9
-5 5 -10 195.38 27.6
-5 5 -10 178.48 25.8
5 -5 10 262.37 22
5 -5 10 268.47 23.8
-6 5 -10 374.26 44.5
-6 5 -10 403.66 40.3
6 -5 10 440.76 38.1
6 -5 10 489.25 37.3
-7 5 -10 0.2 4
-7 5 -10 10.3 5.6
7 -5 10 12.4 2.4
7 -5 10 8.4 2.6
6 4 -10 118.39 15.2
-6 -4 10 109.59 10.9
-6 -4 10 102.89 12.7
5 4 -10 8.6 7.1
5 4 -10 8.2 6.4
-5 -4 10 1.5 2.2
-5 -4 10 -1.6 3.7
-5 -4 10 6.3 2.7
4 4 -10 182.28 25.9
4 4 -10 209.68 25.4
4 4 -10 261.57 31.1
4 4 -10 238.08 32.2
-4 -4 10 223.38 21.8
-4 -4 10 212.78 22.8
-4 -4 10 213.38 22.4
-4 -4 10 252.07 21.6
3 4 -10 5.4 4.7
3 4 -10 12.6 10.9
3 4 -10 4.7 6.2
3 4 -10 0.6 5.7
-3 -4 10 7.5 4.3
-3 -4 10 7.6 3.2
-3 -4 10 10 3.7
2 4 -10 687.23 67.99
2 4 -10 646.34 73.19
2 4 -10 729.43 71.09
2 4 -10 777.62 79.19
2 4 -10 756.02 75.89
-2 -4 10 781.32 62.49
-2 -4 10 830.72 63.29
1 4 -10 254.87 35
1 4 -10 288.77 43.2
1 4 -10 262.47 36.8
1 4 -10 272.77 33.4
1 4 -10 287.57 29.4
1 4 -10 286.57 30
-1 -4 10 251.37 30.6
0 4 -10 1898.51 168.78
0 4 -10 2245.68 169.88
0 4 -10 2004.3 172.48
0 4 -10 2087.79 176.78
0 4 -10 2062.59 168.38
0 4 -10 1924.71 169.38
0 -4 10 2003.9 167.28
-1 4 -10 150.78 21.3
-1 4 -10 167.88 21
-1 4 -10 164.38 23.7
-1 4 -10 161.08 20.8
-1 4 -10 171.68 21.3
-1 4 -10 154.58 20.4
-1 4 -10 164.78 26.6
1 -4 10 180.28 20.7
1 -4 10 185.88 16.5
-2 4 -10 674.53 71.19
-2 4 -10 598.94 58.79
-2 4 -10 542.95 56.19
-2 4 -10 630.64 58.99
-2 4 -10 642.64 58.99
-2 4 -10 591.34 59.39
-2 4 -10 530.25 67.59
-2 4 -10 706.73 59.69
2 -4 10 577.54 58.29
2 -4 10 695.63 53.79
2 -4 10 734.33 54.79
-3 4 -10 143.79 19.9
-3 4 -10 91.99 26.4
-3 4 -10 125.19 19.1
-3 4 -10 136.39 18.3
-3 4 -10 119.89 17.8
-3 4 -10 128.99 20.7
-3 4 -10 133.59 18.9
3 -4 10 146.39 15.4
3 -4 10 150.78 14.8
-4 4 -10 268.07 34.1
-4 4 -10 303.67 33.7
-4 4 -10 311.17 38.2
4 -4 10 372.66 29.9
4 -4 10 284.07 28.6
4 -4 10 349.67 30
-5 4 -10 4 6.7
-5 4 -10 4.2 4.4
-5 4 -10 1 3.7
-5 4 -10 4.4 4.1
5 -4 10 4.2 3.2
5 -4 10 1.3 2.6
5 -4 10 2.8 2.6
-6 4 -10 103.19 13.7
-6 4 -10 142.49 27.7
-6 4 -10 110.99 17
6 -4 10 129.19 14
6 -4 10 138.29 13
6 -4 10 133.19 13.2
-7 4 -10 2.3 3.8
-7 4 -10 1.8 2.4
7 -4 10 0.5 1.5
7 -4 10 -0.6 1.6
6 3 -10 14.2 5.9
-6 -3 10 9.5 2.8
-6 -3 10 8.7 3.7
-6 -3 10 8.8 2.6
-6 -3 10 2.9 3.1
5 3 -10 308.07 37.6
5 3 -10 294.37 30
5 3 -10 362.66 36.9
-5 -3 10 309.77 30.5
-5 -3 10 352.56 30.2
-5 -3 10 301.17 29
-5 -3 10 374.56 29.8
4 3 -10 1.1 5
4 3 -10 9.9 7.3
4 3 -10 -7.9 9.6
4 3 -10 8.2 7.4
4 3 -10 0.3 7.1
4 3 -10 2.6 4.6
-4 -3 10 8.9 3.3
-4 -3 10 7.5 4.5
-4 -3 10 9.1 3.7
-4 -3 10 4.9 2.5
3 3 -10 671.53 72.49
3 3 -10 730.13 71.89
3 3 -10 676.83 68.49
3 3 -10 728.73 70.99
3 3 -10 664.93 63.99
3 3 -10 562.84 63.79
-3 -3 10 677.43 58.49
-3 -3 10 676.23 59.89
-3 -3 10 810.82 60.39
-3 -3 10 772.62 58.89
2 3 -10 268.97 35.3
2 3 -10 278.77 38.1
2 3 -10 297.37 32.5
2 3 -10 233.08 34.8
2 3 -10 268.67 34.1
2 3 -10 267.37 28.9
-2 -3 10 219.88 24.2
-2 -3 10 300.97 25.3
1 3 -10 213.78 29.5
1 3 -10 201.98 37
1 3 -10 241.58 25.7
1 3 -10 216.48 31.5
1 3 -10 194.18 29
1 3 -10 245.18 32.8
1 3 -10 267.47 26.9
-1 -3 10 246.88 22.3
-1 -3 10 258.17 21.9
-1 -3 10 247.88 25.5
0 3 -10 1027.6 94.09
0 3 -10 1001.1 99.69
0 3 -10 1021 93.19
0 3 -10 1144.49 94.79
0 -3 10 1124.09 89.09
0 -3 10 1149.98 94.59
0 -3 10 1142.59 89.49
-1 3 -10 140.29 22.3
-1 3 -10 134.09 19.9
-1 3 -10 172.78 21
-1 3 -10 183.98 20.7
-1 3 -10 174.28 20.8
-1 3 -10 204.78 28.5
-1 3 -10 114.69 27
1 -3 10 190.98 17.6
1 -3 10 144.29 20.4
1 -3 10 199.58 17.4
-2 3 -10 1002.4 87.49
-2 3 -10 1026.9 86.79
-2 3 -10 890.01 87.39
-2 3 -10 1004.5 99.59
-2 3 -10 1005.8 87.69
-2 3 -10 976.8 97.09
2 -3 10 1008.4 89.29
2 -3 10 1021.3 82.99
-3 3 -10 276.17 31.4
-3 3 -10 272.27 32
-3 3 -10 230.48 31.8
-3 3 -10 352.46 46.7
-3 3 -10 305.97 30.1
-3 3 -10 277.67 31
3 -3 10 291.67 27.4
3 -3 10 330.07 27.4
3 -3 10 242.78 26.1
-4 3 -10 629.74 68.89
-4 3 -10 540.35 56.99
-4 3 -10 511.45 49.7
-4 3 -10 523.15 53.79
-4 3 -10 625.14 54.19
4 -3 10 465.65 47.3
4 -3 10 594.04 47.1
4 -3 10 501.05 51.99
-5 3 -10 45.1 12
-5 3 -10 25.1 10.5
-5 3 -10 42.7 10.6
5 -3 10 45.8 7
5 -3 10 47 7.2
5 -3 10 41.2 7.3
-6 3 -10 125.19 17.3
6 -3 10 106.49 12.8
6 -3 10 128.69 14.2
6 -3 10 153.38 13.4
7 2 -10 1.6 3
-7 -2 10 0.1 1.5
-7 -2 10 -1.2 1.4
-7 -2 10 4.1 2.9
6 2 -10 17.3 6.3
6 2 -10 9.4 3.8
-6 -2 10 7.1 3.2
-6 -2 10 8.1 2.8
-6 -2 10 15.4 4
-6 -2 10 15.4 5.6
5 2 -10 -4.2 3.4
5 2 -10 -4.6 9.8
5 2 -10 6.1 5.8
5 2 -10 4.5 5.4
-5 -2 10 -0.4 2
-5 -2 10 0.4 2.9
-5 -2 10 0.8 2.3
-5 -2 10 1.4 1.8
4 2 -10 14.8 7.3
4 2 -10 25.7 7.1
4 2 -10 29.2 10.9
4 2 -10 33.9 11.9
4 2 -10 19.5 7.4
4 2 -10 12.3 9.2
-4 -2 10 25.3 5.3
-4 -2 10 25.6 6.3
-4 -2 10 32.3 5.3
-4 -2 10 25.7 5.3
3 2 -10 0.4 4
3 2 -10 -2.3 6.7
3 2 -10 9.4 4.9
3 2 -10 0.6 5.2
3 2 -10 4.2 4.4
3 2 -10 -1.3 4.5
3 2 -10 1.2 4.7
-3 -2 10 -1 3.1
-3 -2 10 0.6 2.2
-3 -2 10 2.3 2.4
-3 -2 10 0.6 1.6
-3 -2 10 -0.4 3
2 2 -10 307.17 35.6
2 2 -10 304.27 41.2
2 2 -10 311.37 38.3
2 2 -10 273.67 30.6
2 2 -10 283.87 29.8
2 2 -10 361.26 33.2
2 2 -10 347.27 40.5
2 2 -10 330.27 32.6
-2 -2 10 322.67 32.1
-2 -2 10 317.87 28.9
1 2 -10 28 12.4
1 2 -10 7.9 7.6
1 2 -10 -0.3 3.8
1 2 -10 11.5 5.5
1 2 -10 3.6 3.9
1 2 -10 -0.4 5.3
1 2 -10 1.6 3.6
-1 -2 10 -0.1 3.8
-1 -2 10 0.1 1.9
-1 -2 10 3.7 3.1
0 2 -10 1186.88 96.69
0 2 -10 1066.89 91.59
0 2 -10 1188.38 93.39
0 2 -10 957.1 113.09
0 2 -10 991.6 103.79
0 2 -10 1076.09 95.29
0 2 -10 1275.17 106.79
0 2 -10 1053.89 90.39
0 2 -10 1108.49 96.29
0 -2 10 1131.09 92.69
0 -2 10 1172.98 92.39
0 -2 10 1205.38 98.39
-1 2 -10 -5 3.8
-1 2 -10 2.4 4.4
-1 2 -10 -5.6 6.3
-1 2 -10 2.8 3.9
-1 2 -10 14.2 9.5
-1 2 -10 1.8 5.6
1 -2 10 -1.6 3.8
1 -2 10 1 2.3
1 -2 10 3.8 3
1 -2 10 6 4.9
-2 2 -10 884.91 80.29
-2 2 -10 755.02 70.09
-2 2 -10 816.12 71.79
-2 2 -10 822.42 67.69
-2 2 -10 829.12 71.89
2 -2 10 857.81 68.89
2 -2 10 707.73 67.09
2 -2 10 699.03 68.19
2 -2 10 775.42 74.59
2 -2 10 864.41 68.39
-3 2 -10 8.3 6.3
-3 2 -10 10.9 5.2
-3 2 -10 17.2 7.6
-3 2 -10 11.8 10.3
-3 2 -10 8.4 5.3
3 -2 10 16 4.2
3 -2 10 11.5 6.6
3 -2 10 11.3 4.9
3 -2 10 12.6 4.4
3 -2 10 2.9 6.1
-4 2 -10 147.29 19.7
-4 2 -10 126.49 16
-4 2 -10 140.29 19.2
-4 2 -10 185.18 29.1
4 -2 10 108.39 15.3
4 -2 10 148.89 16
4 -2 10 126.89 14.7
4 -2 10 124.89 14.3
-5 2 -10 46.3 10.9
-5 2 -10 32.5 10.8
-5 2 -10 39.8 10.5
5 -2 10 47.3 6.9
5 -2 10 38.9 7.9
5 -2 10 48.6 6.7
-6 2 -10 1.1 3.8
-6 2 -10 5.2 5
-6 2 -10 3 2.3
6 -2 10 0.1 1.5
6 -2 10 -0.5 1.6
6 -2 10 -1 2.6
7 1 -10 433.66 34.1
7 1 -10 350.96 35.5
-7 -1 10 369.96 32
-7 -1 10 365.36 33.6
6 1 -10 261.27 29.1
6 1 -10 277.87 27.3
-6 -1 10 238.08 24.7
-6 -1 10 260.27 24.2
-6 -1 10 278.57 26
-6 -1 10 296.17 24.6
5 1 -10 244.28 29.4
5 1 -10 233.48 26
5 1 -10 239.78 27.6
5 1 -10 213.98 28.4
-5 -1 10 242.78 22.7
-5 -1 10 267.07 24.5
-5 -1 10 245.68 22.8
-5 -1 10 240.38 23.6
4 1 -10 818.72 66.19
4 1 -10 703.53 65.29
4 1 -10 577.04 66.69
4 1 -10 801.02 71.59
4 1 -10 706.93 64.19
4 1 -10 698.13 70.49
-4 -1 10 714.23 60.29
-4 -1 10 624.04 63.99
-4 -1 10 780.12 60.79
-4 -1 10 759.92 61.99
3 1 -10 230.18 29
3 1 -10 152.98 23.6
3 1 -10 188.78 27.2
3 1 -10 197.38 22.8
3 1 -10 190.28 21.7
3 1 -10 162.68 20.7
-3 -1 10 154.78 17.5
-3 -1 10 177.38 21.1
-3 -1 10 171.28 18.5
-3 -1 10 194.08 18
2 1 -10 2506.05 205.08
2 1 -10 2171.28 195.68
2 1 -10 2612.74 199.38
2 1 -10 2396.96 191.18
2 1 -10 2433.26 191.08
2 1 -10 2536.95 192.48
2 1 -10 2257.57 196.68
-2 -1 10 2147.99 187.68
-2 -1 10 2077.09 188.18
-2 -1 10 2350.16 188.88
-2 -1 10 2289.47 192.78
1 1 -10 149.59 16.3
1 1 -10 116.49 16
1 1 -10 149.99 27.1
1 1 -10 130.79 22.6
1 1 -10 102.29 17
1 1 -10 158.28 21.8
1 1 -10 147.79 18.2
-1 -1 10 134.89 14.4
-1 -1 10 129.49 18
-1 -1 10 145.79 16.1
-1 -1 10 122.89 14.8
0 1 -10 1815.42 149.29
0 1 -10 1891.11 147.29
0 1 -10 2024.1 159.38
0 1 -10 1845.82 156.58
0 1 -10 1960.4 156.78
0 1 -10 1623.94 147.49
0 -1 10 1614.34 148.19
0 -1 10 1722.13 146.49
0 -1 10 1728.03 146.99
0 -1 10 1767.12 145.89
0 -1 10 1815.52 152.38
-1 1 -10 157.38 20.6
-1 1 -10 233.98 31.9
-1 1 -10 185.98 30.4
-1 1 -10 184.58 19.4
-1 1 -10 158.18 20.7
-1 1 -10 209.98 28.1
-1 1 -10 168.88 19.3
1 -1 10 156.58 19.5
1 -1 10 158.88 19.1
1 -1 10 162.08 28.4
1 -1 10 176.88 19.5
1 -1 10 215.88 19.7
-2 1 -10 465.15 44.6
-2 1 -10 438.56 42.1
-2 1 -10 469.55 44.3
-2 1 -10 519.05 42.6
-2 1 -10 488.65 50.69
-2 1 -10 466.75 48.8
2 -1 10 480.75 42.4
2 -1 10 429.76 40.6
2 -1 10 498.95 41.6
2 -1 10 410.36 42.4
2 -1 10 360.66 45.3
-3 1 -10 20.6 9.1
-3 1 -10 28 13
-3 1 -10 44.1 16.3
-3 1 -10 35.8 9
-3 1 -10 44.6 10
3 -1 10 23 12.1
3 -1 10 22.3 9.3
3 -1 10 42.1 7.3
3 -1 10 30.7 7.6
-4 1 -10 166.78 20.3
-4 1 -10 164.48 20
-4 1 -10 194.38 28.7
-4 1 -10 148.79 17.5
4 -1 10 131.39 17.1
4 -1 10 157.48 18.5
4 -1 10 139.69 16
4 -1 10 159.78 17.5
-5 1 -10 42.7 9.4
-5 1 -10 38.6 8.6
-5 1 -10 24.9 6.1
-5 1 -10 34.1 9.3
5 -1 10 32.6 6.8
5 -1 10 38.1 6.8
5 -1 10 36.6 5.7
5 -1 10 30.1 5.6
-6 1 -10 3.3 2.8
-6 1 -10 9.5 3.2
6 -1 10 15.1 2.9
6 -1 10 11.7 3.4
6 -1 10 8.2 2.7
7 0 -10 122.59 14.5
7 0 -10 117.99 15.2
-7 0 10 120.29 11.7
-7 0 10 118.19 13.4
6 0 -10 143.99 17.9
6 0 -10 151.68 19.9
-6 0 10 141.09 15.5
-6 0 10 135.69 14.8
-6 0 10 159.08 16.8
-6 0 10 165.78 15.5
5 0 -10 1176.78 107.69
5 0 -10 1249.18 107.39
5 0 -10 1245.88 106.49
5 0 -10 1133.79 103.59
-5 0 10 1226.78 99.49
-5 0 10 1198.78 100.49
-5 0 10 1249.28 99.69
-5 0 10 1242.88 100.99
4 0 -10 286.77 34.3
4 0 -10 320.17 32.2
4 0 -10 296.57 30.8
4 0 -10 353.26 37.3
4 0 -10 295.17 36.3
4 0 -10 322.37 33.8
-4 0 10 297.37 27.8
-4 0 10 291.77 28.9
-4 0 10 271.17 31
3 0 -10 2099.39 193.78
3 0 -10 2501.15 200.08
3 0 -10 2552.44 191.58
3 0 -10 2212.98 189.98
-3 0 10 2367.26 187.08
-3 0 10 2432.36 188.28
-3 0 10 2193.68 186.58
-3 0 10 2218.88 191.78
2 0 -10 44.5 9.3
2 0 -10 43.7 10.8
2 0 -10 43.8 12.7
2 0 -10 55.99 16.5
2 0 -10 43.3 10
2 0 -10 47.9 9
2 0 -10 32.6 12
-2 0 10 37.8 7.8
-2 0 10 42 7.4
-2 0 10 36.3 7.2
-2 0 10 41.3 13.6
1 0 -10 2210.78 170.08
1 0 -10 1988.4 160.68
1 0 -10 1984.2 166.08
1 0 -10 2007 160.78
1 0 -10 2053.79 161.28
-1 0 10 1761.12 157.58
-1 0 10 1824.62 157.88
-1 0 10 1962.8 167.48
-1 0 10 1807.22 159.28
0 0 -10 347.07 33.1
0 0 -10 340.97 32.7
0 0 -10 354.16 38.9
0 0 -10 331.97 32.5
0 0 10 269.47 34.7
0 0 10 321.07 32.9
0 0 10 360.16 32.8
0 0 10 332.87 31.7
0 0 10 281.27 29.9
-1 0 -10 1901.71 158.58
-1 0 -10 1909.31 159.78
-1 0 -10 1984.5 159.48
-1 0 -10 2065.69 159.88
1 0 10 2068.99 157.88
1 0 10 1644.54 162.78
1 0 10 1904.31 157.08
1 0 10 1929.41 158.58
1 0 10 1940.91 159.48
-2 0 -10 712.13 66.39
-2 0 -10 775.72 67.19
-2 0 -10 794.72 67.79
-2 0 -10 794.42 68.09
-2 0 -10 644.14 68.79
2 0 10 774.62 71.69
2 0 10 730.43 65.99
2 0 10 785.72 64.79
2 0 10 770.42 67.39
2 0 10 780.92 65.19
-3 0 -10 380.66 36.5
-3 0 -10 392.96 36.6
-3 0 -10 378.66 37.3
3 0 10 316.77 38.4
3 0 10 389.96 34.1
3 0 10 365.56 36.2
3 0 10 380.26 34.3
3 0 10 371.16 35.3
-4 0 -10 297.57 29.5
-4 0 -10 280.27 27
-4 0 -10 245.48 27.4
4 0 10 274.57 26.8
4 0 10 237.98 24.5
4 0 10 243.98 25.2
4 0 10 276.57 24.7
-5 0 -10 38.4 8.3
-5 0 -10 51.39 8.2
-5 0 -10 52.69 7.5
5 0 10 44.2 7.3
5 0 10 44.1 6.1
5 0 10 35.5 5.4
7 -1 -10 4.3 3.9
7 -1 -10 4.5 3.8
-7 1 10 6.1 2.4
-7 1 10 7.3 3.6
6 -1 -10 363.66 35.3
6 -1 -10 370.16 36.6
6 -1 -10 312.87 37.4
-6 1 10 296.97 30.7
-6 1 10 382.06 33.1
-6 1 10 403.56 31.5
5 -1 -10 743.43 65.69
5 -1 -10 757.42 67.19
5 -1 -10 708.53 63.29
5 -1 -10 620.74 65.39
-5 1 10 596.94 59.09
-5 1 10 739.03 58.69
-5 1 10 675.43 58.59
-5 1 10 735.83 60.39
4 -1 -10 273.27 33.5
4 -1 -10 296.97 30.3
4 -1 -10 327.17 33.8
4 -1 -10 284.97 32.1
4 -1 -10 302.57 31.8
-4 1 10 264.77 26.9
-4 1 10 261.97 25.8
-4 1 10 256.37 29.6
-4 1 10 254.37 26.9
3 -1 -10 399.26 41.7
3 -1 -10 517.85 45.9
3 -1 -10 490.65 44.8
3 -1 -10 543.85 52.49
3 -1 -10 490.95 47.5
3 -1 -10 520.55 47.6
-3 1 10 456.75 40.8
-3 1 10 419.96 45
-3 1 10 429.06 41.9
-3 1 10 417.66 40.2
-3 1 10 421.06 41.4
2 -1 -10 372.66 34.5
2 -1 -10 354.46 33.3
2 -1 -10 390.16 37.1
2 -1 -10 260.37 33.1
2 -1 -10 319.87 31
-2 1 10 317.97 29.8
-2 1 10 331.47 30
-2 1 10 301.27 31.1
-2 1 10 270.37 30.2
-2 1 10 304.97 34.8
1 -1 -10 616.94 51.39
1 -1 -10 574.44 54.79
1 -1 -10 592.74 51.59
1 -1 -10 460.35 48.1
-1 1 10 546.95 49.99
-1 1 10 526.85 47.6
-1 1 10 575.84 49.7
-1 1 10 543.15 48
-1 1 10 458.45 52.29
0 -1 -10 4.4 8.2
0 -1 -10 2.4 5.1
0 -1 -10 12 5.2
0 -1 -10 -3.2 4.6
0 -1 -10 5.6 3.6
0 -1 -10 4.6 5.6
0 1 10 10.2 4
0 1 10 1.9 3.3
0 1 10 1.9 4.1
0 1 10 2.7 4.4
-1 -1 -10 439.46 40.2
-1 -1 -10 505.95 50.09
-1 -1 -10 399.66 41.5
-1 -1 -10 507.75 48.8
-1 -1 -10 405.76 40.7
1 1 10 417.86 40.9
1 1 10 420.96 38.4
1 1 10 407.96 38.5
1 1 10 337.97 38.6
-2 -1 -10 -0.3 3.7
-2 -1 -10 19 8.7
-2 -1 -10 -0.1 2.8
-2 -1 -10 -4.9 4.9
2 1 10 -1 2.8
2 1 10 -4.4 2.5
2 1 10 -0.7 7.6
2 1 10 -0.4 3.7
2 1 10 0.3 2.6
-3 -1 -10 20 6.3
-3 -1 -10 26.9 10.8
-3 -1 -10 30 6.8
-3 -1 -10 39.2 8.4
3 1 10 19.1 5.9
3 1 10 19.4 4.7
3 1 10 20.6 5.9
3 1 10 20 4.7
-4 -1 -10 74.49 10
-4 -1 -10 65.49 12.8
4 1 10 96.49 11.2
4 1 10 57.29 7.7
-5 -1 -10 13.3 4.3
5 1 10 19.9 4.6
7 -2 -10 105.39 13.8
7 -2 -10 99.59 13.3
-7 2 10 112.99 12.3
6 -2 -10 22.1 7.1
6 -2 -10 24.1 8.1
6 -2 -10 25.6 8.3
-6 2 10 31.1 5.2
-6 2 10 11.6 6
-6 2 10 25.8 6.1
5 -2 -10 423.56 40.8
5 -2 -10 376.76 42.6
-5 2 10 409.56 36.1
-5 2 10 413.56 37.9
-5 2 10 440.76 39.2
4 -2 -10 88.19 16
4 -2 -10 88.79 15.1
-4 2 10 72.89 14
-4 2 10 112.99 14.2
-4 2 10 93.69 11.1
3 -2 -10 220.68 26.5
3 -2 -10 238.78 24.9
3 -2 -10 204.78 30.4
3 -2 -10 207.78 26.6
-3 2 10 194.28 20.8
-3 2 10 207.98 22.8
-3 2 10 200.78 21.9
-3 2 10 218.78 26.2
-3 2 10 189.58 27
-3 2 10 204.48 20.6
2 -2 -10 318.07 33.2
2 -2 -10 305.67 30
2 -2 -10 325.07 31.9
-2 2 10 244.08 30.9
-2 2 10 218.28 30.6
-2 2 10 265.27 28.5
-2 2 10 264.27 26.4
1 -2 -10 96.19 16
1 -2 -10 82.69 14.9
1 -2 -10 76.29 12.5
1 -2 -10 79.09 14.2
-1 2 10 72.39 10.5
-1 2 10 68.89 14.2
-1 2 10 59.99 11.4
-1 2 10 73.79 10.1
-1 2 10 59.99 10
0 -2 -10 62.29 14.5
0 -2 -10 34.1 8.2
0 -2 -10 49.4 10.3
0 -2 -10 52.69 15.2
0 2 10 43 8.4
0 2 10 45.1 7.3
0 2 10 49.9 16.9
0 2 10 37 9.1
0 2 10 50.89 8.9
-1 -2 -10 55.79 10.1
-1 -2 -10 48.7 13.4
-1 -2 -10 37.2 10.9
1 2 10 54.49 10.3
1 2 10 43.6 7.5
1 2 10 48.2 8.2
-2 -2 -10 8 5.1
-2 -2 -10 10.4 7.3
-2 -2 -10 1.9 3.3
2 2 10 7.5 3.6
2 2 10 8.7 4.6
-3 -2 -10 14.7 7.4
-3 -2 -10 0.9 2.9
-3 -2 -10 10.6 6.2
3 2 10 0.6 2.8
3 2 10 4.6 2.1
-4 -2 -10 0.3 2.1
-4 -2 -10 3.5 3.3
4 2 10 3.3 2.2
7 -3 -10 162.88 17.4
7 -3 -10 132.29 15.8
-7 3 10 157.68 15.6
6 -3 -10 322.27 36.9
6 -3 -10 439.86 37.7
6 -3 -10 319.17 36.1
-6 3 10 362.76 31.8
-6 3 10 456.45 35
5 -3 -10 187.08 21.4
5 -3 -10 182.28 21.8
5 -3 -10 190.48 24.2
-5 3 10 174.68 22.1
-5 3 10 197.68 20
-5 3 10 181.58 17.6
4 -3 -10 1471.55 116.99
4 -3 -10 1339.37 111.99
4 -3 -10 1308.47 114.59
-4 3 10 1458.05 115.59
-4 3 10 1196.28 111.79
-4 3 10 1474.45 111.99
3 -3 -10 88.09 13.7
3 -3 -10 82.59 12.7
-3 3 10 85.29 12.8
-3 3 10 63.69 9.7
-3 3 10 60.49 11.1
-3 3 10 98.59 13.4
2 -3 -10 1750.82 139.29
2 -3 -10 1587.14 144.29
2 -3 -10 1840.02 135.49
2 -3 -10 1850.71 159.98
-2 3 10 1714.53 135.19
-2 3 10 1425.26 134.59
-2 3 10 1422.36 137.29
-2 3 10 1726.13 138.39
1 -3 -10 185.48 20.8
1 -3 -10 190.28 22.1
-1 3 10 145.49 19.5
-1 3 10 183.28 22.4
-1 3 10 194.28 19.3
-1 3 10 214.88 22.5
0 -3 -10 872.21 74.39
0 -3 -10 838.12 77.19
0 3 10 785.82 73.79
0 3 10 914.11 74.59
0 3 10 809.72 70.29
-1 -3 -10 109.09 17.1
-1 -3 -10 110.09 14.6
1 3 10 97.99 11.2
1 3 10 84.89 14.1
1 3 10 118.49 14.7
-2 -3 -10 101.59 16.5
2 3 10 135.89 16.4
2 3 10 110.49 10.8
2 3 10 114.19 14.7
-3 -3 -10 47.8 9.1
7 -4 -10 81.89 9.8
7 -4 -10 94.49 11.3
6 -4 -10 13.1 5
6 -4 -10 8.5 4.6
6 -4 -10 13.8 5.8
-6 4 10 13 4.4
-6 4 10 15.7 4.1
5 -4 -10 465.95 45.2
5 -4 -10 512.05 46.6
5 -4 -10 478.55 42.9
-5 4 10 507.35 44.2
-5 4 10 546.25 45.5
4 -4 -10 -0.3 5.7
4 -4 -10 0.1 4.1
-4 4 10 -6.5 4.7
-4 4 10 8.8 6.2
-4 4 10 3.8 3.6
3 -4 -10 488.95 44.7
-3 4 10 415.06 40.9
-3 4 10 452.05 43.7
-3 4 10 526.95 44.2
2 -4 -10 17.3 6.9
2 -4 -10 24.2 7.3
2 -4 -10 8.9 5.3
-2 4 10 16.7 5.2
-2 4 10 21.9 6.2
1 -4 -10 273.87 26.5
1 -4 -10 330.77 30.6
1 -4 -10 258.87 31.6
-1 4 10 299.77 29.3
0 -4 -10 55.79 10.1
0 -4 -10 70.99 12.5
0 4 10 74.39 12
-1 -4 -10 31.1 7.5
-1 -4 -10 29.5 7.2
1 4 10 20.1 5.4
1 4 10 25.2 5.9
-2 -4 -10 1.7 2.2
-2 -4 -10 8 5
2 4 10 0.4 2.7
6 -5 -10 -0.8 2.3
6 -5 -10 -0.2 2.8
-6 5 10 1.4 2.7
-6 5 10 0.4 2.2
5 -5 -10 74.29 11.1
-5 5 10 78.39 11
-5 5 10 68.89 9.3
4 -5 -10 -2.9 3.3
4 -5 -10 -2.9 3.1
-4 5 10 -2.4 2.3
-4 5 10 6.7 4.3
3 -5 -10 23.3 6.7
3 -5 -10 17.5 4.9
-3 5 10 24.8 6.8
2 -5 -10 1.9 5.1
2 -5 -10 3.3 3.6
-2 5 10 5 4.1
-2 5 10 -0.3 2.9
1 -5 -10 -3.8 2.6
1 -5 -10 1.1 3.5
1 -5 -10 4.4 3.1
-1 5 10 2.3 3.2
-1 5 10 -0.8 2
0 -5 -10 -0.9 2.2
0 -5 -10 1.5 3
0 5 10 1.8 3.4
0 5 10 -1.1 2.8
4 -6 -10 264.77 26
-4 6 10 299.17 26.1
3 -6 -10 15.7 4
-3 6 10 11.7 4.3
2 -6 -10 66.89 9
-1 9 -11 112.19 19.5
2 8 -11 34.3 8
2 8 -11 23 7.9
1 8 -11 47.8 13.9
1 8 -11 34.5 11.4
0 8 -11 8.1 8.7
0 8 -11 5.2 3.3
0 8 -11 17.7 9.1
0 8 -11 11.4 7.7
-1 8 -11 100.99 24.3
-1 8 -11 94.39 14.5
-1 8 -11 74.39 18.4
-2 8 -11 1.7 5.4
-2 8 -11 1.4 7.5
-2 8 -11 -1.1 8.7
-2 8 -11 0.8 5.1
-3 8 -11 64.79 11.1
-3 8 -11 69.89 10.2
-4 8 -11 3.6 3.5
-4 8 -11 1.3 2.3
-4 8 -11 -2.3 3.6
-5 8 -11 89.69 13.2
-5 8 -11 114.49 17.4
3 7 -11 5.8 6.5
3 7 -11 3.3 5.1
2 7 -11 13.4 5.4
2 7 -11 32.1 11.6
2 7 -11 20 9.5
-2 -7 11 16 3.9
1 7 -11 31.2 9.3
1 7 -11 37.6 7.3
1 7 -11 61.59 13.4
0 7 -11 129.79 23.6
0 7 -11 139.59 25.5
0 7 -11 127.49 17.3
0 7 -11 118.49 16.2
0 7 -11 132.59 25.9
0 7 -11 93.29 18.1
-1 7 -11 231.28 24.9
-1 7 -11 230.38 26.2
-1 7 -11 242.18 30.5
-1 7 -11 237.18 30.8
-1 7 -11 185.28 23.9
-1 7 -11 171.88 34.7
-2 7 -11 58.99 10.3
-2 7 -11 36.9 9.3
-2 7 -11 63.59 10.6
-2 7 -11 61.39 13
-2 7 -11 39.7 9.2
-2 7 -11 26.6 11.4
-3 7 -11 43.5 9
-3 7 -11 42.5 9.3
-3 7 -11 40.8 10.7
-3 7 -11 28.6 10.1
-3 7 -11 40.5 11.6
-3 7 -11 19.7 11
-3 7 -11 42.5 9.6
-4 7 -11 61.69 11.8
-4 7 -11 53.99 10.2
-4 7 -11 49.7 10.9
-4 7 -11 68.09 11.9
-5 7 -11 43.5 11.3
-6 7 -11 6.8 5
-6 7 -11 8.9 4.6
4 6 -11 14.5 5.5
-4 -6 11 20 3.9
3 6 -11 167.28 21.5
-3 -6 11 209.68 17.5
-3 -6 11 173.28 18.6
2 6 -11 56.59 16.7
2 6 -11 31.8 10.2
2 6 -11 52.99 15
2 6 -11 22.6 6.7
-2 -6 11 32.8 5.6
-2 -6 11 41.9 5.7
1 6 -11 123.09 25.3
1 6 -11 125.39 18.8
1 6 -11 176.48 23.9
1 6 -11 130.99 27
1 6 -11 187.28 29.5
1 6 -11 161.28 20.7
-1 -6 11 170.58 16.7
-1 -6 11 185.68 17.7
0 6 -11 57.79 13.5
0 6 -11 34.1 13.6
0 6 -11 43.6 9.4
0 6 -11 66.79 16
0 6 -11 47.6 10
0 6 -11 35.1 9.2
0 6 -11 51.39 19.8
0 -6 11 63.79 8.7
-1 6 -11 83.69 16.8
-1 6 -11 77.29 12.9
-1 6 -11 82.49 17
-1 6 -11 35.4 18
-1 6 -11 60.39 14.2
-1 6 -11 57.09 10.8
-2 6 -11 22.5 7.7
-2 6 -11 28.8 13
-2 6 -11 9.9 5.6
-2 6 -11 15.2 8.6
-2 6 -11 13.4 6.2
-2 6 -11 18.6 7.7
-2 6 -11 19.5 7.2
-2 6 -11 25.8 8.2
-3 6 -11 116.39 16.2
-3 6 -11 104.69 15.4
-3 6 -11 106.09 15.6
-3 6 -11 101.19 16
-3 6 -11 101.69 18.7
-3 6 -11 116.09 16.9
-4 6 -11 215.08 25
-4 6 -11 184.38 24
-4 6 -11 218.08 24.3
4 -6 11 202.58 18.9
-5 6 -11 9.1 6.2
-5 6 -11 8.1 5.8
-5 6 -11 3.9 4.8
-5 6 -11 11.4 5.2
5 -6 11 2.8 2.6
5 -6 11 7.9 5.8
-6 6 -11 0 6.4
-6 6 -11 16.4 5.7
-6 6 -11 30.7 8.7
5 5 -11 0.6 3.5
-5 -5 11 0.2 1.3
-5 -5 11 -0.1 1.5
4 5 -11 96.19 15.7
4 5 -11 160.18 20.1
4 5 -11 167.28 20.1
-4 -5 11 117.99 13.3
-4 -5 11 132.99 13
-4 -5 11 125.29 13.4
3 5 -11 69.69 15.8
3 5 -11 53.49 14.8
3 5 -11 80.49 14.1
3 5 -11 38.9 10.2
-3 -5 11 59.89 8.2
-3 -5 11 60.69 7.7
-3 -5 11 81.79 9
2 5 -11 416.36 48.5
2 5 -11 358.56 41
2 5 -11 402.36 48.5
2 5 -11 396.36 50.39
-2 -5 11 451.35 36.5
-2 -5 11 456.55 36.9
1 5 -11 106.19 23.8
1 5 -11 85.49 14.1
1 5 -11 69.99 20.2
1 5 -11 107.39 22
1 5 -11 96.69 16.8
-1 -5 11 101.79 10.8
-1 -5 11 103.59 10.8
0 5 -11 32.5 15.7
0 5 -11 60.19 11.3
0 5 -11 51.39 11.8
0 5 -11 73.59 15
0 5 -11 41.7 18.5
0 -5 11 62.09 7.5
-1 5 -11 130.29 17.9
-1 5 -11 132.59 17.7
-1 5 -11 135.09 18
-1 5 -11 129.09 22.8
-2 5 -11 128.29 20.4
-2 5 -11 130.79 17.8
-2 5 -11 118.29 17
-2 5 -11 128.09 22.3
-2 5 -11 102.69 23.3
-3 5 -11 0.8 3.4
-3 5 -11 7.6 4.9
-3 5 -11 11.1 5.9
-3 5 -11 7 7.4
-3 5 -11 0.4 5.9
-3 5 -11 3.5 4.1
3 -5 11 6.4 3.3
3 -5 11 5 3.1
-4 5 -11 24.6 8.5
-4 5 -11 21.5 7.4
-4 5 -11 31.7 9
-4 5 -11 21.8 6.6
4 -5 11 28.8 5.2
4 -5 11 20.8 5.6
-5 5 -11 63.39 11.7
-5 5 -11 76.89 13.1
-5 5 -11 56.89 14.7
-5 5 -11 44.9 9.4
5 -5 11 64.29 8.4
5 -5 11 70.39 8.2
5 -5 11 51.49 7.6
-6 5 -11 10.8 5.6
-6 5 -11 5.1 5.2
6 -5 11 8.9 2.6
6 -5 11 8.7 2.6
5 4 -11 110.79 14.1
5 4 -11 89.39 14.8
-5 -4 11 92.29 11.1
-5 -4 11 79.79 10.9
-5 -4 11 71.79 9.7
4 4 -11 383.96 41.9
4 4 -11 428.76 46.7
4 4 -11 478.25 46.9
4 4 -11 445.36 45.7
-4 -4 11 411.96 38.5
-4 -4 11 441.76 38.6
-4 -4 11 499.35 38.4
3 4 -11 11.3 6.6
3 4 -11 13.2 9.4
3 4 -11 6.9 4.5
3 4 -11 3.7 9.2
-3 -4 11 3.8 2.8
-3 -4 11 9.5 3.4
2 4 -11 987.9 129.19
2 4 -11 1255.87 111.99
-2 -4 11 1343.87 102.59
-2 -4 11 1304.87 101.79
1 4 -11 -0.4 3.5
1 4 -11 5.3 3.8
1 4 -11 10.1 8.5
1 4 -11 5.1 7
1 4 -11 4.3 6.7
1 4 -11 11 6.9
-1 -4 11 7.1 3
-1 -4 11 -0.2 5
0 4 -11 1421.46 134.99
0 4 -11 1616.74 129.59
0 4 -11 1634.94 128.49
0 4 -11 1355.16 130.89
0 4 -11 1629.04 132.09
0 -4 11 1317.67 127.09
0 -4 11 1662.33 123.09
-1 4 -11 33.3 9.6
-1 4 -11 31.1 8.5
-1 4 -11 34.3 9.1
-1 4 -11 18.2 6.6
-1 4 -11 31.6 15.1
-1 4 -11 26.1 9.1
-1 4 -11 40 12.7
1 -4 11 20.6 7.5
1 -4 11 31 5.7
-2 4 -11 994.1 85.39
-2 4 -11 1013.7 85.89
-2 4 -11 812.72 84.39
-2 4 -11 1001.4 97.99
-2 4 -11 991.6 85.89
-2 4 -11 991.2 97.59
2 -4 11 1034.7 80.49
2 -4 11 871.21 86.69
2 -4 11 1013.2 80.59
-3 4 -11 14 7.8
-3 4 -11 18.9 12.1
-3 4 -11 37.3 8.8
-3 4 -11 25.3 8.3
-3 4 -11 31.7 8.2
-3 4 -11 35.3 10
3 -4 11 25.3 5.6
3 -4 11 22.2 5.2
-4 4 -11 260.77 29.2
-4 4 -11 312.27 32.8
-4 4 -11 334.37 33
-4 4 -11 308.47 32.8
-4 4 -11 246.78 39
4 -4 11 281.37 26.6
4 -4 11 295.87 26.9
4 -4 11 302.07 27.4
-5 4 -11 19.6 7.7
-5 4 -11 7.6 4.2
-5 4 -11 13 6.4
-5 4 -11 19.3 8
5 -4 11 11.7 3.2
5 -4 11 10.4 3.6
5 -4 11 17.6 3.7
-6 4 -11 203.48 21.1
6 -4 11 166.58 16.3
6 -4 11 148.19 15.5
6 3 -11 116.19 13.7
-6 -3 11 105.99 11.2
-6 -3 11 95.59 10.4
-6 -3 11 110.49 10.6
5 3 -11 29.9 9.3
-5 -3 11 28.3 4.8
-5 -3 11 22.6 5.7
-5 -3 11 28.6 5.2
4 3 -11 334.67 36.3
4 3 -11 308.27 31.2
4 3 -11 261.77 33.4
-4 -3 11 330.07 27.1
-4 -3 11 329.57 27.1
-4 -3 11 240.68 26.8
-4 -3 11 278.57 27.7
3 3 -11 198.38 29.8
3 3 -11 187.68 27.4
3 3 -11 197.18 23.6
3 3 -11 146.39 21.8
-3 -3 11 211.68 18.7
-3 -3 11 194.68 19.8
-3 -3 11 186.68 19.2
-3 -3 11 200.28 18.6
2 3 -11 546.65 64.29
2 3 -11 681.03 65.69
2 3 -11 485.75 59.19
2 3 -11 624.04 55.39
2 3 -11 562.24 57.09
-2 -3 11 598.14 51.19
-2 -3 11 571.74 49.99
-2 -3 11 633.44 50.29
-2 -3 11 592.14 54.19
1 3 -11 463.05 49.3
1 3 -11 463.15 45
1 3 -11 422.66 51.39
1 3 -11 504.25 44.2
1 3 -11 447.06 49.2
1 3 -11 428.76 57.99
-1 -3 11 381.76 43.4
-1 -3 11 495.05 41.1
-1 -3 11 544.25 40.8
0 3 -11 490.75 43.7
0 3 -11 342.37 50.29
0 3 -11 416.66 44.3
0 3 -11 417.26 60.49
0 3 -11 491.85 50.49
0 3 -11 483.05 44.6
0 -3 11 402.06 44.1
0 -3 11 536.45 40.1
-1 3 -11 418.96 60.99
-1 3 -11 525.65 67.49
-1 3 -11 565.84 51.89
-1 3 -11 523.55 51.19
-1 3 -11 562.54 52.39
-1 3 -11 576.14 60.69
1 -3 11 517.95 53.29
1 -3 11 608.04 48.6
1 -3 11 600.94 48.1
-2 3 -11 144.09 23.6
-2 3 -11 133.79 16.7
-2 3 -11 119.19 23
-2 3 -11 103.49 15.4
-2 3 -11 115.39 15.9
2 -3 11 105.09 17.6
2 -3 11 89.89 15.7
2 -3 11 104.69 13.3
2 -3 11 122.69 13.2
-3 3 -11 465.45 43.4
-3 3 -11 526.75 58.89
-3 3 -11 411.36 40.8
-3 3 -11 419.76 42.7
3 -3 11 395.46 37.7
3 -3 11 432.26 39
3 -3 11 375.66 47
3 -3 11 456.65 38.6
-4 3 -11 26.5 8.8
-4 3 -11 46.9 17
-4 3 -11 29.4 8.4
-4 3 -11 38.7 10.6
4 -3 11 39.9 6.7
4 -3 11 35.5 6.4
4 -3 11 35.4 6.4
-5 3 -11 106.99 18.1
-5 3 -11 145.79 19.3
5 -3 11 116.59 13.5
5 -3 11 132.39 13.3
5 -3 11 132.99 19
5 -3 11 131.19 13.4
-6 3 -11 38.8 8
6 -3 11 55.79 6.3
6 -3 11 50.29 6.3
6 2 -11 34.1 8
-6 -2 11 37.1 6.8
-6 -2 11 30.9 5.2
-6 -2 11 27 5.6
5 2 -11 44.2 11
5 2 -11 49.8 10.8
5 2 -11 46.7 10.3
-5 -2 11 37.8 7.4
-5 -2 11 53.09 8.6
-5 -2 11 54.99 7.3
-5 -2 11 52.29 6.9
4 2 -11 138.79 18.2
4 2 -11 110.99 15.8
4 2 -11 145.69 21.7
4 2 -11 148.79 22.7
-4 -2 11 159.68 15.1
-4 -2 11 132.89 14.5
-4 -2 11 156.38 15.7
-4 -2 11 160.18 16.1
3 2 -11 16.3 6.2
3 2 -11 14.9 8
3 2 -11 7.8 7.5
-3 -2 11 10 9.4
-3 -2 11 12.9 3.5
-3 -2 11 9.6 3.7
2 2 -11 420.86 41.2
2 2 -11 418.16 52.79
2 2 -11 392.96 45.6
2 2 -11 435.16 49.3
2 2 -11 511.05 44.6
2 2 -11 552.74 52.29
-2 -2 11 452.25 44.5
-2 -2 11 462.85 39.9
-2 -2 11 479.45 41.6
1 2 -11 103.19 14.7
1 2 -11 104.89 17.9
1 2 -11 83.29 17.6
1 2 -11 109.99 15.2
1 2 -11 98.19 14.5
1 2 -11 110.79 17.8
1 2 -11 132.69 24.9
-1 -2 11 115.39 12.5
-1 -2 11 117.49 16.3
-1 -2 11 127.79 13.5
-1 -2 11 100.39 13.3
-1 -2 11 103.79 12.1
0 2 -11 402.46 34.3
0 2 -11 370.96 45.4
0 2 -11 361.76 35.8
0 2 -11 429.36 54.89
0 2 -11 366.86 37.1
0 2 -11 378.56 42.3
0 -2 11 327.37 33.2
0 -2 11 360.66 38.9
0 -2 11 370.86 33.7
0 -2 11 370.16 34.3
-1 2 -11 213.68 22.6
-1 2 -11 234.48 34.8
-1 2 -11 183.58 22.4
-1 2 -11 181.08 21.7
-1 2 -11 229.08 29.8
-1 2 -11 158.98 29.5
1 -2 11 151.58 19.9
1 -2 11 206.98 19.8
1 -2 11 190.48 19.4
1 -2 11 209.38 25.9
1 -2 11 177.48 20
-2 2 -11 111.89 14.8
-2 2 -11 87.19 19.9
-2 2 -11 130.19 23.4
-2 2 -11 96.89 15.3
2 -2 11 76.49 14.9
2 -2 11 91.99 15.9
2 -2 11 84.99 12.1
2 -2 11 89.79 11.4
-3 2 -11 37.3 9.5
-3 2 -11 38.4 9.8
-3 2 -11 61.19 18.3
3 -2 11 18.8 5.9
3 -2 11 28.5 6.3
3 -2 11 32.9 6.7
3 -2 11 34.2 6.3
-4 2 -11 66.59 16
-4 2 -11 63.19 10.9
-4 2 -11 66.59 11.1
4 -2 11 46.8 7.5
4 -2 11 59.99 7.9
4 -2 11 52.29 9
4 -2 11 33.5 9.9
-5 2 -11 6 4.3
-5 2 -11 1.9 3.4
-5 2 -11 -1.9 1.8
5 -2 11 1.4 1.8
5 -2 11 -1.1 2.7
5 -2 11 0.1 2
5 -2 11 3.7 3.6
7 1 -11 41.9 8.1
-7 -1 11 32.7 4.8
-7 -1 11 36.3 6.4
6 1 -11 5.1 4.4
6 1 -11 3.2 3.3
-6 -1 11 8.8 3.8
-6 -1 11 1.2 2.8
-6 -1 11 8.4 3.8
-6 -1 11 5.3 2.5
5 1 -11 241.98 25.2
5 1 -11 249.18 29.1
5 1 -11 218.08 27.8
-5 -1 11 269.37 23.3
-5 -1 11 266.37 24.2
-5 -1 11 221.68 22.7
-5 -1 11 267.57 24.4
4 1 -11 4.8 6.5
4 1 -11 8.6 4.2
4 1 -11 8.3 6.7
4 1 -11 5.9 5
4 1 -11 15.2 8
-4 -1 11 9 3.3
-4 -1 11 6.2 3.5
-4 -1 11 10.2 4.1
-4 -1 11 8.3 3.4
3 1 -11 1133.29 104.79
3 1 -11 1108.39 94.69
3 1 -11 1063.89 100.69
3 1 -11 1170.98 95.39
-3 -1 11 1138.69 93.29
-3 -1 11 1223.38 92.69
-3 -1 11 1031.6 96.49
-3 -1 11 1084.29 93.39
-3 -1 11 1100.89 91.99
2 1 -11 55.89 14.6
2 1 -11 79.99 18.6
2 1 -11 66.99 11.9
2 1 -11 66.39 12.9
2 1 -11 92.79 16.7
2 1 -11 90.09 12.3
2 1 -11 99.79 13.1
-2 -1 11 81.19 13.9
-2 -1 11 85.49 10.5
-2 -1 11 80.59 11.3
-2 -1 11 72.19 11.3
1 1 -11 2160.08 161.68
1 1 -11 1995.4 162.88
1 1 -11 1864.71 167.68
1 1 -11 2100.79 160.78
1 1 -11 2032.4 170.68
-1 -1 11 1778.02 160.28
-1 -1 11 2107.99 161.28
-1 -1 11 1839.32 165.68
-1 -1 11 1818.92 159.18
-1 -1 11 1999.9 159.88
0 1 -11 809.42 64.39
0 1 -11 839.52 63.89
0 1 -11 728.03 65.99
0 1 -11 691.23 63.99
0 1 -11 791.42 73.39
0 -1 11 678.03 62.69
0 -1 11 682.33 63.99
0 -1 11 756.52 64.49
0 -1 11 753.62 63.49
0 -1 11 657.43 69.19
-1 1 -11 436.06 34.8
-1 1 -11 375.26 37.1
-1 1 -11 350.06 35.6
-1 1 -11 394.56 35.2
-1 1 -11 349.47 43.1
1 -1 11 368.96 41
1 -1 11 354.36 34.3
1 -1 11 369.76 36
1 -1 11 345.97 35
1 -1 11 347.37 34
-2 1 -11 614.54 55.69
-2 1 -11 661.63 54.69
-2 1 -11 671.33 57.59
-2 1 -11 578.94 59.59
2 -1 11 609.14 60.99
2 -1 11 631.84 54.09
2 -1 11 598.14 53.49
2 -1 11 648.04 55.29
2 -1 11 558.04 54.49
-3 1 -11 115.99 21.6
-3 1 -11 102.79 14
-3 1 -11 92.29 13.4
-3 1 -11 91.39 12.4
3 -1 11 97.49 11.6
3 -1 11 69.69 11.8
3 -1 11 84.79 11.9
-4 1 -11 322.37 30.5
-4 1 -11 316.67 37.9
-4 1 -11 339.97 31.9
4 -1 11 298.27 27.9
4 -1 11 296.07 27.7
4 -1 11 282.67 28.9
-5 1 -11 22.8 8.1
-5 1 -11 19.9 5
5 -1 11 27.1 4.4
5 -1 11 19.5 4.9
5 -1 11 18.7 3.9
7 0 -11 18.6 5.2
7 0 -11 13.9 4.2
-7 0 11 13.1 3.7
-7 0 11 16.3 3.2
6 0 -11 131.39 17.1
-6 0 11 149.29 14
5 0 -11 173.08 19.5
5 0 -11 133.49 21.1
5 0 -11 177.48 22.3
-5 0 11 159.18 16.6
-5 0 11 176.98 18.2
-5 0 11 171.58 17.9
-5 0 11 175.48 16.9
4 0 -11 456.85 45.7
4 0 -11 452.85 49.4
4 0 -11 450.95 43
4 0 -11 550.74 49.8
4 0 -11 490.95 44.6
-4 0 11 418.96 40.7
-4 0 11 484.85 42.3
-4 0 11 467.85 42.3
3 0 -11 60.49 12.4
3 0 -11 40.1 11.2
3 0 -11 67.39 14.4
3 0 -11 60.19 10.6
3 0 -11 35.7 12.5
-3 0 11 36.2 9.9
-3 0 11 48.7 8.5
-3 0 11 49.6 8.2
-3 0 11 59.99 8.1
2 0 -11 251.07 29.7
2 0 -11 188.78 26.5
2 0 -11 253.67 25.6
2 0 -11 180.58 25.6
2 0 -11 241.68 33.7
2 0 -11 227.68 24.4
2 0 -11 268.07 25.5
-2 0 11 206.38 23.3
-2 0 11 230.28 28.1
-2 0 11 239.98 25.3
-2 0 11 235.18 22.6
1 0 -11 440.06 41.6
1 0 -11 501.55 42.9
1 0 -11 498.35 42.4
1 0 -11 493.85 49.4
1 0 -11 372.06 44.8
-1 0 11 399.86 46
-1 0 11 411.26 46
-1 0 11 426.76 41.3
-1 0 11 471.25 40.5
-1 0 11 434.76 39.8
0 0 -11 531.15 56.69
0 0 -11 694.83 58.19
0 0 -11 692.83 57.89
0 0 -11 688.23 64.49
0 0 11 618.24 62.99
0 0 11 603.44 57.49
0 0 11 660.03 56.39
0 0 11 654.33 55.99
-1 0 -11 611.84 57.99
-1 0 -11 599.84 59.29
-1 0 -11 469.65 50.89
-1 0 -11 590.14 56.29
1 0 11 449.86 49
1 0 11 524.85 46.4
1 0 11 458.05 46.8
-2 0 -11 482.35 42.7
-2 0 -11 415.06 42.6
-2 0 -11 476.35 41.9
2 0 11 451.85 42.8
2 0 11 487.45 40.9
2 0 11 414.36 40.6
2 0 11 462.65 42.2
-3 0 -11 465.25 40.6
-3 0 -11 417.06 41.4
-3 0 -11 506.25 41.6
3 0 11 411.76 40.4
3 0 11 478.35 39.6
3 0 11 432.96 41.1
3 0 11 431.26 39.5
-4 0 -11 -1.3 3.1
-4 0 -11 -0.9 2.5
-4 0 -11 -1 4.7
-4 0 -11 3.9 4.3
4 0 11 3.2 2.8
4 0 11 0.9 2
4 0 11 1.3 2.2
7 -1 -11 6.1 2.7
7 -1 -11 13.5 4.4
-7 1 11 7.9 2.8
6 -1 -11 81.19 17.5
6 -1 -11 31 7.8
6 -1 -11 50.09 9.9
-6 1 11 47.6 6.9
5 -1 -11 2 3.7
5 -1 -11 0 3.8
5 -1 -11 12 5.8
-5 1 11 6.1 2.9
-5 1 11 2 2.9
-5 1 11 3.3 3
-5 1 11 4 3.3
4 -1 -11 181.08 26.7
4 -1 -11 217.18 25.4
4 -1 -11 226.78 24.3
-4 1 11 209.68 22.1
-4 1 11 209.28 21.7
-4 1 11 231.88 21.1
3 -1 -11 73.99 12.9
3 -1 -11 31.2 9.6
3 -1 -11 73.59 12
3 -1 -11 41.7 11.1
3 -1 -11 63.69 13.9
-3 1 11 57.09 8.7
-3 1 11 54.49 9.1
-3 1 11 48.9 10.5
-3 1 11 46.6 7.8
2 -1 -11 102.39 21.7
2 -1 -11 123.39 16.6
2 -1 -11 140.99 28
2 -1 -11 84.09 15.1
2 -1 -11 85.69 19.2
2 -1 -11 86.79 12.5
-2 1 11 100.39 26.8
-2 1 11 108.79 13.7
-2 1 11 90.89 16.4
1 -1 -11 43 18.5
1 -1 -11 41.6 14.1
1 -1 -11 40 14.2
1 -1 -11 26.3 8.9
1 -1 -11 31.9 7.6
-1 1 11 37.8 8.4
-1 1 11 44.6 7.6
-1 1 11 37.1 12.5
0 -1 -11 700.73 57.59
0 -1 -11 617.64 61.99
0 -1 -11 733.53 80.69
0 1 11 580.44 55.99
0 1 11 651.03 55.09
0 1 11 620.64 54.99
0 1 11 519.35 60.29
0 1 11 665.83 57.59
-1 -1 -11 203.88 21.6
-1 -1 -11 180.28 23.9
-1 -1 -11 211.28 27.2
1 1 11 166.38 20.6
1 1 11 171.68 19.1
1 1 11 188.88 19.6
-2 -1 -11 187.28 20.2
2 1 11 170.78 18
2 1 11 193.28 20.6
2 1 11 176.48 18.2
-3 -1 -11 24.1 5.8
-3 -1 -11 28.2 6.5
-3 -1 -11 15.2 7.2
3 1 11 38.7 6.9
3 1 11 24.5 5
-4 -1 -11 26.9 6
-4 -1 -11 27.8 4.4
4 1 11 27.6 3.8
7 -2 -11 43 7.9
-7 2 11 52.19 6.8
6 -2 -11 350.96 33.2
6 -2 -11 309.57 32.8
-6 2 11 369.96 32
-6 2 11 372.96 29.8
5 -2 -11 264.67 32.3
5 -2 -11 339.27 31.5
-5 2 11 337.07 27.6
-5 2 11 347.47 29.7
-5 2 11 257.07 26.8
4 -2 -11 370.66 34.4
4 -2 -11 338.97 37.7
4 -2 -11 327.07 33.4
-4 2 11 300.87 30.2
-4 2 11 347.77 30.5
-4 2 11 353.16 32.5
3 -2 -11 136.19 17.1
3 -2 -11 127.09 20.5
-3 2 11 130.49 15.9
-3 2 11 113.39 13.8
-3 2 11 104.49 13.2
-3 2 11 108.49 14.4
2 -2 -11 524.95 46.7
2 -2 -11 598.84 55.79
2 -2 -11 422.96 46.4
-2 2 11 454.15 44.4
-2 2 11 487.65 43.2
-2 2 11 488.75 45.8
1 -2 -11 411.96 44.3
1 -2 -11 362.56 35.8
-1 2 11 339.47 35.4
-1 2 11 335.47 34.2
-1 2 11 362.46 33.1
0 -2 -11 256.37 28.9
0 -2 -11 186.78 25.1
0 -2 -11 216.18 23.5
0 2 11 193.88 20.6
0 2 11 198.98 23.2
0 2 11 215.58 20.9
-1 -2 -11 155.78 18.2
-1 -2 -11 216.98 22.5
1 2 11 214.58 18.9
1 2 11 174.58 19.9
-2 -2 -11 60.59 9.5
-2 -2 -11 64.79 12.6
2 2 11 46.5 6.6
2 2 11 48 8.8
-3 -2 -11 16.1 4.6
-3 -2 -11 3.8 3.8
3 2 11 10.9 3.5
6 -3 -11 116.39 13.6
6 -3 -11 98.19 13.8
-6 3 11 118.99 13
-6 3 11 140.79 20.8
5 -3 -11 76.69 12
5 -3 -11 124.39 16.7
5 -3 -11 81.69 13.5
-5 3 11 94.49 14.9
4 -3 -11 344.77 33.8
4 -3 -11 308.07 36.2
-4 3 11 352.86 30.6
-4 3 11 374.46 33.4
-4 3 11 335.37 32.4
3 -3 -11 222.88 27.6
3 -3 -11 213.98 23.8
-3 3 11 232.38 23.5
-3 3 11 199.98 23.2
2 -3 -11 442.46 40.2
-2 3 11 397.46 36.5
-2 3 11 379.86 39
-2 3 11 466.75 40.4
1 -3 -11 52.89 11.7
1 -3 -11 43.2 10.2
1 -3 -11 57.69 9.8
-1 3 11 66.79 12.8
-1 3 11 45.8 9.6
-1 3 11 50.09 7.6
0 -3 -11 87.19 14.9
0 -3 -11 106.39 15.8
0 -3 -11 126.39 14.8
0 3 11 121.99 14.9
0 3 11 127.29 14.2
-1 -3 -11 6.6 5
-1 -3 -11 7.6 4.4
1 3 11 10.3 3.2
1 3 11 12.4 4
-2 -3 -11 187.08 17.7
2 3 11 147.29 16
6 -4 -11 8.5 3.2
6 -4 -11 7.5 3
-6 4 11 5.6 3.8
5 -4 -11 -1.4 3.5
5 -4 -11 0.1 3.3
-5 4 11 10.2 4.1
-5 4 11 3.9 3.2
4 -4 -11 1.9 3.4
4 -4 -11 -1.2 2.5
-4 4 11 -0.5 4.8
-4 4 11 0 2.7
3 -4 -11 -4.1 3
3 -4 -11 -0.4 2.8
-3 4 11 0 4.8
2 -4 -11 22.6 6.7
2 -4 -11 20.1 7.3
-2 4 11 12 4.2
1 -4 -11 36.7 7.8
1 -4 -11 30.3 6.5
-1 4 11 48.4 8.5
0 -4 -11 13.3 4.3
0 4 11 11 3.5
-4 5 11 762.62 63.19
3 -5 -11 380.96 36.1
2 -5 -11 239.48 23.9
-2 5 11 241.88 21.7
-2 5 11 237.08 25.6
1 8 -12 2.6 5
1 8 -12 0.3 4.7
0 8 -12 27.7 9.3
0 8 -12 15.1 6.6
0 8 -12 21.7 9.4
-1 8 -12 56.29 15.8
-2 8 -12 5.6 6.3
-2 8 -12 5.2 9.2
-3 8 -12 5.2 3.7
-4 8 -12 12.7 6.6
2 7 -12 2 5.1
2 7 -12 0.9 5.1
2 7 -12 3.9 3.6
1 7 -12 353.06 37.4
1 7 -12 292.27 30.7
0 7 -12 227.28 29.7
0 7 -12 192.48 22.6
-1 7 -12 110.69 15.1
-1 7 -12 115.09 19.1
-1 7 -12 123.29 24.2
-2 7 -12 158.48 18.7
-2 7 -12 146.99 23.6
-3 7 -12 0.4 5
-3 7 -12 -3.2 2.4
-3 7 -12 3.6 4.1
-3 7 -12 0.1 4.8
-3 7 -12 3.9 3.5
-4 7 -12 16.4 5.2
-4 7 -12 11.9 6.9
-4 7 -12 29.5 6.3
-5 7 -12 -0.7 2.3
-5 7 -12 0.3 3.9
3 6 -12 79.79 11.1
-3 -6 12 83.99 9.2
-3 -6 12 76.39 10.5
2 6 -12 27.7 8.5
2 6 -12 25.9 10
2 6 -12 30.8 15.8
2 6 -12 17.3 5.7
-2 -6 12 16.6 3.5
1 6 -12 201.18 29.9
1 6 -12 215.88 27.7
1 6 -12 252.87 32.3
1 6 -12 161.18 21.7
1 6 -12 174.28 24.3
-1 -6 12 231.78 21
0 6 -12 3.2 7.8
0 6 -12 1.3 3.6
0 6 -12 5.8 6.5
0 6 -12 1.2 4.1
-1 6 -12 62.59 10.7
-1 6 -12 68.79 10.9
-1 6 -12 49.9 12.5
-1 6 -12 55.79 12.9
-2 6 -12 44.9 9.4
-2 6 -12 46.8 9.5
-2 6 -12 35.1 8.9
-2 6 -12 50.09 18.5
-2 6 -12 30 11.5
-3 6 -12 155.38 19.4
-3 6 -12 140.99 21.5
-3 6 -12 140.19 20
-3 6 -12 161.98 19.9
-3 6 -12 185.58 20.1
-4 6 -12 2.3 3.3
-4 6 -12 -0.3 4.3
-4 6 -12 12.6 5.4
-4 6 -12 1.5 3.2
-4 6 -12 4.6 6.4
-5 6 -12 35.4 8
-5 6 -12 32.7 7.9
-5 6 -12 39 8
4 5 -12 16.5 5.8
-4 -5 12 8.4 2.4
-4 -5 12 13.3 3.1
3 5 -12 1 3.2
3 5 -12 6.2 4
3 5 -12 6.2 12.6
-3 -5 12 -1.5 2.2
-3 -5 12 -1.3 2.5
-3 -5 12 -0.5 1.7
2 5 -12 100.19 19.1
2 5 -12 66.79 16.6
2 5 -12 61.19 14.4
2 5 -12 59.09 10.8
-2 -5 12 70.69 8.3
-2 -5 12 80.19 9.1
-2 -5 12 64.29 8.2
1 5 -12 76.89 13
1 5 -12 105.19 21.8
1 5 -12 106.89 22.4
1 5 -12 88.39 15.5
1 5 -12 115.59 20.5
-1 -5 12 77.49 12.1
-1 -5 12 96.99 10.1
0 5 -12 40.3 12.6
0 5 -12 50.99 9.9
0 5 -12 68.79 14
0 5 -12 62.49 10.3
0 5 -12 40.8 17.7
0 5 -12 55.29 13.1
0 -5 12 49 7.4
-1 5 -12 11.4 5.2
-1 5 -12 8.5 6.9
-1 5 -12 4.1 5.6
-1 5 -12 -2.6 9.2
-1 5 -12 8.4 5.2
1 -5 12 13.4 3.9
-2 5 -12 44.9 9.2
-2 5 -12 58.69 17.8
-2 5 -12 28.8 12.1
-2 5 -12 39.5 8.8
-2 5 -12 38.8 13.7
-2 5 -12 37.9 9.1
2 -5 12 35.7 6.3
2 -5 12 51.19 6.5
-3 5 -12 44.4 9
-3 5 -12 38.8 13.1
-3 5 -12 50.99 9.6
-3 5 -12 44.2 9.7
-3 5 -12 25.1 11.2
3 -5 12 43.4 6.5
3 -5 12 43.9 6.4
-4 5 -12 54.59 10.3
-4 5 -12 44.1 11.6
4 -5 12 40.3 7.7
4 -5 12 36.2 7.3
4 -5 12 44.8 6.2
-5 5 -12 -1.6 2.2
-5 5 -12 -1.6 3.4
-5 5 -12 3.2 4.8
5 -5 12 0.2 2.2
5 -5 12 0.4 2.3
5 4 -12 46.4 7.7
-5 -4 12 30.8 4.8
4 4 -12 39.6 9.1
4 4 -12 49.9 11.3
-4 -4 12 55.29 7.5
-4 -4 12 71.89 7.7
-4 -4 12 58.09 7.2
3 4 -12 230.28 25.9
3 4 -12 254.57 30.6
3 4 -12 205.78 28.4
-3 -4 12 243.28 21.8
-3 -4 12 246.78 24.4
-3 -4 12 245.58 22.4
2 4 -12 72.29 16.6
2 4 -12 58.69 10.4
2 4 -12 39.7 13.7
-2 -4 12 59.99 7.5
-2 -4 12 66.09 8.3
-2 -4 12 51.79 8
1 4 -12 316.97 45.8
1 4 -12 379.56 42.1
1 4 -12 364.96 36.6
1 4 -12 380.46 35.2
-1 -4 12 339.67 34.1
-1 -4 12 377.86 32.4
0 4 -12 0.3 3.9
0 4 -12 4.8 6.5
0 4 -12 4.5 4.7
0 4 -12 0.8 4.5
0 4 -12 6.8 9
0 -4 12 1.1 2.1
0 -4 12 -0.3 3.3
-1 4 -12 454.85 41.7
-1 4 -12 447.56 49.5
-1 4 -12 422.76 42
-1 4 -12 504.15 60.69
-1 4 -12 410.36 41.4
1 -4 12 392.56 40.1
-2 4 -12 402.66 46.2
-2 4 -12 364.76 37.1
-2 4 -12 337.97 36.5
-2 4 -12 414.96 46.6
-2 4 -12 377.56 37.7
2 -4 12 347.17 33.4
2 -4 12 413.36 33.7
-3 4 -12 138.69 25.6
-3 4 -12 132.09 16.5
-3 4 -12 151.48 18.2
-3 4 -12 116.59 16.6
3 -4 12 129.29 13.9
3 -4 12 143.89 14.5
3 -4 12 124.39 16.5
-4 4 -12 355.06 34.7
-4 4 -12 396.06 39.5
4 -4 12 301.77 29.5
4 -4 12 317.77 29
4 -4 12 320.67 29.2
-5 4 -12 26.5 6.3
-5 4 -12 39.5 8.2
5 -4 12 28.8 4.6
5 -4 12 17.5 4.1
5 3 -12 38.1 8.3
-5 -3 12 27.6 5.9
-5 -3 12 35.3 5
-5 -3 12 35.2 6.5
4 3 -12 387.36 44.5
4 3 -12 400.36 40.1
4 3 -12 439.96 44
-4 -3 12 409.56 37.1
-4 -3 12 431.06 37.4
-4 -3 12 474.05 37
3 3 -12 2 4
3 3 -12 -0.3 2.7
3 3 -12 7.9 5.6
3 3 -12 0.2 6
-3 -3 12 7.1 2.7
-3 -3 12 -0.4 2.4
-3 -3 12 -0.3 2
2 3 -12 572.34 64.69
2 3 -12 657.23 55.99
-2 -3 12 620.74 50.89
-2 -3 12 589.24 50.89
-2 -3 12 566.24 51.39
1 3 -12 36.1 14.2
1 3 -12 67.09 15
1 3 -12 67.79 10.8
1 3 -12 52.19 10.3
1 3 -12 63.19 13.1
1 3 -12 70.19 20
-1 -3 12 51.49 8.2
-1 -3 12 68.79 8.8
0 3 -12 438.86 57.59
0 3 -12 450.25 45.7
0 3 -12 514.55 46.6
0 3 -12 514.55 45.4
0 3 -12 438.86 50.09
0 3 -12 553.74 65.59
0 -3 12 471.65 49.2
0 -3 12 524.25 42.3
0 -3 12 455.35 41.7
-1 3 -12 141.09 22.3
-1 3 -12 122.89 16.6
-1 3 -12 136.59 27.4
-1 3 -12 144.29 17.9
1 -3 12 139.59 14.5
1 -3 12 88.89 28.3
1 -3 12 121.59 14.3
1 -3 12 133.09 14.9
-2 3 -12 385.46 43.4
-2 3 -12 310.47 31.5
-2 3 -12 311.67 37.7
-2 3 -12 325.57 32.5
2 -3 12 300.17 28.4
2 -3 12 288.87 28.9
2 -3 12 278.57 30.6
-3 3 -12 49.99 10
-3 3 -12 62.79 10.7
-3 3 -12 68.29 19.7
3 -3 12 57.39 8.3
3 -3 12 60.19 9.7
3 -3 12 53.59 7.7
-4 3 -12 83.59 19
-4 3 -12 112.69 15
-4 3 -12 120.49 16.5
4 -3 12 102.89 11.5
4 -3 12 103.49 11.4
4 -3 12 102.99 12.1
-5 3 -12 22.2 5.8
-5 3 -12 33.6 6.9
-5 3 -12 14.5 5.1
5 -3 12 20.9 4
6 2 -12 8.8 4
-6 -2 12 8 2.9
-6 -2 12 5 2
5 2 -12 0.9 4.2
5 2 -12 8.3 4.7
-5 -2 12 4 3
-5 -2 12 9.8 3.1
-5 -2 12 8.3 2.8
-5 -2 12 9.7 3.2
4 2 -12 15.5 7.2
4 2 -12 5.8 3.6
4 2 -12 1.1 3.5
-4 -2 12 1.9 5.2
-4 -2 12 3.8 2.2
-4 -2 12 3.7 2.9
-4 -2 12 3.4 3
3 2 -12 18.2 5.8
3 2 -12 21.1 9
3 2 -12 23.2 8.8
3 2 -12 18.2 7.9
-3 -2 12 23.4 6
-3 -2 12 19.7 5.1
-3 -2 12 20.8 5.4
2 2 -12 4.9 4.5
2 2 -12 19.2 8.6
2 2 -12 21.2 8.3
2 2 -12 10.3 7.9
2 2 -12 5.8 4.6
-2 -2 12 16.7 3.8
-2 -2 12 10.2 4.1
-2 -2 12 12.9 3.9
-2 -2 12 7.3 3.9
1 2 -12 395.76 49.8
1 2 -12 372.16 36.8
1 2 -12 366.96 37.6
-1 -2 12 294.57 33.4
-1 -2 12 340.37 33.2
-1 -2 12 406.66 40
-1 -2 12 411.96 35
-1 -2 12 421.16 34.1
0 2 -12 17.1 10.4
0 2 -12 12.3 5.4
0 2 -12 6 12.8
0 2 -12 7.5 4.4
0 -2 12 11.1 3.9
0 -2 12 6.3 3.2
0 -2 12 13.9 6.9
-1 2 -12 163.78 20.4
-1 2 -12 221.98 32
-1 2 -12 209.98 27.3
-1 2 -12 185.98 19.7
1 -2 12 167.38 17.8
1 -2 12 170.38 18.7
1 -2 12 130.39 17.8
1 -2 12 162.78 17.9
-2 2 -12 39.4 13.2
-2 2 -12 21.2 8.4
-2 2 -12 30.1 7.6
-2 2 -12 29.7 8.1
2 -2 12 26.5 6.9
2 -2 12 30.1 6.1
2 -2 12 44.4 8.1
2 -2 12 32.8 6.5
-3 2 -12 80.79 17.7
-3 2 -12 57.39 10.2
-3 2 -12 51.79 9.8
3 -2 12 51.39 8.7
3 -2 12 58.79 9.2
3 -2 12 50.39 7.7
3 -2 12 53.39 8
-4 2 -12 59.19 13.9
-4 2 -12 88.69 11.6
-4 2 -12 90.49 11.4
4 -2 12 73.29 8.6
4 -2 12 64.89 10.1
4 -2 12 51.99 7.9
4 -2 12 65.79 9.3
-5 2 -12 6.4 3.3
-5 2 -12 1.7 3.9
-5 2 -12 2.4 2.9
5 -2 12 2.9 2.4
5 -2 12 4.6 2.5
6 1 -12 12.9 5.3
-6 -1 12 10 2.7
-6 -1 12 6.2 2.4
-6 -1 12 9.4 4.2
5 1 -12 220.88 19.5
-5 -1 12 203.48 19.8
4 1 -12 5.8 6.6
4 1 -12 3.6 4.2
4 1 -12 17.9 8.1
4 1 -12 8 3.9
-4 -1 12 5.7 3.9
-4 -1 12 9.3 4.3
-4 -1 12 12.4 3.8
-4 -1 12 10.4 3.5
3 1 -12 321.67 33
3 1 -12 281.97 34.3
3 1 -12 253.57 26.1
3 1 -12 248.78 27.4
-3 -1 12 277.97 25.3
-3 -1 12 243.18 25.2
-3 -1 12 274.87 26.3
-3 -1 12 282.77 26
2 1 -12 33.5 12.3
2 1 -12 26.5 8.9
2 1 -12 14.5 10.7
2 1 -12 23.1 6.8
2 1 -12 44.4 8.3
2 1 -12 25.3 8.3
-2 -1 12 32.4 6.3
-2 -1 12 22.3 5.9
1 1 -12 381.96 42.6
1 1 -12 436.56 37.5
1 1 -12 468.55 52.09
1 1 -12 401.16 38.8
-1 -1 12 375.06 37.2
-1 -1 12 412.16 36.9
-1 -1 12 408.26 37
-1 -1 12 382.76 45.3
-1 -1 12 431.16 38.5
0 1 -12 -2.5 4.3
0 1 -12 4.7 8.1
0 1 -12 1.4 3.1
0 1 -12 3.5 5.7
0 -1 12 6 4
0 -1 12 4.8 3.1
0 -1 12 0.7 3.2
-1 1 -12 452.65 42.3
-1 1 -12 378.96 42.9
-1 1 -12 581.64 55.29
-1 1 -12 533.35 41.8
-1 1 -12 512.55 52.09
1 -1 12 451.05 42.9
1 -1 12 432.16 42.6
1 -1 12 465.85 42
1 -1 12 459.85 41.7
-2 1 -12 33.5 9.5
-2 1 -12 47.7 9
2 -1 12 46.7 9
2 -1 12 41.6 7.4
2 -1 12 46 8.3
2 -1 12 45.2 7.7
-3 1 -12 176.98 22.2
-3 1 -12 203.38 29
-3 1 -12 221.38 20.4
3 -1 12 181.58 19.6
3 -1 12 176.68 19.6
3 -1 12 208.48 21.6
3 -1 12 193.78 19
-4 1 -12 1.8 3.8
-4 1 -12 5.6 3.4
-4 1 -12 11.6 6.3
4 -1 12 8.7 2.8
4 -1 12 4.4 2.2
4 -1 12 4 4.2
6 0 -12 23.4 5.3
6 0 -12 25.6 6.5
-6 0 12 15.4 3.7
-6 0 12 26.6 5.4
-6 0 12 24.5 4.4
5 0 -12 134.29 19.2
5 0 -12 148.59 16.3
5 0 -12 158.58 19.2
-5 0 12 163.68 16.9
-5 0 12 150.48 16.2
-5 0 12 160.18 16.4
-5 0 12 181.78 15.8
4 0 -12 3.7 4.8
4 0 -12 6 5.9
4 0 -12 4.4 3.9
4 0 -12 6 4.4
-4 0 12 5.8 3.8
-4 0 12 5.1 3.3
-4 0 12 4.7 3.5
-4 0 12 4.8 2.7
3 0 -12 260.67 32.1
3 0 -12 264.67 25.4
3 0 -12 233.28 24.9
3 0 -12 245.88 27.4
-3 0 12 220.78 25
-3 0 12 255.27 23.6
-3 0 12 247.48 24.8
2 0 -12 159.18 19.1
2 0 -12 204.78 20.3
2 0 -12 199.48 28.5
-2 0 12 170.78 19.7
-2 0 12 188.38 18.9
-2 0 12 165.68 19.5
1 0 -12 114.09 15.1
1 0 -12 142.69 15.7
1 0 -12 173.48 26.8
1 0 -12 92.49 16.5
-1 0 12 118.09 15.1
-1 0 12 142.39 15
-1 0 12 119.99 15.2
-1 0 12 124.79 14.7
0 0 -12 53.09 15.9
0 0 -12 36.8 8.3
0 0 -12 51.99 11.4
0 0 -12 56.19 9.1
0 0 12 51.99 9
0 0 12 41.2 8.3
0 0 12 47.4 8.5
0 0 12 59.69 8.9
-1 0 -12 214.18 27.7
-1 0 -12 255.87 22.5
-1 0 -12 179.88 27.5
-1 0 -12 214.88 22.6
1 0 12 228.68 21.7
1 0 12 188.58 21
1 0 12 210.08 22.7
-2 0 -12 93.19 14
-2 0 -12 102.99 18.2
-2 0 -12 91.49 12.7
2 0 12 80.39 10.7
2 0 12 108.99 11.7
-3 0 -12 4 2.4
-3 0 -12 -0.9 3.9
3 0 12 1.6 2.3
3 0 12 -0.8 2.5
3 0 12 0.9 2.3
6 -1 -12 32.1 6.7
6 -1 -12 26.5 5.5
-6 1 12 31.9 5.7
-6 1 12 37.1 5.5
5 -1 -12 64.29 10.7
5 -1 -12 51.29 10.6
5 -1 -12 74.29 10.2
-5 1 12 59.69 8.6
-5 1 12 75.59 10.2
-5 1 12 88.89 10
4 -1 -12 79.59 11.9
4 -1 -12 71.69 12.6
4 -1 -12 81.79 14.6
-4 1 12 92.59 10.4
-4 1 12 82.09 9.8
-4 1 12 99.99 11.9
3 -1 -12 649.83 65.49
3 -1 -12 717.23 59.49
-3 1 12 689.13 56.99
-3 1 12 604.74 59.89
-3 1 12 677.03 57.19
2 -1 -12 34.5 11.2
2 -1 -12 32.4 7.7
-2 1 12 35.2 7
-2 1 12 24.4 5.7
-2 1 12 23.6 5.9
-2 1 12 41.5 8
1 -1 -12 295.57 27.4
1 -1 -12 218.48 28.3
-1 1 12 251.87 26.6
-1 1 12 287.37 27.9
-1 1 12 271.67 25.7
0 -1 -12 101.59 12.9
0 -1 -12 109.59 18.1
0 -1 -12 82.79 14.9
0 1 12 94.89 13.9
0 1 12 96.09 11.9
0 1 12 87.39 13
0 1 12 86.69 11.1
-1 -1 -12 5.1 5.3
-1 -1 -12 11.3 4.8
-1 -1 -12 7.3 4.7
-1 -1 -12 0.8 2.3
1 1 12 6.9 3.8
1 1 12 1.9 2.6
1 1 12 4.9 3.9
1 1 12 8 3.1
-2 -1 -12 57.09 11.5
-2 -1 -12 56.69 8.1
2 1 12 55.19 8.3
2 1 12 52.19 7
-3 -1 -12 20.6 5.8
3 1 12 13.1 4.2
6 -2 -12 383.76 35.2
6 -2 -12 386.86 33.6
5 -2 -12 -0.2 3.3
5 -2 -12 1.7 3
5 -2 -12 2.8 4.7
-5 2 12 -0.7 2.7
-5 2 12 -0.3 2
4 -2 -12 851.81 71.59
4 -2 -12 713.13 73.09
3 -2 -12 202.78 24.6
3 -2 -12 202.88 20.3
-3 2 12 171.48 19.2
-3 2 12 141.79 16.8
2 -2 -12 535.65 47.2
2 -2 -12 495.35 53.09
-2 2 12 512.05 44.8
-2 2 12 532.55 47.5
1 -2 -12 290.77 27.3
1 -2 -12 253.57 31.8
-1 2 12 282.97 25.2
-1 2 12 205.38 25.8
-1 2 12 309.47 28.3
0 -2 -12 413.36 42.3
0 -2 -12 443.26 45.3
0 -2 -12 479.45 43.2
0 2 12 371.36 39
0 2 12 466.05 41.7
-1 -2 -12 280.07 25.6
1 2 12 252.57 23.5
1 2 12 286.17 26.5
-2 -2 -12 84.89 9
-2 -2 -12 70.59 11.8
2 2 12 94.09 11.7
5 -3 -12 449.66 43.2
-5 3 12 551.94 43.4
4 -3 -12 303.27 28.6
-4 3 12 277.47 25.4
-4 3 12 327.57 28.4
3 -3 -12 569.04 45.7
3 -3 -12 428.36 47.6
-3 3 12 512.95 41.7
2 -3 -12 460.55 45.6
2 -3 -12 463.95 41.8
-2 3 12 529.45 42.9
-2 3 12 419.56 38.4
1 -3 -12 163.48 18
-1 3 12 174.28 18.2
0 -3 -12 111.39 13.7
4 -4 -12 99.19 14.1
4 -4 -12 136.79 14.2
-4 4 12 136.29 13.7
3 -4 -12 4.8 3.3
3 -4 -12 5.2 2.8
-3 4 12 5.6 3
2 -4 -12 46.2 7.7
1 7 -13 276.07 31.3
0 7 -13 45.4 12.3
0 7 -13 42.7 7.3
-1 7 -13 352.36 37.9
-1 7 -13 458.65 43.4
-1 7 -13 471.25 50.89
-2 7 -13 1.9 2.8
-2 7 -13 0.7 3.7
-2 7 -13 1.1 2.8
-2 7 -13 1.9 4.8
-3 7 -13 179.58 19.6
-3 7 -13 173.08 24.5
-4 7 -13 15.9 4.9
2 6 -13 135.29 15.5
2 6 -13 139.49 17.5
1 6 -13 0.8 2.7
1 6 -13 -0.3 3.6
1 6 -13 3.5 3.5
0 6 -13 213.78 22.5
0 6 -13 188.58 31.1
-1 6 -13 55.79 17
-1 6 -13 50.89 12.5
-1 6 -13 73.89 11
-1 6 -13 72.59 12
-1 6 -13 84.59 13.7
-2 6 -13 161.48 23.7
-2 6 -13 168.98 19.1
-3 6 -13 50.69 8.8
-3 6 -13 38.3 12.6
-3 6 -13 41.5 7.6
-3 6 -13 36.1 7.8
-4 6 -13 52.79 11.5
-4 6 -13 50.39 8.3
3 5 -13 7.2 4.9
3 5 -13 2.8 3.5
-3 -5 13 4.8 2.3
-3 -5 13 6.1 2.2
2 5 -13 23.9 5.7
2 5 -13 23.9 9
2 5 -13 33 10.9
-2 -5 13 12.6 3.4
-2 -5 13 17.4 4.3
1 5 -13 90.19 26.6
1 5 -13 39 12.8
1 5 -13 37.4 8.9
-1 -5 13 42.3 7.1
-1 -5 13 38 5.3
0 5 -13 18.7 5.7
0 5 -13 13.2 9.6
0 5 -13 19.5 11.3
0 5 -13 19.6 7.2
0 -5 13 21.3 4
0 -5 13 17.2 4.1
-1 5 -13 18.7 7.4
-1 5 -13 11.5 4.4
-1 5 -13 14.2 10.5
-1 5 -13 19.5 5.8
-1 5 -13 15.3 7.8
1 -5 13 9.9 3.6
-2 5 -13 14.3 5.7
-2 5 -13 8.4 7
-2 5 -13 9.4 6.7
-2 5 -13 11.8 4.9
2 -5 13 12.3 3.4
2 -5 13 9.9 4.1
-3 5 -13 0.3 5.1
-3 5 -13 8.7 4
-3 5 -13 1.7 4.9
-3 5 -13 20.2 6.2
3 -5 13 9.8 3.3
-4 5 -13 20.2 5.3
-4 5 -13 31.6 7.5
4 4 -13 410.56 37.2
-4 -4 13 408.66 32.5
-4 -4 13 331.97 32.7
3 4 -13 70.09 13.5
3 4 -13 103.39 16.2
-3 -4 13 103.99 11.5
-3 -4 13 91.99 10
-3 -4 13 102.29 10.1
2 4 -13 379.86 46.9
2 4 -13 299.27 35.6
2 4 -13 304.27 30
-2 -4 13 260.57 25.9
-2 -4 13 316.37 25.9
-2 -4 13 254.77 25.3
1 4 -13 217.08 31.9
1 4 -13 226.98 24.2
1 4 -13 271.17 29.7
-1 -4 13 210.98 20.1
-1 -4 13 219.88 20.7
-1 -4 13 207.38 20.2
0 4 -13 134.79 17.3
0 4 -13 126.59 20.1
0 4 -13 157.98 17.3
0 4 -13 163.18 28.8
0 -4 13 145.59 14.6
0 -4 13 131.29 14.2
-1 4 -13 188.78 27.7
-1 4 -13 236.38 24.7
-1 4 -13 279.47 37.9
-1 4 -13 268.17 24.7
1 -4 13 210.48 21.2
1 -4 13 232.38 21.1
1 -4 13 209.08 20.9
-2 4 -13 35.2 8.7
-2 4 -13 38.6 11.7
-2 4 -13 43.2 11.6
-2 4 -13 44.1 13.3
2 -4 13 55.49 7.5
2 -4 13 45.4 6.3
-3 4 -13 170.78 25.2
-3 4 -13 172.08 17.7
-3 4 -13 138.99 17.4
3 -4 13 144.99 13.9
3 -4 13 121.99 15.5
3 -4 13 119.39 14.3
-4 4 -13 -2.8 4.9
-4 4 -13 5.7 3.7
-4 4 -13 4.7 3.3
4 -4 13 1.8 2
4 -4 13 6.5 2.3
5 3 -13 -1.1 2.9
-5 -3 13 4.6 1.7
-5 -3 13 0.6 1.6
4 3 -13 123.19 16.3
-4 -3 13 139.09 12.3
-4 -3 13 106.99 12.1
-4 -3 13 124.09 12.8
3 3 -13 14.1 8.6
3 3 -13 7.8 4.5
3 3 -13 17.8 8.5
-3 -3 13 12.5 3
-3 -3 13 8.4 3.7
2 3 -13 276.47 35.4
2 3 -13 322.17 35.3
2 3 -13 284.27 29.2
-2 -3 13 277.17 26.5
-2 -3 13 280.87 25.9
1 3 -13 27 11.1
1 3 -13 16.4 5.5
1 3 -13 29 13.8
1 3 -13 10.6 5.3
-1 -3 13 20.9 5.1
-1 -3 13 16.1 5.2
0 3 -13 336.87 36.6
0 3 -13 361.76 40.6
0 3 -13 442.56 52.69
0 3 -13 392.76 35.9
0 -3 13 402.76 35.8
0 -3 13 437.16 36.6
0 -3 13 342.77 33.6
-1 3 -13 37.6 11.9
-1 3 -13 49.8 9.3
-1 3 -13 49.3 9
-1 3 -13 52.59 15.4
1 -3 13 46.9 6.8
-2 3 -13 460.05 46.4
-2 3 -13 393.36 37.6
-2 3 -13 407.26 39.1
-2 3 -13 310.77 38.5
2 -3 13 375.06 34.2
2 -3 13 407.96 34.2
2 -3 13 389.66 34.9
-3 3 -13 10.4 6.4
-3 3 -13 3.6 2.7
-3 3 -13 3.6 3.5
3 -3 13 5.1 2.2
3 -3 13 0.7 2
3 -3 13 2.3 2.9
-4 3 -13 182.28 18.7
4 -3 13 177.58 17
4 -3 13 148.39 15.4
5 2 -13 4.7 3.4
-5 -2 13 6.8 3.8
-5 -2 13 6.5 2.2
-5 -2 13 1.6 1.7
4 2 -13 24.7 7.2
4 2 -13 14.1 5.6
4 2 -13 10.1 4.3
-4 -2 13 24.8 4.5
-4 -2 13 13.3 3.9
-4 -2 13 19.5 3.9
3 2 -13 56.99 9.7
3 2 -13 49.9 12.3
3 2 -13 56.59 13.7
-3 -2 13 66.19 9.5
-3 -2 13 54.79 8.2
-3 -2 13 69.79 8.8
-3 -2 13 67.59 8.1
2 2 -13 23.6 9.9
2 2 -13 13.6 6.2
2 2 -13 21.3 6.1
2 2 -13 23.9 11.2
-2 -2 13 22.8 6.4
-2 -2 13 29.2 5.2
-2 -2 13 19.1 4.7
1 2 -13 63.39 10.4
1 2 -13 83.79 18.2
1 2 -13 55.89 11.6
-1 -2 13 60.69 9.2
-1 -2 13 63.79 8.6
0 2 -13 0.5 3.3
0 2 -13 1 4.8
0 2 -13 6.5 5.4
0 2 -13 13.5 9.2
0 -2 13 -0.4 2.9
0 -2 13 3.2 4.2
0 -2 13 5.9 3.1
0 -2 13 5.5 3.2
-1 2 -13 28 9.5
-1 2 -13 15.4 5.2
-1 2 -13 12.7 5.1
-1 2 -13 29.2 9.5
1 -2 13 15.8 4.4
1 -2 13 19.7 4.7
1 -2 13 16.3 4.6
-2 2 -13 4.1 3.8
-2 2 -13 7 4
-2 2 -13 4.9 5.5
-2 2 -13 2.7 4.9
2 -2 13 4.5 2.9
2 -2 13 2 2.3
2 -2 13 2 5
-3 2 -13 2.8 5
-3 2 -13 0 4.3
-3 2 -13 0.8 2.5
3 -2 13 2.2 1.9
3 -2 13 3.7 2.2
-4 2 -13 4.4 3.4
-4 2 -13 4.5 3.2
4 -2 13 6.5 2.2
4 -2 13 4.3 2
5 1 -13 41.4 8
-5 -1 13 41.1 6.9
-5 -1 13 34.1 5.4
-5 -1 13 51.99 6.3
4 1 -13 1080.29 91.79
-4 -1 13 1192.58 88.29
-4 -1 13 1073.89 88.19
-4 -1 13 1111.49 88.59
-4 -1 13 938.71 88.59
3 1 -13 6.7 5.3
3 1 -13 8.5 5.6
3 1 -13 6.3 3.8
-3 -1 13 5.5 3.6
-3 -1 13 4.2 2.9
-3 -1 13 3.8 3.2
2 1 -13 670.53 68.09
2 1 -13 599.34 58.19
-2 -1 13 740.23 57.39
-2 -1 13 634.94 60.39
-2 -1 13 714.13 57.59
1 1 -13 23 6.1
1 1 -13 38 13.3
1 1 -13 17.3 6.7
-1 -1 13 33.9 9.2
-1 -1 13 35 6.3
-1 -1 13 22.1 6.7
0 1 -13 664.83 62.99
0 1 -13 498.65 48.8
0 1 -13 511.65 53.49
0 -1 13 549.15 51.29
0 -1 13 565.54 47.9
0 -1 13 588.84 48.5
0 -1 13 510.55 52.19
-1 1 -13 541.05 51.59
1 -1 13 483.05 43.9
1 -1 13 538.05 44.4
1 -1 13 456.75 44
1 -1 13 522.75 45.5
-2 1 -13 71.09 15.2
2 -1 13 89.99 10.6
2 -1 13 93.99 10.4
2 -1 13 88.99 10.6
-3 1 -13 76.39 10.3
-3 1 -13 74.89 13.5
3 -1 13 92.69 9.3
5 0 -13 -2.1 2.6
5 0 -13 -0.9 2.9
-5 0 13 -1.7 1.8
-5 0 13 4.9 2.2
-5 0 13 3 2
4 0 -13 -0.2 4.9
4 0 -13 -1 3
4 0 -13 2.3 3.3
-4 0 13 -2.5 3.1
-4 0 13 3 2.7
-4 0 13 5.1 2.7
-4 0 13 -0.5 2.1
3 0 -13 120.69 13.5
3 0 -13 128.09 19.5
-3 0 13 135.59 14
-3 0 13 106.99 14
-3 0 13 146.29 14.8
2 0 -13 42 12.8
2 0 -13 44.9 8.1
-2 0 13 48.9 7.3
-2 0 13 46.7 7.7
-2 0 13 51.59 8.5
1 0 -13 73.19 10.4
1 0 -13 83.59 16.8
-1 0 13 90.19 10.6
-1 0 13 66.09 10.4
0 0 -13 2.3 2.8
0 0 -13 -2.6 4
0 0 -13 2.7 5.1
0 0 -13 4 3.5
0 0 13 0.7 2.7
0 0 13 7.1 3.6
0 0 13 2 3.3
0 0 13 0 1.9
-1 0 -13 1.7 2.2
-1 0 -13 2.3 3.7
-1 0 -13 -2.9 4.9
1 0 13 0.5 2.8
1 0 13 1.6 2.6
1 0 13 5.6 3.7
1 0 13 2.9 2.5
-2 0 -13 2 3.3
-2 0 -13 -1.8 1.7
2 0 13 4.8 3
2 0 13 3.2 2.1
2 0 13 -0.1 2
5 -1 -13 3.7 2.9
5 -1 -13 10.2 2.8
-5 1 13 7 2.6
-5 1 13 7.1 2.9
4 -1 -13 145.79 14.7
4 -1 -13 118.79 17.5
-4 1 13 120.99 13.9
-4 1 13 172.98 15.8
-4 1 13 170.48 14.6
3 -1 -13 22.3 8.1
3 -1 -13 21.7 5.3
-3 1 13 35.2 7.1
-3 1 13 28.9 5.3
2 -1 -13 366.26 32.1
2 -1 -13 287.27 42.6
-2 1 13 340.67 31.6
-2 1 13 400.76 34.4
-2 1 13 367.76 34.9
1 -1 -13 90.79 11.3
1 -1 -13 105.29 16.7
-1 1 13 91.89 12
-1 1 13 111.09 14.2
-1 1 13 73.69 11.7
0 -1 -13 17 4.4
0 -1 -13 12.7 4.8
0 1 13 17.9 5
0 1 13 23.9 10.2
0 1 13 20.1 4.2
-1 -1 -13 16.4 5.7
1 1 13 14.5 3.2
1 1 13 10.1 3.2
2 1 13 3.9 1.9
5 -2 -13 274.77 25
-5 2 13 303.07 26.2
4 -2 -13 392.46 36.6
-4 2 13 408.56 36.1
-4 2 13 430.96 35
3 -2 -13 119.89 13.4
-3 2 13 122.99 12
-3 2 13 124.99 14.1
-2 2 13 278.67 24.5
1 -2 -13 32.6 6.4
1 -2 -13 37.7 7.7
-1 2 13 29 5.8
3 -3 -13 56.89 6.6
3 -3 -13 36.3 7.2
2 -3 -13 18 3.7
1 6 -14 0.9 2.3
1 6 -14 0.1 3.4
1 6 -14 0.3 2.7
0 6 -14 51.89 12.5
0 6 -14 91.19 13.8
0 6 -14 69.09 10.7
-1 6 -14 1.2 3.6
-1 6 -14 -1 2.3
-1 6 -14 0.3 2.3
-2 6 -14 10.6 5.8
-2 6 -14 8.3 4.9
-2 6 -14 7.7 4.1
2 5 -14 27.2 6
2 5 -14 38.1 7.8
1 5 -14 88.89 11.4
1 5 -14 87.29 15
0 5 -14 26.4 9.1
0 5 -14 7.3 6.1
0 5 -14 6.6 3.4
0 5 -14 13.4 4.8
-1 5 -14 38.6 7.1
-1 5 -14 53.89 12.9
-1 5 -14 32.7 8.1
-2 5 -14 1 2.4
-2 5 -14 0.6 3.9
-2 5 -14 7.9 3.2
-2 5 -14 -1.4 3
-3 5 -14 1.8 2.7
-3 5 -14 15.3 6.8
-3 5 -14 9.3 3.3
3 4 -14 54.59 8.7
3 4 -14 49 8.2
-3 -4 14 47.2 5.7
2 4 -14 596.44 56.59
-2 -4 14 697.73 54.09
-2 -4 14 676.13 54.19
1 4 -14 56.09 14.4
1 4 -14 36.4 8
1 4 -14 37.7 7.6
1 4 -14 51.49 12
-1 -4 14 47.5 5.7
0 4 -14 642.44 61.69
0 4 -14 651.83 59.09
0 -4 14 692.83 56.59
0 -4 14 631.14 55.69
0 -4 14 767.82 55.99
-1 4 -14 2.5 4.2
-1 4 -14 11 6.8
-1 4 -14 0.5 1.9
-1 4 -14 2.8 2.8
1 -4 14 4.3 2.6
1 -4 14 -1.4 2.5
-2 4 -14 455.35 41.6
-2 4 -14 442.06 45.9
2 -4 14 481.65 38.6
2 -4 14 455.45 38.7
-3 4 -14 53.59 7.5
-3 4 -14 52.49 7.8
3 -4 14 52.29 7.8
4 3 -14 19.7 5.2
-4 -3 14 26 5.3
-4 -3 14 26.7 4.1
3 3 -14 57.09 10.5
3 3 -14 52.39 9.6
-3 -3 14 53.99 6.6
-3 -3 14 57.49 6.9
2 3 -14 272.87 25.4
2 3 -14 240.68 29.8
-2 -3 14 235.28 24.1
-2 -3 14 267.07 22.9
1 3 -14 58.39 12.6
1 3 -14 23.2 6.1
-1 -3 14 33.6 6.6
-1 -3 14 43.5 5.8
0 3 -14 336.27 32.6
0 -3 14 353.46 31
0 -3 14 344.27 29.9
-1 3 -14 31.6 6.9
-1 3 -14 34.9 10.5
1 -3 14 34.8 5.6
1 -3 14 34.2 6.8
1 -3 14 28.1 4.9
-2 3 -14 123.79 13.4
2 -3 14 97.69 10.6
2 -3 14 93.69 12.3
-3 3 -14 28 8.4
-3 3 -14 9.6 4.4
3 -3 14 18.7 3.5
3 -3 14 21 3.7
4 2 -14 157.68 17.4
-4 -2 14 129.59 13.5
3 2 -14 2.6 4.8
3 2 -14 2 2.6
3 2 -14 4.7 4.3
-3 -2 14 3.1 3.2
-3 -2 14 2.9 2.1
-3 -2 14 1 1.7
2 2 -14 329.17 34.2
2 2 -14 273.47 26.2
-2 -2 14 236.38 25.9
1 2 -14 151.38 23
-1 -2 14 134.09 14
-1 -2 14 147.09 14.1
-1 -2 14 127.89 15
0 2 -14 168.08 18.6
0 2 -14 208.88 27.2
0 2 -14 155.98 20.5
0 -2 14 164.18 18
0 -2 14 201.68 17.5
-1 2 -14 9.8 5
-1 2 -14 6 3.5
-1 2 -14 10.4 6.2
1 -2 14 7.4 3
1 -2 14 14.7 3.7
1 -2 14 11.5 3.9
-2 2 -14 140.59 17.7
-2 2 -14 113.59 13.2
2 -2 14 130.29 12.1
2 -2 14 103.09 11.8
-4 -1 14 255.57 20.4
-4 -1 14 231.48 21.6
-4 -1 14 193.68 20
3 1 -14 384.36 41.2
-3 -1 14 421.96 35.8
-3 -1 14 396.16 35.4
-3 -1 14 457.45 35.8
2 1 -14 215.38 23.5
2 1 -14 283.47 31
-2 -1 14 275.77 25.7
1 1 -14 294.17 31.7
-1 -1 14 228.38 22
-1 -1 14 194.18 22.9
-1 -1 14 207.78 23.7
-1 -1 14 275.07 22.4
0 1 -14 368.66 36.6
0 1 -14 491.95 42.1
0 -1 14 411.36 39.1
-1 1 -14 15.5 6.1
-1 1 -14 21.2 6.7
1 -1 14 28.2 6.2
-2 1 -14 339.77 41.1
2 -1 14 391.86 34.8
2 -1 14 471.05 35.4
4 0 -14 1.5 2.7
-4 0 14 -3.5 2
-4 0 14 4.8 2.6
-4 0 14 1.9 2
3 0 -14 61.59 10.5
-3 0 14 57.19 9.5
-3 0 14 46.9 6.7
2 0 -14 87.29 13.9
-2 0 14 74.89 10.5
-2 0 14 60.49 8.2
1 0 -14 137.99 19
-1 0 14 148.09 13.7
-1 0 14 111.89 13
0 0 -14 -0.9 1.8
0 0 -14 4 3.4
0 0 14 4.1 2.6
0 0 14 1.1 1.7
0 0 14 0.3 2.3
1 0 14 15.4 3.6
1 0 14 9.5 2.7
3 -1 -14 7.1 3.6
-3 1 14 9.3 2.5
-3 1 14 7.7 2.6
-2 1 14 218.58 22.6
-2 1 14 245.88 24
-2 1 14 282.17 22.1
1 -1 -14 0 2.3
1 4 -15 182.48 22.1
1 4 -15 135.09 15.2
0 4 -15 112.99 12.5
-1 4 -15 113.89 14.1
-1 4 -15 141.49 13.5
-1 4 -15 91.49 16
2 3 -15 41.8 7.7
1 3 -15 2.6 2.3
1 3 -15 5.2 4
1 3 -15 3.9 4.4
-1 -3 15 8.8 2.4
-1 -3 15 5.1 2.2
0 3 -15 108.29 15.5
0 -3 15 116.19 10.9
0 -3 15 114.39 11.7
-1 3 -15 -0.7 1.3
-1 3 -15 0.6 2.3
1 -3 15 1.2 2.1
2 2 -15 226.48 29.1
-2 -2 15 302.87 23.4
1 2 -15 21.1 4.3
1 2 -15 19.3 8
-1 -2 15 24.8 4.5
0 2 -15 43.4 5.9
0 2 -15 46.1 8.7
0 2 -15 39.8 6.7
loop_
_geom_angle_atom_site_label_1
_geom_angle_atom_site_label_2
_geom_angle_atom_site_label_3
_geom_angle
_geom_angle_site_symmetry_1
_geom_angle_site_symmetry_3
_geom_angle_publ_flag
C8 S1 C7 100.31(15) . . ?
C8 S2 C9 86.11(14) . . ?
C8 N1 N2 111.2(3) . . ?
C9 N2 N1 113.0(3) . . ?
C2 C1 Cl1 119.1(3) . . ?
C2 C1 C6 121.3(3) . . ?
C6 C1 Cl1 119.5(3) . . ?
C1 C2 H2 120.3 . . ?
C1 C2 C3 119.5(3) . . ?
C3 C2 H2 120.3 . . ?
C2 C3 H3 119.8 . . ?
C2 C3 C4 120.5(3) . . ?
C4 C3 H3 119.8 . . ?
C3 C4 C7 120.4(3) . . ?
C5 C4 C3 118.8(3) . . ?
C5 C4 C7 120.8(3) . . ?
C4 C5 H5 119.4 . . ?
C6 C5 C4 121.1(3) . . ?
C6 C5 H5 119.4 . . ?
C1 C6 H6 120.6 . . ?
C5 C6 C1 118.8(3) . . ?
C5 C6 H6 120.6 . . ?
S1 C7 H7A 110.0 . . ?
S1 C7 H7B 110.0 . . ?
C4 C7 S1 108.5(2) . . ?
C4 C7 H7A 110.0 . . ?
C4 C7 H7B 110.0 . . ?
H7A C7 H7B 108.4 . . ?
S2 C8 S1 120.68(16) . . ?
N1 C8 S1 123.9(2) . . ?
N1 C8 S2 115.4(2) . . ?
N2 C9 S2 114.3(2) . . ?
N2 C9 C10 127.5(3) . . ?
C10 C9 S2 118.1(2) . . ?
O1 C10 C9 116.9(3) . . ?
O1 C10 C11 121.5(3) . . ?
C11 C10 C9 121.6(3) . . ?
C12 C11 C10 123.2(3) . . ?
C12 C11 C16 119.8(3) . . ?
C16 C11 C10 116.9(3) . . ?
C11 C12 H12 120.2 . . ?
C11 C12 C13 119.6(4) . . ?
C13 C12 H12 120.2 . . ?
C12 C13 H13 120.3 . . ?
C14 C13 C12 119.4(4) . . ?
C14 C13 H13 120.3 . . ?
C13 C14 H14 119.6 . . ?
C15 C14 C13 120.8(3) . . ?
C15 C14 H14 119.6 . . ?
C14 C15 H15 120.1 . . ?
C14 C15 C16 119.8(4) . . ?
C16 C15 H15 120.1 . . ?
C11 C16 H16 119.8 . . ?
C15 C16 C11 120.5(4) . . ?
C15 C16 H16 119.8 . . ?
loop_
_geom_bond_atom_site_label_1
_geom_bond_atom_site_label_2
_geom_bond_distance
_geom_bond_site_symmetry_2
_geom_bond_publ_flag
Cl1 C1 1.739(3) . ?
S1 C7 1.814(4) . ?
S1 C8 1.742(3) . ?
S2 C8 1.711(3) . ?
S2 C9 1.733(3) . ?
O1 C10 1.211(4) . ?
N1 N2 1.370(4) . ?
N1 C8 1.311(4) . ?
N2 C9 1.294(4) . ?
C1 C2 1.370(5) . ?
C1 C6 1.377(5) . ?
C2 H2 0.9300 . ?
C2 C3 1.379(5) . ?
C3 H3 0.9300 . ?
C3 C4 1.388(5) . ?
C4 C5 1.385(5) . ?
C4 C7 1.500(5) . ?
C5 H5 0.9300 . ?
C5 C6 1.376(5) . ?
C6 H6 0.9300 . ?
C7 H7A 0.9700 . ?
C7 H7B 0.9700 . ?
C9 C10 1.492(4) . ?
C10 C11 1.476(4) . ?
C11 C12 1.384(5) . ?
C11 C16 1.390(5) . ?
C12 H12 0.9300 . ?
C12 C13 1.395(5) . ?
C13 H13 0.9300 . ?
C13 C14 1.388(7) . ?
C14 H14 0.9300 . ?
C14 C15 1.369(8) . ?
C15 H15 0.9300 . ?
C15 C16 1.374(6) . ?
C16 H16 0.9300 . ?
loop_
_geom_torsion_atom_site_label_1
_geom_torsion_atom_site_label_2
_geom_torsion_atom_site_label_3
_geom_torsion_atom_site_label_4
_geom_torsion
_geom_torsion_site_symmetry_1
_geom_torsion_site_symmetry_2
_geom_torsion_site_symmetry_3
_geom_torsion_site_symmetry_4
_geom_torsion_publ_flag
Cl1 C1 C2 C3 -179.1(3) . . . . ?
Cl1 C1 C6 C5 179.6(3) . . . . ?
S2 C9 C10 O1 -8.1(4) . . . . ?
S2 C9 C10 C11 173.7(2) . . . . ?
O1 C10 C11 C12 154.3(3) . . . . ?
O1 C10 C11 C16 -22.9(5) . . . . ?
N1 N2 C9 S2 -0.6(3) . . . . ?
N1 N2 C9 C10 -177.0(3) . . . . ?
N2 N1 C8 S1 -178.6(2) . . . . ?
N2 N1 C8 S2 0.6(3) . . . . ?
N2 C9 C10 O1 168.1(3) . . . . ?
N2 C9 C10 C11 -10.0(5) . . . . ?
C1 C2 C3 C4 -0.2(6) . . . . ?
C2 C1 C6 C5 0.4(5) . . . . ?
C2 C3 C4 C5 -0.3(5) . . . . ?
C2 C3 C4 C7 177.8(3) . . . . ?
C3 C4 C5 C6 0.8(5) . . . . ?
C3 C4 C7 S1 89.1(4) . . . . ?
C4 C5 C6 C1 -0.9(5) . . . . ?
C5 C4 C7 S1 -92.9(4) . . . . ?
C6 C1 C2 C3 0.1(6) . . . . ?
C7 S1 C8 S2 -179.1(2) . . . . ?
C7 S1 C8 N1 0.1(3) . . . . ?
C7 C4 C5 C6 -177.2(3) . . . . ?
C8 S1 C7 C4 -178.3(3) . . . . ?
C8 S2 C9 N2 0.8(2) . . . . ?
C8 S2 C9 C10 177.5(2) . . . . ?
C8 N1 N2 C9 0.0(4) . . . . ?
C9 S2 C8 S1 178.44(19) . . . . ?
C9 S2 C8 N1 -0.8(2) . . . . ?
C9 C10 C11 C12 -27.6(4) . . . . ?
C9 C10 C11 C16 155.2(3) . . . . ?
C10 C11 C12 C13 -177.3(3) . . . . ?
C10 C11 C16 C15 179.0(3) . . . . ?
C11 C12 C13 C14 -0.8(5) . . . . ?
C12 C11 C16 C15 1.6(5) . . . . ?
C12 C13 C14 C15 0.4(6) . . . . ?
C13 C14 C15 C16 1.1(6) . . . . ?
C14 C15 C16 C11 -2.1(6) . . . . ?
C16 C11 C12 C13 -0.2(5) . . . . ?
