#------------------------------------------------------------------------------
#$Date: 2022-07-26 03:29:33 +0300 (Tue, 26 Jul 2022) $
#$Revision: 276934 $
#$URL: file:///home/coder/svn-repositories/cod/cif/7/06/16/7061664.cif $
#------------------------------------------------------------------------------
#
# This file is available in the Crystallography Open Database (COD),
# http://www.crystallography.net/
#
# All data on this site have been placed in the public domain by the
# contributors.
#
data_7061664
loop_
_publ_author_name
'Zhang, Xiya'
'Lin, Xiangyang'
_publ_section_title
;
 Simple methods for the introduction of nitrate ester, amino and
 diazo-oxide substituents into dinitromethylpyrazole
;
_journal_issue                   29
_journal_name_full               'New Journal of Chemistry'
_journal_page_first              14186
_journal_page_last               14191
_journal_paper_doi               10.1039/D2NJ02078E
_journal_volume                  46
_journal_year                    2022
_chemical_formula_moiety         'C4 H N7 O7'
_chemical_formula_sum            'C4 H N7 O7'
_chemical_formula_weight         259.096
_space_group_crystal_system      monoclinic
_space_group_IT_number           14
_space_group_name_Hall           '-P 2ybc'
_space_group_name_H-M_alt        'P 1 21/c 1'
_symmetry_Int_Tables_number      14
_audit_creation_date             2022-05-22
_audit_creation_method
;
Olex2 1.5
(compiled 2021.08.20 svn.r13c46975 for OlexSys, GUI svn.r6394)
;
_audit_update_record
;
2022-05-22 deposited with the CCDC.	2022-06-24 downloaded from the CCDC.
;
_cell_angle_alpha                90
_cell_angle_beta                 93.876(2)
_cell_angle_gamma                90
_cell_formula_units_Z            4
_cell_length_a                   5.4325(3)
_cell_length_b                   13.6955(8)
_cell_length_c                   12.3557(7)
_cell_measurement_reflns_used    2309
_cell_measurement_temperature    150
_cell_measurement_theta_max      26.20
_cell_measurement_theta_min      2.97
_cell_volume                     917.17(9)
_computing_cell_refinement       'SAINT V8.40A (Bruker, 2019)'
_computing_data_reduction        'SAINT V8.40A (Bruker, 2019)'
_computing_molecular_graphics    'Olex2 1.5 (Dolomanov et al., 2009)'
_computing_publication_material  'Olex2 1.5 (Dolomanov et al., 2009)'
_computing_structure_refinement  'olex2.refine 1.5 (Bourhis et al., 2015)'
_computing_structure_solution    'ShelXT (Sheldrick, 2015)'
_diffrn_ambient_temperature      150.00
_diffrn_measured_fraction_theta_full 0.9874
_diffrn_measured_fraction_theta_max 0.9788
_diffrn_measurement_device_type  'Bruker APEX-II CCD'
_diffrn_measurement_method       '\f and \w scans'
_diffrn_radiation_type           'Mo K\a'
_diffrn_radiation_wavelength     0.71073
_diffrn_reflns_av_R_equivalents  0.0405
_diffrn_reflns_av_unetI/netI     0.0392
_diffrn_reflns_Laue_measured_fraction_full 0.9874
_diffrn_reflns_Laue_measured_fraction_max 0.9788
_diffrn_reflns_limit_h_max       6
_diffrn_reflns_limit_h_min       -6
_diffrn_reflns_limit_k_max       16
_diffrn_reflns_limit_k_min       -17
_diffrn_reflns_limit_l_max       14
_diffrn_reflns_limit_l_min       -15
_diffrn_reflns_number            6875
_diffrn_reflns_point_group_measured_fraction_full 0.9874
_diffrn_reflns_point_group_measured_fraction_max 0.9788
_diffrn_reflns_theta_full        25.2417
_diffrn_reflns_theta_max         26.43
_diffrn_reflns_theta_min         2.22
_diffrn_source_current           1.4
_diffrn_source_power             0.07
_diffrn_source_voltage           50.0
_diffrn_standards_number         0
_exptl_absorpt_coefficient_mu    0.179
_exptl_absorpt_correction_T_max  0.7454
_exptl_absorpt_correction_T_min  0.6566
_exptl_absorpt_correction_type   none
_exptl_absorpt_process_details
;
SADABS-2016/2 (Bruker,2016/2) was used for absorption correction.
wR2(int) was 0.0697 before and 0.0464 after correction.
The Ratio of minimum to maximum transmission is 0.8809.
The \l/2 correction factor is Not present.
;
_exptl_crystal_colour            colourless
_exptl_crystal_colour_primary    colourless
_exptl_crystal_density_diffrn    1.876
_exptl_crystal_description       block
_exptl_crystal_F_000             520.382
_exptl_crystal_size_max          0.15
_exptl_crystal_size_mid          0.08
_exptl_crystal_size_min          0.05
_refine_diff_density_max         0.3288
_refine_diff_density_min         -0.3071
_refine_diff_density_rms         0.0772
_refine_ls_d_res_high            0.7984
_refine_ls_d_res_low             9.1624
_refine_ls_goodness_of_fit_ref   1.0825
_refine_ls_hydrogen_treatment    constr
_refine_ls_matrix_type           full
_refine_ls_number_constraints    2
_refine_ls_number_parameters     163
_refine_ls_number_reflns         1848
_refine_ls_number_restraints     0
_refine_ls_restrained_S_all      1.0825
_refine_ls_R_factor_all          0.0576
_refine_ls_R_factor_gt           0.0387
_refine_ls_shift/su_max          -0.0005
_refine_ls_shift/su_mean         0.0001
_refine_ls_structure_factor_coef Fsqd
_refine_ls_weighting_details
'w=1/[\s^2^(Fo^2^)+(0.0340P)^2^+0.3513P] where P=(Fo^2^+2Fc^2^)/3'
_refine_ls_weighting_scheme      calc
_refine_ls_wR_factor_gt          0.0814
_refine_ls_wR_factor_ref         0.0938
_reflns_Friedel_coverage         0.0
_reflns_limit_h_max              6
_reflns_limit_h_min              -6
_reflns_limit_k_max              17
_reflns_limit_k_min              0
_reflns_limit_l_max              15
_reflns_limit_l_min              0
_reflns_number_gt                1456
_reflns_number_total             1848
_reflns_threshold_expression     I>=2u(I)
_iucr_refine_instructions_details
;
TITL mo_20211345_0m_a.res in P2(1)/c
REM Old TITL mo_20211345_0m in P2(1)/c
REM SHELXT solution in P2(1)/c
REM R1 0.139, Rweak 0.007, Alpha 0.023, Orientation as input
REM Formula found by SHELXT: C10 N4 O4
CELL 0.71073 5.4325 13.6955 12.3557 90 93.876 90
ZERR 4 0.0003 0.0008 0.0007 0 0.002 0
LATT 1
SYMM -X,0.5+Y,0.5-Z
SFAC C H N O
UNIT 16 4 28 28

L.S. 20 0 163
PLAN  20
SIZE 0.15 0.08 0.05
TEMP -123.15
BOND $H
list 4
fmap 2 53
ACTA 
MORE -1
CONF 
OMIT -3 0 14
WGHT 0.034016 0.351251
FVAR 1.165943
REM <olex2.extras>
REM <HklSrc "%.\\mo_20211345_0m.hkl">
REM </olex2.extras>

O7    4     1.02638  0.47916  0.38254  11.00000  0.02175  0.03183  0.02613 =
 -0.00235  0.00099 -0.00526 
O4    4     0.64147  0.17095  0.55748  11.00000  0.03708  0.03125  0.03189 =
 0.00462  0.00183 -0.00584 
O1    4     0.20258  0.43817  0.13693  11.00000  0.03319  0.04555  0.02907 =
 0.00721 -0.00611  0.00454 
O6    4     0.71422  0.34242  0.69136  11.00000  0.04802  0.04096  0.02089 =
 0.00039  0.00344  0.00481 
O5    4     0.42948  0.38867  0.57097  11.00000  0.03090  0.05289  0.04165 =
 -0.01288 -0.00019  0.01465 
N3    3     0.72022  0.36277  0.40823  11.00000  0.02056  0.02793  0.02077 =
 0.00324 -0.00445 -0.00401 
O2    4     0.13306  0.29497  0.20474  11.00000  0.03635  0.04848  0.04454 =
 0.00439 -0.00968 -0.01716 
N1    3     0.50242  0.32815  0.35721  11.00000  0.02033  0.02697  0.02530 =
 -0.00063 -0.00072 -0.00235 
N5    3     0.63110  0.35494  0.59895  11.00000  0.02946  0.02465  0.02602 =
 -0.00403  0.00344  0.00015 
N4    3     0.78541  0.21372  0.50357  11.00000  0.02966  0.02771  0.02118 =
 0.00122 -0.00107  0.00535 
N2    3     0.25134  0.37038  0.19937  11.00000  0.02353  0.03892  0.02244 =
 -0.00056 -0.00108 -0.00049 
O3    4     0.92110  0.17784  0.44120  11.00000  0.06156  0.04008  0.04402 =
 -0.00237  0.02184  0.01807 
N6    3     0.66471  0.52420  0.18921  11.00000  0.02568  0.03330  0.02575 =
 0.00236  0.00190 -0.00050 
C4    1     0.83181  0.44103  0.35432  11.00000  0.02206  0.02263  0.01992 =
 -0.00278  0.00392  0.00180 
C2    1     0.46771  0.38333  0.27305  11.00000  0.02097  0.02450  0.02046 =
 -0.00280  0.00079  0.00124 
C1    1     0.79757  0.32520  0.50981  11.00000  0.02205  0.02582  0.02056 =
 0.00079  0.00166  0.00215 
AFIX 13
H1    2     0.97089  0.34631  0.52988  11.00000 -1.20000 
AFIX 0
N7    3     0.67348  0.58325  0.12843  11.00000  0.03864  0.04871  0.04181 =
 0.01768  0.00035 -0.00529 
C3    1     0.65383  0.45431  0.26381  11.00000  0.02393  0.02429  0.01973 =
 0.00188  0.00246 -0.00053 
HKLF 4

END
Q1 1 0.555556 0.422222 0.25 11 0.05 0.33
Q2 1 1.222222 0.388889 0.525 11 0.05 0.3
Q3 1 1.111111 0.188889 0.5 11 0.05 0.26
Q4 1 0.611111 0.455556 0.4 11 0.05 0.25
Q5 1 0.444444 0.222222 0.575 11 0.05 0.24

  REM The information below was added by Olex2.
  REM
  REM R1 = 0.0387 for 1456 Fo > 4sig(Fo) and 0.0576 for all 1848 data
  REM 163 parameters refined using 0 restraints
  REM Highest difference peak 0.3288, deepest hole -0.3071
  REM Mean Shift 0.0001, Max Shift -0.0005.

  REM +++ Tabular Listing of Refinement Information +++
  REM R1_all = 0.0576
  REM R1_gt = 0.0387
  REM wR_ref = 0.0938
  REM GOOF = 1.0825
  REM Shift_max = -0.0005
  REM Shift_mean = 0.0001
  REM Reflections_all = 1848
  REM Reflections_gt = 1456
  REM Parameters = 163
  REM Hole = -0.3071
  REM Peak = 0.3288
  REM Flack = n/a
;
_cod_data_source_file            d2nj02078e2.cif
_cod_data_source_block           mo_20211345_0m
_cod_database_code               7061664
_olex2_refinement_description
;
1.a Ternary CH refined with riding coordinates:
 C1(H1)
;
_iucr_refine_fcf_details
;
data_mo_20211345_0m_CCDC1
_computing_structure_refinement   'olex2.refine 1.5 (Bourhis et al., 2015)'
_shelx_refln_list_code            4
loop_
  _space_group_symop_id
  _space_group_symop_operation_xyz
  1  x,y,z
  2  -x,y+1/2,-z+1/2
  3  -x,-y,-z
  4  x,-y-1/2,z-1/2

_space_group_crystal_system       monoclinic
_space_group_IT_number            14
_space_group_name_H-M_alt         'P 1 21/c 1'
_space_group_name_Hall            '-P 2ybc'
_symmetry_space_group_name_H-M    'P 1 21/c 1'
_symmetry_space_group_name_Hall   '-P 2ybc'
_symmetry_Int_Tables_number       14
_cell_length_a                    5.4325(3)
_cell_length_b                    13.6955(8)
_cell_length_c                    12.3557(7)
_cell_angle_alpha                 90
_cell_angle_beta                  93.876(2)
_cell_angle_gamma                 90
_cell_volume                      917.17(9)
loop_
  _refln_index_h
  _refln_index_k
  _refln_index_l
  _refln_F_squared_calc
  _refln_F_squared_meas
  _refln_F_squared_sigma
  _refln_F_squared_weight
  _refln_observed_status
-6 0 2 337.501 335.713 16.052 3.887 o
-6 0 4 461.374 511.176 38.837 1.016 o
-6 0 6 63.887 69.000 16.847 6.324 o
-6 0 8 260.657 269.011 30.163 1.822 o
-6 1 1 1.227 -3.555 3.068 203.322 o
-6 1 2 0.193 -0.018 4.407 101.325 o
-6 1 3 375.622 384.681 9.335 5.108 o
-6 1 4 388.175 403.335 24.261 2.178 o
-6 1 5 66.727 75.841 11.640 11.907 o
-6 1 6 10.501 5.786 5.427 60.355 o
-6 1 7 104.532 93.906 22.251 3.636 o
-6 1 8 6.885 7.869 6.060 50.158 o
-6 2 1 16.780 12.966 3.589 105.986 o
-6 2 2 6.666 6.258 2.404 242.878 o
-6 2 3 12.437 15.899 3.650 107.696 o
-6 2 4 6.802 2.548 3.671 128.044 o
-6 2 5 5.670 8.843 6.427 45.104 o
-6 2 6 13.093 7.719 9.674 20.185 o
-6 2 7 6.478 20.320 6.260 45.623 o
-6 3 1 40.950 45.856 4.602 51.575 o
-6 3 2 238.504 247.591 8.901 8.516 o
-6 3 3 72.657 81.891 7.671 21.415 o
-6 3 4 67.316 61.876 4.757 38.971 o
-6 3 5 38.771 45.192 9.616 18.133 o
-6 3 6 86.779 90.383 14.265 8.104 o
-6 3 7 23.125 32.372 13.349 10.480 o
-6 4 1 19.219 18.135 3.682 95.769 o
-6 4 2 5.334 7.599 2.628 217.059 o
-6 4 3 1.048 2.581 3.635 143.306 o
-6 4 4 99.870 106.497 7.388 19.240 o
-6 4 5 10.096 17.690 6.593 41.014 o
-6 4 6 13.511 26.808 8.008 27.852 o
-6 4 7 0.041 9.417 8.240 28.577 o
-6 5 1 67.991 71.598 5.866 30.692 o
-6 5 2 62.949 54.627 4.952 39.563 o
-6 5 3 28.215 26.497 3.519 85.821 o
-6 5 4 0.589 -1.408 3.125 199.170 o
-6 5 5 60.800 55.298 4.394 44.780 o
-6 5 6 2.179 2.778 5.264 69.083 o
-6 6 1 132.962 145.482 13.048 8.211 o
-6 6 2 43.385 45.553 5.020 45.918 o
-6 6 3 0.006 2.076 2.816 241.244 o
-6 6 4 25.430 25.675 4.161 72.968 o
-6 6 5 0.486 8.206 4.412 95.956 o
-6 7 1 4.286 7.745 3.780 121.480 o
-6 7 2 10.956 13.830 4.856 70.620 o
-6 7 3 46.212 44.035 5.725 38.554 o
-6 7 4 216.273 209.314 10.934 7.963 o
-6 8 1 0.398 -3.637 6.198 51.217 o
-5 0 2 996.832 1032.790 68.301 0.318 o
-5 0 4 279.734 261.654 25.528 2.363 o
-5 0 6 118.881 134.321 22.659 3.431 o
-5 0 8 162.446 182.950 23.910 2.969 o
-5 0 10 148.376 138.000 25.675 2.685 o
-5 1 1 262.888 269.523 8.813 7.822 o
-5 1 2 247.444 259.052 9.677 7.734 o
-5 1 3 107.456 106.348 4.480 27.792 o
-5 1 4 195.461 201.776 6.397 12.684 o
-5 1 5 0.471 4.742 3.854 127.030 o
-5 1 6 20.645 8.969 5.562 53.100 o
-5 1 7 1.921 -1.551 6.658 44.043 o
-5 1 8 6.983 6.750 4.631 82.442 o
-5 1 9 32.943 8.865 6.010 43.256 o
-5 1 10 40.719 42.753 9.192 19.522 o
-5 1 11 0.358 3.237 8.755 25.578 o
-5 2 1 19.584 23.076 2.937 120.178 o
-5 2 2 168.210 182.372 7.129 13.491 o
-5 2 3 47.984 47.930 3.410 63.336 o
-5 2 4 662.537 663.263 9.977 2.346 o
-5 2 5 140.758 144.738 13.420 7.784 o
-5 2 6 12.687 14.963 9.969 18.909 o
-5 2 7 67.157 66.085 11.100 12.989 o
-5 2 8 0.029 -3.438 6.695 43.998 o
-5 2 9 67.924 50.066 10.040 15.528 o
-5 2 10 145.961 124.589 17.048 5.453 o
-5 2 11 39.717 41.780 19.271 5.090 o
-5 3 1 30.358 36.021 3.892 71.251 o
-5 3 2 230.491 235.914 8.200 9.334 o
-5 3 3 351.149 342.836 10.450 5.301 o
-5 3 4 22.947 24.835 2.933 112.511 o
-5 3 5 56.466 50.213 10.594 14.636 o
-5 3 6 14.972 14.273 6.400 42.510 o
-5 3 7 234.158 247.317 19.090 3.837 o
-5 3 8 57.262 55.369 17.436 6.020 o
-5 3 9 1.628 -4.651 3.207 184.887 o
-5 4 1 465.355 474.148 13.464 3.289 o
-5 4 2 317.589 322.550 9.816 6.041 o
-5 4 3 1.437 0.994 1.666 610.376 o
-5 4 4 169.822 165.075 8.511 12.004 o
-5 4 5 318.162 305.759 8.576 6.618 o
-5 4 6 22.734 16.241 5.970 45.483 o
-5 4 7 30.076 27.242 6.891 33.599 o
-5 4 8 129.543 155.118 18.024 4.988 o
-5 4 9 81.758 68.839 13.302 9.343 o
-5 4 10 0.636 -1.030 6.768 42.913 o
-5 5 1 4.991 5.725 2.255 283.528 o
-5 5 2 57.952 52.689 5.404 37.494 o
-5 5 3 281.683 284.186 11.415 6.126 o
-5 5 4 79.582 91.305 5.784 27.837 o
-5 5 5 15.150 10.267 2.828 152.179 o
-5 5 6 14.511 11.463 2.712 160.265 o
-5 5 7 35.878 26.905 11.326 13.980 o
-5 5 8 67.205 68.334 11.493 12.241 o
-5 5 9 69.481 63.668 12.199 11.091 o
-5 5 10 47.976 21.669 8.924 20.720 o
-5 6 1 287.080 288.987 13.296 5.278 o
-5 6 2 127.951 137.083 6.753 17.692 o
-5 6 3 1.814 5.378 3.846 124.380 o
-5 6 4 51.856 44.165 4.755 46.148 o
-5 6 5 99.266 93.995 8.205 17.518 o
-5 6 6 4.844 4.992 2.759 210.748 o
-5 6 7 39.701 37.240 4.527 54.937 o
-5 6 8 48.941 50.497 10.022 16.348 o
-5 6 9 1.596 6.853 11.035 16.039 o
-5 7 1 1.813 -0.149 2.700 255.562 o
-5 7 2 8.274 4.853 2.415 234.850 o
-5 7 3 299.500 309.182 10.242 6.216 o
-5 7 4 75.063 67.678 5.381 32.569 o
-5 7 5 6.794 13.476 3.812 110.826 o
-5 7 6 5.563 2.418 2.928 193.679 o
-5 7 7 34.425 32.599 4.954 52.254 o
-5 7 8 4.753 6.541 3.273 156.221 o
-5 7 9 69.735 45.797 10.724 13.976 o
-5 8 1 4.844 4.472 2.236 295.128 o
-5 8 2 11.968 12.870 3.488 118.472 o
-5 8 3 71.576 65.645 5.597 32.128 o
-5 8 4 104.567 101.709 7.280 19.370 o
-5 8 5 0.224 0.033 4.248 108.945 o
-5 8 6 22.292 17.621 3.514 97.963 o
-5 8 7 58.322 35.536 16.192 6.970 o
-5 8 8 41.933 24.146 8.576 22.490 o
-5 9 1 7.510 6.622 3.310 145.563 o
-5 9 2 3.634 7.467 3.925 114.947 o
-5 9 3 46.566 36.115 7.229 28.360 o
-5 9 4 0.215 -1.869 2.268 379.617 o
-5 9 5 2.156 -0.361 2.625 266.620 o
-5 9 6 43.911 53.578 6.072 35.223 o
-5 9 7 5.439 7.205 3.957 110.677 o
-5 10 1 4.107 -1.466 3.312 165.219 o
-5 10 2 15.488 12.686 4.342 81.466 o
-5 10 3 21.381 12.255 4.274 78.567 o
-5 10 4 2.821 7.998 5.547 60.882 o
-5 10 5 11.455 12.514 3.221 134.286 o
-5 10 6 0.109 2.739 3.419 163.844 o
-5 11 1 81.873 94.686 8.269 18.393 o
-5 11 2 7.568 -0.538 3.412 146.697 o
-5 11 3 34.247 24.248 7.899 26.521 o
-5 11 4 6.102 4.802 4.481 89.207 o
-4 0 2 1315.920 1359.880 26.708 0.611 o
-4 0 4 66.177 83.121 12.985 9.871 o
-4 0 6 995.281 986.826 35.236 0.722 o
-4 0 8 48.784 35.681 10.962 14.287 o
-4 0 10 188.495 176.991 23.616 2.979 o
-4 0 12 10.186 25.234 9.122 22.203 o
-4 1 1 448.001 457.320 10.348 3.936 o
-4 1 2 504.147 514.664 10.538 3.356 o
-4 1 3 290.247 294.479 6.251 8.219 o
-4 1 4 266.181 258.627 4.954 9.980 o
-4 1 5 12.227 11.749 2.871 155.935 o
-4 1 6 247.353 248.051 11.624 6.731 o
-4 1 7 23.996 26.607 12.613 11.701 o
-4 1 8 155.032 159.779 15.764 5.942 o
-4 1 9 11.498 2.264 4.316 91.038 o
-4 1 10 36.221 29.786 7.568 27.941 o
-4 1 11 8.089 2.921 4.435 89.839 o
-4 1 12 2.734 6.141 4.691 84.353 o
-4 1 13 2.220 -11.339 4.960 78.514 o
-4 2 1 172.641 171.674 6.609 14.231 o
-4 2 2 383.883 386.436 9.139 5.057 o
-4 2 3 492.320 496.277 8.828 3.698 o
-4 2 4 123.570 121.212 3.177 27.906 o
-4 2 5 72.513 87.292 9.161 16.705 o
-4 2 6 6.182 -1.060 3.129 175.231 o
-4 2 7 13.614 22.689 8.718 24.003 o
-4 2 8 141.202 117.525 14.549 7.067 o
-4 2 9 117.855 84.224 16.148 6.334 o
-4 2 10 4.722 1.225 4.161 106.176 o
-4 2 11 4.269 -3.438 4.120 109.679 o
-4 2 12 64.644 67.727 13.131 9.837 o
-4 3 1 1.219 -0.451 1.369 912.460 o
-4 3 2 169.197 179.695 6.213 14.743 o
-4 3 3 9.044 7.942 1.748 318.629 o
-4 3 4 20.416 16.543 2.042 174.381 o
-4 3 5 10.026 10.792 1.994 255.767 o
-4 3 6 6.542 9.221 4.490 86.370 o
-4 3 7 207.018 213.563 17.833 4.461 o
-4 3 8 37.597 42.883 13.496 9.973 o
-4 3 9 0.134 -4.304 3.537 157.218 o
-4 3 10 9.267 7.738 5.147 66.505 o
-4 3 11 61.496 36.592 9.068 18.931 o
-4 3 12 18.076 -4.193 8.166 27.744 o
-4 4 1 0.065 2.469 1.631 664.754 o
-4 4 2 481.652 492.362 12.131 3.342 o
-4 4 3 253.776 258.739 7.147 9.117 o
-4 4 4 20.971 17.425 3.032 118.806 o
-4 4 5 0.011 -0.238 2.033 476.903 o
-4 4 6 27.574 27.110 3.770 79.807 o
-4 4 7 546.684 491.136 22.809 1.917 o
-4 4 8 174.073 197.418 16.203 5.408 o
-4 4 9 16.498 32.001 8.898 22.584 o
-4 4 10 66.918 65.244 11.938 11.539 o
-4 4 11 73.852 64.345 12.043 11.229 o
-4 4 12 4.694 5.998 4.802 79.247 o
-4 5 1 63.056 61.906 4.472 42.359 o
-4 5 2 184.775 168.265 6.314 14.084 o
-4 5 3 336.001 339.894 10.269 5.546 o
-4 5 4 386.548 379.929 9.386 5.005 o
-4 5 5 29.507 26.459 4.279 67.401 o
-4 5 6 30.053 20.664 2.599 115.642 o
-4 5 7 18.453 18.073 3.439 105.721 o
-4 5 8 63.345 69.567 5.080 36.698 o
-4 5 9 98.229 117.029 15.113 7.101 o
-4 5 10 2.679 5.911 4.789 81.260 o
-4 5 11 11.464 -4.650 7.283 35.346 o
-4 5 12 37.512 34.980 9.810 17.820 o
-4 6 1 3.125 -0.664 1.491 666.556 o
-4 6 2 2.189 -0.632 1.363 831.504 o
-4 6 3 23.162 25.543 4.301 71.523 o
-4 6 4 1.347 -0.217 1.769 572.595 o
-4 6 5 691.726 662.223 14.215 2.013 o
-4 6 6 15.473 11.769 2.326 185.233 o
-4 6 7 2.018 5.163 1.744 477.429 o
-4 6 8 287.253 271.791 11.086 6.279 o
-4 6 9 23.791 13.473 3.882 86.891 o
-4 6 10 24.377 21.441 3.523 92.756 o
-4 6 11 21.349 24.746 7.739 28.842 o
-4 7 1 11.840 8.907 2.379 205.207 o
-4 7 2 92.557 98.717 5.985 24.834 o
-4 7 3 3.742 0.256 1.649 543.037 o
-4 7 4 6.765 -0.855 2.668 226.043 o
-4 7 5 19.790 20.225 3.876 87.696 o
-4 7 6 24.565 21.895 3.744 85.802 o
-4 7 7 160.851 151.216 10.830 9.791 o
-4 7 8 52.093 61.917 6.065 32.992 o
-4 7 9 4.500 9.039 7.945 30.211 o
-4 7 10 81.034 85.219 8.575 17.871 o
-4 7 11 50.353 49.835 10.075 16.159 o
-4 8 1 428.086 429.460 12.256 3.842 o
-4 8 2 14.269 5.543 3.065 145.704 o
-4 8 3 473.761 479.250 13.542 3.221 o
-4 8 4 8.666 10.176 2.404 216.769 o
-4 8 5 209.804 211.620 8.192 10.258 o
-4 8 6 347.573 338.297 12.065 4.883 o
-4 8 7 17.614 29.131 9.431 20.330 o
-4 8 8 15.147 13.823 3.717 102.566 o
-4 8 9 10.945 7.800 3.482 125.481 o
-4 8 10 29.705 41.808 5.958 40.522 o
-4 9 1 20.125 32.730 4.294 71.275 o
-4 9 2 14.158 14.379 3.418 116.603 o
-4 9 3 249.296 247.015 9.426 7.964 o
-4 9 4 180.017 177.889 8.017 11.991 o
-4 9 5 64.827 67.964 5.829 31.741 o
-4 9 6 207.627 219.107 11.054 7.946 o
-4 9 7 10.181 12.406 5.426 59.017 o
-4 9 8 116.038 113.057 10.521 11.851 o
-4 9 9 20.000 13.436 6.265 42.992 o
-4 9 10 0.055 -3.997 3.750 140.105 o
-4 10 1 29.598 34.238 4.238 65.683 o
-4 10 2 60.175 59.105 5.493 35.646 o
-4 10 3 4.833 6.572 3.544 136.090 o
-4 10 4 6.372 19.735 5.081 66.282 o
-4 10 5 0.326 3.293 2.404 315.930 o
-4 10 6 34.842 27.135 4.606 58.417 o
-4 10 7 9.109 1.761 5.056 70.555 o
-4 10 8 140.180 136.830 10.841 10.449 o
-4 10 9 52.684 51.811 6.568 30.471 o
-4 11 1 57.537 58.627 7.061 26.622 o
-4 11 2 3.514 2.495 3.972 116.649 o
-4 11 3 11.486 9.644 2.837 164.284 o
-4 11 4 21.514 21.088 4.623 67.071 o
-4 11 5 35.958 51.602 6.080 36.936 o
-4 11 6 39.290 47.672 11.711 12.808 o
-4 11 7 12.168 14.947 4.006 94.606 o
-4 11 8 23.464 12.323 4.107 81.315 o
-4 12 1 31.069 26.427 5.228 50.941 o
-4 12 2 88.505 110.342 7.489 19.652 o
-4 12 3 8.958 14.244 4.009 98.753 o
-4 12 4 0.163 5.845 3.312 168.584 o
-4 12 5 49.755 50.191 7.426 26.105 o
-4 12 6 5.574 -7.085 3.832 123.252 o
-4 13 1 2.908 2.845 2.633 247.870 o
-4 13 2 0.398 4.992 2.977 206.638 o
-4 13 3 102.220 89.350 10.740 12.261 o
-4 13 4 29.269 28.086 5.839 43.629 o
-3 0 2 120.116 142.406 6.315 19.054 o
-3 0 4 70.484 74.141 15.633 7.158 o
-3 0 6 45.918 44.369 7.621 25.810 o
-3 0 8 49.291 30.531 10.226 16.188 o
-3 0 10 5.064 -0.147 4.046 112.243 o
-3 0 12 60.669 68.725 5.172 36.761 o
-3 1 1 22.590 14.411 1.872 180.261 o
-3 1 2 68.614 70.965 3.368 47.761 o
-3 1 3 54.524 49.424 2.044 75.954 o
-3 1 4 111.112 114.395 6.709 19.921 o
-3 1 5 286.250 294.647 11.313 6.046 o
-3 1 6 102.916 99.763 10.660 12.218 o
-3 1 7 129.264 129.946 17.001 5.572 o
-3 1 8 20.456 21.692 4.707 65.763 o
-3 1 9 149.999 160.428 13.576 7.429 o
-3 1 10 352.058 370.547 32.113 1.511 o
-3 1 11 4.584 4.237 6.232 48.778 o
-3 1 12 255.943 258.272 7.724 8.722 o
-3 1 13 61.069 68.159 3.775 47.883 o
-3 1 14 23.813 10.565 16.444 7.104 o
-3 2 1 14.810 15.235 1.961 210.765 o
-3 2 2 914.342 923.305 12.880 1.349 o
-3 2 3 31.783 27.974 2.104 121.563 o
-3 2 4 265.268 287.151 8.686 7.669 o
-3 2 5 1142.790 1172.290 18.449 0.864 o
-3 2 6 33.613 37.438 5.498 44.933 o
-3 2 7 445.447 454.275 18.112 2.746 o
-3 2 8 93.515 97.235 9.632 14.454 o
-3 2 9 182.056 202.463 8.189 11.291 o
-3 2 10 86.296 87.834 5.861 26.808 o
-3 2 11 37.027 40.284 3.263 76.683 o
-3 2 12 4.310 0.888 2.177 336.273 o
-3 2 13 41.183 54.095 7.153 28.361 o
-3 2 14 0.095 3.476 4.391 100.070 o
-3 3 1 110.665 113.405 4.866 25.520 o
-3 3 2 630.187 593.176 10.471 2.566 o
-3 3 3 379.162 381.419 7.509 5.526 o
-3 3 4 0.196 0.082 0.645 4177.620 o
-3 3 5 36.345 27.910 2.210 109.783 o
-3 3 6 1107.840 1103.530 20.052 0.893 o
-3 3 7 0.579 2.976 1.288 918.964 o
-3 3 8 104.633 105.247 8.992 15.124 o
-3 3 9 19.088 19.616 1.772 190.767 o
-3 3 10 12.994 15.427 1.642 253.969 o
-3 3 11 751.316 717.392 12.257 1.889 o
-3 3 12 9.485 8.942 1.863 288.284 o
-3 3 13 107.111 99.640 19.474 4.601 o
-3 3 14 32.422 40.537 11.133 14.322 o
-3 4 1 8.710 8.308 1.799 311.428 o
-3 4 2 168.408 177.643 6.938 13.849 o
-3 4 3 830.478 838.259 12.893 1.563 o
-3 4 4 29.197 28.154 2.673 108.101 o
-3 4 5 13.205 14.916 1.950 222.599 o
-3 4 6 15.758 18.741 2.192 179.047 o
-3 4 7 45.094 45.017 2.642 78.375 o
-3 4 8 22.249 23.435 2.002 157.080 o
-3 4 9 21.157 24.885 2.188 149.004 o
-3 4 10 0.587 0.240 1.353 988.465 o
-3 4 11 1.937 -0.924 2.255 355.880 o
-3 4 12 0.041 1.374 2.040 455.140 o
-3 4 13 35.795 32.674 5.162 48.994 o
-3 5 1 113.551 103.675 4.949 25.516 o
-3 5 2 2074.790 2103.570 24.905 0.309 o
-3 5 3 347.227 348.654 11.054 5.133 o
-3 5 4 35.114 37.464 3.141 82.290 o
-3 5 5 5.927 1.968 2.267 290.750 o
-3 5 6 4.904 11.828 4.287 94.042 o
-3 5 7 23.973 25.821 2.640 120.950 o
-3 5 8 170.548 156.684 5.759 15.993 o
-3 5 9 389.686 360.964 25.158 2.112 o
-3 5 10 26.317 28.331 2.796 108.714 o
-3 5 11 28.212 32.101 3.496 83.576 o
-3 5 12 34.290 26.723 4.842 55.135 o
-3 5 13 41.908 33.669 5.712 40.955 o
-3 6 1 234.295 236.053 7.232 9.928 o
-3 6 2 5.502 2.488 1.771 416.060 o
-3 6 3 3.798 2.333 1.656 503.414 o
-3 6 4 311.034 324.576 12.173 5.270 o
-3 6 5 22.837 20.465 2.940 116.351 o
-3 6 6 0.048 1.732 2.262 370.025 o
-3 6 7 0.026 -0.380 1.257 1243.090 o
-3 6 8 49.875 52.397 4.674 46.255 o
-3 6 9 2.152 10.048 2.103 321.868 o
-3 6 10 23.305 24.993 3.009 108.984 o
-3 6 11 33.295 31.986 3.912 70.189 o
-3 6 12 18.453 9.555 6.849 37.476 o
-3 6 13 0.781 6.441 3.226 173.770 o
-3 7 1 76.698 79.307 5.476 30.723 o
-3 7 2 381.399 388.898 9.852 4.900 o
-3 7 3 557.342 556.719 11.856 2.836 o
-3 7 4 61.673 57.910 4.405 43.974 o
-3 7 5 530.006 539.425 13.392 2.835 o
-3 7 6 711.717 698.577 14.112 1.921 o
-3 7 7 325.899 333.212 10.075 5.773 o
-3 7 8 13.327 17.688 3.321 119.738 o
-3 7 9 29.770 35.474 4.718 57.091 o
-3 7 10 565.853 572.926 14.076 2.557 o
-3 7 11 33.318 31.910 4.510 59.530 o
-3 7 12 17.648 18.649 3.541 102.546 o
-3 8 1 312.163 314.197 9.126 6.436 o
-3 8 2 38.647 41.371 3.827 64.971 o
-3 8 3 6.282 8.986 2.080 285.431 o
-3 8 4 234.074 219.675 7.674 9.848 o
-3 8 5 499.795 510.496 12.291 3.175 o
-3 8 6 27.592 21.113 3.218 98.407 o
-3 8 7 54.906 61.583 5.254 38.328 o
-3 8 8 318.914 335.690 10.642 5.649 o
-3 8 9 145.262 132.580 12.636 8.493 o
-3 8 10 0.258 6.596 2.938 208.252 o
-3 8 11 46.632 50.519 5.085 43.489 o
-3 8 12 13.602 12.923 3.807 101.669 o
-3 9 1 80.689 79.741 5.368 30.565 o
-3 9 2 30.576 30.339 3.519 81.590 o
-3 9 3 229.231 245.808 9.154 8.574 o
-3 9 4 206.588 184.817 7.886 11.068 o
-3 9 5 14.956 12.005 2.751 155.242 o
-3 9 6 100.791 104.713 7.822 18.074 o
-3 9 7 197.749 182.520 8.095 11.195 o
-3 9 8 3.615 7.736 2.414 259.220 o
-3 9 9 88.690 89.607 7.700 19.777 o
-3 9 10 46.918 59.775 9.538 17.609 o
-3 9 11 13.716 7.061 6.382 43.910 o
-3 10 1 0.219 -0.377 1.789 606.715 o
-3 10 2 231.700 238.495 10.360 7.800 o
-3 10 3 0.083 -0.644 2.118 437.584 o
-3 10 4 43.936 37.053 4.749 50.328 o
-3 10 5 539.327 522.670 15.651 2.588 o
-3 10 6 97.794 101.329 6.566 22.107 o
-3 10 7 379.828 380.485 21.787 2.544 o
-3 10 8 0.386 4.967 2.382 310.472 o
-3 10 9 221.514 220.237 9.783 8.577 o
-3 10 10 128.896 157.931 10.491 10.898 o
-3 11 1 440.909 440.289 14.732 3.306 o
-3 11 2 588.077 610.776 15.590 2.286 o
-3 11 3 47.941 40.201 5.270 42.796 o
-3 11 4 27.967 23.913 4.232 70.241 o
-3 11 5 11.706 10.154 3.356 128.612 o
-3 11 6 19.329 18.180 4.979 61.906 o
-3 11 7 24.416 21.944 11.014 15.143 o
-3 11 8 35.328 39.678 7.314 29.011 o
-3 11 9 22.842 14.039 5.033 60.155 o
-3 11 10 42.529 47.487 6.052 36.251 o
-3 12 1 96.756 108.975 8.030 17.662 o
-3 12 2 19.150 22.253 6.526 39.322 o
-3 12 3 475.706 446.432 17.735 2.704 o
-3 12 4 6.988 8.308 3.834 113.549 o
-3 12 5 107.771 112.916 12.725 9.205 o
-3 12 6 25.812 32.425 5.623 46.552 o
-3 12 7 39.119 28.976 18.204 5.709 o
-3 12 8 39.021 35.227 5.339 45.427 o
-3 12 9 15.422 15.334 5.099 62.244 o
-3 13 1 23.981 16.837 4.046 80.512 o
-3 13 2 24.800 21.287 4.577 65.977 o
-3 13 3 52.006 55.754 8.147 22.320 o
-3 13 4 18.343 32.282 9.532 19.813 o
-3 13 5 3.254 12.668 4.035 106.199 o
-3 13 6 1.224 10.851 3.990 112.724 o
-3 13 7 0.271 -3.913 4.991 78.984 o
-3 14 1 0.012 7.045 2.549 268.917 o
-3 14 2 14.007 8.498 4.847 70.590 o
-3 14 3 50.542 59.031 11.470 12.839 o
-3 14 4 117.900 144.681 18.325 4.943 o
-3 14 5 11.864 10.134 9.273 21.891 o
-3 14 6 6.290 1.736 3.790 122.741 o
-3 15 1 34.468 43.247 8.159 24.250 o
-3 15 2 62.811 56.600 10.065 15.540 o
-3 15 3 4.415 18.427 7.651 31.900 o
-2 0 2 7601.380 7234.170 83.202 0.027 o
-2 0 4 1600.680 1541.980 35.283 0.420 o
-2 0 6 583.036 620.326 14.305 2.393 o
-2 0 8 44.681 42.147 5.053 45.702 o
-2 0 10 905.624 903.022 30.343 0.902 o
-2 0 12 88.012 91.156 18.094 5.361 o
-2 0 14 279.008 279.765 17.093 4.104 o
-2 1 1 105.000 110.893 3.441 31.477 o
-2 1 2 0.662 1.115 0.647 2797.610 o
-2 1 3 3136.180 3118.530 33.494 0.145 o
-2 1 4 1639.160 1667.240 31.670 0.417 o
-2 1 5 586.019 585.402 14.271 2.445 o
-2 1 6 82.206 68.446 3.378 43.203 o
-2 1 7 44.085 39.363 2.611 82.713 o
-2 1 8 5.818 8.498 4.049 104.894 o
-2 1 9 97.423 94.813 5.969 24.549 o
-2 1 10 270.900 274.945 9.459 7.280 o
-2 1 11 97.378 87.856 6.258 23.897 o
-2 1 12 24.456 24.000 3.905 80.585 o
-2 1 13 0.151 1.721 2.494 305.458 o
-2 1 14 164.775 164.898 9.665 10.792 o
-2 1 15 163.777 125.975 25.414 2.719 o
-2 2 1 0.717 0.889 0.768 2287.700 o
-2 2 2 415.563 374.457 6.027 5.413 o
-2 2 3 1986.230 2000.670 24.608 0.335 o
-2 2 4 0.137 1.238 0.589 3763.770 o
-2 2 5 1171.250 1184.700 13.839 0.895 o
-2 2 6 571.639 560.665 7.929 3.102 o
-2 2 7 0.581 0.095 0.653 3436.540 o
-2 2 8 528.196 538.440 11.450 3.058 o
-2 2 9 494.371 491.794 12.444 3.233 o
-2 2 10 516.703 551.712 14.704 2.721 o
-2 2 11 320.866 325.110 11.242 5.482 o
-2 2 12 74.134 76.953 6.506 26.216 o
-2 2 13 36.136 45.470 5.715 40.888 o
-2 2 14 1.337 1.969 4.760 85.007 o
-2 3 1 122.895 135.336 4.297 24.118 o
-2 3 2 54.247 45.024 2.443 73.115 o
-2 3 3 622.634 650.982 9.659 2.536 o
-2 3 4 259.015 244.959 5.512 10.136 o
-2 3 5 231.698 230.763 5.491 11.374 o
-2 3 6 27.927 30.779 2.487 114.019 o
-2 3 7 190.662 191.421 5.588 14.040 o
-2 3 8 88.958 97.281 5.982 25.365 o
-2 3 9 23.548 24.027 2.446 131.804 o
-2 3 10 126.191 127.086 11.478 10.130 o
-2 3 11 1.901 0.649 2.056 415.136 o
-2 3 12 54.336 48.049 5.200 40.623 o
-2 3 13 560.054 620.239 17.863 2.162 o
-2 3 14 85.974 93.103 8.155 18.505 o
-2 4 1 410.509 385.291 7.714 5.085 o
-2 4 2 168.391 134.115 4.600 18.817 o
-2 4 3 42.357 49.254 2.614 79.439 o
-2 4 4 1167.900 1188.770 15.560 0.876 o
-2 4 5 1768.990 1829.380 21.228 0.412 o
-2 4 6 70.385 65.088 3.531 46.929 o
-2 4 7 347.588 357.387 8.337 5.884 o
-2 4 8 1.525 -0.660 1.667 628.572 o
-2 4 9 10.217 5.972 1.736 318.277 o
-2 4 10 23.590 21.944 3.049 109.544 o
-2 4 11 9.405 5.578 3.022 163.446 o
-2 4 12 17.728 22.256 4.454 72.969 o
-2 4 13 2.317 4.499 2.792 222.185 o
-2 4 14 60.764 75.826 6.607 27.480 o
-2 5 1 460.799 481.786 11.839 3.536 o
-2 5 2 214.910 208.395 6.431 11.707 o
-2 5 3 87.523 99.188 5.044 29.337 o
-2 5 4 2602.540 2697.670 28.108 0.202 o
-2 5 5 490.446 497.875 10.636 3.475 o
-2 5 6 1104.140 1135.110 18.466 0.909 o
-2 5 7 78.686 73.064 4.258 37.971 o
-2 5 8 23.978 25.052 3.255 99.451 o
-2 5 9 118.012 123.159 6.707 19.032 o
-2 5 10 81.286 83.751 5.158 31.179 o
-2 5 11 10.728 10.697 2.287 216.016 o
-2 5 12 9.922 7.615 2.636 192.218 o
-2 5 13 0.499 -0.402 2.920 228.157 o
-2 5 14 51.208 40.034 9.134 19.201 o
-2 6 1 4.355 4.303 1.640 465.527 o
-2 6 2 172.130 151.007 5.302 16.763 o
-2 6 3 1166.690 1173.110 18.443 0.846 o
-2 6 4 189.509 170.128 6.291 13.824 o
-2 6 5 24.032 34.322 3.266 93.096 o
-2 6 6 1150.530 1154.060 24.404 0.778 o
-2 6 7 107.538 118.758 5.724 22.885 o
-2 6 8 192.656 196.423 7.467 11.782 o
-2 6 9 243.429 279.879 9.306 7.827 o
-2 6 10 1035.150 1041.700 20.096 0.980 o
-2 6 11 43.507 47.346 4.877 47.142 o
-2 6 12 58.660 55.204 5.366 37.339 o
-2 6 13 35.866 31.072 5.293 47.628 o
-2 6 14 0.800 1.984 3.906 125.776 o
-2 7 1 15.048 9.401 2.694 163.208 o
-2 7 2 529.491 504.056 10.782 3.215 o
-2 7 3 250.446 258.317 7.615 8.924 o
-2 7 4 368.959 382.429 9.208 5.226 o
-2 7 5 5.577 5.202 1.575 445.300 o
-2 7 6 891.083 922.011 17.305 1.267 o
-2 7 7 294.562 301.932 10.329 6.299 o
-2 7 8 154.782 142.445 6.624 16.025 o
-2 7 9 50.389 38.116 4.076 55.783 o
-2 7 10 40.050 36.900 4.219 59.290 o
-2 7 11 10.483 8.151 2.812 172.615 o
-2 7 12 10.490 11.841 3.138 142.587 o
-2 7 13 2.921 1.075 3.342 164.559 o
-2 8 1 374.843 380.153 10.640 4.814 o
-2 8 2 540.412 558.118 12.022 2.892 o
-2 8 3 292.721 314.688 8.706 6.911 o
-2 8 4 105.409 112.315 5.274 24.941 o
-2 8 5 68.492 68.692 5.070 35.712 o
-2 8 6 10.346 11.043 2.434 201.816 o
-2 8 7 161.444 164.176 7.155 14.215 o
-2 8 8 191.075 173.309 9.371 10.243 o
-2 8 9 4.367 2.197 2.209 319.498 o
-2 8 10 0.274 3.169 2.163 385.504 o
-2 8 11 139.630 148.766 8.297 13.838 o
-2 8 12 83.809 81.391 7.852 19.964 o
-2 8 13 24.071 30.006 5.198 53.374 o
-2 9 1 190.225 199.089 6.971 12.354 o
-2 9 2 271.811 288.440 8.786 7.481 o
-2 9 3 46.000 45.631 4.037 56.597 o
-2 9 4 469.930 507.207 12.875 3.263 o
-2 9 5 1460.760 1440.490 24.290 0.556 o
-2 9 6 115.943 115.327 6.481 20.092 o
-2 9 7 120.890 108.204 6.705 19.395 o
-2 9 8 95.016 88.276 6.220 24.278 o
-2 9 9 330.831 304.091 13.732 4.678 o
-2 9 10 33.391 30.989 4.582 58.569 o
-2 9 11 12.796 10.115 5.592 55.368 o
-2 9 12 20.633 21.910 5.268 55.298 o
-2 10 1 63.925 65.494 5.018 37.472 o
-2 10 2 315.804 303.551 8.784 6.593 o
-2 10 3 1.322 1.987 2.546 280.758 o
-2 10 4 272.528 263.444 8.839 7.678 o
-2 10 5 32.268 35.514 4.231 63.819 o
-2 10 6 0.479 6.382 4.003 116.754 o
-2 10 7 1.667 1.237 2.140 385.527 o
-2 10 8 117.589 130.305 8.749 14.447 o
-2 10 9 52.657 53.450 10.604 14.688 o
-2 10 10 14.443 24.394 5.091 60.649 o
-2 10 11 1.491 14.689 5.513 60.670 o
-2 11 1 19.175 17.015 3.210 114.780 o
-2 11 2 30.736 28.057 3.152 91.934 o
-2 11 3 722.809 689.089 14.182 1.902 o
-2 11 4 0.001 1.324 1.757 608.060 o
-2 11 5 310.440 311.654 12.243 5.317 o
-2 11 6 0.281 -2.973 5.187 73.137 o
-2 11 7 12.827 16.728 7.220 34.405 o
-2 11 8 0.210 6.356 3.794 129.823 o
-2 11 9 8.499 8.566 4.026 102.248 o
-2 11 10 42.113 45.143 6.390 33.923 o
-2 11 11 13.631 16.000 6.268 44.224 o
-2 12 1 123.236 110.076 8.800 14.552 o
-2 12 2 83.395 89.521 8.457 17.931 o
-2 12 3 36.307 30.328 4.648 56.316 o
-2 12 4 84.978 82.993 8.635 17.546 o
-2 12 5 43.158 40.119 5.978 37.495 o
-2 12 6 20.457 11.180 5.223 58.467 o
-2 12 7 3.368 7.186 5.398 64.038 o
-2 12 8 0.037 3.967 3.029 204.372 o
-2 12 9 0.070 -0.043 3.027 214.832 o
-2 12 10 3.636 4.181 6.176 49.928 o
-2 13 1 61.491 60.315 9.970 15.755 o
-2 13 2 171.421 183.298 9.720 10.289 o
-2 13 3 41.998 40.975 7.437 27.412 o
-2 13 4 34.333 47.680 6.745 32.408 o
-2 13 5 0.100 0.262 2.657 277.159 o
-2 13 6 23.746 15.666 4.737 64.997 o
-2 13 7 35.253 37.267 6.311 36.566 o
-2 13 8 8.147 13.967 4.168 93.767 o
-2 13 9 48.177 48.710 6.753 30.205 o
-2 14 1 363.547 375.412 14.420 3.998 o
-2 14 2 20.444 30.657 5.001 57.923 o
-2 14 3 38.965 34.860 6.880 31.721 o
-2 14 4 12.727 12.499 4.042 94.075 o
-2 14 5 62.689 46.965 10.117 15.610 o
-2 14 6 18.332 25.496 5.348 54.210 o
-2 14 7 10.712 17.382 6.706 39.676 o
-2 15 1 0.806 10.334 4.003 113.067 o
-2 15 2 5.291 2.844 4.011 111.506 o
-2 15 3 72.496 76.710 19.067 4.982 o
-2 15 4 21.220 18.745 9.053 22.009 o
-2 15 5 173.362 198.209 13.054 7.240 o
-2 15 6 26.377 41.717 6.919 32.826 o
-2 16 1 56.048 50.073 9.754 16.784 o
-2 16 2 0.217 -2.688 6.989 40.335 o
-2 16 3 6.283 16.671 5.091 66.974 o
-1 0 2 1909.740 1926.090 33.366 0.327 o
-1 0 4 18.172 22.765 2.523 143.585 o
-1 0 6 251.441 265.448 11.085 6.830 o
-1 0 8 2.318 -1.057 1.643 608.006 o
-1 0 10 73.780 61.201 8.325 19.849 o
-1 0 12 836.778 837.776 29.272 1.005 o
-1 0 14 19.548 17.423 7.097 34.360 o
-1 1 1 0.248 0.005 0.395 9180.450 o
-1 1 2 4605.790 4228.110 34.087 0.076 o
-1 1 3 29.546 24.076 1.574 150.467 o
-1 1 4 1976.350 1991.200 21.928 0.345 o
-1 1 5 38.715 41.032 2.412 91.747 o
-1 1 6 159.814 163.346 5.257 17.272 o
-1 1 7 323.998 332.827 9.412 6.029 o
-1 1 8 26.180 24.591 3.426 91.680 o
-1 1 9 46.920 40.066 4.411 52.674 o
-1 1 10 742.275 753.489 17.959 1.605 o
-1 1 11 96.090 99.312 8.983 15.682 o
-1 1 12 253.908 281.266 12.752 5.886 o
-1 1 13 111.806 123.940 8.359 15.640 o
-1 1 14 36.507 25.372 5.399 47.058 o
-1 1 15 16.641 12.396 14.493 9.145 o
-1 2 1 2227.290 2121.220 21.358 0.291 o
-1 2 2 356.496 356.427 5.370 6.550 o
-1 2 4 1630.260 1696.180 21.985 0.467 o
-1 2 5 1818.550 1826.990 24.413 0.389 o
-1 2 6 53.589 53.162 3.701 55.119 o
-1 2 7 229.568 220.445 6.798 10.650 o
-1 2 8 1092.490 1123.380 20.737 0.886 o
-1 2 9 1498.090 1567.730 26.680 0.503 o
-1 2 10 5.823 5.345 3.164 163.808 o
-1 2 11 4.385 4.305 3.387 151.422 o
-1 2 12 205.233 207.642 9.864 9.014 o
-1 2 13 140.929 141.568 8.666 13.350 o
-1 2 14 47.830 48.864 6.444 32.264 o
-1 2 15 22.381 16.645 20.890 4.441 o
-1 3 2 1286.500 1294.710 14.132 0.766 o
-1 3 4 54.530 45.225 2.739 68.885 o
-1 3 5 433.834 423.231 10.530 4.141 o
-1 3 6 322.805 327.874 9.197 6.155 o
-1 3 7 262.819 297.088 9.682 7.117 o
-1 3 8 72.922 75.284 6.547 26.279 o
-1 3 9 54.499 56.495 4.724 43.614 o
-1 3 10 23.739 21.711 3.374 98.127 o
-1 3 11 235.613 230.555 9.957 8.062 o
-1 3 12 1.801 -0.732 3.989 120.721 o
-1 3 13 0.035 -3.103 3.217 190.368 o
-1 3 14 12.476 11.053 6.584 41.315 o
-1 3 15 0.218 0.567 5.152 73.965 o
-1 4 1 88.091 84.256 3.168 40.043 o
-1 4 2 4.950 5.438 1.057 669.977 o
-1 4 3 5442.280 5540.820 47.288 0.051 o
-1 4 4 1097.140 1123.660 15.930 0.958 o
-1 4 5 95.713 94.041 4.194 32.070 o
-1 4 6 681.673 680.926 14.116 2.021 o
-1 4 7 171.943 161.940 6.977 14.006 o
-1 4 8 206.870 228.048 8.717 9.663 o
-1 4 9 522.073 519.198 16.301 2.585 o
-1 4 10 161.030 164.667 7.752 13.367 o
-1 4 11 179.897 188.897 8.225 11.559 o
-1 4 12 64.270 64.505 6.761 26.976 o
-1 4 13 434.850 417.388 15.850 3.207 o
-1 4 14 23.361 27.476 6.795 35.496 o
-1 5 1 24.890 23.526 2.205 139.523 o
-1 5 2 166.094 192.899 5.332 15.731 o
-1 5 3 125.673 119.399 4.223 24.989 o
-1 5 4 2615.300 2579.670 31.729 0.202 o
-1 5 5 196.830 200.076 6.497 12.556 o
-1 5 6 703.942 724.627 13.791 1.925 o
-1 5 7 26.019 31.789 3.971 74.467 o
-1 5 8 9.572 8.074 2.069 260.818 o
-1 5 9 19.447 18.474 3.256 111.176 o
-1 5 10 568.392 553.440 17.943 2.223 o
-1 5 11 4.680 0.555 2.311 302.660 o
-1 5 12 28.643 32.075 3.962 72.532 o
-1 5 13 0.020 -7.626 3.496 161.272 o
-1 5 14 4.334 11.323 4.631 82.748 o
-1 6 1 1012.800 970.231 14.184 1.156 o
-1 6 2 215.686 209.304 6.039 12.006 o
-1 6 3 8.306 11.038 1.812 297.934 o
-1 6 4 497.188 517.811 11.143 3.313 o
-1 6 5 615.390 663.405 13.333 2.291 o
-1 6 6 658.306 649.948 13.436 2.172 o
-1 6 7 33.849 29.528 3.844 72.035 o
-1 6 8 15.343 15.639 2.850 142.664 o
-1 6 9 105.749 104.670 5.895 23.304 o
-1 6 10 18.504 16.536 3.520 103.647 o
-1 6 11 928.285 887.547 21.395 1.129 o
-1 6 12 34.049 18.705 3.446 85.717 o
-1 6 13 53.474 52.603 7.596 24.761 o
-1 6 14 2.422 -4.288 4.105 113.232 o
-1 7 1 100.475 103.673 4.314 29.784 o
-1 7 2 32.931 35.878 3.147 85.193 o
-1 7 3 149.683 162.286 5.664 17.370 o
-1 7 4 0.633 0.222 1.173 1271.270 o
-1 7 5 300.625 296.182 9.767 6.487 o
-1 7 6 34.357 34.352 4.144 64.434 o
-1 7 7 5.011 6.622 2.089 310.600 o
-1 7 8 1.045 2.666 1.649 601.627 o
-1 7 9 4.449 -0.294 2.737 230.897 o
-1 7 10 93.496 101.749 7.122 20.705 o
-1 7 11 49.878 48.465 5.841 36.321 o
-1 7 12 8.954 3.948 4.355 91.368 o
-1 7 13 24.817 26.356 8.855 22.399 o
-1 7 14 76.731 80.956 8.376 18.841 o
-1 8 1 426.615 453.532 9.312 4.294 o
-1 8 2 46.139 46.256 3.534 63.249 o
-1 8 3 6.597 6.077 1.588 408.703 o
-1 8 4 46.917 51.721 4.435 50.012 o
-1 8 5 1115.360 1111.160 19.416 0.895 o
-1 8 6 357.314 355.362 10.447 5.168 o
-1 8 7 99.653 98.510 5.787 24.724 o
-1 8 8 5.060 1.512 1.774 435.770 o
-1 8 9 303.532 311.094 10.653 5.988 o
-1 8 10 107.486 108.371 6.989 19.693 o
-1 8 11 70.957 74.978 8.871 17.908 o
-1 8 12 57.765 57.799 8.033 22.238 o
-1 8 13 13.141 17.827 5.051 63.759 o
-1 9 1 13.952 18.607 2.295 179.454 o
-1 9 2 350.440 331.091 8.388 6.010 o
-1 9 3 2.533 0.462 1.114 1041.760 o
-1 9 4 205.487 205.549 7.216 11.390 o
-1 9 5 200.692 190.711 7.754 11.300 o
-1 9 6 4.005 8.294 2.665 218.070 o
-1 9 7 279.639 265.254 9.526 7.179 o
-1 9 8 112.549 121.695 6.600 19.796 o
-1 9 9 10.721 11.171 2.704 175.012 o
-1 9 10 55.991 42.961 6.602 30.429 o
-1 9 11 9.733 8.454 3.319 137.129 o
-1 9 12 37.734 32.186 5.927 40.065 o
-1 9 13 0.387 -4.217 4.520 96.103 o
-1 10 1 229.538 220.822 7.047 10.451 o
-1 10 2 61.085 64.162 4.871 39.437 o
-1 10 3 962.833 923.283 16.764 1.189 o
-1 10 4 4.336 5.249 2.137 317.025 o
-1 10 5 9.198 6.308 2.265 243.486 o
-1 10 6 85.002 89.057 6.263 25.223 o
-1 10 7 1121.710 1139.980 22.414 0.832 o
-1 10 8 27.374 28.305 4.642 61.327 o
-1 10 9 79.384 67.633 6.755 25.049 o
-1 10 10 0.000 -2.382 4.747 87.540 o
-1 10 11 14.019 9.423 4.251 87.128 o
-1 10 12 76.871 52.047 7.566 22.725 o
-1 11 1 20.335 25.317 2.995 114.272 o
-1 11 2 53.263 46.477 3.970 53.763 o
-1 11 3 5.997 3.954 1.793 385.664 o
-1 11 4 132.758 136.231 6.314 18.319 o
-1 11 5 71.472 69.374 5.942 29.895 o
-1 11 6 320.619 321.664 13.301 4.823 o
-1 11 7 1.185 1.849 2.292 343.023 o
-1 11 8 167.647 183.584 13.399 7.174 o
-1 11 9 26.082 36.555 10.139 17.271 o
-1 11 10 33.962 19.960 4.698 59.127 o
-1 11 11 51.000 54.849 10.447 15.094 o
-1 12 1 138.535 163.084 7.832 14.313 o
-1 12 2 321.267 326.944 11.136 5.503 o
-1 12 3 230.381 206.148 9.110 9.035 o
-1 12 4 224.112 221.532 10.813 7.795 o
-1 12 5 278.689 298.170 17.003 4.080 o
-1 12 6 304.100 318.891 12.709 5.182 o
-1 12 7 25.710 34.337 6.067 41.267 o
-1 12 8 18.365 19.434 3.881 89.451 o
-1 12 9 10.286 11.405 4.117 94.688 o
-1 12 10 0.639 0.178 4.167 112.495 o
-1 13 1 3.139 4.680 2.687 231.591 o
-1 13 2 9.239 10.748 3.166 145.501 o
-1 13 3 7.419 9.440 2.604 203.289 o
-1 13 4 8.627 10.697 3.170 146.905 o
-1 13 5 3.650 -0.939 4.800 82.527 o
-1 13 6 31.018 29.041 7.517 28.903 o
-1 13 7 54.429 72.645 8.193 21.295 o
-1 13 8 6.766 7.093 6.842 40.017 o
-1 13 9 19.981 9.630 4.875 65.981 o
-1 14 1 68.645 49.635 7.208 25.174 o
-1 14 2 4.631 13.810 3.616 124.473 o
-1 14 3 27.077 35.410 5.976 41.753 o
-1 14 4 0.012 -0.735 2.696 271.263 o
-1 14 5 3.054 1.458 4.893 79.414 o
-1 14 6 14.237 15.555 12.250 12.685 o
-1 14 7 53.215 50.502 7.244 26.643 o
-1 14 8 5.539 -1.098 4.230 102.699 o
-1 15 1 34.047 37.700 8.441 23.183 o
-1 15 2 3.277 -1.357 3.614 142.532 o
-1 15 3 8.999 1.888 5.849 53.893 o
-1 15 4 13.750 15.823 7.854 29.438 o
-1 15 5 4.850 10.719 3.592 128.518 o
-1 15 6 13.488 17.592 5.738 51.370 o
-1 15 7 1.639 -4.979 6.688 43.719 o
-1 16 1 46.854 65.585 10.428 15.094 o
-1 16 2 160.405 183.031 15.970 5.689 o
-1 16 3 59.905 65.464 8.482 20.113 o
-1 16 4 55.672 62.574 9.792 16.416 o
-1 16 5 89.418 95.602 11.861 10.806 o
0 0 2 101.947 102.032 5.885 23.907 o
0 0 4 1716.760 1679.330 42.883 0.340 o
0 0 6 9.302 5.518 3.458 132.764 o
0 0 8 2.058 3.096 1.950 423.708 o
0 0 10 304.438 301.232 25.896 2.232 o
0 0 12 64.789 59.634 8.936 18.498 o
0 0 14 244.894 237.236 24.572 2.606 o
0 1 1 930.844 891.128 12.201 1.364 o
0 1 2 407.477 396.598 6.422 5.304 o
0 1 3 0.498 -0.587 0.832 2438.210 o
0 1 4 244.768 240.514 7.303 9.512 o
0 1 5 1323.870 1281.960 19.102 0.702 o
0 1 6 2666.740 2784.850 34.993 0.185 o
0 1 7 35.263 34.464 4.289 61.432 o
0 1 8 108.136 108.909 8.018 17.008 o
0 1 9 412.901 439.638 14.834 3.435 o
0 1 10 68.290 74.331 6.454 27.363 o
0 1 11 3.371 3.003 3.540 144.138 o
0 1 12 369.557 390.650 14.112 3.980 o
0 1 13 188.745 172.890 15.078 5.963 o
0 1 14 78.593 69.969 11.132 12.550 o
0 1 15 184.035 196.968 16.281 5.298 o
0 2 0 35.812 33.046 1.573 122.184 o
0 2 1 3309.330 3131.460 25.711 0.141 o
0 2 2 4166.100 3990.540 39.804 0.087 o
0 2 3 1739.850 1579.150 19.343 0.463 o
0 2 4 3987.980 3875.000 44.881 0.092 o
0 2 5 238.469 233.473 8.097 9.232 o
0 2 6 78.347 102.612 6.955 22.569 o
0 2 7 215.607 266.844 10.088 8.012 o
0 2 8 632.026 618.376 15.496 2.153 o
0 2 9 369.990 402.416 14.161 3.928 o
0 2 10 183.475 172.627 9.541 10.291 o
0 2 11 7.571 10.052 3.156 151.803 o
0 2 12 67.036 64.645 8.739 18.833 o
0 2 13 131.117 149.333 29.611 2.083 o
0 2 14 61.362 62.665 11.403 12.630 o
0 2 15 71.590 58.117 16.148 6.811 o
0 3 1 54.556 48.163 1.847 78.858 o
0 3 2 255.687 245.813 5.183 10.421 o
0 3 3 1633.380 1643.690 20.697 0.481 o
0 3 4 899.760 896.965 14.313 1.355 o
0 3 5 19.164 21.065 2.486 145.134 o
0 3 6 1.957 1.742 1.439 720.207 o
0 3 7 203.367 211.847 9.032 9.705 o
0 3 8 66.503 66.742 5.930 30.968 o
0 3 9 50.243 53.530 5.302 40.088 o
0 3 10 295.889 314.681 11.540 5.717 o
0 3 11 477.159 488.971 17.648 2.636 o
0 3 12 2.627 -0.877 2.664 255.595 o
0 3 13 5.481 3.017 3.324 155.122 o
0 3 14 62.829 63.616 13.684 9.215 o
0 3 15 22.721 22.699 6.733 36.581 o
0 4 0 7262.840 6573.160 64.929 0.031 o
0 4 1 199.344 211.988 4.359 14.244 o
0 4 2 158.256 162.567 4.189 19.119 o
0 4 3 10.333 7.186 1.396 371.478 o
0 4 4 227.663 206.426 6.358 11.320 o
0 4 5 24.377 15.895 2.282 148.132 o
0 4 6 1068.480 1146.750 19.220 0.921 o
0 4 7 156.499 153.581 7.822 13.714 o
0 4 8 539.800 522.814 15.743 2.576 o
0 4 9 259.425 263.840 11.456 6.538 o
0 4 10 10.030 4.763 3.812 112.583 o
0 4 11 0.760 0.179 2.379 336.735 o
0 4 12 2.988 -3.210 9.858 20.148 o
0 4 13 33.878 40.897 10.447 15.986 o
0 4 14 22.380 12.995 6.290 42.180 o
0 4 15 0.471 -2.829 11.697 14.402 o
0 5 1 1119.130 1071.710 12.540 1.010 o
0 5 2 1589.950 1503.520 16.034 0.544 o
0 5 3 1126.610 1068.420 15.873 0.958 o
0 5 4 330.849 349.039 8.106 6.252 o
0 5 5 414.486 395.251 10.043 4.514 o
0 5 6 594.908 680.474 14.308 2.258 o
0 5 7 2371.570 2478.990 39.050 0.217 o
0 5 8 146.674 157.827 9.996 11.022 o
0 5 9 159.666 149.134 8.895 12.160 o
0 5 10 3.472 4.683 2.419 272.710 o
0 5 11 48.782 56.701 5.904 35.230 o
0 5 12 199.029 225.980 19.863 3.810 o
0 5 13 115.654 115.561 18.098 5.141 o
0 5 14 51.242 46.782 12.139 11.761 o
0 6 0 5524.700 5335.090 57.285 0.050 o
0 6 1 977.493 991.025 12.736 1.215 o
0 6 2 354.845 355.485 7.042 6.159 o
0 6 3 618.882 589.396 11.146 2.570 o
0 6 4 14.468 12.862 1.887 227.191 o
0 6 5 200.380 205.813 6.717 12.066 o
0 6 6 4.857 5.651 1.774 396.194 o
0 6 7 168.415 173.591 8.644 11.740 o
0 6 8 573.820 632.078 18.452 2.063 o
0 6 9 283.131 270.701 12.672 5.656 o
0 6 10 208.882 212.572 11.213 7.869 o
0 6 11 23.735 29.578 6.346 39.403 o
0 6 12 0.143 2.893 3.444 161.234 o
0 6 13 18.497 29.442 6.841 35.767 o
0 6 14 27.744 30.825 10.447 16.408 o
0 7 1 3186.450 3167.260 29.799 0.144 o
0 7 2 570.538 554.565 9.670 2.980 o
0 7 3 359.147 343.357 8.036 5.908 o
0 7 4 13.755 12.230 1.876 235.436 o
0 7 5 268.082 271.354 7.718 8.288 o
0 7 6 72.604 83.841 4.722 35.302 o
0 7 7 65.250 81.162 5.097 34.894 o
0 7 8 0.024 -2.641 1.757 637.960 o
0 7 9 707.221 696.767 18.054 1.721 o
0 7 10 23.210 35.640 5.783 44.913 o
0 7 11 107.273 102.188 21.221 3.942 o
0 7 12 16.455 13.608 10.300 17.640 o
0 7 13 0.003 3.179 6.989 40.070 o
0 7 14 18.834 17.221 7.026 35.108 o
0 8 0 659.059 653.095 34.740 1.018 o
0 8 1 2.377 2.822 1.084 952.927 o
0 8 2 146.947 148.580 5.061 19.221 o
0 8 3 982.819 984.219 15.641 1.154 o
0 8 4 0.537 1.797 1.227 1069.770 o
0 8 5 18.096 14.727 2.272 172.092 o
0 8 6 474.823 480.143 11.224 3.545 o
0 8 7 449.759 433.214 11.276 3.855 o
0 8 8 197.450 189.770 7.576 11.614 o
0 8 9 373.203 376.707 11.473 4.637 o
0 8 10 526.669 548.698 19.772 2.171 o
0 8 11 172.337 183.150 11.247 8.799 o
0 8 12 9.324 5.619 4.133 98.609 o
0 8 13 74.940 78.137 8.775 17.867 o
0 9 1 6.790 1.372 1.148 636.510 o
0 9 2 13.002 18.700 2.240 187.699 o
0 9 3 269.914 264.865 8.084 8.121 o
0 9 4 9.076 10.801 2.368 216.569 o
0 9 5 1266.460 1275.410 20.757 0.719 o
0 9 6 19.159 21.903 3.630 95.298 o
0 9 7 508.716 498.459 13.366 3.027 o
0 9 8 47.845 38.361 4.585 50.533 o
0 9 9 176.890 181.944 8.759 11.183 o
0 9 10 18.796 19.691 4.388 74.739 o
0 9 11 169.016 149.521 11.091 9.362 o
0 9 12 2.338 2.325 4.623 88.846 o
0 9 13 2.985 2.438 3.741 131.556 o
0 10 0 265.285 267.774 11.965 6.190 o
0 10 1 90.549 94.861 4.826 30.158 o
0 10 2 78.149 78.162 4.497 36.023 o
0 10 3 59.016 61.029 4.570 42.893 o
0 10 4 250.939 253.260 8.168 8.632 o
0 10 5 138.351 139.297 6.090 18.253 o
0 10 6 9.539 8.191 2.179 245.363 o
0 10 7 47.496 43.006 4.989 45.337 o
0 10 8 4.176 9.424 2.746 204.077 o
0 10 9 14.101 11.638 3.253 127.660 o
0 10 10 2.046 -0.015 3.016 205.961 o
0 10 11 220.021 234.375 13.003 6.434 o
0 10 12 3.431 5.051 4.584 87.956 o
0 11 1 115.760 123.725 6.183 20.532 o
0 11 2 83.365 81.224 5.311 30.274 o
0 11 3 8.629 8.208 2.676 192.866 o
0 11 4 14.696 10.978 2.318 191.263 o
0 11 5 486.619 474.376 14.252 3.072 o
0 11 6 5.075 5.764 2.520 239.088 o
0 11 7 341.062 349.518 12.482 4.770 o
0 11 8 25.165 25.169 3.815 81.747 o
0 11 9 8.392 13.624 3.371 131.110 o
0 11 10 13.959 11.978 4.517 78.022 o
0 11 11 18.655 5.980 6.993 36.380 o
0 12 0 19.522 23.174 9.343 20.743 o
0 12 1 14.707 13.899 3.229 125.307 o
0 12 2 275.845 279.858 10.041 6.869 o
0 12 3 14.363 17.067 3.428 113.438 o
0 12 4 187.582 202.730 9.600 9.726 o
0 12 5 0.001 -0.799 3.240 187.843 o
0 12 6 50.215 53.800 5.831 35.780 o
0 12 7 106.150 110.968 7.658 17.939 o
0 12 8 2.943 4.876 4.970 75.939 o
0 12 9 6.848 11.755 3.180 149.715 o
0 12 10 108.658 139.208 10.141 12.255 o
0 12 11 51.567 55.038 7.241 26.589 o
0 13 1 0.173 -2.475 2.247 387.595 o
0 13 2 190.648 202.593 11.917 7.758 o
0 13 3 36.716 31.453 5.067 50.094 o
0 13 4 153.382 145.055 9.125 12.143 o
0 13 5 9.247 4.776 2.792 186.276 o
0 13 6 34.893 44.230 5.249 46.321 o
0 13 7 4.485 0.711 3.104 182.923 o
0 13 8 0.901 -1.548 3.355 172.030 o
0 13 9 21.490 17.951 4.088 81.076 o
0 13 10 15.724 16.220 4.523 74.890 o
0 14 0 11.330 9.711 7.136 35.957 o
0 14 1 396.326 409.972 18.351 2.972 o
0 14 2 0.590 8.088 3.489 148.669 o
0 14 3 156.246 189.484 11.965 8.416 o
0 14 4 90.488 88.826 7.397 20.614 o
0 14 5 4.208 6.421 2.570 235.658 o
0 14 6 11.774 4.797 3.250 141.040 o
0 14 7 15.103 18.788 3.817 95.658 o
0 14 8 28.628 19.688 4.524 65.232 o
0 15 1 0.033 -2.050 3.899 129.660 o
0 15 2 0.060 1.962 4.005 121.139 o
0 15 3 22.505 18.831 6.539 38.854 o
0 15 4 20.688 12.179 5.625 51.527 o
0 15 5 105.064 93.504 9.494 14.340 o
0 15 6 33.823 25.497 5.031 52.822 o
0 15 7 32.673 27.486 6.952 32.705 o
0 16 0 0.505 14.125 8.240 28.299 o
0 16 1 39.758 44.055 9.337 19.036 o
0 16 2 3.039 5.170 4.521 90.570 o
0 16 3 19.097 -1.092 20.231 4.764 o
0 16 4 7.306 -17.877 7.798 31.530 o
0 16 5 3.367 10.998 4.472 89.184 o
0 17 1 0.388 3.311 7.872 31.583 o
0 17 2 28.691 24.745 7.546 29.248 o
1 0 0 2179.290 1998.210 29.283 0.290 o
1 0 2 66.096 67.699 2.946 52.980 o
1 0 4 89.018 72.033 4.829 32.524 o
1 0 6 1077.860 1185.440 42.221 0.546 o
1 0 8 521.192 526.331 29.207 1.458 o
1 0 10 17.729 15.817 6.915 36.411 o
1 0 12 135.548 112.177 14.272 7.374 o
1 1 0 4220.960 3814.070 40.488 0.088 o
1 1 1 214.257 202.069 3.544 14.340 o
1 1 2 7574.370 6650.810 132.041 0.024 o
1 1 3 489.082 461.997 8.362 3.903 o
1 1 4 6480.720 6459.270 78.147 0.035 o
1 1 5 340.676 368.539 14.548 4.141 o
1 1 6 84.227 93.180 7.489 20.647 o
1 1 7 1017.460 1116.600 30.712 0.762 o
1 1 8 4.530 4.005 2.649 230.227 o
1 1 9 1.326 3.247 2.001 419.826 o
1 1 10 103.759 120.877 8.141 16.630 o
1 1 11 282.375 244.590 12.750 5.774 o
1 1 12 353.932 342.664 17.999 3.349 o
1 1 13 263.593 267.744 24.090 2.613 o
1 1 14 30.003 29.164 6.549 36.285 o
1 1 15 15.247 6.978 9.306 21.631 o
1 2 0 5.900 3.849 0.847 763.857 o
1 2 1 2927.540 2620.250 48.573 0.157 o
1 2 2 17.434 15.160 1.888 202.416 o
1 2 3 5324.190 5109.960 74.006 0.050 o
1 2 4 4332.180 4469.860 47.587 0.076 o
1 2 5 59.043 74.980 3.841 46.787 o
1 2 6 122.631 118.968 6.186 20.129 o
1 2 7 6.116 7.396 1.957 319.310 o
1 2 8 15.002 10.328 5.798 51.157 o
1 2 9 62.773 71.010 6.500 28.083 o
1 2 10 171.834 183.311 14.060 6.683 o
1 2 11 343.481 368.983 23.689 2.381 o
1 2 12 17.947 13.463 6.400 41.910 o
1 2 13 17.406 23.910 7.725 29.441 o
1 2 14 50.237 46.340 10.664 14.754 o
1 2 15 1.049 10.373 6.327 47.513 o
1 3 0 1495.940 1316.870 15.944 0.627 o
1 3 1 2.751 -0.690 0.634 1877.540 o
1 3 2 70.640 81.089 3.843 41.816 o
1 3 3 2.578 1.117 2.407 301.836 o
1 3 4 442.918 479.087 9.470 4.033 o
1 3 5 76.934 86.436 4.097 37.675 o
1 3 6 562.698 639.593 16.315 2.258 o
1 3 7 802.682 864.725 17.072 1.445 o
1 3 8 90.612 76.886 6.412 24.681 o
1 3 9 630.379 652.807 34.759 1.036 o
1 3 10 111.170 118.516 8.940 14.633 o
1 3 11 259.611 277.986 20.305 3.358 o
1 3 12 106.892 92.983 14.640 7.517 o
1 3 13 28.819 28.471 8.534 23.517 o
1 3 14 81.984 70.398 13.537 9.058 o
1 4 0 6034.740 5842.160 49.213 0.043 o
1 4 1 3692.480 3479.720 52.460 0.103 o
1 4 2 125.011 134.327 3.905 24.885 o
1 4 3 3470.080 3416.120 46.420 0.115 o
1 4 4 378.137 335.711 7.433 5.862 o
1 4 5 823.725 905.068 15.378 1.436 o
1 4 6 256.021 279.912 8.288 8.147 o
1 4 7 833.627 817.623 16.482 1.454 o
1 4 8 0.144 0.641 1.310 1080.310 o
1 4 9 29.615 36.260 5.383 47.717 o
1 4 10 22.072 15.099 2.842 127.534 o
1 4 11 799.582 766.830 35.089 0.885 o
1 4 12 8.174 8.755 4.193 95.716 o
1 4 13 4.123 1.619 4.488 92.564 o
1 4 14 6.352 -6.695 6.327 47.481 o
1 5 0 4419.010 4319.400 36.028 0.079 o
1 5 1 411.906 442.533 8.123 4.690 o
1 5 2 985.406 959.333 12.987 1.221 o
1 5 3 420.078 423.628 9.300 4.484 o
1 5 4 240.361 271.873 5.630 10.237 o
1 5 5 232.160 226.408 6.792 10.471 o
1 5 6 299.870 326.120 9.085 6.548 o
1 5 7 306.417 304.535 9.402 6.487 o
1 5 8 323.162 345.208 11.104 5.391 o
1 5 9 32.491 27.350 3.861 73.539 o
1 5 10 1.623 4.351 2.338 310.036 o
1 5 11 6.705 1.913 6.400 46.091 o
1 5 12 0.006 4.708 4.341 101.684 o
1 5 13 0.002 1.619 4.782 85.537 o
1 5 14 60.657 47.297 10.962 13.738 o
1 6 0 2.798 2.722 1.257 769.393 o
1 6 1 41.895 45.465 3.034 74.454 o
1 6 2 1470.700 1458.880 20.941 0.573 o
1 6 3 1948.760 1950.910 24.464 0.347 o
1 6 4 0.303 0.033 0.829 2590.100 o
1 6 5 105.030 85.700 3.437 34.183 o
1 6 6 3.581 8.250 1.622 441.681 o
1 6 7 13.632 15.816 2.586 164.766 o
1 6 8 87.190 86.978 5.518 28.240 o
1 6 9 11.560 7.919 4.948 69.828 o
1 6 10 0.303 2.435 4.341 102.734 o
1 6 11 50.103 51.727 7.427 25.977 o
1 6 12 1.229 1.870 3.619 144.915 o
1 6 13 0.388 1.471 4.267 106.777 o
1 6 14 27.382 21.556 8.240 25.423 o
1 7 0 1846.680 1874.190 20.838 0.389 o
1 7 1 119.963 128.208 4.797 23.606 o
1 7 2 350.541 323.958 7.835 6.231 o
1 7 3 24.432 24.878 3.540 90.201 o
1 7 4 894.734 929.887 13.534 1.358 o
1 7 5 64.536 74.261 4.348 41.058 o
1 7 6 10.145 11.251 3.249 137.158 o
1 7 7 6.944 6.093 3.536 132.414 o
1 7 8 44.513 44.522 4.068 57.199 o
1 7 9 13.790 9.021 3.058 142.816 o
1 7 10 0.008 4.111 2.531 286.117 o
1 7 11 18.416 22.355 4.909 62.642 o
1 7 12 0.680 9.785 6.695 42.745 o
1 7 13 11.063 15.937 4.817 70.817 o
1 8 0 470.002 504.491 9.902 3.683 o
1 8 1 232.157 258.481 8.406 8.865 o
1 8 2 18.191 19.216 2.473 151.449 o
1 8 3 93.222 93.658 5.099 28.631 o
1 8 4 553.320 573.233 10.700 2.926 o
1 8 5 55.943 63.978 3.611 52.436 o
1 8 6 23.541 24.352 3.109 105.541 o
1 8 7 90.365 97.117 6.901 21.891 o
1 8 8 256.958 253.405 14.196 5.373 o
1 8 9 27.916 29.093 5.775 44.597 o
1 8 10 10.976 4.676 3.118 152.538 o
1 8 11 722.977 705.149 30.417 1.113 o
1 8 12 182.131 200.795 12.170 7.724 o
1 8 13 94.398 89.967 17.656 5.565 o
1 9 0 73.540 78.240 4.197 39.035 o
1 9 1 2.270 0.142 1.187 1006.420 o
1 9 2 91.363 91.403 5.253 28.437 o
1 9 3 621.713 633.304 14.119 2.262 o
1 9 4 424.340 426.137 11.813 3.962 o
1 9 5 0.683 2.586 2.907 221.208 o
1 9 6 1091.610 1088.560 22.837 0.865 o
1 9 7 53.970 44.219 4.183 51.508 o
1 9 8 7.905 4.046 2.097 291.258 o
1 9 9 2.082 4.292 3.167 178.785 o
1 9 10 50.375 57.075 10.007 16.190 o
1 9 11 43.658 47.378 8.150 23.333 o
1 9 12 30.582 11.883 5.679 47.528 o
1 10 0 75.610 71.096 4.684 36.301 o
1 10 1 58.303 56.673 4.924 40.749 o
1 10 2 0.715 1.396 2.187 385.449 o
1 10 3 352.133 349.194 10.772 5.162 o
1 10 4 0.099 -2.119 1.482 888.618 o
1 10 5 0.229 0.349 1.563 776.935 o
1 10 6 253.831 230.199 9.278 8.133 o
1 10 7 532.950 548.935 13.066 2.837 o
1 10 8 39.595 36.760 4.521 55.178 o
1 10 9 158.917 149.339 8.531 12.680 o
1 10 10 197.234 234.957 13.368 6.502 o
1 10 11 5.173 5.243 6.862 40.296 o
1 10 12 83.592 63.183 16.921 6.161 o
1 11 0 682.815 707.644 13.870 1.996 o
1 11 1 0.641 6.924 1.824 458.852 o
1 11 2 238.464 254.200 10.028 7.737 o
1 11 3 0.545 2.012 1.871 510.145 o
1 11 4 62.777 57.185 6.490 29.083 o
1 11 5 41.786 34.075 5.429 43.798 o
1 11 6 259.613 253.673 12.151 6.262 o
1 11 7 48.566 44.356 5.569 39.319 o
1 11 8 478.184 477.321 12.351 3.373 o
1 11 9 154.412 143.757 8.426 13.119 o
1 11 10 11.549 23.611 6.552 40.515 o
1 11 11 0.313 6.380 11.182 15.669 o
1 12 0 4.250 1.799 3.366 157.148 o
1 12 1 226.895 240.590 10.215 7.963 o
1 12 2 264.051 264.440 13.767 5.432 o
1 12 3 135.174 129.417 9.509 12.499 o
1 12 4 12.742 11.934 4.522 78.856 o
1 12 5 203.629 181.541 10.377 8.916 o
1 12 6 2.836 2.794 3.005 196.589 o
1 12 7 12.795 11.112 5.370 59.203 o
1 12 8 15.791 7.387 3.730 105.627 o
1 12 9 16.803 19.751 10.631 16.487 o
1 12 10 8.099 21.572 6.365 43.715 o
1 13 0 1.915 0.650 2.690 253.999 o
1 13 1 58.276 63.689 7.332 24.950 o
1 13 2 8.859 7.944 3.414 133.732 o
1 13 3 3.274 0.519 3.157 182.618 o
1 13 4 233.094 241.975 12.937 6.266 o
1 13 5 16.627 17.434 3.893 92.055 o
1 13 6 89.653 70.472 8.306 18.560 o
1 13 7 53.153 44.152 7.849 24.011 o
1 13 8 173.567 167.397 16.254 5.502 o
1 13 9 3.575 -4.782 8.019 30.274 o
1 14 0 58.691 54.602 7.626 24.023 o
1 14 1 0.968 0.066 4.233 108.654 o
1 14 2 147.825 114.668 13.034 8.232 o
1 14 3 1.215 -3.879 2.892 228.089 o
1 14 4 36.039 35.269 5.836 40.995 o
1 14 5 26.670 25.329 5.248 52.531 o
1 14 6 0.771 -2.444 3.376 170.359 o
1 14 7 21.487 20.032 6.525 39.082 o
1 14 8 2.010 0.713 4.226 107.111 o
1 15 0 2.393 -1.726 4.524 93.765 o
1 15 1 6.189 3.615 4.015 109.430 o
1 15 2 30.703 26.418 5.293 50.194 o
1 15 3 36.051 28.093 6.041 39.833 o
1 15 4 23.234 10.092 4.425 74.108 o
1 15 5 1.894 5.596 6.174 50.271 o
1 15 6 18.869 27.964 8.240 25.903 o
1 16 0 4.805 12.585 6.621 42.412 o
1 16 1 305.620 334.673 21.507 2.865 o
1 16 2 137.415 126.156 16.835 5.618 o
1 16 3 9.743 -8.351 10.520 17.453 o
1 16 4 4.265 17.351 6.852 39.392 o
2 0 0 3490.770 3265.600 49.017 0.115 o
2 0 2 3706.790 3539.940 45.215 0.105 o
2 0 4 70.780 65.819 5.681 31.762 o
2 0 6 2134.710 2091.680 41.382 0.257 o
2 0 8 1.311 3.429 2.465 290.582 o
2 0 10 565.769 548.917 26.852 1.540 o
2 0 12 15.765 -1.766 5.003 68.370 o
2 0 14 117.940 135.660 12.425 9.146 o
2 1 0 257.488 257.407 5.566 9.954 o
2 1 1 5964.780 5917.420 49.340 0.043 o
2 1 2 3333.960 3306.840 30.244 0.133 o
2 1 3 326.748 354.778 6.254 6.850 o
2 1 4 504.537 570.266 10.291 3.225 o
2 1 5 37.267 47.942 3.675 66.238 o
2 1 6 890.328 911.083 17.037 1.283 o
2 1 7 101.111 95.131 5.458 25.959 o
2 1 8 371.851 385.006 11.352 4.642 o
2 1 9 76.739 76.454 5.582 30.398 o
2 1 10 7.420 7.025 4.120 100.651 o
2 1 11 168.074 162.104 8.498 12.138 o
2 1 12 38.643 51.994 5.790 38.817 o
2 1 13 78.901 69.937 7.515 21.958 o
2 1 14 0.137 -9.412 3.488 161.659 o
2 2 0 56.779 50.870 2.491 68.157 o
2 2 1 9.888 16.077 1.616 282.708 o
2 2 2 809.870 811.283 10.702 1.701 o
2 2 3 348.555 366.531 6.324 6.362 o
2 2 4 1268.090 1308.650 17.428 0.743 o
2 2 5 39.813 43.783 3.213 73.784 o
2 2 6 474.035 453.590 10.054 3.809 o
2 2 7 0.479 -1.641 1.416 931.078 o
2 2 8 126.774 128.314 7.549 16.374 o
2 2 9 2.024 3.707 1.676 529.480 o
2 2 10 369.447 350.117 19.013 3.074 o
2 2 11 27.119 26.543 4.421 66.076 o
2 2 12 0.130 2.912 2.990 211.806 o
2 2 13 56.727 57.905 7.605 24.147 o
2 2 14 11.227 3.262 4.452 86.078 o
2 3 0 313.142 307.068 7.169 7.232 o
2 3 1 742.019 798.221 15.640 1.669 o
2 3 2 293.041 303.581 7.492 7.525 o
2 3 3 1171.120 1147.160 40.729 0.543 o
2 3 4 895.573 904.848 17.398 1.270 o
2 3 5 1729.780 1790.220 36.369 0.360 o
2 3 6 13.193 15.169 1.975 219.438 o
2 3 7 329.377 332.162 7.462 6.619 o
2 3 8 266.408 271.831 6.982 8.718 o
2 3 9 16.317 16.567 2.324 171.878 o
2 3 10 42.144 42.005 5.039 46.703 o
2 3 11 496.061 463.773 18.647 2.494 o
2 3 12 40.771 47.924 6.319 34.452 o
2 3 13 3.631 -1.969 6.069 52.322 o
2 3 14 0.020 8.121 4.730 84.496 o
2 4 0 249.966 249.923 6.105 9.992 o
2 4 1 163.077 178.477 5.463 16.208 o
2 4 2 3.231 7.104 1.281 606.322 o
2 4 3 66.265 57.309 4.863 39.046 o
2 4 4 272.875 306.438 9.834 6.804 o
2 4 5 4.341 3.975 1.952 371.109 o
2 4 6 160.523 155.477 8.807 12.132 o
2 4 7 73.254 77.377 8.323 19.347 o
2 4 8 26.762 24.383 2.225 132.774 o
2 4 9 346.290 353.868 9.535 5.567 o
2 4 10 620.300 573.625 13.610 2.403 o
2 4 11 43.222 44.689 5.010 46.223 o
2 4 12 80.054 96.294 10.373 13.501 o
2 4 13 55.413 57.965 9.196 18.262 o
2 5 0 249.875 225.708 6.355 10.218 o
2 5 1 578.995 588.792 10.382 2.799 o
2 5 2 6.016 6.295 0.990 622.163 o
2 5 3 173.260 212.755 8.280 11.317 o
2 5 4 132.637 129.843 6.626 17.890 o
2 5 5 13.677 10.269 2.730 163.825 o
2 5 6 458.090 440.956 15.732 3.066 o
2 5 7 810.999 828.837 25.702 1.147 o
2 5 8 230.593 224.047 17.142 4.540 o
2 5 9 5.769 4.255 3.936 113.524 o
2 5 10 61.655 68.468 3.709 48.166 o
2 5 11 93.240 79.728 10.035 13.988 o
2 5 12 1.624 2.767 2.262 338.425 o
2 5 13 10.084 6.551 10.557 17.199 o
2 6 0 74.838 76.453 4.937 34.340 o
2 6 1 25.503 24.761 2.965 107.162 o
2 6 2 66.899 67.819 3.175 50.679 o
2 6 3 7.002 11.506 2.511 210.337 o
2 6 4 2144.190 2284.330 34.785 0.262 o
2 6 5 36.399 45.384 8.944 20.623 o
2 6 6 603.963 630.639 19.765 1.895 o
2 6 7 12.237 14.779 3.144 134.330 o
2 6 8 811.270 866.832 47.043 0.597 o
2 6 9 273.319 271.880 25.749 2.334 o
2 6 10 0.786 -3.163 4.561 93.965 o
2 6 11 67.524 79.594 17.583 5.797 o
2 6 12 94.021 97.471 20.011 4.439 o
2 6 13 1.718 -0.763 1.619 652.306 o
2 7 0 483.596 496.791 11.871 3.354 o
2 7 1 951.991 933.817 14.723 1.245 o
2 7 2 1351.100 1340.570 18.375 0.677 o
2 7 3 0.025 -0.528 0.615 5143.120 o
2 7 4 352.043 349.661 10.884 5.128 o
2 7 5 20.528 20.359 4.179 78.456 o
2 7 6 2.556 1.154 2.205 352.026 o
2 7 7 1.357 0.840 3.079 199.231 o
2 7 8 73.791 71.796 15.597 7.168 o
2 7 9 8.675 5.297 5.076 69.236 o
2 7 10 31.875 30.457 10.373 16.466 o
2 7 11 274.809 276.441 28.545 1.974 o
2 7 12 9.653 1.839 7.578 32.897 o
2 7 13 2.727 8.755 8.387 27.382 o
2 8 0 120.942 115.273 5.033 23.603 o
2 8 1 35.516 29.493 2.872 92.498 o
2 8 2 830.787 829.697 14.331 1.523 o
2 8 3 625.738 650.488 12.057 2.367 o
2 8 4 128.388 131.297 6.817 17.724 o
2 8 5 154.707 185.709 9.450 11.030 o
2 8 6 2.205 6.682 2.659 235.187 o
2 8 7 687.534 759.595 53.330 0.536 o
2 8 8 492.825 575.100 38.248 1.007 o
2 8 9 43.967 69.809 15.964 7.132 o
2 8 10 68.186 65.322 16.406 6.618 o
2 8 11 3.643 2.281 6.842 41.138 o
2 8 12 49.600 51.858 15.155 7.880 o
2 9 0 110.285 108.907 5.151 24.942 o
2 9 1 284.344 267.660 8.643 7.511 o
2 9 2 88.316 84.317 5.227 29.600 o
2 9 3 10.820 10.567 1.890 263.708 o
2 9 4 1.790 4.162 2.485 278.239 o
2 9 5 19.072 14.140 4.062 85.857 o
2 9 6 62.957 71.237 11.988 11.481 o
2 9 7 79.841 66.908 10.586 13.583 o
2 9 8 214.006 240.811 17.584 4.432 o
2 9 9 0.648 -0.030 5.187 72.905 o
2 9 10 22.740 24.572 10.005 18.104 o
2 9 11 110.351 115.635 20.452 4.177 o
2 9 12 7.108 -5.370 7.136 37.484 o
2 10 0 568.941 557.310 12.724 2.702 o
2 10 1 169.920 171.218 6.739 14.204 o
2 10 2 0.754 -0.728 1.596 724.284 o
2 10 3 0.352 1.644 1.866 524.807 o
2 10 4 2.463 8.192 4.929 76.284 o
2 10 5 1.000 -2.953 2.495 305.225 o
2 10 6 270.511 288.123 18.518 3.732 o
2 10 7 137.773 138.821 18.981 4.577 o
2 10 8 0.836 -4.764 4.635 90.982 o
2 10 9 8.544 2.306 5.812 54.637 o
2 10 10 24.075 25.819 7.099 32.999 o
2 10 11 25.850 29.246 15.850 7.541 o
2 11 0 84.370 92.513 6.304 24.930 o
2 11 1 14.281 18.970 3.060 129.600 o
2 11 2 0.008 -3.357 1.943 522.040 o
2 11 3 49.538 44.252 5.146 42.960 o
2 11 4 6.542 3.276 3.495 139.263 o
2 11 5 252.434 234.408 8.429 8.654 o
2 11 6 42.750 49.697 9.439 18.384 o
2 11 7 22.601 23.977 12.761 11.497 o
2 11 8 173.383 171.376 16.627 5.307 o
2 11 9 4.685 5.261 4.338 95.936 o
2 11 10 79.694 79.631 35.640 1.511 o
2 12 0 49.090 54.603 6.354 32.188 o
2 12 1 309.402 299.338 11.782 5.560 o
2 12 2 58.145 62.286 7.221 25.564 o
2 12 3 155.382 145.076 9.507 11.569 o
2 12 4 211.169 218.120 10.546 8.254 o
2 12 5 120.252 122.081 8.658 14.683 o
2 12 6 10.092 16.026 5.277 61.138 o
2 12 7 236.022 221.815 17.633 4.343 o
2 12 8 4.224 9.905 5.014 72.146 o
2 12 9 160.442 155.803 33.768 1.610 o
2 13 0 87.985 88.716 7.637 20.059 o
2 13 1 66.163 69.590 7.571 22.878 o
2 13 2 19.060 19.978 4.060 83.153 o
2 13 3 32.530 32.844 5.427 46.797 o
2 13 4 87.027 92.199 12.765 9.704 o
2 13 5 65.453 63.699 9.033 18.051 o
2 13 6 119.833 72.293 11.758 10.530 o
2 13 7 62.728 77.776 11.677 11.921 o
2 13 8 0.097 -0.555 6.364 48.675 o
2 14 0 336.045 344.882 15.996 3.883 o
2 14 1 76.855 77.134 7.522 21.801 o
2 14 2 25.021 32.681 5.595 47.097 o
2 14 3 319.209 354.662 15.778 4.008 o
2 14 4 89.581 79.592 10.023 14.151 o
2 14 5 116.357 110.554 8.238 16.006 o
2 14 6 66.837 65.837 25.970 2.806 o
2 14 7 6.874 10.966 5.507 59.220 o
2 15 0 17.533 15.729 4.555 72.960 o
2 15 1 35.132 21.386 8.986 21.308 o
2 15 2 18.140 23.571 5.225 56.717 o
2 15 3 4.534 3.518 3.418 149.653 o
2 15 4 28.019 15.229 7.578 29.695 o
2 15 5 33.893 42.871 8.358 23.372 o
2 16 0 1.650 12.021 4.526 88.404 o
2 16 1 107.819 103.648 18.903 4.836 o
2 16 2 0.221 -3.798 5.260 71.147 o
3 0 0 200.981 219.667 8.874 9.801 o
3 0 2 181.613 206.339 10.836 8.733 o
3 0 4 319.239 344.432 11.026 5.465 o
3 0 6 2637.460 2577.870 58.520 0.161 o
3 0 8 631.233 590.623 27.147 1.413 o
3 0 10 279.014 250.773 18.024 3.916 o
3 0 12 0.358 3.384 6.180 51.000 o
3 1 0 249.620 272.362 6.894 9.197 o
3 1 1 84.614 81.953 4.200 35.751 o
3 1 2 55.995 68.804 3.654 50.925 o
3 1 3 60.137 74.458 3.727 47.441 o
3 1 4 284.349 276.504 6.843 8.299 o
3 1 5 174.839 177.048 6.335 14.345 o
3 1 6 24.921 22.246 3.959 79.570 o
3 1 7 278.942 262.714 9.467 7.243 o
3 1 8 92.050 88.418 7.203 21.129 o
3 1 9 201.621 168.600 10.440 9.047 o
3 1 10 75.244 57.822 10.778 13.496 o
3 1 11 34.622 40.845 6.324 36.230 o
3 1 12 0.722 2.787 3.269 176.298 o
3 1 13 4.954 3.445 9.257 22.599 o
3 2 0 1011.430 1082.510 15.341 1.072 o
3 2 1 5637.680 5787.450 56.193 0.046 o
3 2 2 3.616 2.400 1.161 792.712 o
3 2 3 307.616 337.929 8.357 6.612 o
3 2 4 1.650 1.387 1.098 1121.940 o
3 2 5 989.327 1013.630 16.743 1.107 o
3 2 6 53.324 57.001 5.299 38.913 o
3 2 7 374.709 384.820 11.273 4.637 o
3 2 8 152.863 151.907 8.484 12.934 o
3 2 9 10.169 7.873 2.754 179.480 o
3 2 10 363.115 366.472 11.560 4.751 o
3 2 11 33.386 28.055 5.424 47.324 o
3 2 12 2.133 7.099 17.325 6.541 o
3 2 13 64.847 70.471 11.109 12.976 o
3 3 0 12.272 16.097 2.029 216.985 o
3 3 1 160.951 162.653 5.249 17.228 o
3 3 2 46.233 48.375 2.978 70.653 o
3 3 3 8.387 7.287 1.635 354.470 o
3 3 4 139.356 152.877 5.407 19.014 o
3 3 5 366.332 369.570 9.313 5.301 o
3 3 6 11.827 12.146 2.318 202.682 o
3 3 7 636.777 654.927 13.302 2.239 o
3 3 8 91.818 94.400 3.973 33.837 o
3 3 9 3.131 5.164 3.326 158.839 o
3 3 10 51.381 46.284 3.712 57.851 o
3 3 11 264.985 257.979 16.869 4.319 o
3 3 12 13.716 13.177 3.303 124.219 o
3 3 13 19.451 -0.619 3.495 116.235 o
3 4 0 2.039 2.613 1.196 888.118 o
3 4 1 22.096 28.890 4.216 72.988 o
3 4 2 279.406 306.736 8.238 7.427 o
3 4 3 47.252 40.277 2.876 74.738 o
3 4 4 108.433 109.334 9.841 13.260 o
3 4 5 103.554 111.866 6.597 20.992 o
3 4 6 16.200 15.638 4.568 73.623 o
3 4 7 283.280 273.263 15.249 4.678 o
3 4 8 285.033 281.297 26.043 2.264 o
3 4 9 252.588 250.111 21.703 3.117 o
3 4 10 78.834 44.796 10.741 13.663 o
3 5 0 11.018 12.334 1.932 249.321 o
3 5 1 197.243 176.510 6.510 13.047 o
3 5 2 789.821 825.369 14.767 1.586 o
3 5 3 0.618 -0.087 0.671 3315.390 o
3 5 4 147.689 147.577 7.553 14.702 o
3 5 5 33.737 29.516 4.151 66.194 o
3 5 6 10.767 15.661 3.773 105.065 o
3 5 7 4.810 6.003 3.684 127.822 o
3 5 8 6.033 2.050 3.697 128.490 o
3 5 9 65.385 45.319 9.686 16.653 o
3 6 0 675.251 675.057 12.849 2.121 o
3 6 1 19.343 21.064 2.520 142.876 o
3 6 2 4.447 2.778 1.381 599.012 o
3 6 3 82.654 99.422 6.913 22.462 o
3 6 4 38.405 37.641 5.933 39.220 o
3 6 5 996.936 1023.340 27.733 0.860 o
3 6 6 213.856 206.428 14.245 5.997 o
3 6 7 932.459 919.530 33.263 0.812 o
3 6 8 301.252 351.474 29.501 1.795 o
3 6 9 114.928 76.283 18.319 5.143 o
3 6 10 1.547 2.869 4.635 88.903 o
3 7 0 92.181 93.806 5.128 28.656 o
3 7 1 8.163 8.241 2.000 283.619 o
3 7 2 32.861 36.012 3.235 83.183 o
3 7 3 129.555 127.070 7.912 15.530 o
3 7 4 178.778 209.786 9.757 9.715 o
3 7 5 659.876 698.028 19.504 1.730 o
3 7 6 74.662 89.158 16.700 6.278 o
3 7 7 208.274 206.632 22.291 3.182 o
3 7 8 254.408 224.509 24.351 2.637 o
3 7 9 34.333 41.853 12.727 11.174 o
3 7 10 16.550 25.013 9.196 21.483 o
3 7 11 0.240 -6.695 5.518 64.663 o
3 8 0 344.777 372.509 9.977 5.345 o
3 8 1 81.312 77.384 4.943 32.900 o
3 8 2 128.881 112.110 4.814 23.457 o
3 8 3 8.776 6.896 2.025 280.128 o
3 8 4 659.099 660.022 17.012 1.926 o
3 8 5 1.891 0.684 7.026 39.534 o
3 8 6 569.007 597.906 38.175 0.963 o
3 8 7 126.910 142.635 22.733 3.381 o
3 8 8 4.130 -1.251 5.076 73.746 o
3 8 9 13.668 7.504 5.812 51.882 o
3 8 10 44.876 51.417 13.316 10.042 o
3 8 11 10.559 15.817 11.624 14.127 o
3 9 0 5.135 4.575 1.986 345.321 o
3 9 1 398.841 400.076 10.466 4.541 o
3 9 2 16.675 11.017 1.902 217.540 o
3 9 3 5.151 6.875 2.549 230.789 o
3 9 4 95.112 86.415 13.206 9.105 o
3 9 5 22.831 17.617 5.782 47.691 o
3 9 6 40.711 45.083 8.661 21.463 o
3 9 7 164.990 160.562 19.974 4.047 o
3 9 9 15.335 12.654 8.313 26.500 o
3 10 0 110.796 108.192 5.379 24.187 o
3 10 1 142.908 156.218 6.378 16.776 o
3 10 2 55.275 51.314 4.889 42.669 o
3 10 3 511.344 488.346 9.272 3.544 o
3 10 4 471.300 465.580 19.236 2.497 o
3 10 5 188.725 183.328 15.268 5.814 o
3 10 6 166.415 150.698 32.039 1.772 o
3 10 7 11.300 18.875 5.615 53.872 o
3 10 8 60.217 64.031 10.882 13.659 o
3 10 9 47.362 64.276 13.537 9.616 o
3 10 10 66.308 44.563 9.960 15.906 o
3 11 0 238.062 259.560 9.475 8.033 o
3 11 1 206.545 203.668 8.160 10.506 o
3 11 2 130.059 112.186 5.865 20.582 o
3 11 3 90.960 88.647 4.392 32.662 o
3 11 4 2.091 -2.604 3.700 139.039 o
3 11 5 0.045 -3.087 5.481 65.632 o
3 11 6 61.818 52.382 10.058 15.683 o
3 11 7 18.266 14.178 5.330 56.866 o
3 11 8 13.932 0.812 4.895 71.924 o
3 11 9 17.498 10.535 5.628 52.920 o
3 12 0 13.348 19.604 3.707 101.459 o
3 12 1 12.036 10.328 4.014 97.189 o
3 12 2 29.110 29.034 3.922 74.204 o
3 12 3 17.023 16.973 2.428 161.611 o
3 12 4 24.384 18.692 5.591 49.621 o
3 12 5 10.164 -0.006 9.490 21.322 o
3 12 6 0.413 1.287 4.058 118.013 o
3 12 7 10.450 2.032 7.210 36.034 o
3 12 8 5.573 2.499 5.073 72.089 o
3 13 0 0.018 1.037 2.931 226.302 o
3 13 1 2.864 6.462 3.128 175.646 o
3 13 2 52.192 56.034 5.156 40.511 o
3 13 3 28.724 16.901 3.305 96.955 o
3 13 4 2.120 -6.020 4.421 98.403 o
3 13 5 8.030 11.923 6.393 44.567 o
3 13 6 52.501 51.586 14.295 8.733 o
3 14 0 0.062 3.988 3.024 204.877 o
3 14 1 0.021 -2.341 2.623 286.493 o
3 14 2 86.981 89.844 6.182 25.266 o
3 14 3 13.552 14.407 3.352 120.859 o
3 14 4 2.792 6.327 8.166 28.962 o
3 14 5 1.249 -1.471 6.400 47.802 o
3 15 0 19.119 25.779 5.268 55.123 o
3 15 1 84.660 85.364 8.975 16.614 o
3 15 2 38.727 35.612 4.747 52.702 o
4 0 0 61.745 69.219 6.902 26.304 o
4 0 2 1071.860 1113.440 24.516 0.840 o
4 0 4 305.943 313.667 12.345 5.317 o
4 0 6 0.346 2.796 4.561 92.966 o
4 0 8 441.937 417.604 23.836 2.102 o
4 0 10 21.691 29.207 8.313 25.192 o
4 1 0 246.658 256.848 7.637 9.025 o
4 1 1 0.445 1.696 1.306 981.842 o
4 1 2 77.619 83.218 4.987 32.814 o
4 1 3 27.923 21.537 2.658 116.712 o
4 1 4 12.258 10.579 2.152 221.652 o
4 1 5 2.990 0.884 3.950 120.161 o
4 1 6 488.483 498.302 27.515 1.630 o
4 1 7 2.950 6.253 4.341 97.240 o
4 1 8 522.314 592.020 31.046 1.315 o
4 1 9 11.342 11.145 4.232 89.588 o
4 1 10 12.136 7.194 4.361 86.374 o
4 1 11 3.530 8.801 7.430 34.540 o
4 2 0 0.677 -0.689 1.444 878.763 o
4 2 1 405.691 445.847 10.647 4.252 o
4 2 2 575.133 567.054 11.634 2.756 o
4 2 3 45.282 52.514 3.670 60.031 o
4 2 4 49.386 53.277 4.745 45.555 o
4 2 5 62.172 58.369 4.935 39.410 o
4 2 6 422.743 439.759 15.997 3.187 o
4 2 7 823.496 832.763 22.924 1.228 o
4 2 8 5.013 6.736 3.076 172.113 o
4 2 9 3.885 2.891 9.417 21.929 o
4 2 10 30.692 35.763 5.243 49.214 o
4 2 11 103.403 17.238 25.771 2.830 o
4 3 0 134.042 145.255 6.315 17.889 o
4 3 1 256.368 279.596 9.718 7.360 o
4 3 2 0.000 -0.198 1.980 503.307 o
4 3 3 83.647 71.229 4.100 37.885 o
4 3 4 701.460 714.006 12.561 2.009 o
4 3 5 31.289 35.289 3.444 80.335 o
4 3 6 180.824 157.177 8.329 11.972 o
4 3 7 23.242 20.093 7.688 29.232 o
4 3 8 0.822 -1.545 5.003 78.204 o
4 3 9 148.535 105.048 16.553 5.769 o
4 3 10 0.265 -11.992 7.578 34.311 o
4 4 0 81.253 81.931 5.918 27.651 o
4 4 1 54.137 60.349 5.001 40.741 o
4 4 2 703.667 705.339 24.352 1.394 o
4 4 3 87.449 84.484 4.974 30.929 o
4 4 4 327.375 321.691 8.653 6.325 o
4 4 5 70.061 71.150 7.752 21.777 o
4 4 6 32.069 27.123 9.303 20.064 o
4 4 7 19.535 23.027 9.343 20.747 o
4 4 8 17.534 26.485 7.725 29.277 o
4 5 0 467.511 512.199 12.429 3.324 o
4 5 1 326.893 317.064 9.847 5.943 o
4 5 2 380.658 380.878 13.011 4.189 o
4 5 3 156.874 153.194 6.159 16.346 o
4 5 4 0.114 4.826 2.187 366.585 o
4 5 5 10.687 15.348 3.816 103.589 o
4 5 6 148.963 152.090 10.548 10.380 o
4 5 7 190.290 212.664 22.953 3.074 o
4 6 0 20.937 16.691 2.736 133.381 o
4 6 1 1088.320 1126.470 18.791 0.920 o
4 6 2 199.567 194.294 8.216 10.820 o
4 6 3 257.940 253.307 7.358 8.953 o
4 6 4 275.688 288.610 14.065 5.097 o
4 6 5 1.578 5.563 3.561 143.850 o
4 6 6 258.965 306.029 21.703 3.012 o
4 6 7 39.456 39.205 12.654 11.222 o
4 6 8 17.043 10.079 8.387 26.033 o
4 7 0 95.852 93.881 7.175 20.672 o
4 7 1 193.951 198.442 8.098 11.053 o
4 7 2 30.766 25.188 3.120 94.551 o
4 7 3 4.356 7.165 2.985 182.609 o
4 7 4 5.702 -0.883 4.414 94.654 o
4 7 5 69.495 77.368 12.028 11.204 o
4 7 6 54.094 60.245 13.978 9.016 o
4 7 7 30.372 32.297 12.286 12.103 o
4 7 8 2.156 2.501 4.708 85.852 o
4 7 9 7.780 10.300 8.019 29.254 o
4 8 0 169.040 178.118 10.776 9.355 o
4 8 1 13.353 12.135 3.502 115.957 o
4 8 2 284.987 281.026 9.127 7.144 o
4 8 3 4.488 2.738 3.021 187.528 o
4 8 4 140.712 136.690 10.672 10.642 o
4 8 5 9.695 12.443 7.063 36.701 o
4 8 6 2.510 -0.074 5.076 74.823 o
4 8 7 204.231 210.016 24.572 2.719 o
4 8 8 44.237 39.425 13.169 10.353 o
4 8 9 60.907 57.523 17.877 5.721 o
4 9 0 16.170 22.572 3.176 116.655 o
4 9 1 124.870 127.750 7.071 17.528 o
4 9 2 40.913 43.849 3.509 67.874 o
4 9 3 0.121 0.386 2.704 267.061 o
4 9 4 342.979 365.437 17.212 3.512 o
4 9 5 2.175 0.535 2.969 210.088 o
4 9 6 260.545 296.683 21.519 3.059 o
4 9 7 22.840 20.526 8.755 23.214 o
4 9 8 4.587 0.441 9.270 22.653 o
4 10 0 7.279 3.421 3.738 122.366 o
4 10 1 545.495 570.569 14.852 2.561 o
4 10 2 6.110 9.975 2.013 293.766 o
4 10 3 71.419 78.322 9.395 16.373 o
4 10 4 59.632 63.853 8.513 20.077 o
4 10 5 150.042 166.991 12.072 8.632 o
4 10 6 11.016 26.247 7.801 29.521 o
4 10 7 0.033 -3.424 4.278 107.741 o
4 10 8 7.354 15.796 6.437 43.702 o
4 11 0 10.402 14.318 2.909 154.857 o
4 11 1 258.931 275.851 12.565 5.944 o
4 11 2 7.956 5.827 1.843 328.643 o
4 11 3 35.941 25.787 5.242 49.136 o
4 11 4 0.606 0.670 6.327 49.000 o
4 11 5 51.476 46.697 7.173 27.445 o
4 11 6 17.293 1.428 6.274 45.083 o
4 11 7 0.306 -6.915 5.370 68.211 o
4 12 0 0.140 -5.043 3.064 209.382 o
4 12 1 0.640 4.993 2.482 285.850 o
4 12 2 13.572 18.552 4.391 79.212 o
4 12 3 180.053 160.506 12.274 8.002 o
4 12 4 16.627 7.021 4.689 73.290 o
4 12 5 4.491 7.063 9.049 23.537 o
4 13 0 31.773 20.053 4.285 67.889 o
4 13 1 6.469 7.990 3.225 152.801 o
4 13 2 57.159 58.985 4.381 45.495 o
4 13 3 82.292 85.638 15.226 7.327 o
5 0 0 2.555 5.437 3.279 164.336 o
5 0 2 86.240 79.233 8.338 18.406 o
5 0 4 194.633 204.588 12.430 7.321 o
5 0 6 5.899 10.447 6.033 50.492 o
5 0 8 190.434 202.071 18.319 4.407 o
5 1 0 25.210 28.739 3.876 78.573 o
5 1 1 638.463 626.182 14.324 2.207 o
5 1 2 185.274 185.286 8.120 11.550 o
5 1 3 38.467 36.839 5.520 43.384 o
5 1 4 111.407 96.813 6.498 21.254 o
5 1 5 31.103 33.202 3.827 73.067 o
5 1 6 173.416 166.378 9.402 10.815 o
5 1 7 0.284 -3.601 3.693 143.935 o
5 1 8 0.050 3.908 10.079 19.325 o
5 1 9 43.105 38.223 12.540 11.347 o
5 2 0 47.468 46.412 4.171 54.010 o
5 2 1 73.673 65.549 5.299 33.522 o
5 2 2 13.977 14.918 3.647 106.264 o
5 2 3 1.364 -0.144 2.111 412.833 o
5 2 4 49.432 46.066 4.777 46.419 o
5 2 5 20.002 20.983 3.181 111.195 o
5 2 6 91.995 101.870 19.860 4.499 o
5 2 7 12.272 9.870 6.290 45.083 o
5 2 8 0.118 4.782 4.341 101.500 o
5 2 9 4.691 10.371 13.058 11.408 o
5 3 0 403.881 420.174 11.105 4.278 o
5 3 1 155.939 157.622 7.065 14.803 o
5 3 2 10.055 5.402 2.254 241.982 o
5 3 3 45.962 38.636 5.595 40.427 o
5 3 4 41.971 31.962 4.151 60.627 o
5 3 5 76.663 53.789 7.443 23.156 o
5 3 6 24.359 13.188 3.564 96.480 o
5 3 7 51.431 71.354 14.419 8.493 o
5 4 0 109.557 104.967 6.764 20.288 o
5 4 1 17.133 20.133 3.769 94.129 o
5 4 2 176.915 179.748 10.744 9.194 o
5 4 3 244.583 217.407 10.678 7.558 o
5 4 4 21.565 26.977 4.740 63.000 o
5 4 5 118.992 126.744 15.744 6.410 o
5 4 6 3.710 7.210 6.915 39.792 o
5 5 0 6.923 18.380 6.402 43.932 o
5 5 1 6.990 0.060 4.182 102.936 o
5 5 2 79.501 69.071 6.290 27.033 o
5 5 3 127.999 128.927 15.041 6.792 o
5 5 4 224.388 206.967 8.644 9.537 o
5 5 5 29.224 47.077 10.667 15.459 o
5 5 6 7.518 12.874 6.033 49.603 o
5 6 0 55.574 65.662 6.373 30.185 o
5 6 1 7.354 4.328 2.483 233.637 o
5 6 2 8.337 4.544 2.664 204.591 o
5 6 3 507.342 523.095 21.153 2.117 o
5 6 4 24.295 22.601 6.290 40.620 o
5 6 5 109.323 100.267 16.921 5.857 o
5 6 6 81.372 66.940 13.684 8.927 o
5 7 0 2.413 -4.013 2.580 272.928 o
5 7 1 74.519 72.878 6.406 26.887 o
5 7 2 11.648 8.939 4.344 86.590 o
5 7 3 16.955 19.929 2.376 160.031 o
5 7 4 29.079 34.333 7.486 29.015 o
5 7 5 4.786 5.593 7.614 32.990 o
5 7 6 19.083 21.366 6.532 39.367 o
5 8 0 4.727 1.591 3.380 154.923 o
5 8 1 47.983 35.369 8.441 22.199 o
5 8 2 57.900 63.146 9.833 16.198 o
5 8 3 1.617 -0.076 2.963 215.347 o
5 8 4 3.719 1.249 4.647 87.168 o
5 8 5 27.812 34.155 7.542 28.818 o
5 8 6 25.153 31.735 12.025 12.719 o
5 9 0 112.395 128.566 8.935 14.368 o
5 9 1 29.482 32.592 5.137 51.641 o
5 9 2 7.472 11.852 1.909 286.944 o
5 9 3 266.730 270.709 15.384 4.764 o
5 9 4 0.322 -0.347 4.552 94.855 o
5 9 5 98.796 92.801 12.059 10.366 o
5 10 0 0.049 0.054 2.534 306.419 o
5 10 1 53.342 52.425 6.013 33.981 o
5 10 2 21.676 21.894 2.095 156.821 o
5 10 3 10.336 5.280 9.256 22.212 o
5 10 4 10.863 24.179 6.800 38.007 o
5 11 0 2.575 3.074 2.893 211.158 o
5 11 1 2.685 6.111 5.499 62.412 o
5 11 2 38.607 31.802 6.807 32.533 o
6 0 0 217.178 217.944 16.696 4.812 o
6 0 2 0.921 4.282 4.040 115.718 o
6 0 4 25.876 13.633 11.403 14.267 o
6 1 0 153.261 157.056 8.770 12.417 o
6 1 1 5.397 3.524 3.723 126.702 o
6 1 2 119.249 128.680 9.283 13.462 o
6 1 3 134.774 110.492 9.134 13.463 o
6 1 4 15.115 13.934 7.091 35.403 o
6 1 5 21.499 24.308 4.395 71.002 o
6 1 6 0.012 -6.570 4.180 112.867 o
6 2 0 111.921 127.104 9.948 12.652 o
6 2 1 13.988 12.530 4.416 80.632 o
6 2 2 51.267 47.794 9.086 19.137 o
6 2 3 28.211 24.319 4.546 63.706 o
6 2 4 0.121 2.416 4.164 111.718 o
6 2 5 4.820 0.557 4.488 92.392 o
6 2 6 12.272 -1.030 11.992 13.439 o
6 3 0 24.469 29.135 6.678 36.173 o
6 3 1 28.452 31.175 4.370 64.853 o
6 3 2 32.876 35.538 5.583 44.472 o
6 3 3 0.505 -2.410 3.556 154.495 o
6 3 4 4.674 5.863 3.451 143.740 o
6 3 5 109.703 83.714 15.744 6.682 o
6 4 0 113.030 127.656 10.796 11.332 o
6 4 1 22.902 19.856 4.476 69.748 o
6 4 2 38.010 13.817 11.955 12.767 o
6 4 3 61.353 88.899 9.102 17.395 o
6 4 4 91.547 83.105 10.555 13.002 o
6 4 5 44.254 34.871 10.815 14.789 o
6 5 0 27.338 28.718 5.901 43.360 o
6 5 1 20.821 13.428 7.344 32.452 o
6 5 2 1.010 -3.038 3.276 179.790 o
6 5 3 0.665 -9.858 4.929 80.659 o
6 5 4 52.314 48.257 5.336 39.935 o
6 6 0 2.262 3.550 2.848 217.517 o
6 6 1 6.649 -0.886 5.567 60.553 o
6 6 2 115.596 106.279 11.413 10.694 o
6 6 3 1.513 3.856 3.086 190.823 o
6 7 0 0.673 -4.719 2.823 242.720 o
6 7 1 2.094 -0.686 6.508 46.028 o
6 7 2 70.748 54.954 7.409 23.803 o
6 8 0 103.682 84.752 11.700 10.832 o
;
_olex2_submission_special_instructions 'No special instructions were received'
loop_
_space_group_symop_id
_space_group_symop_operation_xyz
1 x,y,z
2 -x,y+1/2,-z+1/2
3 -x,-y,-z
4 x,-y-1/2,z-1/2
loop_
_atom_site_label
_atom_site_type_symbol
_atom_site_fract_x
_atom_site_fract_y
_atom_site_fract_z
_atom_site_U_iso_or_equiv
_atom_site_adp_type
_atom_site_occupancy
_atom_site_refinement_flags_posn
O7 O 1.0264(2) 0.47916(10) 0.38254(11) 0.0266(3) Uani 1.000000 .
O4 O 0.6415(3) 0.17095(10) 0.55748(12) 0.0334(4) Uani 1.000000 .
O1 O 0.2026(3) 0.43817(11) 0.13693(12) 0.0363(4) Uani 1.000000 .
O6 O 0.7142(3) 0.34242(11) 0.69136(12) 0.0366(4) Uani 1.000000 .
O5 O 0.4295(3) 0.38867(12) 0.57097(13) 0.0419(4) Uani 1.000000 .
N3 N 0.7202(3) 0.36277(11) 0.40823(12) 0.0234(4) Uani 1.000000 .
O2 O 0.1331(3) 0.29497(12) 0.20474(13) 0.0437(4) Uani 1.000000 .
N1 N 0.5024(3) 0.32815(11) 0.35721(13) 0.0243(4) Uani 1.000000 .
N5 N 0.6311(3) 0.35494(12) 0.59895(14) 0.0266(4) Uani 1.000000 .
N4 N 0.7854(3) 0.21372(12) 0.50357(13) 0.0263(4) Uani 1.000000 .
N2 N 0.2513(3) 0.37038(13) 0.19937(13) 0.0284(4) Uani 1.000000 .
O3 O 0.9211(3) 0.17784(11) 0.44120(13) 0.0477(5) Uani 1.000000 .
N6 N 0.6647(3) 0.52420(13) 0.18921(14) 0.0282(4) Uani 1.000000 .
C4 C 0.8318(3) 0.44103(13) 0.35432(15) 0.0214(4) Uani 1.000000 .
C2 C 0.4677(3) 0.38333(13) 0.27305(15) 0.0220(4) Uani 1.000000 .
C1 C 0.7976(3) 0.32520(13) 0.50981(15) 0.0228(4) Uani 1.000000 .
H1 H 0.9709(3) 0.34631(13) 0.52988(15) 0.0274(5) Uiso 1.000000 R
N7 N 0.6735(3) 0.58325(15) 0.12843(16) 0.0432(5) Uani 1.000000 .
C3 C 0.6538(3) 0.45431(13) 0.26381(15) 0.0226(4) Uani 1.000000 .
loop_
_atom_site_aniso_label
_atom_site_aniso_U_11
_atom_site_aniso_U_22
_atom_site_aniso_U_33
_atom_site_aniso_U_12
_atom_site_aniso_U_13
_atom_site_aniso_U_23
O7 0.0218(7) 0.0318(7) 0.0261(8) -0.0053(6) 0.0010(6) -0.0024(6)
O4 0.0371(8) 0.0312(8) 0.0319(8) -0.0058(6) 0.0018(7) 0.0046(6)
O1 0.0332(8) 0.0456(9) 0.0291(8) 0.0045(7) -0.0061(7) 0.0072(7)
O6 0.0480(9) 0.0410(9) 0.0209(8) 0.0048(7) 0.0034(7) 0.0004(7)
O5 0.0309(8) 0.0529(10) 0.0417(10) 0.0146(7) -0.0002(7) -0.0129(8)
N3 0.0206(8) 0.0279(9) 0.0208(9) -0.0040(6) -0.0045(7) 0.0032(7)
O2 0.0363(9) 0.0485(10) 0.0445(10) -0.0172(7) -0.0097(7) 0.0044(8)
N1 0.0203(8) 0.0270(9) 0.0253(9) -0.0023(6) -0.0007(7) -0.0006(7)
N5 0.0295(9) 0.0246(9) 0.0260(10) 0.0001(7) 0.0034(8) -0.0040(7)
N4 0.0297(9) 0.0277(9) 0.0212(9) 0.0054(7) -0.0011(8) 0.0012(7)
N2 0.0235(8) 0.0389(10) 0.0224(9) -0.0005(7) -0.0011(7) -0.0006(8)
O3 0.0616(11) 0.0401(9) 0.0440(10) 0.0181(8) 0.0218(9) -0.0024(8)
N6 0.0257(9) 0.0333(10) 0.0257(9) -0.0005(7) 0.0019(7) 0.0024(8)
C4 0.0221(9) 0.0226(10) 0.0199(10) 0.0018(7) 0.0039(8) -0.0028(8)
C2 0.0210(9) 0.0245(10) 0.0205(10) 0.0012(7) 0.0008(8) -0.0028(8)
C1 0.0221(9) 0.0258(10) 0.0206(10) 0.0021(8) 0.0017(8) 0.0008(8)
N7 0.0386(11) 0.0487(12) 0.0418(12) -0.0053(9) 0.0003(9) 0.0177(10)
C3 0.0239(10) 0.0243(10) 0.0197(10) -0.0005(7) 0.0025(8) 0.0019(8)
loop_
_atom_type_symbol
_atom_type_scat_dispersion_real
_atom_type_scat_dispersion_imag
_atom_type_scat_Cromer_Mann_a1
_atom_type_scat_Cromer_Mann_a2
_atom_type_scat_Cromer_Mann_a3
_atom_type_scat_Cromer_Mann_a4
_atom_type_scat_Cromer_Mann_b1
_atom_type_scat_Cromer_Mann_b2
_atom_type_scat_Cromer_Mann_b3
_atom_type_scat_Cromer_Mann_b4
_atom_type_scat_Cromer_Mann_c
_atom_type_scat_source
_atom_type_scat_dispersion_source
C 0.00347 0.00161 2.31000 1.02000 1.58860 0.86500 20.84390 10.20750 0.56870
51.65120 0.21560 'International Tables Volume C Table 6.1.1.4 (pp. 500-502)'
'Henke, Gullikson and Davis, At. Data and Nucl. Data Tables, 1993, 54, 2'
H 0.00000 0.00000 0.49300 0.32291 0.14019 0.04081 10.51090 26.12570 3.14236
57.79970 0.00304 'International Tables Volume C Table 6.1.1.4 (pp. 500-502)'
'Henke, Gullikson and Davis, At. Data and Nucl. Data Tables, 1993, 54, 2'
N 0.00653 0.00323 12.21260 3.13220 2.01250 1.16630 0.00570 9.89330 28.99750
0.58260 -11.52900 'International Tables Volume C Table 6.1.1.4 (pp. 500-502)'
'Henke, Gullikson and Davis, At. Data and Nucl. Data Tables, 1993, 54, 2'
O 0.01158 0.00611 3.04850 2.28680 1.54630 0.86700 13.27710 5.70110 0.32390
32.90890 0.25080 'International Tables Volume C Table 6.1.1.4 (pp. 500-502)'
'Henke, Gullikson and Davis, At. Data and Nucl. Data Tables, 1993, 54, 2'
loop_
_diffrn_refln_index_h
_diffrn_refln_index_k
_diffrn_refln_index_l
_diffrn_refln_intensity_net
_diffrn_refln_intensity_u
-1 0 0 2628.24 59.29
1 0 0 2758.32 57.09
1 0 0 2754.92 59.69
-2 0 0 4490.45 101.59
2 0 0 4303.17 95.49
2 0 0 4534.25 101.99
-3 0 0 293.87 23
3 0 0 299.27 18.7
3 0 0 301.77 21.7
-4 0 0 68.79 14.5
4 0 0 106.09 13.1
4 0 0 96.59 16.8
-5 0 0 10.5 6.3
5 0 0 14.7 5.9
5 0 0 -1.1 4.9
6 0 0 322.07 57.49
6 0 0 290.97 24.7
6 -1 0 205.08 26.3
6 -1 0 209.38 21.8
5 -1 0 25.7 8.3
5 -1 0 34.5 10.1
-5 1 0 57.49 12.2
4 -1 0 344.97 23.3
4 -1 0 357.96 26.5
-4 1 0 328.27 25.2
3 -1 0 382.66 23.7
3 -1 0 386.56 21.9
-3 1 0 341.37 22.4
2 -1 0 342.77 18.3
-2 1 0 334.27 18
1 -1 0 5276.37 102.89
-1 1 0 5189.28 102.39
-1 -1 0 5366.76 106.49
-1 -1 0 5061.79 100.99
1 1 0 5035.9 100.69
-2 -1 0 340.47 17.2
-2 -1 0 351.46 20.4
2 1 0 373.96 20.8
2 1 0 360.06 17.4
-3 -1 0 353.16 24.4
3 1 0 362.66 24.5
3 1 0 385.26 21.4
-4 -1 0 359.96 28.2
4 1 0 370.96 23.5
4 1 0 325.27 27
-5 -1 0 47.8 12.9
5 1 0 45.7 10.7
5 1 0 20.1 9.9
6 1 0 246.38 28.9
6 1 0 201.78 20.9
6 -2 0 174.48 22.4
-6 2 0 136.29 22.8
5 -2 0 49.9 11.2
5 -2 0 66.19 13.9
-5 2 0 82.59 15.5
4 -2 0 -5.1 3.2
4 -2 0 3.2 4.3
-4 2 0 -2.5 3.3
3 -2 0 1465.75 50.29
-3 2 0 1434.26 49.1
2 -2 0 71.99 7.8
-2 2 0 82.29 8.4
1 -2 0 3.6 1.9
0 -2 0 44.7 4.5
0 -2 0 42.2 4
0 2 0 45.5 4.6
0 2 0 47.2 4.1
-1 -2 0 5.6 3.2
-1 -2 0 5.6 2.5
1 2 0 7.1 2.8
1 2 0 5 3.3
-2 -2 0 66.59 11
-2 -2 0 62.09 7.3
2 2 0 72.79 9.4
2 2 0 57.69 7.4
-3 -2 0 1534.95 49.5
-3 -2 0 1431.06 55.89
3 2 0 1495.95 55.59
3 2 0 1459.25 47.8
-4 -2 0 2.8 4.6
-5 -2 0 76.19 18.4
5 2 0 52.49 12
5 2 0 55.69 16
6 2 0 201.08 19.8
6 2 0 145.59 26.7
6 -3 0 66.39 15.4
6 -3 0 27.9 10.6
-6 3 0 19.2 11.9
5 -3 0 532.35 35.3
5 -3 0 581.24 36.6
-5 3 0 580.64 35.1
4 -3 0 224.48 19.7
-4 3 0 180.78 17.7
3 -3 0 30.3 7.6
-3 3 0 21 6.3
2 -3 0 417.96 19.6
1 -3 0 1750.42 47.7
0 -3 0 1.1 2.3
0 -3 0 1.2 2.3
0 3 0 -1.3 1.8
0 3 0 1.4 1.9
-1 -3 0 1795.02 50.69
-1 -3 0 1783.92 47
1 3 0 1801.02 46.7
1 3 0 1822.02 50.69
-2 -3 0 406.36 20.7
-2 -3 0 433.56 25.4
2 3 0 410.26 20.5
2 3 0 425.76 24.5
-3 -3 0 16.8 7.4
-3 -3 0 24.1 6.9
3 3 0 18.1 5.6
3 3 0 19.8 7.5
-4 -3 0 212.28 22.3
4 3 0 192.28 21.5
4 3 0 181.98 16.6
-5 -3 0 583.14 42.8
5 3 0 584.24 33.2
5 3 0 561.64 41.7
6 3 0 43.6 13.5
6 -4 0 186.38 21.6
6 -4 0 137.19 22.3
6 -4 0 183.78 21.1
5 -4 0 146.49 17.4
5 -4 0 157.58 18.6
3 -4 0 -0.3 2.9
2 -4 0 341.57 17.4
2 -4 0 337.17 20.8
1 -4 0 7849.21 163.28
-1 4 0 7933.21 164.08
0 -4 0 8938.41 178.68
0 -4 0 8882.41 174.88
0 4 0 9062.09 178.78
0 4 0 8859.91 173.88
-1 -4 0 7863.51 161.98
-1 -4 0 7905.01 166.78
1 4 0 8314.17 162.58
1 4 0 7750.92 164.58
-2 -4 0 337.17 23.4
-2 -4 0 335.57 19.7
2 4 0 302.37 21.7
2 4 0 372.46 20.5
-3 -4 0 3.6 2.9
-3 -4 0 13.7 6.8
3 4 0 2.4 3.8
3 4 0 4.1 4.5
-4 -4 0 94.19 17.5
-4 -4 0 118.79 14.7
4 4 0 120.19 20.8
4 4 0 109.19 13.8
5 4 0 128.49 15.9
5 4 0 136.49 24.4
6 4 0 202.08 21.7
6 4 0 114.79 24.1
6 -5 0 31.5 12.8
6 -5 0 22.4 13
6 -5 0 54.39 14.2
5 -5 0 59.59 14.9
5 -5 0 25.6 7.6
4 -5 0 707.63 39.2
4 -5 0 638.24 52.19
3 -5 0 23 7.5
3 -5 0 15.9 5.2
2 -5 0 337.47 22.1
2 -5 0 297.87 16.9
1 -5 0 5898.41 121.89
1 -5 0 5854.91 132.69
-1 5 0 6101.49 134.79
0 -5 0 1.4 2.5
0 -5 0 2.4 2.8
0 5 0 2.1 2.2
0 5 0 0.4 1.6
-1 -5 0 5676.73 131.99
-1 -5 0 5944.1 128.89
1 5 0 5880.31 130.19
1 5 0 5733.23 127.79
-2 -5 0 310.17 20.4
-2 -5 0 301.97 23.3
2 5 0 264.87 23.6
2 5 0 320.97 23.5
-3 -5 0 12.8 6.5
-3 -5 0 14.6 6.7
3 5 0 25.4 7.1
3 5 0 9.1 6.4
-4 -5 0 719.03 37.9
-4 -5 0 686.53 44.7
4 5 0 703.43 43.6
4 5 0 691.63 36.2
5 5 0 4.2 7.9
5 5 0 20.7 7.7
6 5 0 17.5 12.1
6 5 0 58.19 12.8
6 -6 0 5 7.2
6 -6 0 16.8 9.7
5 -6 0 48 14.5
5 -6 0 94.79 16.2
4 -6 0 24.8 9.5
4 -6 0 31.2 12.9
3 -6 0 907.91 36.8
3 -6 0 949.9 44.3
2 -6 0 107.59 13.1
1 -6 0 7.9 4.7
1 -6 0 0.2 2.6
-1 6 0 -1.9 3.4
0 -6 0 7221.58 153.78
0 -6 0 7080.99 157.78
0 6 0 7396.36 159.88
0 6 0 7302.57 151.88
-1 -6 0 12.6 5.4
-1 -6 0 5.4 4.4
1 6 0 6.7 4
1 6 0 1.3 3.5
-2 -6 0 96.09 16
2 6 0 106.09 13.6
2 6 0 103.09 11.9
-3 -6 0 912.21 49.3
-3 -6 0 929.91 42.2
3 6 0 915.71 47.1
3 6 0 894.01 40.6
-4 -6 0 34.6 9.7
-4 -6 0 10.5 9.1
4 6 0 18.7 8
4 6 0 18.8 7.7
-5 -6 0 108.99 18.4
5 6 0 82.79 15.9
5 6 0 102.89 21
6 6 0 -1.5 8.3
6 6 0 1.5 6.7
6 -7 0 2.1 8.2
6 -7 0 -10.9 5.7
5 -7 0 1.1 6.4
5 -7 0 -9.3 6.1
4 -7 0 122.19 20.1
3 -7 0 141.49 17.9
3 -7 0 109.29 12.4
2 -7 0 624.14 34.7
1 -7 0 2554.14 76.39
1 -7 0 2560.54 66.89
-1 7 0 2372.76 76.09
0 -7 0 3.2 3.2
0 -7 0 -2.6 2.2
0 7 0 -1.8 1.6
0 7 0 0.3 3.5
-1 -7 0 2544.85 75.59
-1 -7 0 2564.94 78.89
1 7 0 2674.83 76.69
1 7 0 2541.75 75.99
-2 -7 0 703.03 35.4
-2 -7 0 685.73 38.9
2 7 0 672.73 34.5
2 7 0 690.83 37.5
-3 -7 0 119.99 14.8
3 7 0 155.68 19.2
3 7 0 125.69 15.1
-4 -7 0 133.59 21.1
4 7 0 131.59 16.3
4 7 0 118.79 22.2
5 7 0 -13.2 5.9
5 7 0 0.7 6.7
6 7 0 -8.1 6.7
6 -8 0 126.99 24.2
5 -8 0 12.6 7.3
5 -8 0 5.8 7.4
4 -8 0 262.77 25.7
4 -8 0 214.58 20
3 -8 0 515.25 27.6
3 -8 0 483.95 33.8
2 -8 0 144.69 13.5
2 -8 0 176.88 18.7
1 -8 0 681.53 36.8
1 -8 0 684.33 31.3
-1 8 0 728.83 39.1
0 -8 0 849.02 38.5
0 -8 0 946.61 42.6
0 8 0 979.3 44.2
0 8 0 749.73 43.6
-1 -8 0 682.33 37.3
-1 -8 0 720.63 36.5
1 8 0 664.93 35
1 8 0 641.44 34.9
-2 -8 0 164.88 19.4
-2 -8 0 150.28 16.7
2 8 0 177.98 19
2 8 0 135.89 15.8
-3 -8 0 512.75 33.4
-3 -8 0 476.85 37.6
3 8 0 543.95 38
3 8 0 498.55 32.4
-4 -8 0 274.27 25.8
4 8 0 220.98 26.4
-5 -8 0 0.5 5.5
5 8 0 11.1 6.7
5 8 0 -19.1 7.2
-6 -8 0 104.29 21.1
5 -9 0 185.88 19.4
5 -9 0 129.89 23.1
4 -9 0 33.9 9.9
4 -9 0 26.7 8.8
3 -9 0 19.3 9.2
2 -9 0 144.49 13.7
2 -9 0 144.09 17.9
1 -9 0 88.09 16.2
1 -9 0 111.09 12.2
-1 9 0 90.99 16.7
0 -9 0 6.9 5.1
0 -9 0 10.8 5.3
0 9 0 6 4.2
-1 -9 0 110.19 14.3
-1 -9 0 87.09 15.5
1 9 0 124.59 15
1 9 0 113.19 17.9
-2 -9 0 163.48 21.8
-2 -9 0 157.48 17.9
2 9 0 150.48 17
2 9 0 132.49 17.5
-3 -9 0 0.7 4.5
-3 -9 0 3.5 6.7
3 9 0 5.1 5.7
3 9 0 8.9 6.6
-4 -9 0 41.5 11.1
4 9 0 15.2 8.5
4 9 0 37.2 10.8
-5 -9 0 169.68 37.2
5 9 0 195.08 25.6
5 -10 0 9.1 8.2
5 -10 0 3.5 7.4
4 -10 0 6.2 7.1
4 -10 0 16.2 6.5
3 -10 0 140.29 15.5
3 -10 0 144.29 14.9
3 -10 0 162.48 20.3
2 -10 0 761.82 35.5
2 -10 0 759.12 44.2
1 -10 0 118.69 19.8
1 -10 0 89.49 14.7
-1 10 0 107.29 19.3
0 -10 0 361.96 26.8
0 -10 0 384.76 29.4
0 10 0 344.57 28.5
-1 -10 0 77.89 15.6
-1 -10 0 80.39 15.4
1 10 0 97.29 17
1 10 0 110.19 18.2
-2 -10 0 730.43 46.5
-2 -10 0 817.62 44.8
2 10 0 732.13 43.4
2 10 0 736.03 42.8
-3 -10 0 163.98 19.5
3 10 0 152.78 20.4
3 10 0 113.99 19.7
-4 -10 0 -12.1 6.4
4 10 0 10 8.6
-5 -10 0 -0.1 7
5 10 0 -8.7 5.7
5 -11 0 6.7 7.2
5 -11 0 -13.1 7.6
5 -11 0 8.6 8.8
4 -11 0 23.7 7.9
4 -11 0 10.8 9.9
4 -11 0 18.1 7
3 -11 0 346.07 23.9
3 -11 0 324.27 39.7
3 -11 0 380.16 25.4
2 -11 0 129.19 15.2
2 -11 0 111.79 20.8
1 -11 0 936.31 43.6
1 -11 0 937.41 50.99
-1 11 0 973.6 53.49
0 -11 0 10.7 6.5
0 -11 0 6.7 4.4
0 11 0 -0.5 5.2
-1 -11 0 964.9 51.49
-1 -11 0 989.9 52.39
1 11 0 990.7 48.3
1 11 0 945.31 51.09
-2 -11 0 105.69 18.5
2 11 0 123.99 21.1
2 11 0 155.48 23.5
-3 -11 0 345.07 30
3 11 0 343.37 31.9
-4 -11 0 17.8 10.2
4 11 0 27.4 11.4
-5 -11 0 2.8 11.4
5 11 0 17.9 8.9
4 -12 0 -13.7 5.6
4 -12 0 -20.5 8
4 -12 0 2.8 6.6
3 -12 0 16 9.5
3 -12 0 29.7 8.7
2 -12 0 77.39 17.1
2 -12 0 65.69 12.2
1 -12 0 24.2 10
1 -12 0 4.9 5.9
0 -12 0 31.5 12.7
-1 -12 0 -3.1 3.6
-1 -12 0 10 8.7
1 12 0 -6 4.4
2 12 0 84.79 17.5
-3 -12 0 23.9 11
3 12 0 37.9 12.1
-4 -12 0 -7.7 8.3
4 12 0 3.8 6.8
4 -13 0 35.7 10.4
4 -13 0 17.9 11.5
4 -13 0 18.1 9.6
3 -13 0 3.5 6.3
3 -13 0 13.4 7.1
2 -13 0 105.79 17.1
2 -13 0 149.79 25
1 -13 0 -7.1 7.3
0 -13 0 -4 6.7
0 -13 0 8.1 6.9
-1 -13 0 4.6 6.6
1 13 0 3.8 5.5
-2 -13 0 122.89 22.4
2 13 0 111.89 21
-3 -13 0 -11.8 6.7
3 13 0 1.1 6.3
-4 -13 0 49.99 18.7
4 13 0 18.7 22.7
3 -14 0 8.1 8.3
3 -14 0 10.1 9.1
2 -14 0 479.45 34.2
2 -14 0 477.55 41.2
1 -14 0 57.99 16.7
1 -14 0 79.49 17.3
0 -14 0 13.2 9.7
-1 -14 0 84.09 20.5
-2 -14 0 445.96 38.6
-3 -14 0 5.6 7.3
3 14 0 -1.9 8.5
3 -15 0 40.5 17.1
3 -15 0 44.2 13.8
2 -15 0 35.7 12.6
2 -15 0 31.7 12.2
1 -15 0 -9.2 7.3
0 -15 0 -2.3 8.2
-1 -15 0 3.1 5.8
-2 -15 0 16.3 11.3
2 15 0 8.2 8.6
-3 -15 0 32.4 13.9
3 15 0 23.9 13.3
2 -16 0 16.6 11
1 -16 0 9.7 9.3
0 -16 0 19.2 11.2
-1 -16 0 27.7 13.3
-2 -16 0 9.5 9.6
2 16 0 24.4 11.7
0 -17 0 -5.9 8.8
2 16 -1 66.59 18.7
-2 -16 1 69.49 18.8
-1 -16 1 76.39 18
0 -16 1 66.29 18.1
1 -16 1 473.95 41.8
2 -16 1 118.39 22.4
2 -16 1 169.78 30.4
-3 -15 1 57.39 16.1
2 15 -1 18.2 9.2
-2 -15 1 7.4 11.1
-1 -15 1 59.09 17.2
0 -15 1 -9.5 7.6
1 -15 1 10.3 10.8
1 -15 1 1.8 7.6
2 -15 1 7.8 10
2 -15 1 56.79 16.5
3 -15 1 168.98 49.3
3 -15 1 111.19 18.6
3 14 -1 9.7 6.6
-3 -14 1 7.3 6.5
2 14 -1 514.25 39.8
-2 -14 1 500.45 41.5
1 14 -1 71.99 16.3
-1 -14 1 66.19 17.7
0 -14 1 517.15 41.4
0 -14 1 572.54 44.4
1 -14 1 -12.9 7.5
1 -14 1 2.9 6.9
2 -14 1 137.19 25.4
2 -14 1 88.19 16.9
3 -14 1 -9 7.6
3 -14 1 -0.7 6.4
4 13 -1 7.1 9.5
-4 -13 1 2 8.4
3 13 -1 16.3 9.7
-3 -13 1 23.1 9.7
2 13 -1 92.79 19.1
-2 -13 1 118.19 21.3
1 13 -1 18.8 6.3
-1 -13 1 7.1 8.4
0 -13 1 -10.9 7.1
0 -13 1 -5.5 5.7
1 -13 1 66.19 16.3
1 -13 1 92.79 15.7
2 -13 1 70.39 17.8
2 -13 1 106.99 15.9
3 -13 1 9.7 7.4
3 -13 1 6.9 7.5
4 -13 1 6.4 8.1
4 -13 1 22.1 11.7
4 -13 1 8.1 7.2
4 12 -1 68.89 18.7
-4 -12 1 29.1 12
3 12 -1 131.89 24.4
-3 -12 1 155.28 25
2 12 -1 131.29 24.1
-2 -12 1 168.18 26.9
1 12 -1 203.38 21.4
-1 -12 1 223.08 25.5
-1 -12 1 209.68 24.3
0 -12 1 13.5 8.3
0 -12 1 16.6 8.3
1 -12 1 344.47 58.89
1 -12 1 325.37 25.2
2 -12 1 406.06 35.6
2 -12 1 422.26 27.7
3 -12 1 27.6 8.4
3 -12 1 22.4 9.9
3 -12 1 9.8 5.7
4 -12 1 4.1 5.6
4 -12 1 5.4 6.1
5 11 -1 139.69 26.6
-5 -11 1 129.09 23.2
4 11 -1 61.59 15.2
-4 -11 1 102.59 18
3 11 -1 538.95 46.8
3 11 -1 629.34 43.9
-3 -11 1 616.14 40
2 11 -1 41.2 11.8
2 11 -1 31.4 11.7
-2 -11 1 23.6 8.7
-2 -11 1 1.6 8.4
1 11 -1 47.8 12.9
1 11 -1 44.7 10.8
-1 -11 1 20 8.7
0 11 -1 155.98 24.4
0 -11 1 153.38 19.6
0 -11 1 144.19 19
1 -11 1 6 5.8
1 -11 1 15 5.6
2 -11 1 24.5 10
2 -11 1 20.9 7.1
3 -11 1 291.67 20
3 -11 1 287.57 29.5
3 -11 1 270.77 20.7
4 -11 1 324.97 21.6
4 -11 1 411.86 38.2
4 -11 1 393.86 24.7
5 -11 1 -12.9 7.6
5 -11 1 9 6
5 10 -1 -16.1 6.8
-5 -10 1 6.6 9.2
4 10 -1 44.1 14.5
4 10 -1 46.6 13.5
-4 -10 1 55.69 13.5
3 10 -1 -8.2 5.5
3 10 -1 2.3 6
-3 -10 1 4 4
2 10 -1 73.99 15.8
2 10 -1 105.29 21
-2 -10 1 113.99 19.8
-2 -10 1 92.29 17.3
1 10 -1 286.27 25.1
1 10 -1 306.47 24.8
-1 -10 1 350.96 28.1
-1 -10 1 247.58 23.9
0 10 -1 147.39 18.5
0 10 -1 124.69 14.6
0 -10 1 125.69 19.8
0 -10 1 126.39 15.8
1 -10 1 67.09 12.8
1 -10 1 92.59 17.7
2 -10 1 212.88 16.8
2 -10 1 239.28 25
3 -10 1 225.48 25.2
3 -10 1 209.58 19.2
3 -10 1 194.38 16.2
4 -10 1 760.12 34.5
4 -10 1 766.02 50.09
4 -10 1 780.32 47
5 -10 1 73.29 11.9
5 -10 1 58.99 17.6
5 -10 1 50.49 10.1
5 9 -1 17.4 11.1
5 9 -1 13.6 10.2
-5 -9 1 4.1 8.1
4 9 -1 29.9 10.2
4 9 -1 47.6 13.9
-4 -9 1 42.4 12.6
3 9 -1 111.39 20.4
3 9 -1 112.79 18.2
-3 -9 1 98.79 21.1
-3 -9 1 117.79 18.6
2 9 -1 276.37 24.3
2 9 -1 236.88 21.8
-2 -9 1 268.07 23.6
-2 -9 1 276.17 26.8
1 9 -1 27.4 9
1 9 -1 19.9 7.7
-1 -9 1 21.9 7.5
-1 -9 1 27.3 9.2
0 9 -1 -3.5 3.2
0 9 -1 -0.2 3.9
0 -9 1 1.1 4.5
0 -9 1 4.1 4.6
1 -9 1 1.5 3.7
1 -9 1 -4 3.1
2 -9 1 369.86 20.8
2 -9 1 328.77 28.3
3 -9 1 509.65 37.8
3 -9 1 507.25 24.3
3 -9 1 540.35 26.7
4 -9 1 179.78 15.9
4 -9 1 154.88 25.2
5 -9 1 50.09 14.4
5 -9 1 42.2 9.3
6 8 -1 1.7 10.8
5 8 -1 13.7 7.4
5 8 -1 1.4 6.6
-5 -8 1 9 6.7
4 8 -1 579.24 43.4
4 8 -1 643.34 37.5
-4 -8 1 562.64 36
3 8 -1 412.76 33
3 8 -1 435.16 29.4
-3 -8 1 400.56 34.8
-3 -8 1 440.76 29.6
2 8 -1 547.95 34.1
2 8 -1 501.45 30.5
-2 -8 1 481.65 34.6
-2 -8 1 521.45 31.1
1 8 -1 607.44 32.7
1 8 -1 613.94 33.8
-1 -8 1 609.74 34.7
-1 -8 1 596.24 33.3
0 8 -1 -2.3 3.3
0 8 -1 4.8 4
0 -8 1 3.2 2.6
0 -8 1 5.3 5.1
1 -8 1 302.07 24.6
1 -8 1 327.17 19.7
2 -8 1 37.3 7.4
2 -8 1 57.89 13.2
3 -8 1 101.09 10.9
3 -8 1 118.19 20
4 -8 1 21.5 6.4
4 -8 1 24.2 10.4
5 -8 1 45.2 15.4
6 7 -1 -2.1 9.2
6 7 -1 21.9 9.1
5 7 -1 -0.9 6.8
5 7 -1 -15.2 5.9
-5 -7 1 14.6 8.7
4 7 -1 4.8 6.8
4 7 -1 17 7.7
-4 -7 1 11.6 7.7
3 7 -1 106.29 16.2
3 7 -1 134.49 17.9
-3 -7 1 110.29 16.7
2 7 -1 15.4 6.4
2 7 -1 11.1 6
-2 -7 1 20.3 8.1
-2 -7 1 27.3 8.2
1 7 -1 155.98 15.4
1 7 -1 136.59 14.3
-1 -7 1 137.99 15
-1 -7 1 142.19 14.7
0 7 -1 4415.76 102.59
0 7 -1 4362.86 111.69
0 -7 1 4243.88 104.99
0 -7 1 4398.46 110.99
1 -7 1 180.88 13.2
1 -7 1 177.08 17.4
2 -7 1 1236.98 37.4
2 -7 1 1300.77 53.89
3 -7 1 18.7 6.8
3 -7 1 11.7 4.9
4 -7 1 277.77 26.5
4 -7 1 283.37 20
5 -7 1 118.99 22.1
5 -7 1 120.09 24.8
6 -7 1 -15.2 6
6 -7 1 12.1 10.2
6 6 -1 183.58 20
6 6 -1 134.69 26.5
5 6 -1 347.47 34.4
5 6 -1 374.76 27.4
-5 -6 1 450.25 31.5
4 6 -1 7 5.3
4 6 -1 -3.8 5
-4 -6 1 -5.3 4.2
-4 -6 1 0.9 7.3
3 6 -1 317.77 21.8
3 6 -1 310.57 27.5
-3 -6 1 315.07 22.6
-3 -6 1 363.36 30.2
2 6 -1 8.2 5.6
2 6 -1 10.4 4.6
-2 -6 1 3.4 4.1
-2 -6 1 2.6 4
1 6 -1 1361.66 47.6
1 6 -1 1278.97 45.8
-1 -6 1 1338.37 46.4
-1 -6 1 1284.17 48.5
0 6 -1 1346.87 42
0 6 -1 1313.77 47.5
0 -6 1 1316.97 43.5
0 -6 1 1332.47 47.1
1 -6 1 62.79 11.9
1 -6 1 57.19 6.9
2 -6 1 29.6 8.6
3 -6 1 14.1 7.4
3 -6 1 33 6.6
4 -6 1 1568.24 66.39
4 -6 1 1592.14 53.29
5 -6 1 6.7 8.4
5 -6 1 16.7 6.5
6 -6 1 -17.3 9.2
6 -6 1 10.1 9.4
6 5 -1 89.69 20.8
6 5 -1 83.69 14.7
5 5 -1 3.7 6.9
5 5 -1 13.3 6.1
4 5 -1 66.29 12
4 5 -1 77.59 17.5
-4 -5 1 122.09 21.8
-4 -5 1 85.59 13.6
3 5 -1 150.08 14.1
3 5 -1 115.99 19.5
-3 -5 1 154.28 14.4
-3 -5 1 116.09 19.6
2 5 -1 631.14 28.4
2 5 -1 702.03 35.6
-2 -5 1 615.54 34.3
-2 -5 1 639.94 28.8
1 5 -1 31.8 6.9
1 5 -1 31.1 7.6
-1 -5 1 30.6 7.8
-1 -5 1 42.7 8
0 5 -1 1435.16 46.9
0 5 -1 1474.75 42
0 -5 1 1479.45 46.8
0 -5 1 1422.26 42.9
1 -5 1 596.14 29.2
1 -5 1 582.34 20.7
2 -5 1 750.82 38.7
2 -5 1 792.02 26.2
3 -5 1 236.08 15.8
4 -5 1 424.96 25
5 -5 1 9.1 7
6 -5 1 45.8 15.6
6 -5 1 13.4 9.3
6 4 -1 24.9 11.9
6 4 -1 45.7 10.3
5 4 -1 651.43 34.2
4 4 -1 2.6 5.5
4 4 -1 1.2 3.8
3 4 -1 12.3 6.9
3 4 -1 3.5 3.7
-3 -4 1 9.5 4.9
-3 -4 1 30 9
2 4 -1 531.75 23.6
2 4 -1 551.84 30
-2 -4 1 499.25 29.9
-2 -4 1 527.65 23.8
1 4 -1 117.89 10.1
1 4 -1 126.49 12
-1 -4 1 117.09 10
-1 -4 1 107.99 11.3
0 4 -1 279.57 13.9
0 4 -1 278.17 16.5
0 -4 1 279.37 14.6
0 -4 1 275.57 16.1
1 -4 1 4645.24 90.29
1 -4 1 4454.25 105.49
2 -4 1 233.68 12.6
3 -4 1 26.4 6.8
4 -4 1 88.39 14
5 -4 1 25.8 14.8
5 -4 1 30.2 9.2
6 -4 1 21.6 10
6 3 -1 54.49 12
6 3 -1 86.09 19.5
5 3 -1 51.69 15
5 3 -1 43.1 10
4 3 -1 -4.3 3.1
4 3 -1 7.9 5.2
-4 -3 1 0.8 4.9
3 3 -1 147.69 17.1
3 3 -1 152.18 12.7
-3 -3 1 151.98 17.6
-3 -3 1 145.79 12.7
2 3 -1 179.78 12
2 3 -1 180.98 16.3
-2 -3 1 184.58 12.3
-2 -3 1 169.48 30.3
0 3 -1 64.59 7.2
0 3 -1 61.89 5.7
0 -3 1 63.09 7.2
0 -3 1 69.79 6.5
2 -3 1 1123.39 32.5
-3 3 -1 223.28 15.1
3 -3 1 205.78 15
-4 3 -1 395.86 24.7
4 -3 1 362.86 24.3
-5 3 -1 206.58 19.7
5 -3 1 180.88 20.4
5 -3 1 240.48 21.2
-6 3 -1 32.8 12.7
6 -3 1 50.29 14.6
6 -3 1 50.19 12.9
6 2 -1 11.1 7
6 2 -1 22.5 12.3
5 2 -1 30.6 8.6
5 2 -1 40.1 13.4
-5 -2 1 36.5 11.9
4 2 -1 222.28 23.4
4 2 -1 215.38 25.2
-4 -2 1 256.27 24.3
3 2 -1 21.6 8.4
3 2 -1 24.3 5.8
-3 -2 1 19.1 5.3
-3 -2 1 19.3 7.6
2 2 -1 2.1 3.4
2 2 -1 -0.3 1.3
-2 -2 1 5 3.6
-2 -2 1 -1.9 1.7
1 2 -1 2864.61 59.99
1 2 -1 2879.01 68.79
-1 -2 1 2755.42 68.19
-1 -2 1 2832.02 60.09
0 2 -1 4262.87 86.59
0 2 -1 4267.37 82.59
0 -2 1 4056.89 85.89
0 -2 1 4239.48 82.99
1 -2 1 3619.84 69.19
-2 2 -1 21.7 4.7
2 -2 1 22.8 5
-3 2 -1 7856.81 167.08
3 -2 1 7989.1 167.68
-4 2 -1 631.44 33
4 -2 1 571.04 38.9
4 -2 1 591.14 34.2
-5 2 -1 85.29 16.1
5 -2 1 88.29 15.2
5 -2 1 65.39 14
-6 2 -1 29.5 11.8
6 -2 1 -1.2 7.8
6 -2 1 10.1 8.8
6 1 -1 -2.9 6
5 1 -1 374.96 24.6
5 1 -1 380.16 33
-5 -1 1 312.67 30.3
4 1 -1 609.24 28.4
4 1 -1 532.75 35.9
-4 -1 1 642.04 38.6
3 1 -1 19.7 5
3 1 -1 22 8.4
-3 -1 1 16.7 7.1
2 1 -1 140.29 13.4
2 1 -1 147.69 9.1
-2 -1 1 159.28 14
-2 -1 1 147.39 9.4
1 1 -1 -1.2 1.8
1 1 -1 1.9 1.4
-1 -1 1 1.2 1.2
-1 -1 1 -1.2 1.9
0 1 -1 1247.68 27.1
0 -1 1 1229.78 27.1
-1 1 -1 273.97 9.8
1 -1 1 267.77 9.6
-2 1 -1 8146.19 162.98
2 -1 1 8185.18 162.58
-3 1 -1 111.19 12.2
3 -1 1 118.59 12.6
3 -1 1 108.09 13.2
-4 1 -1 -0.7 4.4
4 -1 1 3.1 5.1
4 -1 1 4.1 3.5
-5 1 -1 845.62 45.7
5 -1 1 862.61 44.4
5 -1 1 844.82 44.6
-6 1 -1 19.1 10.5
6 -1 1 -7.5 6.9
6 -1 1 14.7 7.9
6 0 -1 13.6 9.3
6 0 -1 -7.8 5.7
5 0 -1 4.3 4.9
5 0 -1 -0.9 6.1
-5 0 1 10.2 7.2
4 0 -1 5.8 5.2
4 0 -1 -7.3 3.1
-4 0 1 2.2 3.7
3 0 -1 -1.4 2.8
3 0 -1 4.2 2.4
-3 0 1 -4 3.3
2 0 -1 2.3 1.6
2 0 -1 3.3 3.1
-2 0 1 1.4 2.3
1 0 -1 0.3 0.8
1 0 -1 0 1.8
-1 0 1 -0.8 1.8
-1 0 -1 -2.6 1.2
1 0 1 1.4 1.6
1 0 1 2.4 2.5
-2 0 -1 -1.9 1.3
2 0 1 -1.8 2
2 0 1 -1.8 1.4
-3 0 -1 0.5 2.8
3 0 1 4.3 3.5
-4 0 -1 5.9 4.8
4 0 1 2.6 3.8
4 0 1 -5.7 3.6
-5 0 -1 6.2 5.7
5 0 1 2 5.1
5 0 1 3.4 5.9
6 0 1 -13.4 7.9
6 0 1 9 7.9
6 -1 -1 -6.7 5.8
5 -1 -1 366.96 31.6
5 -1 -1 374.16 25
-5 1 1 378.46 37.6
4 -1 -1 632.64 37.6
4 -1 -1 648.24 30.7
-4 1 1 651.03 36.9
3 -1 -1 17.6 4.9
3 -1 -1 17.8 6.7
-3 1 1 25.6 7.8
2 -1 -1 150.58 13
-2 1 1 163.88 13.2
1 -1 -1 -0.3 1.1
1 -1 -1 1.5 1.8
-1 1 1 -1.9 1.2
0 -1 -1 1205.08 27.6
0 1 1 1157.48 27.4
-1 -1 -1 268.67 13.2
-1 -1 -1 270.47 13.6
1 1 1 286.17 13.4
1 1 1 287.67 14
-2 -1 -1 8000.7 164.88
-2 -1 -1 8110.49 166.58
2 1 1 8140.49 165.28
2 1 1 7654.53 163.48
-3 -1 -1 102.39 12.9
3 1 1 114.89 13
-4 -1 -1 1.3 5.5
4 1 1 -2.3 4.8
4 1 1 6.7 3.8
-5 -1 -1 806.12 75.69
5 1 1 831.22 47.1
5 1 1 880.91 43.7
6 1 1 -5.7 7.8
6 1 1 8.4 7.1
6 -2 -1 8.8 10.4
6 -2 -1 31.2 10.1
5 -2 -1 39.3 11.5
5 -2 -1 27.8 8.2
-5 2 1 20.6 8.4
4 -2 -1 230.98 22.5
4 -2 -1 240.18 18.1
-4 2 1 226.98 21
3 -2 -1 22.7 6.8
-3 2 1 15.7 6.7
2 -2 -1 1.2 2.1
-2 2 1 5.9 2.8
1 -2 -1 2963.3 64.39
-1 2 1 2990.6 64.79
0 -2 -1 4269.77 87.89
0 2 1 4436.36 88.19
-1 -2 -1 3597.24 79.89
-1 -2 -1 3406.36 78.19
1 2 1 3368.96 77.79
1 2 1 3780.12 79.79
-2 -2 -1 26.8 6.7
-2 -2 -1 17.4 5.1
2 2 1 26 6.1
2 2 1 15.4 5.4
-3 -2 -1 7753.62 177.68
-3 -2 -1 7855.11 172.08
3 2 1 7862.71 170.08
-4 -2 -1 613.94 37.8
4 2 1 635.74 37.5
4 2 1 586.14 32.8
5 2 1 97.69 16.3
5 2 1 113.99 21.2
6 2 1 15.5 10.2
6 2 1 37.9 10.9
6 -3 -1 63.99 13.7
6 -3 -1 51.39 14.4
6 -3 -1 61.59 13.1
5 -3 -1 70.59 15.5
5 -3 -1 29.8 10.3
-5 3 1 51.79 11.4
4 -3 -1 -4.1 3.1
-4 3 1 0.9 3.9
3 -3 -1 174.78 16.2
2 -3 -1 184.08 13.8
2 -3 -1 192.28 13.3
0 -3 -1 69.39 6.8
0 -3 -1 64.89 6.9
0 3 1 64.49 6.6
-1 -3 -1 -3.2 1.9
-1 -3 -1 0.4 1.8
1 3 1 -0.1 2
1 3 1 -0.9 1.4
-2 -3 -1 1044.4 38.7
-2 -3 -1 1036.7 41.4
2 3 1 1141.99 41.7
2 3 1 1056.69 38
-3 -3 -1 199.08 19.8
-3 -3 -1 228.18 18.3
3 3 1 236.78 18.8
3 3 1 234.48 20.2
-4 -3 -1 327.87 28.4
4 3 1 424.16 30.6
4 3 1 382.86 26.5
-5 -3 -1 200.88 25.6
5 3 1 202.68 20.7
5 3 1 250.87 25.5
6 3 1 49.3 15.8
6 3 1 29.5 11.6
6 -4 -1 20.5 10.7
6 -4 -1 25.4 8.7
6 -4 -1 0.8 8.7
5 -4 -1 633.44 36.3
5 -4 -1 641.64 36.3
5 -4 -1 651.63 40.4
4 -4 -1 7.3 4.5
4 -4 -1 2.6 4.4
3 -4 -1 13.2 6
3 -4 -1 9.7 5.3
2 -4 -1 502.15 24.7
2 -4 -1 526.95 24.5
1 -4 -1 99.89 9.7
-1 4 1 118.09 10.7
0 -4 -1 286.67 16.3
0 -4 -1 285.57 15.7
0 4 1 335.67 17.5
-1 -4 -1 4618.34 109.59
-1 -4 -1 4817.12 108.39
1 4 1 4796.12 107.79
1 4 1 5061.29 110.09
-2 -4 -1 257.27 18
-2 -4 -1 240.78 19.2
2 4 1 235.28 17.5
2 4 1 254.37 19
-3 -4 -1 58.49 13.4
-3 -4 -1 43.2 10.1
3 4 1 28.7 8.4
3 4 1 49.99 12
-4 -4 -1 77.19 15.2
-4 -4 -1 80.49 16.9
4 4 1 72.89 13.8
4 4 1 90.59 17
5 4 1 33.1 9.8
5 4 1 19 9.4
6 4 1 37.5 11.1
6 4 1 21.4 10.6
6 -5 -1 96.79 18
6 -5 -1 106.99 19.3
6 -5 -1 110.09 18.2
5 -5 -1 9.8 5.3
5 -5 -1 3.2 6.6
4 -5 -1 81.09 14.2
4 -5 -1 85.99 15.1
3 -5 -1 135.89 14.3
3 -5 -1 146.09 21.7
2 -5 -1 690.63 31.7
1 -5 -1 23 6.5
-1 5 1 30.1 7.6
0 -5 -1 1482.75 45.2
0 -5 -1 1436.96 46.2
0 5 1 1463.85 46.5
-1 -5 -1 631.84 31.8
-1 -5 -1 574.54 28
1 5 1 637.44 29.3
1 5 1 606.74 28.1
-2 -5 -1 808.42 36.3
-2 -5 -1 801.42 38.9
2 5 1 857.11 38.5
2 5 1 794.12 35.3
-3 -5 -1 251.67 23.4
-3 -5 -1 260.77 21.5
3 5 1 233.08 19.8
3 5 1 220.68 21.2
-4 -5 -1 462.25 36
-4 -5 -1 412.76 29.5
4 5 1 422.26 29.3
4 5 1 445.66 33.4
5 5 1 3.9 7.6
5 5 1 -11.2 6.3
6 5 1 8.3 8
6 -6 -1 236.48 23.8
6 -6 -1 227.58 25.2
6 -6 -1 166.18 25.2
5 -6 -1 417.96 31.4
5 -6 -1 358.06 29.4
4 -6 -1 4.1 5.1
4 -6 -1 -5.6 4.3
3 -6 -1 301.17 23.1
3 -6 -1 327.07 22.4
1 -6 -1 1344.17 47.5
-1 6 1 1301.67 47.7
0 -6 -1 1345.57 45.6
0 -6 -1 1378.36 48.2
0 6 1 1399.06 47.9
-1 -6 -1 57.19 10.6
-1 -6 -1 68.59 12.1
1 6 1 62.19 11.4
1 6 1 69.79 11.7
-2 -6 -1 34.9 9.7
-2 -6 -1 31.9 8.7
2 6 1 32.3 9.3
2 6 1 38.6 8.9
-3 -6 -1 34.7 9.6
-3 -6 -1 27.9 10.8
3 6 1 40.5 11.7
3 6 1 21 7.6
-4 -6 -1 1448.85 69.79
-4 -6 -1 1523.65 62.89
4 6 1 1492.65 60.39
4 6 1 1518.75 67.19
-5 -6 -1 -1.6 6.9
5 6 1 1.8 8.8
5 6 1 4.2 7.9
6 6 1 3.5 8.6
6 -7 -1 5.8 9
6 -7 -1 17.4 10.6
5 -7 -1 4 6.9
5 -7 -1 1.8 6
4 -7 -1 16.9 7.2
4 -7 -1 11 6.9
3 -7 -1 84.49 16.6
3 -7 -1 95.99 16
2 -7 -1 2.5 3.4
1 -7 -1 119.19 21.9
1 -7 -1 133.09 14.5
-1 7 1 148.09 15.7
0 -7 -1 4229.48 104.69
0 -7 -1 4297.97 108.59
0 7 1 4182.28 107.59
-1 -7 -1 155.08 16.5
-1 -7 -1 172.08 16.5
1 7 1 176.88 16.8
1 7 1 177.68 16.7
-2 -7 -1 1327.57 52.49
-2 -7 -1 1219.18 54.39
2 7 1 1269.17 50.99
2 7 1 1285.17 53.29
-3 -7 -1 12.4 6.2
3 7 1 10.5 7.6
3 7 1 3.5 5.9
-4 -7 -1 273.77 25.2
4 7 1 256.27 26.6
4 7 1 239.58 27.3
-5 -7 -1 85.49 16.2
5 7 1 93.79 17.4
5 7 1 84.79 20.4
6 7 1 9.3 9.3
6 -8 -1 -21.7 9
6 -8 -1 7.4 9.9
5 -8 -1 -2.2 6.2
5 -8 -1 10.3 7.3
4 -8 -1 543.55 36.9
4 -8 -1 582.44 34.2
3 -8 -1 397.16 26
3 -8 -1 472.25 32
2 -8 -1 526.65 32
1 -8 -1 613.14 34.3
1 -8 -1 616.04 30.4
-1 8 1 661.43 36.1
0 -8 -1 11.1 6.3
0 -8 -1 4.4 4.7
0 8 1 5.2 4.5
-1 -8 -1 355.66 25.8
-1 -8 -1 353.56 26.4
1 8 1 396.76 26.2
1 8 1 379.26 26.3
-2 -8 -1 44.8 10.8
-2 -8 -1 43.8 11.2
2 8 1 30.5 8
2 8 1 31.5 10.3
-3 -8 -1 103.69 19.8
-3 -8 -1 95.99 17.6
3 8 1 110.89 20.4
3 8 1 109.29 18.1
-4 -8 -1 4.3 8.5
4 8 1 2.9 8.9
4 8 1 25.6 7.6
5 8 1 51.29 17.2
5 -9 -1 4.3 7.8
4 -9 -1 53.69 11
3 -9 -1 109.19 14.2
3 -9 -1 96.29 17.5
2 -9 -1 278.57 24.6
2 -9 -1 284.07 20
1 -9 -1 29.1 9
1 -9 -1 18.5 7.2
-1 9 1 33.8 9
0 -9 -1 -1.1 3.6
0 -9 -1 5.5 5
0 9 1 11.6 4.9
-1 -9 -1 3.4 4.5
-1 -9 -1 1.2 5.2
1 9 1 -0.5 3.4
1 9 1 1.8 5.4
-2 -9 -1 385.96 28.9
2 9 1 354.56 28.5
2 9 1 370.36 28.2
-3 -9 -1 577.84 38
3 9 1 578.34 39.7
3 9 1 591.94 37.8
-4 -9 -1 178.08 22
4 9 1 146.09 26
4 9 1 187.48 23.9
-5 -9 -1 62.29 14.8
5 9 1 21.8 12.3
5 -10 -1 4.9 7.2
5 -10 -1 -0.4 8.7
4 -10 -1 44.2 13.1
4 -10 -1 41.8 10.8
3 -10 -1 -3.6 2.5
3 -10 -1 5.7 6
2 -10 -1 79.19 16.7
2 -10 -1 78.09 13.2
1 -10 -1 286.17 23
1 -10 -1 303.77 26.3
-1 10 1 321.97 27.4
0 -10 -1 117.39 18.7
0 -10 -1 106.19 18.2
0 10 1 146.19 17.7
-1 -10 -1 80.49 15.9
-1 -10 -1 69.49 14.8
1 10 1 79.19 14.9
-2 -10 -1 255.27 26.9
-2 -10 -1 247.58 24.1
2 10 1 233.68 23.1
2 10 1 227.28 23.6
-3 -10 -1 206.48 22.8
3 10 1 225.98 24.1
3 10 1 232.28 25.3
-4 -10 -1 839.62 50.59
4 10 1 739.43 51.89
-5 -10 -1 102.69 19.6
5 10 1 86.49 20.4
5 -11 -1 122.99 19
5 -11 -1 127.39 23.1
4 -11 -1 88.59 17.8
4 -11 -1 63.09 14.6
3 -11 -1 652.13 43.4
3 -11 -1 559.94 32.2
2 -11 -1 28.7 8.6
2 -11 -1 18.5 6.6
1 -11 -1 27.8 9.2
1 -11 -1 36.9 9.2
-1 11 1 28.3 10.6
0 -11 -1 178.58 19.2
0 -11 -1 192.68 21.7
0 11 1 177.18 21
-1 -11 -1 0 4.9
-1 -11 -1 9.5 7.9
1 11 1 13.2 7.8
1 11 1 15.6 6.1
-2 -11 -1 36.7 11.2
2 11 1 24.8 10.1
2 11 1 24.3 9.9
-3 -11 -1 270.57 33.9
3 11 1 248.28 28
-4 -11 -1 364.66 34.4
4 11 1 429.66 39.1
-5 -11 -1 27.5 11.8
5 11 1 19 10.2
4 -12 -1 14.8 8
4 -12 -1 43.6 11.4
4 -12 -1 38.4 13.4
3 -12 -1 152.98 16.9
3 -12 -1 144.79 24.9
2 -12 -1 139.59 20.8
2 -12 -1 161.68 25.2
1 -12 -1 235.38 22.9
1 -12 -1 237.78 25.8
0 -12 -1 19.1 9.4
0 -12 -1 27.3 9.3
-1 -12 -1 310.17 30.8
-1 -12 -1 292.37 29.2
1 12 1 367.96 30.2
-2 -12 -1 402.06 34.1
2 12 1 389.16 32.5
-3 -12 -1 23.8 10.7
3 12 1 -4.6 6.7
-4 -12 -1 20.9 9.3
4 12 1 1.6 6.4
4 -13 -1 3.6 8.3
4 -13 -1 -5.3 6.7
4 -13 -1 14 7.9
3 -13 -1 30.8 11.7
3 -13 -1 22.6 14.9
2 -13 -1 71.09 14.9
2 -13 -1 46 13.8
1 -13 -1 3.9 7.3
1 -13 -1 -3.3 5.6
0 -13 -1 2.7 6.1
0 -13 -1 -0.8 5.8
-1 -13 -1 98.89 21.1
-2 -13 -1 79.39 15.9
2 13 1 114.09 21.3
-3 -13 -1 9.7 7.2
-4 -13 -1 10.6 9.9
3 -14 -1 6.5 6.2
3 -14 -1 17.6 9.7
2 -14 -1 558.24 43.4
2 -14 -1 479.65 34.1
1 -14 -1 63.09 17
0 -14 -1 582.74 44
-1 -14 -1 8.7 6.5
-2 -14 -1 102.59 21.2
2 14 1 99.49 20.9
-3 -14 -1 7.2 7.7
3 14 1 -9.2 6.2
3 -15 -1 59.99 15.3
2 -15 -1 15.3 8.5
1 -15 -1 43.2 15.4
0 -15 -1 1.1 4.4
-1 -15 -1 3.9 11.4
-2 -15 -1 31.9 14.2
-3 -15 -1 106.59 23.8
3 15 1 114.19 24.6
1 -16 -1 104.39 23
0 -16 -1 52.19 17.8
-1 -16 -1 435.06 40.9
0 -17 -1 4.5 10.7
0 -17 2 40.8 13.9
2 16 -2 5.5 6.6
-2 -16 2 -13.5 7.1
-1 -16 2 255.87 30.6
0 -16 2 3.1 9.6
1 -16 2 168.48 33.3
2 -16 2 1.6 9.6
2 -16 2 -12.7 10.7
-3 -15 2 87.19 20.6
2 15 -2 5.1 7.7
-2 -15 2 16.3 10.6
1 15 -2 1.9 6.5
-1 -15 2 -12.9 8.7
0 -15 2 3.9 7.6
1 -15 2 39.6 13.4
1 -15 2 41.1 13.9
2 -15 2 42.6 16.1
2 -15 2 24.4 10.4
3 -15 2 49.6 9.8
3 -15 2 55.69 17
3 -15 2 56.59 14.3
3 14 -2 9 7
-3 -14 2 1.8 10.5
2 14 -2 56.09 14.3
-2 -14 2 30.4 10.1
1 14 -2 24.8 8.7
-1 -14 2 18.9 7.7
0 -14 2 4.7 8.3
0 -14 2 18.9 7.8
1 -14 2 144.79 25.3
1 -14 2 132.29 22.5
2 -14 2 47 15.2
2 -14 2 45.3 11.7
3 -14 2 106.39 21.8
3 -14 2 115.09 14.3
3 -14 2 125.69 15.6
-4 -13 2 15.5 8.3
3 13 -2 47.4 14.6
-3 -13 2 33.8 11.8
2 13 -2 238.78 25.5
-2 -13 2 232.38 26.2
1 13 -2 17.4 8.2
-1 -13 2 13.8 8.5
0 -13 2 261.47 25.9
0 -13 2 272.67 28.1
1 -13 2 14 8.9
1 -13 2 9.9 7.5
2 -13 2 25 9.2
2 -13 2 40.3 13.6
3 -13 2 80.09 16
3 -13 2 71.29 11.6
3 -13 2 89.09 19.6
4 -13 2 73.99 9.8
4 -13 2 66.49 18.9
4 -13 2 89.39 9.9
4 12 -2 128.59 24.8
-4 -12 2 143.59 23.9
-3 -12 2 51.59 15.4
2 12 -2 96.19 24.3
-2 -12 2 136.09 22.7
1 12 -2 469.55 32.5
-1 -12 2 474.55 36.8
-1 -12 2 403.96 33.8
0 12 -2 377.16 27.3
0 -12 2 360.76 31.3
0 -12 2 383.46 30.1
1 -12 2 359.36 26.7
1 -12 2 335.57 33.7
2 -12 2 60.19 12
2 -12 2 102.29 20.5
3 -12 2 36.8 13
3 -12 2 33.1 7.7
4 -12 2 17.4 5.2
4 -12 2 49.5 14.4
4 -12 2 15.8 5.6
5 11 -2 1.3 11.2
-5 -11 2 -1.7 9.6
-4 -11 2 -8.4 7.6
3 11 -2 785.42 47.1
3 11 -2 809.02 50.99
-3 -11 2 850.01 47.8
2 11 -2 38.2 12
2 11 -2 35.5 11.6
-2 -11 2 46.8 13.2
-2 -11 2 13.3 9.3
1 11 -2 77.09 15
1 11 -2 47.5 13
-1 -11 2 56.99 14
-1 -11 2 60.89 14.4
0 11 -2 102.39 20.4
0 11 -2 121.29 14.1
0 -11 2 90.39 17
0 -11 2 120.39 18.3
1 -11 2 340.17 24.8
1 -11 2 370.86 31.1
2 -11 2 0.1 6.4
2 -11 2 -8.5 3.8
3 -11 2 182.88 28.3
3 -11 2 149.39 13.2
3 -11 2 150.28 13.5
4 -11 2 2.1 4.3
4 -11 2 16.8 4.5
4 -11 2 0.5 7.5
5 -11 2 52.89 16.2
5 10 -2 14.3 10.9
-5 -10 2 3.6 9.8
4 10 -2 82.19 20
4 10 -2 88.19 17.8
-4 -10 2 53.69 13.3
3 10 -2 299.07 29.6
3 10 -2 305.97 26.1
-3 -10 2 345.87 27.9
2 10 -2 389.66 30.9
2 10 -2 408.76 30.8
-2 -10 2 455.65 35.2
-2 -10 2 465.05 32.1
1 10 -2 107.29 18.1
1 10 -2 59.99 13.9
-1 -10 2 78.59 15.9
-1 -10 2 105.69 18.2
0 10 -2 102.09 12.4
0 10 -2 86.09 17.8
0 -10 2 92.39 15.6
0 -10 2 102.39 17.7
1 -10 2 3.2 4.4
1 -10 2 -3.2 4.1
2 -10 2 -0.3 3.6
2 -10 2 -8.2 4.3
3 -10 2 78.69 21.8
3 -10 2 84.89 9.2
3 -10 2 58.29 9
4 -10 2 17.1 4.4
4 -10 2 11.3 8.5
4 -10 2 14.3 4.8
5 -10 2 20.8 3.9
5 -10 2 38.9 5.1
5 -10 2 31.6 13.3
5 9 -2 7.4 8.2
5 9 -2 23.4 8
-5 -9 2 27.7 8.6
4 9 -2 24.6 10.8
4 9 -2 6.7 7.8
-4 -9 2 32.7 9.2
3 9 -2 34.6 11
3 9 -2 29.8 10
-3 -9 2 55.39 17.7
-3 -9 2 42.5 12.4
2 9 -2 389.06 30.2
2 9 -2 399.96 28.2
-2 -9 2 357.96 27.2
-2 -9 2 406.26 32.4
1 9 -2 457.75 29.6
1 9 -2 494.25 31.8
-1 -9 2 446.86 29.8
-1 -9 2 422.76 31.4
0 9 -2 30.4 10
0 9 -2 24.9 7
0 -9 2 27.6 8.7
0 -9 2 36.1 9.4
1 -9 2 109.69 12.5
1 -9 2 150.58 18
2 -9 2 109.49 10.9
2 -9 2 100.09 18.1
3 -9 2 24.2 10.6
3 -9 2 12.5 4.3
3 -9 2 15.1 5
4 -9 2 74.29 18.3
4 -9 2 56.49 7.3
4 -9 2 61.09 7.4
5 -9 2 12 3.7
5 -9 2 14.6 4.4
5 -9 2 25.6 12.4
5 8 -2 28.8 8.2
5 8 -2 28.2 12.7
-5 -8 2 7.2 7.3
4 8 -2 10.9 6.4
4 8 -2 17.9 9.2
-4 -8 2 -5.9 5.2
3 8 -2 48.1 13.2
3 8 -2 61.59 12.9
-3 -8 2 58.89 15.7
-3 -8 2 51.49 11.4
2 8 -2 790.52 38.8
2 8 -2 728.33 41.1
-2 -8 2 760.12 44.1
-2 -8 2 765.12 38.2
1 8 -2 60.69 12.2
1 8 -2 78.99 14.1
-1 -8 2 56.49 11.9
-1 -8 2 69.19 13
0 8 -2 220.88 20.5
0 8 -2 198.28 16
0 -8 2 216.38 17.8
0 -8 2 204.28 19.4
1 -8 2 39.1 10.7
1 -8 2 22.4 6.7
2 -8 2 1079.09 52.49
2 -8 2 1126.89 34.8
3 -8 2 151.38 11.5
3 -8 2 133.79 21.3
3 -8 2 149.49 10.5
4 -8 2 420.66 36.1
4 -8 2 376.66 19.1
5 -8 2 88.09 9.8
5 -8 2 66.69 16.9
6 7 -2 9.2 11
5 7 -2 -4.5 6.8
5 7 -2 18.2 7.1
-5 -7 2 3.4 6.6
4 7 -2 141.59 40.5
4 7 -2 143.69 15.3
-4 -7 2 137.39 16.6
3 7 -2 553.44 30.5
3 7 -2 511.85 36.8
-3 -7 2 523.15 40.5
-3 -7 2 527.85 30
2 7 -2 682.03 38.3
2 7 -2 661.63 33.4
-2 -7 2 700.93 34.1
-2 -7 2 744.83 42.2
1 7 -2 48.2 10
1 7 -2 42.5 10.1
-1 -7 2 46.2 10.1
-1 -7 2 60.39 12.2
0 7 -2 749.33 37.3
0 7 -2 778.12 31.3
0 -7 2 749.13 36.2
0 -7 2 729.13 32.4
1 -7 2 429.36 20.6
1 -7 2 442.36 28.6
2 -7 2 1795.02 44.6
2 -7 2 1733.53 66.79
3 -7 2 62.09 14.9
3 -7 2 33.4 5.4
3 -7 2 51.09 6.5
4 -7 2 15.2 10.3
4 -7 2 36.2 7.1
5 -7 2 10.6 9.8
5 -7 2 5.1 4.9
6 -7 2 68.89 14.4
6 -7 2 90.29 21
6 6 -2 54.19 12.2
6 6 -2 36.1 16.4
5 6 -2 197.28 26.3
5 6 -2 195.58 18.4
-5 -6 2 184.48 19
4 6 -2 4.6 7.1
4 6 -2 -6.4 3.7
-4 -6 2 1.8 6.9
-4 -6 2 2.3 4.2
3 6 -2 0.1 3.6
3 6 -2 8.2 4.6
-3 -6 2 -1.2 4.4
-3 -6 2 -3.4 3.9
2 6 -2 217.58 20.2
2 6 -2 199.88 16
-2 -6 2 201.48 20.5
-2 -6 2 198.28 16
1 6 -2 264.57 19.6
1 6 -2 249.78 19.4
-1 -6 2 295.67 21.8
-1 -6 2 285.47 19.1
0 6 -2 445.76 21.5
0 6 -2 478.15 27.2
0 -6 2 496.85 26.9
0 -6 2 509.25 24.5
1 -6 2 1973.8 49.6
1 -6 2 1923.41 64.79
2 -6 2 95.09 6.8
2 -6 2 91.09 6.9
2 -6 2 65.29 13.4
3 -6 2 1.8 1.9
4 -6 2 271.17 16.8
5 -6 2 4.8 4.5
6 -6 2 149.79 16
6 -6 2 106.69 22.4
6 5 -2 74.79 12.5
6 5 -2 60.49 18
5 5 -2 76.39 19.9
5 5 -2 56.19 11.3
4 5 -2 241.48 17.8
4 5 -2 246.88 26.6
-4 -5 2 251.87 27.3
-4 -5 2 212.78 19.2
3 5 -2 2885.41 75.59
3 5 -2 2825.92 92.89
-3 -5 2 2782.32 95.09
-3 -5 2 2889.31 76.29
2 5 -2 298.87 18
2 5 -2 284.97 22.8
-2 -5 2 273.47 17.6
-2 -5 2 287.87 23.6
1 5 -2 266.97 18.7
1 5 -2 242.68 16.8
-1 -5 2 269.57 17
-1 -5 2 257.47 19.2
0 5 -2 2053.59 60.69
0 5 -2 2011.2 52.69
0 -5 2 2018 59.79
0 -5 2 2052.89 54.99
1 -5 2 1274.77 47.7
1 -5 2 1298.77 33.5
2 -5 2 11 2.3
2 -5 2 9.6 2.4
3 -5 2 1100.29 33.3
4 -5 2 507.15 24.5
5 -5 2 103.69 12.2
6 -5 2 -2.9 6.2
6 4 -2 8.4 9.6
6 4 -2 6.2 6.1
5 4 -2 446.16 38.7
5 4 -2 425.56 25.3
4 4 -2 697.93 44.1
-4 -4 2 656.83 31.3
-4 -4 2 629.84 42.7
3 4 -2 273.27 24.5
3 4 -2 244.98 15.7
-3 -4 2 193.48 20.4
-3 -4 2 238.78 16.2
2 4 -2 188.08 13
-2 -4 2 180.38 17.3
-2 -4 2 169.08 12.3
1 4 -2 8.4 3.6
1 4 -2 8.6 4
-1 -4 2 6.3 3.8
-1 -4 2 7.9 3.3
0 4 -2 231.78 12.8
0 -4 2 221.18 15
0 -4 2 225.48 13.1
1 -4 2 178.38 7.8
2 -4 2 9.3 2.4
3 -4 2 422.26 18.9
4 -4 2 979.6 36.8
5 -4 2 222.38 24.3
5 -4 2 265.77 20.6
6 -4 2 6.5 8.2
6 3 -2 349.47 22.4
6 3 -2 323.87 36.4
5 3 -2 307.67 20.4
5 3 -2 316.97 34.1
4 3 -2 255.67 26.6
4 3 -2 263.47 17.1
-4 -3 2 250.07 25
3 3 -2 738.33 41.4
3 3 -2 813.62 28.7
-3 -3 2 844.52 43.4
-3 -3 2 827.72 30
2 3 -2 52.39 6.3
2 3 -2 62.49 11.8
-2 -3 2 70.69 6.9
-2 -3 2 62.99 12
1 3 -2 1796.82 45.3
1 3 -2 1790.42 52.69
-1 -3 2 1799.32 52.49
-1 -3 2 1693.93 44.1
0 3 -2 341.57 14.5
0 -3 2 312.07 16.7
0 -3 2 333.27 14.7
2 -3 2 422.06 14.4
-3 3 -2 56.49 7.1
3 -3 2 62.79 7.4
-4 3 -2 -1.3 3.4
4 -3 2 1.6 2.7
4 -3 2 -9.9 3.7
-5 3 -2 13.7 7.4
5 -3 2 3 8.3
5 -3 2 2.3 5.6
-6 3 -2 37.7 10.4
6 -3 2 44.3 11.9
6 2 -2 3.7 6.7
6 2 -2 7.5 5.9
5 2 -2 238.88 28
5 2 -2 227.88 17.9
-5 -2 2 307.27 45.2
4 2 -2 519.15 23.9
4 2 -2 509.75 36.3
-4 -2 2 538.65 37
3 2 -2 1292.97 36.6
3 2 -2 1227.98 53.29
-3 -2 2 1249.97 53.59
-3 -2 2 1262.47 37.5
2 2 -2 506.35 17.2
2 2 -2 553.24 29.3
-2 -2 2 503.25 17.6
-2 -2 2 490.25 27.9
1 2 -2 489.65 22.8
1 2 -2 489.95 16.4
-1 -2 2 486.75 22.6
-1 -2 2 478.35 15.9
0 2 -2 5472.15 106.79
0 -2 2 5398.06 106.79
-2 2 -2 1136.59 30.7
2 -2 2 1087.89 29.6
-3 2 -2 8.9 3.9
3 -2 2 4.1 2.9
-4 2 -2 770.52 35.8
4 -2 2 789.02 35.1
4 -2 2 761.72 41
-5 2 -2 40.8 10
5 -2 2 18.5 6.6
5 -2 2 13.2 6.7
6 -2 2 54.69 13.1
6 1 -2 -4.4 4.7
6 1 -2 -13.5 7.6
5 1 -2 328.87 32.4
-5 -1 2 302.07 31.4
4 1 -2 661.93 41.2
4 1 -2 719.63 27.8
-4 -1 2 660.73 41.5
3 1 -2 109.49 14.6
3 1 -2 93.79 7.8
-3 -1 2 97.89 16.3
2 1 -2 1.9 1.2
2 1 -2 -1.5 2.3
-2 -1 2 -0.5 2.6
1 1 -2 5877.51 122.69
-1 -1 2 5745.03 122.19
-1 -1 2 5658.83 105.79
0 1 -2 551.44 17.2
0 -1 2 543.05 16.9
-2 1 -2 4397.16 95.09
2 -1 2 4564.24 94.19
-3 1 -2 106.19 11.1
3 -1 2 85.69 9.8
3 -1 2 109.99 16.2
-4 1 -2 97.49 15.4
4 -1 2 136.19 27.6
4 -1 2 124.99 15.9
-5 1 -2 239.48 23.2
5 -1 2 290.27 23.9
-6 1 -2 189.28 22
6 -1 2 161.18 21.3
6 0 -2 463.45 40.5
6 0 -2 453.35 25.9
5 0 -2 1497.05 69.39
-5 0 2 1311.37 64.69
4 0 -2 1821.02 51.59
4 0 -2 1917.81 73.49
-4 0 2 1832.32 71.09
3 0 -2 197.88 11.4
3 0 -2 180.38 18.2
-3 0 2 194.68 18.7
2 0 -2 9908.11 205.28
2 0 -2 9640.74 180.48
-2 0 2 9999 205.18
1 0 -2 2594.14 64.19
-1 0 2 2641.54 64.09
0 0 2 138.69 8
-1 0 -2 91.59 6.4
1 0 2 95.49 6.4
1 0 2 85.89 8.6
-2 0 -2 4759.92 104.69
2 0 2 4916.01 103.59
2 0 2 4745.53 111.59
-3 0 -2 309.17 20.3
3 0 2 277.67 18.8
3 0 2 249.48 20
-4 0 -2 1452.25 57.09
4 0 2 1545.65 60.09
4 0 2 1541.15 56.19
-5 0 -2 107.99 18.5
5 0 2 106.39 18.5
5 0 2 109.19 22.7
-6 0 -2 3.9 9.9
6 0 2 7.1 6.6
6 -1 -2 6.2 7
6 -1 -2 17.4 9.6
5 -1 -2 354.16 32
5 -1 -2 383.06 23.6
-5 1 2 353.86 31
4 -1 -2 714.63 29
4 -1 -2 710.33 41.4
-4 1 2 685.03 39.6
3 -1 -2 93.69 8.4
3 -1 -2 85.29 18.5
-3 1 2 102.19 13.2
2 -1 -2 2.8 1.6
2 -1 -2 0.6 3.4
-2 1 2 5.7 3.4
1 -1 -2 5874.71 120.69
1 -1 -2 5578.84 106.89
-1 1 2 5797.52 107.29
0 -1 -2 522.05 18
0 1 2 537.25 17.8
1 1 2 9040.3 179.48
-2 -1 -2 4589.14 107.39
-2 -1 -2 4343.67 102.09
2 1 2 4564.34 106.79
2 1 2 4516.65 100.99
-3 -1 -2 84.39 13.7
3 1 2 90.99 14.1
3 1 2 85.19 11.3
-4 -1 -2 112.99 15.1
4 1 2 114.79 14.7
4 1 2 99.59 17.5
-5 -1 -2 217.48 23.6
5 1 2 265.37 30.4
5 1 2 241.08 24.1
6 1 2 172.78 22.3
6 -2 -2 14 7
6 -2 -2 9.2 6.7
5 -2 -2 248.98 18.9
5 -2 -2 251.37 26.6
-5 2 2 262.77 25.4
4 -2 -2 531.15 25.7
4 -2 -2 543.15 35.3
-4 2 2 512.15 32.9
3 -2 -2 1190.58 37.9
-3 2 2 1300.27 49.5
2 -2 -2 527.05 26.4
2 -2 -2 513.85 19
-2 2 2 479.15 24.7
1 -2 -2 486.05 16.6
-1 2 2 479.75 16.7
0 -2 -2 5327.07 109.59
0 2 2 5495.55 109.79
-1 -2 -2 21.6 5.1
-1 -2 -2 19 5.5
1 2 2 17.7 4.8
1 2 2 23.4 5.2
-2 -2 -2 1082.19 39.7
-2 -2 -2 1093.99 40.7
2 2 2 1081.99 38.4
2 2 2 1121.59 40.6
-3 -2 -2 2.9 4.3
-3 -2 -2 -2.6 3
3 2 2 4.6 4.4
-4 -2 -2 746.13 41.3
4 2 2 777.72 40.7
4 2 2 771.02 40.1
-5 -2 -2 25 10.6
5 2 2 4.8 8.1
6 2 2 79.39 18.7
6 -3 -2 342.67 25.1
6 -3 -2 312.87 35.3
6 -3 -2 330.67 24.3
5 -3 -2 333.57 30.5
5 -3 -2 319.67 22.5
5 -3 -2 332.17 24
4 -3 -2 211.58 22
4 -3 -2 243.98 17.9
-4 3 2 227.28 20.4
3 -3 -2 774.72 46.8
3 -3 -2 801.92 31
2 -3 -2 72.79 11.6
2 -3 -2 52.89 6.6
1 -3 -2 1775.82 45.1
-1 3 2 1719.43 45
0 -3 -2 339.17 16.9
0 3 2 340.47 16.5
-1 -3 -2 117.49 10.7
-1 -3 -2 101.29 10.4
1 3 2 107.19 10.3
1 3 2 113.99 10.4
-2 -3 -2 363.36 28.2
-2 -3 -2 409.06 24
2 3 2 420.36 23.4
-3 -3 -2 72.19 13.1
-3 -3 -2 71.59 13
3 3 2 83.59 13.8
3 3 2 67.69 13
-4 -3 -2 -6 4
4 3 2 8.3 5.4
4 3 2 9 4.5
-5 -3 -2 16.1 8.7
5 3 2 -0.8 6.2
5 3 2 15.8 9.7
6 3 2 65.89 15.3
6 -4 -2 8.4 7.4
6 -4 -2 9.8 7.5
6 -4 -2 28.1 14.7
5 -4 -2 402.46 26.9
5 -4 -2 448.46 28.1
5 -4 -2 494.75 36.8
4 -4 -2 671.83 32.5
4 -4 -2 691.63 39.3
3 -4 -2 249.78 17.5
2 -4 -2 183.78 15.1
2 -4 -2 190.48 13.7
1 -4 -2 7.1 3.3
-1 4 2 6.2 3.3
0 -4 -2 219.38 14.5
0 -4 -2 203.68 14.2
0 4 2 218.78 14.5
-1 -4 -2 188.38 14.8
-1 -4 -2 180.68 14.5
1 4 2 182.78 14
1 4 2 192.48 14.7
-2 -4 -2 9.1 5.1
-2 -4 -2 11.2 5.3
2 4 2 10.2 4.7
2 4 2 9.1 5.2
-3 -4 -2 395.36 28.5
-3 -4 -2 396.46 27.2
3 4 2 422.26 27.1
3 4 2 439.36 28.5
-4 -4 -2 940.31 50.59
-4 -4 -2 1094.39 50.99
4 4 2 901.81 44.9
4 4 2 859.61 46.2
5 4 2 269.07 27
5 4 2 211.28 22.1
6 4 2 39 13.5
6 -5 -2 72.89 19.1
6 -5 -2 101.49 17.3
6 -5 -2 55.99 12.4
5 -5 -2 80.99 14.5
5 -5 -2 79.89 17.1
4 -5 -2 222.58 19
4 -5 -2 204.28 21.4
3 -5 -2 2866.31 84.69
3 -5 -2 2867.61 79.09
2 -5 -2 272.37 18.1
1 -5 -2 266.37 17.4
-1 5 2 269.17 17.8
0 -5 -2 2014.6 59.19
0 -5 -2 2088.09 58.39
0 5 2 2070.59 59.29
-1 -5 -2 1341.17 46.7
-1 -5 -2 1281.97 46.4
1 5 2 1284.77 45.8
1 5 2 1342.07 45.7
-2 -5 -2 2.4 4.3
-2 -5 -2 9.5 5
2 5 2 3.7 4.2
2 5 2 9.2 5.1
-3 -5 -2 1130.99 52.89
-3 -5 -2 1126.59 49.8
3 5 2 1077.19 49.2
3 5 2 1195.08 49.6
-4 -5 -2 489.05 37.5
-4 -5 -2 567.94 36.1
4 5 2 554.54 34.8
4 5 2 467.15 34.5
5 5 2 86.39 19.7
5 5 2 78.99 15.1
6 5 2 -5.4 6.4
6 -6 -2 73.69 17.6
6 -6 -2 61.89 14.5
6 -6 -2 81.09 18.1
5 -6 -2 169.58 19.1
5 -6 -2 187.08 22.6
4 -6 -2 -3.5 3.8
4 -6 -2 0.4 4.4
3 -6 -2 14.5 5.1
3 -6 -2 5.1 3.7
2 -6 -2 219.78 17.6
-2 6 2 197.08 17.2
1 -6 -2 314.67 20.6
-1 6 2 294.07 20.5
0 -6 -2 462.15 26
0 -6 -2 489.25 25.9
0 6 2 508.65 26.9
-1 -6 -2 1934.51 63.29
-1 -6 -2 1905.41 63.19
1 6 2 2085.19 64.19
1 6 2 2067.79 63.49
-2 -6 -2 82.89 14.9
-2 -6 -2 113.29 17
2 6 2 98.09 12.5
2 6 2 85.39 14.9
-3 -6 -2 2.8 3.9
-3 -6 -2 -0.3 5.1
3 6 2 9.4 4.9
3 6 2 9.9 6.5
-4 -6 -2 238.98 23.9
-4 -6 -2 251.77 27.3
4 6 2 284.17 26.9
-5 -6 -2 2.4 7.9
5 6 2 13.7 9.6
6 6 2 167.18 27.8
6 -7 -2 20.4 11.2
6 -7 -2 27.7 12.2
5 -7 -2 6.8 7.9
5 -7 -2 10.7 9
4 -7 -2 121.49 19.1
4 -7 -2 126.29 16.1
3 -7 -2 535.35 31.7
3 -7 -2 510.25 30.9
2 -7 -2 695.03 34.7
-2 7 2 638.14 34.8
1 -7 -2 51.99 10.4
-1 7 2 43.1 10.5
0 -7 -2 754.82 35.3
0 -7 -2 747.33 36
0 7 2 764.22 36.3
-1 -7 -2 401.86 26.8
-1 -7 -2 451.45 28.4
1 7 2 486.55 28.7
1 7 2 437.16 26.8
-2 -7 -2 1816.82 69.79
-2 -7 -2 1888.61 67.79
2 7 2 1796.22 66.19
2 7 2 1924.71 66.69
-3 -7 -2 58.89 13.5
-3 -7 -2 60.49 14.2
3 7 2 43.4 12.2
3 7 2 66.49 13.4
-4 -7 -2 42 10.4
4 7 2 41 11.3
4 7 2 30.6 10.4
5 7 2 28.6 10.3
6 7 2 67.99 19
5 -8 -2 21.6 9.8
5 -8 -2 6.5 7.5
4 -8 -2 5.2 5
4 -8 -2 19.7 8.7
3 -8 -2 70.29 14.1
3 -8 -2 47.6 10.9
2 -8 -2 702.93 37.8
-2 8 2 800.52 41.2
1 -8 -2 51.89 10.4
1 -8 -2 43.1 10.3
-1 8 2 83.49 14.9
0 -8 -2 205.18 19.2
0 -8 -2 187.48 17.6
0 8 2 181.98 18
-1 -8 -2 21 8.3
-1 -8 -2 24.2 8.7
1 8 2 23.2 7.7
1 8 2 29 8.8
-2 -8 -2 1108.69 54.49
-2 -8 -2 1151.38 52.39
2 8 2 1164.08 51.79
2 8 2 1131.09 51.79
-3 -8 -2 122.99 23
-3 -8 -2 198.78 21.3
3 8 2 138.89 26
3 8 2 151.98 20.4
-4 -8 -2 361.56 31.6
4 8 2 356.36 29.4
4 8 2 413.96 34.7
-5 -8 -2 122.39 21.8
5 8 2 51.19 15.9
5 -9 -2 -8.9 5.6
5 -9 -2 9.4 6.8
4 -9 -2 9.9 8.3
4 -9 -2 25.3 8.9
3 -9 -2 53.79 12.4
3 -9 -2 35.4 10.4
2 -9 -2 419.16 29.3
-2 9 2 381.26 29
1 -9 -2 465.25 28.7
1 -9 -2 425.56 29.7
-1 9 2 430.36 30.5
0 -9 -2 18.3 7.4
0 -9 -2 19 7.1
0 9 2 23.2 8.2
-1 -9 -2 114.49 19.8
-1 -9 -2 146.79 18.3
1 9 2 114.69 15.3
1 9 2 111.19 18.2
-2 -9 -2 119.29 20.7
-2 -9 -2 118.59 19.5
2 9 2 129.69 17.2
-3 -9 -2 18.6 8.9
3 9 2 11.9 7.3
3 9 2 12.5 8.1
4 9 2 51.69 15.9
-5 -9 -2 18.8 9.8
5 9 2 22.6 12
5 -10 -2 35.2 9.7
5 -10 -2 10.9 11
4 -10 -2 74.69 15.3
4 -10 -2 108.89 20.6
3 -10 -2 342.27 29.5
2 -10 -2 370.76 29.6
2 -10 -2 417.26 27.6
-2 10 2 376.66 31.9
1 -10 -2 75.99 16.3
1 -10 -2 76.69 15.2
-1 10 2 104.59 18.4
0 -10 -2 110.49 18.6
0 -10 -2 132.49 15.9
0 10 2 105.09 18.4
-1 -10 -2 12.9 6.7
1 10 2 -1.3 4.6
-2 -10 -2 13.8 7.8
-2 -10 -2 1.4 4.2
2 10 2 -3.1 3
2 10 2 -2.9 6.9
-3 -10 -2 49.1 12.9
3 10 2 59.49 16.2
-4 -10 -2 3.1 9.1
4 10 2 15.5 8.9
-5 -10 -2 23.2 12.6
5 10 2 28.7 11.8
5 -11 -2 -10.5 7.3
5 -11 -2 12.6 10.6
4 -11 -2 10.8 7.2
4 -11 -2 7.1 7.1
3 -11 -2 831.22 42.2
3 -11 -2 872.91 50.49
2 -11 -2 38.6 9.6
2 -11 -2 38.9 11.7
-2 11 2 59.69 14.7
1 -11 -2 48.5 13.3
1 -11 -2 90.09 18.5
-1 11 2 60.29 13.5
0 -11 -2 114.79 20.2
0 11 2 98.99 18.7
-1 -11 -2 366.16 31.3
-1 -11 -2 281.97 28
1 11 2 366.96 30.6
-2 -11 -2 -9.2 5
2 11 2 0.5 4.1
-3 -11 -2 152.88 25.4
3 11 2 141.99 24.2
-4 -11 -2 6.5 7
4 11 2 8.6 7.5
-5 -11 -2 55.59 15.2
5 11 2 26 10.5
4 -12 -2 142.09 21.2
4 -12 -2 146.49 24
4 -12 -2 173.58 20.8
3 -12 -2 23.9 9.3
3 -12 -2 20.3 11.5
2 -12 -2 112.19 26.9
2 -12 -2 127.29 19.8
1 -12 -2 429.46 31.6
1 -12 -2 441.56 35.3
0 -12 -2 346.27 31.8
0 -12 -2 429.56 33.1
-1 -12 -2 391.16 41.8
-2 -12 -2 83.49 17.7
2 12 2 109.39 20.8
-3 -12 -2 43 12.6
3 12 2 49.99 12.8
-4 -12 -2 34.4 12.4
4 12 2 34.2 13.1
4 -13 -2 5.4 8.9
4 -13 -2 3.2 7
4 -13 -2 3.5 8.6
3 -13 -2 25.8 11.1
3 -13 -2 12.3 11.1
2 -13 -2 259.67 28.1
2 -13 -2 264.67 26.1
1 -13 -2 16.5 8.7
1 -13 -2 10.4 9.1
0 -13 -2 295.77 30.8
-1 -13 -2 8.9 7.9
-2 -13 -2 15.1 10.6
2 13 2 32.1 12.2
-3 -13 -2 66.69 16.5
3 13 2 79.29 19.1
-4 -13 -2 78.69 20.4
4 13 2 75.69 20.5
3 -14 -2 27.2 12.1
2 -14 -2 39.5 12
1 -14 -2 12.1 9.4
0 -14 -2 8.8 8.6
-1 -14 -2 196.38 30.3
-2 -14 -2 40.9 13.3
-3 -14 -2 143.49 27.5
3 14 2 129.19 24
3 -15 -2 66.29 18.3
2 -15 -2 -5.6 7.1
1 -15 -2 4.2 8.7
0 -15 -2 1.4 7.8
-1 -15 -2 28.9 10.8
-2 -15 -2 33 12.2
3 15 2 28.7 13.8
1 -16 -2 241.18 30.8
0 -16 -2 10.3 8
-1 -16 -2 174.08 31.5
0 -17 -2 25.8 15.2
2 16 -3 22.8 9.2
-2 -16 3 22.5 10.5
1 16 -3 80.29 19.5
-1 -16 3 98.89 20.9
0 -16 3 -22.6 8.6
1 -16 3 0.4 11.3
-3 -15 3 15.4 10.9
2 15 -3 102.69 21.3
-2 -15 3 46.5 15.4
1 15 -3 10.5 8.5
-1 -15 3 13.7 9.1
0 -15 3 28.3 13.1
1 -15 3 31.3 12.2
1 -15 3 34.9 15.7
2 -15 3 5.4 8.5
2 -15 3 9.8 9.9
3 14 -3 55.19 16.7
-3 -14 3 72.09 17.8
2 14 -3 65.09 15.4
-2 -14 3 39.2 12.3
1 14 -3 33.1 11.8
-1 -14 3 63.59 16.7
0 -14 3 247.98 27.5
0 -14 3 241.28 26.2
1 -14 3 -7 6.2
1 -14 3 -3.3 7.8
2 -14 3 482.95 30.7
2 -14 3 483.05 43
3 -14 3 16.9 11.5
3 -14 3 18 5.6
3 -14 3 30.8 7.3
-4 -13 3 141.69 25.7
3 13 -3 76.69 19.6
-3 -13 3 83.49 19.5
2 13 -3 76.79 17
-2 -13 3 47.6 12.8
1 13 -3 16.1 7.7
-1 -13 3 12.2 7.7
-1 -13 3 20.2 8.4
0 13 -3 39.1 11
0 -13 3 36.6 18
0 -13 3 45.7 14
1 -13 3 -4.4 5.8
1 -13 3 10.1 6.9
2 -13 3 45.8 11.3
2 -13 3 44.6 15
3 -13 3 26.6 6.2
3 -13 3 13.2 6.4
3 -13 3 30.3 13.7
4 -13 3 82.39 26.7
4 12 -3 14.1 10.7
-4 -12 3 12.6 10.1
3 12 -3 590.54 44.2
2 12 -3 34.7 13.6
-2 -12 3 42.9 12.2
1 12 -3 266.17 25
-1 -12 3 285.97 27.5
-1 -12 3 268.47 27.3
0 12 -3 30.6 8.2
0 -12 3 23.7 9.3
0 -12 3 17.9 10
1 -12 3 166.08 19
1 -12 3 159.88 26
2 -12 3 207.58 18.2
2 -12 3 180.68 29
3 -12 3 28.3 10
3 -12 3 24.7 6.2
3 -12 3 20 5.2
4 -12 3 178.68 31
5 11 -3 24.5 14.1
-5 -11 3 57.69 15
4 11 -3 27 10.3
4 11 -3 5.5 7.7
-4 -11 3 13.2 8.2
3 11 -3 72.39 17.6
3 11 -3 43.6 12.2
-3 -11 3 56.89 15.4
2 11 -3 908.01 50.39
2 11 -3 923.01 50.99
-2 -11 3 989.6 50.09
-2 -11 3 868.51 53.49
1 11 -3 6 6.6
1 11 -3 1.6 5
-1 -11 3 3.9 6.7
-1 -11 3 2.5 6.6
0 11 -3 15 6.1
0 -11 3 31.7 8.6
0 -11 3 4.3 6.7
1 -11 3 6 5.1
1 -11 3 -0.2 5.1
2 -11 3 60.79 10.2
2 -11 3 52.69 15.5
3 -11 3 124.99 9.2
3 -11 3 82.59 18.8
3 -11 3 121.69 9
4 -11 3 47.9 15
5 10 -3 6.3 10
5 10 -3 11.1 12.5
-5 -10 3 27.3 13
4 10 -3 3.7 7.7
4 10 -3 27.3 11.6
-4 -10 3 20.7 8.9
3 10 -3 3.3 6.8
-3 -10 3 -4.7 3.8
-2 -10 3 18.9 9.2
-2 -10 3 -2.7 4.7
1 10 -3 1277.27 54.09
1 10 -3 1206.78 56.99
-1 -10 3 1268.77 58.19
-1 -10 3 1291.37 56.59
0 10 -3 85.69 13.7
0 -10 3 105.29 16.8
0 -10 3 84.19 16.4
1 -10 3 453.95 34.3
1 -10 3 465.75 27
2 -10 3 14.5 6.6
2 -10 3 -2.7 3.5
3 -10 3 655.23 20.1
3 -10 3 693.53 46.9
3 -10 3 660.23 20.5
4 -10 3 121.19 24.7
5 -10 3 36.1 11.6
5 9 -3 18.1 12.8
-5 -9 3 75.29 14.7
4 9 -3 300.07 32.5
4 9 -3 319.77 26.3
-4 -9 3 348.57 27.3
3 9 -3 291.57 29.3
3 9 -3 335.27 27.1
-3 -9 3 339.87 26.2
2 9 -3 57.19 13.4
2 9 -3 61.59 12.5
-2 -9 3 57.29 14.1
-2 -9 3 58.99 12.4
1 9 -3 -4.8 4.2
1 9 -3 1.5 4
-1 -9 3 1.5 4.6
-1 -9 3 5.6 5.3
0 9 -3 335.47 27.3
0 -9 3 346.07 24.1
0 -9 3 391.56 28.5
1 -9 3 823.72 34.5
1 -9 3 823.62 45.7
2 -9 3 18.4 4.8
2 -9 3 4.1 6.2
3 -9 3 7.9 6.7
4 -9 3 6.7 8.6
5 -9 3 363.56 36.8
5 8 -3 90.59 21
5 8 -3 81.69 14.1
-5 -8 3 113.09 18.2
4 8 -3 722.33 50.99
4 8 -3 613.14 34.8
-4 -8 3 686.83 36.8
3 8 -3 14.5 6.9
3 8 -3 3.9 6.5
-3 -8 3 19.8 9.6
-3 -8 3 23.2 7.8
2 8 -3 418.66 27.9
2 8 -3 448.26 31.8
-2 -8 3 419.96 26.8
-2 -8 3 397.66 31.2
1 8 -3 4.8 5.4
1 8 -3 14.8 5.5
-1 -8 3 7.1 5.6
-1 -8 3 2.8 5.1
0 8 -3 1358.56 46.3
0 -8 3 1325.07 53.99
0 -8 3 1335.47 51.69
1 -8 3 111.29 18.4
1 -8 3 135.69 12.2
2 -8 3 858.41 26.2
2 -8 3 873.41 47.5
3 -8 3 9.3 6.5
4 -8 3 8 8.3
5 -8 3 -3.2 8.5
6 7 -3 58.59 13.1
6 7 -3 47.3 20.3
5 7 -3 417.86 27.1
5 7 -3 454.25 41.7
-5 -7 3 402.36 27.7
4 7 -3 4.2 4.8
4 7 -3 2.6 6.5
-4 -7 3 5.1 5.2
3 7 -3 712.53 34.7
3 7 -3 738.53 45.3
-3 -7 3 764.32 47.3
-3 -7 3 788.82 35.8
2 7 -3 387.16 24.5
2 7 -3 313.77 26.4
-2 -7 3 351.36 28.1
-2 -7 3 328.27 22.1
1 7 -3 223.38 19.1
1 7 -3 239.78 19.6
-1 -7 3 219.38 18.5
-1 -7 3 217.48 19.7
0 7 -3 459.95 23.4
0 -7 3 487.45 25.9
0 -7 3 482.25 29.2
1 -7 3 26 9.2
1 -7 3 43.7 7.1
2 -7 3 -0.5 1.5
2 -7 3 -3.2 3.9
2 -7 3 0.7 1.2
3 -7 3 128.89 21
5 -7 3 21.2 10
5 -7 3 28.1 3.7
6 6 -3 17.1 6.6
6 6 -3 -6.7 9.6
5 6 -3 -2.6 6.6
5 6 -3 7.1 6
-5 -6 3 3.5 5.5
4 6 -3 43.9 8.9
4 6 -3 21.2 9.3
3 6 -3 16 6.8
3 6 -3 0.5 3.7
-3 -6 3 -2.9 4.7
-3 -6 3 5.3 3.8
2 6 -3 1587.54 61.59
-2 -6 3 1589.14 51.19
-2 -6 3 1636.84 63.79
1 6 -3 15.5 6.4
1 6 -3 16.9 6.3
-1 -6 3 6.5 4.9
-1 -6 3 16.5 6.7
0 6 -3 832.42 31.2
0 -6 3 785.02 36.5
0 -6 3 785.92 32.2
1 -6 3 2658.23 81.59
1 -6 3 2663.13 61.09
4 -6 3 345.77 13.5
5 -6 3 683.53 25.1
6 -6 3 4.1 4.7
6 5 -3 37.9 14.7
6 5 -3 38.3 9.4
5 5 -3 411.16 38.7
5 5 -3 414.76 23.9
4 5 -3 535.65 40
4 5 -3 424.96 27.2
-4 -5 3 465.95 38.5
-4 -5 3 433.66 24.5
3 5 -3 400.96 32
3 5 -3 514.95 24.3
-3 -5 3 454.65 23.2
-3 -5 3 483.45 34.7
2 5 -3 110.09 17.6
2 5 -3 118.19 11.3
-2 -5 3 154.38 12.3
-2 -5 3 149.39 16.8
1 5 -3 162.38 15
1 5 -3 159.08 14
-1 -5 3 172.78 13.8
-1 -5 3 163.38 15.2
0 5 -3 1516.85 43.4
0 -5 3 1436.96 49
0 -5 3 1389.66 43.3
1 -5 3 569.74 18
3 -5 3 -1.3 0.9
4 -5 3 204.68 12.1
5 -5 3 183.58 13.6
6 4 -3 15.6 6.4
6 4 -3 -15.1 7.1
5 4 -3 -0.2 6.1
5 4 -3 2.1 4.6
4 4 -3 361.76 19.5
4 4 -3 339.67 32
-4 -4 3 348.97 32.6
-4 -4 3 367.76 20.7
3 4 -3 1098.09 53.89
3 4 -3 1156.68 36.2
-3 -4 3 1203.68 56.69
-3 -4 3 1106.19 36.4
2 4 -3 59.19 12.5
2 4 -3 62.19 7.6
-2 -4 3 72.79 7.9
-2 -4 3 76.99 14
1 4 -3 7603.04 163.28
1 4 -3 7589.34 155.68
-1 -4 3 7832.82 164.78
-1 -4 3 7130.69 152.68
0 4 -3 11 3.6
0 -4 3 7.7 3.3
1 -4 3 4625.74 86.69
3 -4 3 53.49 5
4 -4 3 110.19 10
5 -4 3 297.27 19.6
6 -4 3 124.89 14.9
6 3 -3 94.49 22.9
5 3 -3 477.85 41.3
5 3 -3 459.45 22
4 3 -3 10 8.3
4 3 -3 16.1 4.2
-4 -3 3 8.9 8.4
3 3 -3 521.35 20.1
3 3 -3 538.25 35.5
-3 -3 3 513.65 34.4
-3 -3 3 534.35 20.8
2 3 -3 890.41 43.7
2 3 -3 925.81 27.7
-2 -3 3 895.41 40.9
-2 -3 3 842.42 26.4
0 3 -3 2262.17 54.59
0 -3 3 2252.17 54.79
-3 3 -3 17.7 4
3 -3 3 9.6 3
-4 3 -3 102.89 11
4 -3 3 88.39 9.8
4 -3 3 117.99 19.5
-5 3 -3 59.89 11.6
5 -3 3 64.89 13.3
-6 3 -3 -6.8 7.1
6 -3 3 0 6.6
6 2 -3 9.9 5.9
6 2 -3 29.1 13.5
5 2 -3 69.29 8.3
5 2 -3 63.69 17.3
4 2 -3 671.13 23.8
4 2 -3 661.93 43.7
-4 -2 3 741.83 45.1
3 2 -3 39.6 4.3
3 2 -3 24.9 10.2
-3 -2 3 32.4 10.3
2 2 -3 2933.31 83.89
2 2 -3 2677.43 56.99
-2 -2 3 2668.73 56.69
-2 -2 3 2770.52 80.79
0 2 -3 2060.99 50.69
0 -2 3 2185.28 50.89
-1 2 -3 7068.59 124.39
-1 2 -3 6596.34 124.89
-2 2 -3 480.05 16.5
2 -2 3 501.65 15.6
-3 2 -3 473.85 21.7
3 -2 3 409.56 28
3 -2 3 437.76 19.6
-4 2 -3 76.39 10.2
4 -2 3 77.19 15.4
4 -2 3 71.99 9.6
-5 2 -3 15.7 6.6
5 -2 3 0.3 6.3
5 -2 3 -4.8 3.9
-6 2 -3 47.3 13.2
6 -2 3 22 8.5
6 1 -3 540.85 46.3
6 1 -3 554.34 23.8
5 1 -3 151.68 11.2
5 1 -3 161.08 27.3
4 1 -3 420.76 16.9
4 1 -3 367.86 31.2
-4 -1 3 382.46 31.6
3 1 -3 77.69 15.6
3 1 -3 66.49 4.8
-3 -1 3 68.19 13.6
2 1 -3 4207.18 107.19
-2 -1 3 4131.19 120.79
1 1 -3 35.2 7.7
-1 -1 3 29.3 6.7
0 1 -3 0.2 1.7
-1 1 -3 647.04 18.1
-2 1 -3 489.95 19.4
2 -1 3 490.55 18.1
2 -1 3 464.65 26.6
-3 1 -3 91.29 10.3
3 -1 3 105.49 10.1
3 -1 3 106.89 16.4
-4 1 -3 25.7 8
4 -1 3 18.5 8.1
4 -1 3 38.7 9.2
-5 1 -3 61.39 13.4
5 -1 3 25.5 8.6
5 -1 3 54.39 12.6
-6 1 -3 150.08 22.9
6 -1 3 153.18 19
6 0 -3 8.9 4.7
6 0 -3 -13.7 8.8
6 0 -3 6.9 4.8
5 0 -3 4.9 6.9
5 0 -3 0.4 3.1
-5 0 3 4.6 6.4
4 0 -3 1.1 2.1
4 0 -3 0.6 4.1
-4 0 3 3.8 5
3 0 -3 0.4 2.7
3 0 -3 0.7 1.2
-3 0 3 0.8 4.4
2 0 -3 0.3 3
1 0 -3 -1 1.9
-1 0 3 2.6 2.8
-1 0 3 2.5 1
0 0 3 -1.5 1.5
-1 0 -3 -1.4 1.3
-2 0 -3 1 1.9
2 0 3 -0.8 1.5
2 0 3 -0.7 2.9
-3 0 -3 -1.6 3.2
3 0 3 0.9 3.7
3 0 3 -4.3 2.5
-4 0 -3 -7 4.2
4 0 3 3.4 2.8
4 0 3 -4.7 4
-5 0 -3 6.5 6
5 0 3 6.1 4.2
5 0 3 20.2 7.1
-6 0 -3 -23.6 10.8
6 0 3 0.6 7.7
6 -1 -3 514.85 23.6
6 -1 -3 485.15 43.4
6 -1 -3 500.95 24.6
5 -1 -3 136.19 11.6
5 -1 -3 131.19 23.1
5 -1 -3 140.09 12.1
-5 1 3 160.38 25.7
4 -1 -3 400.96 18
4 -1 -3 408.56 32.3
4 -1 -3 399.66 17.9
-4 1 3 366.26 29.4
3 -1 -3 67.39 5.6
3 -1 -3 58.19 12.9
3 -1 -3 64.49 5.4
-3 1 3 85.59 15.1
2 -1 -3 4165.68 80.69
2 -1 -3 4366.36 107.99
-2 1 3 4347.56 106.89
1 -1 -3 33.7 7
1 -1 -3 33 3.6
-1 1 3 32.5 3.5
0 -1 -3 -2.7 1.2
0 1 3 1.1 1.9
-1 -1 -3 601.74 27
-1 -1 -3 620.34 22.8
1 1 3 620.04 26.8
-2 -1 -3 494.25 27.3
-2 -1 -3 465.25 22.7
2 1 3 460.05 26.2
2 1 3 493.85 22.5
-3 -1 -3 106.79 16
3 1 3 97.39 15.3
3 1 3 102.59 11.3
-4 -1 -3 28.1 10.2
4 1 3 42 10.3
4 1 3 19.5 8.2
-5 -1 -3 30.3 11.2
5 1 3 42.7 10.7
5 1 3 83.39 15.7
6 1 3 145.49 23.5
6 -2 -3 24.6 7.4
6 -2 -3 33.8 12.4
5 -2 -3 52.29 9.3
5 -2 -3 66.89 10
5 -2 -3 63.19 17
-5 2 3 76.49 16.5
4 -2 -3 670.03 41.1
4 -2 -3 674.33 26.2
4 -2 -3 666.53 26.1
-4 2 3 660.23 39.3
3 -2 -3 43.1 10.7
3 -2 -3 39.4 6
-3 2 3 35.3 8.9
2 -2 -3 2658.73 57.99
2 -2 -3 2749.82 77.19
0 -2 -3 2152.98 54.89
0 2 3 2188.58 54.29
-1 -2 -3 7031 144.99
-1 -2 -3 6815.92 149.49
1 2 3 7264.47 149.99
-2 -2 -3 494.15 25.4
-2 -2 -3 530.95 28.6
2 2 3 525.95 25.1
2 2 3 473.45 26.8
-3 -2 -3 471.05 28.4
-3 -2 -3 480.45 30.3
3 2 3 493.05 30.3
-4 -2 -3 50.89 13.3
4 2 3 72.49 14.5
4 2 3 69.89 14
-5 -2 -3 -9.7 6.9
5 2 3 4.7 8.2
5 2 3 -3.3 5.9
6 2 3 33.2 12.3
6 -3 -3 128.49 13.6
6 -3 -3 75.09 18.1
6 -3 -3 109.29 19.2
5 -3 -3 474.85 37.7
5 -3 -3 465.95 25
4 -3 -3 5.2 3.7
4 -3 -3 12.4 7.3
3 -3 -3 513.35 31.8
3 -3 -3 493.25 21.4
2 -3 -3 866.11 28.1
2 -3 -3 908.11 38.5
0 -3 -3 2204.58 58.29
0 3 3 2210.98 57.69
-1 -3 -3 -2.6 1.5
-1 -3 -3 9.6 3.9
1 3 3 3.2 2.5
-2 -3 -3 1361.26 64.19
-2 -3 -3 1604.34 53.39
2 3 3 1519.45 53.69
2 3 3 1659.93 52.29
-3 -3 -3 15.4 6.2
-3 -3 -3 4.5 4.5
3 3 3 8.2 5.1
3 3 3 0.8 4.3
-4 -3 -3 76.99 15.9
4 3 3 108.09 17.4
4 3 3 90.89 16.6
-5 -3 -3 29.2 13.1
5 3 3 64.49 14.1
5 3 3 31.5 10.2
6 -4 -3 -1.6 8.4
6 -4 -3 14.8 6.5
6 -4 -3 1.2 5.8
5 -4 -3 9.1 4.9
5 -4 -3 -7 4
5 -4 -3 5.6 7.1
4 -4 -3 343.17 20.4
4 -4 -3 324.87 27.6
3 -4 -3 1117.99 49.3
3 -4 -3 1157.38 38.6
2 -4 -3 54.09 10.7
2 -4 -3 71.79 8.1
-2 4 3 64.09 9.8
1 -4 -3 7541.95 154.78
-1 4 3 7512.05 154.68
0 -4 -3 9.6 4.1
0 4 3 11.2 4.5
-1 -4 -3 4818.22 115.09
-1 -4 -3 4669.33 111.59
1 4 3 4424.66 124.59
-2 -4 -3 79.19 13.5
-2 -4 -3 76.29 13.3
2 4 3 77.89 13.2
2 4 3 78.19 12.9
-3 -4 -3 47.8 12
-3 -4 -3 53.89 12.8
3 4 3 56.59 12.1
3 4 3 66.99 13.4
-4 -4 -3 92.89 17.7
-4 -4 -3 117.29 20.1
4 4 3 144.49 18
4 4 3 107.99 17.9
5 4 3 312.77 28.9
5 4 3 264.27 32.5
6 4 3 110.69 22.2
6 -5 -3 20.9 8.5
6 -5 -3 35.6 10.1
6 -5 -3 54.39 15.6
5 -5 -3 364.16 31.8
5 -5 -3 354.26 24.1
4 -5 -3 493.05 26.7
4 -5 -3 448.76 32.6
3 -5 -3 442.46 29.8
3 -5 -3 501.25 25.6
2 -5 -3 124.59 12.1
-2 5 3 141.09 13
1 -5 -3 156.28 13.3
-1 5 3 159.58 13.4
0 -5 -3 1497.55 49.2
0 -5 -3 1470.95 49
0 5 3 1369.26 56.29
-1 -5 -3 602.14 30.3
-1 -5 -3 543.85 32.1
1 5 3 591.54 30
-2 -5 -3 299.67 23.2
-2 -5 -3 280.17 22.7
2 5 3 275.27 21.9
2 5 3 300.87 22.3
-3 -5 -3 1.6 4.4
-3 -5 -3 1.7 4.9
3 5 3 -1.6 4.1
3 5 3 2.8 3.2
-4 -5 -3 190.68 23.9
-4 -5 -3 240.78 24.4
4 5 3 195.98 22.1
4 5 3 214.38 22.6
5 5 3 142.69 23.7
6 5 3 -13.4 6.7
6 -6 -3 4.4 7.5
6 -6 -3 -10 9.2
6 -6 -3 2.9 6.8
5 -6 -3 29.6 10
4 -6 -3 44.3 13.2
4 -6 -3 26.5 8.3
3 -6 -3 5.2 6
3 -6 -3 -1.3 5.8
2 -6 -3 1533.45 52.19
-2 6 3 1637.94 54.79
1 -6 -3 19.3 6.4
-1 6 3 17.8 6.1
0 -6 -3 799.62 35.2
0 6 3 793.82 35.2
-1 -6 -3 2564.44 78.39
-1 -6 -3 2662.43 78.79
1 6 3 2700.43 78.49
-2 -6 -3 14.6 6.7
-2 -6 -3 28.4 9
2 6 3 7.1 6.2
2 6 3 15.9 6.3
-3 -6 -3 135.39 21.9
-3 -6 -3 142.49 17.9
3 6 3 144.99 17.6
3 6 3 110.19 18.6
-4 -6 -3 338.87 31.2
-4 -6 -3 346.27 30.1
4 6 3 315.47 27.2
4 6 3 372.26 31.2
-5 -6 -3 788.32 49.9
5 6 3 728.23 48.3
6 6 3 7.5 9.3
6 -7 -3 51.99 16.6
6 -7 -3 71.29 14.7
5 -7 -3 430.26 36.2
5 -7 -3 417.36 29.4
4 -7 -3 -1.6 5.3
4 -7 -3 -6.6 4.1
3 -7 -3 765.12 37.6
3 -7 -3 769.42 40.9
2 -7 -3 338.17 23.4
-2 7 3 380.56 25.8
1 -7 -3 199.68 17.6
-1 7 3 224.28 18.9
0 -7 -3 439.46 27.7
0 -7 -3 469.55 27.7
0 7 3 459.45 27.9
-1 -7 -3 26.5 7.9
-1 -7 -3 18.4 7.5
1 7 3 41.5 9.9
-2 -7 -3 1.7 4.8
-2 -7 -3 -1.9 3.9
2 7 3 -2.8 4.2
2 7 3 -2.3 4
-3 -7 -3 192.48 22.2
-3 -7 -3 177.48 20.8
3 7 3 209.28 42.5
3 7 3 170.08 20.3
-4 -7 -3 10.7 6.8
4 7 3 14.2 7.1
4 7 3 4.2 7.2
-5 -7 -3 25.6 12.4
5 7 3 27.3 12.6
5 -8 -3 75.39 18.1
5 -8 -3 82.59 16
4 -8 -3 618.44 36
4 -8 -3 644.94 40.8
3 -8 -3 7.7 6.4
3 -8 -3 9 5.9
2 -8 -3 467.05 29.1
-2 8 3 410.36 28.1
1 -8 -3 9.6 4.6
-1 8 3 10.8 5.8
0 -8 -3 1315.17 54.69
0 -8 -3 1319.47 52.99
0 8 3 1364.76 54.39
-1 -8 -3 125.19 16.2
-1 -8 -3 112.49 17.9
1 8 3 134.09 15.4
-2 -8 -3 888.71 46.9
-2 -8 -3 959.1 49.6
2 8 3 888.41 45.3
2 8 3 892.61 45.9
-3 -8 -3 -0.5 4.5
-3 -8 -3 22.2 8.7
3 8 3 11.7 6.6
3 8 3 11.8 6.4
-4 -8 -3 5.4 7.3
4 8 3 -0.9 6.2
-5 -8 -3 3.5 8.6
5 8 3 -0.4 5.4
5 -9 -3 51.09 13.8
5 -9 -3 40.2 12.2
4 -9 -3 340.07 28
4 -9 -3 360.56 30.4
3 -9 -3 338.57 27.7
3 -9 -3 355.96 29.2
2 -9 -3 72.49 14.4
-2 9 3 63.89 14.3
1 -9 -3 -3.7 3.1
1 -9 -3 4.6 4.2
-1 9 3 2.1 3.7
0 -9 -3 359.16 26.8
0 -9 -3 396.06 29.1
0 9 3 334.07 26.6
-1 -9 -3 862.61 45.8
-1 -9 -3 915.11 47
1 9 3 901.61 46.3
-2 -9 -3 10.3 5.7
-2 -9 -3 11.9 7.6
2 9 3 19.8 8.6
2 9 3 21.2 7
-3 -9 -3 3.5 6.1
3 9 3 17.2 8.2
3 9 3 10.9 7.2
-4 -9 -3 -2.8 5.8
4 9 3 -0.3 5.7
-5 -9 -3 377.86 36.5
5 9 3 362.36 35.4
5 -10 -3 24.4 11.7
4 -10 -3 -3.8 5.7
4 -10 -3 9 8.5
3 -10 -3 1.4 5.8
2 -10 -3 -0.4 5.3
2 -10 -3 8.7 6
-2 10 3 -1.2 3.8
1 -10 -3 1187.58 52.49
1 -10 -3 1298.87 57.19
0 -10 -3 88.99 16.7
0 -10 -3 54.79 13.6
0 10 3 71.49 15.2
-1 -10 -3 525.15 36.6
-1 -10 -3 446.26 33.9
1 10 3 486.85 34.8
-2 -10 -3 8.4 8.3
-2 -10 -3 2.6 6
2 10 3 6.1 6.6
2 10 3 -4.2 3.5
-3 -10 -3 703.43 46.4
3 10 3 655.53 43.8
-4 -10 -3 103.59 21.1
4 10 3 95.99 21.1
-5 -10 -3 2.2 12.5
5 10 3 -12.3 8.9
5 -11 -3 45.7 13.3
5 -11 -3 4.5 10.9
4 -11 -3 16.5 9.3
4 -11 -3 7 8.3
3 -11 -3 49.1 13.7
2 -11 -3 948.21 48.7
2 -11 -3 962.1 51.69
-2 11 3 939.91 52.09
1 -11 -3 8.6 7
1 -11 -3 6.2 6.6
-1 11 3 11 7.7
0 -11 -3 3.2 6.9
0 -11 -3 2.6 5.6
0 11 3 12.2 7.5
-1 -11 -3 8.4 6
-1 -11 -3 -0.6 5.2
1 11 3 -0.5 8.8
-2 -11 -3 66.89 20
2 11 3 60.69 15.5
-3 -11 -3 129.29 22.9
3 11 3 113.19 21.8
-4 -11 -3 26.9 10.4
4 11 3 33.4 12.9
4 -12 -3 26.8 11.7
4 -12 -3 25.3 11.3
3 -12 -3 592.04 38.2
3 -12 -3 639.44 43.7
2 -12 -3 47.1 16.9
2 -12 -3 41 10.3
1 -12 -3 305.07 35.1
1 -12 -3 284.77 26.3
0 -12 -3 16.6 10.2
-1 -12 -3 199.88 24
-2 -12 -3 188.38 23.7
-3 -12 -3 21.4 11.2
3 12 3 23.4 9.6
-4 -12 -3 240.38 27.7
4 12 3 219.58 28.3
4 -13 -3 133.59 24.7
4 -13 -3 91.89 19.7
3 -13 -3 66.09 18.5
2 -13 -3 42 13.3
1 -13 -3 6 5.6
0 -13 -3 49.4 14.7
-1 -13 -3 -3 7.7
-2 -13 -3 43.1 12.8
-3 -13 -3 38.6 15.3
3 13 3 14.4 9.9
-4 -13 -3 154.58 28.3
4 13 3 100.79 21.4
3 -14 -3 113.19 23.4
2 -14 -3 33.6 15.1
1 -14 -3 49.5 15.1
0 -14 -3 288.27 31.6
-1 -14 -3 -5.1 6.7
-2 -14 -3 479.55 41.8
-3 -14 -3 3.5 9.9
3 -15 -3 36.2 12.6
2 -15 -3 154.88 25.9
1 -15 -3 -12.1 6.8
0 -15 -3 23.1 12.1
-1 -15 -3 49.7 15.7
-2 -15 -3 0.9 6.7
1 -16 -3 87.19 19.6
0 -16 -3 32.4 13.8
-1 -16 -3 -28.2 16.2
1 16 -4 75.39 16.9
-1 -16 4 97.29 21.6
0 -16 4 -24.3 10.6
1 -16 4 26.6 11.8
1 -16 4 3.7 10.1
2 15 -4 26.2 9.7
-2 -15 4 1.9 10.2
1 15 -4 32.1 10.3
-1 -15 4 2.2 7.8
0 -15 4 22.3 10.1
1 -15 4 6.4 8.8
1 -15 4 9.2 10.1
2 -15 4 20.7 10.3
3 14 -4 244.68 28.1
-3 -14 4 179.78 28.1
2 14 -4 14.4 10.5
-2 -14 4 21 9.6
1 14 -4 -0.6 6
-1 -14 4 -4.1 6.4
0 14 -4 137.69 17.4
0 -14 4 102.39 20.9
0 -14 4 110.29 19.7
1 -14 4 43 14.8
1 -14 4 53.09 14.4
2 -14 4 90.69 14.1
2 -14 4 115.29 22.7
4 13 -4 35.1 11.8
-4 -13 4 43.8 14.7
3 13 -4 23.7 13
-3 -13 4 67.49 14.6
2 13 -4 66.49 15.3
-2 -13 4 78.29 17.9
1 13 -4 19.3 8
-1 -13 4 8.9 11.3
-1 -13 4 15.1 8.6
0 13 -4 221.88 21.1
0 -13 4 193.88 29.1
0 -13 4 175.08 23.3
1 -13 4 328.17 33.7
1 -13 4 330.17 26.5
2 -13 4 107.19 23.6
3 -13 4 -10.9 8.4
4 12 -4 14.9 9.7
-4 -12 4 9 9.3
3 12 -4 1.5 7.2
-3 -12 4 16.8 9
2 12 -4 112.29 20.4
-2 -12 4 114.79 20.6
1 12 -4 293.37 26.3
-1 -12 4 339.77 30.3
-1 -12 4 273.97 27.2
0 12 -4 277.57 22.4
0 -12 4 253.17 25.1
0 -12 4 273.97 30
1 -12 4 25.2 8.3
1 -12 4 4.4 7.4
2 -12 4 272.17 30.8
2 -12 4 292.07 18.8
3 -12 4 33.5 11.5
4 -12 4 22.1 13.2
5 11 -4 -14.2 11
-5 -11 4 22.2 10.3
4 11 -4 20.9 11.1
4 11 -4 21.2 12.9
-4 -11 4 32.9 11.1
3 11 -4 29.6 10.9
3 11 -4 30 11.5
-3 -11 4 21.9 10.9
2 11 -4 -1.3 7
2 11 -4 4.6 5.7
-2 -11 4 2.7 6.1
1 11 -4 173.38 18.8
-1 -11 4 219.88 23.1
-1 -11 4 178.28 22.4
0 11 -4 8.7 5.8
0 -11 4 18.5 9
0 -11 4 11.4 6.8
1 -11 4 62.39 15.5
1 -11 4 77.29 13.1
2 -11 4 0.4 6.5
2 -11 4 0.9 4
3 -11 4 -2.7 6.9
4 -11 4 -7.8 7.9
5 10 -4 4.6 8.3
-5 -10 4 36.9 10.5
4 10 -4 29.3 9.8
4 10 -4 53.29 13.2
-4 -10 4 34.9 9.8
3 10 -4 54.39 14.9
3 10 -4 48.9 11.8
-3 -10 4 64.99 13.8
2 10 -4 347.67 29
2 10 -4 354.46 30.4
-2 -10 4 387.26 33
-2 -10 4 334.17 26.5
1 10 -4 3.3 4.5
-1 -10 4 4.8 5.6
-1 -10 4 23.1 8.4
0 10 -4 340.27 23.2
0 -10 4 337.47 26.3
0 -10 4 363.36 29.6
1 -10 4 -0.8 5.3
1 -10 4 -6.9 3.7
2 -10 4 19.5 9.8
3 -10 4 630.84 45.9
4 -10 4 62.69 16
5 -10 4 26.7 11.6
5 9 -4 8.5 9.1
5 9 -4 -5.8 6.7
-5 -9 4 -0.4 7.1
4 9 -4 233.28 21.7
4 9 -4 256.37 31
-4 -9 4 257.07 22.7
3 9 -4 264.97 28.3
3 9 -4 232.28 21.8
-3 -9 4 257.37 22.5
2 9 -4 690.43 41.9
2 9 -4 679.83 39
-2 -9 4 727.93 38.6
1 9 -4 273.07 23.2
-1 -9 4 315.97 25.5
-1 -9 4 274.37 25.3
0 -9 4 10.1 6.4
0 -9 4 11.7 6.9
1 -9 4 551.64 37.6
1 -9 4 566.44 26.7
2 -9 4 12.2 7.1
3 -9 4 136.59 25
4 -9 4 500.05 42.6
5 -9 4 3.3 8.8
5 8 -4 142.69 16.9
5 8 -4 115.49 26.2
-5 -8 4 163.38 17.8
4 8 -4 9.2 8.2
4 8 -4 17.3 7.4
-4 -8 4 13.1 5.9
3 8 -4 302.37 29.3
3 8 -4 307.87 23.4
-3 -8 4 251.57 28.9
-3 -8 4 295.67 22.8
2 8 -4 156.88 17.4
2 8 -4 173.28 20.1
-2 -8 4 135.09 22.6
-2 -8 4 144.79 15.7
1 8 -4 71.29 14.1
-1 -8 4 74.69 13.3
-1 -8 4 57.09 12.9
0 8 -4 8.4 4.3
0 -8 4 -0.3 4.3
0 -8 4 2.7 4
-1 8 -4 800.92 27.5
1 -8 4 753.02 29.3
1 -8 4 785.32 43.4
2 -8 4 188.68 22
3 -8 4 847.42 51.49
4 -8 4 184.88 29.6
5 -8 4 -10.6 7.7
6 7 -4 302.67 36
6 7 -4 251.47 31.7
5 7 -4 83.49 14.1
5 7 -4 101.09 22.7
-5 -7 4 97.89 14.6
4 7 -4 -0.7 4.6
4 7 -4 0.7 6.2
-4 -7 4 -10.9 3.7
3 7 -4 61.99 12.2
3 7 -4 83.79 18.3
-3 -7 4 96.09 14.3
-3 -7 4 62.59 17.1
2 7 -4 547.45 30.1
2 7 -4 534.25 34.8
-2 -7 4 509.35 34.6
-2 -7 4 500.35 27.7
1 7 -4 -3.5 3.7
-1 -7 4 0.6 3.6
-1 -7 4 -1.3 3.8
0 7 -4 8.5 4.6
0 -7 4 23.3 6.4
0 -7 4 18.5 7.4
-1 7 -4 1278.67 34.4
1 -7 4 1228.98 36.8
1 -7 4 1194.88 53.49
2 -7 4 434.56 33.1
6 6 -4 26.5 13.3
5 6 -4 51.49 10
5 6 -4 72.29 20.5
-5 -6 4 80.69 12.6
4 6 -4 4.5 11.9
-4 -6 4 2.3 4
3 6 -4 373.26 33.5
3 6 -4 405.06 33.2
-3 -6 4 412.56 42.9
-3 -6 4 446.26 23.7
2 6 -4 229.88 22.4
-2 -6 4 231.88 22.8
-2 -6 4 229.48 16.8
1 6 -4 687.13 34.9
-1 -6 4 685.83 35.4
-1 -6 4 760.72 33.7
0 6 -4 10.1 4.7
0 -6 4 19.4 7.4
0 -6 4 13.6 5.6
-1 6 -4 -1.8 1.4
1 -6 4 2.1 4
1 -6 4 -1.7 1.3
6 5 -4 1.9 4.4
6 5 -4 -0.2 6
5 5 -4 92.09 22.2
5 5 -4 133.99 12.6
4 5 -4 571.94 43.6
4 5 -4 511.25 24
-4 -5 4 485.35 24
3 5 -4 51.79 9
3 5 -4 54.29 14
-3 -5 4 49.8 8.4
-3 -5 4 49.4 13.8
2 5 -4 3826.32 90.19
2 5 -4 3696.33 106.29
-2 -5 4 3636.84 86.89
-2 -5 4 3544.95 105.29
1 5 -4 3504.35 92.89
-1 -5 4 3338.07 92.29
-1 -5 4 3451.85 86.09
0 5 -4 457.25 22
0 -5 4 480.65 27.1
0 -5 4 494.55 23.4
-1 5 -4 360.46 12.4
1 -5 4 369.86 13.2
5 -5 4 285.27 12.8
6 -5 4 64.69 8
6 4 -4 135.59 9.9
6 4 -4 172.38 31.4
5 4 -4 231.38 13.9
5 4 -4 194.08 31.6
4 4 -4 26.3 5.7
4 4 -4 42.9 13.3
-4 -4 4 17.2 4.6
-4 -4 4 10.6 8.5
3 4 -4 41.3 12.8
3 4 -4 41.2 6.9
-3 -4 4 38.7 6.5
-3 -4 4 29.4 10.6
2 4 -4 1677.13 62.79
-2 -4 4 1629.04 44.9
-2 -4 4 1675.93 62.79
1 4 -4 1560.04 53.19
-1 -4 4 1557.64 46.7
-1 -4 4 1557.84 53.29
0 4 -4 284.17 16.3
0 -4 4 288.07 16.5
-1 4 -4 459.85 13.4
4 -4 4 422.26 16.4
5 -4 4 35.2 7.3
6 -4 4 103.59 18.8
6 3 -4 83.19 21.9
5 3 -4 46 14.4
4 3 -4 23.2 11
4 3 -4 25.3 4.3
-4 -3 4 27.2 10.3
3 3 -4 0.4 3
-3 -3 4 -2.3 1.2
2 3 -4 375.06 26.6
-2 -3 4 310.57 13.8
-2 -3 4 325.77 24.6
1 3 -4 70.29 11.8
-1 -3 4 60.79 7.3
-1 -3 4 60.39 10.8
0 3 -4 1238.18 37.8
0 -3 4 1228.78 37.3
-1 3 -4 631.04 17.5
-3 3 -4 212.28 11
-4 3 -4 1006.8 34.7
4 -3 4 938.71 31.9
4 -3 4 953.6 51.79
-5 3 -4 35 13.5
5 -3 4 43.5 8.9
-6 3 -4 6.9 9.2
6 -3 4 9.6 6.9
6 2 -4 -18 9.3
5 2 -4 906.11 21.8
5 2 -4 874.81 56.59
4 2 -4 172.88 22.9
4 2 -4 167.38 6.7
-4 -2 4 143.89 23.6
3 2 -4 397.96 30.5
-3 -2 4 430.36 31.4
2 2 -4 0.9 3.3
-2 -2 4 2.8 1.5
-2 -2 4 3.9 3.5
1 2 -4 2284.67 65.89
-1 -2 4 2278.37 65.39
0 2 -4 5411.56 112.19
0 -2 4 5098.19 109.59
-1 2 -4 5992.6 115.69
-2 2 -4 1769.12 41.3
-3 2 -4 5.2 3
3 -2 4 -1.9 1.8
3 -2 4 2.4 4.5
-4 2 -4 87.29 11.2
4 -2 4 43.9 12.6
4 -2 4 58.79 9.4
-5 2 -4 69.39 13.4
5 -2 4 65.69 11.7
-6 2 -4 9.7 8.7
6 -2 4 -5.6 5.4
6 1 -4 550.44 47.3
4 1 -4 386.36 33.1
-4 -1 4 352.26 38.2
3 1 -4 163.38 19.4
-3 -1 4 158.68 18
2 1 -4 2141.39 75.29
-2 -1 4 2378.06 74.39
1 1 -4 2732.83 74.79
-1 -1 4 2780.72 73.49
0 1 -4 339.07 17
-2 1 -4 780.12 26
2 -1 4 769.02 37.5
-3 1 -4 380.46 20.8
3 -1 4 360.96 18.6
3 -1 4 337.87 26.4
-4 1 -4 11.5 5.4
4 -1 4 11.5 5.1
-5 1 -4 136.79 17.9
5 -1 4 144.89 15.9
-6 1 -4 14.9 10.7
6 -1 4 43.9 10.2
6 0 -4 694.83 52.79
5 0 -4 355.66 34.7
4 0 -4 90.29 19
-4 0 4 125.59 16.7
3 0 -4 76.09 14.9
-3 0 4 118.59 15.8
2 0 -4 2116.79 68.69
-2 0 4 2075.79 66.99
1 0 -4 30.4 7.2
-1 0 4 31.1 3.9
0 0 4 2282.67 58.29
-1 0 -4 98.79 8.1
1 0 4 96.19 11.2
-2 0 -4 87.89 9.1
2 0 4 93.29 14.6
-3 0 -4 462.75 25.1
3 0 4 482.35 30.8
3 0 4 464.35 23.5
-4 0 -4 430.26 27.2
4 0 4 413.36 25.2
4 0 4 448.46 40
-5 0 -4 270.87 24.9
5 0 4 283.97 23
-6 0 -4 2.9 11.9
6 0 4 33.9 11.7
6 -1 -4 546.15 46
5 -1 -4 248.28 29
5 -1 -4 281.27 10.8
5 -1 -4 270.37 10.7
4 -1 -4 349.96 10.5
4 -1 -4 346.17 30.7
4 -1 -4 345.57 10.4
-4 1 4 384.36 30.4
3 -1 -4 158.58 18.7
-3 1 4 142.39 17.1
2 -1 -4 2341.07 73.19
2 -1 -4 2210.38 44.3
-2 1 4 2329.37 70.79
1 -1 -4 2697.93 59.69
1 -1 -4 2731.33 72.99
-1 1 4 2632.64 58.39
0 -1 -4 329.67 17.6
0 1 4 310.97 17
-1 -1 -4 8988.7 174.58
-1 -1 -4 8708.13 185.08
1 1 4 8609.84 183.88
-2 -1 -4 751.32 30.5
2 1 4 779.02 29.7
2 1 4 798.82 37.5
-3 -1 -4 404.26 24.7
3 1 4 391.76 22.7
3 1 4 373.76 27.3
-4 -1 -4 23.8 9.1
4 1 4 14.4 9.5
4 1 4 14.8 6.9
-5 -1 -4 128.19 20.1
5 1 4 106.39 17.5
-6 -1 -4 -17.9 12.2
6 1 4 18 8.3
6 -2 -4 3.7 2.9
6 -2 -4 8.3 3.4
6 -2 -4 11.5 10
5 -2 -4 865.71 53.69
5 -2 -4 898.21 27.2
5 -2 -4 912.71 27.5
4 -2 -4 168.38 20.7
4 -2 -4 155.78 9.1
4 -2 -4 169.98 9.7
-4 2 4 162.38 19.6
3 -2 -4 359.26 27.8
3 -2 -4 387.26 13.7
2 -2 -4 -2.7 2.2
2 -2 -4 2.9 1.7
-2 2 4 1.9 1.6
1 -2 -4 2329.57 55.69
-1 2 4 2315.27 54.79
0 -2 -4 5334.37 116.49
0 2 4 5225.08 114.69
-1 -2 -4 5947.6 137.39
-1 -2 -4 6285.27 131.19
1 2 4 6079.29 137.09
-2 -2 -4 1773.22 55.49
-2 -2 -4 1775.72 62.39
2 2 4 1748.23 60.89
2 2 4 1825.12 53.89
-3 -2 -4 6.3 4.4
3 2 4 -1.9 3.3
3 2 4 6.1 4.1
-4 -2 -4 72.49 15.6
4 2 4 75.49 13.9
4 2 4 98.79 22
-5 -2 -4 72.59 16.8
5 2 4 39.6 11.7
6 2 4 12 9.6
6 -3 -4 91.69 8.6
6 -3 -4 69.99 8.3
6 -3 -4 106.29 21.5
5 -3 -4 30.9 12.5
5 -3 -4 37.9 6.6
5 -3 -4 26.3 5.9
4 -3 -4 21.5 4.9
4 -3 -4 10.7 7.8
3 -3 -4 2.6 1.5
3 -3 -4 1 3.5
2 -3 -4 329.17 23.7
2 -3 -4 350.26 16.1
-2 3 4 330.57 16.1
1 -3 -4 55.99 7.1
-1 3 4 64.09 7.5
0 -3 -4 1214.38 41.1
0 3 4 1190.78 39.8
-1 -3 -4 689.53 30
-1 -3 -4 644.84 31.9
1 3 4 675.53 31.8
-2 -3 -4 1270.07 47
-2 -3 -4 1226.18 49.99
2 3 4 1201.28 48.6
2 3 4 1219.28 44.2
-3 -3 -4 199.68 19.7
-3 -3 -4 211.98 21.4
3 3 4 214.78 20.4
3 3 4 192.28 18
-4 -3 -4 949.4 49.4
4 3 4 1004.9 51.69
4 3 4 971.3 46.6
-5 -3 -4 34.7 10.7
5 3 4 59.89 14.8
6 3 4 6.9 8.9
6 -4 -4 125.19 26.7
6 -4 -4 157.98 13.6
5 -4 -4 233.18 16.2
5 -4 -4 264.37 28.1
5 -4 -4 194.78 15.6
4 -4 -4 37 11.9
4 -4 -4 23.1 6.1
3 -4 -4 59.99 13.2
3 -4 -4 26.5 6
2 -4 -4 1579.54 57.89
2 -4 -4 1560.24 45.6
-2 4 4 1611.24 47
1 -4 -4 1514.65 46.1
-1 4 4 1462.45 44.8
0 -4 -4 278.27 18.8
0 4 4 268.77 17.9
-1 -4 -4 450.15 25.4
-1 -4 -4 428.36 28.5
1 4 4 471.05 26.3
-2 -4 -4 435.46 28.6
-2 -4 -4 425.56 26.9
2 4 4 403.16 26.8
2 4 4 404.36 25
-3 -4 -4 176.98 19.5
-3 -4 -4 168.38 18.3
3 4 4 131.29 16.6
3 4 4 121.39 14.9
-4 -4 -4 420.06 34.5
-4 -4 -4 469.85 34.9
4 4 4 466.95 34.1
4 4 4 448.86 31.8
5 4 4 41.1 13.7
6 4 4 123.89 22.2
6 -5 -4 6.6 6.6
6 -5 -4 -17.3 6.3
5 -5 -4 130.39 23.3
5 -5 -4 118.69 12.9
4 -5 -4 528.25 26.3
4 -5 -4 530.05 37.8
3 -5 -4 49.99 9.1
3 -5 -4 51.79 13
2 -5 -4 3596.94 88.19
-2 5 4 3669.53 90.39
1 -5 -4 3566.84 89.99
-1 5 4 3652.23 89.99
0 -5 -4 447.96 25.7
0 5 4 491.05 26.1
-1 -5 -4 381.96 25.5
-1 -5 -4 386.06 24.8
1 5 4 374.36 24.5
-2 -5 -4 200.48 20.1
-2 -5 -4 158.38 17.3
2 5 4 177.28 18.1
2 5 4 171.88 17
-3 -5 -4 227.38 21.8
-3 -5 -4 200.08 22
3 5 4 177.68 18.6
3 5 4 198.88 20.3
-4 -5 -4 6 4
-4 -5 -4 -3.5 7
4 5 4 9.1 7.1
4 5 4 14 6.1
5 5 4 261.77 27.3
6 5 4 69.49 17.2
6 -6 -4 28 9.6
6 -6 -4 42.4 9.6
6 -6 -4 38.1 16
5 -6 -4 43.9 10.3
5 -6 -4 52.99 15.6
4 -6 -4 -2.3 4.5
4 -6 -4 -2.9 4.3
3 -6 -4 521.95 34.3
3 -6 -4 444.66 25.2
2 -6 -4 253.17 18.3
-2 6 4 209.38 17.6
1 -6 -4 667.33 32.7
-1 6 4 709.93 32.9
0 -6 -4 25.3 8
0 -6 -4 19.3 6.8
0 6 4 22.4 7.2
-1 -6 -4 6.1 4.8
-1 -6 -4 0.8 3.2
1 6 4 2.7 4.1
-2 -6 -4 3108.59 96.79
-2 -6 -4 2969.4 93.99
2 6 4 3201.28 95.59
2 6 4 3133.99 92.09
-3 -6 -4 62.79 14.3
-3 -6 -4 32.5 11.5
3 6 4 55.09 12.9
-4 -6 -4 403.36 34.7
-4 -6 -4 381.06 32.6
4 6 4 393.16 32.2
-5 -6 -4 39.6 12
5 6 4 22.5 10.1
6 -7 -4 279.87 23
6 -7 -4 308.67 33.9
5 -7 -4 98.99 21.6
5 -7 -4 86.29 14.3
4 -7 -4 22.1 9.5
4 -7 -4 -2.1 4.3
3 -7 -4 80.69 13.1
3 -7 -4 78.89 15.7
2 -7 -4 552.34 29.9
-2 7 4 474.05 28.9
1 -7 -4 -0.1 3
-1 7 4 6.3 4
0 -7 -4 13.5 6.8
0 -7 -4 11.9 6.4
0 7 4 26 7.5
-1 -7 -4 1277.47 55.09
-1 -7 -4 1255.17 53.59
1 7 4 1355.86 53.89
-2 -7 -4 467.05 33.3
-2 -7 -4 493.85 33.8
2 7 4 476.55 31.9
2 7 4 499.85 33.4
-3 -7 -4 291.57 27.7
-3 -7 -4 264.97 26.6
3 7 4 270.67 24.5
3 7 4 313.67 27.7
4 7 4 -1.2 6
-5 -7 -4 52.19 14.7
5 7 4 40.4 14.1
5 -8 -4 111.49 26.5
5 -8 -4 118.39 18.2
4 -8 -4 11 8.6
4 -8 -4 17.9 7.4
3 -8 -4 285.67 23
3 -8 -4 338.97 29
2 -8 -4 160.98 16.2
-2 8 4 139.99 16.1
1 -8 -4 60.19 12.7
-1 8 4 85.69 14.7
0 -8 -4 8.5 5.4
0 -8 -4 1.2 4.2
0 8 4 -2.8 3.2
-1 -8 -4 781.32 42.1
-1 -8 -4 772.32 42
1 8 4 777.92 41.6
-2 -8 -4 200.98 21.8
-2 -8 -4 159.28 20
2 8 4 174.58 20.3
2 8 4 168.68 19.8
-3 -8 -4 987.6 53.89
-3 -8 -4 835.62 54.19
3 8 4 910.61 49.7
3 8 4 890.71 49.8
-4 -8 -4 208.88 25.6
4 8 4 164.98 21.9
-5 -8 -4 4.5 9
5 8 4 13.4 9.1
5 -9 -4 -8 6.7
5 -9 -4 -3.8 5.9
4 -9 -4 245.28 23.8
4 -9 -4 215.48 25.4
3 -9 -4 277.17 26.4
3 -9 -4 231.78 22.7
2 -9 -4 690.13 38.3
-2 9 4 655.53 38.2
1 -9 -4 261.37 23.2
1 -9 -4 279.97 23.9
-1 9 4 271.47 23.4
0 -9 -4 16.1 7.7
0 -9 -4 23.8 8.7
0 9 4 14.1 6.9
-1 -9 -4 629.54 39.7
-1 -9 -4 581.64 46.3
1 9 4 579.74 38.7
-2 -9 -4 4.6 6.7
-2 -9 -4 -1.7 3.2
2 9 4 14.1 5.5
3 9 4 100.69 20.1
-4 -9 -4 510.35 40.1
4 9 4 480.05 39.1
-5 -9 -4 -4.2 8.7
5 -10 -4 4.8 7.7
5 -10 -4 -3 10.2
4 -10 -4 13.3 8.1
4 -10 -4 8.3 8.2
3 -10 -4 28.7 11.9
2 -10 -4 377.26 29.4
-2 10 4 354.06 29.4
1 -10 -4 4.2 7
1 -10 -4 0.5 5.8
-1 10 4 14.4 7.8
0 -10 -4 335.27 28.2
0 -10 -4 364.06 29.7
0 10 4 328.77 28
-1 -10 -4 -5.5 5.6
-1 -10 -4 -1.6 4.8
1 10 4 0.7 4
-2 -10 -4 6.1 5.9
-3 -10 -4 615.34 45.5
3 10 4 650.53 44.5
-4 -10 -4 104.39 21.1
4 10 4 94.19 19.8
-5 -10 -4 41 15.3
5 -11 -4 5.1 9.8
5 -11 -4 10.9 8.6
4 -11 -4 44.8 18
3 -11 -4 48.1 13.1
2 -11 -4 7.5 5.6
2 -11 -4 -1.3 5.1
-2 11 4 -1.9 6.1
1 -11 -4 178.38 20.3
1 -11 -4 172.08 21.6
-1 11 4 189.08 20.8
0 -11 -4 16.3 8.3
0 -11 -4 17.7 9.1
0 11 4 22 9.8
-1 -11 -4 93.39 18.7
-2 -11 -4 17 8.3
-3 -11 -4 -11.9 5.1
3 11 4 8.6 8
-4 -11 -4 9.4 7.7
4 -12 -4 3.8 8.3
4 -12 -4 5 8.9
3 -12 -4 18.1 9.1
2 -12 -4 111.39 20
1 -12 -4 296.77 36.7
0 -12 -4 299.27 29.1
-1 -12 -4 21.5 10.5
-2 -12 -4 328.57 31.5
-3 -12 -4 18.3 10.1
-4 -12 -4 10.2 9.4
4 12 4 -2.2 11.5
4 -13 -4 15.7 13.7
4 -13 -4 61.99 18
3 -13 -4 32.7 11.9
2 -13 -4 47 14.9
1 -13 -4 13.3 7.7
0 -13 -4 176.78 28.5
-1 -13 -4 327.67 32.8
-2 -13 -4 141.49 25.6
-3 -13 -4 -5.4 8.6
3 -14 -4 155.88 24
2 -14 -4 15.5 8.7
1 -14 -4 1.8 6.7
0 -14 -4 118.59 24.1
-1 -14 -4 46.9 12.4
-2 -14 -4 141.39 27.1
-3 -14 -4 8.6 11.1
2 -15 -4 53.39 14.9
1 -15 -4 36.9 11.6
0 -15 -4 9.9 11.7
-1 -15 -4 27.4 10.7
-1 -16 -4 40.2 11.4
1 16 -5 127.69 23
-1 -16 5 160.78 49.6
0 -16 5 13.3 7.8
2 15 -5 235.18 28.6
-2 -15 5 275.67 31.8
1 15 -5 7.3 7.3
-1 -15 5 15.7 8
0 -15 5 144.79 21.7
0 -15 5 116.89 22.6
1 -15 5 2 10.2
1 -15 5 -4.2 9.3
2 -15 5 57.09 15.5
3 14 -5 9 10.1
-3 -14 5 -5.7 11.7
2 14 -5 78.49 18.7
-2 -14 5 37.4 12.4
1 14 -5 11.1 5.6
-1 -14 5 -11.1 5.6
0 14 -5 5.7 4.5
0 -14 5 14.7 8.4
0 -14 5 17.1 9.6
1 -14 5 28.4 13.3
1 -14 5 33.7 10.4
2 -14 5 125.79 24.9
2 -14 5 153.58 13.8
3 -14 5 -2 8.7
3 13 -5 14.2 9
-3 -13 5 11.8 8.5
2 13 -5 6.3 6.3
-2 -13 5 -1.1 6
1 13 -5 2.7 6.3
-1 -13 5 -7.1 6.5
-1 -13 5 -16.5 7.7
0 13 -5 14.6 7.3
0 -13 5 5.9 8.4
0 -13 5 0.3 6
1 -13 5 18.3 7.8
1 -13 5 28.4 9.6
2 -13 5 65.99 17
2 -13 5 85.09 10.2
3 -13 5 21.1 16.6
4 12 -5 61.59 17.4
3 12 -5 158.58 26.8
-3 -12 5 180.38 22
2 12 -5 57.69 15.3
-2 -12 5 38.7 11.9
1 12 -5 362.56 28.9
-1 -12 5 407.56 34.2
0 12 -5 1.6 3.7
0 -12 5 5.1 6.6
0 -12 5 -10.9 5.9
1 -12 5 239.68 20.1
1 -12 5 251.47 27.9
2 -12 5 169.58 11.8
2 -12 5 131.39 25.5
3 -12 5 13.8 11.4
4 11 -5 51.69 17
4 11 -5 65.99 16.2
-4 -11 5 70.79 14.7
3 11 -5 11.8 7
3 11 -5 21.1 8.1
-3 -11 5 25.9 10.3
2 11 -5 421.76 34.1
-2 -11 5 453.55 33.4
1 11 -5 103.59 18.6
-1 -11 5 97.69 17.6
-1 -11 5 72.29 16.9
0 11 -5 672.43 35.1
0 -11 5 620.34 36.5
0 -11 5 607.54 41.4
1 -11 5 51.19 11.9
1 -11 5 39.7 12.3
2 -11 5 316.07 13.2
2 -11 5 336.07 33.9
3 -11 5 3 8.5
4 -11 5 51.09 15.1
5 10 -5 11.1 7.2
5 10 -5 8.1 11.8
-5 -10 5 26.7 10.5
4 10 -5 16.4 8.1
4 10 -5 10.3 9
-4 -10 5 3.6 6.3
3 10 -5 746.43 41.9
3 10 -5 712.53 49.4
-3 -10 5 688.83 39.5
2 10 -5 35.9 11.8
-2 -10 5 52.99 12.9
-2 -10 5 61.29 15
1 10 -5 3.4 6.3
-1 -10 5 26.8 9.5
-1 -10 5 6 8.9
0 10 -5 190.38 17.3
0 -10 5 196.18 22.5
0 -10 5 186.08 18.5
1 -10 5 1.8 4.8
1 -10 5 -2.7 3.5
2 -10 5 -3.3 4.9
3 -10 5 234.68 29.3
4 -10 5 236.48 29.1
5 9 -5 -9.1 7.3
5 9 -5 7.1 10.3
-5 -9 5 5.2 7.4
4 9 -5 105.19 16.2
4 9 -5 80.49 19.7
-4 -9 5 92.49 15.3
3 9 -5 21.2 12.6
-3 -9 5 16.7 7
2 9 -5 1971.4 77.69
-2 -9 5 1963 68.79
-2 -9 5 1907.61 79.39
1 9 -5 257.87 23.2
-1 -9 5 249.88 23.7
-1 -9 5 281.07 24.7
0 9 -5 1617.24 77.39
0 -9 5 1728.23 60.79
0 -9 5 1811.92 70.59
-1 9 -5 -0.5 2.5
1 -9 5 -4.3 4.6
1 -9 5 1.4 3.7
2 -9 5 22.5 9.3
3 -9 5 21.3 10.4
4 -9 5 -5.4 7.3
5 -9 5 116.19 24.6
5 8 -5 -21.9 7.8
5 8 -5 -2.3 6.5
-5 -8 5 -6.7 5.5
4 8 -5 334.77 34.4
4 8 -5 266.47 22.2
-4 -8 5 289.27 21.8
3 8 -5 715.03 47.3
3 8 -5 692.43 36.2
-3 -8 5 715.53 35.6
-3 -8 5 564.54 54.29
2 8 -5 97.89 17.8
-2 -8 5 98.39 19.2
-2 -8 5 104.49 13.2
1 8 -5 1490.55 58.49
-1 -8 5 1517.05 57.89
-1 -8 5 1476.75 60.09
0 8 -5 19.9 6.3
0 -8 5 23.8 7.2
0 -8 5 17.2 7.9
-1 8 -5 87.79 8.1
1 -8 5 90.69 18.1
1 -8 5 85.39 9
2 -8 5 262.97 27
5 7 -5 10.1 10.7
5 7 -5 15.6 9.7
-5 -7 5 28.9 7.2
4 7 -5 40.3 9.2
4 7 -5 7.1 7.9
-4 -7 5 27 7.6
3 7 -5 700.83 33.8
3 7 -5 718.03 46.1
-3 -7 5 737.73 49.1
2 7 -5 8.7 6.8
-2 -7 5 3.5 3.9
-2 -7 5 4.5 4.4
1 7 -5 395.76 27.1
-1 -7 5 411.76 28.5
-1 -7 5 418.36 26.5
0 7 -5 406.36 23
0 -7 5 333.87 25.5
0 -7 5 388.76 23.4
-1 7 -5 97.69 7.9
1 -7 5 63.49 15
1 -7 5 107.99 8.8
6 6 -5 17.8 11.7
5 6 -5 102.49 22.8
4 6 -5 1016.4 60.29
4 6 -5 911.71 35.5
-4 -6 5 879.71 34.6
3 6 -5 37.5 12
-3 -6 5 25.9 10.6
-3 -6 5 28.2 7.4
2 6 -5 57.79 13.5
-2 -6 5 32.9 7.5
-2 -6 5 48.1 11.3
1 6 -5 923.61 41.9
-1 -6 5 934.21 42.7
-1 -6 5 812.42 39.6
0 6 -5 277.47 18
0 -6 5 258.97 18.4
0 -6 5 303.47 23.3
-1 6 -5 116.09 7.6
1 -6 5 114.19 8.1
6 5 -5 70.99 22.5
5 5 -5 13.2 10
4 5 -5 16.2 11.6
-4 -5 5 41.2 6.9
3 5 -5 5.8 6.6
-3 -5 5 9.8 4.1
2 5 -5 659.83 39.2
-2 -5 5 678.03 28.1
-2 -5 5 679.13 39.4
1 5 -5 270.47 21.1
-1 -5 5 262.77 20.9
-1 -5 5 274.37 19.2
0 5 -5 522.25 25.1
0 -5 5 560.94 26.2
-1 5 -5 296.77 12.4
6 4 -5 19.9 11.5
5 4 -5 415.96 40.4
4 4 -5 -6.7 5.3
3 4 -5 23.8 10.3
-3 -4 5 11.2 5.9
-3 -4 5 26.9 4.9
2 4 -5 2455.35 82.39
-2 -4 5 2589.54 61.99
-2 -4 5 2415.06 81.79
1 4 -5 124.69 13.9
-1 -4 5 133.59 12.3
-1 -4 5 124.49 13.9
0 4 -5 21.3 5.8
0 -4 5 22.7 5.7
-1 4 -5 1228.18 31.6
6 3 -5 54.09 17.4
5 3 -5 84.89 22.3
4 3 -5 18.3 9.6
-4 -3 5 21.6 9.3
3 3 -5 45.1 13.6
-3 -3 5 28.7 9.8
-3 -3 5 37 3.6
2 3 -5 287.97 24.5
-2 -3 5 305.17 24.8
-2 -3 5 319.57 14.2
1 3 -5 604.74 31
-1 -3 5 571.74 43.2
0 3 -5 30 6.5
0 -3 5 26.3 6.1
-1 3 -5 124.19 8.3
-3 3 -5 520.65 16.6
-4 3 -5 45.3 6.9
4 -3 5 68.89 15.1
-5 3 -5 64.39 10.3
6 2 -5 16.1 13.6
5 2 -5 193.28 26
4 2 -5 117.99 22.6
-4 -2 5 101.59 19.8
3 2 -5 1564.94 67.09
-3 -2 5 1557.44 65.89
2 2 -5 1571.14 60.69
-2 -2 5 1571.94 36
-2 -2 5 1636.04 60.89
1 2 -5 2520.35 73.09
-1 -2 5 2405.86 70.99
0 2 -5 318.17 18.3
-1 2 -5 103.49 8.1
-2 2 -5 63.89 5.8
-3 2 -5 1369.26 40.1
3 -2 5 1344.27 59.89
-4 2 -5 95.49 11
4 -2 5 109.39 19.9
4 -2 5 67.49 8.3
-5 2 -5 36.8 8.9
5 -2 5 28.8 7
-6 2 -5 8.7 9.7
6 -2 5 -3.5 5.2
6 1 -5 115.79 23
5 1 -5 2.5 7
4 1 -5 19.8 9.3
-4 -1 5 11.9 7.4
3 1 -5 390.16 31.3
-3 -1 5 419.16 31.8
2 1 -5 874.11 42.5
-2 -1 5 812.22 40.2
1 1 -5 55.69 10.7
-1 -1 5 62.69 10.9
-1 -1 5 46.1 7
0 1 -5 1754.32 50.99
0 -1 5 1730.13 52.29
1 -1 5 542.95 29.1
-2 1 -5 66.89 7.3
2 -1 5 67.39 13.5
-3 1 -5 252.87 16.7
3 -1 5 249.78 23.6
4 -1 5 6.3 3.4
4 -1 5 -11.9 5.1
-5 1 -5 39.6 9.2
5 -1 5 44.2 9.6
-6 1 -5 24.9 13
6 -1 5 30.6 9.1
6 0 -5 11.7 8.8
5 0 -5 15.3 9.2
4 0 -5 -5.8 3.7
-4 0 5 -0.9 6.5
3 0 -5 -3 2.2
-3 0 5 -2.4 3.5
2 0 -5 -1.1 2.9
-2 0 5 8.2 4.8
1 0 -5 3.1 3.1
-1 0 5 -1.8 1.5
0 0 5 3 2.6
1 0 5 2.9 3.5
-2 0 -5 4.7 2.7
-3 0 -5 -1.7 2.8
3 0 5 4.7 4.6
-4 0 -5 6 5.7
4 0 5 3.4 3.8
-5 0 -5 -1.1 6.4
5 0 5 3.8 5.2
-6 0 -5 19.6 10.9
6 0 5 1.4 6.5
6 -1 -5 88.09 21.8
5 -1 -5 10.9 7.9
4 -1 -5 13.8 7.9
-4 1 5 18.9 7.1
3 -1 -5 402.66 30.8
-3 1 5 390.56 29.3
2 -1 -5 773.42 39.6
-2 1 5 778.52 19.5
1 -1 -5 54.19 6.4
1 -1 -5 71.49 12.3
-1 1 5 55.89 6.4
0 -1 -5 1677.23 52.09
0 1 5 1803.82 52.39
-1 -1 -5 483.35 27.9
1 1 5 476.65 26.9
-2 -1 -5 70.49 11
2 1 5 48.6 11.5
-3 -1 -5 228.48 18.3
3 1 5 232.48 23
3 1 5 236.38 17.6
-4 -1 -5 -4.4 4.1
4 1 5 14.6 5.5
-5 -1 -5 46.9 12.2
5 1 5 51.49 11.5
-6 -1 -5 40.6 18
6 1 5 38.7 12
6 -2 -5 8.6 11.4
5 -2 -5 199.98 25.6
4 -2 -5 135.99 22.7
3 -2 -5 1599.74 65.89
3 -2 -5 1607.54 33.2
2 -2 -5 1624.34 40.5
2 -2 -5 1639.24 60.99
-2 2 5 1634.74 39.7
1 -2 -5 2503.05 62.79
-1 2 5 2493.95 60.99
0 -2 -5 320.17 20
0 2 5 313.87 19
-1 -2 -5 102.29 13
-1 -2 -5 86.49 10.2
1 2 5 116.59 13
-2 -2 -5 56.19 12.9
-2 -2 -5 44.3 9.9
2 2 5 58.69 12.4
-3 -2 -5 1365.76 52.49
3 2 5 1394.36 50.39
3 2 5 1420.86 60.49
-4 -2 -5 62.29 13.9
4 2 5 77.69 14.1
4 2 5 66.09 16.3
-5 -2 -5 18.1 12
5 2 5 24.5 8.6
6 -3 -5 68.89 19.8
5 -3 -5 56.09 15.5
4 -3 -5 11.8 3.2
4 -3 -5 14.5 7.9
3 -3 -5 41.9 5
3 -3 -5 29.2 9.4
2 -3 -5 308.97 24.4
2 -3 -5 324.47 16.1
-2 3 5 310.67 15.5
1 -3 -5 544.55 24.6
-1 3 5 585.84 24.6
0 -3 -5 30.2 7.9
0 3 5 28.5 6.9
-1 -3 -5 119.79 14.4
-1 -3 -5 114.69 12.3
1 3 5 99.49 12.6
-2 -3 -5 2411.96 72.59
-2 -3 -5 2541.45 81.49
2 3 5 2353.16 77.39
-3 -3 -5 514.25 31.9
-3 -3 -5 449.06 33.1
3 3 5 459.35 32.4
3 3 5 502.45 29.4
-4 -3 -5 39.5 12
4 3 5 41.1 10.9
4 3 5 51.59 14.3
-5 -3 -5 61.79 17.1
5 3 5 95.99 16.9
6 3 5 113.79 21.4
6 -4 -5 29.2 14.3
5 -4 -5 415.46 37.6
5 -4 -5 405.56 18.3
5 -4 -5 424.96 18.1
4 -4 -5 3.7 5.8
4 -4 -5 1 2.6
3 -4 -5 16.5 4.7
3 -4 -5 17.7 7.6
2 -4 -5 2427.36 63.59
2 -4 -5 2539.55 81.39
-2 4 5 2458.65 63.79
1 -4 -5 126.19 12.4
-1 4 5 128.29 11.7
0 -4 -5 23.6 7.4
0 4 5 18.6 6.3
-1 -4 -5 1229.68 46.5
-1 -4 -5 1251.77 50.59
1 4 5 1215.68 48
-2 -4 -5 4.4 5.4
-2 -4 -5 4.1 3.8
2 4 5 8.1 5.1
-3 -4 -5 155.48 19.2
-3 -4 -5 158.18 18
3 4 5 142.59 18.1
3 4 5 151.48 16.7
-4 -4 -5 92.79 18.5
4 4 5 94.09 16.7
4 4 5 104.19 20
5 4 5 172.28 21.4
6 4 5 47.4 14.7
6 -5 -5 76.49 8.9
6 -5 -5 90.99 20.6
6 -5 -5 69.89 9.5
5 -5 -5 14 4.6
5 -5 -5 14.6 9.8
4 -5 -5 32.8 7
4 -5 -5 48.1 14.7
3 -5 -5 -5.5 3
3 -5 -5 5.6 5.7
2 -5 -5 668.93 29.7
-2 5 5 691.43 30.3
1 -5 -5 280.57 19.2
-1 5 5 269.47 18.7
0 -5 -5 553.34 30.4
0 5 5 511.15 28.4
-1 -5 -5 328.67 23.7
-1 -5 -5 312.47 24.7
1 5 5 319.07 23.5
-2 -5 -5 7.6 5.3
-2 -5 -5 21.5 8.4
2 5 5 15.8 6.1
-3 -5 -5 41.3 11.9
-3 -5 -5 50.69 12.9
3 5 5 32.5 10.2
3 5 5 36.4 10.7
-4 -5 -5 17.3 8.3
-4 -5 -5 16.3 9.5
4 5 5 29 9.3
5 5 5 63.99 14.5
6 -6 -5 3.7 4.9
6 -6 -5 22.5 11.9
5 -6 -5 131.49 14.8
5 -6 -5 140.39 25.4
4 -6 -5 866.81 36.2
4 -6 -5 888.51 52.09
3 -6 -5 30.4 7.8
3 -6 -5 17.3 9.1
2 -6 -5 44.7 9.5
-2 6 5 56.79 10.8
1 -6 -5 917.21 39.8
-1 6 5 917.01 39
0 -6 -5 276.37 22.3
0 6 5 290.37 21.8
-1 -6 -5 131.79 16.5
-1 -6 -5 110.59 14.6
1 6 5 117.29 14.3
-2 -6 -5 47.7 12.5
-2 -6 -5 87.19 16.1
2 6 5 49.6 11.8
-3 -6 -5 1326.87 62.09
-3 -6 -5 1525.65 67.49
3 6 5 1356.36 62.09
3 6 5 1363.26 59.09
-4 -6 -5 8.1 6.7
4 6 5 7 7
5 6 5 136.29 23
5 -7 -5 26.2 6.5
5 -7 -5 -4.1 8.8
4 -7 -5 41.9 12.7
4 -7 -5 22.9 7.5
3 -7 -5 743.43 35.8
3 -7 -5 780.82 45.8
2 -7 -5 13.8 6.3
-2 7 5 7.9 4.3
1 -7 -5 443.66 27.8
-1 7 5 342.67 24.6
0 -7 -5 329.37 25.3
0 -7 -5 364.16 26.6
0 7 5 364.66 25.9
-1 -7 -5 113.49 18.6
-1 -7 -5 93.79 17
1 7 5 112.79 18.2
-2 -7 -5 25 9.4
-2 -7 -5 36.6 11.1
2 7 5 22.1 9.3
-3 -7 -5 932.31 52.19
-3 -7 -5 1026 55.19
3 7 5 967.7 52.09
3 7 5 877.71 48
-4 -7 -5 122.59 23.7
4 7 5 89.89 19
-5 -7 -5 19.8 9.9
5 7 5 -0.9 6.9
5 -8 -5 19.2 5.9
5 -8 -5 7.6 8.6
4 -8 -5 293.37 30
4 -8 -5 279.07 22.5
3 -8 -5 683.63 44.3
3 -8 -5 713.33 36.9
2 -8 -5 85.49 14.7
-2 8 5 76.29 14.4
1 -8 -5 1540.75 59.79
-1 8 5 1524.65 58.89
0 -8 -5 18.9 8.4
0 -8 -5 17.6 7.5
0 8 5 22.3 9
-1 -8 -5 72.39 15.7
-1 -8 -5 100.79 18
1 8 5 85.39 16.4
-2 -8 -5 271.37 26.5
-2 -8 -5 249.48 25.7
2 8 5 227.28 23.9
-3 -8 -5 13.5 7.7
3 8 5 -5.6 4
-4 -8 -5 10.1 6.6
4 8 5 29.3 12
-5 -8 -5 43.1 14.6
5 8 5 49.3 14.4
5 -9 -5 -0.2 7.4
5 -9 -5 -3.6 8.5
4 -9 -5 84.29 28.1
4 -9 -5 87.09 15.8
3 -9 -5 7.3 7.2
3 -9 -5 24.2 9.7
-3 9 5 16.3 8.2
2 -9 -5 2022.3 72.59
-2 9 5 1914.91 72.19
1 -9 -5 289.67 25.3
-1 9 5 219.08 21.5
0 -9 -5 1727.53 68.79
0 -9 -5 1783.52 69.49
0 9 5 1702.13 70.79
-1 -9 -5 16 6.7
1 9 5 16.6 6.5
-2 -9 -5 24.3 9
-2 -9 -5 9.5 10.6
-3 -9 -5 27 12
-4 -9 -5 3 8.2
4 9 5 4.1 6
-5 -9 -5 163.58 30.3
5 9 5 103.99 22
5 -10 -5 21.3 12.7
5 -10 -5 20.1 9.8
4 -10 -5 1.2 6.5
4 -10 -5 -6.3 7.3
3 -10 -5 694.93 41.2
2 -10 -5 46.7 12.7
-2 10 5 43.2 12.5
1 -10 -5 12.2 7
1 -10 -5 -0.5 5.4
-1 10 5 11.2 7.4
0 -10 -5 183.78 21.9
0 -10 -5 167.18 21.3
0 10 5 209.58 22
-1 -10 -5 3.8 5.2
-1 -10 -5 -1.5 5.8
1 10 5 2.4 5.8
-2 -10 -5 -4.7 4.7
-3 -10 -5 262.27 29.4
-4 -10 -5 222.68 28.2
4 10 5 221.88 28
4 -11 -5 87.39 19.1
3 -11 -5 3.6 5.7
2 -11 -5 411.26 33.3
-2 11 5 405.76 32.4
1 -11 -5 101.09 19.8
-1 11 5 94.19 17.8
0 -11 -5 672.13 43.9
-1 -11 -5 46.2 14.6
-2 -11 -5 317.17 31.5
-3 -11 -5 -11.9 9.1
-4 -11 -5 65.89 17.4
4 11 5 74.19 18.8
4 -12 -5 51.59 17
4 -12 -5 84.89 18.1
3 -12 -5 112.09 20.4
2 -12 -5 68.19 16.2
1 -12 -5 458.35 37
-1 -12 -5 255.07 28.1
-2 -12 -5 177.68 28.6
-3 -12 -5 -12 9.9
-4 -12 -5 9.6 12.3
3 -13 -5 28.8 11.9
2 -13 -5 -4.2 6.5
1 -13 -5 18.9 9
0 -13 -5 6.4 10.7
-1 -13 -5 25.9 10.9
-2 -13 -5 116.59 24.3
-3 -13 -5 13.2 10.2
3 -14 -5 43 14
2 -14 -5 81.09 21.1
1 -14 -5 8 8.5
0 -14 -5 1.9 7.5
-1 -14 -5 42.1 14.5
-2 -14 -5 162.98 30
2 -15 -5 297.77 32.2
1 -15 -5 24.4 11.5
0 -15 -5 112.79 22.8
-1 -15 -5 25.8 10
-2 -15 -5 59.59 16.7
1 -16 -5 122.19 25.4
0 -16 -5 17 9.7
2 15 -6 50.29 16.3
-2 -15 6 67.79 17.8
1 15 -6 41.5 12.4
-1 -15 6 8.5 9.7
0 15 -6 44 12.9
0 -15 6 26.1 12.6
0 -15 6 32.3 14.7
1 -15 6 47.4 11.5
3 14 -6 -4.2 8
-3 -14 6 -0.4 8.9
2 14 -6 46.2 13.1
-2 -14 6 20.7 9.9
1 14 -6 -7.3 8
-1 -14 6 29 9.5
0 14 -6 7.3 7.5
0 -14 6 13 11
0 -14 6 4.4 12
1 -14 6 -9.2 6.8
1 -14 6 5.9 9
3 13 -6 19.7 9.2
-3 -13 6 7.3 9.3
2 13 -6 30.1 13.2
-2 -13 6 27.4 11.7
1 13 -6 30.3 10.5
-1 -13 6 43.1 13.1
-1 -13 6 10.8 15.1
0 13 -6 57.19 12.2
0 -13 6 64.89 16.4
0 -13 6 52.89 13.5
1 -13 6 93.19 20
1 -13 6 79.49 14.9
2 -13 6 95.89 21.8
3 -13 6 58.19 24.2
-4 -12 6 -11.7 7.8
3 12 -6 50.89 13.8
-3 -12 6 49.3 13.4
2 12 -6 23.3 10.1
1 12 -6 429.76 32.1
-1 -12 6 462.85 35.9
-1 -12 6 397.16 34.3
0 12 -6 83.59 15.1
0 -12 6 59.99 13.8
0 -12 6 77.59 18.1
1 -12 6 4.5 5.7
1 -12 6 0.8 8.6
2 -12 6 20.5 9.4
3 -12 6 -3.4 7.8
4 11 -6 20.8 13.5
-4 -11 6 52.39 13.9
3 11 -6 20.6 9.4
-3 -11 6 14.6 9.2
-2 -11 6 -11.2 6.6
1 11 -6 455.35 32.4
-1 -11 6 434.16 33.7
-1 -11 6 425.06 50.59
0 11 -6 5.2 5.3
0 -11 6 14.9 7.1
0 -11 6 2.2 8.3
1 -11 6 377.56 34.5
1 -11 6 336.37 23
2 -11 6 64.89 18.4
3 -11 6 72.79 19.8
4 -11 6 11.6 14.9
5 10 -6 4.2 10
-5 -10 6 -0.5 8.2
4 10 -6 38.2 15.7
-4 -10 6 50.69 11.5
3 10 -6 149.59 26.2
-3 -10 6 113.69 17.6
2 10 -6 19.5 7.1
-2 -10 6 20.5 8
1 10 -6 134.79 17.2
-1 -10 6 118.29 19.6
-1 -10 6 118.39 19.3
0 10 -6 11 6.1
0 -10 6 2.8 5.5
0 -10 6 8.8 5.7
-1 10 -6 337.47 18.1
1 -10 6 294.27 19.7
1 -10 6 289.67 29
2 -10 6 396.76 35.4
3 -10 6 153.78 27.2
4 -10 6 33.6 15.2
-5 -9 6 77.39 13.3
4 9 -6 329.17 35.4
-4 -9 6 276.97 22.8
3 9 -6 174.58 28.7
-3 -9 6 155.28 16.9
2 9 -6 152.48 19.8
-2 -9 6 150.48 24.2
-2 -9 6 155.18 17.7
1 9 -6 11.1 6.8
-1 -9 6 6.5 4.7
-1 -9 6 -0.8 6.3
0 9 -6 48.2 10.5
0 -9 6 35.7 11
0 -9 6 24.1 7.9
-1 9 -6 1447.86 41.9
1 -9 6 1409.16 66.59
1 -9 6 1515.85 45.9
2 -9 6 96.89 25.3
3 -9 6 58.39 16.7
4 -9 6 372.86 38.7
5 8 -6 30.7 14
-5 -8 6 30 8.2
4 8 -6 452.35 41
-4 -8 6 441.56 26.8
3 8 -6 44 13.9
-3 -8 6 19.8 7.5
2 8 -6 14.4 6.4
-2 -8 6 19.6 7.2
1 8 -6 498.55 32.3
-1 -8 6 476.75 31
-1 -8 6 481.35 32.6
0 8 -6 683.93 32.5
0 -8 6 606.34 32.6
0 -8 6 720.43 41.1
-1 8 -6 35.2 6
1 -8 6 15.1 7.2
1 -8 6 35.7 6.8
5 7 -6 -1.6 5.8
-5 -7 6 0.3 4.9
4 7 -6 34.1 11.7
-4 -7 6 28.6 7.5
3 7 -6 986.8 56.69
-3 -7 6 922.81 39.9
-3 -7 6 896.71 54.79
2 7 -6 1228.48 58.69
-2 -7 6 1273.97 60.29
-2 -7 6 1273.97 48.1
1 7 -6 53.29 12.3
-1 -7 6 50.49 11.6
0 7 -6 114.39 12.5
0 -7 6 93.49 17.8
0 -7 6 113.99 18.8
-1 7 -6 11.8 3.7
1 -7 6 9.4 3.7
5 6 -6 10.2 8.7
4 6 -6 13.7 9.5
-4 -6 6 18.9 5.1
-3 -6 6 8.9 7.8
2 6 -6 1623.04 67.49
-2 -6 6 1565.34 66.69
-2 -6 6 1656.33 53.09
1 6 -6 872.41 42.3
-1 -6 6 848.82 39
-1 -6 6 922.71 43.7
0 6 -6 3.7 4.1
0 -6 6 1.4 4.2
0 -6 6 14.1 5.1
-1 6 -6 7 2.6
6 5 -6 1.7 11.2
5 5 -6 10.1 10.5
4 5 -6 21.8 10.8
-4 -5 6 28.3 5
-3 -5 6 29 9.7
2 5 -6 1642.04 66.59
-2 -5 6 1553.74 64.59
-2 -5 6 1510.35 47.8
1 5 -6 996.2 44.7
-1 -5 6 1008 45
-1 -5 6 975.4 40.1
0 5 -6 942.11 37
0 -5 6 883.81 35.7
-1 5 -6 446.16 18
6 4 -6 38.6 29.7
5 4 -6 28.2 12.3
3 4 -6 24.7 10.6
-3 -4 6 23.6 4.3
-3 -4 6 28.4 10.1
2 4 -6 93.39 17.5
-2 -4 6 77.29 8.5
-2 -4 6 83.99 15.8
-1 -4 6 879.31 36.2
-1 -4 6 957 42.1
0 4 -6 1608.74 51.09
0 -4 6 1542.45 49.1
-1 4 -6 379.66 16.9
6 3 -6 140.49 29.7
5 3 -6 29.4 12.7
4 3 -6 13 10.5
3 3 -6 1459.15 67.19
-3 -3 6 1506.85 67.59
2 3 -6 42.3 11.8
-2 -3 6 31.5 9.7
-2 -3 6 40.8 6.4
1 3 -6 436.56 27.5
-1 -3 6 430.36 26.9
0 3 -6 0.4 2.9
-1 3 -6 889.21 29.7
-2 3 -6 20.7 3.5
-2 3 -6 16.2 3.1
-3 3 -6 17.8 3.1
3 -3 6 16.1 8.5
-4 3 -6 222.68 11.9
-5 3 -6 21.7 6.2
6 2 -6 -3.1 12.3
5 2 -6 7.9 11.2
4 2 -6 1.7 6.9
3 2 -6 52.49 14
-3 -2 6 36.9 10.9
2 2 -6 801.52 42.6
-2 -2 6 776.82 24
-2 -2 6 763.02 23.3
-2 -2 6 721.93 39.7
1 2 -6 69.19 12.7
-1 -2 6 66.99 12.4
0 2 -6 146.19 13.6
-1 2 -6 159.48 11.8
-2 2 -6 632.64 22.2
2 -2 6 619.34 37
-3 2 -6 85.19 8.6
3 -2 6 59.29 14.4
-4 2 -6 589.84 26.8
-6 2 -6 -1.4 16.3
6 1 -6 7.6 9.4
5 1 -6 14.1 11.4
4 1 -6 366.16 33.7
-4 -1 6 353.96 32.4
3 1 -6 152.88 24.5
-3 -1 6 104.79 18.5
2 1 -6 113.39 19
-2 -1 6 97.29 6.3
-2 -1 6 109.49 17.6
-2 -1 6 88.89 5.9
1 1 -6 221.18 19.2
-1 -1 6 238.78 15
0 1 -6 3777.12 93.79
0 -1 6 3784.72 95.59
1 -1 6 122.59 14.2
-2 1 -6 1265.97 38.2
2 -1 6 1191.98 53.69
-3 1 -6 28.5 6.9
-5 1 -6 233.28 21.1
-6 1 -6 -6.8 11.5
6 0 -6 93.79 22.9
5 0 -6 182.58 30.8
4 0 -6 1390.36 68.59
-4 0 6 1294.57 64.69
3 0 -6 61.19 14.6
-3 0 6 59.39 14.7
2 0 -6 844.72 43.8
-2 0 6 842.82 21.7
1 0 -6 348.47 25.7
-1 0 6 366.96 18.6
0 0 6 7.5 4.7
1 0 6 1611.34 57.39
-2 0 -6 2876.71 72.59
2 0 6 2791.22 88.99
-3 0 -6 3463.75 90.69
3 0 6 3622.84 159.28
-4 0 -6 3.8 6.2
-5 0 -6 14.2 8.2
6 -1 -6 8.2 11.9
5 -1 -6 10.5 10.1
4 -1 -6 328.87 31.5
-4 1 6 302.37 29.3
3 -1 -6 148.99 19.9
2 -1 -6 79.99 15.7
-2 1 6 89.69 6.2
1 -1 -6 201.08 19.2
1 -1 -6 209.28 14.3
-1 1 6 228.58 14.4
0 -1 -6 3744.03 95.89
0 1 6 3834.32 95.29
1 1 6 130.69 14.6
-2 -1 -6 1217.98 45.2
2 1 6 1255.77 53.99
-3 -1 -6 32.6 8.6
-4 -1 -6 677.33 37.4
-5 -1 -6 215.48 24.3
5 1 6 226.48 21.4
-6 -1 -6 -22.3 12.8
6 1 6 -2.4 7.6
6 -2 -6 23.2 11.5
5 -2 -6 35 13.2
4 -2 -6 -3.9 5.4
3 -2 -6 64.69 15.1
2 -2 -6 752.22 41.1
2 -2 -6 740.83 25.1
-2 2 6 769.32 24.5
1 -2 -6 81.69 9.3
-1 2 6 67.09 8.1
0 -2 -6 140.89 13.9
0 2 6 107.49 23.3
-1 -2 -6 156.48 16.9
1 2 6 170.88 17
-2 -2 -6 658.13 38.6
-2 -2 -6 584.44 29.8
2 2 6 574.84 35.4
-3 -2 -6 81.39 14.5
3 2 6 57.39 14.9
-4 -2 -6 612.44 37.2
-5 -2 -6 167.58 24.7
5 2 6 113.59 18.8
6 -3 -6 105.39 25.6
5 -3 -6 12 9.4
4 -3 -6 12.2 7.5
3 -3 -6 1512.25 38.4
3 -3 -6 1495.25 66.29
2 -3 -6 44 7.7
2 -3 -6 54.29 12.8
-2 3 6 40.3 6.7
1 -3 -6 477.25 24.5
-1 3 6 433.46 22.2
0 -3 -6 2.9 3.7
0 3 6 4.4 3.8
-1 -3 -6 881.61 37.7
-1 -3 -6 903.91 42.3
1 3 6 782.32 38.9
-2 -3 -6 22.9 7.9
-2 -3 -6 35.5 10.6
2 3 6 25.8 8.9
-3 -3 -6 32.4 11.8
-3 -3 -6 11.2 5.8
3 3 6 7.9 7.3
-4 -3 -6 174.98 21.7
4 3 6 213.98 20.8
-5 -3 -6 10.6 12.5
5 3 6 16.7 9.9
6 -4 -6 35.6 11.7
5 -4 -6 16.7 10.8
4 -4 -6 36.9 5.6
4 -4 -6 36.6 12.7
3 -4 -6 27.3 5.7
3 -4 -6 26.2 10.5
2 -4 -6 92.29 9.9
2 -4 -6 64.39 14
-2 4 6 104.39 10.1
1 -4 -6 929.21 37.6
-1 4 6 943.71 38.3
0 -4 -6 1541.05 55.99
0 4 6 1536.95 53.59
-1 -4 -6 374.76 27.4
-1 -4 -6 384.56 25
1 4 6 383.06 26.3
-2 -4 -6 185.08 20.9
-2 -4 -6 225.78 19.9
2 4 6 217.48 21.5
-3 -4 -6 9.2 7.2
-3 -4 -6 28.3 8.3
3 4 6 28.5 10.2
-4 -4 -6 50.39 14.1
4 4 6 25.1 10.3
5 4 6 9.8 9.4
6 -5 -6 5.5 9.3
5 -5 -6 20.4 11.3
5 -5 -6 15.9 4.2
4 -5 -6 18.4 10.4
4 -5 -6 33.8 6.7
3 -5 -6 17.9 5.1
3 -5 -6 6.1 5.7
2 -5 -6 1534.35 50.19
-2 5 6 1510.75 58.99
1 -5 -6 966.8 41.1
-1 5 6 983.6 39.6
0 -5 -6 912.81 42.5
0 5 6 966.1 41.7
-1 -5 -6 419.76 28
-1 -5 -6 443.06 30.8
1 5 6 459.95 29.6
-2 -5 -6 578.84 38.2
-2 -5 -6 593.24 35.4
2 5 6 624.54 37.7
-3 -5 -6 27 10.5
-3 -5 -6 27.6 9.1
3 5 6 11.7 7.7
-4 -5 -6 210.88 23.6
-4 -5 -6 192.78 30
4 5 6 210.18 22.6
5 5 6 17.5 8.2
5 -6 -6 8 8.9
5 -6 -6 4.3 4.7
4 -6 -6 15.5 8.6
4 -6 -6 13.9 5.2
3 -6 -6 -1.9 3.1
3 -6 -6 9.9 6.1
-3 6 6 -0.6 4.2
2 -6 -6 1392.26 61.89
-2 6 6 1558.74 52.79
1 -6 -6 907.81 40.8
-1 6 6 870.31 39
0 -6 -6 8.6 6.6
0 6 6 14.2 6.1
-1 -6 -6 17.3 6.9
-1 -6 -6 12.4 7.2
1 6 6 15 6.6
-2 -6 -6 835.72 48
-2 -6 -6 876.01 45.6
2 6 6 856.91 46.1
-3 -6 -6 270.37 25.8
-3 -6 -6 292.77 29.3
-4 -6 -6 388.66 36.6
4 6 6 447.66 42.3
5 6 6 90.99 18.6
5 -7 -6 20.3 9.6
5 -7 -6 0.6 8.4
4 -7 -6 28.4 8.6
3 -7 -6 956.9 41.7
3 -7 -6 973.5 54.29
-3 7 6 965 43.4
2 -7 -6 1244.68 49.9
-2 7 6 1242.38 49.5
1 -7 -6 39.4 10.6
-1 7 6 43.5 10.8
0 -7 -6 123.19 15.6
0 -7 -6 114.39 18.4
0 7 6 115.59 14.4
-1 -7 -6 27.1 8.5
1 7 6 24.7 8.4
-2 -7 -6 2.8 5.4
-2 -7 -6 -0.3 4.6
2 7 6 2.6 5.8
-3 -7 -6 121.19 22.7
-4 -7 -6 81.89 19
-5 -7 -6 35.8 13.2
5 7 6 22.9 12
5 -8 -6 8 8.5
5 -8 -6 28.3 9.1
4 -8 -6 482.85 29.9
4 -8 -6 462.75 40.4
3 -8 -6 39 13.3
3 -8 -6 26.8 8.5
-3 8 6 23.5 10.1
2 -8 -6 15.2 7.1
-2 8 6 11.6 6
1 -8 -6 495.95 32.2
-1 8 6 463.15 30.8
0 -8 -6 641.04 39.1
0 -8 -6 629.84 46.1
0 8 6 627.74 37.5
-1 -8 -6 44.1 12.9
-1 -8 -6 22.2 10
1 8 6 45.2 12
-2 -8 -6 9.3 5.9
-2 -8 -6 3.6 5.4
2 8 6 17.5 8.6
-3 -8 -6 812.72 51.89
-4 -8 -6 -0.1 6.9
-5 -8 -6 24.8 14.8
5 8 6 57.49 14.9
5 -9 -6 59.69 12.9
5 -9 -6 83.59 18.2
4 -9 -6 267.77 33.4
4 -9 -6 319.67 26.3
3 -9 -6 152.08 26.7
3 -9 -6 138.49 16.8
-3 9 6 94.79 17.9
2 -9 -6 171.68 19.7
-2 9 6 150.88 18.7
1 -9 -6 10.3 6.7
-1 9 6 29.5 7.6
0 -9 -6 10 7.8
0 -9 -6 21.2 9.6
0 9 6 37.6 10.5
-1 -9 -6 1370.16 65.09
-1 -9 -6 1527.25 68.49
1 9 6 1600.54 67.49
-2 -9 -6 96.79 21.3
-3 -9 -6 63.89 16.6
-4 -9 -6 431.36 40
5 -10 -6 15.5 10.2
5 -10 -6 -2.6 9.2
4 -10 -6 21.9 13
4 -10 -6 29.1 11.2
3 -10 -6 114.09 22.1
3 -10 -6 160.28 19
-3 10 6 141.79 18.1
2 -10 -6 0.1 4.5
-2 10 6 2.2 5.9
1 -10 -6 93.69 18.3
-1 10 6 131.99 21.6
0 -10 -6 17.2 8.9
0 10 6 23.4 9.7
-1 -10 -6 291.97 43.9
-2 -10 -6 386.26 35.8
-3 -10 -6 240.88 28.6
-4 -10 -6 37.7 14.8
4 -11 -6 104.89 21.6
4 -11 -6 78.59 16.2
3 -11 -6 39.2 11.1
2 -11 -6 2.9 6.4
1 -11 -6 424.06 34.6
0 -11 -6 9.3 8.1
-1 -11 -6 328.47 32.7
-2 -11 -6 69.89 17.9
-3 -11 -6 69.69 18.9
-4 -11 -6 -4.8 10.4
4 -12 -6 -2.4 10.1
4 -12 -6 -14 9.7
3 -12 -6 30.4 12.6
2 -12 -6 9.1 7.6
1 -12 -6 443.16 36.4
0 -12 -6 69.79 17.6
-1 -12 -6 5.6 8
-2 -12 -6 23.3 11.1
-3 -12 -6 6.9 7.8
3 -13 -6 17.3 9.7
2 -13 -6 10 9.5
1 -13 -6 68.79 16.5
0 -13 -6 68.29 16.4
-1 -13 -6 124.79 23.7
-2 -13 -6 100.89 23.5
-3 -13 -6 86.19 32.6
3 -14 -6 14 10.3
2 -14 -6 40 14.3
1 -14 -6 55.49 15.3
0 -14 -6 2.7 7.4
-1 -14 -6 -4.7 8.6
-2 -14 -6 89.49 35.3
2 -15 -6 51.59 15.1
1 -15 -6 24 13.4
0 -15 -6 34.9 15
-1 -15 -6 25 11.6
1 15 -7 -5.8 7.8
-1 -15 7 -24.5 8.4
0 15 -7 39.3 12.8
0 -15 7 59.79 16.2
0 -15 7 6.1 13
2 14 -7 23.9 10.1
-2 -14 7 46.3 14.1
1 14 -7 71.09 16.8
-1 -14 7 80.59 19.2
0 14 -7 30.3 8.6
0 -14 7 32.3 11.6
0 -14 7 20.2 10.4
1 -14 7 15.8 9.2
1 -14 7 49 14.6
2 -14 7 11.7 9.8
3 13 -7 -7.9 8.2
-3 -13 7 -14.6 7.5
2 13 -7 63.89 16.5
-2 -13 7 50.29 12.7
1 13 -7 87.49 17.5
-1 -13 7 96.99 19.2
0 13 -7 -0.8 5.5
0 -13 7 -10.2 8.8
0 -13 7 -1.1 8
1 -13 7 71.19 20
1 -13 7 45.7 10.5
2 -13 7 96.09 22.2
3 12 -7 16 12
2 12 -7 -2.6 5.8
-2 -12 7 26.3 8.8
1 12 -7 48.1 12.9
-1 -12 7 20.2 9.7
-1 -12 7 53.29 14.6
0 12 -7 171.68 17.7
0 -12 7 129.49 20.3
0 -12 7 156.48 25.3
1 -12 7 8.3 9.6
2 -12 7 298.27 34.2
3 -12 7 15.3 17.4
4 11 -7 26.2 12.9
-4 -11 7 12.3 8.8
3 11 -7 13 12.5
-3 -11 7 58.09 13.1
2 11 -7 14.7 11.6
-2 -11 7 42.6 11.4
1 11 -7 1.7 5.3
-1 -11 7 -0.4 5.3
-1 -11 7 7.6 8.3
0 11 -7 484.45 29.7
0 -11 7 454.95 37.8
0 -11 7 462.25 31.9
1 -11 7 54.39 15.2
1 -11 7 57.59 10
2 -11 7 51.79 14.7
3 -11 7 20.7 10.1
4 -11 7 -9.4 7.3
4 10 -7 -16.7 6.2
-4 -10 7 16.9 7.8
3 10 -7 580.34 45.4
-3 -10 7 462.25 32
2 10 -7 2 5
-2 -10 7 0.5 5.8
1 10 -7 1450.45 62.29
-1 -10 7 1502.55 64.79
-1 -10 7 1590.34 67.49
0 10 -7 56.29 11.7
0 -10 7 54.59 14.5
0 -10 7 57.19 13
-1 10 -7 721.63 27.7
1 -10 7 807.02 51.09
1 -10 7 740.93 30.4
2 -10 7 164.28 27.2
3 -10 7 19.8 11
4 -10 7 -3.2 7.4
5 9 -7 5.1 10
4 9 -7 9.7 10
-4 -9 7 32.3 9.5
3 9 -7 259.77 29.2
-3 -9 7 261.57 21.9
2 9 -7 155.58 20.5
-2 -9 7 153.88 25
-2 -9 7 159.28 18
1 9 -7 358.66 27.8
-1 -9 7 359.36 28.5
-1 -9 7 365.56 29.5
0 9 -7 695.33 34.6
0 -9 7 655.43 35.3
0 -9 7 718.23 43.9
-1 9 -7 65.59 7.6
1 -9 7 56.19 8.5
1 -9 7 37.7 12.7
2 -9 7 94.19 20.4
3 -9 7 242.78 30.6
-5 -8 7 10.1 5.2
4 8 -7 26.2 12.9
3 8 -7 73.79 18.7
-3 -8 7 89.39 14.7
2 8 -7 223.68 23.6
-2 -8 7 270.27 26.7
-2 -8 7 216.48 20.1
1 8 -7 154.18 17.6
-1 -8 7 121.89 19.6
-1 -8 7 134.09 16.6
0 8 -7 571.04 40.3
0 -8 7 601.24 39.3
0 -8 7 606.54 32.9
-1 8 -7 119.09 9.5
1 -8 7 124.59 22.4
5 7 -7 58.09 17.7
4 7 -7 138.19 27.7
-4 -7 7 202.98 15.3
3 7 -7 463.65 39.2
-3 -7 7 463.95 27
2 7 -7 427.96 33.8
-2 -7 7 404.76 25.8
1 7 -7 13.4 6
-1 -7 7 8.5 6.4
-1 -7 7 13.6 6.3
0 7 -7 122.69 13.5
0 -7 7 96.09 17.7
0 -7 7 91.09 14.4
-1 7 -7 15.1 3.8
5 6 -7 49.6 16.7
4 6 -7 3.9 7.7
-4 -6 7 6.9 3.4
3 6 -7 9.4 6.8
-3 -6 7 -6.8 2.9
-3 -6 7 -1.3 7.1
2 6 -7 167.88 21
-2 -6 7 175.98 15.3
-2 -6 7 157.28 24.4
1 6 -7 46.4 12.5
-1 -6 7 56.29 13.1
-1 -6 7 26.7 8
0 6 -7 228.58 18.1
-1 6 -7 25.2 5.4
5 5 -7 21.7 12.5
4 5 -7 24.4 12.6
3 5 -7 52.79 14.2
-3 -5 7 29.5 10.9
-3 -5 7 30.6 6.2
2 5 -7 118.09 20.3
-2 -5 7 104.19 11
-2 -5 7 102.89 18
1 5 -7 53.39 12.1
-1 -5 7 28.4 9.7
-1 -5 7 27.4 8.9
0 5 -7 3223.58 88.19
0 -5 7 3468.55 88.29
-1 5 -7 413.86 19.3
5 4 -7 31 11.8
4 4 -7 750.02 52.59
3 4 -7 65.49 16.6
-3 -4 7 56.99 5.5
-3 -4 7 46.9 13.8
2 4 -7 481.95 34.9
-2 -4 7 450.85 32.1
-2 -4 7 472.95 22.6
1 4 -7 199.78 19.6
-1 -4 7 223.08 20.2
0 4 -7 205.68 17.2
-1 4 -7 1097.79 35.9
6 3 -7 65.39 22.1
5 3 -7 328.37 36.4
4 3 -7 279.47 31.2
3 3 -7 5 5.7
-3 -3 7 6.1 7.4
2 3 -7 221.88 23.3
-2 -3 7 245.18 23.6
-2 -3 7 264.57 15.1
1 3 -7 429.26 28.8
-1 -3 7 413.06 27
0 3 -7 288.57 20.4
-1 3 -7 1202.08 39.5
-2 3 -7 449.76 17.9
-2 3 -7 455.55 16.9
-3 3 -7 903.21 23.6
3 -3 7 879.81 52.09
-4 3 -7 30.6 4
6 2 -7 33 16.2
5 2 -7 101.59 23.3
4 2 -7 43.7 14.4
3 2 -7 599.54 42.1
-3 -2 7 604.44 41.5
2 2 -7 1.5 4.2
-2 -2 7 -0.2 1.5
-2 -2 7 -1.7 4
-2 -2 7 0.5 2.2
1 2 -7 291.47 23.8
-1 -2 7 321.67 19.7
0 2 -7 368.26 23.5
0 -2 7 369.26 24.5
-1 2 -7 12.6 4.8
1 -2 7 7.4 5
-2 2 -7 3.2 2.3
2 -2 7 -4.6 5
-3 2 -7 526.55 22.8
3 -2 7 503.05 38.3
-4 2 -7 1118.19 38.3
-5 2 -7 20.8 7.6
6 1 -7 95.99 24.7
5 1 -7 -10.3 6.2
4 1 -7 16.9 19
3 1 -7 219.08 24.3
-3 -1 7 163.48 20.4
2 1 -7 41 11.4
-2 -1 7 45.9 5.5
-2 -1 7 51.99 12.9
1 1 -7 464.35 30
-1 -1 7 464.75 23.3
0 1 -7 50.99 10.7
0 -1 7 48 10.2
1 -1 7 1495.35 58.69
-2 1 -7 130.89 11.5
2 -1 7 129.99 20.5
-3 1 -7 384.56 21.4
3 -1 7 315.87 29.8
-5 1 -7 -6.7 6.5
6 0 -7 7.4 8.1
5 0 -7 -1.9 6.3
4 0 -7 5.5 7.5
3 0 -7 5 5.9
-3 0 7 -1.7 3.4
2 0 -7 2.3 5.2
-2 0 7 -1.8 1.6
1 0 -7 -0.7 3.5
-1 0 7 4 2.4
0 0 -7 0.4 1.9
0 0 7 2.7 3.9
1 0 7 3.8 4.3
-2 0 -7 0.1 2.9
2 0 7 9.2 5.2
-3 0 -7 -3.7 3.1
3 0 7 3.4 7.2
-4 0 -7 -3.6 4.8
-5 0 -7 -1.5 7.2
6 -1 -7 156.48 30.1
5 -1 -7 7.8 7.5
4 -1 -7 51.19 15.9
3 -1 -7 134.19 23.2
2 -1 -7 53.19 13.2
-2 1 7 62.99 6.1
1 -1 -7 438.86 29.1
-1 1 7 441.26 22.5
0 1 7 41.7 9.5
1 1 7 1540.05 59.39
-2 -1 -7 129.29 13.3
2 1 7 123.79 19.7
-3 -1 -7 344.17 24.1
3 1 7 355.06 31.5
-4 -1 -7 8.5 5.9
-5 -1 -7 -2.7 7.9
6 -2 -7 24.3 10
5 -2 -7 78.89 19.8
4 -2 -7 20 12
3 -2 -7 649.93 44.5
2 -2 -7 1.6 2.3
2 -2 -7 -1.9 4.1
-2 2 7 0.2 2
1 -2 -7 312.07 24.9
1 -2 -7 281.07 19
-1 2 7 292.97 18.3
0 2 7 350.76 23.3
-1 -2 -7 11.2 6.5
1 2 7 9.1 5.4
-2 -2 -7 -6.7 2.7
2 2 7 -3.3 4.6
-3 -2 -7 535.05 31.9
3 2 7 514.55 38.6
-4 -2 -7 1157.98 53.59
-5 -2 -7 3.7 10
6 -3 -7 29.1 15.4
5 -3 -7 343.87 37
4 -3 -7 305.37 38.5
3 -3 -7 3.2 1.9
2 -3 -7 251.77 24.5
2 -3 -7 270.97 16.7
-2 3 7 269.57 15.7
1 -3 -7 406.46 23.9
-1 3 7 365.46 26.3
0 -3 -7 285.27 22.1
0 3 7 289.77 21.4
-1 -3 -7 1159.88 46.7
-1 -3 -7 1186.98 52.89
1 3 7 1137.59 49.99
-2 -3 -7 409.36 32.2
-2 -3 -7 469.35 28.9
2 3 7 457.55 32.7
-3 -3 -7 831.92 43.7
3 3 7 913.01 51.89
-4 -3 -7 9.7 8.4
-5 -3 -7 96.99 19.6
6 -4 -7 12.8 11.2
5 -4 -7 44.9 15.4
4 -4 -7 660.93 17.6
4 -4 -7 625.14 57.09
3 -4 -7 61.69 16.1
3 -4 -7 65.29 7.7
-3 4 7 66.99 8.2
2 -4 -7 471.05 24.8
2 -4 -7 527.25 36.6
-2 4 7 513.45 24.5
1 -4 -7 230.88 18.9
-1 4 7 222.88 17.5
0 -4 -7 215.28 20.5
0 4 7 206.88 18
-1 -4 -7 1178.98 52.99
-1 -4 -7 1062.19 46.3
1 4 7 1128.39 50.39
-2 -4 -7 91.69 17.9
-2 -4 -7 112.49 14.6
-3 -4 -7 385.06 33.3
-3 -4 -7 362.36 29.4
3 4 7 361.96 60.99
-4 -4 -7 31.3 12.7
5 -5 -7 52.49 15.3
4 -5 -7 24 5.5
4 -5 -7 26.6 12.5
3 -5 -7 40.8 7.8
3 -5 -7 33.5 13.6
-3 5 7 28.8 7.8
2 -5 -7 76.39 17.1
2 -5 -7 102.29 12.1
-2 5 7 85.69 13.1
1 -5 -7 44.4 9.7
-1 5 7 55.19 10.7
0 -5 -7 3455.95 100.29
0 5 7 3333.17 96.19
-1 -5 -7 418.06 31.4
-1 -5 -7 403.86 28.1
1 5 7 421.16 29.4
-2 -5 -7 1205.88 58.59
-2 -5 -7 1072.39 50.99
2 5 7 1111.89 54.69
-3 -5 -7 3 7.4
-3 -5 -7 12.9 6.8
-4 -5 -7 289.07 31.2
5 -6 -7 53.39 7.4
5 -6 -7 38.2 14.8
4 -6 -7 9.9 4.3
4 -6 -7 5.4 7
3 -6 -7 3.8 3.7
3 -6 -7 -1.4 5.6
-3 6 7 -1.2 3.6
2 -6 -7 154.28 16.1
-2 6 7 149.29 15
1 -6 -7 45.6 10.4
-1 6 7 29.2 9.1
0 -6 -7 220.68 21.6
0 6 7 259.27 22.1
-1 -6 -7 15.5 9.6
-1 -6 -7 15.5 6.8
1 6 7 25.2 8.4
-2 -6 -7 28.6 7.9
-2 -6 -7 17.9 8.6
2 6 7 13.5 6.3
-3 -6 -7 1241.08 61.99
-3 -6 -7 1259.77 66.09
-4 -6 -7 53.29 17.2
5 -7 -7 51.99 15.9
5 -7 -7 37.2 8
4 -7 -7 225.08 28.2
4 -7 -7 218.08 17.6
3 -7 -7 442.26 27.4
3 -7 -7 443.76 37.5
-3 7 7 451.05 28.1
2 -7 -7 413.36 27.7
-2 7 7 401.96 26.8
1 -7 -7 -2.1 4.2
-1 7 7 16.8 6.2
0 -7 -7 103.79 18.6
0 7 7 122.19 15
-1 -7 -7 -6.6 5
-1 -7 -7 17.1 7.7
1 7 7 5.5 5.1
-2 -7 -7 2.2 6.3
-2 -7 -7 0.2 5.6
-3 -7 -7 280.87 30.3
-4 -7 -7 43.9 16.7
5 -8 -7 88.79 13.7
5 -8 -7 62.99 17.9
4 -8 -7 22.4 11
4 -8 -7 63.39 13.9
3 -8 -7 62.19 17.3
3 -8 -7 79.79 14
-3 8 7 99.59 16.5
2 -8 -7 219.38 21
-2 8 7 199.08 19.5
1 -8 -7 112.99 18.6
-1 8 7 134.79 16.2
0 -8 -7 599.94 38.4
0 -8 -7 554.64 37
0 8 7 591.14 38.9
-1 -8 -7 181.48 21.8
-1 -8 -7 119.29 21.6
1 8 7 143.29 22.3
-2 -8 -7 1032.5 72.49
-3 -8 -7 193.88 30.9
-4 -8 -7 285.47 33.4
5 -9 -7 8 7.7
5 -9 -7 17.8 11.4
4 -9 -7 24.5 8.3
4 -9 -7 -4 10.2
3 -9 -7 256.67 23.2
3 -9 -7 246.58 29.7
-3 9 7 214.28 22.3
2 -9 -7 132.99 20.9
-2 9 7 128.09 19.3
1 -9 -7 354.26 29.6
-1 9 7 364.96 29.5
0 -9 -7 712.23 43.9
0 9 7 611.14 39
-1 -9 -7 67.69 15.6
-2 -9 -7 87.49 20.3
-3 -9 -7 188.48 29.7
-4 -9 -7 27.9 11.9
4 -10 -7 16 11.6
4 -10 -7 2.8 8.7
3 -10 -7 562.64 37
3 -10 -7 475.55 41.2
2 -10 -7 2.5 6.8
-2 10 7 1.8 6.1
1 -10 -7 1630.24 69.89
-1 10 7 1586.64 68.09
0 -10 -7 67.59 16.3
-1 -10 -7 773.32 49.9
-2 -10 -7 215.88 32.9
-3 -10 -7 31.3 10.6
-4 -10 -7 -6.5 9.4
4 -11 -7 17.2 12.1
4 -11 -7 28.3 11.2
3 -11 -7 11.4 10
2 -11 -7 9 9.3
1 -11 -7 3.2 7.6
0 -11 -7 496.85 39
-1 -11 -7 73.19 17.9
-2 -11 -7 17.1 10.1
-3 -11 -7 17.8 10.4
3 -12 -7 65.49 17.1
2 -12 -7 12 8.8
1 -12 -7 69.29 16
0 -12 -7 127.49 22.1
-1 -12 -7 22.9 11
-2 -12 -7 304.57 33.6
-3 -12 -7 -4.3 9.8
3 -13 -7 11.6 10.9
2 -13 -7 34.3 16.4
1 -13 -7 114.19 21.9
0 -13 -7 15.2 7.7
-1 -13 -7 79.79 20
-2 -13 -7 114.19 22.7
2 -14 -7 7.9 8.8
1 -14 -7 53.89 15.7
0 -14 -7 16.9 12
-1 -14 -7 22.8 10.4
-2 -14 -7 18.7 11.6
1 -15 -7 13.1 10
0 -15 -7 47.2 18
1 14 -8 0.1 8.7
-1 -14 8 10.5 9.1
0 14 -8 25 8.7
0 -14 8 7.8 11.9
0 -14 8 44.1 13.1
1 -14 8 -6.6 13.4
1 -14 8 11.2 8
2 13 -8 12.7 8.6
-2 -13 8 16.7 10.1
1 13 -8 26.5 10.6
-1 -13 8 15.4 8.4
0 13 -8 -5.6 5.5
0 -13 8 -4.6 6.5
0 -13 8 15.9 8.8
1 -13 8 212.38 33.2
2 -13 8 -9.3 8.2
3 12 -8 70.49 18.6
-3 -12 8 49.6 16.9
2 12 -8 0.7 6.6
-2 -12 8 11.3 8
1 12 -8 31.8 10.5
-1 -12 8 35.2 12.1
-1 -12 8 20.2 9.8
0 12 -8 -0.1 5.6
0 -12 8 -4.2 8.7
0 -12 8 9.8 8.8
1 -12 8 16.2 9.3
1 -12 8 6.5 10.8
2 -12 8 13.3 10.6
3 -12 8 6.8 11.1
4 11 -8 24.3 16.5
-4 -11 8 27.1 11.6
3 11 -8 67.49 18.8
-3 -11 8 36 11.1
2 11 -8 1.7 8.5
-2 -11 8 17.6 8.8
1 11 -8 278.77 26.1
-1 -11 8 211.88 25.3
-1 -11 8 279.97 29.4
0 11 -8 37.5 9.3
0 -11 8 31.7 9.5
0 -11 8 38.3 12.2
-1 11 -8 659.63 26.3
1 -11 8 625.84 27.8
1 -11 8 675.33 49.9
2 -11 8 238.58 29.6
3 -11 8 7.7 10.5
4 10 -8 131.69 26.4
-4 -10 8 213.78 21.1
3 10 -8 20.3 8
-3 -10 8 2.7 5.7
2 10 -8 208.18 39.2
-2 -10 8 190.88 20.5
1 10 -8 37.5 10.7
-1 -10 8 21.4 14.7
-1 -10 8 46.7 12.8
0 10 -8 8.8 4.9
0 -10 8 15.2 8.1
-1 10 -8 50.19 7.6
1 -10 8 43.9 13.6
2 -10 8 -0.9 5
3 -10 8 100.99 23.2
4 -10 8 12.8 11.1
4 9 -8 120.69 25.6
-4 -9 8 171.18 17.7
3 9 -8 5.9 6.2
-3 -9 8 11.1 6.1
2 9 -8 149.09 19.6
-2 -9 8 108.29 17.4
-2 -9 8 110.19 21.6
1 9 -8 155.98 18.8
-1 -9 8 177.48 20.8
-1 -9 8 159.38 19.9
0 9 -8 46.9 10.7
0 -9 8 42.8 11.4
0 -9 8 60.59 14.6
-1 9 -8 3.4 3.4
1 -9 8 6.5 8
2 -9 8 306.07 32.8
5 8 -8 23.5 16.9
4 8 -8 24.7 12.2
-4 -8 8 13.3 6.8
3 8 -8 407.76 38.3
-3 -8 8 491.45 28.1
2 8 -8 216.98 25
-2 -8 8 281.17 23.4
-2 -8 8 190.18 24.5
1 8 -8 4.9 4.7
-1 -8 8 1.6 4.9
-1 -8 8 -2.5 5.3
0 8 -8 226.48 19.1
0 -8 8 272.17 26.1
0 -8 8 258.07 21.2
-1 8 -8 340.77 17.5
1 -8 8 389.66 34.2
4 7 -8 90.39 22.8
-4 -7 8 82.99 9.7
3 7 -8 21.6 10.3
2 7 -8 194.28 22.6
-2 -7 8 181.18 17.9
-2 -7 8 197.28 24.4
1 7 -8 7.4 5.2
-1 -7 8 2.6 5.1
-1 -7 8 0.6 5
0 7 -8 -2.4 6.8
0 -7 8 -4.7 3.9
0 -7 8 -5.6 3.9
-1 7 -8 68.19 7.9
5 6 -8 72.99 20.4
4 6 -8 410.26 38.6
-4 -6 8 360.76 13.8
-3 -6 8 77.19 10.8
2 6 -8 239.78 25.3
-2 -6 8 275.07 20.6
-2 -6 8 233.48 25.7
1 6 -8 25.8 9.7
-1 -6 8 27.2 9.2
-1 -6 8 34.1 9.5
0 6 -8 778.52 38
0 -6 8 886.91 38.4
-1 6 -8 119.69 10.7
5 5 -8 80.19 21.8
4 5 -8 84.89 21
3 5 -8 221.88 26.5
-3 -5 8 214.78 13.3
2 5 -8 43 11.8
-2 -5 8 36 8.4
-2 -5 8 45.7 12
1 5 -8 12.2 7.3
-1 -5 8 14.9 6
-1 -5 8 9.8 6.1
0 5 -8 187.78 17.7
-1 5 -8 455.35 22.5
5 4 -8 188.08 31.2
4 4 -8 248.98 30.9
3 4 -8 41 14.3
-3 -4 8 30.5 4.6
-3 -4 8 20.7 11.7
-3 -4 8 37.3 5.5
2 4 -8 -7.4 3.1
-2 -4 8 1.7 3.2
1 4 -8 300.37 25.3
-1 -4 8 285.57 23.7
0 4 -8 731.33 35.9
-1 4 -8 -0.7 2.8
-2 4 -8 31.2 4.1
-2 4 -8 37.7 4.6
5 3 -8 98.99 24.4
4 3 -8 40.6 14.6
3 3 -8 176.58 28.1
-3 -3 8 119.49 22.4
2 3 -8 144.89 23.5
-2 -3 8 100.79 18.3
-2 -3 8 121.39 11.3
-2 -3 8 124.89 11.3
1 3 -8 123.09 16.1
0 3 -8 91.39 12.1
-1 3 -8 105.39 11.6
-2 3 -8 377.36 17.1
-2 3 -8 371.56 18
2 -3 8 358.66 30.7
-3 3 -8 128.29 8.1
-3 3 -8 127.99 7.8
5 2 -8 5.3 8
4 2 -8 145.69 26.3
3 2 -8 124.19 22.7
-3 -2 8 114.79 20.4
2 2 -8 734.23 44.7
-2 -2 8 729.93 27.8
-2 -2 8 755.42 44
1 2 -8 1587.54 62.89
0 2 -8 768.72 46.1
0 -2 8 866.71 41.1
-1 2 -8 9.8 4.3
1 -2 8 3.6 7
-2 2 -8 172.48 12.8
2 -2 8 193.38 21.5
-3 2 -8 210.78 14.3
-4 2 -8 11.5 5.1
-5 2 -8 6.5 5.9
6 1 -8 9.8 11.6
5 1 -8 12.6 10
4 1 -8 227.38 28.5
3 1 -8 22.3 10.2
-3 -1 8 37.4 13
2 1 -8 26.6 11
1 1 -8 37.2 11
-1 -1 8 30.5 7.8
0 1 -8 131.09 15.8
0 -1 8 140.69 15.2
1 -1 8 4.9 5.6
-2 1 -8 529.55 25.6
2 -1 8 517.65 36.5
-3 1 -8 117.49 12.8
-5 1 -8 -5.8 7.3
6 0 -8 365.66 41
5 0 -8 248.68 32.5
4 0 -8 48.5 14.9
3 0 -8 41.5 13.9
2 0 -8 58.49 13.9
-2 0 8 56.89 7.9
1 0 -8 0.1 3.7
-1 0 8 -2.6 2.8
0 0 -8 3.6 3.8
0 0 8 4.8 3.7
1 0 8 715.43 39.7
-2 0 -8 2.2 3.6
2 0 8 8.9 6.2
-3 0 -8 802.82 36.9
-4 0 -8 567.64 32.4
-5 0 -8 274.67 24.9
6 -1 -8 11.6 11.7
5 -1 -8 6.4 8.1
4 -1 -8 202.28 32.5
3 -1 -8 30.5 10.6
2 -1 -8 3.4 5.8
-2 1 8 11.7 4
1 -1 -8 45.6 11.5
-1 1 8 22.4 8.5
0 1 8 169.98 16.7
1 1 8 5.9 4.7
-2 -1 -8 516.45 29.1
2 1 8 526.85 36.7
-3 -1 -8 123.79 15.2
-4 -1 -8 804.72 42.2
-5 -1 -8 21.6 10.7
5 -2 -8 -12.9 6.6
4 -2 -8 174.98 30
3 -2 -8 160.28 25.9
2 -2 -8 695.73 44.1
-2 2 8 736.83 27.7
1 -2 -8 1535.85 53.09
1 -2 -8 1496.25 61.99
-1 2 8 1497.65 50.59
0 -2 -8 847.92 41.9
0 2 8 857.41 40.1
1 2 8 32.8 9.1
-2 -2 -8 145.49 16.9
2 2 8 195.68 21.7
-3 -2 -8 197.98 19.5
-4 -2 -8 5.8 7.3
5 -3 -8 51.59 18
4 -3 -8 77.29 20.1
3 -3 -8 166.08 27.3
-3 3 8 138.49 9.5
2 -3 -8 91.59 19
2 -3 -8 140.89 12.7
-2 3 8 160.08 13
1 -3 -8 104.49 13.3
-1 3 8 87.49 10.8
0 -3 -8 92.29 15.7
0 3 8 88.19 14.9
-1 -3 -8 84.59 16.7
1 3 8 120.69 19.1
-2 -3 -8 393.86 33.2
-2 -3 -8 362.16 26.3
2 3 8 336.07 29.1
-3 -3 -8 130.49 19.6
-4 -3 -8 -2.1 6.8
5 -4 -8 237.08 37.6
4 -4 -8 285.77 31.4
3 -4 -8 41.9 14.3
3 -4 -8 31.2 6.7
-3 4 8 23 6.1
2 -4 -8 -1.5 3.4
2 -4 -8 5.1 4.1
1 -4 -8 302.27 23.1
-1 4 8 342.57 22.9
0 -4 -8 684.33 38.2
0 4 8 711.83 37.2
-1 -4 -8 2.9 4
-1 -4 -8 1.8 4.1
1 4 8 0.2 3.9
-2 -4 -8 20.3 8.2
-2 -4 -8 28 11.5
2 4 8 38.9 12.1
-3 -4 -8 382.36 35.4
-4 -4 -8 36 10.5
5 -5 -8 103.29 22.4
4 -5 -8 95.99 7.8
4 -5 -8 92.69 21
3 -5 -8 196.68 15.6
3 -5 -8 214.28 26.6
-3 5 8 222.38 16.4
2 -5 -8 23 9.2
-2 5 8 23.4 8.3
1 -5 -8 17.7 7.3
-1 5 8 2.6 5.4
0 -5 -8 222.58 21.9
0 5 8 237.38 21
-1 -5 -8 469.05 31.7
-1 -5 -8 461.15 34.6
1 5 8 520.85 41.4
-2 -5 -8 280.17 28.7
2 5 8 326.77 29.6
-3 -5 -8 -0.4 6.7
-3 -5 -8 6.4 7.6
5 -6 -8 64.69 18.3
4 -6 -8 361.06 20.5
4 -6 -8 415.96 39.5
3 -6 -8 54.09 12.2
3 -6 -8 59.99 17.2
-3 6 8 80.49 12.8
2 -6 -8 275.97 22.2
-2 6 8 285.37 21.1
1 -6 -8 19.6 7.2
-1 6 8 7.5 5.5
0 -6 -8 904.91 47.9
0 6 8 878.81 44.4
-1 -6 -8 109.79 20.3
-1 -6 -8 119.69 15.5
1 6 8 118.19 20.2
-2 -6 -8 1118.89 55.99
-2 -6 -8 1246.78 63.49
-3 -6 -8 477.75 40.1
-4 -6 -8 13.7 11.4
5 -7 -8 11.8 5.1
5 -7 -8 3.7 9.1
4 -7 -8 83.89 21.5
3 -7 -8 25.6 7.6
3 -7 -8 31.4 11.3
-3 7 8 18.7 8.3
2 -7 -8 198.98 19.9
-2 7 8 198.38 18.1
1 -7 -8 0 4.5
-1 7 8 8.4 5.4
0 -7 -8 0.6 6.7
-1 -7 -8 49.9 14.5
-1 -7 -8 51.39 12.9
1 7 8 50.29 13
-2 -7 -8 97.59 21.2
-3 -7 -8 305.17 33.1
-4 -7 -8 3.4 6.4
5 -8 -8 41.7 16.1
4 -8 -8 36.2 15.6
4 -8 -8 12.6 7.8
3 -8 -8 474.45 30.5
3 -8 -8 446.16 39.6
-3 8 8 425.26 29.9
2 -8 -8 241.78 23.6
-2 8 8 223.98 22.2
1 -8 -8 4 5.5
-1 8 8 2 7.8
0 -8 -8 303.07 28.5
0 8 8 251.07 23.8
-1 -8 -8 311.47 30.6
-2 -8 -8 781.72 51.99
-3 -8 -8 -1.7 6.9
-4 -8 -8 53.59 17.9
4 -9 -8 135.29 16.8
4 -9 -8 183.88 32.3
3 -9 -8 6.8 7.1
3 -9 -8 21.7 12
-3 9 8 12.6 8.7
2 -9 -8 110.89 18.2
-2 9 8 114.79 18.5
1 -9 -8 170.88 20.7
-1 9 8 164.08 20.3
0 -9 -8 61.99 14.7
-1 -9 -8 8.9 6.9
-2 -9 -8 348.47 34.9
-4 -9 -8 0.6 12.6
4 -10 -8 166.58 31.1
4 -10 -8 186.58 20.6
3 -10 -8 5.9 7
3 -10 -8 3 8
-3 10 8 3.3 8.8
2 -10 -8 142.89 23.1
-2 10 8 173.78 21.2
1 -10 -8 44.3 13.3
0 -10 -8 17.1 8.2
-1 -10 -8 55.89 16.3
-2 -10 -8 -13.5 6.3
-3 -10 -8 73.99 19.2
-4 -10 -8 30.3 11.3
4 -11 -8 14.2 10.3
4 -11 -8 6.5 9.3
3 -11 -8 41.3 14.7
3 -11 -8 78.69 19.3
2 -11 -8 6.7 9.6
1 -11 -8 220.68 26.1
0 -11 -8 28.2 11.3
-1 -11 -8 652.93 49.6
-2 -11 -8 224.58 35
-3 -11 -8 -4.3 8.6
3 -12 -8 41 12
3 -12 -8 34.8 13.3
2 -12 -8 5.2 7
1 -12 -8 20.2 10.2
0 -12 -8 32.7 12.5
-1 -12 -8 7.6 7.3
-2 -12 -8 13.6 8.9
-3 -12 -8 0.7 8.8
2 -13 -8 29.8 11.3
1 -13 -8 -7.2 7.4
0 -13 -8 -9.7 7.4
-1 -13 -8 238.28 29.6
-2 -13 -8 8 8.4
1 -14 -8 -12.3 7.2
0 -14 -8 31.3 14.6
-1 -14 -8 -5.6 9.2
2 13 -9 64.19 16.7
-2 -13 9 54.89 14.4
1 13 -9 14.7 10.8
-1 -13 9 4.3 11.4
0 13 -9 13.5 9
0 -13 9 34.7 13.5
0 -13 9 34.5 10.5
1 -13 9 -6.5 10.9
3 12 -9 25.5 12.2
-3 -12 9 28.4 12.5
2 12 -9 0.8 6.1
-2 -12 9 5.2 8.2
1 12 -9 23.4 8.8
-1 -12 9 4.1 9.4
0 12 -9 14.4 7.8
0 -12 9 13.8 9.2
0 -12 9 12.7 8.2
1 -12 9 14.1 11.6
3 11 -9 3.3 9.8
-3 -11 9 13.1 11.2
2 11 -9 3.6 9
-2 -11 9 16.2 9.7
1 11 -9 94.79 17.5
-1 -11 9 24 9.6
-1 -11 9 50.19 14.8
0 11 -9 18.3 8.1
0 -11 9 14.8 8.1
0 -11 9 19.8 9.9
-1 11 -9 200.08 13.6
1 -11 9 187.68 30.6
2 -11 9 7.1 8.6
3 -11 9 19.1 12.9
-4 -10 9 73.59 14.6
3 10 -9 266.07 31.4
-3 -10 9 319.57 26.5
2 10 -9 102.59 21
-2 -10 9 69.19 15.2
1 10 -9 89.39 18.5
-1 -10 9 84.69 17.8
-1 -10 9 103.49 18.4
0 10 -9 18 8
0 -10 9 8.2 8
0 -10 9 17.1 9
-1 10 -9 196.78 13.8
1 -10 9 234.38 29.9
2 -10 9 -3.7 9.3
3 -10 9 103.89 22.8
4 9 -9 0.2 8.9
-4 -9 9 31.1 7.9
3 9 -9 130.49 26.2
-3 -9 9 116.99 17.4
2 9 -9 454.55 48.7
-2 -9 9 430.16 31
1 9 -9 11.8 5.8
-1 -9 9 29.4 9
0 9 -9 245.28 20.8
0 -9 9 269.77 22.1
0 -9 9 238.98 26.8
-1 9 -9 7.4 3.5
1 -9 9 -1.6 5.3
2 -9 9 -5.8 5.8
4 8 -9 19.7 11.9
-4 -8 9 -0.2 5.4
3 8 -9 210.68 27.2
-3 -8 9 130.99 15.4
2 8 -9 7.1 7.3
-2 -8 9 3.9 6.1
1 8 -9 422.86 32.8
-1 -8 9 451.05 32.7
-1 -8 9 380.56 31
0 8 -9 490.75 30.2
0 -8 9 528.05 39.1
0 -8 9 521.65 31.4
-1 8 -9 43.8 7.9
5 7 -9 50.79 17.8
4 7 -9 25.8 12.7
3 7 -9 40.2 13.9
2 7 -9 65.59 15.7
-2 -7 9 46.6 13.2
-2 -7 9 48 11.2
1 7 -9 -0.3 4.9
-1 -7 9 -8.6 4.4
-1 -7 9 -9.1 5.5
0 7 -9 963.8 43.5
0 -7 9 918.21 51.19
-1 7 -9 15 5.3
5 6 -9 -4.3 11.3
4 6 -9 30.5 12.6
3 6 -9 19.8 9.8
-3 -6 9 5.4 4.2
2 6 -9 388.46 34.4
-2 -6 9 371.16 24.8
-2 -6 9 392.16 33.2
1 6 -9 123.19 20.9
-1 -6 9 133.59 16.8
-1 -6 9 144.39 17.3
0 6 -9 366.76 25.8
-1 6 -9 2.2 4
5 5 -9 78.49 22.3
4 5 -9 144.09 27.5
3 5 -9 551.84 44.2
-3 -5 9 509.95 22.3
2 5 -9 181.78 21.8
-2 -5 9 159.68 20.2
1 5 -9 12.4 8.5
-1 -5 9 24.7 8.1
0 5 -9 187.18 18.9
-1 5 -9 33.5 8.1
5 4 -9 96.09 24.9
4 4 -9 32.5 12.6
-3 -4 9 34.2 5.4
-3 -4 9 32 5.6
2 4 -9 8.6 9.1
-2 -4 9 15.1 5.7
-2 -4 9 16.9 7.6
1 4 -9 733.73 42.9
0 4 -9 349.17 25.6
-1 4 -9 57.59 10.9
-2 4 -9 476.05 18.6
-2 4 -9 484.85 20.1
5 3 -9 -1.2 8.9
4 3 -9 -8.5 6.8
3 3 -9 23.7 12.4
-3 -3 9 25.1 2.8
2 3 -9 34.2 10.8
-2 -3 9 38 10.6
-2 -3 9 34.2 8.5
-2 -3 9 20.9 6.2
1 3 -9 89.19 16.6
-1 -3 9 65.49 12.2
0 3 -9 53.69 12.9
0 -3 9 81.79 15.9
-1 3 -9 944.91 38.9
1 -3 9 760.12 48.2
-2 3 -9 27.4 5.9
-2 3 -9 27 6.1
2 -3 9 15.2 9.9
-3 3 -9 0.9 2.5
-3 3 -9 10.6 3.5
5 2 -9 61.99 19.4
4 2 -9 136.99 27
3 2 -9 271.07 29.4
2 2 -9 621.34 42.7
-2 -2 9 694.23 28.9
1 2 -9 2158.38 79.09
-1 -2 9 2113.29 67.49
0 2 -9 544.65 33.2
0 -2 9 560.64 34.4
-1 2 -9 91.79 11.8
1 -2 9 97.69 19
-2 2 -9 -1.3 3.6
-2 2 -9 4.1 4.4
2 -2 9 11.2 8.7
-3 2 -9 11.8 4.9
-4 2 -9 -3.6 4
-5 2 -9 5.1 5.5
5 1 -9 9 12.2
4 1 -9 8.3 8.9
3 1 -9 224.78 25.9
2 1 -9 150.58 24.9
-2 -1 9 115.39 10.8
1 1 -9 44.9 12.7
-1 -1 9 59.99 11.7
0 1 -9 606.34 35.3
0 -1 9 604.24 35.2
-1 1 -9 1 3.7
1 -1 9 4.6 5.2
-2 1 -9 94.19 11.6
2 -1 9 122.09 21.5
-3 1 -9 224.68 19.1
-4 1 -9 14.5 7.6
-5 1 -9 35.1 11.2
5 0 -9 -13.3 9.3
3 0 -9 6.9 5.1
2 0 -9 9.8 5
-2 0 9 -5.1 2.3
1 0 -9 10 6.2
-1 0 9 -3.8 3.1
0 0 -9 -1.2 3.5
0 0 9 -4.3 3.6
1 0 9 9.8 5.4
2 0 9 10 7.5
-3 0 -9 12.4 5
-4 0 -9 -8.2 5.7
-5 0 -9 -22.8 8.3
5 -1 -9 14.8 11
4 -1 -9 -1.5 7.8
3 -1 -9 210.68 26.3
2 -1 -9 145.49 25.3
-2 1 9 133.29 11.7
1 -1 -9 49.9 13.2
-1 1 9 57.59 10.8
0 1 9 582.44 34.3
1 1 9 10 6.3
-2 -1 -9 109.29 13.8
2 1 9 99.69 19.9
-3 -1 -9 234.48 21.2
-4 -1 -9 15.9 8.8
-5 -1 -9 69.19 15.9
5 -2 -9 73.09 19.2
4 -2 -9 93.09 21.7
3 -2 -9 235.18 39.1
-3 2 9 278.27 10.7
2 -2 -9 679.63 45.1
-2 2 9 657.53 28.2
1 -2 -9 2095.39 79.69
-1 2 9 2152.78 66.89
0 2 9 536.55 32.5
1 2 9 105.79 18.7
-2 -2 -9 7.4 5.6
2 2 9 11.2 7.3
-3 -2 -9 9.4 5.8
-4 -2 -9 22 9.6
-5 -2 -9 40.6 16.2
5 -3 -9 -9.2 5
4 -3 -9 -3.2 6.8
3 -3 -9 34.2 13.9
-3 3 9 30.7 5.5
2 -3 -9 40.5 13.8
2 -3 -9 21.2 7.2
-2 3 9 48.3 10.8
1 -3 -9 86.19 17.5
1 -3 -9 61.49 12.9
-1 3 9 86.69 14.7
0 -3 -9 74.69 15.2
0 3 9 79.39 14.2
-1 -3 -9 903.01 49.9
-2 -3 -9 18.7 7.3
2 3 9 13.7 8
-3 -3 -9 16.5 6.7
-4 -3 -9 142.79 22.5
5 -4 -9 90.59 26.3
4 -4 -9 56.69 16.9
3 -4 -9 29.8 6.6
3 -4 -9 37.9 13.9
-3 4 9 38.4 7.3
2 -4 -9 3.2 4
2 -4 -9 -0.5 5.4
-2 4 9 10 4.8
1 -4 -9 724.73 38.3
-1 4 9 667.83 35.1
0 -4 -9 385.36 29.9
0 4 9 345.97 26
-1 -4 -9 55.09 12.3
-1 -4 -9 58.39 14.2
1 4 9 21.8 9.4
-2 -4 -9 514.45 40.2
-2 -4 -9 433.46 49.4
-3 -4 -9 339.97 29.5
5 -5 -9 94.79 24.8
4 -5 -9 174.68 30.9
3 -5 -9 458.55 24.8
3 -5 -9 599.24 46.2
-3 5 9 369.86 32
2 -5 -9 187.98 23.7
2 -5 -9 183.38 17
-2 5 9 134.89 15
1 -5 -9 34.9 10.5
-1 5 9 29.2 8.8
0 -5 -9 206.98 22.5
0 5 9 216.98 22
-1 -5 -9 43.1 13.3
-1 -5 -9 29 10.6
1 5 9 46.3 12.4
-2 -5 -9 10.7 6.8
-2 -5 -9 0 8
-3 -5 -9 49.6 17.7
-3 -5 -9 72.49 19.7
5 -6 -9 25.7 13.6
4 -6 -9 18.7 5.6
4 -6 -9 8.5 9.4
3 -6 -9 18 11.4
3 -6 -9 13.9 6.8
-3 6 9 19.2 6.2
2 -6 -9 380.76 26.8
-2 6 9 377.96 26
1 -6 -9 166.18 19
-1 6 9 137.19 16.6
0 -6 -9 357.06 30.2
0 6 9 384.56 36
-1 -6 -9 33.2 9
-1 -6 -9 16.5 8.6
1 6 9 0.9 6.2
-2 -6 -9 369.56 35
-3 -6 -9 103.69 24.9
5 -7 -9 78.19 25.4
4 -7 -9 4.2 7.6
3 -7 -9 61.19 19.2
3 -7 -9 57.59 11.8
-3 7 9 34.9 10.4
2 -7 -9 58.59 12.5
-2 7 9 42.4 10.9
1 -7 -9 7.9 5.4
-1 7 9 11.5 6.3
0 -7 -9 948.21 53.19
0 7 9 950.4 50.19
-1 -7 -9 8.8 6.7
-2 -7 -9 7.2 6.9
-3 -7 -9 56.89 17.3
-4 -7 -9 14 10.9
4 -8 -9 18.9 13.5
4 -8 -9 15.2 7.4
3 -8 -9 216.48 28.5
3 -8 -9 214.88 20.2
-3 8 9 159.08 18.9
2 -8 -9 -2.1 6.1
-2 8 9 3.6 5.1
1 -8 -9 457.85 34.3
-1 8 9 401.36 31.4
0 -8 -9 535.75 39.2
0 8 9 490.35 37.9
-1 -8 -9 28.1 11.5
-2 -8 -9 94.89 21.7
-3 -8 -9 10.2 7.9
-4 -8 -9 78.19 24.3
4 -9 -9 1.7 11.6
4 -9 -9 29.8 9.3
3 -9 -9 107.09 23.8
3 -9 -9 130.59 19.6
2 -9 -9 430.86 32.6
-2 9 9 359.56 29.3
1 -9 -9 14.8 7.4
-1 9 9 7.7 6.9
0 -9 -9 217.38 27.7
-1 -9 -9 15.1 9.7
-2 -9 -9 8.3 8.4
-3 -9 -9 17.2 11.3
4 -10 -9 62.09 13.8
4 -10 -9 78.39 19.6
3 -10 -9 307.57 35.5
3 -10 -9 274.57 27.6
-3 10 9 318.37 30
2 -10 -9 44.9 14.5
1 -10 -9 88.19 18.8
0 -10 -9 22 11.5
-1 -10 -9 194.28 30.6
-2 -10 -9 12.1 12.2
-3 -10 -9 67.09 20.3
3 -11 -9 37.9 12
3 -11 -9 25.9 13.8
2 -11 -9 15.8 9.8
1 -11 -9 25.5 12
0 -11 -9 22.8 12
-1 -11 -9 178.28 29.5
-2 -11 -9 7.2 8.1
-3 -11 -9 10.8 9.5
3 -12 -9 9.6 11.4
2 -12 -9 -6 7.6
1 -12 -9 19.1 11.4
0 -12 -9 24.2 9.8
-1 -12 -9 43 14.7
-2 -12 -9 211.78 45.9
2 -13 -9 78.89 17
1 -13 -9 20.8 12.4
0 -13 -9 17.2 11.9
0 13 -10 23.8 10
0 -13 10 37.1 14.9
0 -13 10 10.2 11.5
2 12 -10 17.1 10.7
-2 -12 10 12.3 9.1
-1 -12 10 -2.8 8.8
0 12 -10 180.28 19.8
0 -12 10 211.08 26.5
0 -12 10 159.08 19.1
1 -12 10 30.3 12.6
3 11 -10 58.89 17.1
-3 -11 10 68.29 14.8
2 11 -10 41.4 14
-2 -11 10 69.19 14.8
1 11 -10 18.9 10.6
-1 -11 10 21.8 12
-1 -11 10 26.2 16.4
0 11 -10 18.4 8.8
0 -11 10 -6.4 11.2
0 -11 10 23 8.3
1 -11 10 35.8 13.9
2 -11 10 159.38 45
3 10 -10 183.58 31.2
-3 -10 10 236.68 23.8
2 10 -10 36.9 11
-2 -10 10 25.7 11.1
1 10 -10 11.8 7
-1 -10 10 3.1 6
-1 -10 10 -18.6 8
0 10 -10 10 6.8
0 -10 10 -8.7 8.3
0 -10 10 3.9 6.1
-1 10 -10 309.07 17.2
1 -10 10 371.56 36.4
2 -10 10 47.1 18.1
3 -10 10 69.49 20.4
4 9 -10 -8.8 19.6
-4 -9 10 0.1 8.7
3 9 -10 73.59 18.7
-3 -9 10 97.09 15.8
2 9 -10 54.59 15.9
-2 -9 10 29.6 11.5
1 9 -10 60.59 15.2
-1 -9 10 51.19 14.9
-1 -9 10 63.19 16.7
0 9 -10 29.9 8.6
0 -9 10 20.5 10.8
-1 9 -10 63.39 9.6
1 -9 10 81.69 19.4
4 8 -10 74.19 18.2
3 8 -10 4.4 7.4
-3 -8 10 -2.8 6
2 8 -10 -1.4 6.8
-2 -8 10 13.9 5.9
1 8 -10 156.68 21
-1 -8 10 161.98 19.8
-1 -8 10 128.29 21.4
0 8 -10 736.73 39.7
0 -8 10 758.12 51.59
-1 8 -10 4.8 4.7
4 7 -10 136.19 26.6
3 7 -10 812.12 56.29
-3 -7 10 763.72 34.9
2 7 -10 58.89 16.3
-2 -7 10 41.6 10.7
1 7 -10 171.48 21.4
-1 -7 10 122.59 24
-1 -7 10 145.29 18.3
0 7 -10 53.69 11.5
-1 7 -10 6 4.2
4 6 -10 24.7 11.2
3 6 -10 23.1 10.5
-3 -6 10 40.9 7.9
2 6 -10 1453.65 70.59
-2 -6 10 1428.36 55.79
1 6 -10 29 10.2
-1 -6 10 23.6 9.2
0 6 -10 295.47 24.7
-1 6 -10 8.2 4.6
5 5 -10 30.3 16.2
4 5 -10 8.2 10.3
3 5 -10 44.4 15.2
-3 -5 10 44.8 7.8
-3 -5 10 36.5 8.1
2 5 -10 97.49 19
-2 -5 10 127.29 14.8
-2 -5 10 118.89 22.1
1 5 -10 770.62 45.4
0 5 -10 3.6 5.3
-1 5 -10 4.7 4.5
-2 5 -10 94.89 7.6
-2 5 -10 91.99 7.1
5 4 -10 -1.4 9.2
4 4 -10 95.39 23.1
3 4 -10 -8.5 7.2
-3 -4 10 1.2 3.4
-3 -4 10 3.8 3
2 4 -10 28 11.3
-2 -4 10 19.8 7.5
1 4 -10 234.58 23.5
-1 -4 10 225.78 20.7
0 4 -10 -2.8 4.3
0 -4 10 26 7.4
-1 4 -10 28.1 8.3
1 -4 10 22.6 8.6
-2 4 -10 778.12 29.8
-2 4 -10 771.42 27.6
4 3 -10 4.1 9.7
3 3 -10 20.7 9
-3 -3 10 25 4
-3 -3 10 21.4 3.7
2 3 -10 129.29 25.1
-2 -3 10 159.78 16
1 3 -10 34 11
-1 -3 10 34.6 8.8
0 3 -10 402.76 29.6
0 -3 10 412.16 31.9
-1 3 -10 166.48 20.1
1 -3 10 161.78 24.7
-2 3 -10 56.29 10
-2 3 -10 57.79 9.4
-3 3 -10 65.69 7.5
-3 3 -10 62.29 7.7
5 2 -10 163.38 32
4 2 -10 0.4 8.1
3 2 -10 122.89 24.1
2 2 -10 736.33 48.9
-2 -2 10 737.83 32.6
1 2 -10 15.4 8.4
-1 -2 10 4.7 5.2
0 2 -10 225.98 22.8
0 -2 10 237.68 22.2
-1 2 -10 236.68 20.5
1 -2 10 220.98 24
-2 2 -10 527.55 28.2
-2 2 -10 451.45 24.7
-3 2 -10 475.95 24.9
-3 2 -10 501.65 25.1
-4 2 -10 47.5 8.3
5 1 -10 44.6 17
4 1 -10 41.7 14.7
3 1 -10 547.15 44
2 1 -10 383.66 34
-2 -1 10 367.86 21.4
1 1 -10 1039.4 54.09
-1 -1 10 1034.7 45.5
0 1 -10 96.19 17.4
0 -1 10 100.39 17.3
-1 1 -10 167.38 18
1 -1 10 164.88 20.2
-2 1 -10 3.9 5.7
-3 1 -10 65.19 11.9
-4 1 -10 9.2 8.1
5 0 -10 187.58 34.9
4 0 -10 240.58 32.1
3 0 -10 -0.2 5.5
2 0 -10 1169.58 62.99
-2 0 10 1252.07 42.5
1 0 -10 88.29 18.3
-1 0 10 79.69 14.4
0 0 -10 444.96 32.1
0 0 10 374.56 29.2
1 0 10 21.5 9.4
-2 0 -10 746.13 36.5
-3 0 -10 340.87 24.5
-4 0 -10 39.7 11.3
5 -1 -10 69.59 18.3
4 -1 -10 39.3 14.4
3 -1 -10 459.85 40.5
2 -1 -10 397.46 35
-2 1 10 365.86 21.4
1 -1 -10 988.6 53.59
-1 1 10 1027.3 44.5
0 -1 -10 117.69 19.5
0 1 10 90.99 16.4
1 1 10 159.98 19.5
-2 -1 -10 15.1 5.6
-3 -1 -10 94.49 15.6
-4 -1 -10 10.4 8.7
5 -2 -10 175.48 33.6
4 -2 -10 2.9 7.9
3 -2 -10 91.49 22.4
-3 2 10 121.79 8.2
2 -2 -10 740.03 48.7
-2 2 10 777.82 37.2
1 -2 -10 17.3 7.1
-1 2 10 -1.8 4.8
0 2 10 239.48 22.4
1 2 10 289.57 25.6
-2 -2 -10 442.36 30.3
-3 -2 -10 529.75 34.3
-4 -2 -10 51.49 13.9
4 -3 -10 17.2 10.1
3 -3 -10 4.4 7.6
-3 3 10 20.5 5.3
2 -3 -10 223.28 26.4
-2 3 10 173.88 15.5
1 -3 -10 30.4 11.1
-1 3 10 20.2 7.4
0 -3 -10 440.96 33.1
0 3 10 454.45 31.2
1 3 10 155.28 19.4
-3 -3 -10 52.19 14.7
-4 -3 -10 -16.3 10.3
4 -4 -10 80.99 22.8
3 -4 -10 -0.9 7.8
-3 4 10 0.2 4
2 -4 -10 32.9 11.9
2 -4 -10 32.8 8.7
-2 4 10 35.4 9
1 -4 -10 209.08 20.8
-1 4 10 226.48 19.8
0 -4 -10 7.5 6.8
0 4 10 0.4 5.6
-1 -4 -10 27.7 11.3
-1 -4 -10 25 8.1
1 4 10 3.2 7
-2 -4 -10 804.92 45.5
-3 -4 -10 60.89 14.6
5 -5 -10 28.5 18.3
4 -5 -10 7.9 8.4
3 -5 -10 54.89 18
3 -5 -10 38.6 8.3
-3 5 10 18.5 8
2 -5 -10 121.69 23.9
2 -5 -10 100.09 15.9
-2 5 10 112.39 13.8
1 -5 -10 750.42 42.2
-1 5 10 739.33 39.7
0 -5 -10 4.6 5
0 5 10 13.1 7.7
-1 -5 -10 10.5 7.5
-1 -5 -10 4 5.6
-2 -5 -10 87.69 21.4
4 -6 -10 26.7 5.8
4 -6 -10 41.8 13
3 -6 -10 32.9 15
3 -6 -10 24.6 7.1
-3 6 10 41.7 9.8
2 -6 -10 1403.96 57.29
2 -6 -10 1454.45 74.69
-2 6 10 1368.76 54.69
1 -6 -10 26.2 10.9
-1 6 10 13.1 8.5
0 -6 -10 266.77 27.8
0 6 10 299.87 27
-1 -6 -10 -3.6 6.5
-2 -6 -10 -4.3 6.2
-3 -6 -10 3.9 6.3
4 -7 -10 88.09 22.5
4 -7 -10 117.19 13.2
3 -7 -10 724.93 38
3 -7 -10 794.22 57.29
-3 7 10 827.62 40.9
2 -7 -10 49.2 11.9
2 -7 -10 39.3 14
-2 7 10 61.09 13.2
1 -7 -10 133.99 21.7
-1 7 10 101.69 18.5
0 -7 -10 35.3 12.5
0 7 10 55.69 21.2
-1 -7 -10 5 6
-2 -7 -10 41.4 14.1
-3 -7 -10 34 12.5
4 -8 -10 53.59 10.5
4 -8 -10 43.1 17.8
3 -8 -10 14.9 6.6
3 -8 -10 11.1 10
-3 8 10 24.5 10.6
2 -8 -10 3.9 5.1
-2 8 10 0 6.1
1 -8 -10 126.39 21.8
-1 8 10 152.28 22.5
0 -8 -10 748.53 51.69
-1 -8 -10 9.6 9.8
-2 -8 -10 88.79 22.3
-3 -8 -10 69.89 18.1
4 -9 -10 -16.8 7.5
4 -9 -10 9.6 14.3
3 -9 -10 49.2 12.3
3 -9 -10 137.99 27
-3 9 10 63.89 15.1
2 -9 -10 33.5 11.6
-2 9 10 50.29 12.1
0 -9 -10 28.8 12.9
-1 -9 -10 116.99 22.8
-2 -9 -10 33.4 13.6
3 -10 -10 202.48 27.5
3 -10 -10 214.28 35.3
2 -10 -10 37.5 14.9
1 -10 -10 -11.2 6.2
0 -10 -10 -5.8 5.4
-1 -10 -10 304.77 33.9
-2 -10 -10 27.8 11
-3 -10 -10 51.59 18.1
3 -11 -10 72.89 19.5
3 -11 -10 57.79 15.5
2 -11 -10 68.69 16.7
1 -11 -10 44.5 14.2
0 -11 -10 27.3 11.3
-1 -11 -10 29 11.6
-2 -11 -10 62.49 34.1
2 -12 -10 -11.9 9.8
1 -12 -10 2.8 7.4
0 -12 -10 223.78 26.9
-1 -12 -10 28.4 11.9
0 -13 -10 19.7 15.1
0 12 -11 85.29 14.8
0 -12 11 69.39 18.3
2 11 -11 14.9 12.8
-2 -11 11 40.3 12.8
-1 -11 11 87.79 18.4
0 11 -11 30.1 11.2
0 -11 11 4.8 13.1
1 -11 11 25.1 10.7
2 10 -11 16.4 10.5
1 10 -11 10 10.5
-1 -10 11 11.5 9.5
0 10 -11 310.17 26
0 -10 11 319.57 33.5
-1 10 -11 11.1 4.8
1 -10 11 -12.1 7.8
2 -10 11 20 16.1
3 9 -11 -5.3 8.6
2 9 -11 26.1 10.1
-2 -9 11 0.3 7.6
1 9 -11 21.4 10.7
-1 -9 11 5.5 10.1
-1 -9 11 11.3 7.8
0 9 -11 186.68 20.5
0 -9 11 237.18 28.1
-1 9 -11 60.39 10
1 -9 11 92.79 22.3
3 8 -11 74.29 21.4
-3 -8 11 79.09 14.3
2 8 -11 187.28 30.6
-2 -8 11 199.58 21.5
1 8 -11 106.29 20.5
-1 -8 11 91.19 18.7
0 8 -11 239.88 22.8
0 -8 11 276.57 29.5
-1 8 -11 936.91 36
3 7 -11 49 15.2
-3 -7 11 56.79 11.4
2 7 -11 17.2 8.9
-2 -7 11 14.2 6.8
1 7 -11 85.79 17
-1 -7 11 58.69 15.4
0 7 -11 115.69 18.7
-1 7 -11 27.1 8
4 6 -11 40.4 15.8
3 6 -11 29.7 14
-3 -6 11 49.6 9.4
-3 -6 11 28 9.8
2 6 -11 57.09 16.5
-2 -6 11 75.69 14.5
1 6 -11 1163.38 59.29
-1 -6 11 1186.08 57.59
0 6 -11 41.2 11.6
-1 6 -11 66.59 11.8
4 5 -11 5.4 10.3
3 5 -11 21.1 13.3
-3 -5 11 43.2 8.3
-3 -5 11 44.1 8
2 5 -11 12.2 13
-2 -5 11 14.6 6.7
-2 -5 11 26.5 8
1 5 -11 -3.1 5.1
-1 -5 11 4.9 7.1
0 5 -11 65.39 13.9
0 -5 11 71.79 15.6
-2 5 -11 106.09 9.1
-2 5 -11 101.79 9.5
4 4 -11 86.19 23.2
3 4 -11 -11.9 7.6
-3 -4 11 0.8 3.7
-3 -4 11 1.8 3.5
2 4 -11 -1.6 5.9
-2 -4 11 6.8 6.3
-2 -4 11 10.4 7
1 4 -11 252.97 27.1
-1 -4 11 236.28 23.2
0 4 -11 0.1 4.8
0 -4 11 -9.8 6.2
-1 4 -11 1074.69 46.6
-2 4 -11 59.49 10
-2 4 -11 61.79 9.3
4 3 -11 50.89 18.4
-3 -3 11 1000.9 29
-3 -3 11 988.5 28.7
2 3 -11 4.5 7.1
-2 -3 11 -3.3 4.9
1 3 -11 277.67 28.5
-1 -3 11 345.37 25.8
0 3 -11 667.43 40.8
0 -3 11 640.34 41.4
-1 3 -11 377.86 27.6
-2 3 -11 649.34 31.6
-2 3 -11 585.24 29.6
-3 3 -11 360.36 18.4
-3 3 -11 365.46 18.8
5 2 -11 31.7 16.6
4 2 -11 2.2 8.1
3 2 -11 29.5 13.3
-3 -2 11 54.09 4.7
-3 -2 11 51.39 4.8
2 2 -11 458.95 39.3
-2 -2 11 432.86 25.8
1 2 -11 13.2 6.6
-1 -2 11 13.6 6.9
0 2 -11 14.2 7.8
-1 2 -11 501.55 32.2
-2 2 -11 41.1 9.9
-2 2 -11 34.4 9.1
-3 2 -11 34.8 8.8
-4 2 -11 7.5 4.7
-4 2 -11 -8 5.5
5 1 -11 4.4 11.9
4 1 -11 0.8 7.6
3 1 -11 23.8 11.7
2 1 -11 138.79 29.5
-2 -1 11 115.29 13.8
1 1 -11 112.49 20.7
-1 -1 11 147.19 16.6
0 1 -11 11 5.4
0 -1 11 6.3 6.7
-1 1 -11 337.37 26.9
1 -1 11 335.07 31.8
-2 1 -11 214.58 19
-2 1 -11 220.48 20
-3 1 -11 56.49 11.6
-4 1 -11 3.6 7.7
5 0 -11 -7.4 10.1
4 0 -11 2.8 6.5
3 0 -11 1.8 6.6
-2 0 11 -10.2 4.2
1 0 -11 -5.7 6
-1 0 11 -2.2 4.6
0 0 -11 2.5 4.4
0 0 11 12.2 7.6
-1 0 -11 0.6 3.7
1 0 11 -3.4 5.4
-2 0 -11 -7.2 4.3
-3 0 -11 9.1 6.4
-4 0 -11 8.2 9.3
4 -1 -11 8.1 9.9
3 -1 -11 -8.8 5.3
-3 1 11 9.1 2.9
2 -1 -11 131.69 24.4
-2 1 11 114.39 13.2
1 -1 -11 98.89 21.4
-1 1 11 148.79 16.9
0 -1 -11 7.8 5.6
0 1 11 -16.4 9
1 1 11 322.27 32.3
-2 -1 -11 226.98 21.2
-3 -1 -11 54.29 12.8
-4 -1 -11 23.8 10.9
5 -2 -11 84.09 22.5
4 -2 -11 -9 5.1
3 -2 -11 59.39 16.9
-3 2 11 65.19 7
2 -2 -11 468.75 40.2
-2 2 11 431.26 25.7
1 -2 -11 8.3 7.5
-1 2 11 -8.5 5.6
0 -2 -11 12.5 6.7
0 2 11 14.5 8
-2 -2 -11 29.7 13.6
-3 -2 -11 44.3 13.5
-4 -2 -11 124.69 21.5
4 -3 -11 48.7 16.6
3 -3 -11 950.3 62.89
-3 3 11 928.81 32.5
2 -3 -11 7.4 7.2
-2 3 11 -1.7 4.6
1 -3 -11 300.77 29.8
-1 3 11 313.17 25
0 3 11 685.63 42.5
-2 -3 -11 673.83 40.5
-3 -3 -11 277.87 28.1
4 -4 -11 88.69 23.1
3 -4 -11 8.6 8.4
-3 4 11 -6.3 4.2
2 -4 -11 1.2 6.3
-2 4 11 29.5 9.7
1 -4 -11 270.77 24.8
1 -4 -11 254.07 28.5
-1 4 11 266.47 22.8
0 -4 -11 12.1 7.5
0 4 11 0.6 5.2
-1 -4 -11 979.3 62.09
4 -5 -11 -14.4 7.1
3 -5 -11 33.6 14.7
-3 5 11 57.69 10.7
2 -5 -11 6.5 6.1
2 -5 -11 11.6 9
-2 5 11 15.7 7
1 -5 -11 -2.1 6
-1 5 11 6 8.1
0 -5 -11 91.99 19.1
0 5 11 83.09 16.9
-1 -5 -11 2.6 8.7
-2 -5 -11 157.38 27.3
4 -6 -11 27.6 14.1
3 -6 -11 31.9 14.7
3 -6 -11 61.59 11.4
-3 6 11 37.2 10.9
2 -6 -11 53.79 16.8
2 -6 -11 62.69 14.2
-2 6 11 64.29 13.1
1 -6 -11 1284.47 60.29
-1 6 11 1190.58 55.79
0 -6 -11 38.9 12.9
-1 -6 -11 78.89 19.5
-2 -6 -11 108.19 23.9
4 -7 -11 45.4 20.1
4 -7 -11 72.79 10.5
3 -7 -11 41 10.4
3 -7 -11 56.29 18.6
-3 7 11 16.4 9.8
2 -7 -11 8.4 9.3
2 -7 -11 13.4 7.8
-2 7 11 -3.6 12.7
1 -7 -11 55.89 16.1
-1 7 11 57.99 15.2
0 -7 -11 173.38 27.9
-1 -7 -11 36 12.1
-2 -7 -11 375.76 38.8
-3 -7 -11 -9.1 7.5
3 -8 -11 65.99 13
3 -8 -11 54.59 18.1
-3 8 11 63.69 14.3
2 -8 -11 191.88 31.8
2 -8 -11 185.38 22.5
-2 8 11 233.68 24.5
1 -8 -11 111.19 24.7
0 -8 -11 232.58 28.8
-1 -8 -11 1019.6 63.19
-2 -8 -11 3.1 9.3
-3 -8 -11 21.5 15.8
3 -9 -11 10.7 9.2
-3 9 11 30.4 12.9
2 -9 -11 20.2 11.8
1 -9 -11 8.9 8.4
0 -9 -11 189.78 30
-1 -9 -11 49.8 15.9
-2 -9 -11 157.18 27.8
2 -10 -11 23.6 10.7
1 -10 -11 16.9 10.1
0 -10 -11 331.57 34.7
-1 -10 -11 23.5 10
-2 -10 -11 63.09 20
2 -11 -11 11 10.9
1 -11 -11 59.39 16.2
0 -11 -11 -6.9 8.8
-1 -11 -11 -5.3 9.1
0 -12 -11 56.09 19
1 10 -12 56.09 15.7
-1 -10 12 81.69 19.4
0 10 -12 12.7 7.8
0 -10 12 -7.1 9.3
1 -10 12 102.29 21.3
2 9 -12 24.4 13.8
-2 -9 12 32.1 12.1
1 9 -12 48.2 17.3
-1 -9 12 33.6 11.5
0 9 -12 15.6 8.2
0 -9 12 -10.2 9.4
-1 9 -12 27.3 7.2
1 -9 12 5.8 11.2
3 8 -12 19.2 12
-3 -8 12 23.4 10.1
2 8 -12 94.39 20.6
-2 -8 12 110.79 19.9
1 8 -12 98.19 19.4
-1 -8 12 54.59 15.1
0 8 -12 12.1 9.6
0 -8 12 4.4 9.9
-1 8 -12 265.87 18.9
3 7 -12 16.8 13.5
-3 -7 12 14.2 11.1
-3 -7 12 29.2 8.9
2 7 -12 17.5 10.4
-2 -7 12 31.3 10.3
1 7 -12 10.5 8.8
-1 -7 12 0.7 8
0 7 -12 32.5 10.2
3 6 -12 -18 9.3
-3 -6 12 39 10.1
2 6 -12 64.19 17.6
-2 -6 12 77.19 14.6
-2 -6 12 77.19 15.2
1 6 -12 34.7 12
-1 -6 12 41 12.2
-1 -6 12 23.7 10.3
0 6 -12 6.8 6.1
-1 6 -12 -0.1 5.6
4 5 -12 49.1 21.3
3 5 -12 12.1 9.6
-3 -5 12 26.3 12.8
-3 -5 12 53.99 9.7
2 5 -12 15.7 9.4
-2 -5 12 6 7.8
-2 -5 12 14.3 8.1
1 5 -12 59.49 14.9
-1 -5 12 25.7 10.3
0 5 -12 307.17 27
-1 5 -12 6.4 5.9
-2 5 -12 4.7 4.3
-2 5 -12 2.8 4.4
4 4 -12 13.3 8.9
3 4 -12 10.5 7
-3 -4 12 -5 4.9
-3 -4 12 -1.5 4.3
2 4 -12 9.8 8.9
-2 -4 12 24.1 8.9
-2 -4 12 42.8 10.6
1 4 -12 91.89 20.4
-1 -4 12 83.69 16.9
0 4 -12 6.6 6.3
0 -4 12 -20.2 9.1
-1 4 -12 11.9 5.7
-2 4 -12 130.89 14.1
4 3 -12 -5.7 11.1
3 3 -12 16.3 8.9
-3 -3 12 13.7 4.6
-3 -3 12 12.4 4.5
2 3 -12 75.49 18.8
-2 -3 12 70.29 13.3
-1 -3 12 -4.5 5.9
0 3 -12 -3.4 4.5
0 -3 12 1.8 6.1
-1 3 -12 126.39 19.9
-2 3 -12 63.89 12.3
-2 3 -12 66.29 12
-3 3 -12 13.3 6.3
-3 3 -12 22 6.4
4 2 -12 94.09 29.1
3 2 -12 4.7 10.1
-3 -2 12 -2.8 3.4
-3 -2 12 7 3.4
2 2 -12 100.89 21.7
-2 -2 12 113.49 15.7
1 2 -12 315.97 30.5
-1 -2 12 243.38 23.8
0 2 -12 76.59 15.5
0 -2 12 120.69 20.7
-1 2 -12 18.3 8.7
-2 2 -12 8 5
-2 2 -12 -4.9 6
-3 2 -12 -8.5 6.9
4 1 -12 3.7 7.9
3 1 -12 384.26 40.2
-3 -1 12 350.06 14.6
-3 -1 12 366.56 14.3
2 1 -12 46.1 15.4
-2 -1 12 24 9
1 1 -12 361.36 32.9
-1 -1 12 370.36 28.4
0 1 -12 531.35 38.6
0 -1 12 516.35 37.5
-1 1 -12 477.75 34.6
-2 1 -12 74.39 14.4
-2 1 -12 77.79 13.6
-3 1 -12 7.7 7.6
-3 1 -12 -1.9 6.2
4 0 -12 34.3 12.4
3 0 -12 70.69 21
-3 0 12 97.79 7.5
-3 0 12 90.69 7.9
2 0 -12 158.08 28.9
-2 0 12 108.89 15.9
1 0 -12 1152.68 62.69
-1 0 12 1129.19 51.49
0 0 -12 76.99 16.7
0 0 12 85.19 17.7
-1 0 -12 152.48 19.4
-2 0 -12 -2.4 6.8
-3 0 -12 4.6 8.4
4 -1 -12 14.7 10.8
3 -1 -12 376.66 39.4
-3 1 12 321.37 15.4
2 -1 -12 30.7 12.9
-2 1 12 34.2 8.8
-1 1 12 408.56 29.3
0 -1 -12 547.75 40.4
0 1 12 530.05 37.2
-1 -1 -12 453.15 34.6
-2 -1 -12 58.09 13
-3 -1 -12 8.5 11.7
4 -2 -12 90.79 22.6
3 -2 -12 10 9.6
-3 2 12 -6.3 4.2
2 -2 -12 125.49 25.8
-2 2 12 88.59 14
1 -2 -12 277.77 30.2
-1 2 12 295.97 24.8
0 -2 -12 96.59 20
0 2 12 58.39 14.9
-2 -2 -12 8.3 6.5
-3 -2 -12 38.6 11.9
3 -3 -12 6.7 7.7
-3 3 12 11.3 5.8
2 -3 -12 43.7 14.1
-2 3 12 66.69 12.4
1 -3 -12 12.3 7.9
-1 3 12 -7.2 5.7
4 -4 -12 2.6 9.6
3 -4 -12 2.1 7.1
-3 4 12 10.5 9.4
2 -4 -12 49.3 16.7
-2 4 12 32.6 10
1 -4 -12 116.39 23.4
-1 4 12 66.09 15.6
4 -5 -12 46.3 17.1
3 -5 -12 27 14.6
-3 5 12 40.9 10.5
2 -5 -12 0.5 6.7
-2 5 12 19 8.9
1 -5 -12 33.7 12.6
1 -5 -12 47.8 11.8
-1 5 12 49 11.9
3 -6 -12 9.3 9.6
-3 6 12 16.8 9.5
2 -6 -12 85.49 22.1
2 -6 -12 71.69 14.9
1 -6 -12 17.7 9.1
-1 6 12 13.8 9.8
0 -6 -12 0.5 7.3
-1 -6 -12 7.4 10.3
-2 -6 -12 132.49 27.2
3 -7 -12 27.6 9.7
-3 7 12 37.1 12.6
2 -7 -12 3 7.3
2 -7 -12 16.3 11
-2 7 12 17.6 10.4
0 -7 -12 4.5 9.6
-1 -7 -12 13.3 9.1
-2 -7 -12 2.5 10.3
3 -8 -12 22.1 10.1
3 -8 -12 -2.3 14.6
-3 8 12 20.1 12.8
2 -8 -12 119.79 20.2
2 -8 -12 115.89 26.3
1 -8 -12 81.29 18.9
0 -8 -12 6.3 9.7
-1 -8 -12 293.87 34.2
-2 -8 -12 70.49 20.6
2 -9 -12 25.6 13
2 -9 -12 43.2 25.8
1 -9 -12 51.79 14.9
0 -9 -12 2.3 9
-1 -9 -12 4.9 10.9
-2 -9 -12 -7.3 9.7
1 -10 -12 75.39 19.1
0 -10 -12 13.5 8.8
-1 -10 -12 56.29 24
1 9 -13 -12.6 9.3
-1 -9 13 -12.1 9.7
0 9 -13 4.3 8.3
0 -9 13 -3.9 8.6
2 8 -13 56.99 16.8
-2 -8 13 35.9 12.2
1 8 -13 14.4 10.3
-1 -8 13 40.9 14.2
0 8 -13 90.99 17.4
0 -8 13 121.29 23.9
2 7 -13 -5.4 10.1
-2 -7 13 3.5 8.3
-2 -7 13 1.3 11.1
1 7 -13 11.8 9.9
-1 -7 13 58.59 14.5
0 7 -13 -4.1 8.2
-1 7 -13 21.7 7.6
3 6 -13 5.6 11.9
-3 -6 13 -4.5 6.3
-3 -6 13 11.4 10
2 6 -13 27.3 16.8
-2 -6 13 43 13.3
1 6 -13 91.59 19.7
0 6 -13 38.4 11.9
-1 6 -13 2 5.8
-2 6 -13 -3.2 2.9
-2 6 -13 1.2 3
3 5 -13 74.89 20.6
-3 -5 13 48 10
2 5 -13 -9.4 6.2
-2 -5 13 -2.9 7.2
-2 -5 13 8.7 9.2
1 5 -13 -4.1 8.3
-1 -5 13 -16.8 8.3
0 5 -13 157.08 24.6
-1 5 -13 2.2 6.5
-2 5 -13 24.9 7.3
-2 5 -13 -3.8 5.1
3 4 -13 54.99 16.1
-3 -4 13 49.5 8.6
-3 -4 13 21.3 7.8
2 4 -13 3.1 9.7
-2 -4 13 1.3 8.5
-2 -4 13 24.4 9.8
1 4 -13 549.65 50.49
-1 -4 13 548.25 38.1
0 4 -13 55.59 14.2
-1 4 -13 2.2 6.1
-2 4 -13 78.79 12.5
3 3 -13 102.09 23.9
-3 -3 13 98.59 10.9
-3 -3 13 144.89 12
2 3 -13 791.92 56.49
-2 -3 13 872.11 42.7
1 3 -13 5.3 6.8
-1 -3 13 -5 8
0 3 -13 2.6 6.2
-1 3 -13 38.7 11.6
-2 3 -13 5.7 6.6
-2 3 -13 -10.8 6.4
-3 3 -13 -1.4 5.7
-3 3 -13 0 8.6
3 2 -13 107.79 21.5
-3 -2 13 62.29 8.5
-3 -2 13 71.29 8.5
2 2 -13 60.89 19.4
-2 -2 13 81.09 14.4
1 2 -13 206.68 26.1
-1 -2 13 163.68 21
0 2 -13 156.28 25.5
-1 2 -13 32.5 10.5
-2 2 -13 79.89 14.1
-2 2 -13 77.29 15.2
-3 2 -13 95.79 15.1
4 1 -13 -15.2 8.4
3 1 -13 79.99 22.3
-3 -1 13 91.69 9
-3 -1 13 94.79 9
2 1 -13 7.6 6.4
-2 -1 13 -5.1 6.6
1 1 -13 149.99 25.9
-1 -1 13 176.38 22.3
0 1 -13 255.67 28.5
-1 1 -13 332.47 29.8
-2 1 -13 90.39 16.5
-2 1 -13 107.49 18.6
-3 1 -13 -12.1 6.6
-3 1 -13 36.1 11.2
4 0 -13 -11.7 10.8
3 0 -13 -14.2 6.7
-3 0 13 1.7 4
-3 0 13 -6.9 3.8
2 0 -13 6.1 6.8
-2 0 13 0.4 7.2
1 0 -13 -5.6 4.8
-1 0 13 -1.9 7.7
0 0 -13 -0.8 6.4
-2 0 -13 -3.9 8.8
-2 0 -13 -17.8 6.7
-3 0 -13 12.8 12.1
-3 0 -13 2.7 7.5
4 -1 -13 -15.7 11.3
3 -1 -13 95.39 23.2
-3 1 13 92.79 10.3
2 -1 -13 1.7 8.1
-2 1 13 4.8 6.4
1 -1 -13 180.08 23.3
-1 1 13 161.98 20.4
0 -1 -13 214.68 25.9
-1 -1 -13 397.96 33.9
-2 -1 -13 86.19 18.2
-3 -1 -13 -0.5 11
3 -2 -13 39.4 15.1
-3 2 13 88.89 11.3
2 -2 -13 37.2 15.7
-2 2 13 52.79 13.3
1 -2 -13 193.38 25.7
-1 2 13 207.38 22.6
0 -2 -13 236.78 26.7
3 -3 -13 239.18 30.3
2 -3 -13 838.72 59.69
-2 3 13 842.72 42.5
1 -3 -13 3 9.1
-1 3 13 -17 6.1
0 -3 -13 5.7 6.6
3 -4 -13 70.59 18.7
-3 4 13 39.2 10
2 -4 -13 5.2 6.8
-2 4 13 -1.4 8.8
1 -4 -13 586.84 47.4
-1 4 13 583.54 39.9
3 -5 -13 43.4 16.7
-3 5 13 25.7 10.4
2 -5 -13 6.5 9.4
1 -5 -13 -10.2 8.1
3 -6 -13 21.5 12.5
-3 6 13 20.8 11.1
2 -6 -13 40.3 13.2
-2 6 13 54.49 15.1
1 -6 -13 57.09 16.9
1 -6 -13 62.49 17.4
0 -6 -13 42.2 14.9
2 -7 -13 5 7.9
1 -7 -13 40.1 13.7
0 -7 -13 14.9 10.3
-1 -7 -13 21.6 12.9
-2 -7 -13 11.9 11.4
2 -8 -13 33.3 12.9
2 -8 -13 39 16.3
1 -8 -13 21.6 12
0 -8 -13 112.39 22.5
-1 -8 -13 122.29 24
1 -9 -13 7.1 9.2
0 -9 -13 10.3 9.7
1 7 -14 90.79 19.4
-1 -7 14 96.19 21.9
0 7 -14 33 11.5
2 6 -14 10 9.6
-2 -6 14 14.2 12.6
-2 -6 14 -7.9 9.9
1 6 -14 -7.6 8.9
-1 -6 14 6.8 9.4
0 6 -14 41.9 14.2
-1 6 -14 29.3 11.2
2 5 -14 20.1 13.6
-2 -5 14 57.09 19.7
-2 -5 14 67.39 15.6
1 5 -14 21.8 10
0 5 -14 63.59 16.5
-1 5 -14 64.29 14.9
2 4 -14 115.19 24.9
-2 -4 14 88.29 18.1
-2 -4 14 108.69 18.6
1 4 -14 30.2 11.5
0 4 -14 9.7 10.2
-1 4 -14 -9.1 8.6
3 3 -14 52.39 24.8
2 3 -14 131.09 27.2
-2 -3 14 127.49 19.9
1 3 -14 25.5 10.3
0 3 -14 69.19 16
-1 3 -14 95.69 18.4
-2 3 -14 6.1 8.9
-2 3 -14 16.2 9.3
3 2 -14 32.3 12.8
-3 -2 14 2.4 6.2
-3 -2 14 1.7 5.1
2 2 -14 6.9 9.2
1 2 -14 71.09 16.7
-1 -2 14 57.79 16.8
0 2 -14 101.29 24.1
-1 2 -14 49.8 13.8
-2 2 -14 5.6 7.6
-2 2 -14 2.9 10
3 1 -14 49.1 24.6
-3 -1 14 -2.9 5.9
2 1 -14 226.48 37.1
-2 -1 14 225.68 22.9
1 1 -14 35.8 14.4
-1 -1 14 16 13.6
0 1 -14 102.19 21.3
-1 1 -14 42.1 12.3
-2 1 -14 -18.4 6.9
-2 1 -14 -7.9 9.6
-3 0 14 -3.8 5.4
-3 0 14 -5.6 5.4
2 0 -14 393.56 40.4
-2 0 14 373.36 28.4
1 0 -14 27.4 13.9
-1 0 14 20.1 13.4
0 0 -14 322.47 33.4
-2 0 -14 180.28 23.4
-2 0 -14 188.68 24.4
3 -1 -14 57.19 28.3
2 -1 -14 253.27 32
-2 1 14 205.78 21.4
1 -1 -14 45.9 15.9
-1 1 14 42.8 15.1
0 -1 -14 86.59 21.5
-1 -1 -14 36.7 12.9
-2 -1 -14 -10.1 8.9
3 -2 -14 -3.7 7.1
2 -2 -14 -1.5 9.1
1 -2 -14 62.39 16.3
-1 2 14 75.79 21.6
0 -2 -14 70.29 19.3
-1 -2 -14 78.79 19
3 -3 -14 57.19 19.1
2 -3 -14 92.19 23.2
-2 3 14 140.69 20.4
1 -3 -14 7.6 7.3
0 -3 -14 106.39 21.3
2 -4 -14 103.19 24.1
-2 4 14 102.89 17.9
1 -4 -14 46.9 15.5
0 -4 -14 26.8 11.7
2 -5 -14 16.3 20.9
-2 5 14 90.49 19
1 -5 -14 10.2 8.1
2 -6 -14 -4 11.1
1 -6 -14 -15.1 8.1
1 -7 -14 135.69 25
1 -7 -14 121.19 27
0 -7 -14 13.9 11.4
0 4 -15 -19.9 10.4
1 3 -15 -2.5 10.5
0 3 -15 29.8 13.7
1 2 -15 4.3 10.1
0 2 -15 57.39 16.6
2 1 -15 142.59 29.7
1 1 -15 0.2 10.1
0 1 -15 285.77 32.4
-1 1 -15 24.5 12.7
2 0 -15 17.5 11.2
1 0 -15 -10.2 6.2
0 0 -15 2 8.7
-1 0 -15 3.8 9
2 -1 -15 211.68 43
1 -1 -15 39.6 13.8
0 -1 -15 249.68 30.3
-1 -1 -15 -0.8 8.7
1 -2 -15 61.09 21.2
0 -2 -15 101.29 22.4
-1 -2 -15 14.1 8.6
1 -3 -15 3.7 9.4
0 -3 -15 31.8 12.3
0 -4 -15 11.9 10.2
loop_
_geom_angle_atom_site_label_1
_geom_angle_atom_site_label_2
_geom_angle_atom_site_label_3
_geom_angle
_geom_angle_site_symmetry_1
_geom_angle_site_symmetry_3
_geom_angle_publ_flag
C4 N3 N1 115.05(15) . . ?
C1 N3 N1 118.62(15) . . ?
C1 N3 C4 126.06(16) . . ?
C2 N1 N3 103.89(15) . . ?
O5 N5 O6 126.33(17) . . ?
C1 N5 O6 116.16(16) . . ?
C1 N5 O5 117.51(16) . . ?
O3 N4 O4 126.80(18) . . ?
C1 N4 O4 118.81(15) . . ?
C1 N4 O3 114.36(16) . . ?
O2 N2 O1 125.70(17) . . ?
C2 N2 O1 115.79(16) . . ?
C2 N2 O2 118.51(16) . . ?
C3 N6 N7 179.0(2) . . ?
N3 C4 O7 125.70(17) . . ?
C3 C4 O7 134.24(17) . . ?
C3 C4 N3 100.03(15) . . ?
N2 C2 N1 120.24(16) . . ?
C3 C2 N1 113.72(16) . . ?
C3 C2 N2 126.04(17) . . ?
N5 C1 N3 113.18(15) . . ?
N4 C1 N3 108.27(15) . . ?
N4 C1 N5 106.08(14) . . ?
H1 C1 N3 109.74(10) . . ?
H1 C1 N5 109.74(10) . . ?
H1 C1 N4 109.74(9) . . ?
C4 C3 N6 124.69(17) . . ?
C2 C3 N6 127.99(17) . . ?
C2 C3 C4 107.28(16) . . ?
loop_
_geom_bond_atom_site_label_1
_geom_bond_atom_site_label_2
_geom_bond_distance
_geom_bond_site_symmetry_2
_geom_bond_publ_flag
O7 C4 1.209(2) . ?
O4 N4 1.212(2) . ?
O1 N2 1.225(2) . ?
O6 N5 1.211(2) . ?
O5 N5 1.217(2) . ?
N3 N1 1.386(2) . ?
N3 C4 1.419(2) . ?
N3 C1 1.395(2) . ?
O2 N2 1.221(2) . ?
N1 C2 1.289(2) . ?
N5 C1 1.527(2) . ?
N4 O3 1.206(2) . ?
N4 C1 1.530(2) . ?
N2 C2 1.448(2) . ?
N6 N7 1.107(2) . ?
N6 C3 1.333(2) . ?
C4 C3 1.440(3) . ?
C2 C3 1.413(2) . ?
C1 H1 1.0000 . ?
