#------------------------------------------------------------------------------
#$Date: 2022-05-05 23:50:32 +0300 (Thu, 05 May 2022) $
#$Revision: 275047 $
#$URL: file:///home/coder/svn-repositories/cod/cif/7/06/12/7061269.cif $
#------------------------------------------------------------------------------
#
# This file is available in the Crystallography Open Database (COD),
# http://www.crystallography.net/
#
# All data on this site have been placed in the public domain by the
# contributors.
#
data_7061269
loop_
_publ_author_name
'Ibrahim, Mukaila A.'
'Boer\'e, Ren\'e T.'
_publ_section_title
;
 The copper sulfate hydration cycle. Crystal structures of CuSO4
 (Chalcocyanite), CuSO4&#x00B7;H2O (Poitevinite), CuSO4&#x00B7;3H2O
 (Bonattite) and CuSO4&#x00B7;5H2O (Chalcanthite) at low temperature using
 non-spherical atomic scattering factors
;
_journal_issue                   12
_journal_name_full               'New Journal of Chemistry'
_journal_page_first              5479
_journal_page_last               5488
_journal_paper_doi               10.1039/D2NJ00169A
_journal_volume                  46
_journal_year                    2022
_chemical_formula_moiety         'Cu O4 S'
_chemical_formula_sum            'Cu O4 S'
_chemical_formula_weight         159.609
_space_group_crystal_system      orthorhombic
_space_group_IT_number           62
_space_group_name_Hall           '-P 2ac 2n'
_space_group_name_H-M_alt        'P n m a'
_symmetry_Int_Tables_number      62
_atom_sites_solution_primary     heavy
_audit_creation_date             2022-01-07
_audit_creation_method
;
Olex2 1.5
(compiled 2021.12.09 svn.r5202d8cf for OlexSys, GUI svn.r6439)
;
_audit_update_record
;
2022-01-10 deposited with the CCDC.	2022-02-02 downloaded from the CCDC.
;
_cell_angle_alpha                90
_cell_angle_beta                 90
_cell_angle_gamma                90
_cell_formula_units_Z            4
_cell_length_a                   8.3958(6)
_cell_length_b                   6.6760(4)
_cell_length_c                   4.8270(3)
_cell_measurement_reflns_used    2493
_cell_measurement_temperature    100.0(3)
_cell_measurement_theta_max      38.1800
_cell_measurement_theta_min      4.8190
_cell_volume                     270.56(3)
_computing_cell_refinement       'CrysAlisPro 1.171.41.116a (Rigaku OD, 2021)'
_computing_data_collection       'CrysAlisPro 1.171.41.116a (Rigaku OD, 2021)'
_computing_data_reduction        'CrysAlisPro 1.171.41.116a (Rigaku OD, 2021)'
_computing_molecular_graphics    'Olex2 1.5 (Dolomanov et al., 2009)'
_computing_publication_material  'Olex2 1.5 (Dolomanov et al., 2009)'
_computing_structure_refinement  'olex2.refine 1.5 (Bourhis et al., 2015)'
_computing_structure_solution    'SHELXS  (Sheldrick, 2008)'
_diffrn_ambient_environment      N~2~
_diffrn_ambient_temperature      100.0(3)
_diffrn_detector                 'Hybrid Pixel Array Detector'
_diffrn_detector_area_resol_mean 5.8140
_diffrn_detector_type            'Pilatus 200K'
_diffrn_measured_fraction_theta_full 1.0000
_diffrn_measured_fraction_theta_max 0.9295
_diffrn_measurement_details
;
List of Runs (angles in degrees, time in seconds):

  # Type    Start    End  Width  t~exp~   \w     \q     \k     \f   Frames
#--------------------------------------------------------------------------
  1  \w     37.00  91.00   0.50    5.73    --   22.41-178.00   0.00  108
  2  \w    -44.00  26.00   0.50    5.73    --   22.41 -38.00-180.00  140
  3  \w     39.00  91.00   0.50    5.73    --   22.41 178.00 150.00  104
  4  \w    -92.00 -22.00   0.50    5.73    --  -25.54 -38.00-150.00  140
  5  \w    -92.00 -22.00   0.50    5.73    --  -25.54 -38.00 -60.00  140
  6  \w    -89.00 -14.00   0.50    5.73    --  -25.54 -57.00  90.00  150
;
_diffrn_measurement_device       'four-circle diffractometer'
_diffrn_measurement_device_type
'SuperNova, Dual, Cu at home/near, Pilatus 200K'
_diffrn_measurement_method       '\w scans'
_diffrn_orient_matrix_type
'CrysAlisPro convention (1999,Acta A55,543-557)'
_diffrn_orient_matrix_UB_11      -0.0433904000
_diffrn_orient_matrix_UB_12      0.0470898000
_diffrn_orient_matrix_UB_13      -0.1078525000
_diffrn_orient_matrix_UB_21      -0.0187158000
_diffrn_orient_matrix_UB_22      0.0804924000
_diffrn_orient_matrix_UB_23      0.0899959000
_diffrn_orient_matrix_UB_31      0.0700919000
_diffrn_orient_matrix_UB_32      0.0508926000
_diffrn_orient_matrix_UB_33      -0.0428774000
_diffrn_radiation_monochromator  mirror
_diffrn_radiation_probe          x-ray
_diffrn_radiation_type           'Mo K\a'
_diffrn_radiation_wavelength     0.71073
_diffrn_reflns_av_R_equivalents  0.0344
_diffrn_reflns_av_unetI/netI     0.0251
_diffrn_reflns_Laue_measured_fraction_full 1.0000
_diffrn_reflns_Laue_measured_fraction_max 0.9295
_diffrn_reflns_limit_h_max       14
_diffrn_reflns_limit_h_min       -13
_diffrn_reflns_limit_k_max       11
_diffrn_reflns_limit_k_min       -10
_diffrn_reflns_limit_l_max       8
_diffrn_reflns_limit_l_min       -7
_diffrn_reflns_number            3682
_diffrn_reflns_point_group_measured_fraction_full 1.0000
_diffrn_reflns_point_group_measured_fraction_max 0.9295
_diffrn_reflns_theta_full        25.2417
_diffrn_reflns_theta_max         38.09
_diffrn_reflns_theta_min         4.86
_diffrn_source                   'micro-focus sealed X-ray tube'
_diffrn_source_type              'SuperNova (Mo) X-ray Source'
_exptl_absorpt_coefficient_mu    8.637
_exptl_absorpt_correction_T_max  0.785
_exptl_absorpt_correction_T_min  0.524
_exptl_absorpt_correction_type   gaussian
_exptl_absorpt_process_details
;
CrysAlisPro 1.171.41.116a (Rigaku Oxford Diffraction, 2021)
Numerical absorption correction based on gaussian integration over
a multifaceted crystal model
Empirical absorption correction using spherical harmonics,
implemented in SCALE3 ABSPACK scaling algorithm.
;
_exptl_crystal_colour            'clear colourless'
_exptl_crystal_colour_lustre     clear
_exptl_crystal_colour_primary    colourless
_exptl_crystal_density_diffrn    3.918
_exptl_crystal_description       prism
_exptl_crystal_F_000             310.162
_exptl_crystal_size_max          0.09
_exptl_crystal_size_mid          0.05
_exptl_crystal_size_min          0.04
_refine_diff_density_max         0.6089
_refine_diff_density_min         -1.0296
_refine_diff_density_rms         0.1972
_refine_ls_d_res_high            0.5760
_refine_ls_d_res_low             4.1979
_refine_ls_goodness_of_fit_ref   1.0215
_refine_ls_hydrogen_treatment    undef
_refine_ls_matrix_type           full
_refine_ls_number_constraints    0
_refine_ls_number_parameters     34
_refine_ls_number_reflns         738
_refine_ls_number_restraints     0
_refine_ls_restrained_S_all      1.0215
_refine_ls_R_factor_all          0.0235
_refine_ls_R_factor_gt           0.0205
_refine_ls_shift/su_max          -0.0002
_refine_ls_shift/su_mean         0.0000
_refine_ls_structure_factor_coef Fsqd
_refine_ls_weighting_details
'w=1/[\s^2^(Fo^2^)+(0.0296P)^2^+0.0357P] where P=(Fo^2^+2Fc^2^)/3'
_refine_ls_weighting_scheme      calc
_refine_ls_wR_factor_gt          0.0520
_refine_ls_wR_factor_ref         0.0535
_reflns_Friedel_coverage         0.0
_reflns_limit_h_max              14
_reflns_limit_h_min              0
_reflns_limit_k_max              11
_reflns_limit_k_min              0
_reflns_limit_l_max              8
_reflns_limit_l_min              0
_reflns_number_gt                653
_reflns_number_total             738
_reflns_threshold_expression     I>=2u(I)
_iucr_refine_instructions_details
;
TITL RB21097if in Pnma #62
REM reset to Pnma #62
CELL 0.71073 8.395844 6.67598 4.827025 90 90 90
ZERR 4 0.000639 0.000443 0.000315 0 0 0
LATT 1
SYMM 0.5-X,-Y,0.5+Z
SYMM 0.5+X,0.5-Y,0.5-Z
SYMM -X,0.5+Y,-Z
SFAC Cu O S
UNIT 4 16 4
RIGU 

L.S. 30
PLAN  2
SIZE 0.04 0.05 0.09
TEMP -173
CONF
MORE -1
fmap 2 53
acta 
WGHT 0.029585 0.035687
FVAR 0.92966
REM <olex2.extras>
REM <HklSrc "%.\\RB21097if.hkl">
REM </olex2.extras>

Cu    1     0.00000  0.00000  0.00000  10.50000  0.00360  0.00305  0.00426 =
 -0.00085 -0.00128  0.00049 
S     3     0.18370  0.25000  0.45155  10.50000  0.00216  0.00241  0.00264 =
 0.00000 -0.00013 -0.00000 
O1    2     0.13062  0.25000  0.73878  10.50000  0.00603  0.00555  0.00411 =
 0.00000  0.00139 -0.00000 
O2    2     0.36421  0.25000  0.43787  10.50000  0.00315  0.00295  0.00629 =
 0.00000 -0.00014 -0.00000 
O3    2     0.13217  0.06669  0.31105  11.00000  0.00474  0.00379  0.00628 =
 -0.00094 -0.00175 -0.00025 
HKLF 4

END
Q1 1 0.475 0.333333 0.041667 11 0.05 0.61

  REM The information below was added by Olex2.
  REM
  REM R1 = 0.0205 for 653 Fo > 4sig(Fo) and 0.0235 for all 738 data
  REM 34 parameters refined using 0 restraints
  REM Highest difference peak 0.6089, deepest hole -1.0296
  REM Mean Shift 0.0000, Max Shift -0.0002.

  REM +++ Tabular Listing of Refinement Information +++
  REM R1_all = 0.0235
  REM R1_gt = 0.0205
  REM wR_ref = 0.0535
  REM GOOF = 1.0215
  REM Shift_max = -0.0002
  REM Shift_mean = 0.0000
  REM Reflections_all = 738
  REM Reflections_gt = 653
  REM Parameters = 34
  REM Hole = -1.0296
  REM Peak = 0.6089
  REM Flack = n/a

  
;
_cod_data_source_file            d2nj00169a2.cif
_cod_data_source_block           RB21097if
_cod_depositor_comments
'Adding full bibliography for 7061267--7061270.cif.'
_cod_database_code               7061269
_chemical_oxdiff_formula         'Cu S O4'
_chemical_oxdiff_usercomment
'Small  prism grown from (NH4)2SO4/H2SO4 X = 0.2'
_olex2_refinement_description
;
1. Rigid body (RIGU) restrains
 All non-hydrogen atoms
 with sigma for 1-2 distances of 0.004 and sigma for 1-3 distances of 0.004
;
_iucr_refine_fcf_details
;
data_RB21097if_CCDC1
_computing_structure_refinement   'olex2.refine 1.5 (Bourhis et al., 2015)'
_shelx_refln_list_code            4
loop_
  _space_group_symop_id
  _space_group_symop_operation_xyz
  1  x,y,z
  2  x+1/2,-y+1/2,-z+1/2
  3  -x,y+1/2,-z
  4  -x+1/2,-y,z+1/2
  5  -x,-y,-z
  6  -x-1/2,y-1/2,z-1/2
  7  x,-y-1/2,z
  8  x-1/2,y,-z-1/2

_space_group_crystal_system       orthorhombic
_space_group_IT_number            62
_space_group_name_H-M_alt         'P n m a'
_space_group_name_Hall            '-P 2ac 2n'
_symmetry_space_group_name_H-M    'P n m a'
_symmetry_space_group_name_Hall   '-P 2ac 2n'
_symmetry_Int_Tables_number       62
_cell_length_a                    8.3958(6)
_cell_length_b                    6.6760(4)
_cell_length_c                    4.8270(3)
_cell_angle_alpha                 90
_cell_angle_beta                  90
_cell_angle_gamma                 90
_cell_volume                      270.56(3)
loop_
  _refln_index_h
  _refln_index_k
  _refln_index_l
  _refln_F_squared_calc
  _refln_F_squared_meas
  _refln_F_squared_sigma
  _refln_F_squared_weight
  _refln_observed_status
0 0 2 7726.650 7366.640 162.448 0.031 o
0 0 4 6945.710 6422.230 150.854 0.038 o
0 0 6 1037.630 1054.940 35.130 1.072 o
0 0 8 53.121 41.537 12.755 14.311 o
0 1 1 348.240 406.981 7.239 12.961 o
0 1 3 2590.980 2576.830 45.581 0.297 o
0 1 5 531.204 558.631 18.373 3.893 o
0 1 7 731.009 746.415 36.455 1.303 o
0 2 0 1171.110 1088.450 16.812 1.624 o
0 2 2 1618.480 1581.250 24.356 0.820 o
0 2 4 1546.280 1569.220 33.298 0.727 o
0 2 6 3679.950 3740.230 82.702 0.126 o
0 3 1 1236.810 1289.900 17.758 1.372 o
0 3 3 3391.140 3122.820 73.038 0.159 o
0 3 5 881.224 890.436 28.603 1.554 o
0 3 7 220.197 226.968 14.404 9.214 o
0 4 0 20542.400 17090.100 198.290 0.006 o
0 4 2 9000.660 8597.020 155.157 0.026 o
0 4 4 4636.180 4601.910 94.170 0.086 o
0 4 6 440.543 471.387 25.635 2.801 o
0 5 1 437.720 437.041 11.304 7.667 o
0 5 3 952.433 970.524 19.799 1.938 o
0 5 5 280.463 299.677 19.928 4.973 o
0 5 7 708.435 718.356 34.658 1.428 o
0 6 0 57.251 71.907 4.799 83.267 o
0 6 2 1910.500 1934.040 38.547 0.499 o
0 6 4 724.613 757.315 30.401 1.674 o
0 6 6 1557.060 1580.280 46.617 0.545 o
0 7 1 0.109 2.123 2.415 406.915 o
0 7 3 1104.470 1153.790 28.950 1.205 o
0 7 5 482.396 477.736 25.440 2.751 o
0 8 0 4525.260 4564.960 94.664 0.088 o
0 8 2 4553.950 4631.300 97.135 0.085 o
0 8 4 2118.640 2213.350 56.510 0.326 o
0 9 1 17.136 13.028 3.553 177.872 o
0 9 3 739.706 727.719 23.576 2.258 o
0 10 0 21.078 22.682 10.199 22.662 o
0 10 2 491.638 515.801 71.150 0.450 o
0 11 1 148.559 141.656 16.865 7.731 o
1 0 1 7557.540 6903.090 80.169 0.044 o
1 0 2 2991.930 2972.960 42.039 0.246 o
1 0 3 8440.290 8328.960 106.154 0.032 o
1 0 4 429.618 476.095 13.372 6.476 o
1 0 5 1266.100 1259.930 45.054 0.686 o
1 0 6 828.132 864.516 26.971 1.733 o
1 0 7 1517.040 1547.600 57.988 0.437 o
1 0 8 127.580 136.039 15.665 8.999 o
1 1 1 4919.170 4978.400 44.763 0.101 o
1 1 2 38.257 37.386 1.455 503.673 o
1 1 3 169.924 171.685 4.544 45.686 o
1 1 4 1.709 2.171 0.889 2773.130 o
1 1 5 25.188 25.753 2.566 296.048 o
1 1 6 48.245 48.278 3.469 150.946 o
1 1 7 264.775 255.499 14.385 8.632 o
1 1 8 37.109 34.854 6.305 56.491 o
1 2 1 8078.630 7880.010 73.646 0.039 o
1 2 2 219.078 229.450 6.407 25.818 o
1 2 3 7164.780 7125.380 80.935 0.046 o
1 2 4 1908.180 1952.670 26.835 0.592 o
1 2 5 2060.200 2047.320 31.241 0.502 o
1 2 6 266.303 273.335 10.208 13.472 o
1 2 7 977.129 1021.110 26.615 1.486 o
1 3 1 1518.560 1582.110 17.571 0.978 o
1 3 2 239.994 246.357 5.980 24.910 o
1 3 3 1190.180 1166.950 27.477 1.180 o
1 3 4 290.038 302.974 8.674 14.754 o
1 3 5 72.854 69.420 5.523 63.473 o
1 3 6 5.989 3.872 2.374 407.645 o
1 3 7 117.577 125.295 8.843 25.062 o
1 4 1 4994.110 4953.090 41.469 0.101 o
1 4 2 447.580 454.577 10.826 7.680 o
1 4 3 3083.240 3178.210 56.328 0.202 o
1 4 4 1019.510 1015.130 21.032 1.720 o
1 4 5 1586.870 1613.200 37.807 0.642 o
1 4 6 358.040 392.690 16.325 5.971 o
1 4 7 1041.220 1022.420 29.535 1.291 o
1 5 1 1741.390 1763.830 17.739 0.781 o
1 5 2 106.856 115.966 3.845 81.431 o
1 5 3 39.280 40.577 2.637 244.503 o
1 5 4 1.773 2.415 2.014 576.989 o
1 5 5 67.170 70.995 6.877 44.277 o
1 5 6 86.456 87.361 7.924 32.895 o
1 5 7 242.495 243.615 13.624 9.695 o
1 6 1 4399.180 4368.970 45.146 0.125 o
1 6 2 600.929 604.308 10.193 5.386 o
1 6 3 1913.470 1929.450 35.727 0.522 o
1 6 4 327.186 348.872 14.010 7.788 o
1 6 5 2086.000 2061.930 35.017 0.469 o
1 6 6 473.110 457.772 15.537 5.300 o
1 6 7 531.503 516.698 20.394 3.519 o
1 7 1 760.907 782.699 13.227 3.316 o
1 7 2 1.602 2.698 1.632 870.672 o
1 7 3 272.709 288.582 9.448 14.290 o
1 7 4 31.467 25.650 3.406 177.677 o
1 7 5 0.591 0.698 2.196 492.152 o
1 7 6 0.528 1.665 3.177 235.469 o
1 8 1 1695.230 1698.000 27.058 0.720 o
1 8 2 66.046 62.572 4.658 86.063 o
1 8 3 759.340 756.605 17.334 2.869 o
1 8 4 911.784 891.096 27.104 1.607 o
1 8 5 1169.910 1102.800 28.759 1.180 o
1 9 1 440.212 450.319 16.231 5.280 o
1 9 2 0.631 0.846 2.595 352.661 o
1 9 3 241.876 243.585 10.960 13.228 o
1 9 4 92.932 90.411 7.660 34.361 o
1 9 5 12.613 14.457 9.881 24.262 o
1 10 1 1501.040 1477.660 31.581 0.794 o
1 10 2 216.981 211.598 13.865 9.915 o
1 10 3 855.472 843.469 34.417 1.289 o
1 11 1 437.410 429.031 34.268 1.759 o
2 0 0 3502.010 3259.640 42.010 0.197 o
2 0 1 502.856 538.223 8.908 7.234 o
2 0 2 4507.450 4444.910 63.833 0.109 o
2 0 3 87.822 89.519 5.853 53.877 o
2 0 4 2713.010 2669.450 43.147 0.286 o
2 0 5 2.498 2.811 2.020 570.265 o
2 0 6 1928.820 1936.120 48.347 0.420 o
2 0 7 566.312 587.617 44.543 1.040 o
2 0 8 1339.070 1424.430 80.284 0.293 o
2 1 0 3484.350 3369.660 56.193 0.174 o
2 1 1 113.303 117.186 3.374 88.407 o
2 1 2 419.023 438.891 7.070 10.655 o
2 1 3 429.128 457.163 8.835 9.100 o
2 1 4 306.165 306.124 9.485 13.032 o
2 1 5 326.317 336.326 8.712 13.043 o
2 1 6 8.616 9.702 2.315 414.524 o
2 1 7 145.449 133.324 14.887 9.764 o
2 2 0 16010.500 14287.200 165.806 0.010 o
2 2 1 2253.340 2297.840 24.301 0.461 o
2 2 2 10752.100 9869.870 116.504 0.022 o
2 2 3 749.421 749.948 14.133 3.319 o
2 2 4 4090.970 4071.590 64.065 0.126 o
2 2 5 77.139 79.205 4.244 91.380 o
2 2 6 1102.730 1100.990 23.360 1.446 o
2 2 7 84.363 75.168 7.360 37.931 o
2 3 0 68.896 71.892 2.663 171.974 o
2 3 1 16.278 17.613 1.353 892.236 o
2 3 2 264.031 278.889 7.058 19.423 o
2 3 3 357.208 376.306 10.784 9.732 o
2 3 4 214.605 222.240 10.121 15.739 o
2 3 5 259.479 275.551 11.258 12.066 o
2 3 6 172.983 179.819 8.550 22.439 o
2 3 7 92.857 91.816 9.678 22.821 o
2 4 0 2371.560 2336.210 33.050 0.394 o
2 4 1 232.378 235.934 3.734 34.043 o
2 4 2 2366.080 2378.590 28.743 0.409 o
2 4 3 324.164 324.890 9.367 12.454 o
2 4 4 1863.740 1929.600 40.785 0.492 o
2 4 5 18.131 17.500 3.654 167.059 o
2 4 6 1567.660 1565.880 36.534 0.673 o
2 4 7 157.734 168.870 13.395 11.462 o
2 5 0 1908.540 1863.890 51.525 0.407 o
2 5 1 66.807 66.624 2.251 210.109 o
2 5 2 126.752 120.323 4.711 59.264 o
2 5 3 272.625 300.264 8.401 15.877 o
2 5 4 193.644 232.902 10.858 14.655 o
2 5 5 262.820 260.832 11.050 12.441 o
2 5 6 2.093 3.212 3.154 237.384 o
2 5 7 136.603 123.052 10.606 17.996 o
2 6 0 6305.270 6289.830 160.898 0.039 o
2 6 1 58.969 61.463 2.811 181.066 o
2 6 2 4396.820 4458.400 59.965 0.114 o
2 6 3 99.802 104.992 5.163 60.653 o
2 6 4 2247.460 2255.900 37.474 0.403 o
2 6 5 4.742 3.729 2.135 503.657 o
2 6 6 763.331 772.302 19.410 2.597 o
2 7 0 220.264 238.628 9.492 16.667 o
2 7 1 16.756 24.452 2.635 299.509 o
2 7 2 22.967 29.369 3.194 204.620 o
2 7 3 156.081 168.013 6.863 31.686 o
2 7 4 127.173 128.868 7.681 30.627 o
2 7 5 136.136 126.354 7.442 31.545 o
2 7 6 39.625 41.459 6.386 54.640 o
2 8 0 726.434 746.542 22.424 2.385 o
2 8 1 269.295 277.717 10.701 12.612 o
2 8 2 720.374 722.711 17.416 3.040 o
2 8 3 280.379 288.618 12.565 10.010 o
2 8 4 858.041 859.421 24.050 1.901 o
2 8 5 42.848 35.261 5.872 63.850 o
2 9 0 65.531 63.308 6.683 47.063 o
2 9 1 16.350 17.823 3.542 177.965 o
2 9 2 62.335 59.998 5.637 63.942 o
2 9 3 157.241 162.191 11.941 13.994 o
2 9 4 72.885 57.541 10.122 21.892 o
2 10 0 2237.570 2237.960 75.539 0.234 o
2 10 1 5.300 3.142 2.723 313.807 o
2 10 2 1697.440 1729.860 35.662 0.613 o
2 10 3 67.528 68.440 8.000 33.843 o
2 11 0 455.831 397.000 39.151 1.390 o
2 11 1 13.260 13.901 9.881 24.261 o
3 0 1 16397.900 14490.400 181.435 0.010 o
3 0 2 204.567 206.047 6.291 28.482 o
3 0 3 3976.370 3704.300 72.605 0.128 o
3 0 4 147.903 191.139 12.720 12.505 o
3 0 5 3987.830 4015.940 84.207 0.112 o
3 0 6 0.060 1.787 2.788 305.881 o
3 0 7 430.585 460.580 87.446 0.304 o
3 1 1 13.546 13.586 0.836 1773.140 o
3 1 2 242.014 246.519 4.379 29.887 o
3 1 3 134.040 131.559 4.108 64.148 o
3 1 4 171.518 191.144 8.014 24.246 o
3 1 5 9.882 7.597 2.068 509.966 o
3 1 6 304.659 298.557 13.996 8.311 o
3 1 7 4.818 3.436 2.830 291.425 o
3 2 1 5033.320 4877.500 46.965 0.099 o
3 2 2 144.593 147.266 3.608 64.902 o
3 2 3 1748.600 1711.770 23.486 0.733 o
3 2 4 19.423 13.321 2.436 349.538 o
3 2 5 2244.860 2213.190 34.258 0.424 o
3 2 6 102.168 105.779 6.084 47.624 o
3 2 7 1310.030 1227.440 38.521 0.803 o
3 3 1 75.772 77.680 2.111 193.952 o
3 3 2 24.232 23.788 1.660 578.415 o
3 3 3 40.890 42.242 3.857 133.601 o
3 3 4 1029.140 1055.710 24.330 1.516 o
3 3 5 49.289 51.212 4.844 86.916 o
3 3 6 66.811 59.541 6.656 47.466 o
3 3 7 1.819 -2.588 3.960 151.598 o
3 4 1 7892.940 7781.730 74.079 0.040 o
3 4 2 7.660 7.724 1.195 1360.060 o
3 4 3 4817.140 4830.480 91.080 0.083 o
3 4 4 0.098 0.169 2.219 483.639 o
3 4 5 1966.210 1965.030 50.120 0.400 o
3 4 6 29.726 31.557 6.042 62.090 o
3 4 7 543.019 555.686 29.951 2.023 o
3 5 1 0.314 0.209 0.728 4413.950 o
3 5 2 278.312 275.111 5.801 21.512 o
3 5 3 170.336 172.453 8.383 23.374 o
3 5 4 37.669 33.572 7.191 44.021 o
3 5 5 28.212 33.106 4.121 126.653 o
3 5 6 285.166 302.391 15.410 7.406 o
3 5 7 9.560 8.444 4.302 126.098 o
3 6 1 983.144 979.144 18.172 1.972 o
3 6 2 6.629 5.464 1.545 901.552 o
3 6 3 1825.690 1795.310 31.860 0.601 o
3 6 4 80.234 72.043 4.795 76.855 o
3 6 5 591.172 592.182 24.217 2.609 o
3 6 6 3.626 1.047 3.320 214.198 o
3 7 1 15.645 17.384 3.600 173.109 o
3 7 2 47.085 48.800 3.140 175.935 o
3 7 3 3.302 4.028 1.792 711.966 o
3 7 4 326.822 345.812 13.617 8.096 o
3 7 5 0.759 1.567 3.408 204.576 o
3 7 6 125.110 131.641 10.971 17.141 o
3 8 1 2786.270 2822.610 51.559 0.248 o
3 8 2 49.784 57.229 5.742 64.041 o
3 8 3 2901.950 3000.370 71.841 0.186 o
3 8 4 28.906 32.058 6.026 62.456 o
3 8 5 686.203 665.961 28.209 1.948 o
3 9 1 20.753 19.297 4.361 118.625 o
3 9 2 6.150 5.416 3.111 240.395 o
3 9 3 0.026 1.575 3.111 245.880 o
3 9 4 226.650 202.458 17.220 6.887 o
3 10 1 327.765 332.732 14.688 7.392 o
3 10 2 0.324 -0.568 3.078 251.376 o
3 10 3 690.097 751.201 26.273 2.060 o
4 0 0 33.438 32.861 2.190 343.062 o
4 0 1 200.449 200.287 3.853 41.717 o
4 0 2 9783.810 9627.210 108.289 0.025 o
4 0 3 503.409 525.317 17.201 4.395 o
4 0 4 1982.820 1970.100 58.040 0.347 o
4 0 5 511.253 523.439 17.329 4.326 o
4 0 6 1572.450 1560.560 36.956 0.667 o
4 0 7 325.523 314.126 22.113 4.034 o
4 1 0 1582.020 1565.180 33.880 0.705 o
4 1 1 14.641 14.641 0.926 1520.820 o
4 1 2 454.517 475.075 6.382 9.790 o
4 1 3 402.512 413.684 7.483 11.091 o
4 1 4 112.741 113.734 5.303 54.992 o
4 1 5 0.009 0.946 1.698 823.669 o
4 1 6 24.901 26.175 3.246 198.596 o
4 1 7 141.263 116.640 8.237 27.064 o
4 2 0 9193.520 8614.200 119.980 0.028 o
4 2 1 4.924 5.633 0.671 3622.790 o
4 2 2 6763.490 6513.930 109.172 0.047 o
4 2 3 513.941 509.009 14.513 5.198 o
4 2 4 3719.450 3675.750 85.090 0.123 o
4 2 5 414.424 396.374 12.086 7.774 o
4 2 6 456.648 439.438 12.561 6.776 o
4 2 7 180.502 182.980 10.479 16.434 o
4 3 0 772.306 809.143 16.574 2.833 o
4 3 1 1036.360 1034.930 11.928 2.131 o
4 3 2 648.907 693.364 13.884 3.960 o
4 3 3 714.962 741.503 17.092 3.070 o
4 3 4 97.415 88.511 7.224 37.621 o
4 3 5 24.540 25.041 3.911 142.668 o
4 3 6 30.106 23.294 4.533 107.312 o
4 3 7 0.612 -0.891 3.561 187.760 o
4 4 0 1866.530 1854.980 32.308 0.575 o
4 4 1 41.105 44.374 1.983 340.788 o
4 4 2 3480.210 3498.880 52.043 0.177 o
4 4 3 466.369 484.670 13.746 5.942 o
4 4 4 1487.710 1451.730 29.128 0.849 o
4 4 5 424.986 404.983 16.613 5.369 o
4 4 6 1835.940 1861.150 44.881 0.471 o
4 4 7 230.889 189.051 12.647 11.413 o
4 5 0 916.431 975.101 23.350 1.772 o
4 5 1 116.894 118.805 4.365 67.458 o
4 5 2 285.403 275.837 9.345 14.267 o
4 5 3 137.709 162.207 15.801 8.716 o
4 5 4 81.268 83.122 6.047 52.561 o
4 5 5 0.976 2.122 2.202 486.515 o
4 5 6 16.495 7.649 3.075 236.061 o
4 5 7 229.275 267.260 28.895 2.664 o
4 6 0 7096.120 6884.860 133.492 0.039 o
4 6 1 57.440 52.889 4.623 91.329 o
4 6 2 1517.760 1550.180 29.898 0.796 o
4 6 3 259.383 252.831 9.058 15.987 o
4 6 4 2126.900 2162.430 44.837 0.391 o
4 6 5 266.241 244.005 12.429 10.722 o
4 6 6 708.196 734.150 21.445 2.549 o
4 7 0 535.121 569.124 23.410 2.876 o
4 7 1 45.443 50.890 4.010 120.897 o
4 7 2 320.816 331.837 12.705 8.991 o
4 7 3 160.964 146.153 9.509 20.323 o
4 7 4 66.273 65.500 6.148 54.220 o
4 7 5 2.458 3.909 3.027 257.099 o
4 7 6 13.989 17.959 7.767 39.028 o
4 8 0 1470.320 1522.590 36.323 0.720 o
4 8 1 10.011 10.080 2.508 353.887 o
4 8 2 842.660 826.408 23.700 1.978 o
4 8 3 280.325 284.924 16.495 6.779 o
4 8 4 728.594 722.689 24.491 2.191 o
4 8 5 240.916 206.995 12.202 11.730 o
4 9 0 313.169 328.042 28.224 2.659 o
4 9 1 68.993 60.491 7.052 42.636 o
4 9 2 204.644 225.276 15.495 8.312 o
4 9 3 218.083 223.308 15.444 8.259 o
4 9 4 31.568 29.674 5.638 70.692 o
4 10 0 2364.150 2268.570 61.843 0.275 o
4 10 1 24.032 22.089 5.250 82.563 o
4 10 2 740.128 722.025 28.241 1.840 o
4 10 3 123.211 108.954 20.524 5.446 o
4 11 1 41.865 34.263 11.517 17.609 o
5 0 1 2267.680 2208.830 31.068 0.436 o
5 0 2 899.959 936.248 15.990 2.346 o
5 0 3 983.997 944.132 25.717 1.568 o
5 0 4 35.096 35.967 4.957 88.532 o
5 0 5 2569.300 2582.010 52.302 0.276 o
5 0 6 310.129 350.415 17.485 5.830 o
5 0 7 1354.380 1344.820 39.719 0.739 o
5 1 1 1155.310 1176.830 10.549 1.785 o
5 1 2 305.599 309.953 5.209 19.766 o
5 1 3 20.345 17.173 2.267 387.320 o
5 1 4 756.330 805.462 17.608 2.771 o
5 1 5 19.793 21.220 3.067 227.243 o
5 1 6 369.444 398.378 12.294 8.208 o
5 1 7 139.977 129.801 8.759 24.344 o
5 2 1 11553.200 10907.000 98.036 0.019 o
5 2 2 47.874 49.175 2.110 290.034 o
5 2 3 4793.780 4755.870 69.955 0.095 o
5 2 4 945.556 937.173 21.244 1.888 o
5 2 5 1897.890 1919.670 37.274 0.514 o
5 2 6 62.426 59.681 4.854 82.018 o
5 2 7 407.979 380.833 19.600 4.434 o
5 3 1 320.823 324.692 5.435 18.080 o
5 3 2 685.513 682.300 14.576 3.685 o
5 3 3 497.470 508.170 11.621 6.397 o
5 3 4 208.070 208.034 9.040 18.767 o
5 3 5 97.842 94.101 7.809 32.838 o
5 3 6 516.612 480.117 15.928 4.822 o
5 3 7 43.117 49.577 7.463 40.330 o
5 4 1 1001.750 964.219 13.655 2.211 o
5 4 2 116.703 127.108 6.337 41.762 o
5 4 3 1176.960 1203.020 26.381 1.211 o
5 4 4 337.347 323.165 9.947 11.481 o
5 4 5 1461.530 1483.610 32.254 0.800 o
5 4 6 73.592 65.120 6.718 45.812 o
5 4 7 1290.330 1304.480 42.616 0.716 o
5 5 1 688.217 693.851 15.829 3.445 o
5 5 2 134.540 136.990 5.831 43.451 o
5 5 3 0.090 1.427 1.299 1396.000 o
5 5 4 726.405 738.352 17.070 3.039 o
5 5 5 71.633 62.056 7.101 41.845 o
5 5 6 251.265 246.111 13.153 10.084 o
5 6 1 4821.510 4799.180 53.753 0.102 o
5 6 2 318.367 320.795 14.702 7.527 o
5 6 3 3716.420 3809.910 83.502 0.123 o
5 6 4 85.504 75.626 5.791 56.241 o
5 6 5 745.670 754.840 23.202 2.258 o
5 6 6 245.286 250.300 13.430 9.829 o
5 7 1 237.012 258.203 9.688 15.410 o
5 7 2 203.713 239.019 10.912 14.240 o
5 7 3 87.930 100.931 8.232 30.368 o
5 7 4 228.962 221.534 13.613 10.004 o
5 7 5 4.512 0.012 3.394 204.953 o
5 8 1 243.604 249.970 7.951 19.096 o
5 8 2 2.618 0.002 2.820 297.430 o
5 8 3 750.357 753.849 22.490 2.321 o
5 8 4 465.595 422.018 21.020 3.748 o
5 8 5 632.545 581.950 33.987 1.580 o
5 9 1 156.644 160.027 9.105 21.612 o
5 9 2 208.507 201.328 13.040 11.110 o
5 9 3 123.793 112.196 9.968 20.513 o
5 9 4 155.609 151.493 19.870 5.661 o
5 10 1 2043.810 2090.700 41.451 0.433 o
5 10 2 120.223 120.783 10.932 17.465 o
6 0 0 12622.300 11508.100 267.040 0.012 o
6 0 1 0.562 0.013 0.755 4084.460 o
6 0 2 6205.570 6174.690 82.582 0.059 o
6 0 3 313.618 316.627 13.830 8.245 o
6 0 4 3209.640 3295.590 71.495 0.165 o
6 0 5 778.256 816.336 23.627 2.102 o
6 0 6 824.247 839.669 25.260 1.878 o
6 0 7 13.284 5.758 3.930 149.625 o
6 1 0 85.334 87.525 5.508 59.759 o
6 1 1 89.742 96.382 4.230 83.420 o
6 1 2 1472.710 1547.110 23.278 0.932 o
6 1 3 465.906 477.365 12.960 6.309 o
6 1 4 3.506 4.062 1.918 623.858 o
6 1 5 345.301 342.260 11.193 9.879 o
6 1 6 16.127 9.534 2.574 326.930 o
6 1 7 192.325 196.326 13.578 10.638 o
6 2 0 1432.390 1411.560 32.178 0.832 o
6 2 1 1205.660 1201.710 13.942 1.582 o
6 2 2 1330.100 1363.670 22.485 1.120 o
6 2 3 89.887 89.889 4.552 76.898 o
6 2 4 1422.680 1413.770 24.875 0.980 o
6 2 5 527.656 536.642 15.472 4.723 o
6 2 6 1640.600 1608.680 34.771 0.664 o
6 2 7 156.815 148.752 12.198 13.615 o
6 3 0 1356.180 1314.590 26.877 1.016 o
6 3 1 2.783 2.267 0.968 2299.000 o
6 3 2 260.202 273.855 5.940 22.473 o
6 3 3 566.435 569.044 14.464 4.664 o
6 3 4 2.939 5.921 1.689 792.662 o
6 3 5 357.283 373.357 13.038 7.999 o
6 3 6 20.714 17.711 10.113 23.077 o
6 3 7 133.040 93.441 10.951 17.431 o
6 4 0 7145.370 7110.170 118.175 0.041 o
6 4 1 330.164 320.406 9.919 11.710 o
6 4 2 4909.490 4914.540 69.193 0.091 o
6 4 3 85.858 93.348 8.289 30.293 o
6 4 4 2351.590 2368.030 38.782 0.370 o
6 4 5 444.685 455.486 16.710 5.060 o
6 4 6 619.035 628.970 22.857 2.698 o
6 5 0 8.215 11.637 3.195 224.480 o
6 5 1 82.293 80.266 4.222 89.726 o
6 5 2 1163.430 1154.090 23.458 1.347 o
6 5 3 266.103 289.869 10.444 12.916 o
6 5 4 0.423 1.455 2.362 425.065 o
6 5 5 227.726 206.288 13.022 10.835 o
6 5 6 40.583 34.084 5.443 73.839 o
6 6 0 353.354 331.860 13.180 8.193 o
6 6 1 13.731 13.412 2.507 343.858 o
6 6 2 823.798 812.161 19.735 2.367 o
6 6 3 234.014 241.499 13.302 10.173 o
6 6 4 778.239 774.200 30.310 1.617 o
6 6 5 564.759 507.050 24.684 2.681 o
6 6 6 1058.520 1034.930 65.040 0.455 o
6 7 0 257.184 251.738 11.742 11.682 o
6 7 1 19.651 13.824 2.685 293.753 o
6 7 2 329.509 327.021 17.311 5.873 o
6 7 3 296.837 317.378 18.627 5.437 o
6 7 4 4.005 0.867 2.771 306.059 o
6 7 5 240.776 205.646 12.254 11.671 o
6 8 0 2830.130 2780.640 58.482 0.228 o
6 8 1 444.715 458.776 20.536 3.879 o
6 8 2 2514.510 2528.530 49.840 0.293 o
6 8 3 14.458 8.166 3.625 173.827 o
6 8 4 1235.430 1253.340 37.562 0.850 o
6 9 0 324.619 319.005 22.872 3.809 o
6 9 1 5.970 2.855 3.331 211.154 o
6 9 2 166.784 155.300 11.568 14.638 o
6 9 3 176.648 150.576 13.164 11.687 o
6 10 0 147.720 242.793 28.991 2.724 o
6 10 1 24.376 23.905 8.064 35.903 o
6 10 2 355.161 344.456 35.336 1.741 o
7 0 1 4716.340 4564.110 69.830 0.099 o
7 0 2 95.552 102.690 5.585 55.335 o
7 0 3 5053.850 5082.710 95.467 0.075 o
7 0 4 699.953 706.661 48.605 0.846 o
7 0 5 581.117 684.321 58.846 0.625 o
7 0 6 281.994 268.393 27.119 2.933 o
7 0 7 756.125 702.090 32.273 1.543 o
7 1 1 496.125 514.489 13.585 5.633 o
7 1 2 39.080 38.742 2.477 269.207 o
7 1 3 331.051 345.186 12.122 9.254 o
7 1 4 226.278 215.032 15.241 8.407 o
7 1 5 3.153 1.201 2.690 325.247 o
7 1 6 38.304 44.184 5.205 79.616 o
7 1 7 27.116 27.694 5.735 69.056 o
7 2 1 1547.140 1567.030 23.460 0.877 o
7 2 2 279.586 289.427 6.882 18.699 o
7 2 3 2396.200 2370.050 42.603 0.346 o
7 2 4 157.004 169.674 11.778 14.255 o
7 2 5 1113.900 1087.260 25.904 1.340 o
7 2 6 318.938 316.268 13.488 8.460 o
7 2 7 1138.780 1161.800 46.201 0.717 o
7 3 1 695.014 725.308 13.178 3.760 o
7 3 2 389.421 369.706 9.902 9.933 o
7 3 3 92.219 94.903 5.655 55.584 o
7 3 4 0.332 0.700 1.964 615.453 o
7 3 5 26.722 22.128 4.396 114.729 o
7 3 6 250.724 241.783 12.735 10.608 o
7 4 1 3991.710 3929.730 46.728 0.148 o
7 4 2 210.775 204.575 8.381 20.585 o
7 4 3 2389.410 2343.220 51.765 0.310 o
7 4 4 310.392 319.749 11.120 10.793 o
7 4 5 982.734 1004.350 30.579 1.304 o
7 4 6 337.625 344.885 22.973 3.719 o
7 5 1 306.957 303.729 8.839 13.947 o
7 5 2 0.698 2.960 2.759 311.107 o
7 5 3 303.860 314.482 13.941 8.277 o
7 5 4 289.508 292.918 11.201 11.365 o
7 5 5 14.080 6.913 3.922 149.757 o
7 5 6 3.806 6.533 4.402 121.854 o
7 6 1 1172.940 1139.710 22.299 1.386 o
7 6 2 50.978 51.864 6.254 55.133 o
7 6 3 547.435 545.808 20.787 3.342 o
7 6 4 310.917 308.186 15.511 7.100 o
7 6 5 1571.600 1649.450 38.780 0.628 o
7 7 1 348.801 371.516 11.633 9.197 o
7 7 2 93.299 89.351 8.351 29.643 o
7 7 3 125.635 145.737 10.614 17.966 o
7 7 4 42.436 33.532 6.958 46.570 o
7 7 5 2.418 3.203 6.783 51.697 o
7 8 1 2155.660 2167.830 49.329 0.362 o
7 8 2 191.028 191.913 12.196 12.707 o
7 8 3 773.999 818.452 28.234 1.740 o
7 8 4 86.866 75.938 9.783 22.761 o
7 9 1 226.361 214.692 11.914 12.339 o
7 9 2 79.689 77.762 9.490 24.241 o
7 9 3 40.439 29.127 11.067 19.078 o
8 0 0 3767.940 3569.170 88.562 0.119 o
8 0 1 7.686 9.591 2.244 441.940 o
8 0 2 274.812 274.181 9.313 14.668 o
8 0 3 4.275 8.543 2.630 333.555 o
8 0 4 1484.630 1541.010 65.344 0.378 o
8 0 5 7.904 13.183 4.344 123.522 o
8 0 6 1121.240 1140.250 37.417 0.934 o
8 0 7 11.902 5.009 5.305 83.457 o
8 1 0 40.794 49.147 3.806 134.665 o
8 1 1 50.179 47.036 3.105 176.509 o
8 1 2 5.764 5.795 1.903 618.236 o
8 1 3 77.917 75.092 4.732 78.618 o
8 1 4 14.745 17.221 2.724 291.223 o
8 1 5 482.851 481.020 13.152 6.055 o
8 1 6 0.131 0.156 2.387 417.983 o
8 2 0 5516.740 5400.850 165.685 0.044 o
8 2 1 30.414 26.820 2.347 326.589 o
8 2 2 4176.920 4008.390 71.620 0.118 o
8 2 3 29.850 33.820 3.695 152.667 o
8 2 4 1650.220 1701.990 35.226 0.638 o
8 2 5 3.088 1.773 2.991 263.587 o
8 2 6 1367.040 1405.780 41.599 0.692 o
8 3 0 7.972 4.915 2.258 442.290 o
8 3 1 616.713 630.208 16.135 3.843 o
8 3 2 6.524 5.228 2.720 311.804 o
8 3 3 2.474 0.375 2.015 577.559 o
8 3 4 2.872 0.318 2.310 440.605 o
8 3 5 242.295 228.210 11.717 12.214 o
8 3 6 5.226 6.234 3.881 155.979 o
8 4 0 1160.220 1140.580 28.500 1.181 o
8 4 1 8.812 8.122 1.644 775.321 o
8 4 2 541.492 543.417 14.326 4.948 o
8 4 3 0.626 2.191 1.986 598.251 o
8 4 4 1132.660 1110.310 24.713 1.355 o
8 4 5 4.854 4.730 3.160 234.276 o
8 4 6 614.820 612.943 31.840 1.745 o
8 5 0 58.101 62.411 5.960 58.507 o
8 5 1 0.634 1.013 2.031 574.071 o
8 5 2 8.770 10.588 3.670 171.780 o
8 5 3 103.840 105.893 8.414 28.351 o
8 5 4 17.066 15.818 3.938 145.873 o
8 5 5 451.656 421.745 17.093 4.980 o
8 5 6 2.783 2.775 5.876 68.840 o
8 6 0 1583.790 1535.080 36.676 0.671 o
8 6 1 3.877 6.831 2.280 442.112 o
8 6 2 3792.110 3697.790 74.234 0.132 o
8 6 3 1.342 0.951 2.433 399.763 o
8 6 4 1062.770 1077.480 31.951 1.159 o
8 6 5 0.549 -3.222 4.272 130.534 o
8 7 0 0.263 -0.719 3.551 188.978 o
8 7 1 117.445 132.402 8.014 29.177 o
8 7 2 0.138 -0.604 3.628 181.085 o
8 7 3 16.330 16.478 4.221 127.907 o
8 7 4 3.025 4.752 3.691 173.245 o
8 8 0 200.228 176.630 17.342 7.012 o
8 8 1 28.029 19.199 4.439 112.723 o
8 8 2 491.396 517.634 20.921 3.534 o
8 8 3 4.486 13.323 5.312 83.560 o
8 9 0 0.230 3.344 10.013 23.769 o
8 9 1 163.624 146.367 16.523 7.935 o
8 9 2 2.340 3.239 5.242 86.439 o
9 0 1 3752.050 3701.620 91.958 0.115 o
9 0 2 10.661 12.715 3.942 148.500 o
9 0 3 3067.490 3086.230 71.477 0.177 o
9 0 4 324.574 349.484 14.173 7.697 o
9 0 5 808.070 867.906 32.629 1.407 o
9 0 6 8.097 13.559 4.873 98.559 o
9 1 1 106.122 113.589 7.892 31.169 o
9 1 2 65.625 58.023 4.691 85.939 o
9 1 3 210.295 226.091 9.870 16.354 o
9 1 4 171.396 179.577 10.322 17.115 o
9 1 5 5.190 5.513 2.933 270.440 o
9 1 6 101.315 116.653 8.151 29.745 o
9 2 1 886.013 874.073 22.239 1.975 o
9 2 2 197.595 226.408 14.248 9.614 o
9 2 3 1136.180 1117.680 25.109 1.333 o
9 2 4 12.389 13.236 2.982 251.331 o
9 2 5 936.556 958.700 23.503 1.745 o
9 2 6 300.053 314.970 15.033 7.489 o
9 3 1 246.089 216.762 9.090 17.036 o
9 3 2 163.953 164.875 9.127 21.140 o
9 3 3 0.605 0.931 2.027 576.757 o
9 3 4 52.491 38.758 4.422 102.428 o
9 3 5 83.535 78.472 7.502 36.640 o
9 4 1 3041.440 3076.350 43.025 0.236 o
9 4 2 36.655 34.630 4.823 92.844 o
9 4 3 1979.500 1970.440 62.400 0.323 o
9 4 4 31.690 26.825 4.496 107.972 o
9 4 5 867.040 911.711 43.908 0.903 o
9 5 1 59.982 55.192 4.698 87.854 o
9 5 2 24.999 21.369 4.589 106.413 o
9 5 3 301.383 318.407 17.728 5.846 o
9 5 4 158.522 134.215 9.227 21.613 o
9 5 5 28.737 35.123 13.033 13.877 o
9 6 1 631.535 620.989 16.615 3.704 o
9 6 2 1.300 4.676 4.086 141.995 o
9 6 3 461.217 476.188 17.602 4.614 o
9 6 4 246.946 234.721 13.884 9.420 o
9 7 1 89.859 93.579 7.080 39.312 o
9 7 2 63.474 59.478 8.644 29.683 o
9 7 3 20.964 16.606 3.987 140.883 o
9 8 1 1727.420 1733.920 39.922 0.558 o
9 8 2 101.061 78.988 8.381 29.334 o
10 0 0 1861.270 1736.950 76.148 0.272 o
10 0 1 16.201 16.645 3.992 142.318 o
10 0 2 2893.350 2880.220 152.817 0.077 o
10 0 3 379.765 376.197 18.153 5.089 o
10 0 4 1194.670 1212.340 51.075 0.609 o
10 0 5 820.290 898.154 43.059 0.949 o
10 1 0 234.130 232.103 16.095 7.566 o
10 1 1 3.869 5.782 2.365 413.133 o
10 1 2 823.647 849.742 24.334 1.941 o
10 1 3 18.117 17.750 4.073 136.126 o
10 1 4 0.602 3.851 3.465 197.582 o
10 1 5 64.359 66.875 7.091 42.321 o
10 2 0 1065.710 1076.470 44.151 0.798 o
10 2 1 419.737 419.222 12.706 7.213 o
10 2 2 1132.900 1121.970 32.764 1.069 o
10 2 3 87.703 90.451 7.644 34.819 o
10 2 4 959.158 987.737 26.429 1.534 o
10 2 5 342.266 336.979 15.002 7.039 o
10 3 0 939.694 979.392 38.495 1.032 o
10 3 1 79.565 76.874 8.931 27.093 o
10 3 2 304.866 343.516 23.256 3.722 o
10 3 3 0.739 0.571 4.107 141.107 o
10 3 4 2.371 1.037 4.262 130.722 o
10 3 5 52.679 51.663 9.635 24.554 o
10 4 0 1911.510 1937.090 49.185 0.417 o
10 4 1 207.250 229.865 10.207 15.661 o
10 4 2 1898.380 1908.020 45.491 0.450 o
10 4 3 179.258 181.594 15.172 8.997 o
10 4 4 1049.530 1071.450 33.153 1.127 o
10 5 0 60.194 70.681 7.736 36.304 o
10 5 1 0.455 0.493 2.793 304.883 o
10 5 2 735.767 711.688 31.029 1.642 o
10 5 3 19.450 15.487 4.869 96.748 o
10 5 4 0.099 1.893 4.251 131.743 o
10 6 0 1038.820 997.853 50.010 0.690 o
10 6 1 12.347 13.070 3.231 216.136 o
10 6 2 481.882 507.069 29.374 2.186 o
10 6 3 164.373 160.928 12.284 13.241 o
10 7 0 310.410 297.226 22.820 3.885 o
10 7 1 18.565 21.397 4.509 111.594 o
10 7 2 345.207 331.590 17.166 5.838 o
11 0 1 268.030 277.438 17.937 6.024 o
11 0 2 26.675 26.355 9.099 28.259 o
11 0 3 103.453 89.242 15.480 9.472 o
11 0 4 5.713 5.240 7.847 38.577 o
11 0 5 1506.950 1607.700 82.927 0.265 o
11 1 1 13.581 16.063 5.187 86.390 o
11 1 2 195.078 180.581 11.581 13.814 o
11 1 3 0.267 3.833 3.245 225.248 o
11 1 4 631.844 659.372 27.418 2.102 o
11 1 5 2.492 -1.538 4.112 140.480 o
11 2 1 4333.530 4389.260 66.989 0.112 o
11 2 2 2.175 0.660 2.889 283.539 o
11 2 3 1752.140 1748.620 41.827 0.530 o
11 2 4 11.132 13.187 3.661 170.929 o
11 2 5 960.860 967.166 61.086 0.521 o
11 3 1 5.024 7.584 3.343 208.836 o
11 3 2 521.112 473.454 29.041 2.198 o
11 3 3 18.139 13.653 4.761 101.442 o
11 3 4 125.059 84.671 10.609 18.709 o
11 4 1 108.538 117.309 10.704 18.421 o
11 4 2 4.051 5.018 4.534 114.980 o
11 4 3 324.526 331.094 19.526 4.902 o
11 4 4 27.057 31.778 9.636 25.202 o
11 5 1 10.746 7.768 3.054 244.235 o
11 5 2 81.250 76.743 9.611 23.654 o
11 5 3 4.857 2.451 4.478 117.973 o
11 6 1 2390.190 2392.880 55.920 0.290 o
11 6 2 4.225 6.390 4.052 143.458 o
12 0 0 493.036 508.550 36.852 1.496 o
12 0 1 12.873 6.821 6.462 56.423 o
12 0 2 2081.530 2211.240 96.034 0.180 o
12 0 3 272.318 257.670 26.136 3.157 o
12 0 4 719.826 706.915 47.490 0.874 o
12 1 0 377.624 429.718 23.543 3.382 o
12 1 1 1.458 -2.328 3.316 216.071 o
12 1 2 484.711 500.786 31.643 1.940 o
12 1 3 6.973 6.125 4.941 96.570 o
12 1 4 11.728 8.180 5.161 87.955 o
12 2 0 982.216 959.010 58.005 0.564 o
12 2 1 181.764 187.685 16.807 7.483 o
12 2 2 933.808 914.155 72.647 0.393 o
12 2 3 222.563 216.104 26.698 3.124 o
12 2 4 945.846 911.262 59.308 0.553 o
12 3 0 635.944 634.483 31.567 1.737 o
12 3 1 155.596 134.930 10.019 19.065 o
12 3 2 220.161 247.911 16.596 7.231 o
12 3 3 43.528 40.773 6.451 53.307 o
12 4 0 863.746 877.283 39.690 1.052 o
12 4 1 72.823 79.591 6.674 45.707 o
12 4 2 1228.480 1222.810 35.525 0.909 o
12 4 3 154.315 170.280 14.789 9.663 o
12 5 0 220.368 247.351 28.248 2.798 o
12 5 1 7.026 8.598 5.238 85.881 o
12 5 2 458.988 440.762 32.307 1.923 o
12 6 1 22.097 18.720 10.667 20.747 o
13 0 1 2119.490 2112.700 94.298 0.185 o
13 0 2 5.799 7.334 6.128 63.044 o
13 0 3 1156.000 1200.440 64.954 0.437 o
13 1 1 15.517 2.717 6.303 59.254 o
13 1 2 68.221 43.408 12.389 15.015 o
13 1 3 71.558 65.855 15.225 9.995 o
13 2 1 321.484 349.059 23.892 3.514 o
13 2 2 39.386 32.543 11.248 18.474 o
13 2 3 396.768 427.453 38.609 1.445 o
13 3 1 82.028 85.687 12.652 14.096 o
13 3 2 32.319 40.896 13.253 13.396 o
13 4 1 1698.390 1619.620 58.958 0.398 o
14 1 0 116.274 95.366 17.965 7.072 o
14 1 1 7.447 14.179 10.409 21.919 o
14 2 0 1611.520 1657.470 86.131 0.243 o
;
_olex2_submission_special_instructions 'No special instructions were received'
_oxdiff_exptl_absorpt_empirical_details
;
Empirical correction (ABSPACK) includes:
- Absorption correction using spherical harmonics
- Frame scaling
;
_oxdiff_exptl_absorpt_empirical_full_max 1.283
_oxdiff_exptl_absorpt_empirical_full_min 0.853
loop_
_space_group_symop_id
_space_group_symop_operation_xyz
1 x,y,z
2 x+1/2,-y+1/2,-z+1/2
3 -x,y+1/2,-z
4 -x+1/2,-y,z+1/2
5 -x,-y,-z
6 -x-1/2,y-1/2,z-1/2
7 x,-y-1/2,z
8 x-1/2,y,-z-1/2
loop_
_atom_site_label
_atom_site_type_symbol
_atom_site_fract_x
_atom_site_fract_y
_atom_site_fract_z
_atom_site_U_iso_or_equiv
_atom_site_adp_type
_atom_site_occupancy
_atom_site_site_symmetry_order
_atom_site_refinement_flags_posn
_atom_site_refinement_flags_adp
_atom_site_refinement_flags_occupancy
Cu Cu 0.0 0.0 0.0 0.00364(7) Uani 1.000000 2 S TU P
S S 0.18370(5) 0.25 0.45155(8) 0.00240(8) Uani 1.000000 2 S TU P
O1 O 0.13062(14) 0.25 0.7388(2) 0.0052(2) Uani 1.000000 2 S TU P
O2 O 0.36421(14) 0.25 0.4379(3) 0.0041(2) Uani 1.000000 2 S TU P
O3 O 0.13217(9) 0.06669(12) 0.31105(18) 0.00494(15) Uani 1.000000 1 . U .
loop_
_atom_site_aniso_label
_atom_site_aniso_U_11
_atom_site_aniso_U_22
_atom_site_aniso_U_33
_atom_site_aniso_U_12
_atom_site_aniso_U_13
_atom_site_aniso_U_23
Cu 0.00360(12) 0.00305(11) 0.00426(11) 0.00049(6) -0.00128(6) -0.00085(6)
S 0.00216(16) 0.00241(15) 0.00264(14) -0.000000 -0.00013(12) 0.000000
O1 0.0060(5) 0.0055(4) 0.0041(5) -0.000000 0.0014(4) 0.000000
O2 0.0031(5) 0.0029(4) 0.0063(5) -0.000000 -0.0001(4) 0.000000
O3 0.0047(4) 0.0038(3) 0.0063(3) -0.0002(3) -0.0018(3) -0.0009(3)
loop_
_atom_type_symbol
_atom_type_scat_dispersion_real
_atom_type_scat_dispersion_imag
_atom_type_scat_source
_atom_type_scat_dispersion_source
Cu 0.34125 1.28947 'NoSpherA2: Chem.Sci. 2021, DOI:10.1039/D0SC05526C'
'Henke, Gullikson and Davis, At. Data and Nucl. Data Tables, 1993, 54, 2'
O 0.01158 0.00611 'NoSpherA2: Chem.Sci. 2021, DOI:10.1039/D0SC05526C'
'Henke, Gullikson and Davis, At. Data and Nucl. Data Tables, 1993, 54, 2'
S 0.12424 0.12443 'NoSpherA2: Chem.Sci. 2021, DOI:10.1039/D0SC05526C'
'Henke, Gullikson and Davis, At. Data and Nucl. Data Tables, 1993, 54, 2'
loop_
_diffrn_refln_index_h
_diffrn_refln_index_k
_diffrn_refln_index_l
_diffrn_refln_intensity_net
_diffrn_refln_intensity_u
_diffrn_refln_scale_group_code
0 0 -1 0.15611 0.78226 6
0 0 -1 1.96681 1.9134 5
0 0 2 6343.71 196.057 3
0 0 -2 6390.81 201.148 5
0 0 3 -0.40527 1.67278 3
0 0 3 -1.0427 2.41846 5
0 0 -3 -0.47132 1.54605 6
0 0 -4 5508.25 180.959 1
0 0 4 5595.44 188.009 5
0 0 -5 -1.18377 3.54474 1
0 0 6 920.15 52.3774 5
0 0 -6 907.436 37.2607 6
0 0 7 -2.69301 5.70242 5
0 0 8 35.8991 11.0241 5
0 1 0 0.56008 0.70193 4
0 -1 0 0.13292 0.91652 4
0 1 0 0.11004 0.60799 2
0 1 0 0.48944 1.01324 6
0 1 -1 365.533 14.3047 3
0 -1 -1 360.713 14.7473 6
0 -1 -1 370.892 15.0286 5
0 1 -1 315.394 12.5381 1
0 1 1 349.414 14.307 6
0 -1 1 355.085 14.1583 3
0 -1 -2 -0.60665 2.14931 5
0 1 -2 1.32421 1.68806 1
0 -1 2 -0.36999 1.44445 3
0 1 2 -0.42998 1.62856 6
0 1 -3 2149.87 73.3703 6
0 1 3 2328.03 84.1705 5
0 -1 3 2204.31 75.7243 3
0 -1 3 2246.99 83.6046 5
0 1 -4 1.27266 1.55574 6
0 -1 -4 2.3789 1.98656 6
0 1 4 -1.4985 3.47558 5
0 1 -4 -1.5197 2.78657 1
0 -1 4 4.31303 4.30482 5
0 -1 5 500.997 32.7909 5
0 1 -5 469.386 20.5069 6
0 1 5 536.335 33.7793 5
0 -1 -5 457.934 24.7086 6
0 1 6 -2.25557 4.77625 5
0 -1 6 2.27302 4.8132 5
0 -1 -6 -3.1188 2.95406 6
0 1 7 627.021 43.6844 5
0 -1 7 663.623 45.4844 5
0 1 8 2.98682 6.32542 5
0 -1 8 -6.15877 6.52136 5
0 -2 0 908.32 31.6166 2
0 -2 0 916.336 31.9991 4
0 2 0 961.559 32.6364 4
0 2 0 984.802 32.9946 6
0 -2 0 931.85 33.2915 6
0 2 -1 -0.48081 1.87713 3
0 2 1 1.77056 2.01007 6
0 -2 -1 0.44463 1.92933 5
0 -2 1 -0.40316 2.12546 4
0 -2 -2 1396.46 50.4529 5
0 2 2 1373.92 49.0001 6
0 -2 2 1411.56 44.9319 1
0 2 -2 1298.34 43.7462 6
0 -2 2 1356.94 48.2491 3
0 -2 3 2.27375 2.84812 5
0 2 3 3.52311 2.90824 6
0 2 3 -1.10167 2.33256 5
0 2 -3 0.87579 1.55145 1
0 2 -3 -0.21987 0.90753 6
0 -2 3 1.26468 1.98585 3
0 2 -3 0.7156 2.14273 3
0 -2 4 1304.74 57.1812 5
0 2 4 1411.45 58.2735 5
0 2 -4 1311.95 46.2972 1
0 -2 -4 1404.62 52.4603 6
0 2 5 -1.917 3.63034 5
0 2 -5 -0.18371 0.83428 6
0 -2 5 -1.9307 4.83679 5
0 -2 -5 1.18869 2.97791 6
0 -2 -6 3322.34 116.357 6
0 -2 6 3129.06 128.623 5
0 2 6 3220.14 127.59 5
0 -2 7 -2.76499 5.85426 5
0 2 7 2.70287 5.11858 5
0 3 0 0.33304 1.4457 2
0 -3 0 -0.35518 1.578 2
0 3 -1 1156.04 43.4311 3
0 -3 1 1122.32 39.1822 6
0 3 1 1176.22 41.8914 6
0 -3 1 1073.86 39.9287 2
0 -3 1 1137.28 40.8316 4
0 3 1 1027.8 39.3604 2
0 3 -1 1112.22 38.9532 6
0 3 -2 1.55648 1.25074 6
0 -3 -2 0.86489 2.00611 6
0 -3 2 0.36264 1.37368 1
0 -3 2 0.71778 2.03906 4
0 3 2 -0.72675 1.94648 6
0 3 -3 2678.75 94.3289 3
0 3 -3 2715.11 84.9485 6
0 -3 4 -1.66762 4.1778 5
0 3 4 -1.62104 3.75988 5
0 -3 -4 1.25229 2.90464 6
0 -3 -5 738.535 39.0737 6
0 3 5 793.997 45.2636 5
0 -3 5 783.928 45.0237 5
0 -3 6 2.4523 5.19286 5
0 3 6 2.46271 5.71252 5
0 -3 -6 3.0892 4.13754 6
0 -3 7 212.82 25.0504 5
0 -3 -7 178.238 17.6947 6
0 3 7 209.229 24.5052 5
0 -4 0 14551.8 451.986 4
0 4 0 14997.6 453.708 6
0 4 0 15274 457.619 3
0 4 0 14415 450.878 2
0 4 0 14668 453.219 4
0 -4 0 14873.7 451.204 2
0 -4 0 14589.1 455.426 6
0 -4 1 -1.28845 2.28245 4
0 4 -1 2.11625 2.12541 6
0 -4 1 1.12417 2.06133 2
0 -4 -1 2.76946 2.14116 6
0 4 1 1.62498 1.91908 2
0 -4 1 -0.58155 1.45693 6
0 4 1 0.64314 1.82696 4
0 4 -1 0.96163 2.87941 3
0 -4 2 7212.51 229.586 1
0 4 -2 7367.21 228.316 6
0 -4 -2 7717.18 239.35 6
0 -4 3 0.3593 1.36084 1
0 -4 -3 3.89654 3.47854 6
0 4 -3 -1.14146 3.05701 3
0 4 -3 -0.30923 1.20724 6
0 -4 -4 4003.71 141.115 6
0 -4 4 4018.94 145.061 5
0 4 -4 3913.57 137.068 3
0 -4 -5 10.1175 5.29881 6
0 -4 5 2.26348 5.25311 5
0 -4 -6 415.026 29.2285 6
0 -4 6 396.635 33.967 5
0 -4 7 -2.95652 6.25985 5
0 -4 -7 1.83337 4.25236 6
0 -5 0 1.31625 2.15871 4
0 5 0 -1.14831 3.60618 3
0 -5 0 0.61617 2.02109 2
0 -5 0 -0.9432 2.36292 6
0 5 -1 415.827 24.5445 3
0 -5 1 382.138 20.1809 6
0 5 -1 388.628 19.4005 6
0 -5 -1 367.257 22.6103 6
0 -5 1 343.917 18.4387 2
0 5 -2 -0.58293 1.74549 6
0 -5 2 0.8609 2.57781 2
0 -5 -2 1.34666 3.12342 6
0 5 2 0.93466 2.16785 4
0 -5 -3 873.461 43.5134 6
0 -5 3 881.996 31.9403 1
0 5 -3 787.552 40.7279 3
0 5 3 818.582 39.4608 4
0 5 -3 816.996 31.1164 6
0 -5 4 1.95191 4.13274 5
0 5 -4 -1.48029 3.43332 3
0 -5 -5 260.984 23.2306 6
0 -5 5 256.538 25.6661 5
0 -5 6 -2.78433 5.89609 5
0 -5 -6 24.6704 8.48586 6
0 -5 -7 644.104 40.1839 6
0 -5 7 589.057 44.936 5
0 6 0 54.4335 9.82652 3
0 6 0 73.4757 8.53278 4
0 -6 0 60.1631 7.16901 2
0 -6 0 56.3456 8.28375 6
0 -6 -1 -1.36704 3.17066 6
0 6 -1 -1.49097 3.99307 3
0 6 1 1.47693 2.61631 2
0 6 1 -0.9829 2.63238 4
0 -6 1 2.9907 2.83183 2
0 -6 2 1710.4 63.4895 2
0 6 2 1596.85 68.0784 3
0 -6 -2 1661.98 70.3669 6
0 6 2 1702.58 65.2037 4
0 -6 -3 1.78874 3.78727 6
0 -6 3 2.41114 3.02019 2
0 6 3 -1.2941 3.00149 4
0 6 -3 -1.68487 3.56735 3
0 -6 4 611.594 35.3517 2
0 6 4 643.774 36.6879 4
0 6 -4 712.319 39.6785 3
0 6 5 -1.97907 4.59071 4
0 -6 -5 -2.18346 4.62351 6
0 -6 5 -2.53062 5.86982 5
0 -6 6 1351.02 73.282 5
0 -6 -6 1327.41 67.2595 6
0 6 6 1416.42 69.2051 4
0 -6 -7 -2.28762 5.30589 6
0 6 7 5.21973 6.05329 4
0 7 0 -1.77768 4.45351 3
0 7 0 1.11561 2.58761 4
0 -7 0 -1.37988 3.69562 6
0 7 1 1.13887 3.05021 4
0 7 1 7.11702 5.32766 3
0 7 -1 -1.79434 5.09712 3
0 -7 -1 1.59991 4.54482 6
0 7 2 -1.71577 4.59514 3
0 7 2 1.23091 3.08367 4
0 -7 -2 9.20209 6.03671 6
0 7 3 939.38 45.9934 4
0 7 -3 980.507 51.7796 3
0 -7 -3 1072.68 53.818 6
0 7 3 1006.49 49.6047 3
0 -7 -4 2.26442 4.28864 6
0 7 4 1.63464 3.46149 4
0 7 -4 2.06643 4.3756 3
0 -7 5 393.855 34.0283 5
0 7 5 386.129 29.6745 4
0 -7 -5 460.376 34.6474 6
0 -7 -6 5.01571 6.28349 6
0 7 6 2.30904 5.35645 4
0 -7 6 3.07927 7.14266 5
0 8 0 3992.02 147.4 3
0 8 0 4026.1 137.255 4
0 -8 0 3810.53 141.017 6
0 8 1 -1.29733 3.68523 4
0 8 -1 -2.14571 5.37544 3
0 -8 -1 3.69604 4.28623 6
0 8 1 2.10182 4.87489 3
0 -8 -2 4020.23 148.647 6
0 8 2 4123.61 149.689 3
0 8 2 3876.45 138.672 4
0 8 3 -4.08441 6.11541 3
0 8 -3 2.32935 5.40314 3
0 -8 -3 -2.3144 4.38355 6
0 8 3 -3.00328 4.71641 4
0 -8 -4 1926.04 88.3653 6
0 8 4 1957.29 80.064 4
0 8 -4 1845.67 86.0159 3
0 -8 5 -8.71754 7.28021 5
0 8 -5 -2.36929 5.01715 3
0 8 5 3.92871 5.26155 4
0 9 0 12.1742 7.29982 3
0 9 1 11.0629 4.73235 4
0 9 1 12.0768 8.56352 3
0 -9 -1 18.9622 7.47165 6
0 9 -1 4.98246 5.78725 3
0 9 2 1.46318 3.39556 4
0 9 2 -11.9568 5.99193 3
0 -9 -2 -2.33285 4.41932 6
0 9 -3 570.319 42.5449 3
0 9 3 643.857 42.2245 3
0 9 3 648.019 36.0936 4
0 -9 -3 639.605 43.5335 6
0 9 -4 -2.67821 6.70995 3
0 -9 -4 -2.72826 5.16729 6
0 10 0 19.6035 8.81461 3
0 10 1 2.77577 6.43801 3
0 10 -1 -2.85239 6.03932 3
0 10 2 381.05 34.0827 3
0 -10 -2 504.036 37.1812 6
0 -10 -3 2.77576 7.43447 6
0 10 -3 2.98005 6.91237 3
0 11 0 3.14628 6.66222 3
0 11 1 111.088 19.7233 3
0 11 -1 133.762 21.635 3
1 0 0 -0.21478 0.72648 4
1 0 0 0.9298 1.11383 1
-1 0 0 0.10671 0.64729 4
-1 0 1 6083.68 184.09 5
-1 0 -1 5919.37 183.929 5
-1 0 1 6038.22 181.233 6
1 0 -1 5736.85 181.156 6
1 0 -1 5977.16 184.568 1
1 0 1 5903.81 184.386 5
1 0 -1 6092.63 183.963 5
1 0 2 2594.7 86.1136 5
-1 0 -2 2665.44 85.3551 5
1 0 -2 2597.62 84.8782 1
-1 0 2 2501.6 79.6814 6
-1 0 2 2641.91 86.0967 5
1 0 -2 2664.13 85.6234 5
1 0 -2 2330.93 79.6413 6
-1 0 3 7314.32 230.354 5
1 0 -3 6977.66 220.622 6
-1 0 -3 7291.18 223.072 6
1 0 3 7024.9 217.503 3
1 0 3 7343.06 230.627 5
1 0 -3 7254.65 227.167 1
1 0 4 426.321 26.6857 5
-1 0 4 406.031 25.9398 5
1 0 -4 387.3 18.4545 6
1 0 -4 441.345 24.543 1
-1 0 -5 1049.22 43.2331 6
1 0 5 1053.77 53.0944 5
-1 0 5 1179.28 54.8521 5
-1 0 6 771.222 46.1658 5
-1 0 -6 750.685 33.7129 6
1 0 6 715.834 45.1137 5
-1 0 7 1307.43 70.0116 5
1 0 7 1367.79 71.7732 5
-1 0 8 107.111 18.1608 5
1 0 8 128.486 20.3123 5
1 1 0 0.78666 1.48979 3
1 -1 0 0.23397 1.25331 4
-1 -1 0 1.65474 1.23876 6
1 -1 0 -0.73066 1.36439 2
-1 -1 1 4503.15 133.979 1
1 1 -1 4326.35 134.964 3
1 -1 -1 4426.57 134.256 5
-1 -1 1 4408.44 134.816 3
-1 1 1 4420.07 134.458 5
1 1 -1 4132.43 134.115 1
1 -1 -1 4391.14 133.89 6
-1 -1 -1 4339.85 134.06 5
1 -1 1 4004.68 134.578 4
1 1 1 4046.35 131.524 3
-1 1 1 4243.8 133.359 6
1 1 1 4334.54 134.294 5
1 1 2 29.2693 4.7334 5
-1 -1 -2 24.8216 4.3214 5
-1 1 -2 37.5405 3.60688 3
-1 1 2 30.3377 4.93685 5
1 -1 2 28.9046 4.72428 5
1 -1 -2 31.9179 4.81912 5
-1 1 2 35.1577 4.07385 6
-1 -1 2 32.9948 5.15339 5
-1 1 -2 32.7522 2.74883 1
1 1 -2 29.7975 4.41061 1
-1 -1 -2 33.1559 4.61795 6
1 1 -3 146.461 6.67128 6
-1 1 3 171.678 14.055 5
1 1 3 161.644 13.9982 5
1 -1 3 133.847 12.4705 5
-1 -1 3 132.574 12.4906 5
-1 -1 3 136.702 10.206 3
1 1 -3 158.058 11.3017 1
-1 1 3 135.655 9.56647 6
-1 1 -3 152.98 9.07224 1
1 -1 -3 158.699 10.5375 6
-1 1 -4 0.61489 2.09953 1
-1 1 -4 4.1017 2.3542 6
1 1 4 1.49319 2.82795 5
1 1 -4 1.9054 2.99209 1
1 1 -4 0.54834 1.1615 6
-1 -1 -4 2.6548 2.77929 6
-1 1 4 4.46829 3.98909 5
1 -1 4 -1.44669 3.87464 5
-1 -1 4 5.68937 4.4669 5
1 1 5 18.9545 7.20409 5
1 -1 5 27.9924 7.72564 5
1 -1 -5 24.32 5.10525 6
1 1 -5 23.6655 6.06601 1
-1 -1 -5 39.7087 6.49509 6
1 1 -5 15.5878 2.44211 6
-1 1 5 11.1722 5.87834 5
1 -1 -5 20.949 6.2051 1
-1 -1 5 29.6845 8.26162 5
1 -1 -6 37.9634 6.12024 6
-1 -1 6 40.7553 10.1332 5
-1 1 6 40.4063 10.4878 5
-1 1 -6 42.7811 5.63425 6
1 1 6 38.4012 9.88109 5
1 -1 6 43.4142 10.8899 5
-1 -1 -6 47.1135 8.01935 6
-1 -1 7 226.288 25.6072 5
1 1 7 177.118 22.6392 5
1 -1 7 221.481 25.1496 5
-1 1 7 256.631 26.6053 5
1 -1 8 33.8964 11.3368 5
1 1 8 29.796 10.9644 5
-1 -1 8 27.2569 10.3791 5
-1 1 8 29.8288 10.9763 5
1 2 0 -0.45744 2.0316 3
-1 2 0 2.23924 2.03002 6
1 -2 0 -0.73394 1.87121 2
1 -2 0 0.35966 1.98577 4
1 2 0 -1.37626 1.81391 6
1 -2 0 0.38958 1.52097 6
-1 2 0 1.39522 1.58395 2
-1 -2 0 -0.16177 1.00448 4
-1 -2 0 -0.3598 1.48504 6
-1 2 0 2.37328 1.71634 4
-1 2 1 6943.16 211.384 6
1 -2 -1 6716 211.425 5
-1 -2 1 6769.33 207.653 6
-1 2 1 6613.66 211.653 2
-1 -2 1 6898.11 212.32 3
1 2 -1 6710.53 207.686 6
1 2 1 6775.39 211.833 6
-1 2 1 6737.66 212.139 4
1 2 -1 6947.82 213.251 3
-1 -2 -1 6634.86 210.917 5
1 -2 1 7141.65 212.106 4
-1 -2 -2 218.536 13.0516 5
1 -2 -2 212.999 13.1394 5
-1 -2 2 213.848 12.6359 3
-1 2 -2 159.769 10.5904 3
1 -2 2 201.386 13.0195 4
-1 2 2 196.837 11.7521 6
-1 -2 2 183.586 10.6972 1
1 2 2 207.242 12.394 6
-1 -2 3 6229.81 201.686 5
-1 2 3 6465.66 195.39 6
1 2 -3 5880.03 194.264 1
-1 2 3 6247.33 200.79 5
1 2 3 6379.33 201.254 5
-1 -2 3 5866.01 195.088 3
-1 2 -3 6032.58 193.53 3
1 -2 3 6138.17 201.477 5
-1 -2 4 1662.14 69.7369 5
-1 2 4 1630.32 69.1768 5
1 -2 4 1746.11 70.8631 5
-1 -2 -4 1695.84 64.8888 6
1 2 -4 1657.21 62.035 1
1 -2 -4 1634.61 63.5042 6
-1 2 -4 1655.9 57.1876 6
1 2 4 1841.97 71.7347 5
1 -2 5 1845.69 78.259 5
-1 2 -5 1733.56 60.0311 6
-1 -2 5 1826.81 77.4342 5
-1 -2 -5 1741.78 69.0081 6
-1 2 5 1724 76.338 5
1 -2 -5 1819.28 68.5404 6
1 2 5 1703.88 76.7636 5
1 2 6 196.804 22.3862 5
-1 2 6 246.795 24.4512 5
1 -2 -6 245.038 18.0565 6
-1 -2 -6 202.281 17.7359 6
1 -2 -6 266.832 23.5097 1
1 -2 6 252.622 24.688 5
-1 -2 6 247.777 24.465 5
1 2 7 810.708 52.4566 5
-1 -2 7 957.598 56.2079 5
1 -2 7 901.789 55.0955 5
-1 2 7 864.951 53.6384 5
-1 -2 -7 878.122 43.3162 6
1 3 0 7.58343 3.1307 3
1 -3 0 -0.56813 1.93975 6
1 3 0 0.32538 1.27054 4
1 -3 0 0.50259 2.18093 2
-1 -3 0 0.84549 1.25012 2
-1 -3 0 0.28339 1.25884 4
-1 -3 0 2.12242 1.81165 6
-1 3 0 3.72814 2.19831 6
1 3 0 0.96841 0.91726 2
1 -3 0 0.48235 1.82705 4
-1 3 0 -0.56963 2.15759 4
1 -3 1 1382.35 49.5634 2
-1 -3 1 1417.38 47.686 4
-1 3 1 1292.14 48.9788 6
-1 -3 1 1339.83 46.3618 6
1 -3 1 1365.85 49.5201 4
1 3 1 1400.7 49.9182 3
1 3 -1 1431.61 46.5127 6
1 3 -1 1433.09 51.9063 3
1 3 1 1373.06 46.7004 2
-1 3 1 1195.13 49.1292 4
1 3 1 1337.36 46.5747 4
1 -3 -1 1267.81 49.3906 2
-1 3 -1 1421.27 48.0876 6
1 3 1 1439.93 50.1849 6
-1 -3 2 238.27 14.8497 3
1 3 -2 203.751 8.84365 6
-1 -3 2 201.697 11.98 1
1 -3 2 209.205 8.32062 1
-1 3 -2 198.692 11.0586 6
1 -3 -2 242.626 15.4154 6
-1 -3 -2 225.628 15.0375 6
1 -3 2 216.207 14.0999 4
-1 -3 -3 978.022 43.205 6
-1 -3 3 988.102 37.487 1
-1 3 -3 978.634 40.5974 3
-1 -3 3 1133.99 46.943 5
1 3 -3 977.414 43.0702 3
-1 -3 4 271.006 21.9712 5
1 -3 -4 276.056 19.457 6
-1 3 -4 241.942 16.2631 3
-1 -3 -4 236.365 18.2989 6
1 -3 4 272.672 21.9784 5
-1 3 4 270.197 21.5116 5
1 3 4 278.605 21.9154 5
-1 -3 -5 59.7907 9.61677 6
1 3 5 71.9916 12.9489 5
1 -3 5 75.6914 12.7045 5
1 -3 -5 78.3939 10.5548 6
-1 3 -5 46.4406 4.22462 6
-1 -3 5 76.6291 13.1177 5
-1 3 5 65.3581 11.7265 5
-1 -3 -6 1.64804 4.41452 6
1 3 6 2.47143 5.73276 5
-1 -3 6 9.70514 6.89268 5
1 -3 6 4.94332 5.73328 5
-1 3 6 2.46447 5.71662 5
1 -3 -6 1.46944 3.68218 6
1 -3 -7 101.945 12.8121 6
-1 -3 7 116.736 18.8968 5
-1 -3 -7 96.1488 13.3843 6
1 -3 7 130.563 19.4433 5
-1 4 0 -0.57311 1.79983 2
1 4 0 -0.65485 2.05652 6
1 4 0 -0.93206 2.335 3
-1 -4 0 -0.7382 2.09697 6
1 -4 0 0.76094 2.27846 6
-1 -4 0 0.64772 1.40527 2
1 -4 0 1.9053 2.32906 2
1 4 0 0.47077 1.66788 4
-1 -4 0 0.83584 1.8978 4
1 -4 0 -0.62695 1.87728 4
1 -4 -1 4360.76 142.239 6
1 -4 -1 4198.26 139.643 2
1 4 1 4101.04 141.045 3
1 4 -1 4468.94 143.706 3
-1 -4 1 4212.4 136.625 6
1 4 1 4074.48 135.916 4
1 4 1 4042.19 134.721 2
1 4 -1 4333.82 136.422 6
-1 4 -1 4338.2 137.964 6
-1 4 -1 4395.34 142.258 3
-1 -4 -1 4393.84 142.322 6
-1 -4 1 4470.06 135.074 2
1 -4 1 4125.21 139.323 2
1 -4 1 4263.03 139.127 4
-1 -4 1 4395.02 137.049 4
-1 4 -2 412.429 18.8842 6
1 4 -2 408.509 16.7689 6
1 4 2 385.423 20.9133 3
1 -4 2 364.673 21.2205 2
-1 -4 2 415.496 20.9233 4
1 4 -2 339.278 22.1762 3
-1 -4 -2 362.496 22.3913 6
-1 4 2 371.724 21.8617 4
1 -4 -2 461.253 24.6262 6
-1 -4 2 379.155 19.2785 1
-1 -4 3 2818.84 91.518 1
1 4 -3 2613.7 98.9087 3
-1 -4 -3 2912.77 100.906 6
-1 4 -3 2696.38 97.0068 3
-1 4 -3 2681.53 89.8509 6
1 -4 4 973.047 47.8864 5
-1 4 -4 819.813 31.3017 6
-1 4 -4 872.592 39.6755 3
1 -4 -4 880.866 43.4349 6
-1 -4 4 897.608 46.2043 5
1 -4 -5 1361.58 61.6105 6
-1 -4 5 1446.46 69.2132 5
1 -4 5 1407.09 68.7617 5
-1 -4 -5 1371.52 62.8784 6
1 -4 -6 344.804 25.7775 6
-1 -4 6 329.985 30.2606 5
-1 -4 -6 342.791 27.0587 6
1 -4 6 336.552 30.7012 5
1 -4 -7 871.051 46.0361 6
1 -4 7 867.423 56.0066 5
-1 -4 -7 887.715 48.1434 6
-1 -4 7 912.062 56.5599 5
-1 5 0 -0.91967 2.30402 4
1 -5 0 0.76895 2.52227 2
-1 -5 0 0.41644 1.57735 2
-1 -5 0 0.94532 2.36827 6
-1 -5 0 3.8751 2.40214 4
1 -5 0 0.967 2.42258 6
1 5 0 3.53321 3.52652 3
1 5 0 -0.61845 1.85189 4
1 5 -1 1602.67 62.5201 3
1 5 1 1427.49 52.2344 2
-1 5 -1 1548.1 61.9261 3
1 5 1 1644.22 61.7296 3
-1 5 -1 1526.21 58.9095 4
-1 -5 1 1462.36 55.3617 6
-1 -5 -1 1540.77 60.8668 6
-1 -5 1 1525.7 54.8345 4
-1 -5 1 1492.49 52.2285 2
1 5 -1 1535.69 55.321 6
1 -5 -1 1603.77 61.0957 6
-1 5 1 1408.67 55.1341 2
1 -5 1 1513.87 56.7279 2
-1 5 1 1557.63 58.6084 4
1 5 -2 106.456 8.05206 6
1 5 -2 85.3433 11.2169 3
-1 5 -2 96.1791 8.67674 6
-1 5 2 104.461 10.7751 4
1 -5 -2 92.3081 11.0874 6
1 -5 2 102.988 10.5534 2
-1 -5 -2 94.257 11.2993 6
1 5 2 117.756 11.6094 3
-1 -5 2 95.0981 8.79831 2
-1 5 -3 37.0758 7.48714 3
1 5 3 36.4824 6.66281 4
1 5 3 27.4155 6.23842 3
-1 -5 -3 43.6176 8.40588 6
1 -5 3 50.6762 8.62721 2
-1 5 -3 30.9688 4.67598 6
1 5 -3 34.0885 8.12586 3
-1 5 3 27.3225 6.92021 4
1 -5 -3 30.7727 7.63847 6
-1 5 -4 2.7815 4.16463 3
1 -5 4 -1.98075 4.59438 5
1 5 -4 -1.61101 3.73688 3
-1 -5 4 1.93568 4.48984 5
1 -5 -4 6.91107 4.62755 6
-1 5 4 5.01527 4.18841 4
1 -5 -5 77.9235 12.335 6
-1 -5 -5 51.8346 11.1507 6
-1 -5 5 61.7521 12.6477 5
1 -5 5 48.4012 11.5954 5
-1 -5 -6 93.5414 14.5396 6
1 -5 6 50.6489 12.9618 5
1 -5 -6 75.2753 12.9065 6
-1 -5 6 74.3843 14.6864 5
1 -5 -7 227.155 22.2559 6
1 -5 7 177.88 24.0705 5
-1 -5 7 212.429 25.9562 5
-1 -5 -7 214.822 22.451 6
-1 6 0 1.46186 4.1527 3
1 -6 0 1.18366 2.96544 6
-1 -6 0 2.31612 3.28974 6
-1 6 0 1.1383 2.41027 4
1 6 0 -1.44778 3.35804 3
1 -6 0 0.92896 3.29133 2
1 6 -1 3931.53 135.324 3
-1 6 1 3794.37 129.756 4
-1 -6 -1 3882.3 133.403 6
1 6 1 3709.33 122.153 2
1 6 1 3532.46 132.263 3
-1 6 -1 3758.5 135.413 3
1 -6 -1 3830.07 132.745 6
1 -6 1 3692.14 126.91 2
-1 -6 1 3909.61 126.926 6
-1 -6 1 3701.94 120.979 2
-1 6 -1 3786.29 130.523 4
1 -6 -2 543.369 32.1399 6
1 6 -2 529.693 24.1561 6
1 6 2 527.151 30.4272 3
1 6 -2 529.667 32.708 3
-1 -6 -2 547.538 32.6194 6
-1 6 2 499.853 28.6774 4
1 -6 2 558.323 28.6208 2
1 6 2 499.675 24.8885 2
-1 -6 2 528.309 24.6428 2
1 6 2 474.468 25.3966 4
1 6 3 1693.56 64.6832 4
1 -6 3 1690.85 67.4005 2
1 6 -3 1603.44 70.9021 3
-1 6 3 1582.87 67.4004 4
-1 6 -3 1688.3 70.4675 3
1 -6 3 1565.26 53.2399 1
-1 -6 -3 1535.87 70.8548 6
1 -6 -3 1837.64 73.8872 6
1 6 3 1830.66 68.7042 3
1 6 -4 307.646 24.7674 3
-1 6 -4 270.595 22.661 3
1 6 4 325.517 23.1379 4
1 -6 4 298.232 23.628 2
-1 6 4 255.03 22.5363 4
-1 -6 -4 353.146 27.7184 6
1 -6 -5 1817.42 80.4204 6
-1 6 -5 1775.5 75.1411 3
1 6 5 1801.03 77.076 4
1 -6 5 1620.05 82.3348 5
-1 -6 -5 1830.87 81.706 6
-1 -6 5 1882.95 84.6266 5
-1 6 5 1726.62 80.376 4
1 -6 -6 375.268 30.7601 6
-1 -6 6 409.117 35.563 5
-1 6 6 426.584 33.7512 4
-1 -6 -6 403.015 32.4496 6
1 6 6 404.548 31.4616 4
1 -6 6 347.709 34.0946 5
1 6 7 398.172 33.7033 4
-1 6 7 464.835 38.049 4
-1 -6 -7 465.572 35.4644 6
1 -6 -7 456.988 34.2476 6
-1 -7 0 2.74584 4.50331 6
1 7 0 1.74503 4.37169 3
-1 7 0 -1.81868 5.16621 3
-1 7 0 2.62031 3.28225 4
1 -7 0 -1.07092 2.86815 2
-1 -7 -1 635.724 37.1167 6
-1 -7 1 663.189 33.1995 6
1 7 -1 732.621 40.3963 3
-1 7 1 688.049 39.4467 3
1 -7 1 679.1 32.6096 2
1 -7 -1 675.072 37.5107 6
1 7 1 709.422 39.4435 3
-1 7 1 679.743 35.106 4
1 7 1 622.307 30.8579 4
-1 7 -1 708.9 40.5584 3
1 -7 2 5.79073 3.95435 2
-1 -7 -2 -1.84579 4.28146 6
1 7 2 1.05913 2.45721 4
-1 7 2 1.40422 3.25742 4
1 7 -2 9.64881 6.33003 3
1 7 2 1.69364 4.81137 3
1 -7 -2 1.82325 4.22918 6
1 7 3 243.175 20.9401 3
1 7 -3 248.662 23.2622 3
-1 7 3 250.697 20.9787 4
-1 -7 -3 263.263 24.0834 6
1 -7 -3 230.023 22.2359 6
1 7 3 239.238 18.0863 4
-1 7 -3 276.16 23.6139 3
-1 7 4 23.5816 7.31327 4
-1 -7 -4 34.2929 9.70068 6
1 -7 -4 13.4014 7.04148 6
-1 7 -4 29.9621 8.48089 3
1 7 -4 21.5354 7.65467 3
1 7 4 14.4905 5.34973 4
-1 -7 -5 9.91391 6.6378 6
1 7 5 -3.5982 4.81832 4
1 -7 5 5.508 5.83101 5
-1 7 -5 -1.96192 4.55044 3
-1 7 5 2.16122 4.09286 4
1 -7 -5 -2.38983 4.52577 6
-1 -7 5 -2.69052 6.24031 5
-1 -7 6 3.05543 6.46921 5
-1 -7 -6 2.59566 5.49574 6
-1 7 6 2.4845 4.70503 4
1 -7 -6 -2.4693 5.72721 6
-1 8 0 1.48331 3.97312 4
-1 -8 0 3.19933 4.2847 6
-1 8 0 2.18049 6.19433 3
1 8 0 2.08241 5.57743 3
-1 8 1 1558.32 71.1058 3
1 -8 -1 1352.97 65.7999 6
-1 8 1 1473.74 63.1021 4
1 8 -1 1385.7 69.0733 3
1 8 1 1541.03 58.2386 4
-1 8 -1 1480.5 70.0604 3
1 8 1 1461.17 68.2289 3
-1 -8 -1 1449.06 66.5517 6
-1 8 2 53.9985 9.63112 4
-1 8 2 65.9241 12.6661 3
1 8 -2 63.0609 12.707 3
-1 -8 -2 54.9392 11.4193 6
1 8 2 41.6027 9.8644 3
1 -8 -2 27.1607 8.52907 6
1 8 2 61.9489 8.53351 4
1 -8 -3 665.194 42.2263 6
-1 8 3 644.618 37.4628 4
1 8 3 615.696 38.6549 3
-1 -8 -3 605.725 41.478 6
1 8 3 736.028 35.5812 4
-1 8 -3 629.85 41.4323 3
1 8 -3 636.647 42.2895 3
1 8 -4 765.419 47.7954 3
-1 -8 -4 835.348 50.3063 6
-1 8 -4 841.863 48.3028 3
-1 8 4 730.002 42.9399 4
1 -8 -4 652.716 45.3315 6
1 8 4 785.205 40.037 4
1 -8 5 947.426 58.6734 5
-1 8 5 947.395 52.4791 4
-1 8 -5 992.645 53.9279 3
-1 -8 5 1011.58 59.4739 5
1 -8 -5 861.669 54.3485 6
-1 9 0 -2.50954 5.31342 3
-1 -9 0 3.65039 4.5725 6
1 9 0 -2.4177 5.11896 3
-1 9 1 402.152 32.9772 3
-1 9 1 395.641 27.2291 4
-1 9 -1 418.759 33.3197 3
-1 -9 -1 339.584 28.4359 6
1 9 1 434.609 33.2543 3
1 9 -1 344.977 30.5047 3
1 -9 -2 4.72535 6.32764 6
-1 -9 -2 2.34086 4.95627 6
-1 9 2 -2.53772 4.80582 3
1 9 2 2.31519 5.36977 3
-1 9 2 -1.70011 4.25911 4
1 9 -3 213.261 24.524 3
-1 9 -3 214.08 24.1539 3
-1 -9 -3 191.282 23.0383 6
-1 9 3 243.911 25.2855 3
1 -9 -3 217.675 24.0931 6
-1 9 3 188.546 19.6222 4
-1 9 -4 88.7967 16.1903 3
1 -9 -4 70.983 14.5754 6
1 9 -4 82.5344 17.0379 3
-1 -9 -4 57.9866 13.5283 6
-1 9 4 86.5413 13.6248 4
-1 9 -5 12.4951 8.53997 3
-1 10 0 2.85611 6.04722 3
1 10 0 -2.77169 5.86847 3
-1 10 1 1243.38 70.1025 3
1 10 1 1289.39 68.6254 3
1 10 -1 1389.54 72.2807 3
-1 -10 -1 1225.82 64.0818 6
-1 10 -1 1257.68 69.4368 3
-1 10 1 1264.91 59.3265 4
1 10 -2 159.413 22.4946 3
-1 10 2 171.118 23.2348 3
-1 -10 -2 221.058 24.0894 6
1 10 2 173.259 22.0591 3
1 10 -3 713.218 49.9879 3
-1 -10 -3 681.538 47.8401 6
-1 10 -3 791.972 51.749 3
-1 11 0 3.19154 7.40295 3
1 11 0 3.10047 6.56524 3
-1 11 1 340.346 34.4161 3
1 11 1 399.58 36.255 3
-2 0 0 2687.71 88.514 2
-2 0 0 2814.83 89.9845 1
2 0 0 2911.31 88.1249 4
2 0 0 2890.44 90.4139 1
2 0 0 2828.37 88.6989 2
-2 0 0 2761.32 87.9694 4
-2 0 1 457.235 18.1895 5
2 0 1 456.378 18.6247 5
2 0 1 489.88 18.5937 4
-2 0 1 462.137 19.1849 2
-2 0 -1 462.308 18.1568 5
2 0 -1 460.807 20.7442 1
2 0 2 3755.6 124.427 5
-2 0 -2 3921.74 123.839 5
-2 0 2 3991.91 124.582 5
-2 0 2 3675.42 118.509 6
2 0 -2 3862.89 125.856 1
2 0 -3 64.9212 8.7312 1
-2 0 3 66.7164 5.35551 6
2 0 3 78.1335 9.11265 5
-2 0 3 97.8009 10.1523 5
2 0 -3 83.6565 5.86911 6
2 0 -4 2381.44 86.3569 1
2 0 -4 2234.36 75.3347 6
2 0 4 2347.36 88.6909 5
-2 0 -4 2274.74 81.017 6
-2 0 4 2320.88 87.931 5
-2 0 5 1.82029 3.44807 5
2 0 -5 1.50614 4.5105 1
-2 0 -5 3.94886 2.8054 6
2 0 5 1.81533 3.84435 5
-2 0 -6 1630.86 64.144 6
2 0 6 1718.27 78.2023 5
-2 0 6 1688.31 77.573 5
-2 0 7 507.858 38.4971 5
-2 0 8 1231.09 69.387 5
2 -1 0 2762.45 93.0406 1
2 -1 0 2937.29 92.7665 2
-2 -1 0 2898.86 92.6604 3
2 -1 0 3119.5 92.3652 4
-2 -1 0 2822.11 89.2463 2
-2 1 1 110.913 6.92871 6
-2 -1 -1 114.568 6.77477 5
2 -1 -1 81.1402 7.73635 1
-2 1 1 104 6.77446 5
2 1 1 100.656 5.85029 3
-2 -1 1 116.989 8.00614 1
2 -1 1 96.4564 7.17333 4
-2 1 -1 90.1193 5.14026 1
2 -1 -1 94.322 7.57763 2
2 1 1 87.856 6.18473 5
-2 1 -1 117.49 7.93495 4
2 1 -1 99.9243 8.24469 1
2 1 -2 366.238 19.4085 1
-2 -1 2 375.023 18.9419 3
2 -1 2 386.669 19.7235 5
-2 -1 2 373.788 19.4216 5
2 1 2 397.943 19.9005 5
-2 1 2 367.882 19.0279 5
-2 1 -2 352.891 14.7945 3
-2 1 2 385.274 16.7832 6
-2 -1 -2 417.107 19.1996 5
2 -1 -3 449.855 24.4701 1
2 -1 3 403.76 23.3831 5
-2 1 3 387.654 22.8043 5
2 1 3 411.513 23.7646 5
-2 -1 3 400.917 20.917 3
2 1 -3 417.05 22.2391 1
-2 1 3 374.362 18.067 6
2 -1 -3 363.879 18.294 6
-2 -1 3 367.705 22.4636 5
2 -1 4 257.384 20.4906 5
-2 -1 -4 278.225 17.8004 6
-2 -1 4 232.158 19.489 5
-2 1 4 275.412 20.8035 5
2 1 4 293.824 21.7821 5
2 1 -4 248.599 18.1298 1
-2 1 -4 243.712 13.0347 1
2 -1 -4 307.901 21.3663 1
-2 1 5 300.514 24.3625 5
-2 1 -5 302.308 17.7833 6
2 1 5 244.857 22.5458 5
2 -1 -5 328.872 24.5168 1
2 1 -5 295.083 21.0594 1
-2 -1 -5 276.842 19.3385 6
-2 -1 5 245.472 22.2925 5
2 -1 5 307.295 24.5845 5
2 -1 -5 296.793 17.0351 6
-2 1 6 4.45588 5.17328 5
-2 -1 6 11.2162 7.04905 5
-2 1 -6 7.02306 3.43617 6
2 -1 6 4.552 5.28463 5
-2 -1 -6 14.994 5.0256 6
2 -1 -6 9.30061 5.57519 1
-2 -1 -7 136.988 13.792 6
-2 -1 7 126.056 19.1794 5
2 -1 7 92.3631 16.6033 5
-2 1 7 81.5427 15.308 5
2 -2 0 12317.1 378.646 4
-2 2 0 12638.8 378.936 6
2 2 0 12311.3 380.267 3
-2 2 0 12024.2 378.812 2
-2 -2 0 12505 379.433 3
-2 -2 0 12091.4 378.276 6
2 -2 0 12524.3 379.603 2
2 -2 1 1743.78 61.9251 1
-2 -2 1 1963.6 62.5969 6
2 -2 1 1929.31 67.6408 2
2 2 1 1968.94 65.2417 3
2 -2 -1 2005.19 68.4192 2
2 -2 1 2119.14 67.2572 4
-2 2 1 2077.42 66.5758 6
2 2 -1 2081.81 68.9388 3
-2 2 1 1974.97 67.0017 2
-2 -2 -1 1968.16 64.9632 5
2 -2 -1 2009.83 67.047 6
-2 2 -2 8826.29 264.719 3
2 2 2 8498.98 262.732 3
-2 2 2 8778.46 266.199 6
-2 -2 2 8075.12 266.617 1
-2 -2 -2 8600.76 267.604 5
-2 -2 2 8393.5 268.735 3
2 -2 2 8487 268.369 4
-2 2 -3 659.505 26.446 3
2 2 -3 662.622 30.888 1
2 2 3 559.167 31.2216 5
-2 2 3 665.521 32.6242 5
2 2 3 672.179 23.1443 3
-2 -2 3 572.462 29.0131 3
2 -2 3 636.977 32.7255 5
-2 -2 3 690.4 33.4811 5
-2 2 3 673.78 28.4039 6
2 2 -4 3523.38 118.732 1
-2 -2 -4 3393.31 119.021 6
2 -2 4 3680.76 126.078 5
2 -2 -4 3280.88 115.984 6
-2 2 4 3563.95 124.197 5
-2 -2 4 3686.83 125.705 5
2 -2 -5 91.6539 12.8934 1
-2 2 5 71.7092 11.89 5
2 -2 -5 66.2863 8.69175 6
-2 -2 -5 68.8434 9.67762 6
2 -2 5 60.4498 11.1088 5
-2 -2 5 75.3397 12.1331 5
-2 2 -5 59.0778 6.67614 6
-2 -2 -6 963.848 46.0412 6
2 -2 6 931.993 53.6592 5
-2 -2 6 950.048 53.2837 5
2 -2 -6 872.586 50.2631 1
-2 2 6 995.867 54.1955 5
2 -2 -6 976.842 42.8017 6
-2 -2 -7 48.8579 9.62251 6
2 -2 7 77.3172 15.5814 5
-2 2 7 64.6137 13.6187 5
-2 -2 7 78.5186 15.0658 5
2 3 0 71.2092 7.47386 3
-2 -3 0 62.346 3.71829 4
2 -3 0 59.1523 6.3297 4
-2 -3 0 58.2189 6.09924 6
-2 3 0 67.1751 6.62254 6
2 -3 0 54.6945 6.46999 2
-2 -3 1 13.3457 2.83854 4
-2 -3 -1 11.4538 3.64038 6
-2 -3 1 11.8852 2.44584 6
2 3 -1 21.8289 4.83985 3
-2 3 1 22.8786 4.29556 6
-2 3 -1 14.8626 3.40728 6
2 -3 1 17.0217 4.22632 2
2 -3 -1 12.4504 3.78136 2
2 3 1 16.6639 3.75841 3
2 3 1 11.5134 1.90952 4
2 -3 1 22.5695 4.41301 4
-2 -3 2 213.102 14.1052 1
-2 -3 -2 282.376 17.3142 6
2 -3 -2 249.822 15.9728 6
-2 -3 -2 246.879 15.0688 5
-2 3 -2 237.948 14.5339 3
2 3 2 227.468 13.4481 3
2 3 -2 237.003 16.665 3
-2 -3 3 336.26 21.9166 5
2 3 3 314.326 15.6703 3
-2 3 -3 324.006 17.8941 3
-2 -3 -3 335.202 21.1514 6
2 -3 -4 184.908 15.528 6
-2 3 -4 198.676 13.436 3
-2 -3 4 228.273 19.7825 5
-2 -3 -4 177.249 16.0503 6
2 -3 4 169.39 17.4075 5
-2 -3 -5 241.005 19.8574 6
2 -3 -5 223.167 18.0842 6
2 -3 5 286.729 24.7433 5
-2 -3 5 208.778 21.2658 5
-2 3 5 236.638 22.3927 5
2 -3 6 160.714 20.1375 5
-2 -3 6 144.221 18.7983 5
-2 3 6 164.001 20.0811 5
2 -3 -6 161.025 15.4768 6
-2 -3 -6 149.689 16.5372 6
2 -3 -6 151.338 19.2223 1
-2 -3 -7 91.5599 13.6328 6
-2 -3 7 75.3975 15.5942 5
2 -3 7 63.6937 14.4351 5
2 4 0 2088.47 70.3821 6
-2 -4 0 1912.87 64.5103 4
2 4 0 2121.55 74.486 3
-2 4 0 1908.6 71.9116 4
2 -4 0 2056.61 70.9091 4
-2 -4 0 2057.69 71.1666 6
2 -4 0 1993.98 71.4457 2
2 4 1 204.428 9.9986 2
2 -4 -1 216.043 15.072 2
-2 4 -1 201.889 13.4538 6
-2 -4 -1 182.411 14.0623 6
2 4 -1 223.408 16.1938 3
2 -4 1 202.656 14.2845 2
-2 4 1 187.299 13.0592 2
2 4 1 205.145 10.2932 4
2 -4 -1 217.135 15.1237 6
-2 -4 1 207.626 11.468 4
-2 -4 1 197.736 11.9836 6
-2 4 -1 202.326 14.6716 4
2 4 -1 206.075 11.9161 6
2 4 1 199.651 14.5023 3
-2 -4 1 204.937 9.28059 2
-2 4 -2 2016.76 71.5389 6
2 4 2 2014.75 69.9333 4
2 4 -2 2083.67 78.5219 3
2 4 2 2229.75 74.5841 3
2 -4 2 1939.94 76.0589 2
-2 -4 -2 2086.71 77.4073 6
2 -4 -2 2097.14 77.0838 6
-2 4 -2 1980.82 75.1568 3
-2 -4 2 2037.41 71.8783 4
2 4 -3 291.711 21.0447 3
-2 4 -3 268.884 18.155 3
-2 4 -3 280.781 15.8616 6
2 4 3 277.469 16.5492 3
-2 -4 -3 289.502 20.6695 6
-2 -4 4 1645.1 71.7397 5
2 -4 -4 1590.56 68.2717 6
2 -4 4 1793.59 74.1588 5
-2 4 -4 1649.1 63.8698 3
-2 -4 5 21.7219 7.70878 5
2 -4 5 11.4967 7.23473 5
-2 -4 -5 15.7672 5.99774 6
2 -4 -5 12.7107 5.23063 6
-2 -4 6 1399.59 70.7124 5
2 -4 -6 1372.71 61.2828 6
2 -4 6 1285.6 69.8493 5
-2 -4 -6 1262.66 62.8167 6
2 -4 -6 1445.05 70.2626 1
-2 -4 7 139.61 20.8918 5
2 -4 7 145.635 21.3287 5
-2 -4 -7 150.699 18.3424 6
-2 -5 0 1624.41 63.2226 6
2 -5 0 1597.38 62.7346 2
2 -5 -1 52.2909 7.88657 2
2 -5 -1 57.5183 8.34797 6
2 5 1 54.6265 5.38736 4
2 5 1 59.0477 8.59574 3
2 5 -1 68.7555 7.1448 6
2 5 -1 54.6644 8.73448 3
2 -5 1 54.5644 7.63577 2
-2 -5 1 56.9015 4.2099 2
-2 -5 1 59.7059 6.77679 6
2 5 1 55.2999 4.74914 2
-2 -5 -1 62.0597 8.60396 6
-2 -5 -2 111.307 12.4404 6
-2 5 -2 108.974 11.928 3
2 5 2 96.6659 10.7549 3
-2 -5 2 108.587 8.34457 2
-2 5 2 88.513 10.6047 4
2 -5 2 92.8587 10.7786 2
2 -5 -2 118.572 12.5607 6
-2 5 -3 275.869 19.7825 3
2 -5 3 245.496 19.6318 2
2 -5 -3 259.698 20.8135 6
2 5 3 282.327 18.2152 3
2 5 3 243.636 16.5488 4
-2 5 3 269.206 20.8259 4
-2 -5 -3 236.099 19.8421 6
-2 5 -4 201.417 17.0107 3
-2 -5 4 230.749 21.2201 5
2 -5 4 220.415 21.2104 5
-2 5 4 184.391 18.6995 4
2 -5 -4 173.059 17.6717 6
-2 5 -5 240.775 18.4889 3
-2 -5 -5 218.551 21.7161 6
2 -5 -5 206.304 20.2769 6
-2 -5 5 209.1 23.0577 5
2 -5 5 246.639 24.9623 5
2 -5 6 -2.82845 5.98901 5
2 -5 -6 5.83414 5.20873 6
-2 -5 6 2.71688 6.3018 5
-2 -5 -6 4.47059 4.73325 6
-2 -5 7 111.891 19.971 5
2 -5 -7 95.8907 18.5275 1
-2 -5 -7 113.214 16.6368 6
2 -5 7 101.395 18.6747 5
-2 -6 0 5789.64 181.534 6
2 6 0 5053.69 183.691 3
2 -6 0 5307.05 179.426 2
-2 6 0 5534.53 182.08 4
-2 -6 -1 54.9487 8.98334 6
2 -6 1 50.9011 8.02088 2
2 6 1 61.698 9.82478 3
2 6 -1 51.415 9.86335 3
-2 -6 1 46.1316 6.73065 6
2 -6 -1 77.8979 10.4164 6
2 -6 -1 51.0454 8.36245 2
-2 6 -1 42.6282 7.72441 4
-2 6 1 31.3223 7.05192 4
2 6 1 54.5545 5.95748 4
2 6 1 55.7364 5.01802 2
-2 6 -2 3840.84 138.166 3
2 6 -2 3843.88 140.496 3
2 -6 -2 3812.69 137.866 6
2 6 2 3864.94 135.239 3
-2 6 2 3722.15 135.318 4
-2 -6 -2 3971.39 139.007 6
2 -6 2 3910.05 134.097 2
2 -6 -3 82.5307 12.4349 6
-2 6 -3 96.5865 12.6606 3
2 6 3 86.2929 10.9079 3
2 -6 3 91.4443 12.2937 2
2 6 3 93.3543 9.72071 4
-2 6 3 88.1458 12.3498 4
-2 -6 -3 95.774 13.6705 6
-2 -6 -4 1926.7 84.5243 6
2 -6 4 2181.5 84.3463 2
-2 6 -4 1822.96 78.4925 3
2 6 4 1982.45 76.1833 4
-2 6 4 1886.86 82.7529 4
2 6 -4 1889.65 83.2369 3
-2 -6 4 1931.54 84.8271 5
-2 -6 -5 2.30352 5.34279 6
2 -6 -5 2.12668 4.93267 6
2 -6 5 -2.16116 5.01264 2
-2 6 -5 1.56659 4.19573 3
-2 -6 5 5.00664 5.30033 5
2 -6 5 18.1393 8.49982 5
2 6 5 -1.66225 4.4519 4
-2 6 5 9.21648 6.89928 4
2 -6 6 672.624 47.8766 5
-2 -6 6 745.551 48.8182 5
2 6 6 667.921 40.8949 4
2 -6 -6 622.779 41.2303 6
2 -6 6 663.906 44.4472 2
-2 -6 -6 629.347 43.3729 6
-2 6 6 680.554 45.9406 4
2 7 0 211.255 20.2213 3
-2 -7 0 230.19 18.4456 6
-2 7 0 202.456 19.769 3
2 -7 0 198.786 16.632 2
-2 7 0 187.704 17.408 4
-2 7 1 17.8934 6.02048 4
2 7 1 13.7657 6.12604 3
2 7 -1 37.8364 9.15386 3
2 -7 1 21.1925 6.16307 2
-2 -7 1 22.4652 5.45668 6
-2 7 -1 19.1371 8.32572 3
-2 -7 -1 19.9907 6.53165 6
-2 7 -1 17.0057 5.88635 4
2 7 2 38.149 5.62337 4
2 -7 -2 18.6075 6.38983 6
2 7 -2 30.6077 8.88078 3
-2 7 -2 11.3069 6.21948 3
2 -7 2 27.1022 6.94403 2
2 7 2 13.2828 6.12769 3
-2 -7 -2 22.8833 7.69155 6
-2 7 2 22.1102 6.88729 4
2 -7 -3 128.016 16.3459 6
2 7 3 142.899 15.4147 3
-2 -7 -3 169.298 18.9867 6
-2 7 3 138.512 16.27 4
2 7 3 157.392 13.0082 4
-2 7 -3 152.437 17.2826 3
2 -7 3 121.989 14.6463 2
-2 -7 -4 127.8 17.6745 6
2 7 -4 111.787 16.645 3
-2 7 -4 94.8324 14.1115 3
2 7 4 112.619 12.1923 4
-2 7 4 111.489 15.5583 4
2 -7 -5 119.533 17.241 6
2 -7 5 77.7746 15.4459 5
-2 7 -5 95.998 13.8053 3
2 7 5 113.747 13.8403 4
-2 -7 5 114.145 18.0607 5
-2 7 5 129.946 18.0028 4
-2 -7 -6 48.0392 11.8927 6
2 -7 -6 19.6728 8.12427 6
-2 -7 6 38.5991 12.9201 5
2 -7 6 50.4408 13.7138 5
-2 7 6 26.3837 10.3461 4
-2 8 0 647.408 41.5769 3
2 8 0 671.89 41.0926 3
-2 -8 0 609.192 35.8073 6
-2 8 0 657.341 37.479 4
2 8 1 233.487 22.6594 3
-2 8 -1 238.159 23.8207 3
2 8 -1 207.24 22.1724 3
-2 -8 -1 269.49 23.0085 6
-2 8 1 220.552 22.7749 3
-2 8 1 259.639 21.6662 4
-2 -8 -2 639.803 40.3067 6
2 8 -2 584.506 40.4436 3
-2 8 -2 604.421 40.053 3
2 8 2 615.549 38.4142 3
-2 8 2 603.404 36.9461 4
2 8 2 662.716 29.4467 4
-2 -8 -3 249.671 25.269 6
2 8 -3 245.718 25.0871 3
-2 8 -3 276.059 25.44 3
2 -8 -3 262.868 25.2543 6
-2 8 3 217.11 21.2671 4
2 -8 -4 754.323 47.6582 6
-2 8 4 728.785 43.9339 4
-2 -8 -4 723.098 47.5625 6
-2 8 -4 702.033 44.4728 3
2 8 -4 809.84 49.4751 3
2 -8 5 50.3062 13.4635 5
-2 -8 5 36.921 12.0551 5
-2 8 -5 23.4075 8.34908 3
2 -8 -5 15.8579 7.95731 6
-2 8 5 33.2599 10.0943 4
-2 9 0 50.5575 10.4633 4
-2 -9 0 67.308 11.7932 6
2 9 0 51.2682 11.8968 3
-2 9 0 44.7876 12.3268 3
-2 9 1 16.9356 6.68281 4
-2 -9 -1 12.7059 6.96145 6
2 9 -1 17.8347 8.36985 3
2 9 1 16.5257 7.75747 3
-2 9 -1 12.8705 7.72147 3
-2 9 1 15.8087 7.90288 3
2 9 2 56.7744 12.2632 3
-2 -9 -2 52.8733 11.7074 6
-2 9 -2 54.2796 13.0437 3
2 9 -2 47.9655 12.2003 3
-2 9 2 46.5409 11.844 3
-2 9 2 51.8378 10.8669 4
-2 -9 -3 121.036 18.0941 6
-2 9 3 156.328 18.6297 4
-2 9 3 173.655 22.1507 3
-2 9 -3 118.9 18.2896 3
2 9 -3 127.02 19.3007 3
-2 9 4 54.4658 11.9786 4
2 9 -4 42.8512 12.8073 3
2 10 0 1905.22 91.2811 3
-2 10 0 1963.63 93.4122 3
-2 10 1 -1.96303 4.55317 4
-2 -10 -1 2.32157 4.39667 6
-2 10 -1 5.8264 7.80215 3
2 10 1 13.4418 8.04985 3
-2 10 1 6.01189 8.05054 3
2 10 -1 -2.89426 5.48116 3
-2 -10 -2 1478.79 74.5122 6
2 10 2 1515.97 75.2975 3
-2 10 -2 1495.16 77.8009 3
2 10 -2 1380.98 76.8064 3
-2 10 2 1469.3 69.1634 4
-2 10 2 1629.29 80.9964 3
-2 10 3 56.3325 11.8068 4
-2 10 -3 46.4531 13.0025 3
2 10 -3 48.5844 13.5894 3
-2 10 3 49.4886 13.325 3
-2 -10 -3 92.5472 17.4934 6
2 11 0 343.114 33.8374 3
2 11 1 12.014 8.53952 3
-3 0 0 -1.16069 1.83173 2
3 0 0 0.39828 1.68656 2
3 0 0 -0.59248 2.24403 1
-3 0 0 -0.33172 1.50638 4
-3 0 0 4.20281 2.58479 1
3 0 -1 13148.2 385.283 1
-3 0 1 12670.6 381.231 2
-3 0 1 12106.3 378.679 5
3 0 -1 12116.6 378.845 5
3 0 -1 12781.2 382.347 2
-3 0 -1 12273.3 381.859 1
-3 0 2 170.724 9.2602 6
3 0 -2 188.838 14.1305 1
-3 0 2 157.727 11.1706 5
3 0 -2 194.905 12.0086 5
-3 0 2 190.211 12.4057 2
3 0 2 172.555 11.2439 4
-3 0 3 3129.78 110.629 5
3 0 -3 3236.68 114.043 1
-3 0 3 3232.62 102.4 6
-3 0 4 167.501 15.6799 5
3 0 -4 189.996 16.9226 1
-3 0 -4 145.66 12.5645 6
-3 0 -5 3441.68 120.722 6
3 0 -5 3556.43 128.475 1
-3 0 5 3414.08 129.53 5
-3 0 6 2.22466 5.95816 5
-3 0 -6 1.244 2.63423 6
3 0 7 319.047 30.7897 5
-3 0 7 470.201 35.714 5
-3 -1 0 -0.52929 2.0047 3
3 -1 0 0.54232 2.05406 1
3 -1 0 0.52131 1.91178 2
-3 -1 0 -0.38037 0.98638 4
-3 1 0 -0.99051 1.93352 2
-3 -1 0 0.54834 1.32376 2
-3 1 0 0.95186 1.91195 4
-3 1 0 -1.02576 2.11685 1
3 -1 0 -0.4473 1.79692 4
3 -1 1 12.8099 3.16251 4
-3 1 1 16.9179 3.51785 2
-3 1 -1 10.4742 2.83134 4
3 1 -1 12.5205 4.20517 1
-3 -1 1 9.10132 2.32405 2
3 -1 -1 12.3395 3.54881 2
3 -1 -1 14.8124 2.7362 5
-3 1 -1 9.66752 2.36892 1
-3 -1 1 8.67179 2.05283 5
-3 -1 -1 9.23526 2.19011 5
3 1 1 11.1482 2.19572 4
3 -1 -1 12.926 4.02287 1
3 -1 1 10.7124 3.596 2
-3 1 1 13.2251 3.23769 4
-3 -1 1 15.1947 3.38564 1
-3 -1 2 211.584 13.3574 5
-3 1 2 230.607 12.2582 6
-3 1 2 201.521 12.9679 5
-3 -1 2 207.363 9.18673 6
3 -1 -2 209.962 12.871 5
-3 -1 -2 203.4 12.6474 5
3 1 -2 218.914 15.1884 1
-3 -1 2 200.223 14.1623 3
-3 1 2 226.508 14.4742 2
3 -1 -2 224.037 16.1592 1
-3 1 -2 214.1 10.2262 1
-3 1 3 119.952 11.4884 5
-3 1 3 107.401 8.36418 6
-3 -1 3 125.705 11.6657 5
-3 -1 3 108.343 5.26504 6
-3 1 -3 116.002 5.61467 3
3 -1 -3 132.328 13.5353 1
3 1 -3 103.66 11.3597 1
3 1 -4 190.365 16.7817 1
-3 -1 4 142.071 14.825 5
-3 1 4 166.117 15.6356 5
3 -1 -4 161.968 16.4546 1
-3 -1 -4 164.278 14.1973 6
-3 1 -5 5.1199 3.36325 6
-3 -1 5 12.6424 5.92658 5
-3 1 5 3.60674 4.1863 5
-3 -1 -5 2.5812 3.46084 6
3 1 -5 8.00641 6.06737 1
3 -1 -5 12.6463 5.92839 1
-3 1 -6 238.92 17.2952 6
3 1 6 252.979 24.2474 5
-3 1 6 285.379 25.4183 5
-3 -1 -6 216.963 18.7133 6
-3 -1 6 315.804 26.8191 5
3 -1 -6 269.968 24.3341 1
3 -1 7 5.39629 6.75939 5
-3 1 7 2.5999 5.50471 5
3 1 7 7.78232 6.94746 5
-3 -1 -7 -2.89342 3.6243 6
-3 -1 7 8.0649 8.04954 5
3 2 0 0.67362 2.11545 3
3 2 0 0.1422 0.7735 2
-3 -2 0 -1.21651 1.82129 3
3 -2 0 0.65334 2.47453 2
3 -2 0 0.57182 2.0259 4
3 -2 1 4349.67 137.664 2
-3 -2 1 4495.53 137.993 1
3 -2 1 3890.02 131.558 1
3 -2 -1 4304.85 133.821 5
-3 -2 -1 4207.93 132.555 5
3 -2 -1 4484.18 137.988 2
-3 -2 1 4202.46 130.648 2
3 -2 -1 3873.68 137.715 1
3 -2 1 4092.96 135.861 4
3 2 1 4127.12 134.109 3
-3 -2 -1 4199.92 133.462 3
3 2 1 4182.71 128.649 4
-3 2 1 4324.08 135.284 6
-3 -2 2 127.953 5.77195 6
-3 -2 -2 129.688 9.97994 5
-3 -2 -2 107.564 10.2677 6
-3 -2 2 119.019 10.865 3
3 -2 -2 130.336 10.2362 5
-3 -2 2 137.924 10.6326 5
3 2 2 129.432 7.88483 3
-3 2 2 128.343 9.81487 6
3 -2 -3 1495.49 61.8641 1
-3 2 -3 1432.22 50.8241 3
-3 -2 3 1474.54 56.4025 1
-3 2 3 1465.47 58.6161 5
-3 -2 3 1591.23 60.0732 5
3 -2 -3 1362.85 54.8624 6
-3 -2 -3 1501.15 59.0969 6
3 2 -3 1531.78 60.0195 1
3 -2 -4 15.2044 4.23718 6
3 -2 -4 18.0621 6.42158 1
-3 -2 -4 5.16024 3.68389 6
-3 -2 4 10.4373 5.65988 5
3 2 -4 10.7808 4.95629 1
-3 -2 5 1969.91 81.5431 5
-3 -2 -5 1912.63 76.585 6
-3 2 -5 1834.91 69.5315 6
3 2 5 1830.76 80.3616 5
-3 2 5 1990.86 81.6458 5
3 -2 -5 2042.9 83.3414 1
3 2 -5 1830.49 76.6426 1
3 -2 -6 93.5506 15.1553 1
-3 -2 -6 111.422 13.4976 6
-3 2 -6 80.89 9.03771 6
-3 -2 6 105.004 15.818 5
3 2 6 86.4434 14.3798 5
-3 2 6 75.5564 13.8049 5
-3 -2 -7 1059.37 52.3305 6
-3 2 7 1120.05 62.3213 5
3 2 7 1001.91 59.8072 5
-3 3 0 2.76717 2.36183 6
3 3 0 -1.71317 2.56489 3
-3 -3 0 0.67504 2.11996 6
3 -3 0 0.80506 3.23416 2
3 -3 0 0.70111 2.65549 4
3 3 1 63.9374 7.1123 3
-3 -3 -1 69.1829 6.49437 5
3 -3 1 71.2319 8.20148 2
-3 -3 -1 73.4235 8.09622 6
3 -3 -1 71.1651 8.15915 2
-3 -3 -1 61.6846 6.44422 3
-3 -3 1 66.7156 5.89177 6
3 3 -1 62.3257 8.14268 3
3 -3 1 58.8573 5.46946 1
-3 3 1 66.4195 7.6619 4
-3 -3 1 66.2792 4.05467 2
-3 3 -1 91.0818 8.92446 4
-3 3 1 60.1875 7.05676 2
-3 -3 2 20.4738 2.18468 6
-3 -3 -2 19.8664 4.55888 5
3 3 2 23.752 4.14514 3
-3 -3 -2 16.9406 4.63417 6
-3 -3 2 14.9453 4.12303 1
3 -3 2 19.9884 5.48973 2
-3 3 2 26.309 5.62254 4
-3 -3 3 29.2836 6.31341 5
3 -3 -3 41.5024 6.76936 6
-3 3 -3 40.83 5.58363 3
-3 -3 -3 29.9564 6.34518 6
-3 3 -4 910.501 36.6096 3
-3 -3 4 926.262 46.1004 5
3 3 4 965.701 46.8645 5
3 -3 -4 856.642 41.182 6
-3 -3 -5 47.728 9.04923 6
3 -3 -5 39.1683 7.53445 6
-3 -3 5 49.869 10.7661 5
3 3 5 42.4335 10.2102 5
3 -3 -5 43.8159 10.5374 1
-3 -3 -6 46.4163 9.9704 6
-3 -3 6 62.0165 12.8642 5
3 -3 -6 38.8526 11.1288 1
3 3 6 58.1544 12.8625 5
-3 -3 -7 -1.92221 4.07035 6
-3 -3 7 -2.72592 6.32271 5
-3 -4 0 0.82796 2.47922 6
3 -4 0 2.87031 3.13833 2
3 4 0 1.08826 2.72637 3
-3 4 0 -1.001 2.50777 4
3 4 -1 6603.1 218.419 3
3 4 1 6929.83 215.826 3
-3 -4 1 6809.71 209.584 6
3 -4 -1 6608.4 216.265 2
3 4 1 6675.94 204.159 2
-3 4 1 6832.1 216.57 4
-3 -4 1 6699.59 206.757 4
3 4 1 6520.71 202.601 4
-3 -4 -1 6897.21 216.279 6
-3 4 -1 6622.17 215.99 4
3 -4 1 6782.99 215.673 2
-3 -4 -2 4.91409 3.29227 6
-3 -4 2 9.04333 2.08623 6
3 -4 -2 1.167 2.47363 6
-3 4 2 -1.23212 3.08893 4
3 4 -2 9.41103 4.93174 3
3 -4 2 8.56694 1.58613 1
3 -4 2 9.55222 4.5239 2
3 4 2 7.84329 3.69218 3
3 4 2 6.74131 2.29462 4
-3 -4 -3 4054.06 145.671 6
3 -4 3 4368.19 146.653 2
3 4 3 4144.68 136.447 3
-3 4 -3 4352.8 140.837 3
-3 4 3 3909.9 146.075 4
3 -4 -4 -1.46918 3.11067 6
-3 4 -4 2.93482 2.92925 3
-3 -4 4 -1.75145 4.38773 5
-3 -4 -5 1607.09 74.0069 6
3 -4 -5 1735.18 72.7789 6
-3 -4 5 1750.25 78.6699 5
3 -4 -6 25.7145 9.46385 1
-3 -4 -6 22.2044 7.92103 6
-3 -4 6 34.5734 10.2238 5
-3 -4 7 499.869 39.4965 5
-3 -4 -7 464.368 34.2729 6
-3 -5 0 1.98004 2.81231 6
3 -5 0 2.21685 3.14866 2
3 5 0 -1.32988 3.77771 3
-3 5 -1 2.49069 3.33526 4
3 5 1 -0.42981 0.99694 4
-3 -5 -1 -1.20607 3.02147 6
3 -5 -1 -1.24921 3.54854 2
3 5 1 0.65983 0.9629 2
3 5 1 -1.22958 3.86142 3
3 -5 1 2.28476 3.24509 2
3 5 -2 239.303 20.1426 3
-3 -5 2 255.637 12.975 6
3 -5 -2 242.328 19.1092 6
3 5 2 284.712 18.7108 3
3 -5 2 235.669 18.686 2
-3 -5 -2 241.331 19.2346 6
3 -5 2 224.46 11.4078 1
3 5 2 221.518 13.2269 2
3 5 2 220.037 12.1091 4
3 -5 3 146.401 15.7084 2
-3 -5 -3 140.494 15.2672 6
3 5 3 156.906 13.209 3
-3 5 -3 148.577 14.179 3
-3 -5 -4 16.5948 6.33345 6
3 -5 -4 32.9425 8.23808 6
-3 5 -4 18.8337 5.61974 3
-3 -5 4 57.0284 10.8222 5
3 -5 4 40.7447 9.78873 2
-3 5 4 11.9072 5.983 4
-3 -5 -5 33.3223 9.49436 6
3 -5 -5 33.6824 8.72042 6
-3 -5 5 23.133 7.94183 5
-3 5 -5 23.6501 5.98363 3
-3 5 5 32.4838 9.61303 4
-3 -5 -6 255.835 24.9507 6
-3 -5 6 289.099 28.1564 5
-3 5 6 231.093 25.8544 4
3 -5 -6 268.945 28.0154 1
-3 -5 -7 9.57998 7.85866 6
3 -5 -7 3.03707 7.61146 1
-3 -5 7 11.5443 8.64437 5
-3 5 7 5.91036 6.26058 4
-3 6 0 -1.41008 3.27061 4
3 6 0 1.59727 4.00159 3
-3 -6 0 -2.45944 3.4933 6
3 -6 0 2.56401 3.64181 2
-3 -6 1 862.219 37.5328 6
-3 -6 -1 812.541 41.8716 6
3 6 -1 825.164 44.3617 3
3 6 1 911.074 43.8243 3
3 -6 -1 838.493 41.7702 2
-3 6 1 864.139 42.4506 4
3 -6 1 804.059 40.2507 2
3 6 2 7.33691 2.40965 4
-3 6 2 7.82696 4.68881 4
-3 -6 -2 14.7395 5.59252 6
3 6 2 3.70491 2.18789 2
3 -6 2 3.14126 2.04759 1
3 6 2 -1.40519 3.99349 3
3 -6 2 1.42147 3.80888 2
-3 6 -2 8.07558 5.2991 3
3 6 -2 1.8441 5.23982 3
-3 -6 -3 1577.63 69.4883 6
3 -6 -3 1578.51 70.0967 6
3 -6 3 1642 68.9285 2
3 6 3 1423.98 61.9929 3
-3 6 3 1577.7 68.782 4
-3 6 -3 1523.28 66.4895 3
3 -6 4 71.4569 12.8781 2
-3 -6 -4 74.2115 12.6711 6
3 -6 -4 44.522 10.1241 6
-3 6 -4 59.0239 10.248 3
-3 -6 4 66.5965 12.4419 5
3 6 4 57.491 8.50872 4
-3 6 4 66.8668 12.4913 4
3 -6 5 586.418 39.302 2
-3 6 5 550.807 38.6686 4
-3 6 -5 494.352 30.1018 3
-3 -6 5 464.727 36.386 5
3 6 5 480.65 29.9908 4
-3 -6 -6 2.56501 6.42585 6
3 -6 -6 -2.98799 8.48778 1
-3 -6 6 2.79056 5.9084 5
3 -6 6 -2.62217 7.44861 2
-3 6 6 2.75767 5.22236 4
-3 7 0 3.34588 4.1911 4
-3 -7 0 -1.45775 3.08654 6
3 -7 0 1.46864 4.39759 2
3 7 0 3.76333 3.98407 3
3 -7 -1 7.8052 4.69145 2
-3 7 1 21.5489 6.67114 4
-3 7 -1 23.7798 7.20387 4
-3 -7 -1 23.8333 7.03777 6
-3 -7 1 10.3671 4.51504 6
3 7 -1 4.03077 5.06492 3
3 7 1 21.4187 6.97994 3
3 7 2 39.2203 4.72529 4
-3 -7 -2 29.1037 8.70418 6
3 -7 2 40.1778 5.66235 1
-3 7 -2 33.2906 8.977 3
3 7 -2 42.5709 10.5444 3
3 7 2 43.8119 9.38432 3
3 -7 2 49.7101 9.83393 2
-3 7 2 63.1464 10.7055 4
3 7 3 2.20349 1.96916 4
-3 7 3 3.9088 4.89698 4
3 -7 3 5.2533 5.49994 2
-3 -7 -3 4.36542 5.46886 6
-3 7 -3 3.82357 4.43504 3
-3 -7 -4 319.434 28.3682 6
3 -7 4 327.516 27.1329 2
-3 7 4 292.421 26.4441 4
-3 7 -4 285.316 24.3211 3
-3 -7 4 270.055 25.8299 5
-3 -7 5 5.28679 6.13101 5
-3 7 -5 1.74901 4.38164 3
-3 7 5 -2.47 5.22972 4
-3 -7 -6 118.303 18.7177 6
3 -7 -6 79.8299 17.6837 1
-3 -7 6 128.012 20.5142 5
-3 7 6 122.282 19.2644 4
-3 8 0 -5.5909 5.29394 4
3 -8 0 1.62913 4.6278 2
-3 -8 0 3.31047 4.70196 6
3 8 0 2.19187 5.49112 3
-3 8 0 4.59073 6.52032 3
3 8 -1 2391.35 102.295 3
-3 -8 -1 2428.58 98.6011 6
3 8 1 2320.14 99.2512 3
-3 8 1 2453.25 98.3704 4
-3 8 -1 2587.21 99.8291 4
-3 -8 -2 55.6251 11.6296 6
3 8 -2 36.3429 10.612 3
3 8 2 41.4495 10.3381 3
-3 8 -2 52.6916 11.7708 3
-3 8 2 57.484 11.3538 4
-3 8 -3 2624.93 107.4 3
-3 -8 -3 2595.01 109.923 6
-3 8 3 2559.92 105.447 4
-3 8 4 27.7485 8.79563 4
-3 -8 -4 35.0515 10.8619 6
-3 8 -4 21.8177 8.04211 3
-3 -8 -5 590.94 43.4184 6
-3 -8 5 578.756 42.921 5
-3 8 5 558.458 40.5191 4
-3 9 0 -2.05223 4.34513 4
-3 -9 0 1.8397 4.26694 6
3 9 0 2.51215 5.31892 3
-3 9 0 -2.70733 5.73217 3
-3 9 1 18.9697 6.92994 4
-3 -9 -1 8.68427 6.18554 6
3 9 -1 23.5769 10.2384 3
3 9 1 19.1159 8.47907 3
-3 9 2 2.73251 6.84672 3
-3 -9 -2 2.44085 5.1696 6
3 9 -2 2.73037 5.17228 3
3 9 2 9.08101 6.79902 3
-3 9 -2 7.80341 6.96749 3
-3 -9 -3 2.68783 5.69099 6
-3 9 -3 2.56886 5.95822 3
-3 9 3 -2.71922 6.30696 3
-3 9 3 2.26872 4.29653 4
-3 -9 -4 207.937 25.152 6
-3 9 -4 155.306 21.1857 3
-3 9 4 164.468 20.7201 4
-3 10 0 4.45217 5.96298 4
-3 10 0 3.08079 7.14643 3
-3 -10 -1 294.541 27.1122 6
3 10 -1 262.39 28.777 3
3 10 1 293.99 29.6233 3
-3 10 1 335.006 32.7959 3
-3 10 1 258.612 25.2549 4
3 10 -2 -3.00965 6.37242 3
-3 10 2 2.25049 4.76511 4
-3 -10 -2 -2.63555 7.48674 6
-3 10 2 -3.10175 5.8741 3
-3 10 -2 2.941 6.22707 3
-3 -10 -3 634.969 45.8729 6
-3 10 -3 711.189 48.4643 3
-3 10 3 587.565 45.3204 3
-3 10 3 658.028 42.5783 4
-4 0 0 24.2376 3.52738 4
4 0 0 34.444 4.11013 4
4 0 0 29.2783 5.50936 1
-4 0 0 24.5669 3.90678 2
-4 0 0 29.3233 4.92966 1
4 0 -1 169.856 13.5472 1
4 0 -1 183.62 8.86434 5
4 0 1 178.394 9.02421 5
-4 0 1 187.584 8.5649 5
-4 0 -1 164.063 11.355 1
-4 0 1 153.526 10.7062 4
4 0 1 144.579 11.1925 2
4 0 1 174.755 10.2564 4
-4 0 1 176.235 11.0869 2
-4 0 -1 168.664 10.4848 4
-4 0 2 8254.66 256.652 6
4 0 -2 8053.36 265.913 1
4 0 -2 8284.62 258.731 5
-4 0 2 9222.33 264.98 1
4 0 2 8158.19 259.517 5
-4 0 2 8357.67 258.815 5
-4 0 2 7939.03 260.756 2
4 0 2 8191.12 259.088 4
4 0 -3 467.679 28.2541 1
-4 0 3 439.702 24.3442 5
4 0 3 457.618 25.1186 5
4 0 -4 1806.74 73.228 1
4 0 4 1596.64 68.5523 5
-4 0 4 1705.41 69.0372 5
-4 0 5 466.681 31.0049 5
4 0 -5 419.668 30.7349 1
-4 0 -5 434.222 27.0354 6
4 0 5 490.241 31.7611 5
4 0 -6 1329.97 65.5081 1
-4 0 6 1394.3 66.3341 5
4 0 6 1269.7 65.6949 5
-4 0 -6 1385.38 58.9006 6
4 0 7 264.687 27.0181 5
-4 0 7 277.974 27.037 5
-4 -1 0 1518.47 47.1169 2
-4 -1 0 1381.19 51.5106 1
4 -1 0 1197.81 50.1662 1
-4 1 0 1470.22 49.9011 2
-4 1 0 1189.19 49.1061 1
-4 -1 0 1352.69 45.0626 4
-4 1 0 1368.62 49.1059 4
4 1 0 1342.71 46.7735 2
4 -1 0 1263.46 49.5325 2
-4 1 -1 9.92706 2.82518 4
4 1 -1 15.272 4.92869 1
4 -1 -1 15.3565 3.93151 2
4 -1 -1 9.55907 4.53974 1
-4 -1 -1 8.0228 2.75079 3
-4 -1 1 15.4993 3.0374 2
-4 1 1 14.2543 3.65331 2
-4 -1 -1 12.4752 2.52312 5
-4 -1 1 13.5775 2.27762 5
-4 1 -1 7.82256 2.91983 1
4 -1 -1 13.0417 2.593 5
4 -1 1 13.9472 4.03441 2
4 1 1 11.5644 2.18984 4
4 1 1 21.0395 3.93992 2
-4 1 1 5.04632 2.83709 4
4 1 -2 435.197 24.9321 1
-4 1 2 441.34 19.9484 6
-4 1 -2 395.26 18.0261 1
-4 -1 -2 405.621 19.7157 5
4 1 2 385.98 19.6567 5
-4 1 2 413.249 20.1038 5
4 -1 -2 433.592 25.0504 1
-4 -1 2 391.985 20.1345 2
4 -1 -2 443.283 20.3833 5
-4 -1 2 405.47 19.7768 5
4 -1 2 417.382 21.0274 4
4 1 2 423.977 19.0526 4
-4 -1 -2 373.613 15.8302 3
-4 1 -3 317.348 15.771 1
4 1 -3 386.874 25.1245 1
-4 1 -3 380.049 13.7431 3
4 -1 3 370.795 22.1949 5
-4 1 3 353.01 21.0308 5
4 -1 -3 376.635 25.0398 1
4 1 3 351.675 21.4997 5
-4 1 3 350.239 18.1101 6
-4 -1 3 334.978 20.7118 5
-4 -1 -4 85.9393 10.713 6
4 1 -4 105.551 13.4591 1
4 -1 4 83.1844 11.2513 5
-4 -1 4 99.6274 11.8635 5
4 1 4 111.418 12.9062 5
-4 1 4 96.9979 11.6507 5
4 -1 -4 109.572 14.1564 1
-4 1 -5 -1.20479 2.79436 6
-4 -1 -5 7.33676 5.72865 6
4 -1 5 -1.84696 3.91053 5
4 -1 -5 6.10956 5.785 1
4 1 -5 -1.84717 4.62752 1
4 1 5 1.82612 4.57479 5
-4 1 5 -1.7687 4.73688 5
-4 -1 5 1.7659 3.7389 5
-4 1 -6 15.5177 5.37395 6
4 -1 6 26.857 9.0128 5
-4 -1 6 22.1933 8.93763 5
4 1 6 13.1768 6.92526 5
-4 1 6 39.2878 9.71398 5
4 -1 -6 18.3406 8.14651 1
-4 -1 -6 25.3069 6.89172 6
-4 -1 -7 91.8754 12.7588 6
4 -1 7 96.2557 17.0609 5
-4 -1 7 97.1432 16.6906 5
4 1 7 120.119 17.8725 5
-4 1 7 102.411 17.0631 5
4 -2 0 7539.71 234.501 4
4 2 0 7458.73 228.043 2
-4 2 0 7731.76 235.803 4
-4 -2 0 7407.76 225.723 4
4 -2 0 7055.17 235.871 2
-4 2 -1 2.47965 2.59986 4
4 -2 -1 3.59702 2.69662 2
-4 2 1 6.95173 3.02002 6
-4 -2 1 5.39221 1.93108 2
4 -2 1 2.88764 2.37246 4
-4 -2 -1 4.62654 2.19529 3
4 -2 1 4.50688 2.13877 1
-4 -2 1 5.55847 2.91303 1
-4 -2 -1 5.91901 2.12341 5
4 -2 -1 3.58564 2.17404 5
4 -2 -1 5.08396 3.33838 1
4 -2 1 5.50032 3.68562 2
4 2 1 6.93952 2.21644 2
4 2 1 6.27622 1.32776 4
-4 2 1 1.7029 2.13809 4
-4 -2 -2 5556.49 176.256 5
-4 -2 2 5595.63 177.713 5
-4 -2 -2 5155.13 171.912 3
-4 2 2 5960.48 183.253 4
-4 -2 2 4970.29 174.722 2
4 -2 -2 5911.64 177.897 5
4 -2 2 6081.18 183.105 2
4 -2 -2 5725.85 185.083 1
4 2 2 5630.02 173.299 4
4 -2 3 452.075 25.8612 5
-4 -2 3 455.633 25.1514 5
-4 -2 -3 428.462 25.4917 6
-4 2 -3 401.001 18.8359 3
4 2 3 403.417 23.7781 5
4 -2 -3 505.032 29.6998 1
4 2 -3 475.136 28.3808 1
-4 2 -4 3071.9 98.4974 3
4 -2 4 3027.53 114.874 5
-4 -2 4 3247.9 114.528 5
4 2 4 2997.86 113.736 5
4 -2 -4 3643.06 122.776 1
-4 2 4 3249.57 114.966 5
-4 -2 -4 2826.89 112.17 6
4 2 -4 3340.2 117.657 1
-4 -2 -5 300.746 23.5981 6
4 -2 5 368.403 27.5361 5
-4 -2 5 389.664 27.7164 5
4 2 5 319.449 25.7827 5
-4 2 5 326.595 25.937 5
4 -2 -5 361.492 28.8226 1
4 2 -5 336.234 25.7733 1
-4 2 -6 357.19 22.6353 6
4 -2 6 404.53 31.8861 5
-4 -2 6 364.648 29.93 5
-4 -2 -6 350.768 26.4582 6
4 2 6 431.318 32.16 5
-4 2 6 390.243 31.0541 5
4 -2 -6 382.156 31.5991 1
-4 -2 -7 179.57 18.6842 6
4 -2 7 153.573 20.7951 5
-4 -2 7 155.363 21.2457 5
4 2 7 143.214 20.1343 5
-4 2 7 149.033 20.7078 5
4 3 0 673.872 32.5015 3
4 -3 0 695.763 31.2964 1
-4 3 0 743.931 32.9439 4
4 -3 0 690.747 32.8411 2
-4 -3 0 690.633 30.7557 6
-4 -3 1 909.482 34.7459 6
4 -3 1 912.544 34.5672 1
4 3 1 897.956 37.3654 3
-4 -3 -1 913.004 39.1751 6
-4 -3 -1 876.915 33.8649 5
4 -3 -1 928.739 35.8843 5
4 3 1 812.624 30.9714 2
4 -3 -1 907.425 39.8014 2
-4 3 1 906.791 39.2979 4
-4 3 -1 980.952 40.0767 4
-4 -3 1 860.431 29.5189 2
4 -3 1 868.551 39.6227 2
-4 -3 -2 646.941 31.9647 6
4 -3 2 632.351 32.2608 2
4 -3 -2 533.753 31.2898 1
-4 -3 2 567.266 22.3716 6
-4 -3 -2 586.848 26.9588 5
-4 -3 2 592.531 24.7478 2
-4 3 2 643.512 32.1875 4
4 3 2 611.568 26.5506 3
-4 -3 -3 620.88 34.2258 6
4 -3 -3 583.367 35.5538 1
4 -3 3 653.093 34.1329 5
-4 -3 3 646.49 33.1523 5
-4 3 -3 674.984 29.2381 3
-4 3 -4 79.7865 7.53006 3
4 -3 -4 92.7136 13.7474 1
4 -3 4 53.5324 10.0632 5
-4 -3 4 75.7098 11.5926 5
4 -3 5 21.1265 7.77471 5
-4 -3 5 19.1891 7.06697 5
4 3 5 19.8793 7.55721 5
4 -3 -5 25.0117 8.36374 1
-4 -3 -5 23.2826 7.22401 6
4 -3 -6 17.9608 8.43631 1
-4 -3 -6 21.2422 7.33732 6
4 -3 6 12.2461 6.98178 5
-4 -3 6 30.304 9.11939 5
4 -3 7 2.82241 5.97587 5
-4 -3 7 -2.64208 5.59406 5
-4 -3 -7 -2.019 4.68282 6
4 4 0 1659.69 64.3566 3
-4 -4 0 1618.34 60.9788 6
4 -4 0 1642.47 61.2589 1
4 -4 0 1559.68 62.8275 2
-4 4 0 1527.39 62.9483 4
-4 4 -1 28.5155 6.26527 4
4 -4 1 32.6666 5.03663 1
-4 4 1 51.1361 8.04245 4
4 -4 -1 36.3317 7.42945 2
-4 -4 1 31.7488 5.21227 6
4 4 -1 40.0853 7.77879 3
4 4 1 42.5631 7.07182 3
4 4 1 40.0613 2.78657 2
4 -4 1 46.3826 7.76877 2
-4 -4 -1 42.6172 5.7264 5
4 4 1 34.4634 2.73605 2
-4 -4 -1 45.7847 7.51608 6
-4 -4 -2 3095.11 109.008 6
4 4 2 3100.14 103.411 3
4 -4 2 3282.97 110.554 2
4 4 2 2890.03 94.0825 4
-4 4 2 2908.39 108.715 4
-4 -4 2 2970.1 95.9034 6
4 -4 2 2962.44 94.029 1
4 -4 3 445.652 28.6897 2
-4 -4 -3 407.909 27.4062 6
-4 -4 3 394.892 25.5801 5
-4 4 -3 401.871 23.2897 3
-4 4 3 453.903 29.2697 4
4 -4 -4 1177.17 60.8958 1
-4 -4 -4 1153.72 57.6445 6
-4 4 -4 1272.23 50.2946 3
4 -4 4 1330.71 60.8336 5
-4 -4 4 1295.79 59.3894 5
-4 4 4 1279.28 61.2125 4
-4 -4 -5 344.228 27.4936 6
4 -4 5 375.966 30.2722 5
-4 -4 5 331.463 27.5279 5
4 -4 -5 350.274 29.9178 1
4 -4 6 1516.25 77.7785 5
-4 -4 6 1614.34 77.1533 5
-4 -4 -6 1661.8 74.9944 6
4 -4 -6 1631.73 80.707 1
-4 -4 -7 164.241 20.1332 6
4 -4 7 162.479 22.5663 5
-4 -4 7 174.335 22.578 5
4 -4 -7 150.644 22.4877 1
-4 -5 0 870.24 38.8296 6
4 5 0 854.628 42.1895 3
4 -5 0 779.714 39.5621 2
-4 5 0 862.03 41.1208 4
-4 -5 1 103.718 9.53274 6
4 5 -1 109.696 13.294 3
4 5 1 99.573 11.7218 3
4 -5 -1 100.579 12.2927 2
-4 5 1 118.954 12.8643 4
-4 -5 -1 109.293 12.0912 6
4 -5 1 89.3993 8.88702 1
-4 5 -1 109.302 12.4611 4
4 -5 1 91.0607 11.3856 2
4 5 -2 265.283 21.9125 3
4 -5 2 235.073 11.5571 1
-4 -5 -2 254.06 20.3072 6
4 5 2 231.792 12.8765 2
-4 5 2 274.023 21.0235 4
4 5 2 219.057 9.15166 4
4 -5 2 269.432 20.9353 2
-4 -5 -3 153.381 16.2085 6
4 -5 3 126.068 15.2045 2
-4 -5 -4 81.0144 13.2679 6
4 -5 4 80.3756 13.1173 5
-4 5 -4 70.4416 9.51152 3
-4 -5 4 54.0318 11.0805 5
4 -5 4 73.485 12.9954 2
-4 -5 -5 2.16896 4.10759 6
-4 5 -5 4.30657 3.38125 3
4 -5 5 -2.49109 5.77783 5
-4 -5 5 4.47489 5.18953 5
4 -5 -5 2.5993 5.50353 1
4 -5 5 -2.33641 5.85326 2
-4 -5 -6 2.37425 5.02953 6
4 -5 6 8.5058 6.57799 5
-4 -5 6 10.1439 6.35518 5
4 -5 6 10.6785 7.58512 2
4 -5 -6 14.4568 8.65903 1
-4 5 6 -2.81339 6.52727 4
-4 -5 -7 230.984 24.9729 6
-4 -6 0 5760.53 196.345 6
4 6 0 6190.05 204.08 3
4 -6 0 5901.5 199.297 2
-4 -6 -1 43.1681 8.20109 6
4 -6 -1 40.0624 8.68194 2
-4 -6 1 52.3206 7.51189 6
4 -6 1 33.8905 6.24855 1
4 6 -1 62.4445 10.9382 3
4 -6 1 57.2707 9.66136 2
4 6 1 32.1191 7.8626 3
-4 -6 -2 1315.58 60.4728 6
4 6 -2 1449.49 64.7552 3
4 6 2 1435.23 59.2278 3
-4 6 -2 1394.14 60.6625 3
4 -6 2 1293.7 46.6394 1
4 6 2 1266.6 44.5568 2
4 -6 2 1299.69 59.3291 2
-4 -6 -3 236.463 21.7798 6
-4 6 -3 217.772 19.5939 3
4 -6 3 232.14 21.2467 2
-4 6 3 202.072 20.4607 4
4 6 3 213.428 11.9512 4
4 -6 4 2009.62 84.475 2
-4 6 -4 1750.58 74.6981 3
-4 -6 4 1742.66 80.1105 5
-4 -6 -4 1989.24 84.4299 6
4 6 4 1860.52 68.0883 4
-4 6 4 1874.8 83.4486 4
4 -6 5 219.105 24.0359 2
4 -6 -5 188.526 24.0681 1
4 -6 5 219.18 24.5452 5
-4 -6 5 190.663 22.4908 5
-4 6 5 234.638 25.216 4
-4 -6 -6 641.804 44.371 6
4 -6 6 706.045 47.1774 2
4 -6 6 604.219 45.2337 5
-4 -6 6 611.59 43.9478 5
-4 6 6 581.633 44.1813 4
4 -6 -6 658.504 47.9461 1
-4 -7 0 474.081 29.5981 6
4 7 0 565.229 35.5048 3
4 -7 0 476.346 30.9856 2
-4 7 0 458.374 31.418 4
-4 7 1 49.3793 10.1758 4
-4 7 -1 36.7567 9.12967 4
4 7 -1 59.3582 11.7722 3
-4 -7 -1 50.8013 9.75353 6
4 -7 -1 26.5022 8.12149 2
4 7 1 41.6288 9.56409 3
4 -7 1 41.9465 7.49735 1
-4 -7 -2 321.958 25.7918 6
4 7 -2 299.616 26.3372 3
4 7 2 306.665 24.0756 3
-4 7 -2 310.521 25.4171 3
4 -7 2 240.903 14.2565 1
-4 7 2 322.675 25.6136 4
4 -7 2 271.87 22.922 2
-4 7 3 123.487 16.3147 4
-4 -7 -3 107.16 16.1234 6
-4 7 -3 128.717 16.198 3
4 -7 3 142.893 17.1758 2
-4 -7 -4 42.2323 10.907 6
-4 -7 4 52.0678 11.6626 5
-4 7 -4 58.2146 11.2867 3
4 -7 4 60.6382 12.5108 2
-4 7 4 68.8046 13.5814 4
-4 -7 -5 2.72657 6.83097 6
4 -7 -5 -3.05943 7.6648 1
4 -7 5 14.0461 7.98025 5
-4 -7 5 2.60734 5.52092 5
4 -7 5 2.57218 7.30697 2
-4 7 5 2.62501 4.97163 4
-4 -7 6 16.9868 10.7329 5
-4 7 6 14.3464 8.60392 4
-4 -8 0 1340.7 60.7092 6
4 8 0 1343.98 66.1536 3
4 -8 0 1286.16 61.4373 2
-4 8 0 1292.77 63.2556 4
-4 8 1 4.10993 4.3574 4
-4 8 -1 22.9941 7.92086 4
-4 -8 -1 6.07451 5.07817 6
4 -8 1 10.642 6.50879 2
4 8 -1 7.21511 6.02977 3
4 -8 1 7.52829 4.29018 1
4 8 2 656.148 41.5986 3
-4 8 -2 755.169 45.9937 3
4 8 -2 697.259 46.0869 3
-4 8 2 647.794 42.2348 4
4 -8 2 776.824 43.0271 2
-4 -8 -2 744.019 45.1795 6
-4 -8 -3 270.589 26.3869 6
-4 8 -3 251.08 24.5723 3
-4 8 3 217.395 23.3894 4
-4 -8 -4 642.537 45.0505 6
-4 8 -4 652.619 40.9503 3
-4 -8 4 636.591 42.7293 5
-4 8 4 562.582 40.9874 4
-4 -8 -5 160.392 22.604 6
4 -8 5 198.947 24.6074 5
-4 -8 5 201.765 24.7107 5
4 -8 -5 160.139 23.7635 1
-4 8 5 169.919 22.5072 4
4 9 0 309.032 28.7558 3
-4 9 0 260.245 25.2012 4
4 9 -1 45.8116 12.3364 3
-4 9 1 54.5703 12.2786 4
-4 -9 -1 48.801 11.4181 6
4 9 1 59.0555 12.8566 3
-4 -9 -2 209.739 23.2991 6
4 9 -2 189.29 23.7436 3
-4 9 -2 183.596 22.589 3
-4 9 -3 210.373 23.7609 3
-4 -9 -3 190.47 23.9415 6
-4 9 3 177.897 21.8362 4
-4 -9 -4 29.5355 10.112 6
-4 9 4 28.4603 10.7056 4
-4 9 -4 19.3413 8.28878 3
-4 -9 4 26.8362 10.5045 5
-4 10 0 2060.61 97.9748 3
4 10 0 1895.64 91.9163 3
-4 10 0 1932.78 88.5581 4
-4 10 1 21.5733 8.80859 4
4 10 1 16.345 8.57367 3
-4 10 1 25.2163 11.1816 3
4 10 -1 14.7992 8.42673 3
4 10 -2 581.035 45.2142 3
-4 10 -2 708.454 48.3013 3
-4 -10 -2 587.537 42.9624 6
-4 10 2 618.823 42.1996 4
-4 10 -3 94.1651 17.7387 3
-4 11 1 29.6122 9.95338 4
-5 0 0 1.14522 1.87891 4
5 0 0 5.25315 3.85324 1
-5 0 0 1.75206 2.99121 1
-5 0 0 1.29468 2.12394 2
5 0 -1 1910.05 72.6368 1
-5 0 -1 1782.7 68.0779 1
5 0 1 1846.39 61.2467 5
-5 0 1 1934.87 67.3563 4
5 0 1 2081.94 65.9769 4
-5 0 -1 1926.8 66.07 4
-5 0 1 1855.15 66.5811 2
5 0 -2 863.005 40.9557 1
5 0 -2 850.965 32.3928 5
5 0 2 776.798 32.7299 5
-5 0 2 800.571 31.8175 5
5 0 2 774.752 33.0297 4
-5 0 -2 799.021 34.3242 1
5 0 -3 804.287 42.5075 1
5 0 3 800.619 37.0686 5
-5 0 3 838.699 36.6836 5
5 0 4 25.2272 6.56539 5
-5 0 4 33.1962 7.28049 5
5 0 -4 35.8178 8.97185 1
5 0 -5 2268.93 94.7527 1
-5 0 5 2254.21 89.5266 5
5 0 5 2224.84 90.9234 5
-5 0 -5 2183.01 86.9445 6
-5 0 6 337.571 27.0842 5
-5 0 -6 275.323 22.3006 6
5 0 -6 300.985 27.6178 1
-5 0 -7 1162.67 54.5186 6
5 0 7 1123.94 62.0898 5
-5 0 7 1198.67 62.8995 5
-5 -1 0 -0.84378 1.59797 4
-5 1 0 1.45876 2.07195 4
5 -1 0 -0.8441 2.76874 2
-5 1 0 -0.85949 2.44154 1
-5 -1 0 1.923 2.73131 1
-5 1 0 -0.74924 2.55796 2
5 1 0 -0.56832 1.61446 2
-5 -1 0 -1.05182 1.72508 2
5 -1 0 -0.67801 2.22399 4
5 -1 1 1024.49 42.9041 2
-5 -1 -1 979.591 38.9711 3
5 -1 -1 996.852 44.78 1
5 -1 1 983.08 36.2946 5
5 -1 -1 1008.52 36.0008 5
-5 -1 1 1007.14 34.0491 5
-5 1 -1 990.772 40.091 1
-5 -1 1 1024.55 38.3558 4
5 -1 -1 1053.94 42.8469 2
-5 1 1 1053.61 42.0064 4
5 1 1 1056.95 36.7645 4
5 -1 1 1072.3 40.4887 4
5 1 1 1092.21 40.2913 2
5 1 -1 964.359 39.3732 2
5 1 -1 1025.66 46.1702 1
-5 1 -1 1019.45 41.0503 4
-5 -1 1 996.725 38.1376 2
-5 -1 -1 956.415 42.2108 1
-5 1 1 1008.64 40.7701 2
5 1 -2 269.886 20.6654 1
-5 1 2 270.181 15.6373 6
5 -1 2 273.029 18.871 2
-5 -1 -2 272.779 13.3392 3
-5 -1 -2 251.183 14.2498 5
-5 1 -2 254.938 14.8665 1
5 -1 -2 285.638 15.6155 5
5 1 2 275.23 14.9873 5
-5 1 2 248.489 17.7129 4
-5 -1 2 285.512 15.062 5
-5 -1 2 244.566 15.2741 2
5 1 2 274.335 14.7441 4
5 -1 -3 23.745 7.71426 1
5 1 -3 11.3108 5.53362 1
5 -1 3 16.2025 4.9244 5
-5 -1 3 13.421 4.27977 5
5 1 3 13.1874 4.09837 5
-5 1 3 14.5875 4.24222 5
-5 -1 -4 700.254 37.4162 6
5 -1 4 651.392 36.3789 5
-5 -1 4 745.074 36.9267 5
5 1 4 685.224 36.6258 5
-5 1 4 660.671 35.6422 5
5 1 -4 736.346 41.4449 1
-5 -1 -5 21.3325 6.7929 6
5 -1 -5 11.2378 7.0776 1
5 1 -5 23.0228 8.87823 1
5 -1 5 18.2433 6.92936 5
-5 -1 5 15.7259 6.21254 5
5 1 5 8.99681 6.16519 5
-5 1 5 31.051 8.18373 5
-5 -1 -6 323.665 25.3766 6
5 -1 -6 415.757 32.8279 1
5 -1 6 370.372 29.8451 5
-5 -1 6 316.016 27.4343 5
5 1 6 331.474 28.0626 5
-5 1 6 327.559 27.6203 5
-5 1 -6 338.143 24.1915 6
-5 -1 -7 111.506 14.9342 6
5 -1 7 126.281 18.9431 5
-5 -1 7 103.387 16.6593 5
5 1 7 107.612 17.0907 5
-5 1 7 113.128 17.8133 5
-5 2 0 -0.90453 2.26602 4
-5 -2 0 -0.22929 1.04123 4
5 2 0 -0.41618 1.57628 2
5 -2 0 0.98355 2.6341 2
-5 -2 0 0.88773 1.87958 3
-5 -2 0 0.46489 1.07825 5
5 2 1 9132.02 290.963 2
-5 -2 1 9165.29 288.713 5
-5 -2 -1 9210 288.689 5
5 -2 -1 9506.81 291.029 5
5 -2 -1 9443.44 300.034 1
5 2 1 9346.52 286.73 4
5 -2 -1 9806.93 299.227 2
-5 2 1 9486.64 297.456 4
5 -2 1 9482.97 294.781 1
-5 2 -1 9428.9 297.153 4
-5 -2 1 9710.71 289.821 2
5 -2 1 9382.8 298.826 2
-5 -2 -2 40.2877 4.91617 3
-5 -2 2 37.1441 5.1442 2
-5 -2 2 39.1497 5.53728 5
-5 -2 -2 42.4903 5.76223 5
5 -2 -2 33.5197 5.47206 5
-5 2 -2 47.1338 5.31441 1
5 -2 2 50.7225 8.04423 2
5 2 2 49.3519 5.04086 4
5 -2 -2 45.2832 8.35542 1
-5 2 2 37.7354 6.93437 4
5 -2 3 4064.69 140.713 5
-5 -2 3 4076.74 138.414 5
5 2 3 3812.72 137.638 5
5 -2 -3 3953.39 146.25 1
-5 -2 -3 4115.45 142.826 6
5 2 -3 4485.36 149.24 1
5 2 3 4233.06 134.115 4
-5 2 -4 809.598 27.9816 3
5 -2 4 747.125 41.0777 5
-5 -2 4 821.128 40.8514 5
5 2 4 785.379 40.6236 5
5 2 -4 894.611 46.9039 1
-5 -2 -5 1581.28 72.0579 6
5 -2 5 1579.21 73.1907 5
-5 -2 5 1750.73 73.7303 5
5 2 5 1598.64 73.0114 5
-5 2 5 1661.15 73.1301 5
5 2 -5 1779.46 77.9414 1
-5 2 -6 59.8966 9.68091 6
-5 -2 -6 42.3019 9.92323 6
5 -2 -6 47.7062 12.389 1
5 -2 6 57.6071 12.0481 5
-5 -2 6 54.3548 12.1012 5
5 2 6 46.9171 11.298 5
-5 2 6 46.6245 11.2289 5
-5 -2 -7 315.992 26.8619 6
5 -2 7 331.853 30.9357 5
5 2 7 342.486 30.7983 5
-5 -3 0 3.72621 3.05559 6
5 -3 0 1.13126 3.55266 2
5 -3 0 0.98182 2.62952 1
-5 3 0 -1.09647 2.74691 4
-5 -3 -1 290.961 19.4862 6
5 3 1 292.665 13.4353 2
-5 -3 1 271.843 12.1063 2
5 -3 1 297.962 16.6864 1
-5 -3 -1 294.172 17.2469 3
-5 -3 1 234.19 15.2329 6
-5 -3 -1 293.955 14.8026 5
5 -3 -1 270.552 15.8136 5
5 -3 -1 284.092 19.8612 2
-5 3 1 294.056 19.8818 4
-5 3 -1 261.434 18.7047 4
5 -3 1 278.634 19.7276 2
-5 -3 -2 683.345 33.6681 6
5 -3 2 587.566 33.4075 2
-5 -3 2 619.65 28.0514 5
-5 -3 2 569.524 23.7623 6
-5 3 2 603.503 32.4581 4
5 -3 -2 589.007 33.7584 1
5 3 2 534.093 21.1865 4
5 -3 3 464.371 29.6517 2
5 -3 3 444.232 27.0271 5
-5 -3 3 422.327 25.2777 5
-5 3 3 447.168 29.1883 4
5 -3 -3 414.471 29.5984 1
5 3 3 423.729 20.6643 4
-5 -3 -3 470.845 29.0583 6
-5 3 -4 182.355 11.6396 3
5 -3 4 176.644 17.9579 5
-5 -3 4 183.109 17.2826 5
5 -3 -4 171.231 19.7896 1
5 -3 -5 84.1286 15.4587 1
5 -3 5 94.048 14.4743 5
-5 -3 5 70.9465 12.1038 5
-5 -3 -5 77.8553 12.7322 6
5 -3 6 384.043 32.3272 5
-5 -3 6 395.49 31.5103 5
-5 3 -6 424.287 25.4422 6
5 -3 -6 419.511 35.1019 1
-5 -3 -6 442.001 32.3349 6
-5 -3 -7 38.3798 9.97126 6
5 -3 7 52.3992 12.8553 5
-5 -3 7 38.5849 11.2331 5
-5 -4 0 2.12661 3.02048 6
5 -4 0 4.37277 3.10538 1
-5 4 0 -3.83907 3.63514 4
-5 -4 -1 829.85 40.4122 6
-5 -4 1 880.793 36.2222 6
5 4 1 830.66 39.3339 3
5 -4 1 851.671 35.5197 1
5 -4 -1 793.556 40.578 2
-5 4 1 870.354 41.0483 4
5 4 1 825.99 27.3335 2
5 -4 -1 797.262 40.4473 1
-5 4 -1 799.701 39.9611 4
5 -4 1 836.604 41.1909 2
-5 -4 -2 124.67 13.6597 6
-5 -4 2 98.2945 7.79644 6
5 -4 2 121.056 14.0702 2
-5 4 2 103.358 12.7076 4
5 -4 -2 120.55 14.529 1
-5 -4 -3 1034.38 51.2499 6
5 -4 3 1100.17 53.0008 2
-5 -4 3 1057.34 47.46 5
-5 4 3 1011.79 51.4219 4
5 -4 -3 986.538 52.3588 1
5 -4 4 305.152 25.6239 2
-5 4 -4 304.628 18.0134 3
5 -4 4 274.092 23.5325 5
-5 -4 4 252.774 21.6683 5
-5 4 4 260.663 24.5435 4
5 -4 -4 277.205 25.9995 1
-5 -4 -4 258.375 23.2447 6
-5 -4 -5 1287.75 63.6639 6
5 -4 5 1234.04 64.599 2
5 -4 5 1254.28 64.2923 5
-5 -4 5 1195.59 60.5761 5
-5 4 5 1263.32 65.7788 4
5 -4 -5 1469 70.7934 1
-5 -4 -6 59.0333 12.4637 6
5 -4 -6 48.1643 13.2491 1
5 -4 6 64.601 13.726 5
-5 -4 6 56.5385 12.5324 5
-5 4 6 50.2904 13.0683 4
-5 -4 -7 1125.8 60.2875 6
5 -4 7 1115.82 64.8427 5
5 -4 -7 1141.4 66.7879 1
-5 -5 0 -1.20019 3.76949 6
-5 5 0 -2.96919 3.71957 4
5 -5 0 -1.46653 5.19603 2
5 5 0 -1.57036 4.20603 3
5 -5 0 -1.20229 3.01243 1
-5 -5 -1 500.638 31.5293 6
-5 -5 1 615.408 29.2527 6
5 5 -1 618.259 36.3085 3
5 5 1 654.013 34.2932 3
5 -5 1 561.393 27.9266 1
5 -5 -1 563.431 33.7617 2
-5 5 1 642.363 35.03 4
5 -5 1 645.132 35.0018 2
-5 5 -1 628.018 34.4567 4
5 -5 -1 567.962 33.3542 1
-5 -5 -2 133.355 14.8906 6
5 5 2 99.3168 11.6972 3
5 5 2 110.273 7.78223 2
5 -5 2 122.335 8.17322 1
-5 5 2 130.549 15.1457 4
5 -5 2 127.755 14.7276 2
-5 -5 -3 1.90226 3.60244 6
5 -5 -3 4.25271 6.97462 1
-5 -5 3 1.48581 3.14591 5
-5 5 -3 1.35461 3.39361 3
5 -5 3 -1.91711 5.13436 2
5 5 3 0.3654 1.50819 4
-5 5 3 3.86449 5.78571 4
-5 -5 -4 627.658 40.0428 6
5 -5 4 662.001 41.1311 2
-5 5 -4 585.833 31.7977 3
5 -5 4 636.379 40.178 5
-5 -5 4 678.915 39.0125 5
-5 5 4 629.752 41.503 4
5 -5 -4 667.94 43.2789 1
5 -5 5 52.298 11.9002 5
-5 -5 5 56.5711 11.7654 5
5 -5 5 50.302 12.2499 2
5 -5 -5 54.9621 13.3659 1
-5 -5 -6 225.416 24.598 6
5 -5 6 240.135 26.4242 2
5 -5 -6 172.079 24.2936 1
5 -5 6 226.902 26.0793 5
-5 -5 6 193.99 22.6798 5
-5 -6 0 -1.34956 3.3811 6
5 -6 0 -1.64566 4.40748 2
5 -6 0 -1.35546 3.39587 1
5 6 0 1.83429 5.21064 3
-5 6 0 -1.71519 3.9783 4
-5 -6 1 4104.61 140.13 6
5 -6 -1 3851.41 146.557 1
-5 -6 -1 4134.81 146.791 6
5 6 -1 4122.63 151.989 3
5 -6 1 4052.02 138.775 1
5 -6 -1 4475.62 151.184 2
5 6 1 4349.74 149.048 3
-5 6 1 4065.1 149.484 4
5 -6 1 4236.83 148.814 2
-5 6 -1 4058.82 148.151 4
5 -6 -2 269.547 24.2034 1
5 -6 2 243.315 13.6876 1
5 6 2 310.655 22.4161 3
-5 -6 -2 292.496 23.8758 6
5 -6 2 314.029 24.5587 2
-5 -6 -3 3150.87 126.057 6
-5 6 -3 3381.64 122.552 3
5 -6 3 3331.84 126.501 2
-5 -6 -4 69.7069 13.5187 6
5 -6 4 59.2677 12.3587 5
-5 -6 4 69.8597 12.3966 5
-5 6 -4 50.4403 9.19559 3
5 -6 4 84.0406 14.7866 2
5 -6 -4 66.5148 14.1563 1
5 -6 5 652.536 45.1119 2
5 -6 5 674.22 45.5321 5
-5 -6 5 668.809 42.7967 5
-5 6 5 644.473 45.2108 4
5 -6 -5 616.204 45.7459 1
-5 -6 -6 226.037 25.4047 6
5 -6 6 226.98 26.5301 5
-5 6 6 212.62 26.1698 4
5 -6 -6 236.585 28.1956 1
5 -6 6 178.48 24.0121 2
-5 -7 0 1.54791 4.14689 6
5 -7 0 1.87719 5.33342 2
5 7 0 2.10669 4.8873 3
5 -7 0 9.21779 5.04026 1
-5 -7 -1 207.183 19.8542 6
5 7 -1 225.2 22.9557 3
5 7 1 226.865 21.7751 3
5 -7 -1 235.282 22.3744 2
5 -7 1 234.052 17.429 1
5 -7 1 206.538 20.2798 2
-5 -7 -2 179.003 19.6801 6
5 7 -2 205.539 22.9275 3
5 7 2 234.549 20.9881 3
-5 7 2 204.132 21.3463 4
5 -7 2 205.196 20.8808 2
-5 7 3 92.6453 14.9368 4
-5 -7 -3 85.3072 14.5469 6
5 -7 3 100.23 15.1964 2
-5 7 -3 71.155 12.6802 3
-5 -7 -4 156.343 20.9324 6
5 -7 -4 182.781 23.5057 1
-5 7 -4 212.612 20.2378 3
-5 -7 4 175.804 20.2108 5
-5 7 4 244.501 25.2497 4
5 -7 4 167.263 21.0074 2
5 -7 -5 3.17556 7.95606 1
-5 -7 -5 -2.78892 5.90581 6
5 -7 5 2.81376 5.9584 5
5 -7 5 -10.8294 8.10726 2
-5 7 5 5.6048 5.93435 4
-5 8 0 -2.21299 5.54398 4
5 -8 0 -2.05404 5.50108 2
5 8 0 -2.38895 5.54087 3
5 -8 0 6.82761 5.11097 1
-5 -8 -1 199.637 21.2751 6
5 -8 -1 212.783 21.91 1
5 8 -1 230.452 24.5994 3
-5 8 -1 230.754 24.2175 3
5 -8 -1 209.628 22.0157 2
5 -8 1 216.774 17.5552 1
5 -8 1 246.913 22.8375 2
-5 8 1 187.744 21.0886 4
-5 8 -1 238.713 23.3743 4
5 8 1 184.53 21.2196 3
-5 8 2 -2.368 5.01373 4
-5 -8 -2 2.34283 5.43389 6
5 8 -2 -2.69585 5.10529 3
5 -8 2 6.32278 6.31074 2
-5 8 -2 -2.43843 5.65561 3
5 -8 -3 582.995 43.9073 1
-5 -8 -3 645.171 44.2145 6
-5 8 -3 686.669 42.7653 3
-5 8 3 667.294 43.9736 4
5 -8 3 662.956 42.5405 2
-5 -8 -4 381.283 34.0359 6
-5 8 -4 366.648 29.121 3
-5 8 4 346.401 31.8211 4
5 -8 5 473.22 39.5124 5
-5 8 5 531.968 41.3737 4
-5 9 0 -2.40457 5.09114 4
5 -9 0 -1.84739 3.91144 1
5 9 0 2.65567 5.6228 3
-5 9 0 2.83876 6.58412 3
-5 9 1 137.812 19.096 4
-5 -9 -1 159.46 19.2547 6
5 9 -1 134.451 20.2751 3
5 9 1 135.322 19.5735 3
-5 9 -1 135.361 20.1777 3
5 -9 -1 124.226 17.6445 1
-5 -9 -2 200.303 23.2937 6
5 9 -2 165.68 22.6597 3
-5 9 -2 175.126 22.8839 3
5 -9 -2 151.528 21.451 1
-5 9 3 109.386 17.736 4
-5 -9 -3 77.2194 15.5855 6
-5 9 -3 97.566 17.0861 3
5 -9 -3 103.161 19.0566 1
-5 9 4 111.777 19.1072 4
-5 9 -4 146.123 19.4571 3
-5 10 0 2.60676 6.04602 4
5 10 0 2.91595 6.17389 3
-5 10 0 -3.14893 5.9633 3
5 10 -1 1786.12 89.5273 3
5 10 1 1704.99 85.2097 3
-5 10 -1 1999.66 93.4703 3
-5 10 1 1768.45 90.7968 3
-5 10 1 1819.68 85.5271 4
5 -10 -1 1765.84 83.276 1
-5 10 2 105.616 17.4027 4
-5 -10 -2 76.4412 15.3711 6
5 -10 -2 122.013 19.2357 1
-5 10 -2 86.0727 17.8072 3
-5 10 2 133.758 22.4784 3
-6 0 0 10205.2 310.411 2
-6 0 0 9441.13 308.949 4
6 0 0 10161.2 311.645 2
-6 0 -1 0.72666 1.94611 4
6 0 -1 1.39197 4.3714 1
6 0 1 -0.94071 2.51938 2
6 0 1 0.35805 0.84757 5
-6 0 1 -0.80094 2.27517 4
6 0 1 -0.6543 1.85863 4
-6 0 -2 5199.33 174.421 1
6 0 -2 5372.36 184.391 1
6 0 2 5249.29 177.068 2
6 0 2 5221.97 169.708 5
-6 0 2 5473.37 168.575 5
-6 0 2 5488.46 176.176 4
6 0 -3 248.162 22.7444 1
-6 0 -3 267.648 11.5242 3
6 0 3 259.442 17.6001 5
-6 0 3 310.762 17.8426 5
6 0 4 2815.73 104.652 5
-6 0 4 2786.09 102.437 5
6 0 -4 2959.87 115.234 1
6 0 -5 658.413 44.2041 1
-6 0 -5 754.059 40.585 6
6 0 5 716.205 40.728 5
-6 0 5 681.802 38.4464 5
6 0 -6 722.057 47.7045 1
6 0 6 754.646 44.3428 5
-6 0 6 665.792 41.4641 5
-6 0 -6 756.493 41.9386 6
-6 0 -7 7.22023 4.52467 6
6 0 7 2.42748 5.14197 5
6 -1 0 70.6136 4.09408 5
-6 1 0 83.9873 8.63337 4
-6 -1 0 82.4683 6.90649 4
6 -1 -1 119.554 12.7845 1
6 -1 1 83.5465 6.26268 5
6 -1 -1 71.1393 5.58262 5
-6 1 -1 62.3673 7.97724 1
6 1 -1 78.7368 8.36168 2
6 1 1 91.003 7.2176 4
-6 -1 1 86.2216 7.77562 4
-6 1 1 75.9782 8.9207 4
-6 1 -1 97.036 9.41132 4
-6 -1 1 73.351 7.63973 2
6 1 1 94.6906 9.04123 2
6 1 2 1317.56 53.5133 2
6 -1 -2 1216 58.2123 1
6 -1 -2 1381.62 49.5709 5
-6 -1 2 1340.21 47.8916 5
6 1 2 1286.71 47.9207 5
-6 1 2 1303.1 55.4108 4
6 1 2 1390.79 49.1943 4
6 1 -2 1436.58 61.761 1
6 1 -3 392.144 28.9166 1
6 -1 -3 430.071 30.0114 1
6 -1 3 405.645 23.4861 5
-6 -1 3 420.761 22.5615 5
6 1 3 411.989 23.0234 5
6 1 -4 4.25299 5.32795 1
6 -1 4 2.86898 3.59466 5
-6 -1 4 7.7559 4.24082 5
6 1 4 -1.36259 3.87153 5
-6 1 4 3.91734 3.49811 5
6 -1 -4 4.33989 4.59515 1
6 1 -5 302.883 27.481 1
-6 -1 -5 355.046 26.15 6
6 -1 -5 301.213 27.8535 1
6 -1 5 283.32 23.7025 5
-6 -1 5 307.593 23.696 5
6 1 5 252.267 22.4495 5
-6 1 5 269.469 22.4601 5
-6 1 -6 8.41038 5.04172 6
-6 -1 -6 9.82541 5.58668 6
6 -1 6 8.75236 5.48629 5
-6 -1 6 2.02098 5.74533 5
6 1 6 8.50832 6.37312 5
-6 1 6 12.4197 6.50452 5
6 -1 -6 8.14071 7.27094 1
-6 -1 -7 171.703 19.0988 6
6 -1 7 178.483 21.7629 5
6 1 7 158.49 20.375 5
6 -2 0 1156.05 50.8497 1
6 2 0 1151.25 44.3899 2
-6 2 0 1208.1 50.6907 4
6 -2 0 1311.59 52.4146 2
-6 -2 0 1261.95 41.6359 4
-6 -2 1 1058.38 39.464 2
-6 2 -1 962.25 42.1505 1
-6 -2 -1 1038.68 42.4768 3
-6 -2 1 1047.71 35.8586 5
6 -2 -1 1099.94 39.2037 5
-6 -2 1 1064.71 38.7649 4
6 -2 -1 965.686 45.8451 2
-6 2 1 1018.88 45.7332 4
-6 2 -1 1062.12 45.7141 4
6 -2 1 1042.36 44.118 1
6 -2 1 998.189 46.1284 2
6 2 1 1048.05 40.2322 2
6 -2 2 1151.5 52.5265 2
6 2 2 1158.29 46.8826 2
-6 -2 2 1188.86 43.838 5
6 -2 -2 1206.26 45.5989 5
6 -2 -2 1318.37 57.1524 1
-6 2 2 1117.54 50.9815 4
6 2 2 1131.52 41.699 4
6 2 -3 73.7682 13.4129 1
-6 -2 3 80.8929 9.0981 5
6 -2 -3 94.1174 14.0823 1
6 -2 3 66.1192 9.16619 5
-6 2 3 97.1871 12.6701 4
6 -2 3 71.9759 11.4032 2
6 2 3 70.5638 7.5331 4
-6 2 -4 1199.54 39.912 3
6 -2 4 1200.52 54.8969 5
-6 -2 4 1287.65 54.044 5
6 -2 -4 1212.85 62.1587 1
6 2 4 1214.71 54.0459 5
6 2 -4 1228.57 61.956 1
6 -2 5 452.711 31.6101 5
6 -2 -5 454.258 35.792 1
-6 -2 5 464.624 30.5404 5
6 2 5 469.607 31.524 5
-6 -2 -5 492.031 33.2446 6
6 2 -5 443.919 34.7477 1
-6 -2 -6 1395.29 67.099 6
-6 2 -6 1440.33 61.9992 6
6 -2 -6 1324.34 72.46 1
6 -2 6 1365.19 67.9046 5
6 2 6 1402.84 67.7732 5
-6 -2 -7 130.428 17.7257 6
6 -2 7 132.014 18.9051 5
6 2 7 123.038 18.2084 5
6 -3 0 1142.2 48.9599 1
6 3 0 1136.91 39.451 2
6 -3 0 1100.48 50.5323 2
-6 3 0 1161.72 49.8732 4
-6 3 1 6.52889 4.10105 4
-6 3 -1 -1.27749 3.42173 4
6 -3 -1 1.39099 3.4851 2
6 -3 1 0.94654 2.53554 1
6 3 1 1.49464 1.70172 2
6 -3 1 2.70701 3.84517 2
6 -3 -1 2.09204 2.08872 5
-6 -3 1 2.60389 1.57607 4
-6 -3 2 237.093 14.0387 6
-6 -3 -2 239.549 19.5354 6
6 -3 2 252.808 20.5213 2
6 3 2 212.993 14.2153 2
-6 -3 2 232.443 14.9514 5
-6 -3 -2 229.504 14.8589 3
6 -3 -2 281.581 22.1521 1
-6 3 2 243.46 19.5449 4
6 3 2 234.288 10.3864 4
-6 -3 -3 515.529 31.9896 6
6 -3 3 439.034 31.4874 2
6 -3 3 509.015 29.1631 5
-6 -3 3 503.787 27.2236 5
6 -3 -3 466.031 32.7387 1
-6 3 3 500.549 32.3515 4
-6 -3 -4 7.7382 5.49662 6
-6 3 -4 1.82346 2.07851 3
6 -3 4 3.36943 3.56899 5
-6 -3 4 12.8172 5.72233 5
6 -3 4 6.17286 5.84614 2
6 -3 -4 6.76284 6.40468 1
-6 3 4 4.21261 4.88673 4
-6 -3 -5 295.291 26.4637 6
6 -3 5 368.31 30.4843 2
6 -3 5 300.225 25.9349 5
-6 -3 5 322.983 25.2207 5
6 -3 -5 317.454 29.6055 1
-6 3 5 335.956 29.2102 4
-6 -3 -6 2.27284 5.2822 6
6 -3 -6 23.5188 10.4209 1
6 -3 6 31.1417 9.89279 5
6 -3 -7 79.7403 16.592 1
-6 -3 -7 61.745 13.376 6
6 -3 7 100.882 17.2077 5
6 -4 0 5960.46 202.428 1
6 -4 0 6311.58 206.655 2
-6 4 0 5997.46 205.061 4
-6 -4 0 6297.63 203.02 6
-6 -4 1 284.897 18.1397 6
6 -4 1 255.417 17.382 1
-6 -4 -1 279.996 21.0912 6
6 -4 -1 307.321 22.3783 1
6 -4 -1 254.328 21.4546 2
6 4 1 286.717 11.1986 2
-6 4 1 320.514 22.673 4
-6 4 -1 234.563 19.7347 4
6 -4 1 240 20.5751 2
-6 -4 -2 4400.32 151.54 6
6 4 2 4169.23 136.617 2
-6 -4 2 4269.02 141.492 5
-6 4 2 4297.31 151.159 4
-6 4 -2 4145.93 149.167 4
6 -4 2 4210.35 151.02 2
-6 -4 -3 54.7229 10.5225 6
6 -4 -3 106.677 15.5994 1
6 -4 3 72.7666 10.7999 5
-6 -4 3 70.8881 10.0346 5
6 -4 3 96.6039 14.0051 2
-6 4 3 91.2151 13.3265 4
-6 -4 -4 1929.43 87.1576 6
6 -4 4 2204.58 90.79 2
-6 4 -4 2056.68 73.8918 3
6 -4 4 1994.85 85.2419 5
-6 -4 4 1949.73 81.3745 5
6 -4 -4 2026.22 91.35 1
-6 4 4 2167.08 91.1778 4
-6 -4 -5 359.319 30.0718 6
6 -4 5 434.839 34.1259 2
6 -4 5 415.679 32.0926 5
6 -4 -5 397.771 33.899 1
-6 4 5 359.841 31.7957 4
-6 -4 -6 548.496 39.4025 6
6 -4 6 598.289 43.5954 2
6 -4 6 532.779 38.9832 5
6 -4 -6 451.957 39.8554 1
-6 4 6 579.095 43.3862 4
-6 -5 0 9.32146 4.55534 6
6 -5 0 14.8822 6.64906 2
6 -5 0 7.75985 4.07175 1
6 -5 1 68.5304 8.56787 1
-6 5 1 77.3274 11.6865 4
-6 5 -1 50.0345 9.82226 4
-6 -5 -1 79.2366 11.2156 6
-6 -5 1 64.6226 8.69733 6
6 -5 -1 61.4337 11.0896 2
6 -5 -1 74.1923 11.3627 1
6 -5 1 79.36 12.178 2
6 5 2 941.579 34.4401 2
-6 -5 -2 1034.84 50.8561 6
-6 5 2 1049.99 51.6008 4
6 -5 -2 955.772 51.4428 1
6 -5 2 988.401 37.7559 1
6 -5 2 1072.93 51.9749 2
-6 -5 -3 237.275 22.842 6
-6 -5 3 242.848 19.5393 5
-6 5 -3 242.986 19.2456 3
-6 5 3 280.366 24.847 4
6 -5 3 224.628 22.6668 2
6 -5 -3 283.206 26.0646 1
6 -5 -4 2.63734 6.11702 1
6 -5 4 2.06613 5.17614 5
-6 5 -4 1.18175 3.16505 3
6 -5 4 -2.3616 5.91634 2
-6 5 4 2.42413 4.59079 4
6 -5 5 184.602 22.6942 2
6 -5 -5 177.511 23.827 1
6 -5 5 163.376 20.8286 5
-6 5 5 188.403 23.0217 4
-6 -5 -6 38.7122 10.6873 6
6 -5 6 32.5041 10.6105 5
6 -5 6 29.4706 11.5383 2
6 -5 -6 21.4834 9.67733 1
-6 5 6 24.128 10.3333 4
-6 -6 0 279.135 21.5269 6
6 -6 0 286.707 21.6221 1
6 -6 0 270.305 23.5383 2
-6 6 0 312.254 24.9611 4
-6 6 -1 9.45316 5.38077 4
-6 6 1 7.94025 4.98398 4
-6 -6 -1 10.5192 5.76015 6
6 -6 -1 26.054 8.9071 2
6 -6 1 11.0276 4.68144 1
6 -6 1 7.58458 6.2283 2
6 -6 -1 14.5324 6.44431 1
-6 -6 -2 678.192 41.2358 6
-6 6 2 745.619 43.6663 4
6 -6 -2 690.661 42.793 1
6 -6 2 715.309 42.1342 2
6 -6 2 691.493 28.6842 1
-6 -6 -3 235.215 23.3061 6
-6 6 -3 197.081 19.0313 3
-6 6 3 223.619 23.1279 4
6 -6 3 182.101 20.6481 2
-6 -6 -4 616.324 42.6336 6
6 -6 4 691.54 44.8248 2
6 -6 4 580.95 40.6065 5
-6 6 -4 719.867 37.3089 3
6 -6 -4 716.946 47.8129 1
-6 -6 -5 437.042 36.0376 6
6 -6 5 411.204 35.2232 5
6 -6 -5 470.251 40.1214 1
6 -6 6 894.458 56.2122 5
-6 -7 0 243.893 20.5615 6
6 7 0 237.569 23.6676 3
6 -7 0 217.069 19.5713 1
6 -7 0 213.216 22.0048 2
-6 7 0 167.262 19.7978 4
-6 7 -1 8.49688 6.04373 4
-6 -7 -1 5.70784 5.1069 6
6 -7 -1 19.6921 8.79638 2
6 -7 1 8.2787 5.88904 2
6 7 1 10.4064 6.24125 3
6 -7 1 14.3722 5.33011 1
6 -7 -1 22.0258 7.59154 1
-6 -7 -2 278.275 25.3003 6
6 -7 2 272.058 25.3371 2
6 -7 -2 298.486 27.2394 1
-6 7 -3 291.883 25.1712 3
6 -7 -3 245.883 26.6322 1
6 -7 3 308.285 27.4898 2
-6 -7 -3 242.752 25.1428 6
-6 7 4 13.7615 8.24119 4
-6 -7 -4 -2.65892 5.03534 6
6 -7 4 -2.49429 5.78517 5
-6 7 -4 -1.75645 3.7189 3
6 -7 4 2.5251 5.34634 2
-6 -7 -5 182.346 23.1919 6
6 -7 -5 179.398 25.5305 1
6 -7 5 157.306 21.9356 5
6 -7 5 176.227 23.6973 2
-6 7 5 193.661 24.5239 4
6 8 0 2434.34 104.73 3
6 -8 0 2407.81 96.0766 1
6 -8 0 2379.72 101.59 2
-6 8 0 2391.38 102.58 4
-6 -8 -1 374.755 29.7916 6
6 8 1 428.765 33.31 3
6 -8 -1 342.276 30.0502 2
6 -8 1 353.212 29.7077 2
6 -8 -1 437.569 32.5873 1
-6 8 1 442.034 33.7399 4
-6 -8 -2 2090.81 94.8456 6
-6 8 -2 2374.52 97.8962 3
6 -8 2 2187.58 95.2498 2
-6 8 2 2117.91 96.4305 4
6 -8 -2 2140.7 97.2762 1
-6 8 3 8.11622 7.24858 4
6 -8 -3 5.90495 7.91001 1
-6 -8 -3 2.68074 6.22115 6
6 -8 3 7.46469 7.07125 2
-6 8 -3 11.5088 6.89533 3
-6 -8 -4 944.779 60.3182 6
6 -8 4 1122.54 62.3323 5
-6 8 4 1139.8 64.2346 4
6 -8 -4 1050.42 65.2548 1
6 -8 4 1140.72 62.0133 2
6 9 0 267.797 28.1871 3
-6 9 0 282.95 27.7296 4
-6 9 1 2.64292 6.62145 4
-6 -9 -1 2.357 5.46724 6
6 9 1 2.59862 6.51048 3
6 -9 -1 2.33718 4.94903 1
-6 9 2 113.475 18.5271 4
6 -9 -2 143.376 20.7798 1
-6 -9 -2 146.427 20.5604 6
-6 9 -2 132.943 20.3696 3
-6 9 3 162.159 22.2081 4
-6 -9 -3 134.763 21.0997 6
-6 9 -3 124.404 18.5388 3
6 -9 -3 93.6922 18.6167 1
-6 10 0 209.838 25.0556 4
-6 10 1 19.3566 9.09122 4
-6 10 -1 22.2168 10.8532 3
6 -10 -2 297.702 30.5397 1
-7 0 0 0.84637 2.1205 4
7 0 0 1.03864 2.9505 2
7 0 -1 4009.13 135.472 2
-7 0 1 3809.63 132.058 4
-7 0 -1 4134.74 131.687 4
7 0 -1 3869.46 142.047 1
7 0 1 3872.36 134.242 2
7 0 2 91.2262 11.0694 2
7 0 -2 96.7044 13.7849 1
7 0 2 90.8192 7.27996 5
-7 0 2 77.2635 9.70133 4
7 0 3 4692.24 152.931 2
-7 0 -3 4160.73 135.931 3
7 0 3 4369.33 143.922 5
7 0 -3 4376.19 159.78 1
7 0 -4 559.046 40.0505 1
7 0 4 643.061 33.9618 5
7 0 -5 650.711 44.1579 1
7 0 5 548.994 34.321 5
-7 0 -6 187.257 20.4194 6
7 0 -6 270.977 28.5238 1
7 0 6 247.684 23.4434 5
-7 0 -7 630.907 38.9256 6
7 0 7 579.069 39.9865 5
-7 1 0 2.06124 2.76027 4
-7 -1 0 -1.9514 2.30463 4
7 -1 0 4.35447 4.76105 1
7 1 0 -0.88502 2.90301 2
7 -1 -1 398.355 28.1991 1
7 -1 -1 459.236 17.0352 5
7 -1 1 436.682 17.3474 5
7 1 -1 403.794 23.5508 2
7 1 1 467.959 21.2368 4
-7 -1 1 443.985 22.289 4
-7 1 1 500.707 26.2645 4
-7 1 -1 483.296 25.3786 4
7 1 1 374.171 22.5612 2
7 1 2 35.7762 5.36434 4
7 1 -2 25.717 8.22466 1
7 -1 -2 34.4819 4.91058 5
7 -1 2 30.5016 4.76043 5
7 1 2 43.4119 7.24339 2
7 -1 -2 35.3652 8.69078 1
-7 -1 2 30.4623 5.93163 4
-7 1 2 27.257 6.69204 4
7 1 3 315.186 22.1221 2
7 -1 -3 326.818 27.0625 1
-7 -1 -3 280.654 13.3579 3
7 -1 3 297.213 19.0365 5
7 1 3 259.967 17.1862 5
-7 1 3 334.889 24.072 4
7 1 -3 338.914 27.796 1
7 -1 -4 219.247 23.7166 1
7 -1 4 198.441 17.3134 5
7 1 4 172.577 15.645 5
7 1 -4 153.853 20.2498 1
-7 -1 -5 -2.01334 5.04404 6
7 -1 5 1.76057 3.72791 5
7 1 5 1.68869 4.52285 5
7 -1 -5 2.73272 6.33834 1
-7 1 -6 26.3525 8.43184 6
-7 -1 -6 38.8025 10.0599 6
7 -1 6 49.5734 11.4161 5
7 1 6 40.9687 9.76021 5
7 -1 -6 32.8186 11.6996 1
-7 -1 -7 23.496 8.36795 6
7 -1 7 16.6024 7.81048 5
7 1 7 32.9418 9.98802 5
-7 2 0 2.41367 3.02337 4
-7 -2 0 0.87109 1.64965 4
7 2 0 -0.73886 2.21238 2
7 -2 0 1.36477 3.8768 1
7 -2 0 -0.39723 1.45674 5
7 -2 -1 1338.5 47.7605 5
7 -2 -1 1299.31 58.049 2
-7 -2 1 1328.82 49.0045 4
-7 2 1 1313.31 56.7698 4
-7 2 -1 1322.91 56.1789 4
7 2 1 1394.11 51.721 2
7 -2 1 1483.85 59.7745 2
7 -2 2 266.184 21.2623 2
7 2 2 258.405 17.3826 2
-7 -2 -2 263.4 15.8569 3
7 -2 -2 260.895 22.592 1
7 -2 -2 232.032 14.779 5
-7 -2 2 244.496 15.9599 4
-7 2 2 232.023 19.2159 4
7 2 2 250.247 13.3673 4
7 -2 3 1950.65 83.7339 2
7 2 3 2019.45 78.3813 2
7 -2 -3 2179.42 89.721 1
7 -2 3 2034.31 77.1751 5
-7 2 3 2069.04 84.488 4
7 -2 4 168.009 19.0434 2
7 -2 -4 166.631 20.2888 1
7 -2 4 120.613 13.7595 5
-7 2 4 143.5 17.9192 4
-7 -2 -5 850.775 50.1707 6
7 -2 5 975.009 54.6762 2
7 -2 -5 942.034 56.4196 1
7 -2 5 883.221 47.9823 5
7 2 5 944.207 48.1092 5
-7 2 5 1052.49 56.1498 4
-7 2 -6 258.246 22.591 6
-7 -2 -6 297.352 26.6417 6
7 -2 6 267.391 28.3628 2
7 -2 -6 294.211 30.3699 1
7 -2 6 256.707 24.5193 5
-7 -2 -7 970.327 54.8798 6
7 -2 7 1039.58 58.2066 5
-7 3 0 -1.39452 3.49357 4
7 3 0 1.54528 1.68958 2
7 -3 0 -1.49888 4.25777 2
7 -3 0 1.37836 3.45307 1
7 -3 -1 600.135 35.3776 1
7 -3 -1 659.424 28.0472 5
7 -3 -1 591.435 35.1349 2
-7 3 1 598.682 34.1561 4
7 3 1 637.552 26.8756 2
-7 3 -1 615.202 34.4255 4
7 -3 1 663.462 35.9851 2
7 -3 1 618.218 32.0845 1
-7 -3 -2 307.525 23.8249 6
7 3 2 319.865 18.5779 2
7 -3 2 317.969 19.6706 5
7 -3 -2 369.449 27.9722 1
7 -3 -2 321.103 25.1429 2
-7 3 2 313.965 23.7011 4
7 -3 2 292.905 23.7667 2
-7 -3 -3 80.6731 12.671 6
7 -3 3 90.3848 11.1678 5
7 -3 -3 80.7692 13.8187 1
7 -3 3 99.5766 14.5256 2
7 3 3 69.7506 9.48107 2
-7 3 3 74.5779 12.3876 4
7 -3 -4 5.13132 6.42749 1
7 -3 4 -1.65439 4.14459 5
-7 3 -4 -0.61832 1.94183 3
7 -3 4 -2.2299 5.17196 2
-7 3 4 6.73465 6.01219 4
-7 -3 -5 30.0896 9.3138 6
7 -3 -5 19.8617 8.92681 1
7 -3 5 19.4241 6.90269 5
7 -3 5 2.5829 6.9383 2
-7 3 5 28.5753 9.54173 4
-7 -3 -6 192.258 22.5102 6
7 -3 6 207.562 26.0809 2
7 -3 -6 204.714 26.3114 1
7 -3 6 219.858 23.0908 5
-7 3 6 219.746 25.8951 4
-7 4 0 -1.58933 3.98158 4
-7 -4 0 1.37604 3.44726 6
7 -4 0 -1.67176 4.47726 2
7 -4 0 1.386 2.93456 1
-7 -4 -1 3465.08 124.768 6
-7 -4 1 3431.22 118.392 6
7 -4 1 3305.47 118.02 1
7 -4 -1 3242.16 124.859 1
7 -4 -1 3365.97 126.27 2
7 4 1 3389.49 106.765 2
-7 4 1 3331.43 124.435 4
-7 4 -1 3370.97 124.162 4
7 -4 1 3652.54 127.3 2
7 -4 -2 156.927 18.2447 2
-7 4 2 175.901 18.2995 4
-7 -4 -2 201.674 19.2627 6
-7 4 -2 183.641 18.0532 4
7 -4 2 204.322 20.0119 2
7 4 2 159.631 11.2789 2
7 -4 3 2043.57 87.2995 2
-7 -4 -3 2074.63 87.3184 6
7 4 3 1822.67 72.2468 2
7 -4 3 1962.46 79.4491 5
7 -4 -3 2170.95 91.1973 1
-7 4 3 2146.56 87.8465 4
7 -4 4 274.93 26.3356 2
-7 -4 -4 271.149 25.4088 6
7 -4 4 271.856 23.3172 5
-7 4 -4 260.095 17.0327 3
7 -4 -4 311.285 28.9938 1
-7 4 4 292.983 27.1187 4
7 -4 5 916.321 54.2212 2
7 -4 5 848.27 49.0584 5
7 -4 -5 882.831 55.9043 1
-7 4 5 826.307 52.9927 4
-7 -4 -6 249.316 26.6786 6
7 -4 6 248.414 28.5601 2
7 -4 6 304.597 28.0027 5
7 -4 -6 321.949 33.2601 1
-7 4 6 367.808 33.5994 4
-7 5 0 -1.81803 3.44299 4
-7 -5 0 2.99887 3.75646 6
7 -5 0 -1.47701 4.19571 1
7 -5 0 -1.84034 4.61048 2
-7 -5 -1 265.464 22.3481 6
-7 -5 1 273.931 19.0865 6
7 -5 1 244.028 18.289 1
7 -5 -1 223.298 21.0848 1
7 -5 -1 246.365 23.1961 2
-7 5 1 275.037 23.5752 4
7 -5 1 278.804 24.1252 2
-7 5 -1 293.918 23.7403 4
-7 5 2 4.10048 4.75588 4
-7 -5 -2 2.01345 4.26373 6
7 -5 2 2.00964 5.3827 2
7 -5 -2 2.09848 4.86773 1
-7 -5 -3 246.136 24.4832 6
7 5 3 276.25 16.2991 2
7 -5 3 247.63 21.6565 5
-7 5 3 327.023 27.8213 4
7 -5 3 260.816 24.7693 2
7 -5 4 273.277 27.0976 2
-7 -5 -4 258.376 25.4597 6
7 -5 4 227.466 22.8038 5
-7 5 -4 231.586 17.7414 3
7 -5 -4 262.988 27.3661 1
-7 5 4 289.697 27.405 4
7 -5 5 14.1249 8.03863 5
7 -5 5 2.8091 7.03915 2
7 -5 -5 6.03595 7.56229 1
-7 5 5 2.86723 5.43215 4
-7 -5 -6 2.72213 6.31552 6
7 -5 6 12.7827 8.03013 5
-7 5 6 3.1262 5.92229 4
-7 6 0 -2.04891 3.88117 4
-7 -6 0 -1.61267 4.04106 6
7 -6 0 2.08425 4.83497 2
7 -6 0 -4.77953 4.77127 1
-7 -6 -1 1000.42 51.1979 6
7 -6 1 953.985 44.0225 1
7 -6 -1 977.573 50.9397 1
7 -6 -1 1010.31 54.4317 2
7 -6 1 1017.41 53.4234 2
-7 6 1 1005.69 53.9435 4
-7 6 -1 942.543 51.4378 4
-7 6 2 40.9325 10.6335 4
7 -6 -2 48.6364 11.2622 1
-7 -6 -2 41.1029 10.3294 6
7 -6 2 48.3391 11.0904 2
-7 -6 -3 441.79 34.6327 6
7 -6 -3 480.385 37.3511 1
-7 6 3 460.92 35.5518 4
7 -6 3 503.202 36.357 2
7 -6 4 254.125 24.6042 5
7 -6 -4 288.026 29.4167 1
-7 6 4 279.931 27.7122 4
7 -6 4 246.78 26.2187 2
7 -6 5 1419.95 75.1188 2
-7 -6 -5 1321.97 72.4521 6
7 -6 5 1448.22 72.9111 5
7 -6 -5 1529.24 79.1935 1
-7 6 5 1409.57 75.6105 4
-7 7 0 -2.35079 5.88937 4
-7 -7 0 -1.70656 4.2755 6
7 -7 0 2.32135 5.81562 2
7 -7 0 -1.67372 3.88221 1
-7 -7 -1 321.591 26.6401 6
7 -7 1 317.849 21.4282 1
7 -7 -1 325.673 27.2966 1
7 -7 -1 345.696 29.9003 2
7 -7 1 300.981 27.3078 2
-7 7 1 298.436 27.8777 4
-7 7 -1 338.816 28.6608 4
-7 7 2 56.4143 13.0445 4
-7 -7 -2 76.5737 13.7306 6
7 -7 -2 91.3539 16.4519 1
7 -7 2 83.8284 15.2114 2
-7 -7 -3 108.35 17.5034 6
7 -7 -3 145.436 21.3062 1
7 -7 3 113.38 17.9259 2
-7 7 -3 135.807 17.3925 3
-7 -7 -4 33.2562 10.8543 6
7 -7 4 29.646 10.4975 5
7 -7 4 24.3435 9.95718 2
7 -7 5 2.76866 5.86261 5
7 -8 0 -2.49969 6.69487 2
7 -8 0 -1.78198 3.77346 1
-7 -8 -1 1871.62 83.4665 6
7 -8 -1 1944.08 84.6666 1
7 -8 -1 1794.59 86.3836 2
7 -8 1 1875.23 86.6747 2
-7 -8 -2 149.103 19.7497 6
-7 8 -2 166.075 20.8903 3
7 -8 2 161.744 21.0393 2
7 -8 -2 187.962 23.0274 1
-7 -8 -3 676.013 47.0913 6
-7 8 -3 789.45 47.139 3
7 -8 -3 671.153 49.5693 1
-7 8 3 739.095 49.7573 4
7 -8 3 644.724 45.8734 2
-7 8 4 63.3841 15.2464 4
7 -8 4 78.1161 15.9679 2
7 -8 4 55.6072 13.1715 5
-7 9 0 -2.73283 5.78623 4
7 -9 0 2.68212 7.18323 2
7 -9 -1 192.387 22.0961 1
-7 9 -1 157.158 22.3411 3
7 -9 1 187.402 23.432 2
-7 9 1 214.079 25.3816 4
-7 9 -1 174.511 22.3254 4
-7 9 2 77.7147 16.0045 4
7 -9 -2 84.6273 16.7881 1
-7 -9 -2 43.6261 12.2572 6
-7 9 -2 61.8926 14.47 3
-7 9 -3 25.1739 9.56474 3
8 0 0 3087.86 109.976 2
-8 0 0 3081.76 106.594 4
-8 0 1 5.30448 3.34001 4
8 0 -1 5.91796 5.60853 1
-8 0 -1 15.5878 4.43036 4
8 0 -1 3.98426 4.3626 2
8 0 1 10.1244 4.94641 2
8 0 2 236.331 11.284 5
-8 0 2 245.281 18.6241 4
8 0 -2 211.463 21.9356 1
8 0 2 247.014 19.5313 2
8 0 -3 7.21468 6.44458 1
8 0 3 8.16558 3.28791 5
8 0 3 3.33643 4.74403 2
-8 0 3 10.9385 5.54078 4
8 0 -4 1251.33 68.5117 1
8 0 4 1194.7 61.3891 2
8 0 4 1370.34 55.956 5
-8 0 4 1466.96 64.1991 4
8 0 -5 14.732 9.25904 1
8 0 5 11.1627 5.24141 5
8 0 5 9.29978 6.61284 2
8 0 -6 1024.56 62.5536 1
-8 0 -6 978.249 53.8747 6
8 0 6 1070.45 59.8048 2
8 0 6 892.714 49.9216 5
-8 0 -7 4.32917 4.58488 6
-8 1 0 36.9894 7.03699 4
-8 -1 0 43.6235 6.1511 4
8 -1 0 41.4508 9.47928 1
8 1 0 39.076 6.97147 2
8 -1 0 50.8292 8.42464 2
-8 -1 1 52.8198 6.97099 4
-8 1 1 40.8256 7.49902 4
-8 1 -1 42.0637 7.26334 4
8 1 -1 27.4981 6.05439 2
8 -1 -1 41.0103 8.16945 2
8 1 1 28.8924 6.24417 2
8 -1 1 46.7424 8.56143 2
8 -1 -2 2.10121 4.87482 1
8 -1 2 2.1773 1.71328 5
8 -1 2 1.56037 3.91072 2
8 1 2 7.68825 4.37614 2
-8 -1 2 7.66671 3.74094 4
-8 1 2 12.5484 4.17643 4
8 1 -3 53.2744 12.3949 1
8 -1 3 77.5963 8.74576 5
8 -1 -3 79.4162 13.8037 1
8 -1 3 67.6189 11.5053 2
8 1 3 56.3196 9.74742 2
-8 -1 3 60.437 9.69223 4
-8 1 3 49.3777 9.59093 4
8 1 -4 8.36619 7.00006 1
8 -1 4 14.5087 5.01482 5
8 1 4 17.9944 5.46519 5
8 -1 -4 13.5781 7.72654 1
8 -1 4 8.5152 6.063 2
8 1 4 14.7219 6.05203 2
-8 1 4 26.6564 8.01725 4
-8 -1 -5 404.103 31.4812 6
8 -1 -5 420.672 36.7849 1
8 -1 5 460.326 35.019 2
8 1 5 426 32.5612 2
8 -1 5 412.477 28.5986 5
8 1 5 405.442 27.5043 5
-8 1 5 386.092 32.2936 4
8 1 -5 417.255 37.0172 1
-8 1 -6 -2.07798 4.81964 6
-8 -1 -6 7.02848 6.65514 6
8 -1 -6 3.18187 8.52162 1
8 -1 6 -1.98275 4.1981 5
8 1 6 -1.94002 4.49966 5
8 -1 6 -2.80321 7.02263 2
-8 1 6 2.76771 5.86005 4
8 -2 0 4283.64 139.674 5
8 2 0 4791.11 149.317 2
-8 2 0 5044.19 156.69 4
8 -2 0 4559.57 159.096 1
-8 2 1 21.3304 6.35157 4
-8 2 -1 15.0444 5.53565 4
8 2 1 19.1737 4.76497 2
8 -2 1 28.7274 4.04945 5
8 -2 -1 22.6589 3.52407 5
8 -2 -2 3500.46 132.925 1
-8 -2 2 3414.02 117.535 4
-8 2 2 3399.11 125.819 4
8 2 2 3543.34 120.524 2
8 -2 3 25.7028 5.61899 5
8 2 3 23.3291 6.42232 2
8 -2 -3 42.9225 11.3215 1
-8 -2 3 31.3204 6.96915 4
-8 2 3 29.8981 8.52809 4
-8 -2 -4 1422.88 69.1284 6
8 2 4 1596.19 66.7347 2
8 -2 -4 1434.46 74.5455 1
8 -2 4 1446.23 62.0833 5
-8 2 4 1430.74 69.7233 4
-8 -2 -5 9.37986 6.28021 6
8 -2 5 -1.74253 4.04155 5
8 -2 -5 -2.98305 6.91877 1
-8 2 5 2.56992 4.86679 4
-8 -2 -6 1091.75 62.1597 6
8 -2 -6 1322.24 72.6873 1
8 -2 6 1222.15 60.6489 5
-8 2 6 1292.26 69.7548 4
-8 2 -6 1170.4 59.0912 6
-8 3 0 -1.54895 3.28086 4
8 3 0 5.87382 2.62348 2
8 -3 0 5.09509 4.82531 2
8 -3 0 9.49981 5.4062 1
8 -3 -1 523.73 34.1372 1
8 -3 -1 508.452 33.4104 2
-8 3 1 528.439 32.5905 4
8 3 1 529.472 25.1134 2
8 -3 1 606.302 32.8004 1
8 -3 1 602.878 35.6251 2
-8 3 -1 513.985 31.7479 4
-8 3 2 10.8251 5.66671 4
8 -3 2 0.96178 2.4113 5
8 -3 2 1.84266 4.27485 2
8 3 2 8.26357 3.7908 2
8 -3 -3 2.41798 5.60827 1
-8 -3 -3 -6.17301 4.77258 6
8 -3 3 1.26044 3.37582 5
8 -3 3 2.12193 4.49281 2
8 3 3 -1.20478 3.60758 2
-8 3 3 4.00236 5.01344 4
8 -3 -4 2.72647 5.77271 1
-8 -3 -4 -2.28622 4.32955 6
8 -3 4 3.1199 4.43126 5
8 -3 4 2.41086 5.59169 2
8 3 4 -1.52907 4.09513 2
-8 3 4 -2.35964 6.31952 4
-8 -3 -5 197.082 22.6785 6
8 -3 5 199.932 23.7604 2
8 -3 -5 212.233 25.9872 1
8 -3 5 213.854 20.5553 5
-8 3 5 156.198 21.38 4
-8 -3 -6 5.1857 7.367 6
8 -3 6 10.7144 7.03055 5
8 -3 6 9.05366 8.08394 2
8 -3 -6 -3.23525 6.85172 1
-8 3 6 6.02681 8.5614 4
-8 -4 0 1049.76 48.8598 6
8 -4 0 950.284 48.0396 1
8 -4 0 949.689 50.4909 2
-8 4 0 985.557 49.7651 4
-8 4 1 -1.85772 4.65849 4
-8 4 -1 7.07979 5.03195 4
-8 -4 -1 1.80441 4.52505 6
-8 -4 1 7.75036 4.41474 6
8 4 1 7.50363 2.25306 2
8 -4 1 12.3108 5.49892 1
8 -4 -1 7.87136 5.27421 2
8 -4 1 13.5976 7.80625 2
8 -4 -1 11.1396 6.09322 1
-8 -4 -2 531.327 34.287 6
8 -4 -2 468.772 33.9692 1
8 -4 -2 409.776 32.2315 2
-8 4 2 470.596 32.859 4
8 4 2 477.197 22.465 2
8 -4 2 442.02 32.6916 2
-8 -4 -3 4.45509 5.58055 6
8 -4 -3 5.08225 5.89389 1
8 -4 3 1.46404 3.39581 5
8 -4 3 2.23051 5.97379 2
8 4 3 2.03431 3.04584 2
-8 4 3 -2.22916 4.22161 4
-8 -4 -4 975.617 55.425 6
8 -4 4 956.458 55.6339 2
8 4 4 871.565 43.6101 2
8 -4 4 977.218 49.0911 5
8 -4 -4 932.8 57.5772 1
-8 4 4 1072.98 57.6321 4
8 -4 -5 3.09741 7.76068 1
8 -4 5 4.02182 5.03936 5
8 -4 5 2.84372 7.12523 2
8 4 5 6.76957 5.31639 2
-8 4 5 2.84052 6.58945 4
-8 -4 -6 502.978 39.6704 6
8 -4 6 552.355 38.2046 5
-8 5 0 57.6844 10.9383 4
-8 -5 0 48.5363 9.51229 6
8 -5 0 61.8573 11.4971 2
8 -5 0 48.9603 9.66056 1
-8 5 1 -2.10455 4.45593 4
-8 5 -1 3.97131 5.64051 4
8 -5 -1 11.753 6.42511 1
-8 -5 -1 1.94592 4.12007 6
8 -5 -1 -2.17914 5.05423 2
8 -5 1 -1.32805 3.55676 1
8 -5 1 -2.11876 4.91418 2
-8 5 2 4.44566 5.57438 4
-8 -5 -2 10.9658 6.57183 6
8 -5 -2 4.69031 5.88052 1
8 -5 2 19.9233 8.12209 2
-8 5 3 96.0095 15.5312 4
-8 -5 -3 84.2362 14.8493 6
8 -5 3 92.4766 13.0305 5
8 -5 3 92.6981 15.1804 2
-8 -5 -4 10.378 6.95969 6
8 -5 4 11.9467 6.26536 5
8 -5 -4 11.9905 8.98436 1
8 -5 4 10.5848 7.52717 2
-8 5 4 27.0069 9.91191 4
8 -5 5 364.612 34.7018 2
-8 -5 -5 330.02 31.648 6
8 -5 5 405.813 31.5168 5
8 -5 -5 326.794 33.8154 1
-8 5 5 380.262 33.866 4
8 -5 6 2.39825 5.07828 5
-8 -6 0 1334.19 61.1869 6
8 -6 0 1274.95 59.8166 1
8 -6 0 1275.54 65.8004 2
-8 6 0 1426.12 67.7711 4
-8 6 1 6.93804 5.79527 4
-8 6 -1 8.82402 5.90957 4
-8 -6 -1 14.3971 6.74753 6
8 -6 -1 2.43066 6.51109 2
8 -6 -1 10.5234 6.61095 1
8 -6 1 2.30874 4.89008 2
8 -6 1 1.33782 3.35418 1
-8 -6 -2 3239.17 127.697 6
8 -6 -2 3277.26 129.314 1
-8 6 2 3114.95 128.283 4
8 -6 2 3147.86 127.984 2
-8 6 3 -2.65595 5.02972 4
-8 -6 -3 -2.56685 4.861 6
8 -6 3 1.9015 4.76364 5
8 -6 3 2.54436 5.38714 2
-8 6 -3 3.48479 5.21724 3
8 -6 -3 2.7703 5.8655 1
8 -6 4 848.241 50.1774 5
-8 -6 -4 946.901 56.666 6
-8 6 4 971.698 58.2757 4
8 -6 4 970.53 56.9519 2
-8 -6 -5 -2.88344 6.10555 6
8 -6 5 -2.41558 6.05202 5
-8 6 5 -3.10921 7.21181 4
8 -7 0 1.76955 4.10429 1
-8 7 0 -2.51645 6.30425 4
8 -7 0 -2.53767 6.79635 2
-8 7 1 110.042 17.1277 4
-8 7 -1 95.5321 15.755 4
-8 -7 -1 123.832 16.6765 6
8 -7 -1 128.066 18.6642 2
8 -7 1 96.5482 16.4246 2
8 -7 -1 129.086 17.5804 1
-8 7 2 2.73207 5.7846 4
-8 -7 -2 2.46329 6.59716 6
8 -7 2 -5.17725 6.93282 2
8 -7 -2 -2.57442 5.97107 1
-8 7 3 17.1306 8.55984 4
-8 -7 -3 10.8982 8.16942 6
8 -7 3 19.0631 8.56318 2
-8 7 -3 18.0705 7.37579 3
8 -7 -3 5.84334 8.31055 1
-8 7 4 3.04487 6.44733 4
-8 -7 -4 17.3193 8.64351 6
8 -7 4 2.36057 5.91424 5
8 -7 4 2.85829 7.65541 2
8 -7 -4 -3.23847 8.1134 1
8 -8 0 144.83 21.0438 2
-8 8 0 159.951 21.3533 4
-8 8 1 16.6455 8.72586 4
-8 8 -1 24.4319 9.9671 4
8 -8 -1 11.0666 8.29839 2
8 -8 1 21.5095 9.19205 2
8 -8 -1 11.7151 7.3741 1
-8 -8 -2 457.536 36.1643 6
-8 8 -2 441.952 35.1744 3
8 -8 -2 435.184 36.3648 1
8 -8 2 454.591 37.0237 2
-8 -8 -3 11.4136 9.36158 6
8 -8 3 17.054 8.92847 2
-8 8 -3 23.0919 9.0175 3
8 -8 -3 -3.07487 7.70583 1
8 -9 0 2.88989 8.6536 2
-8 9 1 114.144 19.2401 4
8 -9 1 138.95 21.3079 2
-8 9 -2 2.77285 6.94706 3
8 -9 -2 2.82243 5.97647 1
-9 0 0 1.10005 2.94613 4
9 0 0 -1.40208 3.75502 2
9 0 -1 3012.74 115.896 2
-9 0 1 3100.48 112.448 4
9 0 1 3411.11 117.733 2
-9 0 -1 3252.74 112.048 4
9 0 -2 10.0199 7.12305 1
9 0 2 15.4194 6.20282 2
-9 0 2 8.11568 4.97092 4
9 0 3 2745.08 105.105 2
-9 0 3 2619.72 102.196 4
9 0 -3 2630.3 114.879 1
9 0 4 312.231 26.6205 2
9 0 4 297.655 19.3885 5
-9 0 4 324.272 26.3903 4
9 0 -4 265.018 29.3972 1
9 0 5 777.043 47.9582 2
-9 0 5 745.443 46.5608 4
9 0 -5 721.334 52.6034 1
-9 0 -6 14.3104 7.49522 6
9 0 -6 10.4402 9.32432 1
9 0 6 2.8047 7.51654 2
-9 0 6 21.8131 10.3308 4
-9 1 0 -1.31094 3.51098 4
9 1 0 1.26589 3.17137 2
9 -1 0 7.77401 5.09991 2
-9 1 -1 70.1236 10.1653 4
9 1 -1 81.1511 10.9884 2
9 -1 -1 109.39 14.0901 2
-9 1 1 122.643 13.2261 4
9 1 1 104.43 11.9251 2
9 -1 1 102.665 13.4867 2
-9 1 2 41.858 8.80754 4
9 -1 -2 52.1919 12.3909 1
9 -1 2 46.5426 3.93334 5
9 -1 2 70.057 11.4202 2
9 1 2 63.7552 9.84268 2
-9 -1 2 43.2098 7.72166 4
9 -1 3 169.992 18.9625 2
9 1 3 207.407 19.158 2
9 -1 -3 238.277 25.2408 1
9 -1 3 182.447 12.9776 5
-9 -1 3 188.725 17.1689 4
-9 1 3 209.926 20.1527 4
9 -1 4 157.34 19.6066 2
9 1 4 193.127 19.9023 2
9 -1 4 149.655 13.9673 5
9 -1 -4 138.78 21.0455 1
-9 -1 4 140.233 16.6494 4
9 1 -4 197.41 25.9275 1
-9 1 4 121.451 16.6501 4
9 1 -5 6.72038 8.99976 1
-9 -1 -5 -2.40172 5.57142 6
9 -1 -5 3.20126 7.42562 1
9 -1 5 10.3707 7.76388 2
9 1 5 11.5778 7.27257 2
-9 -1 5 2.21891 5.94353 4
-9 1 5 5.05095 5.85842 4
-9 1 -6 81.549 14.5308 6
-9 -1 -6 95.4546 16.0511 6
9 -1 -6 121.928 21.2357 1
9 -1 6 105.194 18.3819 2
9 1 6 84.2331 16.0377 2
-9 1 6 125.896 20.1267 4
-9 2 0 -1.51698 3.80036 4
9 -2 0 1.91805 4.44867 1
9 2 0 -1.07206 3.04536 2
9 -2 0 1.72673 4.32583 2
9 -2 -1 801.049 42.5447 1
9 -2 -1 700.293 38.156 2
-9 2 1 777.378 37.5242 4
-9 2 -1 745.19 36.3355 4
-9 2 2 187.099 18.5602 4
9 2 2 201.927 16.4578 2
9 2 3 1016 47.2166 2
9 -2 -3 969.337 56.9037 1
9 -2 3 966.742 41.1255 5
-9 2 3 954.748 50.5554 4
9 -2 3 908.398 51.0639 2
-9 -2 -4 11.6532 6.25042 6
9 -2 4 9.01238 4.57313 5
9 -2 4 21.9196 8.63495 2
9 -2 -4 5.96159 6.31966 1
9 2 4 12.4098 7.12944 2
-9 2 4 11.5365 7.25334 4
-9 -2 -5 819.044 50.4385 6
9 -2 5 821.536 52.1807 2
9 2 5 906.563 49.3427 2
9 -2 -5 844.751 56.2514 1
9 -2 5 793.217 42.7163 5
-9 2 5 786.7 50.7354 4
-9 -2 -6 272.082 28.034 6
9 -2 6 259.906 29.0581 2
9 -2 -6 316.944 33.5944 1
9 2 6 255.084 26.5121 2
-9 2 6 264.027 29.3832 4
-9 3 0 1.71916 3.98736 4
9 -3 0 -1.83265 4.25059 1
9 -3 -1 206.851 21.0194 1
9 3 1 179.315 13.4307 2
-9 3 1 205.724 19.6962 4
9 -3 1 162.961 18.7821 2
-9 3 -1 187.975 18.3116 4
9 -3 2 135.575 11.5186 5
-9 3 2 173.19 18.546 4
9 3 2 141.114 12.6698 2
9 -3 2 126.845 16.6422 2
-9 -3 -3 -2.24608 4.2536 6
9 -3 3 1.15483 3.09294 5
9 -3 3 6.70509 6.69237 2
9 3 3 1.27287 4.17521 2
9 -3 -3 -2.67068 5.05769 1
-9 3 3 2.17078 4.59624 4
-9 -3 -4 27.143 9.39615 6
9 -3 4 41.7304 8.67198 5
9 -3 4 46.1808 12.6603 2
9 3 4 29.9338 7.6683 2
9 -3 -4 20.7083 10.1463 1
-9 3 4 31.7646 9.58864 4
9 -3 5 65.6488 11.1556 5
9 3 5 78.8741 12.908 2
9 -3 -5 51.6888 14.8069 1
-9 3 5 67.0064 13.8826 4
-9 4 0 -1.9359 5.1847 4
-9 -4 0 1.79163 4.48841 6
9 -4 0 6.25183 5.91972 2
9 -4 0 -1.79571 4.49864 1
-9 -4 -1 2644.14 105.693 6
-9 -4 1 2529.99 98.8097 6
9 -4 -1 2593.23 106.776 1
9 -4 -1 2813.41 109.583 2
-9 4 1 2670.27 106.77 4
9 -4 1 2799.36 109.031 2
9 -4 1 2697.07 101.811 1
-9 4 -1 2528.81 104.273 4
-9 4 2 43.2112 10.6633 4
-9 -4 -2 26.3236 8.60518 6
9 -4 2 22.3027 8.48881 2
9 -4 2 23.1736 5.59243 5
9 -4 -2 40.3421 10.3312 1
-9 -4 -3 1772.08 81.0907 6
9 -4 3 1617.64 68.1885 5
-9 4 3 1829.97 81.2806 4
9 -4 3 1610.77 78.5074 2
-9 -4 -4 20.982 8.63038 6
9 -4 4 24.4381 7.26847 5
9 -4 4 15.9844 8.3947 2
9 -4 -4 24.0016 9.865 1
-9 4 4 31.6242 10.3117 4
9 -4 5 843.07 54.4664 2
9 -4 -5 702.86 52.3227 1
-9 4 5 808.754 52.1295 4
-9 5 0 -2.16629 5.80184 4
-9 -5 0 -1.85314 4.2983 6
9 -5 0 -2.31357 5.79608 2
9 -5 0 5.47951 5.73615 1
-9 5 1 47.5947 10.8228 4
-9 5 -1 53.5565 11.5614 4
-9 -5 -1 47.4065 11.0783 6
9 -5 1 38.5995 8.64104 1
9 -5 -1 51.3134 12.3242 2
9 -5 1 55.8752 11.7502 2
9 -5 -1 42.6071 10.3824 1
9 -5 -2 14.7921 8.10513 1
-9 5 2 24.0096 8.52402 4
-9 -5 -2 21.3202 8.41072 6
9 -5 2 14.7247 6.99282 2
-9 -5 -3 303.855 28.4488 6
9 -5 3 240.134 20.8213 5
9 -5 -3 239.553 26.9901 1
-9 5 3 327.546 29.4273 4
9 -5 3 276.693 27.0405 2
-9 5 4 120.326 18.5221 4
9 -5 -4 106.256 19.0311 1
-9 -5 -4 128.92 19.221 6
9 -5 4 100.813 14.3075 5
9 -5 4 129.53 20.1714 2
-9 -5 -5 20.2447 9.12137 6
-9 5 5 42.7732 12.638 4
-9 6 0 -2.42754 4.5973 4
9 -6 0 -2.55794 5.416 2
9 -6 0 1.87352 3.96692 1
-9 -6 -1 511.804 36.4645 6
9 -6 -1 541.017 37.0508 1
9 -6 -1 639.829 42.894 2
9 -6 1 544.29 39.1825 2
-9 6 1 560.333 39.2342 4
-9 6 -1 527.472 37.4641 4
9 -6 1 463.267 30.8239 1
-9 6 2 -2.69743 6.25645 4
9 -6 -2 2.59451 6.94867 1
-9 -6 -2 12.5638 7.52406 6
9 -6 2 5.23904 7.8437 2
-9 -6 -3 389.449 33.9855 6
9 -6 3 378.302 28.4026 5
9 -6 -3 451.39 38.3679 1
-9 6 3 418.898 35.3562 4
9 -6 3 437.545 36.8583 2
-9 -6 -4 231.552 26.4113 6
9 -6 4 186.39 20.6148 5
-9 6 4 214.825 25.8573 4
9 -6 4 182.624 24.528 2
-9 7 0 -2.6732 6.20025 4
9 -7 0 2.74718 6.37184 2
9 -7 0 -1.90504 5.10217 1
9 -7 -1 79.8931 14.206 1
-9 7 1 100.922 17.2946 4
-9 7 -1 62.8034 13.5516 4
-9 -7 -1 74.6773 14.1744 6
9 -7 -1 98.5043 17.432 2
9 -7 1 69.9032 14.5942 2
-9 7 2 46.0666 12.5861 4
9 -7 -2 59.9823 13.7458 1
-9 -7 -2 47.5008 12.5867 6
-9 7 3 15.3158 7.68378 4
-9 -7 -3 19.9639 9.3629 6
9 -7 -3 18.7412 9.81703 1
9 -7 3 17.4706 9.15256 2
9 -7 3 6.09708 5.45705 5
-9 8 0 -2.85917 6.63203 4
9 -8 0 -2.96068 7.92969 2
9 -8 -1 1403.12 71.3932 1
9 -8 -1 1501.1 78.6968 2
9 -8 1 1499.02 78.3804 2
-9 8 1 1575.91 79.9901 4
-9 8 -1 1524.71 78.2653 4
-9 -8 -2 53.897 13.4086 6
9 -8 -2 84.8407 16.6274 1
9 -8 2 60.5584 14.0656 2
-9 8 -2 72.7683 14.395 3
10 0 0 1501.19 65.8124 2
-10 0 1 19.9681 6.31671 4
10 0 -1 13.6777 6.07218 2
10 0 1 9.82142 5.60451 2
-10 0 2 2357.22 93.4154 4
10 0 2 2621.37 98.5192 2
-10 0 3 349.644 25.5046 4
10 0 -3 299.607 31.2477 1
10 0 3 313.797 25.8095 2
10 0 4 1126.68 57.7718 2
-10 0 4 957.111 52.907 4
10 0 -4 1065.5 65.6786 1
10 0 5 778.428 49.4576 2
10 0 -5 773.378 56.5002 1
10 1 0 225.664 18.6239 2
10 -1 0 204.673 19.4762 2
-10 1 0 170.721 16.6022 4
-10 1 1 6.20543 5.08948 4
-10 1 -1 -1.44036 3.34211 4
10 -1 -1 9.51099 5.4043 2
10 1 1 5.77527 4.53523 2
10 -1 1 9.04151 5.93215 2
-10 1 2 717.169 39.7996 4
10 1 2 721.78 38.9953 2
10 -1 2 725.294 42.0247 2
10 -1 -2 789.179 49.6474 1
10 -1 -3 14.8076 8.87945 1
10 -1 3 12.3982 6.50548 2
10 1 3 13.7443 6.31713 2
-10 1 3 20.843 7.19126 4
10 -1 -4 6.45443 7.48512 1
10 -1 4 7.18783 7.52434 2
10 1 4 4.10982 5.148 2
-10 1 4 -2.20341 5.11057 4
-10 -1 -5 49.1614 12.3709 6
10 -1 -5 62.8381 16.9432 1
10 -1 5 57.3237 14.2618 2
10 1 5 57.0085 12.6412 2
-10 1 5 63.818 13.5682 4
10 2 0 940.33 43.2987 2
10 -2 0 842.168 47.9998 2
-10 2 0 994.087 48.2337 4
10 -2 -1 393.71 29.811 2
10 2 1 373.178 23.4881 2
-10 2 1 353.432 26.4646 4
10 -2 1 356.487 27.9819 2
-10 2 -1 321.822 24.872 4
10 -2 -1 380.046 31.1176 1
-10 2 2 964.364 50.1831 4
10 2 2 995.544 45.8474 2
10 -2 2 940.681 51.6889 2
10 -2 -3 95.3241 17.0182 1
10 -2 3 73.4627 13.6933 2
10 2 3 66.7016 10.7023 2
-10 2 3 84.4954 13.615 4
-10 -2 -4 880.038 52.658 6
10 2 4 866.861 46.4849 2
10 -2 -4 858.174 56.3591 1
-10 2 4 776.732 48.7999 4
10 -2 4 885.835 52.8135 2
-10 -2 -5 254.002 27.3702 6
10 -2 5 358.071 32.9053 2
10 2 5 273.838 25.7407 2
10 -2 -5 287.376 32.5769 1
-10 2 5 287.769 28.4191 4
-10 3 0 817.112 45.4424 4
10 -3 0 878.005 48.8425 1
-10 3 1 79.0146 12.694 4
-10 3 -1 82.4148 13.0544 4
10 3 1 57.5481 8.147 2
10 -3 -1 50.4022 11.4352 1
10 -3 -2 269.328 27.3077 1
-10 3 2 340.794 27.2144 4
10 3 2 283.079 19.5317 2
-10 3 3 6.92906 5.78639 4
-10 -3 -3 -7.31871 5.65842 6
10 3 3 1.30615 3.02974 2
-10 -3 -4 -2.6501 6.14655 6
10 -3 -4 3.2237 8.63362 1
-10 3 4 2.56845 5.43813 4
10 -3 -5 41.3719 13.5183 1
10 -3 5 29.6673 11.9841 2
-10 3 5 61.7169 15.3108 4
-10 -4 0 1659.83 74.7165 6
10 -4 0 1725.55 79.3703 2
-10 4 0 1538.52 74.3193 4
10 -4 0 1767.31 76.721 1
-10 -4 -1 182.225 20.6025 6
10 -4 -1 192.961 21.5882 1
10 -4 -1 187.602 22.2354 2
10 -4 1 215.686 22.9847 2
-10 4 1 215.955 21.8908 4
-10 4 -1 196.222 20.6447 4
-10 -4 -2 1703.37 78.754 6
10 -4 -2 1592.76 79.6519 1
-10 4 2 1679.11 77.6573 4
10 -4 2 1614.06 78.5059 2
-10 4 3 128.656 18.9261 4
-10 -4 -3 171.132 21.6246 6
10 -4 3 170.102 21.2216 2
-10 -4 -4 1013.68 58.1949 6
10 -4 -4 922.176 59.9974 1
-10 4 4 872.73 55.1776 4
10 -4 4 890.634 56.207 2
-10 5 0 40.1127 10.8555 4
-10 -5 0 65.3609 12.0486 6
10 -5 0 79.3576 15.0432 2
10 -5 0 58.2846 11.706 1
-10 5 1 -2.41719 5.118 4
-10 5 -1 -2.30122 6.16316 4
-10 -5 -1 -2.36475 5.48484 6
10 -5 -1 5.31345 6.16202 2
10 -5 1 7.59137 6.33941 2
10 -5 -1 -2.34082 6.6495 1
-10 -5 -2 670.837 43.9474 6
10 -5 -2 559.236 42.0089 1
-10 5 2 649.265 43.9372 4
10 -5 2 575.071 41.8201 2
-10 5 3 19.1687 8.20882 4
-10 -5 -3 16.4379 8.61255 6
10 -5 3 16.5129 9.75836 2
10 -5 -3 3.00068 7.52745 1
-10 5 4 5.91007 8.39417 4
-10 -5 -4 2.87559 5.44569 6
10 -5 4 -2.91944 6.18128 2
10 -6 0 788.205 46.0124 1
10 -6 0 850.726 53.5717 2
-10 6 0 959.895 54.8604 4
-10 6 1 5.31885 6.17627 4
-10 6 -1 10.1711 6.37798 4
-10 -6 -1 7.27966 5.63693 6
10 -6 -1 17.0241 8.91609 2
10 -6 1 21.5175 9.18805 2
10 -6 -1 11.9878 6.81794 1
-10 -6 -2 472.037 37.0989 6
10 -6 -2 383.16 34.427 1
-10 6 2 457.074 37.2086 4
-10 6 3 151.921 22.2396 4
-10 -6 -3 150.79 21.4466 6
10 -6 3 123.625 20.3326 2
10 -6 -3 128.17 21.0494 1
10 -7 0 277.46 29.7851 2
-10 7 0 238.166 26.3182 4
-10 7 1 11.5224 7.23682 4
-10 7 -1 22.2665 9.14559 4
10 -7 -1 18.0236 9.01099 2
10 -7 1 23.411 10.0054 2
10 -7 -1 19.4883 8.94997 1
-10 -7 -2 258.318 27.9393 6
10 -7 -2 288.089 29.3144 1
10 -7 2 285.968 30.3834 2
-10 7 2 314.85 31.3801 4
11 0 0 1.82692 5.18989 2
11 0 -1 235.779 22.0579 2
11 0 1 243.561 21.792 2
11 0 2 22.7775 7.8642 2
11 0 3 77.1287 13.3791 2
11 0 4 4.52891 6.7818 2
11 0 5 1389.48 71.671 2
11 1 0 1.6447 4.40571 2
11 -1 0 6.08931 5.76653 2
11 -1 -1 12.5963 7.44823 2
11 1 1 23.6922 7.18324 2
11 -1 1 5.9609 5.96248 2
-11 1 2 156.183 17.1904 4
11 1 2 136.949 15.8817 2
11 -1 2 178.077 19.485 2
-11 1 3 3.9875 5.66434 4
11 -1 -3 3.29974 6.24965 1
11 1 3 1.82101 4.87795 2
11 -1 3 4.43549 5.94029 2
11 -1 -4 562.989 46.9798 1
11 -1 4 552.187 39.6723 2
11 1 4 589.381 38.0018 2
-11 -1 -5 -2.75353 5.21486 6
11 -1 5 -2.75465 6.38934 2
11 1 5 2.37941 7.47264 2
-11 2 0 -1.84712 4.62766 4
11 2 0 -1.3704 4.30395 2
11 -2 0 -2.21988 5.14896 2
11 -2 -1 3841 145.781 2
11 2 1 3873.94 134.303 2
11 -2 1 3820.62 144.016 2
-11 2 1 3684.18 139.314 4
11 -2 -1 3741.51 149.682 1
-11 2 -1 3786.16 139.395 4
-11 2 2 4.01105 5.37114 4
11 -2 -2 -2.93428 7.35095 1
11 2 2 -1.47146 3.94082 2
11 -2 2 2.28173 4.83106 2
-11 2 3 1585.71 72.6637 4
11 2 3 1437.02 64.6997 2
11 -2 3 1484.31 73.3016 2
11 -2 -3 1556.35 81.4251 1
-11 -2 -4 10.799 6.27126 6
11 -2 -4 10.2942 8.60326 1
11 -2 4 10.4095 7.79994 2
11 2 4 12.7184 5.96963 2
-11 2 4 12.4027 7.7976 4
-11 2 5 835.89 52.7944 4
-11 3 0 2.08171 4.82828 4
11 -3 0 -2.40773 6.8395 2
-11 3 1 8.36268 5.60019 4
-11 3 -1 14.2041 6.65664 4
11 -3 -1 -2.60378 6.97418 1
11 -3 -1 4.9817 6.67177 2
11 -3 1 7.06925 6.69455 2
11 -3 -2 351.027 33.3425 1
-11 3 2 416.268 32.1575 4
11 -3 2 450.436 34.602 2
-11 3 3 9.68793 6.49604 4
-11 -3 -3 13.1093 7.03061 6
11 -3 3 12.9277 8.12734 2
-11 -3 -4 67.4131 14.7799 6
11 -3 -4 88.1922 18.8935 1
11 -3 4 66.7793 14.88 2
-11 4 0 4.62714 6.19619 4
11 -4 0 -2.30824 4.88724 1
-11 -4 0 -2.14937 4.98522 6
-11 4 -1 119.405 16.7917 4
-11 -4 -1 83.313 14.9092 6
11 -4 -1 99.0101 16.575 1
-11 4 2 -2.50944 5.31413 4
-11 -4 -2 12.8273 7.68239 6
11 -4 -2 5.6267 7.04871 1
-11 -4 -3 289.522 29.1725 6
11 -4 -3 302.421 31.4702 1
-11 4 3 269.026 27.4548 4
-11 4 4 37.1193 12.7058 4
-11 -4 -4 20.4628 9.21415 6
-11 5 0 7.55025 6.74046 4
11 -5 0 -2.24978 6.73665 1
11 -5 0 -2.77519 7.43259 2
-11 5 1 15.4105 8.06792 4
-11 5 -1 2.46947 4.67997 4
-11 -5 -1 2.52815 6.33604 6
11 -5 -1 11.4194 8.11151 2
11 -5 1 8.09565 7.66765 2
11 -5 -1 5.01166 6.28014 1
-11 5 2 65.4034 14.2738 4
-11 -5 -2 67.7827 14.2028 6
11 -5 -2 65.6926 14.7004 1
-11 5 3 -2.88302 7.22261 4
-11 -5 -3 -2.88047 7.71444 6
11 -5 3 8.85612 8.83931 2
11 -5 -3 6.42662 7.45291 1
-11 6 0 2.718 5.14722 4
11 -6 0 -2.96789 7.43515 2
11 -6 -1 1961.51 91.6981 1
11 -6 -1 1985.76 96.7061 2
11 -6 1 2010.67 96.5326 2
-11 6 1 2172.22 97.3808 4
-11 6 -1 2200.93 97.3007 4
-11 6 2 8.69592 9.10438 4
-11 -6 -2 5.61345 7.51859 6
11 -6 2 2.96122 6.27176 2
11 -6 -2 5.81677 6.15994 1
-11 7 0 2.90915 7.79169 4
12 0 0 439.523 31.8496 2
12 0 1 5.89555 5.58518 2
12 0 2 1911.1 82.9989 2
12 0 3 222.696 22.5888 2
12 0 4 610.964 41.0437 2
12 1 0 376.469 27.7093 2
12 -1 0 365.267 29.9759 2
12 -1 -1 -2.28752 6.49828 2
12 1 1 -1.77034 3.74879 2
12 -1 1 -2.1467 6.09829 2
12 1 2 407.591 29.6033 2
12 -1 2 462.287 34.0808 2
12 1 3 5.84675 6.12251 2
12 -1 3 4.75487 5.95808 2
12 -1 -4 3.82149 7.2381 1
12 1 4 2.09431 5.95055 2
12 -1 4 17.7688 8.32713 2
12 -2 0 828.841 50.1317 2
12 -2 -1 156.28 20.5199 2
12 -2 1 167.759 20.5658 2
12 -2 2 844.8 49.7965 2
12 -2 -2 719.228 52.2783 1
12 -2 3 186.772 23.0744 2
12 -2 4 787.574 51.2578 2
12 -3 0 520.756 39.5068 2
-12 3 0 571.304 37.7212 4
-12 3 1 111.182 16.411 4
-12 3 -1 107.951 15.8245 4
12 -3 -1 117.932 18.8033 2
12 -3 1 131.636 18.8925 2
-12 -3 -2 210.701 24.3929 6
-12 3 2 227.103 24.0494 4
12 -3 -2 201.316 26.2507 1
-12 3 3 40.2193 10.9577 4
-12 -3 -3 36.3297 10.9607 6
12 -3 -3 23.8223 11.2119 1
12 -3 3 38.8369 11.4975 2
12 -4 0 771.773 50.3268 2
-12 4 0 746.031 46.8787 4
-12 4 1 53.8586 12.6398 4
12 -4 -1 58.8365 13.9268 1
-12 4 -1 69.5494 13.5802 4
-12 -4 -1 99.5854 16.518 6
12 -4 -1 68.6552 15.4504 2
12 -4 1 57.667 13.6557 2
-12 -4 -2 1034.65 60.6374 6
12 -4 2 1090.07 62.3666 2
-12 4 2 1017.27 58.6732 4
12 -4 -2 1089.63 64.384 1
-12 4 3 149.561 21.2825 4
-12 -4 -3 147.881 22.2388 6
12 -4 -3 143.469 22.9929 1
-12 5 0 213.777 24.4136 4
-12 5 1 -2.67896 6.21483 4
-12 5 -1 10.4091 8.88515 4
-12 -5 -1 23.7722 10.6118 6
12 -5 -1 5.49399 7.80426 1
12 -5 -2 326.022 33.1675 1
-12 -5 -2 436.901 36.1119 6
-12 5 2 373.351 33.8229 4
12 -6 -1 16.1792 9.21889 1
13 0 0 -2.17197 5.4416 2
13 0 1 1825.94 81.4985 2
13 0 2 6.33842 5.29644 2
13 0 3 1037.5 56.1379 2
13 -1 0 2.42596 6.49753 2
13 -1 1 2.34831 5.44705 2
13 -1 2 37.5158 10.7074 2
13 -1 3 56.9163 13.1584 2
13 -2 0 -2.61572 6.55338 2
13 -2 -1 302.617 29.5358 2
13 -2 1 300.779 28.8808 2
13 -2 2 28.1256 9.72119 2
13 -2 3 369.434 33.3684 2
13 -3 0 -2.81861 5.96839 2
13 -3 -1 71.1404 15.4041 2
13 -3 1 76.8012 15.5259 2
-13 -3 -2 47.5529 13.2796 6
13 -3 2 24.6453 9.75144 2
13 -4 0 2.99687 8.02663 2
-13 -4 -1 1520.12 74.5141 6
13 -4 -1 1407.49 75.7273 2
13 -4 1 1446.71 75.6823 2
-13 4 1 1221.72 68.2607 4
14 -1 0 82.4219 15.5266 2
14 -1 1 12.2547 8.99574 2
14 -2 0 1432.5 74.4403 2
loop_
_exptl_crystal_face_index_h
_exptl_crystal_face_index_k
_exptl_crystal_face_index_l
_exptl_crystal_face_perp_dist
0 1 0 0.0355
0 -1 0 0.0505
-1 0 -1 0.0169
1 0 1 0.0201
1 0 -1 0.0170
-1 0 1 0.0233
1 0 0 0.0215
-1 0 0 0.0208
loop_
_geom_angle_atom_site_label_1
_geom_angle_atom_site_label_2
_geom_angle_atom_site_label_3
_geom_angle
_geom_angle_site_symmetry_1
_geom_angle_site_symmetry_3
_geom_angle_publ_flag
O1 Cu O1 180.0 3_546 1_554 ?
O2 Cu O1 76.13(3) 2_455 1_554 ?
O2 Cu O1 103.87(3) 2_455 3_546 ?
O2 Cu O1 103.87(3) 4_554 1_554 ?
O2 Cu O1 76.13(3) 4_554 3_546 ?
O2 Cu O2 180.0 4_554 2_455 ?
O3 Cu O1 90.84(4) . 3_546 ?
O3 Cu O1 89.16(4) . 1_554 ?
O3 Cu O1 89.16(4) 5 3_546 ?
O3 Cu O1 90.84(4) 5 1_554 ?
O3 Cu O2 88.95(4) 5 2_455 ?
O3 Cu O2 91.05(4) . 2_455 ?
O3 Cu O2 88.95(4) . 4_554 ?
O3 Cu O2 91.05(4) 5 4_554 ?
O3 Cu O3 180.0 5 . ?
O2 S O1 110.31(7) . . ?
O3 S O1 110.52(4) . . ?
O3 S O1 110.52(4) 7_565 . ?
O3 S O2 105.96(4) 7_565 . ?
O3 S O2 105.96(4) . . ?
O3 S O3 113.36(7) 7_565 . ?
Cu O1 Cu 89.93(4) 3_556 1_556 ?
S O1 Cu 130.57(3) . 1_556 ?
S O1 Cu 130.57(3) . 3_556 ?
Cu O2 Cu 109.53(5) 4 2 ?
S O2 Cu 123.44(3) . 2 ?
S O2 Cu 123.44(3) . 4 ?
S O3 Cu 136.63(5) . . ?
loop_
_geom_bond_atom_site_label_1
_geom_bond_atom_site_label_2
_geom_bond_distance
_geom_bond_site_symmetry_2
_geom_bond_publ_flag
Cu O1 2.3618(8) 3_546 ?
Cu O1 2.3618(8) 1_554 ?
Cu O2 2.0433(7) 2_455 ?
Cu O2 2.0433(7) 4_554 ?
Cu O3 1.9194(8) 5 ?
Cu O3 1.9194(8) . ?
S O1 1.4563(12) . ?
S O2 1.5170(12) . ?
S O3 1.4645(8) . ?
S O3 1.4645(8) 7_565 ?
loop_
_geom_torsion_atom_site_label_1
_geom_torsion_atom_site_label_2
_geom_torsion_atom_site_label_3
_geom_torsion_atom_site_label_4
_geom_torsion
_geom_torsion_site_symmetry_1
_geom_torsion_site_symmetry_2
_geom_torsion_site_symmetry_3
_geom_torsion_site_symmetry_4
_geom_torsion_publ_flag
Cu O1 S O2 -111.52(7) 1_556 . . . ?
Cu O1 S O2 111.52(7) 3_556 . . . ?
Cu O1 S O3 131.63(7) 1_556 . . 7_565 ?
Cu O1 S O3 5.32(9) 1_556 . . . ?
Cu O1 S O3 -131.63(7) 3_556 . . . ?
Cu O1 S O3 -5.32(9) 3_556 . . 7_565 ?
Cu O2 S O1 -78.18(7) 2 . . . ?
Cu O2 S O1 78.18(7) 4 . . . ?
Cu O2 S O3 41.46(9) 2 . . 7_565 ?
Cu O2 S O3 -41.46(9) 4 . . . ?
Cu O2 S O3 162.18(7) 2 . . . ?
Cu O2 S O3 -162.18(7) 4 . . 7_565 ?
Cu O3 S O1 119.13(8) . . . . ?
Cu O3 S O1 119.13(8) 5 . . . ?
Cu O3 S O2 -121.37(8) 5 . . . ?
Cu O3 S O2 -121.37(8) . . . . ?
Cu O3 S O3 -5.57(5) 5 . . 7_565 ?
Cu O3 S O3 -5.57(5) . . . 7_565 ?
loop_
_exptl_oxdiff_crystal_face_indexfrac_h
_exptl_oxdiff_crystal_face_indexfrac_k
_exptl_oxdiff_crystal_face_indexfrac_l
_exptl_oxdiff_crystal_face_x
_exptl_oxdiff_crystal_face_y
_exptl_oxdiff_crystal_face_z
-0.0019 0.9994 -0.0004 0.0472 0.0804 0.0507
0.0019 -0.9994 0.0004 -0.0472 -0.0804 -0.0507
-0.9984 -0.0013 -0.9991 0.1510 -0.0713 -0.0272
0.9984 0.0013 0.9991 -0.1510 0.0713 0.0272
0.9995 -0.0005 -0.9976 0.0642 -0.1085 0.1128
-0.9995 0.0005 0.9976 -0.0642 0.1085 -0.1128
0.9990 0.0004 0.0007 -0.0434 -0.0186 0.0700
-0.9990 -0.0004 -0.0007 0.0434 0.0186 -0.0700
