#------------------------------------------------------------------------------
#$Date: 2022-10-07 04:05:07 +0300 (Fri, 07 Oct 2022) $
#$Revision: 278440 $
#$URL: file:///home/coder/svn-repositories/cod/cif/7/06/18/7061832.cif $
#------------------------------------------------------------------------------
#
# This file is available in the Crystallography Open Database (COD),
# http://www.crystallography.net/
#
# All data on this site have been placed in the public domain by the
# contributors.
#
data_7061832
loop_
_publ_author_name
'Naskar, Rahul'
'Gharami, Saswati'
'Mandal, Subrata'
'Mondal, Tapan Kumar'
_publ_section_title
;
 A new chromone-based fluorescent probe for ratiometric detection of Pd2+
;
_journal_issue                   37
_journal_name_full               'New Journal of Chemistry'
_journal_page_first              17912
_journal_page_last               17917
_journal_paper_doi               10.1039/D2NJ02310E
_journal_volume                  46
_journal_year                    2022
_chemical_formula_sum            'C18 H14 Cl N O3 Pd'
_chemical_formula_weight         434.15
_space_group_crystal_system      triclinic
_space_group_IT_number           2
_space_group_name_Hall           '-P 1'
_space_group_name_H-M_alt        'P -1'
_atom_sites_solution_hydrogens   geom
_audit_creation_method           SHELXL-2016/6
_audit_update_record
;
2022-05-01 deposited with the CCDC.	2022-08-17 downloaded from the CCDC.
;
_cell_angle_alpha                92.607(3)
_cell_angle_beta                 105.097(3)
_cell_angle_gamma                90.210(3)
_cell_formula_units_Z            2
_cell_length_a                   6.9450(7)
_cell_length_b                   11.0309(10)
_cell_length_c                   12.2212(12)
_cell_measurement_reflns_used    7524
_cell_measurement_temperature    293(2)
_cell_measurement_theta_max      21.00
_cell_measurement_theta_min      2.25
_cell_volume                     902.90(15)
_computing_structure_refinement  'SHELXL-2016/6 (Sheldrick, 2016)'
_diffrn_ambient_temperature      293(2)
_diffrn_measured_fraction_theta_full 0.991
_diffrn_measured_fraction_theta_max 0.992
_diffrn_measurement_device_type  'Bruker AXS D8 Quest CMOS diffractometer'
_diffrn_measurement_method       'omega and phi scans'
_diffrn_radiation_type           MoK\a
_diffrn_radiation_wavelength     0.71073
_diffrn_reflns_av_R_equivalents  0.1175
_diffrn_reflns_av_unetI/netI     0.0690
_diffrn_reflns_Laue_measured_fraction_full 0.991
_diffrn_reflns_Laue_measured_fraction_max 0.992
_diffrn_reflns_limit_h_max       8
_diffrn_reflns_limit_h_min       -8
_diffrn_reflns_limit_k_max       13
_diffrn_reflns_limit_k_min       -13
_diffrn_reflns_limit_l_max       15
_diffrn_reflns_limit_l_min       -15
_diffrn_reflns_number            26759
_diffrn_reflns_point_group_measured_fraction_full 0.991
_diffrn_reflns_point_group_measured_fraction_max 0.992
_diffrn_reflns_theta_full        25.242
_diffrn_reflns_theta_max         26.496
_diffrn_reflns_theta_min         1.728
_diffrn_source                   'sealed tube X-ray source'
_exptl_absorpt_coefficient_mu    1.190
_exptl_absorpt_correction_T_max  0.7449
_exptl_absorpt_correction_T_min  0.4277
_exptl_absorpt_correction_type   multi-scan
_exptl_absorpt_process_details   Sadabs
_exptl_crystal_colour            brown
_exptl_crystal_density_diffrn    1.597
_exptl_crystal_description       block
_exptl_crystal_F_000             432
_exptl_crystal_size_max          0.14
_exptl_crystal_size_mid          0.12
_exptl_crystal_size_min          0.08
_refine_diff_density_max         0.794
_refine_diff_density_min         -0.667
_refine_diff_density_rms         0.103
_refine_ls_extinction_method     none
_refine_ls_goodness_of_fit_ref   1.060
_refine_ls_hydrogen_treatment    constr
_refine_ls_matrix_type           full
_refine_ls_number_parameters     217
_refine_ls_number_reflns         3726
_refine_ls_number_restraints     0
_refine_ls_restrained_S_all      1.060
_refine_ls_R_factor_all          0.0876
_refine_ls_R_factor_gt           0.0553
_refine_ls_shift/su_max          0.001
_refine_ls_shift/su_mean         0.000
_refine_ls_structure_factor_coef Fsqd
_refine_ls_weighting_details
'w=1/[\s^2^(Fo^2^)+(0.0353P)^2^+1.3216P] where P=(Fo^2^+2Fc^2^)/3'
_refine_ls_weighting_scheme      calc
_refine_ls_wR_factor_gt          0.1065
_refine_ls_wR_factor_ref         0.1148
_reflns_Friedel_coverage         0.000
_reflns_number_gt                2699
_reflns_number_total             3726
_reflns_threshold_expression     'I > 2\s(I)'
_cod_data_source_file            d2nj02310e2.cif
_cod_data_source_block           shelxl
_cod_depositor_comments          'Adding full bibliography for 7061832.cif.'
_cod_original_cell_volume        902.89(15)
_cod_database_code               7061832
_shelx_shelxl_version_number     2016/6
_shelx_space_group_comment
;
The symmetry employed for this shelxl refinement is uniquely defined
by the following loop, which should always be used as a source of
symmetry information in preference to the above space-group names.
They are only intended as comments.
;
_shelx_res_file
;
TITL RN45_a.res in P-1
    shelxl.res
    created by SHELXL-2016/6 at 14:09:15 on 17-Jan-2019
CELL  0.71073   6.9450  11.0309  12.2212   92.607  105.097   90.210
ZERR     2.00   0.0007   0.0010   0.0012    0.003    0.003    0.003
LATT   1
SFAC  C    H    CL   N    O    PD
UNIT  36   28   2    2    6    2
MERG   2
OMIT     0.00  53.00
OMIT     1   0   2
OMIT     0  -3   3
OMIT    -1  -1   3
OMIT    -2  -2   2
OMIT     1   1   3
OMIT     0  -3   2
OMIT     1   2   0
OMIT    -1   4   0
OMIT     3   1   1
OMIT     2   0   2
OMIT    -1  -2   2
OMIT    -3  -3   1
OMIT     0  -2   2
OMIT     0   2   0
OMIT     1  -5   1
OMIT    -1   1   1
OMIT     1  -1   1
OMIT     2   1   1
OMIT    -3  -2   2
OMIT     0   2   4
OMIT    -1   3   1
OMIT    -1  -3   3
OMIT     7   6   3
OMIT     0  -2   4
OMIT    -1  -4   5
OMIT     0   3   3
OMIT    -2  -3   5
OMIT    -1   1   4
OMIT     0   0   2
OMIT     1  -2   4
OMIT     1  -5   2
OMIT     6  -4   7
FMAP   2
PLAN   20
ACTA
BOND   $H
ABIN
L.S. 50 0   21
TEMP     20.00
WGHT    0.035280    1.321600
FVAR       0.11189
PD1   6    0.617320    0.584644    0.342823    11.00000    0.05754    0.02863 =
         0.04694    0.00440    0.00774   -0.00099
CL1   3    0.475606    0.661797    0.169719    11.00000    0.20066    0.04534 =
         0.06457    0.01659   -0.02832   -0.00875
O1    5    0.705051    0.746483    0.410940    11.00000    0.06612    0.03201 =
         0.05500   -0.00001    0.00531   -0.00249
O2    5    0.531252    0.418568    0.278093    11.00000    0.05211    0.02965 =
         0.04896    0.00478    0.00756    0.00078
O3    5    0.624970    0.100991    0.441047    11.00000    0.06187    0.03053 =
         0.06281    0.01114    0.00909   -0.00164
N1    4    0.748896    0.529018    0.494934    11.00000    0.03262    0.03439 =
         0.04759   -0.00179    0.01179   -0.00054
C1    1    0.807745    0.739673    0.519181    11.00000    0.03772    0.03276 =
         0.05325   -0.00132    0.01096    0.00383
C2    1    0.888777    0.844533    0.584748    11.00000    0.04463    0.04008 =
         0.06159   -0.00647    0.00978   -0.00053
AFIX  43
H2    2    0.873562    0.920034    0.552911    11.00000   -1.20000
AFIX   0
C3    1    0.990444    0.834413    0.696071    11.00000    0.04606    0.04708 =
         0.06889   -0.01832    0.01882   -0.00498
AFIX  43
H3    2    1.044448    0.904293    0.738600    11.00000   -1.20000
AFIX   0
C4    1    1.016317    0.723729    0.748255    11.00000    0.03374    0.06237 =
         0.04916   -0.01472    0.00720   -0.00389
C5    1    1.123859    0.714263    0.872148    11.00000    0.06092    0.08191 =
         0.05743   -0.00866    0.01205   -0.00411
AFIX  33
H5A   2    1.168172    0.793553    0.904851    11.00000   -1.50000
H5B   2    1.034773    0.680590    0.911499    11.00000   -1.50000
H5C   2    1.236896    0.662638    0.878738    11.00000   -1.50000
AFIX   0
C6    1    0.938461    0.620358    0.682870    11.00000    0.03930    0.04041 =
         0.05371    0.00199    0.01261    0.00001
AFIX  43
H6    2    0.955794    0.545070    0.715075    11.00000   -1.20000
AFIX   0
C7    1    0.834641    0.627909    0.569578    11.00000    0.03586    0.03870 =
         0.04058   -0.00389    0.00864   -0.00426
C8    1    0.757268    0.418160    0.524255    11.00000    0.03453    0.03966 =
         0.04075    0.00742    0.00342    0.00098
AFIX  43
H8    2    0.824933    0.402290    0.598354    11.00000   -1.20000
AFIX   0
C9    1    0.666857    0.316034    0.448073    11.00000    0.03408    0.03408 =
         0.04601    0.00526    0.00843    0.00154
C10   1    0.563140    0.322969    0.331450    11.00000    0.03211    0.02674 =
         0.05267    0.00282    0.01257    0.00242
C11   1    0.492382    0.208865    0.270608    11.00000    0.03431    0.03246 =
         0.05142    0.00221    0.01222   -0.00076
C12   1    0.392694    0.202370    0.156095    11.00000    0.04138    0.03466 =
         0.05777    0.00417    0.01258   -0.00682
AFIX  43
H12   2    0.367481    0.273287    0.116777    11.00000   -1.20000
AFIX   0
C13   1    0.330772    0.092433    0.100081    11.00000    0.04907    0.03618 =
         0.06003   -0.00665    0.01324   -0.00659
C14   1    0.225592    0.085738   -0.024835    11.00000    0.09185    0.05243 =
         0.05331   -0.00611    0.01158   -0.01215
AFIX  33
H14A  2    0.193281    0.002614   -0.049804    11.00000   -1.50000
H14B  2    0.105293    0.131671   -0.037480    11.00000   -1.50000
H14C  2    0.311302    0.118670   -0.066674    11.00000   -1.50000
AFIX   0
C15   1    0.369669   -0.012467    0.160721    11.00000    0.05836    0.03590 =
         0.07473   -0.00919    0.01704   -0.00807
AFIX  43
H15   2    0.327133   -0.086821    0.123059    11.00000   -1.20000
AFIX   0
C16   1    0.468068   -0.010694    0.273644    11.00000    0.05399    0.02550 =
         0.07879    0.00165    0.01761   -0.00459
AFIX  43
H16   2    0.493824   -0.081943    0.312410    11.00000   -1.20000
AFIX   0
C17   1    0.527488    0.101254    0.327599    11.00000    0.04201    0.03139 =
         0.05552    0.00896    0.01235   -0.00027
C18   1    0.690257    0.204320    0.494746    11.00000    0.04812    0.03922 =
         0.05430    0.00835    0.00910    0.00050
AFIX  43
H18   2    0.758290    0.202020    0.570984    11.00000   -1.20000
AFIX   0
HKLF    4




REM  RN45_a.res in P-1
REM R1 =  0.0553 for    2699 Fo > 4sig(Fo)  and  0.0876 for all    3726 data
REM    217 parameters refined using      0 restraints

END

WGHT      0.0527      0.8435

REM Highest difference peak  0.794,  deepest hole -0.667,  1-sigma level  0.103
Q1    1   0.7846  0.5869  0.3181  11.00000  0.05    0.79
Q2    1   0.4639  0.5722  0.3640  11.00000  0.05    0.76
Q3    1   0.3445  0.6566  0.1996  11.00000  0.05    0.72
Q4    1   0.6936  0.5527  0.2811  11.00000  0.05    0.57
Q5    1   0.5328  0.6819  0.1732  11.00000  0.05    0.48
Q6    1   0.5633  0.5974  0.0607  11.00000  0.05    0.47
Q7    1   0.5016  0.6243  0.1333  11.00000  0.05    0.47
Q8    1   0.4509  0.6012  0.2506  11.00000  0.05    0.41
Q9    1   0.8319  0.7443  0.3575  11.00000  0.05    0.41
Q10   1   0.4676  0.1924  0.2091  11.00000  0.05    0.40
Q11   1   0.4696  0.5093  0.2764  11.00000  0.05    0.39
Q12   1   0.6181  0.6202  0.3337  11.00000  0.05    0.39
Q13   1   0.7087  0.4851  0.5070  11.00000  0.05    0.38
Q14   1   0.5994  0.6431  0.2306  11.00000  0.05    0.37
Q15   1   0.7212  0.5786  0.4100  11.00000  0.05    0.37
Q16   1   0.2596 -0.0360 -0.0646  11.00000  0.05    0.36
Q17   1   0.2126  0.1627 -0.0598  11.00000  0.05    0.35
Q18   1   0.7586  0.6684  0.4143  11.00000  0.05    0.35
Q19   1   0.8339  0.6850  0.5432  11.00000  0.05    0.34
Q20   1   0.7025  0.4850  0.4228  11.00000  0.05    0.34
;
_shelx_res_checksum              45567
_shelx_fab_file
;
    1    0    0     25.82      0.00
    2    0    0      9.57      0.00
    3    0    0      8.11      0.00
    4    0    0      3.47      0.00
    5    0    0      0.53      0.00
    6    0    0      0.12      0.00
    7    0    0     -0.33      0.00
    8    0    0     -0.95      0.00
   -8    1    0     -0.79      0.00
   -7    1    0     -0.83      0.00
   -6    1    0     -0.21      0.00
   -5    1    0      1.28      0.00
   -4    1    0      0.41      0.00
   -3    1    0     -2.24      0.00
   -2    1    0      3.88      0.00
   -1    1    0      2.46      0.00
    0    1    0    -12.99      0.00
    1    1    0     -5.33      0.00
    2    1    0      5.17      0.00
    3    1    0      0.53      0.00
    4    1    0     -0.47      0.00
    5    1    0      0.18      0.00
    6    1    0     -0.15      0.00
    7    1    0      0.33      0.00
    8    1    0      1.99      0.00
   -8    2    0      0.50      0.00
   -7    2    0      0.91      0.00
   -6    2    0      1.32      0.00
   -5    2    0      0.56      0.00
   -4    2    0      1.28      0.00
   -3    2    0      4.63      0.00
   -2    2    0     -2.14      0.00
   -1    2    0    -10.88      0.00
    2    2    0    -14.37      0.00
    3    2    0     -7.82      0.00
    4    2    0     -3.47      0.00
    5    2    0     -2.44      0.00
    6    2    0      0.00      0.00
    7    2    0      2.71      0.00
    8    2    0      1.93      0.00
   -8    3    0      1.79      0.00
   -7    3    0      1.54      0.00
   -6    3    0      0.35      0.00
   -5    3    0      0.49      0.00
   -4    3    0      0.77      0.00
   -3    3    0     -2.56      0.00
   -2    3    0     -0.48      0.00
   -1    3    0      6.02      0.00
    0    3    0     -2.98      0.00
    1    3    0     -6.59      0.00
    2    3    0      0.68      0.00
    3    3    0     -1.47      0.00
    4    3    0     -3.08      0.00
    5    3    0     -0.73      0.00
    6    3    0      0.38      0.00
    7    3    0     -1.36      0.00
    8    3    0     -1.53      0.00
   -8    4    0     -1.07      0.00
   -7    4    0     -1.60      0.00
   -6    4    0     -0.67      0.00
   -5    4    0     -0.62      0.00
   -4    4    0     -2.60      0.00
   -3    4    0     -1.98      0.00
   -2    4    0     -3.26      0.00
    0    4    0     -5.82      0.00
    1    4    0      0.62      0.00
    2    4    0     -2.49      0.00
    3    4    0     -0.49      0.00
    4    4    0      1.92      0.00
    5    4    0      0.69      0.00
    6    4    0     -0.24      0.00
    7    4    0      1.40      0.00
    8    4    0      1.89      0.00
   -8    5    0     -0.57      0.00
   -7    5    0     -0.22      0.00
   -6    5    0     -0.48      0.00
   -5    5    0     -0.72      0.00
   -4    5    0      0.65      0.00
   -3    5    0     -0.37      0.00
   -2    5    0     -1.73      0.00
   -1    5    0      2.64      0.00
    0    5    0      1.45      0.00
    1    5    0     -2.99      0.00
    2    5    0      0.95      0.00
    3    5    0      2.43      0.00
    4    5    0      0.76      0.00
    5    5    0      0.55      0.00
    6    5    0      0.59      0.00
    7    5    0     -1.36      0.00
   -7    6    0      0.38      0.00
   -6    6    0     -0.05      0.00
   -5    6    0     -0.11      0.00
   -4    6    0     -1.21      0.00
   -3    6    0      0.07      0.00
   -2    6    0      2.63      0.00
   -1    6    0      0.54      0.00
    0    6    0      0.79      0.00
    1    6    0      5.18      0.00
    2    6    0      3.36      0.00
    3    6    0      0.93      0.00
    4    6    0      1.48      0.00
    5    6    0      1.24      0.00
    6    6    0     -0.33      0.00
    7    6    0     -0.55      0.00
   -7    7    0     -1.75      0.00
   -6    7    0     -0.67      0.00
   -5    7    0     -0.27      0.00
   -4    7    0      0.85      0.00
   -3    7    0      0.26      0.00
   -2    7    0     -1.66      0.00
   -1    7    0      0.38      0.00
    0    7    0      2.40      0.00
    1    7    0      0.08      0.00
    2    7    0      0.06      0.00
    3    7    0      1.37      0.00
    4    7    0      0.58      0.00
    5    7    0     -0.12      0.00
    6    7    0      0.42      0.00
    7    7    0      0.31      0.00
   -7    8    0      0.50      0.00
   -6    8    0     -0.12      0.00
   -5    8    0      0.15      0.00
   -4    8    0     -0.04      0.00
   -3    8    0      0.64      0.00
   -2    8    0      2.53      0.00
   -1    8    0      1.25      0.00
    0    8    0     -0.90      0.00
    1    8    0      0.34      0.00
    2    8    0      0.98      0.00
    3    8    0     -0.42      0.00
    4    8    0     -0.58      0.00
    5    8    0      0.08      0.00
    6    8    0     -0.26      0.00
    7    8    0     -0.46      0.00
   -6    9    0     -0.78      0.00
   -5    9    0     -0.88      0.00
   -4    9    0     -0.08      0.00
   -3    9    0      0.65      0.00
   -2    9    0     -0.62      0.00
   -1    9    0     -0.53      0.00
    0    9    0      0.45      0.00
    1    9    0     -0.33      0.00
    2    9    0     -1.09      0.00
    3    9    0     -0.27      0.00
    4    9    0     -0.24      0.00
    5    9    0     -1.17      0.00
    6    9    0     -0.85      0.00
   -6   10    0      1.25      0.00
   -5   10    0      1.18      0.00
   -4   10    0      0.38      0.00
   -3   10    0     -1.29      0.00
   -2   10    0     -1.23      0.00
   -1   10    0     -1.29      0.00
    0   10    0     -1.75      0.00
    1   10    0     -1.41      0.00
    2   10    0     -0.78      0.00
    3   10    0     -0.95      0.00
    4   10    0     -0.94      0.00
    5   10    0      0.12      0.00
   -5   11    0      0.12      0.00
   -4   11    0     -0.07      0.00
   -3   11    0      0.63      0.00
   -2   11    0      0.41      0.00
   -1   11    0      0.18      0.00
    0   11    0      0.20      0.00
    1   11    0     -0.07      0.00
    2   11    0     -0.53      0.00
    3   11    0     -0.49      0.00
    4   11    0      0.21      0.00
    5   11    0      0.09      0.00
   -4   12    0      0.77      0.00
   -3   12    0      0.64      0.00
   -2   12    0      0.57      0.00
   -1   12    0      0.43      0.00
    0   12    0      0.47      0.00
    1   12    0      0.69      0.00
    2   12    0      0.60      0.00
    3   12    0      0.56      0.00
    4   12    0      0.15      0.00
   -3   13    0     -0.44      0.00
   -2   13    0     -0.25      0.00
   -1   13    0     -0.16      0.00
    0   13    0     -0.30      0.00
    1   13    0     -0.30      0.00
    2   13    0      0.33      0.00
    3   13    0      0.28      0.00
   -1   14    0      0.38      0.00
    0   14    0      0.56      0.00
   -1  -14    1      0.49      0.00
    0  -14    1      0.25      0.00
    1  -14    1      0.12      0.00
   -3  -13    1     -0.41      0.00
   -2  -13    1     -0.46      0.00
   -1  -13    1     -0.74      0.00
    0  -13    1     -0.25      0.00
    1  -13    1     -0.24      0.00
    2  -13    1     -0.39      0.00
    3  -13    1     -0.58      0.00
   -4  -12    1      0.12      0.00
   -3  -12    1      0.58      0.00
   -2  -12    1      0.29      0.00
   -1  -12    1      0.16      0.00
    0  -12    1     -0.22      0.00
    1  -12    1     -0.31      0.00
    2  -12    1     -0.66      0.00
    3  -12    1     -0.82      0.00
    4  -12    1     -0.15      0.00
   -5  -11    1      0.41      0.00
   -4  -11    1      0.82      0.00
   -3  -11    1      0.57      0.00
   -2  -11    1      0.82      0.00
   -1  -11    1      1.18      0.00
    0  -11    1      1.47      0.00
    1  -11    1      1.21      0.00
    2  -11    1      1.30      0.00
    3  -11    1      1.38      0.00
    4  -11    1     -0.09      0.00
    5  -11    1     -0.86      0.00
   -6  -10    1      0.73      0.00
   -5  -10    1      0.62      0.00
   -4  -10    1     -0.11      0.00
   -3  -10    1      0.09      0.00
   -2  -10    1      0.33      0.00
   -1  -10    1     -0.13      0.00
    0  -10    1     -0.48      0.00
    1  -10    1      0.21      0.00
    2  -10    1      0.24      0.00
    3  -10    1     -0.70      0.00
    4  -10    1      0.17      0.00
    5  -10    1      0.87      0.00
    6  -10    1      1.41      0.00
   -6   -9    1     -0.37      0.00
   -5   -9    1     -0.56      0.00
   -4   -9    1     -0.07      0.00
   -3   -9    1     -0.60      0.00
   -2   -9    1     -1.32      0.00
   -1   -9    1     -0.45      0.00
    0   -9    1      0.25      0.00
    1   -9    1     -1.39      0.00
    2   -9    1     -2.20      0.00
    3   -9    1     -0.44      0.00
    4   -9    1      0.19      0.00
    5   -9    1      0.42      0.00
    6   -9    1      0.15      0.00
   -7   -8    1     -0.27      0.00
   -6   -8    1     -0.16      0.00
   -5   -8    1      0.02      0.00
   -4   -8    1     -0.68      0.00
   -3   -8    1     -0.89      0.00
   -2   -8    1     -0.15      0.00
   -1   -8    1     -0.89      0.00
    0   -8    1     -2.10      0.00
    1   -8    1     -0.06      0.00
    2   -8    1      1.41      0.00
    3   -8    1     -0.21      0.00
    4   -8    1     -0.61      0.00
    5   -8    1     -0.16      0.00
    6   -8    1      0.30      0.00
    7   -8    1      1.53      0.00
   -7   -7    1      0.53      0.00
   -6   -7    1     -0.01      0.00
   -5   -7    1     -1.17      0.00
   -4   -7    1     -1.13      0.00
   -3   -7    1     -0.98      0.00
   -2   -7    1     -2.62      0.00
   -1   -7    1     -2.61      0.00
    0   -7    1      0.45      0.00
    1   -7    1     -0.38      0.00
    2   -7    1     -1.72      0.00
    3   -7    1      0.52      0.00
    4   -7    1      1.12      0.00
    5   -7    1      0.10      0.00
    6   -7    1      0.07      0.00
    7   -7    1     -0.56      0.00
   -7   -6    1      0.35      0.00
   -6   -6    1     -0.44      0.00
   -5   -6    1     -0.12      0.00
   -4   -6    1     -0.51      0.00
   -3   -6    1     -1.24      0.00
   -2   -6    1      0.86      0.00
   -1   -6    1      2.67      0.00
    0   -6    1     -1.44      0.00
    1   -6    1     -1.31      0.00
    2   -6    1      1.77      0.00
    3   -6    1      0.37      0.00
    4   -6    1     -0.22      0.00
    5   -6    1      0.73      0.00
    6   -6    1      0.05      0.00
    7   -6    1     -0.09      0.00
   -8   -5    1     -1.82      0.00
   -7   -5    1     -0.99      0.00
   -6   -5    1      0.17      0.00
   -5   -5    1     -0.35      0.00
   -4   -5    1     -0.44      0.00
   -3   -5    1      1.77      0.00
   -2   -5    1      2.29      0.00
   -1   -5    1      0.38      0.00
    0   -5    1      5.90      0.00
    2   -5    1      1.64      0.00
    3   -5    1      1.47      0.00
    4   -5    1      1.50      0.00
    5   -5    1     -0.32      0.00
    6   -5    1      0.30      0.00
    7   -5    1      1.04      0.00
   -8   -4    1      0.68      0.00
   -7   -4    1      0.17      0.00
   -6   -4    1     -0.50      0.00
   -5   -4    1      1.25      0.00
   -4   -4    1      2.89      0.00
   -3   -4    1      0.99      0.00
   -2   -4    1      0.13      0.00
   -1   -4    1      5.45      0.00
    0   -4    1      0.54      0.00
    1   -4    1     -4.40      0.00
    2   -4    1      1.53      0.00
    3   -4    1      1.57      0.00
    4   -4    1     -0.97      0.00
    5   -4    1     -0.02      0.00
    6   -4    1     -0.24      0.00
    7   -4    1     -1.70      0.00
    8   -4    1     -1.96      0.00
   -8   -3    1     -2.13      0.00
   -7   -3    1     -2.19      0.00
   -6   -3    1      0.33      0.00
   -5   -3    1      1.96      0.00
   -4   -3    1      2.94      0.00
   -2   -3    1      9.86      0.00
   -1   -3    1      0.58      0.00
    0   -3    1     -0.16      0.00
    1   -3    1      5.58      0.00
    2   -3    1     -2.23      0.00
    3   -3    1     -4.85      0.00
    4   -3    1     -0.94      0.00
    5   -3    1     -0.85      0.00
    6   -3    1     -1.62      0.00
    7   -3    1     -1.04      0.00
    8   -3    1     -0.54      0.00
   -8   -2    1     -1.52      0.00
   -7   -2    1      0.03      0.00
   -6   -2    1     -0.01      0.00
   -5   -2    1     -0.42      0.00
   -4   -2    1     -0.08      0.00
   -3   -2    1     -1.79      0.00
   -2   -2    1     -5.40      0.00
   -1   -2    1      5.01      0.00
    0   -2    1      8.19      0.00
    1   -2    1     -4.53      0.00
    2   -2    1     -1.96      0.00
    3   -2    1      2.39      0.00
    4   -2    1     -0.76      0.00
    5   -2    1     -0.95      0.00
    6   -2    1      0.55      0.00
    7   -2    1      0.85      0.00
    8   -2    1      1.07      0.00
   -8   -1    1      1.77      0.00
   -7   -1    1      0.88      0.00
   -6   -1    1      0.08      0.00
   -5   -1    1     -1.26      0.00
   -4   -1    1     -4.71      0.00
   -3   -1    1     -8.69      0.00
   -2   -1    1    -10.26      0.00
   -1   -1    1    -26.97      0.00
    0   -1    1    -38.17      0.00
    2   -1    1     -7.19      0.00
    3   -1    1     -6.48      0.00
    4   -1    1     -1.91      0.00
    5   -1    1     -0.08      0.00
    6   -1    1     -0.50      0.00
    7   -1    1     -0.10      0.00
    8   -1    1      0.23      0.00
   -8    0    1      0.54      0.00
   -7    0    1      0.89      0.00
   -6    0    1      0.09      0.00
   -5    0    1     -1.20      0.00
   -4    0    1     -0.10      0.00
   -3    0    1      1.70      0.00
   -2    0    1     -4.61      0.00
   -1    0    1      1.02      0.00
    0    0    1     15.26      0.00
    1    0    1      3.91      0.00
    2    0    1     -4.29      0.00
    3    0    1      0.67      0.00
    4    0    1      0.83      0.00
    5    0    1      0.28      0.00
    6    0    1      0.71      0.00
    7    0    1     -0.19      0.00
    8    0    1     -1.56      0.00
   -8    1    1     -0.12      0.00
   -7    1    1     -0.59      0.00
   -6    1    1     -0.96      0.00
   -5    1    1     -0.32      0.00
   -4    1    1     -1.14      0.00
   -3    1    1     -3.14      0.00
   -2    1    1      7.21      0.00
    0    1    1      6.76      0.00
    1    1    1     12.56      0.00
    4    1    1      3.46      0.00
    5    1    1      2.44      0.00
    6    1    1     -0.16      0.00
    7    1    1     -2.11      0.00
    8    1    1     -1.05      0.00
   -8    2    1     -1.20      0.00
   -7    2    1     -1.14      0.00
   -6    2    1     -0.28      0.00
   -5    2    1     -0.44      0.00
   -4    2    1     -0.12      0.00
   -3    2    1      3.49      0.00
   -2    2    1     -0.70      0.00
   -1    2    1     -6.32      0.00
    0    2    1      5.32      0.00
    1    2    1      5.97      0.00
    2    2    1     -1.66      0.00
    3    2    1      1.77      0.00
    4    2    1      2.65      0.00
    5    2    1      0.07      0.00
    6    2    1     -0.08      0.00
    7    2    1      2.12      0.00
    8    2    1      1.88      0.00
   -8    3    1      1.33      0.00
   -7    3    1      1.97      0.00
   -6    3    1      1.21      0.00
   -5    3    1      1.66      0.00
   -4    3    1      3.54      0.00
   -3    3    1      2.33      0.00
   -2    3    1      5.02      0.00
    0    3    1      3.56      0.00
    1    3    1     -2.57      0.00
    2    3    1      1.54      0.00
    3    3    1     -1.33      0.00
    4    3    1     -3.07      0.00
    5    3    1     -0.91      0.00
    6    3    1      0.11      0.00
    7    3    1     -1.50      0.00
    8    3    1     -1.41      0.00
   -8    4    1      0.71      0.00
   -7    4    1      0.13      0.00
   -6    4    1      0.55      0.00
   -5    4    1      0.47      0.00
   -4    4    1     -1.07      0.00
   -3    4    1      0.51      0.00
   -2    4    1      1.36      0.00
   -1    4    1     -4.45      0.00
    0    4    1     -1.58      0.00
    1    4    1      2.44      0.00
    2    4    1     -2.87      0.00
    3    4    1     -3.02      0.00
    4    4    1     -0.87      0.00
    5    4    1     -0.95      0.00
    6    4    1     -0.59      0.00
    7    4    1      2.05      0.00
    8    4    1      3.05      0.00
   -8    5    1     -0.81      0.00
   -7    5    1     -0.09      0.00
   -6    5    1      0.10      0.00
   -5    5    1      0.17      0.00
   -4    5    1      1.05      0.00
   -3    5    1     -1.01      0.00
   -2    5    1     -3.91      0.00
   -1    5    1     -1.12      0.00
    0    5    1     -2.97      0.00
    1    5    1     -7.77      0.00
    2    5    1     -3.64      0.00
    3    5    1     -0.82      0.00
    4    5    1     -1.52      0.00
    5    5    1     -0.91      0.00
    6    5    1      0.69      0.00
    7    5    1      0.36      0.00
   -7    6    1      1.26      0.00
   -6    6    1      0.54      0.00
   -5    6    1      0.23      0.00
   -4    6    1     -0.97      0.00
   -3    6    1      0.03      0.00
   -2    6    1      2.07      0.00
   -1    6    1     -0.89      0.00
    0    6    1     -2.24      0.00
    1    6    1      1.49      0.00
    2    6    1      0.52      0.00
    3    6    1     -1.14      0.00
    4    6    1      0.01      0.00
    5    6    1      0.44      0.00
    6    6    1     -0.49      0.00
    7    6    1     -0.39      0.00
   -7    7    1     -0.63      0.00
   -6    7    1     -0.26      0.00
   -5    7    1     -0.77      0.00
   -4    7    1     -0.16      0.00
   -3    7    1     -0.91      0.00
   -2    7    1     -2.82      0.00
   -1    7    1     -0.81      0.00
    0    7    1      1.71      0.00
    1    7    1     -0.32      0.00
    2    7    1     -0.39      0.00
    3    7    1      1.50      0.00
    4    7    1      1.17      0.00
    5    7    1      0.41      0.00
    6    7    1      0.68      0.00
    7    7    1      0.28      0.00
   -7    8    1      0.19      0.00
   -6    8    1      0.13      0.00
   -5    8    1      0.93      0.00
   -4    8    1      0.06      0.00
   -3    8    1     -0.37      0.00
   -2    8    1      1.04      0.00
   -1    8    1      0.53      0.00
    0    8    1     -0.90      0.00
    1    8    1      0.76      0.00
    2    8    1      1.81      0.00
    3    8    1      0.47      0.00
    4    8    1      0.57      0.00
    5    8    1      1.40      0.00
    6    8    1      0.73      0.00
   -6    9    1     -0.79      0.00
   -5    9    1     -1.29      0.00
   -4    9    1     -0.34      0.00
   -3    9    1      1.27      0.00
   -2    9    1      1.04      0.00
   -1    9    1      1.18      0.00
    0    9    1      2.08      0.00
    1    9    1      1.52      0.00
    2    9    1      0.55      0.00
    3    9    1      1.08      0.00
    4    9    1      0.62      0.00
    5    9    1     -0.81      0.00
    6    9    1     -0.78      0.00
   -6   10    1     -0.73      0.00
   -5   10    1     -0.20      0.00
   -4   10    1      0.23      0.00
   -3   10    1     -0.41      0.00
   -2   10    1     -0.16      0.00
   -1   10    1      0.01      0.00
    0   10    1     -0.32      0.00
    1   10    1     -0.15      0.00
    2   10    1      0.64      0.00
    3   10    1      0.16      0.00
    4   10    1     -0.50      0.00
    5   10    1      0.01      0.00
   -5   11    1      0.08      0.00
   -4   11    1     -0.64      0.00
   -3   11    1     -0.56      0.00
   -2   11    1     -0.67      0.00
   -1   11    1     -0.73      0.00
    0   11    1     -0.74      0.00
    1   11    1     -0.67      0.00
    2   11    1     -0.94      0.00
    3   11    1     -0.75      0.00
    4   11    1     -0.17      0.00
    5   11    1     -0.34      0.00
   -4   12    1      0.96      0.00
   -3   12    1      0.69      0.00
   -2   12    1      0.39      0.00
   -1   12    1      0.16      0.00
    0   12    1      0.27      0.00
    1   12    1     -0.02      0.00
    2   12    1     -0.32      0.00
    3   12    1     -0.11      0.00
    4   12    1      0.00      0.00
   -3   13    1     -0.19      0.00
   -2   13    1     -0.26      0.00
   -1   13    1     -0.46      0.00
    0   13    1     -0.80      0.00
    1   13    1     -0.31      0.00
    2   13    1      0.52      0.00
   -1   14    1      0.15      0.00
    0   14    1      0.07      0.00
   -1  -14    2      0.72      0.00
    0  -14    2      0.13      0.00
   -3  -13    2     -0.52      0.00
   -2  -13    2     -0.15      0.00
   -1  -13    2     -0.27      0.00
    0  -13    2      0.20      0.00
    1  -13    2      0.29      0.00
    2  -13    2      0.66      0.00
    3  -13    2      0.68      0.00
   -4  -12    2     -0.36      0.00
   -3  -12    2     -0.17      0.00
   -2  -12    2     -0.75      0.00
   -1  -12    2     -0.79      0.00
    0  -12    2     -1.02      0.00
    1  -12    2     -0.88      0.00
    2  -12    2     -1.24      0.00
    3  -12    2     -1.39      0.00
    4  -12    2     -0.35      0.00
   -5  -11    2     -0.05      0.00
   -4  -11    2      0.13      0.00
   -3  -11    2     -0.16      0.00
   -2  -11    2      0.12      0.00
   -1  -11    2      0.31      0.00
    0  -11    2      0.54      0.00
    1  -11    2     -0.03      0.00
    2  -11    2     -0.15      0.00
    3  -11    2      0.37      0.00
    4  -11    2     -0.35      0.00
    5  -11    2     -0.85      0.00
   -6  -10    2      0.77      0.00
   -5  -10    2      0.72      0.00
   -4  -10    2      0.58      0.00
   -3  -10    2      1.29      0.00
   -2  -10    2      1.33      0.00
   -1  -10    2      0.56      0.00
    0  -10    2      0.10      0.00
    1  -10    2      1.22      0.00
    2  -10    2      1.78      0.00
    3  -10    2      0.41      0.00
    4  -10    2     -0.18      0.00
    5  -10    2     -0.65      0.00
   -6   -9    2     -0.10      0.00
   -5   -9    2     -0.02      0.00
   -4   -9    2      0.38      0.00
   -3   -9    2     -0.05      0.00
   -2   -9    2     -0.25      0.00
   -1   -9    2      0.76      0.00
    0   -9    2      1.38      0.00
    1   -9    2     -0.25      0.00
    2   -9    2     -1.41      0.00
    3   -9    2     -0.21      0.00
    4   -9    2      0.26      0.00
    5   -9    2      0.70      0.00
    6   -9    2      0.10      0.00
   -7   -8    2     -0.55      0.00
   -6   -8    2      0.03      0.00
   -5   -8    2      0.66      0.00
   -4   -8    2      0.58      0.00
   -3   -8    2      0.90      0.00
   -2   -8    2      1.69      0.00
   -1   -8    2      0.81      0.00
    0   -8    2     -0.80      0.00
    1   -8    2      0.33      0.00
    2   -8    2      1.04      0.00
    3   -8    2     -0.77      0.00
    4   -8    2     -0.89      0.00
    5   -8    2     -0.35      0.00
    6   -8    2     -0.16      0.00
   -7   -7    2      0.47      0.00
   -6   -7    2      0.31      0.00
   -5   -7    2     -0.06      0.00
   -4   -7    2      0.29      0.00
   -3   -7    2      0.05      0.00
   -2   -7    2     -1.91      0.00
   -1   -7    2     -1.88      0.00
    0   -7    2      1.24      0.00
    1   -7    2      0.36      0.00
    2   -7    2     -1.67      0.00
    3   -7    2     -0.35      0.00
    4   -7    2     -0.02      0.00
    5   -7    2     -0.43      0.00
    6   -7    2      0.38      0.00
    7   -7    2      0.30      0.00
   -7   -6    2      0.45      0.00
   -6   -6    2     -0.01      0.00
   -5   -6    2     -0.07      0.00
   -4   -6    2     -0.93      0.00
   -3   -6    2     -2.33      0.00
   -2   -6    2     -1.57      0.00
   -1   -6    2     -0.91      0.00
    0   -6    2     -5.08      0.00
    1   -6    2     -4.58      0.00
    2   -6    2     -0.76      0.00
    3   -6    2     -0.93      0.00
    4   -6    2     -0.58      0.00
    5   -6    2      0.62      0.00
    6   -6    2     -0.37      0.00
    7   -6    2     -0.54      0.00
   -8   -5    2     -0.05      0.00
   -7   -5    2      0.49      0.00
   -6   -5    2      0.15      0.00
   -5   -5    2     -1.44      0.00
   -4   -5    2     -1.97      0.00
   -3   -5    2     -0.23      0.00
   -2   -5    2     -0.45      0.00
   -1   -5    2     -3.40      0.00
    0   -5    2      1.16      0.00
    2   -5    2     -1.67      0.00
    3   -5    2     -0.58      0.00
    4   -5    2      0.85      0.00
    5   -5    2     -0.47      0.00
    6   -5    2      0.16      0.00
    7   -5    2      1.30      0.00
   -8   -4    2      1.58      0.00
   -7   -4    2      0.90      0.00
   -6   -4    2     -0.55      0.00
   -5   -4    2     -1.07      0.00
   -4   -4    2     -2.00      0.00
   -3   -4    2     -5.05      0.00
   -2   -4    2     -5.39      0.00
   -1   -4    2      2.36      0.00
    0   -4    2      1.20      0.00
    1   -4    2     -1.56      0.00
    2   -4    2      4.36      0.00
    3   -4    2      4.05      0.00
    4   -4    2      0.62      0.00
    5   -4    2      1.18      0.00
    6   -4    2      1.61      0.00
    7   -4    2      0.90      0.00
   -8   -3    2      0.38      0.00
   -7   -3    2     -0.52      0.00
   -6   -3    2     -0.08      0.00
   -5   -3    2      0.41      0.00
   -4   -3    2      0.59      0.00
   -3   -3    2      2.69      0.00
   -2   -3    2      4.83      0.00
   -1   -3    2     -3.75      0.00
    1   -3    2      4.51      0.00
    2   -3    2      0.07      0.00
    3   -3    2     -1.91      0.00
    4   -3    2      1.00      0.00
    5   -3    2      0.39      0.00
    6   -3    2     -0.74      0.00
    7   -3    2     -0.77      0.00
    8   -3    2     -1.20      0.00
   -8   -2    2     -2.00      0.00
   -7   -2    2     -1.05      0.00
   -6   -2    2      0.07      0.00
   -5   -2    2      2.01      0.00
   -4   -2    2      5.38      0.00
    1   -2    2      9.34      0.00
    2   -2    2      4.25      0.00
    3   -2    2      4.18      0.00
    4   -2    2      0.42      0.00
    5   -2    2     -0.08      0.00
    6   -2    2      0.59      0.00
    7   -2    2     -0.09      0.00
    8   -2    2     -0.08      0.00
   -8   -1    2     -0.41      0.00
   -7   -1    2     -0.91      0.00
   -6   -1    2     -0.07      0.00
   -5   -1    2      0.89      0.00
   -4   -1    2     -0.17      0.00
   -3   -1    2     -1.28      0.00
   -2   -1    2      3.86      0.00
   -1   -1    2     -3.92      0.00
    0   -1    2    -13.47      0.00
    1   -1    2     -1.16      0.00
    2   -1    2      3.10      0.00
    3   -1    2     -1.39      0.00
    4   -1    2     -0.81      0.00
    5   -1    2     -0.69      0.00
    6   -1    2     -1.26      0.00
    7   -1    2     -0.07      0.00
    8   -1    2      0.85      0.00
   -8    0    2     -0.29      0.00
   -7    0    2      0.48      0.00
   -6    0    2      0.74      0.00
   -5    0    2     -0.12      0.00
   -4    0    2      0.19      0.00
   -3    0    2      0.78      0.00
   -2    0    2    -10.78      0.00
   -1    0    2    -16.56      0.00
    3    0    2     -6.32      0.00
    4    0    2     -2.99      0.00
    5    0    2     -2.09      0.00
    6    0    2      0.06      0.00
    7    0    2      0.84      0.00
    8    0    2      0.04      0.00
   -8    1    2      0.95      0.00
   -7    1    2      0.94      0.00
   -6    1    2      0.08      0.00
   -5    1    2     -0.03      0.00
   -4    1    2     -0.63      0.00
   -3    1    2     -4.10      0.00
   -2    1    2      1.35      0.00
   -1    1    2      5.04      0.00
    0    1    2     -6.35      0.00
    1    1    2     -3.62      0.00
    2    1    2      2.29      0.00
    3    1    2     -2.03      0.00
    4    1    2     -1.89      0.00
    5    1    2      0.63      0.00
    6    1    2      0.13      0.00
    7    1    2     -1.69      0.00
    8    1    2     -1.34      0.00
   -8    2    2     -1.29      0.00
   -7    2    2     -1.94      0.00
   -6    2    2     -1.45      0.00
   -5    2    2     -2.17      0.00
   -4    2    2     -3.93      0.00
   -3    2    2     -2.28      0.00
   -2    2    2     -5.82      0.00
   -1    2    2    -10.79      0.00
    0    2    2      1.14      0.00
    1    2    2      5.33      0.00
    2    2    2      0.55      0.00
    3    2    2      3.25      0.00
    4    2    2      3.67      0.00
    5    2    2      1.05      0.00
    6    2    2      0.18      0.00
    7    2    2      1.25      0.00
    8    2    2      0.68      0.00
   -8    3    2     -0.14      0.00
   -7    3    2      0.51      0.00
   -6    3    2     -0.22      0.00
   -5    3    2     -0.12      0.00
   -4    3    2      1.45      0.00
   -3    3    2     -0.53      0.00
   -2    3    2     -0.21      0.00
   -1    3    2      6.56      0.00
    0    3    2      1.97      0.00
    1    3    2     -1.05      0.00
    2    3    2      4.31      0.00
    3    3    2      2.96      0.00
    4    3    2      0.84      0.00
    5    3    2      1.06      0.00
    6    3    2      0.37      0.00
    7    3    2     -2.06      0.00
   -8    4    2      0.59      0.00
   -7    4    2     -0.30      0.00
   -6    4    2     -0.08      0.00
   -5    4    2      0.06      0.00
   -4    4    2     -0.51      0.00
   -3    4    2      2.29      0.00
   -2    4    2      5.38      0.00
   -1    4    2      1.98      0.00
    0    4    2      5.23      0.00
    1    4    2      9.11      0.00
    2    4    2      3.11      0.00
    3    4    2      0.59      0.00
    4    4    2      1.21      0.00
    5    4    2      0.37      0.00
    6    4    2     -0.79      0.00
    7    4    2      0.05      0.00
   -8    5    2     -1.21      0.00
   -7    5    2     -0.18      0.00
   -6    5    2      0.07      0.00
   -5    5    2      0.12      0.00
   -4    5    2      1.00      0.00
   -3    5    2     -0.42      0.00
   -2    5    2     -2.36      0.00
   -1    5    2      1.61      0.00
    0    5    2      1.66      0.00
    1    5    2     -3.12      0.00
    2    5    2     -1.10      0.00
    3    5    2      0.52      0.00
    4    5    2     -0.76      0.00
    5    5    2     -0.87      0.00
    6    5    2      0.29      0.00
    7    5    2      0.38      0.00
   -8    6    2      1.07      0.00
   -7    6    2      0.66      0.00
   -6    6    2      0.63      0.00
   -5    6    2      1.12      0.00
   -4    6    2      0.32      0.00
   -3    6    2      1.18      0.00
   -2    6    2      3.02      0.00
   -1    6    2     -0.08      0.00
    0    6    2     -2.69      0.00
    1    6    2      0.10      0.00
    2    6    2     -0.57      0.00
    3    6    2     -2.42      0.00
    4    6    2     -1.51      0.00
    5    6    2     -0.64      0.00
    6    6    2     -0.65      0.00
    7    6    2      0.14      0.00
   -7    7    2      0.25      0.00
   -6    7    2      0.10      0.00
   -5    7    2     -1.00      0.00
   -4    7    2     -0.04      0.00
   -3    7    2      0.10      0.00
   -2    7    2     -1.37      0.00
   -1    7    2     -0.14      0.00
    0    7    2      1.68      0.00
    1    7    2     -1.03      0.00
    2    7    2     -2.01      0.00
    3    7    2     -0.27      0.00
    4    7    2     -0.54      0.00
    5    7    2     -1.18      0.00
    6    7    2     -0.42      0.00
   -7    8    2      0.51      0.00
   -6    8    2      0.30      0.00
   -5    8    2      1.22      0.00
   -4    8    2      0.00      0.00
   -3    8    2     -1.34      0.00
   -2    8    2     -0.82      0.00
   -1    8    2     -1.19      0.00
    0    8    2     -2.73      0.00
    1    8    2     -1.52      0.00
    2    8    2     -0.15      0.00
    3    8    2     -0.92      0.00
    4    8    2     -0.04      0.00
    5    8    2      1.37      0.00
    6    8    2      0.89      0.00
   -6    9    2      1.26      0.00
   -5    9    2      0.09      0.00
   -4    9    2     -0.17      0.00
   -3    9    2      0.42      0.00
   -2    9    2     -0.04      0.00
   -1    9    2     -0.29      0.00
    0    9    2      0.65      0.00
    1    9    2      0.52      0.00
    2    9    2     -0.51      0.00
    3    9    2      0.39      0.00
    4    9    2      0.66      0.00
    5    9    2     -0.18      0.00
    6    9    2      0.05      0.00
   -6   10    2     -1.05      0.00
   -5   10    2     -0.34      0.00
   -4   10    2      0.45      0.00
   -3   10    2      0.39      0.00
   -2   10    2      0.69      0.00
   -1   10    2      1.07      0.00
    0   10    2      0.85      0.00
    1   10    2      0.66      0.00
    2   10    2      1.44      0.00
    3   10    2      0.94      0.00
    4   10    2      0.24      0.00
    5   10    2      0.55      0.00
   -5   11    2     -0.91      0.00
   -4   11    2     -1.08      0.00
   -3   11    2     -0.69      0.00
   -2   11    2     -0.34      0.00
   -1   11    2     -0.22      0.00
    0   11    2     -0.20      0.00
    1   11    2      0.40      0.00
    2   11    2      0.20      0.00
    3   11    2     -0.06      0.00
    4   11    2     -0.21      0.00
   -4   12    2      0.64      0.00
   -3   12    2      0.42      0.00
   -2   12    2      0.32      0.00
   -1   12    2      0.47      0.00
    0   12    2      0.83      0.00
    1   12    2      0.09      0.00
    2   12    2     -0.25      0.00
    3   12    2      0.26      0.00
   -3   13    2     -0.02      0.00
   -2   13    2     -0.37      0.00
   -1   13    2     -0.16      0.00
    0   13    2     -0.27      0.00
    1   13    2      0.16      0.00
    2   13    2      0.46      0.00
   -3  -13    3     -0.04      0.00
   -2  -13    3      0.61      0.00
   -1  -13    3      0.32      0.00
    0  -13    3      0.53      0.00
    1  -13    3      0.47      0.00
    2  -13    3      0.97      0.00
   -4  -12    3      0.10      0.00
   -3  -12    3      0.26      0.00
   -2  -12    3     -0.32      0.00
   -1  -12    3     -0.16      0.00
    0  -12    3     -0.33      0.00
    1  -12    3      0.13      0.00
    2  -12    3      0.28      0.00
    3  -12    3      0.12      0.00
    4  -12    3      0.48      0.00
   -5  -11    3     -0.52      0.00
   -4  -11    3     -0.85      0.00
   -3  -11    3     -1.43      0.00
   -2  -11    3     -0.91      0.00
   -1  -11    3     -0.49      0.00
    0  -11    3     -0.12      0.00
    1  -11    3     -0.82      0.00
    2  -11    3     -1.32      0.00
    3  -11    3     -0.61      0.00
    4  -11    3     -0.09      0.00
   -6  -10    3      0.14      0.00
   -5  -10    3     -0.11      0.00
   -4  -10    3     -0.01      0.00
   -3  -10    3      0.77      0.00
   -2  -10    3      0.48      0.00
   -1  -10    3     -0.31      0.00
    0  -10    3     -0.64      0.00
    1  -10    3      0.43      0.00
    2  -10    3      1.35      0.00
    3  -10    3      0.67      0.00
    4  -10    3      0.06      0.00
    5  -10    3     -0.95      0.00
   -6   -9    3      0.26      0.00
   -5   -9    3      0.04      0.00
   -4   -9    3     -0.06      0.00
   -3   -9    3     -0.71      0.00
   -2   -9    3     -0.73      0.00
   -1   -9    3      0.21      0.00
    0   -9    3      0.74      0.00
    1   -9    3     -0.19      0.00
    2   -9    3     -0.57      0.00
    3   -9    3      0.58      0.00
    4   -9    3      0.48      0.00
    5   -9    3      0.60      0.00
    6   -9    3      0.12      0.00
   -7   -8    3     -0.80      0.00
   -6   -8    3     -0.29      0.00
   -5   -8    3     -0.05      0.00
   -4   -8    3     -0.22      0.00
   -3   -8    3      0.62      0.00
   -2   -8    3      1.87      0.00
   -1   -8    3      0.93      0.00
    0   -8    3     -0.87      0.00
    1   -8    3      0.12      0.00
    2   -8    3      1.23      0.00
    3   -8    3      0.01      0.00
    4   -8    3     -0.11      0.00
    5   -8    3     -0.13      0.00
    6   -8    3     -0.50      0.00
   -7   -7    3     -0.06      0.00
   -6   -7    3     -0.13      0.00
   -5   -7    3      0.35      0.00
   -4   -7    3      1.66      0.00
   -3   -7    3      2.18      0.00
   -2   -7    3      0.86      0.00
   -1   -7    3      1.24      0.00
    0   -7    3      4.13      0.00
    1   -7    3      3.11      0.00
    2   -7    3      0.45      0.00
    3   -7    3      0.46      0.00
    4   -7    3      0.04      0.00
    5   -7    3     -0.26      0.00
    6   -7    3      0.66      0.00
   -8   -6    3     -0.04      0.00
   -7   -6    3     -0.38      0.00
   -6   -6    3      0.41      0.00
   -5   -6    3      1.22      0.00
   -4   -6    3      0.71      0.00
   -3   -6    3     -0.59      0.00
   -2   -6    3      0.33      0.00
   -1   -6    3      1.39      0.00
    0   -6    3     -2.06      0.00
    1   -6    3     -1.89      0.00
    2   -6    3      0.81      0.00
    3   -6    3     -0.34      0.00
    4   -6    3     -0.76      0.00
    5   -6    3      0.41      0.00
    6   -6    3     -0.34      0.00
    7   -6    3     -0.60      0.00
   -8   -5    3     -0.73      0.00
   -7   -5    3      0.30      0.00
   -6   -5    3      0.51      0.00
   -5   -5    3      0.19      0.00
   -4   -5    3      1.02      0.00
   -3   -5    3      3.09      0.00
   -2   -5    3      1.82      0.00
   -1   -5    3     -3.18      0.00
    0   -5    3     -1.14      0.00
    1   -5    3     -0.50      0.00
    2   -5    3     -4.38      0.00
    3   -5    3     -2.93      0.00
    4   -5    3     -0.51      0.00
    5   -5    3     -1.33      0.00
    6   -5    3     -1.27      0.00
    7   -5    3     -0.75      0.00
   -8   -4    3      0.55      0.00
   -7   -4    3      0.44      0.00
   -6   -4    3     -0.03      0.00
   -5   -4    3     -0.35      0.00
   -4   -4    3     -0.90      0.00
   -3   -4    3     -3.01      0.00
   -2   -4    3     -3.54      0.00
   -1   -4    3      2.66      0.00
    0   -4    3      0.77      0.00
    1   -4    3     -3.22      0.00
    2   -4    3      0.88      0.00
    3   -4    3      1.23      0.00
    4   -4    3     -0.89      0.00
    5   -4    3      0.03      0.00
    6   -4    3      0.43      0.00
    7   -4    3      0.46      0.00
   -8   -3    3      1.48      0.00
   -7   -3    3      0.88      0.00
   -6   -3    3     -0.32      0.00
   -5   -3    3     -2.40      0.00
   -4   -3    3     -5.25      0.00
   -3   -3    3     -6.81      0.00
   -2   -3    3     -6.94      0.00
    1   -3    3     -2.48      0.00
    2   -3    3     -1.89      0.00
    3   -3    3     -1.96      0.00
    4   -3    3      0.60      0.00
    5   -3    3      0.14      0.00
    6   -3    3     -0.05      0.00
    7   -3    3      0.88      0.00
   -8   -2    3      0.35      0.00
   -7   -2    3      0.59      0.00
   -6   -2    3     -0.15      0.00
   -5   -2    3     -0.56      0.00
   -4   -2    3      0.55      0.00
   -3   -2    3      1.16      0.00
   -2   -2    3     -2.43      0.00
   -1   -2    3      4.81      0.00
    0   -2    3      8.82      0.00
    1   -2    3     -1.41      0.00
    2   -2    3     -1.89      0.00
    3   -2    3      1.53      0.00
    4   -2    3      0.49      0.00
    5   -2    3      0.79      0.00
    6   -2    3      1.22      0.00
    7   -2    3     -0.14      0.00
   -8   -1    3      0.27      0.00
   -7   -1    3     -0.68      0.00
   -6   -1    3     -0.48      0.00
   -5   -1    3      0.92      0.00
   -4   -1    3      1.33      0.00
   -3   -1    3      1.70      0.00
   -2   -1    3     11.88      0.00
    0   -1    3     10.38      0.00
    1   -1    3     16.69      0.00
    2   -1    3     13.38      0.00
    3   -1    3      4.25      0.00
    4   -1    3      2.29      0.00
    5   -1    3      1.56      0.00
    6   -1    3      0.13      0.00
    7   -1    3      0.35      0.00
   -8    0    3     -1.14      0.00
   -7    0    3     -0.88      0.00
   -6    0    3      0.17      0.00
   -5    0    3      0.48      0.00
   -4    0    3      1.04      0.00
   -3    0    3      4.10      0.00
   -2    0    3     -1.39      0.00
   -1    0    3     -2.94      0.00
    0    0    3      5.70      0.00
    1    0    3      0.82      0.00
    2    0    3     -2.14      0.00
    3    0    3      2.20      0.00
    4    0    3      1.06      0.00
    5    0    3     -1.23      0.00
    6    0    3     -0.62      0.00
    7    0    3      0.29      0.00
   -8    1    3      1.12      0.00
   -7    1    3      1.59      0.00
   -6    1    3      1.27      0.00
   -5    1    3      1.95      0.00
   -4    1    3      3.57      0.00
   -3    1    3      1.66      0.00
   -2    1    3      5.06      0.00
   -1    1    3      6.47      0.00
    0    1    3     -6.45      0.00
    2    1    3     -2.81      0.00
    3    1    3     -4.62      0.00
    4    1    3     -3.66      0.00
    5    1    3     -0.97      0.00
    6    1    3     -0.33      0.00
    7    1    3     -0.68      0.00
   -8    2    3     -0.73      0.00
   -7    2    3     -1.12      0.00
   -6    2    3     -0.09      0.00
   -5    2    3     -0.10      0.00
   -4    2    3     -1.74      0.00
   -3    2    3      0.23      0.00
   -2    2    3     -1.58      0.00
   -1    2    3     -8.07      0.00
    0    2    3     -2.12      0.00
    1    2    3     -0.50      0.00
    2    2    3     -4.95      0.00
    3    2    3     -2.60      0.00
    4    2    3     -0.78      0.00
    5    2    3     -0.88      0.00
    6    2    3     -0.03      0.00
    7    2    3      1.48      0.00
   -8    3    3     -0.02      0.00
   -7    3    3      0.75      0.00
   -6    3    3     -0.05      0.00
   -5    3    3     -0.66      0.00
   -4    3    3     -0.34      0.00
   -3    3    3     -3.66      0.00
   -2    3    3     -6.34      0.00
   -1    3    3     -2.39      0.00
    1    3    3     -8.24      0.00
    2    3    3     -1.64      0.00
    3    3    3     -0.04      0.00
    4    3    3     -0.55      0.00
    5    3    3      0.24      0.00
    6    3    3      0.70      0.00
    7    3    3     -0.32      0.00
   -8    4    3      0.46      0.00
   -7    4    3     -0.81      0.00
   -6    4    3     -0.58      0.00
   -5    4    3     -0.31      0.00
   -4    4    3     -0.83      0.00
   -3    4    3      0.86      0.00
   -2    4    3      2.50      0.00
   -1    4    3     -2.09      0.00
    0    4    3     -0.51      0.00
    1    4    3      4.29      0.00
    2    4    3      1.34      0.00
    3    4    3      0.06      0.00
    4    4    3      1.26      0.00
    5    4    3      1.18      0.00
    6    4    3      0.11      0.00
    7    4    3     -0.21      0.00
   -8    5    3     -1.26      0.00
   -7    5    3     -0.30      0.00
   -6    5    3     -0.61      0.00
   -5    5    3     -1.06      0.00
   -4    5    3     -0.35      0.00
   -3    5    3     -1.28      0.00
   -2    5    3     -2.78      0.00
   -1    5    3      1.64      0.00
    0    5    3      3.90      0.00
    1    5    3      0.62      0.00
    2    5    3      1.84      0.00
    3    5    3      3.03      0.00
    4    5    3      1.56      0.00
    5    5    3      0.56      0.00
    6    5    3      0.24      0.00
    7    5    3     -0.58      0.00
   -8    6    3      0.78      0.00
   -7    6    3     -0.28      0.00
   -6    6    3      0.10      0.00
   -5    6    3      1.01      0.00
   -4    6    3      0.02      0.00
   -3    6    3      0.16      0.00
   -2    6    3      1.73      0.00
   -1    6    3     -0.28      0.00
    0    6    3     -2.16      0.00
    1    6    3      1.23      0.00
    2    6    3      1.52      0.00
    3    6    3     -0.35      0.00
    4    6    3      0.14      0.00
    5    6    3      0.59      0.00
    6    6    3      0.04      0.00
   -7    7    3      0.11      0.00
   -6    7    3      0.03      0.00
   -5    7    3     -0.96      0.00
   -4    7    3      0.51      0.00
   -3    7    3      1.49      0.00
   -2    7    3      0.69      0.00
   -1    7    3      1.58      0.00
    0    7    3      3.55      0.00
    1    7    3      1.25      0.00
    2    7    3     -0.32      0.00
    3    7    3      0.59      0.00
    4    7    3     -0.52      0.00
    5    7    3     -1.59      0.00
    6    7    3     -0.79      0.00
   -7    8    3     -0.83      0.00
   -6    8    3     -1.15      0.00
   -5    8    3      0.24      0.00
   -4    8    3     -0.11      0.00
   -3    8    3     -0.60      0.00
   -2    8    3      0.31      0.00
   -1    8    3      0.59      0.00
    0    8    3     -1.14      0.00
    1    8    3     -0.82      0.00
    2    8    3      0.24      0.00
    3    8    3     -0.94      0.00
    4    8    3     -0.59      0.00
    5    8    3      0.45      0.00
    6    8    3     -0.13      0.00
   -6    9    3      1.64      0.00
   -5    9    3      0.27      0.00
   -4    9    3     -0.27      0.00
   -3    9    3     -0.15      0.00
   -2    9    3     -0.68      0.00
   -1    9    3     -1.39      0.00
    0    9    3     -0.71      0.00
    1    9    3     -0.67      0.00
    2    9    3     -1.91      0.00
    3    9    3     -0.96      0.00
    4    9    3     -0.30      0.00
    5    9    3     -0.70      0.00
   -6   10    3      0.46      0.00
   -5   10    3      1.00      0.00
   -4   10    3      0.96      0.00
   -3   10    3      0.48      0.00
   -2   10    3      0.20      0.00
   -1   10    3      0.38      0.00
    0   10    3      0.03      0.00
    1   10    3     -0.71      0.00
    2   10    3      0.08      0.00
    3   10    3      0.18      0.00
    4   10    3      0.37      0.00
    5   10    3      1.23      0.00
   -5   11    3     -1.02      0.00
   -4   11    3     -0.77      0.00
   -3   11    3     -0.51      0.00
   -2   11    3     -0.30      0.00
   -1   11    3     -0.47      0.00
    0   11    3     -0.69      0.00
    1   11    3      0.17      0.00
    2   11    3     -0.14      0.00
    3   11    3     -0.57      0.00
    4   11    3     -0.50      0.00
   -4   12    3     -0.65      0.00
   -3   12    3     -0.09      0.00
   -2   12    3      0.23      0.00
   -1   12    3      0.12      0.00
    0   12    3      0.34      0.00
    1   12    3     -0.34      0.00
    2   12    3     -0.19      0.00
    3   12    3      0.58      0.00
   -3   13    3      0.57      0.00
   -2   13    3     -0.06      0.00
   -1   13    3      0.58      0.00
    0   13    3      0.73      0.00
    1   13    3      0.96      0.00
    2   13    3      0.71      0.00
   -3  -13    4     -0.12      0.00
   -2  -13    4      0.44      0.00
   -1  -13    4     -0.05      0.00
    0  -13    4      0.09      0.00
    1  -13    4     -0.25      0.00
    2  -13    4     -0.32      0.00
   -4  -12    4      0.89      0.00
   -3  -12    4      1.02      0.00
   -2  -12    4      0.17      0.00
   -1  -12    4      0.22      0.00
    0  -12    4     -0.06      0.00
    1  -12    4      0.38      0.00
    2  -12    4      0.90      0.00
    3  -12    4      0.87      0.00
   -5  -11    4      0.30      0.00
   -4  -11    4     -0.24      0.00
   -3  -11    4     -0.84      0.00
   -2  -11    4     -0.04      0.00
   -1  -11    4      0.22      0.00
    0  -11    4      0.30      0.00
    1  -11    4     -0.28      0.00
    2  -11    4     -0.95      0.00
    3  -11    4     -0.80      0.00
    4  -11    4     -0.19      0.00
   -6  -10    4     -0.56      0.00
   -5  -10    4     -0.55      0.00
   -4  -10    4     -0.15      0.00
   -3  -10    4      0.46      0.00
   -2  -10    4     -0.22      0.00
   -1  -10    4     -0.76      0.00
    0  -10    4     -0.58      0.00
    1  -10    4      0.04      0.00
    2  -10    4      0.33      0.00
    3  -10    4     -0.06      0.00
    4  -10    4      0.02      0.00
    5  -10    4     -0.57      0.00
   -6   -9    4      0.34      0.00
   -5   -9    4      0.22      0.00
   -4   -9    4      0.13      0.00
   -3   -9    4     -0.78      0.00
   -2   -9    4     -1.01      0.00
   -1   -9    4      0.00      0.00
    0   -9    4      0.56      0.00
    1   -9    4     -0.17      0.00
    2   -9    4     -0.50      0.00
    3   -9    4      0.49      0.00
    4   -9    4      0.45      0.00
    5   -9    4      0.70      0.00
   -7   -8    4     -0.04      0.00
   -6   -8    4      0.24      0.00
   -5   -8    4     -0.36      0.00
   -4   -8    4     -1.63      0.00
   -3   -8    4     -1.52      0.00
   -2   -8    4     -0.40      0.00
   -1   -8    4     -1.31      0.00
    0   -8    4     -3.04      0.00
    1   -8    4     -2.14      0.00
    2   -8    4     -0.31      0.00
    3   -8    4     -0.21      0.00
    4   -8    4      0.07      0.00
    5   -8    4     -0.39      0.00
    6   -8    4     -0.78      0.00
   -7   -7    4     -0.05      0.00
   -6   -7    4     -0.72      0.00
   -5   -7    4     -0.83      0.00
   -4   -7    4      0.23      0.00
   -3   -7    4      1.04      0.00
   -2   -7    4     -0.08      0.00
   -1   -7    4      0.04      0.00
    0   -7    4      2.34      0.00
    1   -7    4      1.87      0.00
    2   -7    4      0.29      0.00
    3   -7    4      0.88      0.00
    4   -7    4      0.69      0.00
    5   -7    4      0.16      0.00
    6   -7    4      0.71      0.00
   -8   -6    4      0.10      0.00
   -7   -6    4     -0.90      0.00
   -6   -6    4     -0.45      0.00
   -5   -6    4      0.20      0.00
   -4   -6    4     -0.32      0.00
   -3   -6    4     -1.36      0.00
   -2   -6    4      0.60      0.00
   -1   -6    4      3.07      0.00
    0   -6    4      1.00      0.00
    1   -6    4      1.21      0.00
    2   -6    4      3.43      0.00
    3   -6    4      1.94      0.00
    4   -6    4      0.45      0.00
    5   -6    4      1.11      0.00
    6   -6    4      0.78      0.00
   -8   -5    4     -0.62      0.00
   -7   -5    4      0.37      0.00
   -6   -5    4      0.58      0.00
   -5   -5    4      0.45      0.00
   -4   -5    4      0.98      0.00
   -3   -5    4      2.70      0.00
   -2   -5    4      1.80      0.00
   -1   -5    4     -2.28      0.00
    0   -5    4      0.02      0.00
    1   -5    4      1.75      0.00
    2   -5    4     -1.16      0.00
    3   -5    4     -1.05      0.00
    4   -5    4      0.37      0.00
    5   -5    4     -0.18      0.00
    6   -5    4      0.15      0.00
    7   -5    4     -0.17      0.00
   -8   -4    4     -0.71      0.00
   -7   -4    4     -0.74      0.00
   -6   -4    4      0.30      0.00
   -5   -4    4      2.16      0.00
   -4   -4    4      4.27      0.00
   -3   -4    4      4.62      0.00
   -2   -4    4      4.58      0.00
   -1   -4    4      8.98      0.00
    0   -4    4      5.69      0.00
    1   -4    4     -0.50      0.00
    2   -4    4      0.48      0.00
    3   -4    4      0.49      0.00
    4   -4    4     -0.99      0.00
    5   -4    4     -0.34      0.00
    6   -4    4     -1.00      0.00
    7   -4    4     -1.71      0.00
   -8   -3    4     -0.32      0.00
   -7   -3    4      0.04      0.00
   -6   -3    4      0.49      0.00
   -5   -3    4      0.19      0.00
   -4   -3    4     -1.07      0.00
   -3   -3    4     -1.12      0.00
   -2   -3    4      1.20      0.00
   -1   -3    4     -4.06      0.00
    0   -3    4     -4.21      0.00
    1   -3    4      2.44      0.00
    2   -3    4      0.81      0.00
    3   -3    4     -1.41      0.00
    4   -3    4     -0.17      0.00
    5   -3    4     -0.58      0.00
    6   -3    4     -0.50      0.00
    7   -3    4      0.81      0.00
   -8   -2    4      0.27      0.00
   -7   -2    4      0.83      0.00
   -6   -2    4     -0.07      0.00
   -5   -2    4     -1.83      0.00
   -4   -2    4     -2.65      0.00
   -3   -2    4     -3.67      0.00
   -2   -2    4    -11.14      0.00
   -1   -2    4    -11.04      0.00
    2   -2    4     -8.87      0.00
    3   -2    4     -2.32      0.00
    4   -2    4     -1.62      0.00
    5   -2    4     -1.08      0.00
    6   -2    4     -0.35      0.00
    7   -2    4     -1.02      0.00
   -8   -1    4      1.12      0.00
   -7   -1    4      0.55      0.00
   -6   -1    4     -0.40      0.00
   -5   -1    4     -0.61      0.00
   -4   -1    4     -0.99      0.00
   -3   -1    4     -3.37      0.00
   -2   -1    4      1.30      0.00
   -1   -1    4      1.04      0.00
    0   -1    4     -4.17      0.00
    1   -1    4      0.92      0.00
    2   -1    4      1.40      0.00
    3   -1    4     -2.06      0.00
    4   -1    4     -0.32      0.00
    5   -1    4      1.47      0.00
    6   -1    4      1.06      0.00
    7   -1    4      1.06      0.00
   -8    0    4     -0.91      0.00
   -7    0    4     -1.14      0.00
   -6    0    4     -0.89      0.00
   -5    0    4     -1.25      0.00
   -4    0    4     -2.48      0.00
   -3    0    4     -0.49      0.00
   -2    0    4     -3.14      0.00
   -1    0    4     -1.36      0.00
    0    0    4      9.77      0.00
    1    0    4      8.23      0.00
    2    0    4      4.08      0.00
    3    0    4      4.94      0.00
    4    0    4      3.02      0.00
    5    0    4      0.50      0.00
    6    0    4      0.13      0.00
    7    0    4     -0.04      0.00
   -8    1    4      1.20      0.00
   -7    1    4      1.07      0.00
   -6    1    4      0.10      0.00
   -5    1    4      0.13      0.00
   -4    1    4      1.81      0.00
   -3    1    4      0.21      0.00
   -2    1    4      3.24      0.00
    0    1    4      1.54      0.00
    1    1    4      1.48      0.00
    2    1    4      4.84      0.00
    3    1    4      2.24      0.00
    4    1    4      0.73      0.00
    5    1    4      0.64      0.00
    6    1    4     -0.18      0.00
    7    1    4     -0.72      0.00
   -8    2    4     -0.68      0.00
   -7    2    4     -1.00      0.00
   -6    2    4      0.27      0.00
   -5    2    4      1.36      0.00
   -4    2    4      1.22      0.00
   -3    2    4      4.64      0.00
   -2    2    4      6.13      0.00
   -1    2    4      1.94      0.00
    1    2    4      5.47      0.00
    2    2    4     -0.39      0.00
    3    2    4     -0.81      0.00
    4    2    4     -0.28      0.00
    5    2    4     -0.80      0.00
    6    2    4     -0.68      0.00
    7    2    4      0.12      0.00
   -8    3    4      0.12      0.00
   -7    3    4      1.16      0.00
   -6    3    4      0.65      0.00
   -5    3    4      0.13      0.00
   -4    3    4      0.44      0.00
   -3    3    4     -1.38      0.00
   -2    3    4     -2.55      0.00
   -1    3    4      1.83      0.00
    0    3    4     -1.22      0.00
    1    3    4     -4.89      0.00
    2    3    4     -1.32      0.00
    3    3    4     -0.47      0.00
    4    3    4     -1.45      0.00
    5    3    4     -1.30      0.00
    6    3    4     -0.50      0.00
    7    3    4      0.06      0.00
   -8    4    4      0.88      0.00
   -7    4    4     -0.28      0.00
   -6    4    4      0.27      0.00
   -5    4    4      0.71      0.00
   -4    4    4      0.23      0.00
   -3    4    4      1.10      0.00
   -2    4    4      1.83      0.00
   -1    4    4     -3.67      0.00
    0    4    4     -4.95      0.00
    1    4    4     -1.56      0.00
    2    4    4     -2.94      0.00
    3    4    4     -3.14      0.00
    4    4    4     -1.30      0.00
    5    4    4     -0.16      0.00
    6    4    4      0.47      0.00
    7    4    4      0.93      0.00
   -8    5    4     -1.23      0.00
   -7    5    4      0.16      0.00
   -6    5    4     -0.30      0.00
   -5    5    4     -0.81      0.00
   -4    5    4      0.01      0.00
   -3    5    4     -0.45      0.00
   -2    5    4     -2.14      0.00
   -1    5    4      0.56      0.00
    0    5    4      2.06      0.00
    1    5    4     -1.30      0.00
    2    5    4     -0.61      0.00
    3    5    4      0.98      0.00
    4    5    4      0.35      0.00
    5    5    4      0.14      0.00
    6    5    4      0.30      0.00
    7    5    4     -0.19      0.00
   -8    6    4      0.84      0.00
   -7    6    4     -0.57      0.00
   -6    6    4     -0.17      0.00
   -5    6    4      0.45      0.00
   -4    6    4     -1.02      0.00
   -3    6    4     -1.60      0.00
   -2    6    4     -0.60      0.00
   -1    6    4     -2.09      0.00
    0    6    4     -3.80      0.00
    1    6    4     -0.42      0.00
    2    6    4      0.81      0.00
    3    6    4     -0.18      0.00
    4    6    4      0.89      0.00
    5    6    4      1.33      0.00
    6    6    4      0.42      0.00
   -7    7    4      0.72      0.00
   -6    7    4      0.51      0.00
   -5    7    4     -0.51      0.00
   -4    7    4      0.50      0.00
   -3    7    4      0.79      0.00
   -2    7    4     -0.58      0.00
   -1    7    4     -0.57      0.00
    0    7    4      1.74      0.00
    1    7    4      0.85      0.00
    2    7    4      0.00      0.00
    3    7    4      1.22      0.00
    4    7    4      0.26      0.00
    5    7    4     -0.70      0.00
    6    7    4      0.06      0.00
   -7    8    4     -1.33      0.00
   -6    8    4     -1.38      0.00
   -5    8    4      0.18      0.00
   -4    8    4      0.09      0.00
   -3    8    4     -0.05      0.00
   -2    8    4      0.87      0.00
   -1    8    4      1.75      0.00
    0    8    4      0.49      0.00
    1    8    4      0.86      0.00
    2    8    4      2.16      0.00
    3    8    4      0.72      0.00
    4    8    4      0.33      0.00
    5    8    4      0.75      0.00
   -6    9    4      0.01      0.00
   -5    9    4     -0.95      0.00
   -4    9    4     -0.68      0.00
   -3    9    4     -0.20      0.00
   -2    9    4     -0.05      0.00
   -1    9    4     -0.47      0.00
    0    9    4      0.37      0.00
    1    9    4      0.84      0.00
    2    9    4     -0.54      0.00
    3    9    4     -0.26      0.00
    4    9    4     -0.40      0.00
    5    9    4     -1.28      0.00
   -6   10    4      0.72      0.00
   -5   10    4      0.97      0.00
   -4   10    4      0.55      0.00
   -3   10    4      0.43      0.00
   -2   10    4      0.26      0.00
   -1   10    4      0.58      0.00
    0   10    4      0.44      0.00
    1   10    4     -0.45      0.00
    2   10    4      0.36      0.00
    3   10    4      0.42      0.00
    4   10    4      0.28      0.00
   -5   11    4      0.65      0.00
   -4   11    4      0.91      0.00
   -3   11    4      0.20      0.00
   -2   11    4     -0.02      0.00
   -1   11    4     -0.03      0.00
    0   11    4     -0.26      0.00
    1   11    4      0.34      0.00
    2   11    4     -0.47      0.00
    3   11    4     -0.97      0.00
    4   11    4     -0.35      0.00
   -4   12    4     -2.03      0.00
   -3   12    4     -0.73      0.00
   -2   12    4     -0.01      0.00
   -1   12    4     -0.59      0.00
    0   12    4     -0.73      0.00
    1   12    4     -1.28      0.00
    2   12    4     -0.76      0.00
    3   12    4      0.05      0.00
   -2   13    4     -0.37      0.00
   -1   13    4      0.15      0.00
    0   13    4      0.07      0.00
    1   13    4      0.39      0.00
   -2  -13    5      0.48      0.00
   -1  -13    5      0.06      0.00
    0  -13    5      0.27      0.00
    1  -13    5     -0.01      0.00
   -4  -12    5      0.44      0.00
   -3  -12    5      0.41      0.00
   -2  -12    5     -0.76      0.00
   -1  -12    5     -0.48      0.00
    0  -12    5     -0.33      0.00
    1  -12    5     -0.07      0.00
    2  -12    5      0.34      0.00
    3  -12    5      0.60      0.00
   -5  -11    5      0.67      0.00
   -4  -11    5      0.02      0.00
   -3  -11    5     -0.21      0.00
   -2  -11    5      1.06      0.00
   -1  -11    5      1.02      0.00
    0  -11    5      0.37      0.00
    1  -11    5     -0.03      0.00
    2  -11    5     -0.26      0.00
    3  -11    5     -0.41      0.00
    4  -11    5     -0.36      0.00
   -6  -10    5     -0.34      0.00
   -5  -10    5     -0.19      0.00
   -4  -10    5      0.21      0.00
   -3  -10    5      0.79      0.00
   -2  -10    5     -0.05      0.00
   -1  -10    5     -0.72      0.00
    0  -10    5     -0.33      0.00
    1  -10    5      0.11      0.00
    2  -10    5     -0.04      0.00
    3  -10    5     -0.62      0.00
    4  -10    5     -0.57      0.00
   -6   -9    5     -0.25      0.00
   -5   -9    5      0.22      0.00
   -4   -9    5      1.12      0.00
   -3   -9    5      0.71      0.00
   -2   -9    5      0.24      0.00
   -1   -9    5      1.12      0.00
    0   -9    5      1.76      0.00
    1   -9    5      1.18      0.00
    2   -9    5      0.21      0.00
    3   -9    5      0.18      0.00
    4   -9    5      0.11      0.00
    5   -9    5      0.93      0.00
   -7   -8    5      0.25      0.00
   -6   -8    5      0.61      0.00
   -5   -8    5      0.55      0.00
   -4   -8    5     -0.52      0.00
   -3   -8    5     -0.95      0.00
   -2   -8    5     -0.10      0.00
   -1   -8    5     -0.75      0.00
    0   -8    5     -2.07      0.00
    1   -8    5     -1.80      0.00
    2   -8    5     -0.81      0.00
    3   -8    5     -0.82      0.00
    4   -8    5     -0.38      0.00
    5   -8    5     -0.66      0.00
   -7   -7    5      1.00      0.00
   -6   -7    5      0.68      0.00
   -5   -7    5     -0.11      0.00
   -4   -7    5     -0.08      0.00
   -3   -7    5      0.10      0.00
   -2   -7    5     -1.80      0.00
   -1   -7    5     -2.53      0.00
    0   -7    5     -1.00      0.00
    1   -7    5     -1.30      0.00
    2   -7    5     -2.38      0.00
    3   -7    5     -1.12      0.00
    4   -7    5     -0.31      0.00
    5   -7    5     -0.62      0.00
    6   -7    5     -0.34      0.00
   -8   -6    5      0.02      0.00
   -7   -6    5     -1.37      0.00
   -6   -6    5     -1.42      0.00
   -5   -6    5     -0.76      0.00
   -4   -6    5     -0.83      0.00
   -3   -6    5     -1.86      0.00
   -2   -6    5     -0.06      0.00
   -1   -6    5      2.27      0.00
    0   -6    5      0.18      0.00
    1   -6    5     -0.59      0.00
    2   -6    5      1.43      0.00
    3   -6    5      1.38      0.00
    4   -6    5      0.28      0.00
    5   -6    5      0.24      0.00
    6   -6    5     -0.39      0.00
   -8   -5    5      0.28      0.00
   -7   -5    5      0.84      0.00
   -6   -5    5      0.06      0.00
   -5   -5    5     -1.49      0.00
   -4   -5    5     -2.89      0.00
   -3   -5    5     -2.28      0.00
   -2   -5    5     -2.65      0.00
   -1   -5    5     -5.21      0.00
    0   -5    5     -2.20      0.00
    1   -5    5      1.20      0.00
    2   -5    5      0.29      0.00
    3   -5    5      0.11      0.00
    4   -5    5      0.95      0.00
    5   -5    5      0.71      0.00
    6   -5    5      1.92      0.00
   -8   -4    5      0.31      0.00
   -7   -4    5     -0.51      0.00
   -6   -4    5     -0.56      0.00
   -5   -4    5      0.28      0.00
   -4   -4    5      1.56      0.00
   -3   -4    5      0.90      0.00
   -2   -4    5     -0.45      0.00
    0   -4    5      1.62      0.00
    1   -4    5     -1.98      0.00
    2   -4    5     -0.06      0.00
    3   -4    5      1.24      0.00
    4   -4    5     -0.05      0.00
    5   -4    5      0.21      0.00
    6   -4    5     -0.46      0.00
    7   -4    5     -1.37      0.00
   -8   -3    5     -0.94      0.00
   -7   -3    5     -0.58      0.00
   -6   -3    5      0.76      0.00
   -5   -3    5      2.28      0.00
   -4   -3    5      2.98      0.00
   -3   -3    5      4.64      0.00
   -1   -3    5      7.72      0.00
    0   -3    5      6.80      0.00
    1   -3    5      9.27      0.00
    2   -3    5      5.28      0.00
    3   -3    5      0.98      0.00
    4   -3    5      1.10      0.00
    5   -3    5      0.74      0.00
    6   -3    5      0.57      0.00
    7   -3    5      1.14      0.00
   -8   -2    5     -0.33      0.00
   -7   -2    5      0.12      0.00
   -6   -2    5      0.52      0.00
   -5   -2    5      0.38      0.00
   -4   -2    5      0.67      0.00
   -3   -2    5      2.04      0.00
   -2   -2    5     -1.53      0.00
   -1   -2    5      0.02      0.00
    0   -2    5      2.73      0.00
    1   -2    5     -1.34      0.00
    2   -2    5     -0.86      0.00
    3   -2    5      1.46      0.00
    4   -2    5     -0.21      0.00
    5   -2    5     -1.20      0.00
    6   -2    5     -1.01      0.00
    7   -2    5     -1.56      0.00
   -8   -1    5      0.50      0.00
   -7   -1    5      0.67      0.00
   -6   -1    5      0.52      0.00
   -5   -1    5      0.43      0.00
   -4   -1    5      0.93      0.00
   -3   -1    5     -0.88      0.00
   -2   -1    5      1.04      0.00
   -1   -1    5     -2.36      0.00
    0   -1    5    -10.05      0.00
    1   -1    5     -7.05      0.00
    2   -1    5     -3.97      0.00
    3   -1    5     -4.28      0.00
    4   -1    5     -1.98      0.00
    5   -1    5      0.11      0.00
    6   -1    5      0.16      0.00
    7   -1    5      0.58      0.00
   -8    0    5     -0.91      0.00
   -7    0    5     -0.44      0.00
   -6    0    5     -0.04      0.00
   -5    0    5     -0.20      0.00
   -4    0    5     -1.63      0.00
   -3    0    5     -0.53      0.00
   -2    0    5     -4.05      0.00
   -1    0    5     -6.34      0.00
    0    0    5     -0.51      0.00
    1    0    5     -1.81      0.00
    2    0    5     -4.27      0.00
    3    0    5     -1.81      0.00
    4    0    5     -0.64      0.00
    5    0    5     -0.64      0.00
    6    0    5      0.10      0.00
    7    0    5      0.10      0.00
   -8    1    5      1.03      0.00
   -7    1    5      0.73      0.00
   -6    1    5     -0.55      0.00
   -5    1    5     -1.81      0.00
   -4    1    5     -1.84      0.00
   -3    1    5     -4.91      0.00
   -2    1    5     -4.80      0.00
   -1    1    5     -1.00      0.00
    0    1    5     -4.02      0.00
    1    1    5     -2.30      0.00
    2    1    5      2.14      0.00
    3    1    5      1.50      0.00
    4    1    5      0.78      0.00
    5    1    5      1.14      0.00
    6    1    5      0.74      0.00
    7    1    5      0.35      0.00
   -8    2    5     -0.35      0.00
   -7    2    5     -0.88      0.00
   -6    2    5     -0.50      0.00
   -5    2    5      0.16      0.00
   -4    2    5      0.04      0.00
   -3    2    5      1.89      0.00
   -2    2    5      2.42      0.00
   -1    2    5     -0.97      0.00
    0    2    5      2.96      0.00
    1    2    5      4.89      0.00
    2    2    5      1.19      0.00
    3    2    5      0.80      0.00
    4    2    5      1.58      0.00
    5    2    5      1.24      0.00
    6    2    5      0.64      0.00
    7    2    5     -0.15      0.00
   -8    3    5     -0.27      0.00
   -7    3    5      0.52      0.00
   -6    3    5      0.01      0.00
   -5    3    5     -0.30      0.00
   -4    3    5      0.01      0.00
   -3    3    5     -0.68      0.00
   -2    3    5     -0.34      0.00
   -1    3    5      5.34      0.00
    0    3    5      5.06      0.00
    1    3    5      1.96      0.00
    2    3    5      3.28      0.00
    3    3    5      2.67      0.00
    4    3    5      0.66      0.00
    5    3    5     -0.56      0.00
    6    3    5     -1.37      0.00
    7    3    5     -1.21      0.00
   -8    4    5      1.13      0.00
   -7    4    5     -0.25      0.00
   -6    4    5      0.15      0.00
   -5    4    5      0.32      0.00
   -4    4    5     -0.06      0.00
   -3    4    5      0.74      0.00
   -2    4    5      2.23      0.00
   -1    4    5     -0.96      0.00
    0    4    5     -1.71      0.00
    1    4    5      1.09      0.00
    2    4    5     -0.32      0.00
    3    4    5     -1.30      0.00
    4    4    5     -0.70      0.00
    5    4    5     -0.76      0.00
    6    4    5     -0.45      0.00
   -8    5    5     -0.86      0.00
   -7    5    5      0.65      0.00
   -6    5    5      0.22      0.00
   -5    5    5      0.21      0.00
   -4    5    5      1.37      0.00
   -3    5    5      1.48      0.00
   -2    5    5      0.34      0.00
   -1    5    5      2.12      0.00
    0    5    5      2.83      0.00
    1    5    5     -0.97      0.00
    2    5    5     -1.30      0.00
    3    5    5     -0.31      0.00
    4    5    5     -0.97      0.00
    5    5    5     -0.56      0.00
    6    5    5      0.24      0.00
   -8    6    5      0.40      0.00
   -7    6    5     -0.49      0.00
   -6    6    5      0.14      0.00
   -5    6    5      0.41      0.00
   -4    6    5     -0.91      0.00
   -3    6    5     -0.91      0.00
   -2    6    5      0.63      0.00
   -1    6    5     -0.06      0.00
    0    6    5     -2.29      0.00
    1    6    5     -0.58      0.00
    2    6    5     -0.11      0.00
    3    6    5     -1.09      0.00
    4    6    5      0.19      0.00
    5    6    5      0.65      0.00
    6    6    5     -0.08      0.00
   -7    7    5      0.72      0.00
   -6    7    5      0.27      0.00
   -5    7    5     -0.70      0.00
   -4    7    5      0.08      0.00
   -3    7    5      0.04      0.00
   -2    7    5     -1.37      0.00
   -1    7    5     -2.09      0.00
    0    7    5     -0.42      0.00
    1    7    5     -1.26      0.00
    2    7    5     -2.05      0.00
    3    7    5     -0.34      0.00
    4    7    5     -0.41      0.00
    5    7    5     -0.67      0.00
    6    7    5      0.16      0.00
   -7    8    5     -0.70      0.00
   -6    8    5     -0.35      0.00
   -5    8    5      0.81      0.00
   -4    8    5      0.33      0.00
   -3    8    5     -0.04      0.00
   -2    8    5      0.00      0.00
   -1    8    5      0.41      0.00
    0    8    5     -0.89      0.00
    1    8    5     -0.60      0.00
    2    8    5      1.09      0.00
    3    8    5      0.33      0.00
    4    8    5      0.35      0.00
    5    8    5      0.92      0.00
   -6    9    5     -0.26      0.00
   -5    9    5     -0.63      0.00
   -4    9    5     -0.13      0.00
   -3    9    5     -0.28      0.00
   -2    9    5     -0.26      0.00
   -1    9    5     -0.69      0.00
    0    9    5      0.03      0.00
    1    9    5      0.77      0.00
    2    9    5     -0.30      0.00
    3    9    5      0.11      0.00
    4    9    5      0.15      0.00
    5    9    5     -0.58      0.00
   -6   10    5     -0.56      0.00
   -5   10    5     -0.90      0.00
   -4   10    5     -1.18      0.00
   -3   10    5     -0.31      0.00
   -2   10    5     -0.21      0.00
   -1   10    5     -0.05      0.00
    0   10    5      0.10      0.00
    1   10    5     -0.20      0.00
    2   10    5      1.11      0.00
    3   10    5      1.04      0.00
    4   10    5      0.03      0.00
   -5   11    5      1.76      0.00
   -4   11    5      2.20      0.00
   -3   11    5      0.64      0.00
   -2   11    5      0.09      0.00
   -1   11    5      0.64      0.00
    0   11    5      0.84      0.00
    1   11    5      1.44      0.00
    2   11    5      0.53      0.00
    3   11    5     -0.06      0.00
   -4   12    5     -1.29      0.00
   -3   12    5     -0.14      0.00
   -2   12    5      0.59      0.00
   -1   12    5      0.05      0.00
    0   12    5      0.05      0.00
    1   12    5     -0.50      0.00
    2   12    5     -0.35      0.00
   -2   13    5     -0.82      0.00
   -1   13    5     -0.22      0.00
    0   13    5     -0.42      0.00
   -2  -13    6      1.19      0.00
   -1  -13    6      0.61      0.00
    0  -13    6      0.39      0.00
   -4  -12    6      0.27      0.00
   -3  -12    6      0.01      0.00
   -2  -12    6     -1.51      0.00
   -1  -12    6     -0.95      0.00
    0  -12    6     -0.04      0.00
    1  -12    6      0.20      0.00
    2  -12    6      0.25      0.00
   -5  -11    6      0.04      0.00
   -4  -11    6     -0.62      0.00
   -3  -11    6     -0.78      0.00
   -2  -11    6      0.82      0.00
   -1  -11    6      1.02      0.00
    0  -11    6      0.05      0.00
    1  -11    6     -0.26      0.00
    2  -11    6      0.03      0.00
    3  -11    6      0.22      0.00
   -6  -10    6      0.14      0.00
   -5  -10    6     -0.12      0.00
   -4  -10    6     -0.55      0.00
   -3  -10    6     -0.06      0.00
   -2  -10    6     -0.37      0.00
   -1  -10    6     -0.91      0.00
    0  -10    6     -0.60      0.00
    1  -10    6     -0.27      0.00
    2  -10    6     -0.10      0.00
    3  -10    6     -0.20      0.00
    4  -10    6     -0.32      0.00
   -6   -9    6     -0.29      0.00
   -5   -9    6     -0.41      0.00
   -4   -9    6      0.45      0.00
   -3   -9    6      0.58      0.00
   -2   -9    6      0.27      0.00
   -1   -9    6      0.99      0.00
    0   -9    6      1.42      0.00
    1   -9    6      1.30      0.00
    2   -9    6      0.73      0.00
    3   -9    6      0.34      0.00
    4   -9    6     -0.13      0.00
    5   -9    6      0.70      0.00
   -7   -8    6     -0.95      0.00
   -6   -8    6     -1.02      0.00
   -5   -8    6      0.05      0.00
   -4   -8    6      0.48      0.00
   -3   -8    6      0.74      0.00
   -2   -8    6      1.92      0.00
   -1   -8    6      1.55      0.00
    0   -8    6      0.78      0.00
    1   -8    6      1.06      0.00
    2   -8    6      1.40      0.00
    3   -8    6      0.43      0.00
    4   -8    6      0.22      0.00
    5   -8    6      0.17      0.00
   -7   -7    6      1.89      0.00
   -6   -7    6      2.15      0.00
   -5   -7    6      1.03      0.00
   -4   -7    6      0.49      0.00
   -3   -7    6      0.75      0.00
   -2   -7    6     -1.16      0.00
   -1   -7    6     -1.93      0.00
    0   -7    6     -0.34      0.00
    1   -7    6     -0.18      0.00
    2   -7    6     -1.71      0.00
    3   -7    6     -1.50      0.00
    4   -7    6     -0.58      0.00
    5   -7    6     -0.29      0.00
   -7   -6    6     -0.97      0.00
   -6   -6    6     -0.53      0.00
   -5   -6    6      0.88      0.00
   -4   -6    6      1.82      0.00
   -3   -6    6      0.66      0.00
   -2   -6    6      1.45      0.00
   -1   -6    6      2.85      0.00
    0   -6    6      0.52      0.00
    1   -6    6     -1.54      0.00
    2   -6    6     -0.71      0.00
    3   -6    6     -0.24      0.00
    4   -6    6     -0.79      0.00
    5   -6    6     -0.96      0.00
    6   -6    6     -2.10      0.00
   -8   -5    6     -0.35      0.00
   -7   -5    6      0.38      0.00
   -6   -5    6      0.19      0.00
   -5   -5    6     -0.74      0.00
   -4   -5    6     -1.82      0.00
   -3   -5    6     -0.56      0.00
   -2   -5    6     -0.08      0.00
   -1   -5    6     -2.19      0.00
    0   -5    6     -0.74      0.00
    1   -5    6      1.21      0.00
    2   -5    6     -0.20      0.00
    3   -5    6     -0.93      0.00
    4   -5    6      0.28      0.00
    5   -5    6      0.18      0.00
    6   -5    6      1.11      0.00
   -8   -4    6      1.26      0.00
   -7   -4    6      0.13      0.00
   -6   -4    6     -1.12      0.00
   -5   -4    6     -2.02      0.00
   -4   -4    6     -2.30      0.00
   -3   -4    6     -4.45      0.00
   -2   -4    6     -7.25      0.00
   -1   -4    6     -5.08      0.00
    0   -4    6     -4.88      0.00
    1   -4    6     -6.16      0.00
    2   -4    6     -3.08      0.00
    3   -4    6     -0.04      0.00
    4   -4    6     -0.65      0.00
    5   -4    6     -0.48      0.00
    6   -4    6     -0.68      0.00
   -8   -3    6     -0.85      0.00
   -7   -3    6     -0.67      0.00
   -6   -3    6     -0.34      0.00
   -5   -3    6      0.07      0.00
   -4   -3    6     -0.33      0.00
   -3   -3    6     -0.52      0.00
   -2   -3    6      1.97      0.00
   -1   -3    6     -0.31      0.00
    0   -3    6     -1.65      0.00
    1   -3    6      1.36      0.00
    2   -3    6      1.08      0.00
    3   -3    6     -0.66      0.00
    4   -3    6      0.41      0.00
    5   -3    6      0.53      0.00
    6   -3    6      0.56      0.00
   -8   -2    6      0.26      0.00
   -7   -2    6     -0.15      0.00
   -6   -2    6     -0.20      0.00
   -5   -2    6      0.18      0.00
   -4   -2    6      0.51      0.00
   -3   -2    6      1.90      0.00
   -2   -2    6      0.50      0.00
   -1   -2    6      4.04      0.00
    0   -2    6      8.39      0.00
    1   -2    6      5.21      0.00
    2   -2    6      3.01      0.00
    3   -2    6      3.21      0.00
    4   -2    6      1.03      0.00
    5   -2    6     -0.27      0.00
    6   -2    6     -0.02      0.00
   -8   -1    6      0.17      0.00
   -7   -1    6     -0.07      0.00
   -6   -1    6      0.31      0.00
   -5   -1    6      0.50      0.00
   -4   -1    6      1.29      0.00
   -3   -1    6      0.64      0.00
   -2   -1    6      3.94      0.00
   -1   -1    6      4.17      0.00
    0   -1    6     -0.15      0.00
    1   -1    6      1.86      0.00
    2   -1    6      3.52      0.00
    3   -1    6      1.12      0.00
    4   -1    6      0.51      0.00
    5   -1    6      0.86      0.00
    6   -1    6      0.14      0.00
    7   -1    6      0.22      0.00
   -8    0    6     -0.73      0.00
   -7    0    6      0.00      0.00
   -6    0    6      0.75      0.00
   -5    0    6      1.79      0.00
   -4    0    6      1.97      0.00
   -3    0    6      4.37      0.00
   -2    0    6      2.96      0.00
   -1    0    6      0.26      0.00
    0    0    6      2.51      0.00
    1    0    6      0.09      0.00
    2    0    6     -3.00      0.00
    3    0    6     -1.55      0.00
    4    0    6     -0.68      0.00
    5    0    6     -1.10      0.00
    6    0    6     -0.67      0.00
    7    0    6     -0.61      0.00
   -8    1    6      0.29      0.00
   -7    1    6      0.37      0.00
   -6    1    6      0.42      0.00
   -5    1    6     -0.34      0.00
   -4    1    6     -0.47      0.00
   -3    1    6     -2.20      0.00
   -2    1    6     -2.01      0.00
   -1    1    6      0.01      0.00
    0    1    6     -3.95      0.00
    1    1    6     -4.28      0.00
    2    1    6     -0.97      0.00
    3    1    6     -1.14      0.00
    4    1    6     -1.77      0.00
    5    1    6     -1.05      0.00
    6    1    6     -0.50      0.00
    7    1    6      0.42      0.00
   -8    2    6     -0.06      0.00
   -7    2    6     -0.13      0.00
   -6    2    6     -0.16      0.00
   -5    2    6     -0.13      0.00
   -4    2    6     -0.32      0.00
   -3    2    6      0.14      0.00
   -2    2    6     -1.18      0.00
   -1    2    6     -5.86      0.00
    0    2    6     -3.99      0.00
    1    2    6     -1.57      0.00
    2    2    6     -2.86      0.00
    3    2    6     -1.78      0.00
    4    2    6      0.30      0.00
    5    2    6      1.40      0.00
    6    2    6      2.10      0.00
   -8    3    6     -0.43      0.00
   -7    3    6      0.41      0.00
   -6    3    6      0.20      0.00
   -5    3    6      0.19      0.00
   -4    3    6      0.08      0.00
   -3    3    6     -0.94      0.00
   -2    3    6     -1.74      0.00
   -1    3    6      1.61      0.00
    0    3    6      1.44      0.00
    1    3    6     -0.60      0.00
    2    3    6      1.01      0.00
    3    3    6      1.36      0.00
    4    3    6      0.88      0.00
    5    3    6      1.04      0.00
    6    3    6      0.24      0.00
   -8    4    6      0.81      0.00
   -7    4    6     -0.47      0.00
   -6    4    6     -0.36      0.00
   -5    4    6     -0.89      0.00
   -4    4    6     -1.45      0.00
   -3    4    6     -1.06      0.00
   -2    4    6      0.12      0.00
   -1    4    6     -1.52      0.00
    0    4    6     -0.96      0.00
    1    4    6      2.38      0.00
    2    4    6      1.66      0.00
    3    4    6      0.72      0.00
    4    4    6      0.68      0.00
    5    4    6     -0.61      0.00
    6    4    6     -1.08      0.00
   -8    5    6     -0.49      0.00
   -7    5    6      0.18      0.00
   -6    5    6     -0.52      0.00
   -5    5    6      0.01      0.00
   -4    5    6      1.14      0.00
   -3    5    6      0.87      0.00
   -2    5    6     -0.39      0.00
   -1    5    6      0.98      0.00
    0    5    6      2.37      0.00
    1    5    6      0.07      0.00
    2    5    6      0.08      0.00
    3    5    6      0.62      0.00
    4    5    6     -0.49      0.00
    5    5    6     -0.16      0.00
    6    5    6      0.34      0.00
   -7    6    6      0.30      0.00
   -6    6    6      0.96      0.00
   -5    6    6      0.89      0.00
   -4    6    6     -0.20      0.00
   -3    6    6      0.19      0.00
   -2    6    6      1.89      0.00
   -1    6    6      2.08      0.00
    0    6    6      0.37      0.00
    1    6    6      1.54      0.00
    2    6    6      1.53      0.00
    3    6    6      0.07      0.00
    4    6    6      0.61      0.00
    5    6    6      0.46      0.00
    6    6    6     -0.29      0.00
   -7    7    6      0.80      0.00
   -6    7    6      0.16      0.00
   -5    7    6     -0.67      0.00
   -4    7    6     -0.05      0.00
   -3    7    6      0.08      0.00
   -2    7    6     -0.23      0.00
   -1    7    6     -0.38      0.00
    0    7    6      1.06      0.00
    1    7    6     -0.07      0.00
    2    7    6     -1.50      0.00
    3    7    6     -0.41      0.00
    4    7    6     -0.45      0.00
    5    7    6     -0.46      0.00
   -7    8    6     -0.63      0.00
   -6    8    6     -0.32      0.00
   -5    8    6      0.14      0.00
   -4    8    6     -0.29      0.00
   -3    8    6      0.07      0.00
   -2    8    6      0.15      0.00
   -1    8    6      0.46      0.00
    0    8    6     -0.81      0.00
    1    8    6     -1.09      0.00
    2    8    6      0.02      0.00
    3    8    6     -0.67      0.00
    4    8    6     -0.46      0.00
    5    8    6      0.15      0.00
   -6    9    6      0.69      0.00
   -5    9    6      0.94      0.00
   -4    9    6      1.30      0.00
   -3    9    6      0.36      0.00
   -2    9    6      0.33      0.00
   -1    9    6     -0.03      0.00
    0    9    6      0.04      0.00
    1    9    6      0.06      0.00
    2    9    6     -1.24      0.00
    3    9    6     -0.57      0.00
    4    9    6      0.28      0.00
   -5   10    6     -1.58      0.00
   -4   10    6     -1.96      0.00
   -3   10    6     -0.46      0.00
   -2   10    6     -0.36      0.00
   -1   10    6     -0.90      0.00
    0   10    6     -1.11      0.00
    1   10    6     -1.39      0.00
    2   10    6     -0.08      0.00
    3   10    6      0.16      0.00
   -4   11    6      1.12      0.00
   -3   11    6     -0.30      0.00
   -2   11    6     -0.95      0.00
   -1   11    6     -0.36      0.00
    0   11    6     -0.16      0.00
    1   11    6      0.62      0.00
    2   11    6      0.42      0.00
    3   11    6      0.32      0.00
   -3   12    6      0.69      0.00
   -2   12    6      0.93      0.00
   -1   12    6      0.22      0.00
    0   12    6      0.34      0.00
    1   12    6     -0.02      0.00
   -3  -12    7      0.59      0.00
   -2  -12    7     -1.11      0.00
   -1  -12    7     -0.86      0.00
    0  -12    7      0.27      0.00
    1  -12    7      0.52      0.00
   -4  -11    7      0.16      0.00
   -3  -11    7     -0.26      0.00
   -2  -11    7      0.68      0.00
   -1  -11    7      0.84      0.00
    0  -11    7     -0.07      0.00
    1  -11    7     -0.29      0.00
    2  -11    7     -0.02      0.00
    3  -11    7      0.07      0.00
   -5  -10    7      0.26      0.00
   -4  -10    7     -0.45      0.00
   -3  -10    7     -0.33      0.00
   -2  -10    7     -0.54      0.00
   -1  -10    7     -1.06      0.00
    0  -10    7     -0.74      0.00
    1  -10    7     -0.68      0.00
    2  -10    7     -0.51      0.00
    3  -10    7      0.07      0.00
   -6   -9    7      1.02      0.00
   -5   -9    7     -0.40      0.00
   -4   -9    7     -0.96      0.00
   -3   -9    7     -1.29      0.00
   -2   -9    7     -1.40      0.00
   -1   -9    7     -0.32      0.00
    0   -9    7     -0.23      0.00
    1   -9    7     -0.52      0.00
    2   -9    7     -0.43      0.00
    3   -9    7      0.03      0.00
    4   -9    7     -0.30      0.00
   -7   -8    7     -1.76      0.00
   -6   -8    7     -2.36      0.00
   -5   -8    7     -0.91      0.00
   -4   -8    7      0.05      0.00
   -3   -8    7      0.40      0.00
   -2   -8    7      1.68      0.00
   -1   -8    7      1.06      0.00
    0   -8    7      0.14      0.00
    1   -8    7      0.56      0.00
    2   -8    7      1.52      0.00
    3   -8    7      0.92      0.00
    4   -8    7      0.41      0.00
    5   -8    7      0.24      0.00
   -7   -7    7      0.88      0.00
   -6   -7    7      0.89      0.00
   -5   -7    7     -0.56      0.00
   -4   -7    7     -1.27      0.00
   -3   -7    7     -0.13      0.00
   -2   -7    7     -0.97      0.00
   -1   -7    7     -1.07      0.00
    0   -7    7      0.80      0.00
    1   -7    7      1.90      0.00
    2   -7    7      0.83      0.00
    3   -7    7      0.33      0.00
    4   -7    7      0.64      0.00
    5   -7    7      0.88      0.00
   -7   -6    7      0.26      0.00
   -6   -6    7      0.29      0.00
   -5   -6    7      1.04      0.00
   -4   -6    7      1.85      0.00
   -3   -6    7      0.41      0.00
   -2   -6    7      0.61      0.00
   -1   -6    7      1.61      0.00
    0   -6    7      0.25      0.00
    1   -6    7     -0.96      0.00
    2   -6    7      0.06      0.00
    3   -6    7      0.42      0.00
    4   -6    7     -0.56      0.00
    5   -6    7     -0.47      0.00
   -8   -5    7     -1.13      0.00
   -7   -5    7      0.00      0.00
   -6   -5    7      0.99      0.00
   -5   -5    7      1.48      0.00
   -4   -5    7      1.36      0.00
   -3   -5    7      3.41      0.00
   -2   -5    7      4.50      0.00
   -1   -5    7      2.86      0.00
    0   -5    7      3.34      0.00
    1   -5    7      4.09      0.00
    2   -5    7      1.52      0.00
    3   -5    7     -0.75      0.00
    4   -5    7      0.19      0.00
    5   -5    7      0.16      0.00
    6   -5    7      0.56      0.00
   -8   -4    7      1.52      0.00
   -7   -4    7      0.65      0.00
   -6   -4    7     -0.14      0.00
   -5   -4    7     -0.62      0.00
   -4   -4    7      0.03      0.00
   -3   -4    7     -0.65      0.00
   -2   -4    7     -2.03      0.00
   -1   -4    7      0.28      0.00
    0   -4    7      0.70      0.00
    1   -4    7     -1.76      0.00
    2   -4    7     -1.64      0.00
    3   -4    7      0.23      0.00
    4   -4    7     -0.21      0.00
    5   -4    7      0.21      0.00
   -8   -3    7     -1.04      0.00
   -7   -3    7     -0.30      0.00
   -6   -3    7     -0.06      0.00
   -5   -3    7     -0.31      0.00
   -4   -3    7     -1.23      0.00
   -3   -3    7     -2.10      0.00
   -2   -3    7     -1.28      0.00
   -1   -3    7     -4.32      0.00
    0   -3    7     -6.42      0.00
    1   -3    7     -3.62      0.00
    2   -3    7     -1.84      0.00
    3   -3    7     -2.17      0.00
    4   -3    7     -0.51      0.00
    5   -3    7     -0.31      0.00
    6   -3    7     -0.62      0.00
   -8   -2    7      0.43      0.00
   -7   -2    7     -0.01      0.00
   -6   -2    7     -0.82      0.00
   -5   -2    7     -0.92      0.00
   -4   -2    7     -0.95      0.00
   -3   -2    7     -0.62      0.00
   -2   -2    7     -3.24      0.00
   -1   -2    7     -2.44      0.00
    0   -2    7      0.10      0.00
    1   -2    7     -1.85      0.00
    2   -2    7     -2.65      0.00
    3   -2    7     -0.23      0.00
    4   -2    7     -0.38      0.00
    5   -2    7     -0.93      0.00
    6   -2    7     -0.17      0.00
   -8   -1    7      0.05      0.00
   -7   -1    7     -0.60      0.00
   -6   -1    7     -0.61      0.00
   -5   -1    7     -1.19      0.00
   -4   -1    7     -1.51      0.00
   -3   -1    7     -3.15      0.00
   -2   -1    7     -1.21      0.00
   -1   -1    7      0.16      0.00
    0   -1    7     -1.37      0.00
    1   -1    7      1.02      0.00
    2   -1    7      3.04      0.00
    3   -1    7      1.01      0.00
    4   -1    7      0.27      0.00
    5   -1    7      0.83      0.00
    6   -1    7      0.37      0.00
   -8    0    7      0.01      0.00
   -7    0    7      0.10      0.00
   -6    0    7     -0.34      0.00
   -5    0    7      0.50      0.00
   -4    0    7      0.85      0.00
   -3    0    7      2.29      0.00
   -2    0    7      1.52      0.00
   -1    0    7      0.72      0.00
    0    0    7      3.98      0.00
    1    0    7      3.33      0.00
    2    0    7      0.68      0.00
    3    0    7      1.40      0.00
    4    0    7      1.82      0.00
    5    0    7      0.73      0.00
    6    0    7      0.34      0.00
   -8    1    7     -0.07      0.00
   -7    1    7     -0.49      0.00
   -6    1    7      0.36      0.00
   -5    1    7      0.55      0.00
   -4    1    7      0.65      0.00
   -3    1    7      0.38      0.00
   -2    1    7      2.22      0.00
   -1    1    7      5.17      0.00
    0    1    7      2.43      0.00
    1    1    7      0.94      0.00
    2    1    7      2.24      0.00
    3    1    7      0.87      0.00
    4    1    7     -1.13      0.00
    5    1    7     -1.80      0.00
    6    1    7     -2.20      0.00
   -8    2    7     -0.29      0.00
   -7    2    7     -0.21      0.00
   -6    2    7     -0.31      0.00
   -5    2    7     -0.39      0.00
   -4    2    7      0.00      0.00
   -3    2    7      1.03      0.00
   -2    2    7      0.94      0.00
   -1    2    7     -2.05      0.00
    0    2    7     -1.13      0.00
    1    2    7      0.13      0.00
    2    2    7     -1.44      0.00
    3    2    7     -1.39      0.00
    4    2    7     -0.87      0.00
    5    2    7     -0.87      0.00
    6    2    7      0.24      0.00
   -8    3    7     -0.43      0.00
   -7    3    7      0.35      0.00
   -6    3    7      0.65      0.00
   -5    3    7      1.31      0.00
   -4    3    7      1.23      0.00
   -3    3    7      0.46      0.00
   -2    3    7     -0.54      0.00
   -1    3    7      0.66      0.00
    0    3    7     -0.83      0.00
    1    3    7     -3.08      0.00
    2    3    7     -1.64      0.00
    3    3    7     -0.75      0.00
    4    3    7     -0.02      0.00
    5    3    7      1.77      0.00
    6    3    7      1.80      0.00
   -8    4    7      0.50      0.00
   -7    4    7      0.24      0.00
   -6    4    7      0.65      0.00
   -5    4    7     -0.42      0.00
   -4    4    7     -1.08      0.00
   -3    4    7     -0.66      0.00
   -2    4    7      0.09      0.00
   -1    4    7     -1.52      0.00
    0    4    7     -1.69      0.00
    1    4    7      0.58      0.00
    2    4    7      0.07      0.00
    3    4    7     -0.11      0.00
    4    4    7      0.47      0.00
    5    4    7     -0.57      0.00
    6    4    7     -0.74      0.00
   -8    5    7     -1.09      0.00
   -7    5    7     -0.95      0.00
   -6    5    7     -1.57      0.00
   -5    5    7     -0.67      0.00
   -4    5    7      0.24      0.00
   -3    5    7     -0.45      0.00
   -2    5    7     -1.98      0.00
   -1    5    7     -1.44      0.00
    0    5    7     -0.13      0.00
    1    5    7     -1.33      0.00
    2    5    7     -0.72      0.00
    3    5    7      0.01      0.00
    4    5    7     -0.81      0.00
    5    5    7     -0.16      0.00
   -7    6    7     -0.26      0.00
   -6    6    7      0.41      0.00
   -5    6    7      0.52      0.00
   -4    6    7     -0.05      0.00
   -3    6    7      0.19      0.00
   -2    6    7      0.77      0.00
   -1    6    7      0.59      0.00
    0    6    7     -0.63      0.00
    1    6    7      0.91      0.00
    2    6    7      1.56      0.00
    3    6    7      0.55      0.00
    4    6    7      0.78      0.00
    5    6    7      0.23      0.00
   -7    7    7      1.25      0.00
   -6    7    7      0.71      0.00
   -5    7    7      0.30      0.00
   -4    7    7      0.57      0.00
   -3    7    7      0.18      0.00
   -2    7    7      0.12      0.00
   -1    7    7      0.14      0.00
    0    7    7      1.63      0.00
    1    7    7      1.25      0.00
    2    7    7      0.31      0.00
    3    7    7      0.95      0.00
    4    7    7      0.41      0.00
    5    7    7      0.15      0.00
   -6    8    7     -0.41      0.00
   -5    8    7     -0.72      0.00
   -4    8    7     -1.19      0.00
   -3    8    7     -0.39      0.00
   -2    8    7     -0.36      0.00
   -1    8    7      0.15      0.00
    0    8    7     -0.22      0.00
    1    8    7     -0.12      0.00
    2    8    7      0.68      0.00
    3    8    7     -0.28      0.00
    4    8    7     -0.48      0.00
   -6    9    7      0.52      0.00
   -5    9    7      1.07      0.00
   -4    9    7      1.49      0.00
   -3    9    7      0.36      0.00
   -2    9    7      0.77      0.00
   -1    9    7      1.13      0.00
    0    9    7      1.24      0.00
    1    9    7      1.03      0.00
    2    9    7     -0.36      0.00
    3    9    7     -0.17      0.00
    4    9    7      0.31      0.00
   -5   10    7      0.17      0.00
   -4   10    7     -0.67      0.00
   -3   10    7      0.78      0.00
   -2   10    7      1.09      0.00
   -1   10    7      0.50      0.00
    0   10    7      0.11      0.00
    1   10    7     -0.71      0.00
    2   10    7     -0.47      0.00
    3   10    7     -0.50      0.00
   -4   11    7     -0.05      0.00
   -3   11    7     -0.92      0.00
   -2   11    7     -1.15      0.00
   -1   11    7     -0.45      0.00
    0   11    7     -0.46      0.00
    1   11    7     -0.06      0.00
    2   11    7     -0.14      0.00
   -2   12    7      0.72      0.00
   -1   12    7     -0.29      0.00
    0   12    7     -0.46      0.00
   -3  -12    8      0.25      0.00
   -2  -12    8     -0.93      0.00
   -1  -12    8     -0.82      0.00
    0  -12    8      0.19      0.00
   -4  -11    8      0.54      0.00
   -3  -11    8      0.23      0.00
   -2  -11    8      0.82      0.00
   -1  -11    8      1.03      0.00
    0  -11    8      0.28      0.00
    1  -11    8      0.29      0.00
    2  -11    8      0.43      0.00
   -5  -10    8      0.89      0.00
   -4  -10    8      1.19      0.00
   -3  -10    8      1.50      0.00
   -2  -10    8      0.74      0.00
   -1  -10    8     -0.61      0.00
    0  -10    8     -0.30      0.00
    1  -10    8     -0.09      0.00
    2  -10    8     -0.37      0.00
    3  -10    8     -0.22      0.00
   -6   -9    8      1.89      0.00
   -5   -9    8      0.29      0.00
   -4   -9    8     -0.67      0.00
   -3   -9    8     -1.41      0.00
   -2   -9    8     -1.73      0.00
   -1   -9    8     -0.14      0.00
    0   -9    8      0.14      0.00
    1   -9    8     -0.58      0.00
    2   -9    8     -0.83      0.00
    3   -9    8     -0.08      0.00
    4   -9    8     -0.08      0.00
   -6   -8    8     -1.09      0.00
   -5   -8    8      0.35      0.00
   -4   -8    8      0.85      0.00
   -3   -8    8      0.28      0.00
   -2   -8    8      0.95      0.00
   -1   -8    8     -0.13      0.00
    0   -8    8     -1.54      0.00
    1   -8    8     -1.72      0.00
    2   -8    8     -0.68      0.00
    3   -8    8     -0.52      0.00
    4   -8    8     -0.49      0.00
   -7   -7    8     -0.85      0.00
   -6   -7    8     -0.44      0.00
   -5   -7    8     -1.09      0.00
   -4   -7    8     -1.64      0.00
   -3   -7    8     -0.50      0.00
   -2   -7    8     -1.09      0.00
   -1   -7    8     -0.92      0.00
    0   -7    8      0.36      0.00
    1   -7    8      1.00      0.00
    2   -7    8      0.11      0.00
    3   -7    8      0.09      0.00
    4   -7    8      0.62      0.00
    5   -7    8      0.48      0.00
   -7   -6    8      0.35      0.00
   -6   -6    8     -0.68      0.00
   -5   -6    8     -1.24      0.00
   -4   -6    8     -0.94      0.00
   -3   -6    8     -2.21      0.00
   -2   -6    8     -1.81      0.00
   -1   -6    8     -1.13      0.00
    0   -6    8     -2.11      0.00
    1   -6    8     -2.39      0.00
    2   -6    8     -0.04      0.00
    3   -6    8      1.30      0.00
    4   -6    8      0.18      0.00
    5   -6    8      0.18      0.00
   -7   -5    8     -0.22      0.00
   -6   -5    8      0.69      0.00
   -5   -5    8      1.14      0.00
   -4   -5    8      0.28      0.00
   -3   -5    8      1.16      0.00
   -2   -5    8      1.35      0.00
   -1   -5    8     -0.28      0.00
    0   -5    8      0.23      0.00
    1   -5    8      2.27      0.00
    2   -5    8      1.64      0.00
    3   -5    8     -0.45      0.00
    4   -5    8     -0.28      0.00
    5   -5    8     -0.74      0.00
   -8   -4    8      1.31      0.00
   -7   -4    8      0.48      0.00
   -6   -4    8      0.18      0.00
   -5   -4    8      0.01      0.00
   -4   -4    8      1.16      0.00
   -3   -4    8      1.58      0.00
   -2   -4    8      1.50      0.00
   -1   -4    8      3.89      0.00
    0   -4    8      4.71      0.00
    1   -4    8      2.26      0.00
    2   -4    8      0.74      0.00
    3   -4    8      1.26      0.00
    4   -4    8      0.37      0.00
    5   -4    8      1.18      0.00
   -8   -3    8     -0.55      0.00
   -7   -3    8      0.44      0.00
   -6   -3    8      1.02      0.00
   -5   -3    8      1.14      0.00
   -4   -3    8      0.70      0.00
   -3   -3    8      0.61      0.00
   -2   -3    8      2.29      0.00
   -1   -3    8      1.38      0.00
    0   -3    8      0.27      0.00
    1   -3    8      1.69      0.00
    2   -3    8      1.77      0.00
    3   -3    8     -0.44      0.00
    4   -3    8      0.36      0.00
    5   -3    8      0.54      0.00
    6   -3    8     -0.20      0.00
   -8   -2    8      0.43      0.00
   -7   -2    8      0.46      0.00
   -6   -2    8      0.09      0.00
   -5   -2    8      0.26      0.00
   -4   -2    8      0.69      0.00
   -3   -2    8      1.64      0.00
   -2   -2    8     -0.16      0.00
   -1   -2    8     -0.58      0.00
    0   -2    8      0.26      0.00
    1   -2    8     -1.63      0.00
    2   -2    8     -2.79      0.00
    3   -2    8     -0.41      0.00
    4   -2    8     -0.13      0.00
    5   -2    8     -0.58      0.00
    6   -2    8     -0.03      0.00
   -8   -1    8     -0.50      0.00
   -7   -1    8     -0.46      0.00
   -6   -1    8      0.02      0.00
   -5   -1    8     -0.72      0.00
   -4   -1    8     -1.09      0.00
   -3   -1    8     -2.18      0.00
   -2   -1    8     -1.22      0.00
   -1   -1    8     -1.20      0.00
    0   -1    8     -3.44      0.00
    1   -1    8     -2.48      0.00
    2   -1    8     -0.35      0.00
    3   -1    8     -1.29      0.00
    4   -1    8     -1.32      0.00
    5   -1    8     -0.33      0.00
    6   -1    8     -0.37      0.00
   -8    0    8      0.49      0.00
   -7    0    8      0.77      0.00
   -6    0    8     -0.62      0.00
   -5    0    8     -0.77      0.00
   -4    0    8     -0.85      0.00
   -3    0    8     -0.68      0.00
   -2    0    8     -2.47      0.00
   -1    0    8     -3.84      0.00
    0    0    8     -1.29      0.00
    1    0    8     -0.64      0.00
    2    0    8     -1.83      0.00
    3    0    8     -0.29      0.00
    4    0    8      1.25      0.00
    5    0    8      1.30      0.00
    6    0    8      1.54      0.00
   -8    1    8      0.48      0.00
   -7    1    8     -0.40      0.00
   -6    1    8      0.09      0.00
   -5    1    8      0.28      0.00
   -4    1    8     -0.03      0.00
   -3    1    8     -0.91      0.00
   -2    1    8     -0.29      0.00
   -1    1    8      1.83      0.00
    0    1    8      0.66      0.00
    1    1    8      0.16      0.00
    2    1    8      1.73      0.00
    3    1    8      1.45      0.00
    4    1    8      0.68      0.00
    5    1    8      0.47      0.00
    6    1    8     -0.62      0.00
   -8    2    8     -0.26      0.00
   -7    2    8     -0.37      0.00
   -6    2    8     -0.82      0.00
   -5    2    8     -1.14      0.00
   -4    2    8     -0.70      0.00
   -3    2    8      0.16      0.00
   -2    2    8      0.82      0.00
   -1    2    8      0.12      0.00
    0    2    8      1.83      0.00
    1    2    8      2.91      0.00
    2    2    8      1.18      0.00
    3    2    8      0.32      0.00
    4    2    8     -0.69      0.00
    5    2    8     -2.37      0.00
    6    2    8     -2.00      0.00
   -8    3    8     -0.38      0.00
   -7    3    8     -0.56      0.00
   -6    3    8     -0.51      0.00
   -5    3    8      0.61      0.00
   -4    3    8      0.82      0.00
   -3    3    8      0.44      0.00
   -2    3    8      0.12      0.00
   -1    3    8      1.35      0.00
    0    3    8      0.51      0.00
    1    3    8     -1.10      0.00
    2    3    8     -0.18      0.00
    3    3    8     -0.10      0.00
    4    3    8     -0.15      0.00
    5    3    8      1.14      0.00
   -8    4    8      0.70      0.00
   -7    4    8      0.98      0.00
   -6    4    8      1.50      0.00
   -5    4    8      0.35      0.00
   -4    4    8     -0.14      0.00
   -3    4    8      0.56      0.00
   -2    4    8      1.54      0.00
   -1    4    8      0.48      0.00
    0    4    8     -0.19      0.00
    1    4    8      0.80      0.00
    2    4    8     -0.01      0.00
    3    4    8      0.00      0.00
    4    4    8      0.79      0.00
    5    4    8     -0.04      0.00
   -7    5    8     -0.29      0.00
   -6    5    8     -0.78      0.00
   -5    5    8     -0.29      0.00
   -4    5    8     -0.01      0.00
   -3    5    8     -0.53      0.00
   -2    5    8     -1.25      0.00
   -1    5    8     -0.81      0.00
    0    5    8     -0.05      0.00
    1    5    8     -1.42      0.00
    2    5    8     -1.23      0.00
    3    5    8     -0.67      0.00
    4    5    8     -1.12      0.00
    5    5    8     -0.25      0.00
   -7    6    8     -1.34      0.00
   -6    6    8     -0.68      0.00
   -5    6    8     -0.49      0.00
   -4    6    8     -0.60      0.00
   -3    6    8     -0.33      0.00
   -2    6    8     -0.32      0.00
   -1    6    8     -0.65      0.00
    0    6    8     -1.86      0.00
    1    6    8     -0.95      0.00
    2    6    8     -0.42      0.00
    3    6    8     -0.80      0.00
    4    6    8     -0.06      0.00
    5    6    8     -0.14      0.00
   -7    7    8      0.21      0.00
   -6    7    8      0.02      0.00
   -5    7    8      0.41      0.00
   -4    7    8      0.94      0.00
   -3    7    8      0.51      0.00
   -2    7    8      0.48      0.00
   -1    7    8     -0.02      0.00
    0    7    8      0.59      0.00
    1    7    8      0.42      0.00
    2    7    8      0.22      0.00
    3    7    8      1.07      0.00
    4    7    8      0.52      0.00
   -6    8    8      0.06      0.00
   -5    8    8     -0.41      0.00
   -4    8    8     -0.91      0.00
   -3    8    8     -0.30      0.00
   -2    8    8     -0.93      0.00
   -1    8    8     -0.90      0.00
    0    8    8     -0.88      0.00
    1    8    8     -0.37      0.00
    2    8    8      0.59      0.00
    3    8    8     -0.02      0.00
    4    8    8     -0.25      0.00
   -6    9    8     -0.93      0.00
   -5    9    8     -0.38      0.00
   -4    9    8      0.31      0.00
   -3    9    8     -0.88      0.00
   -2    9    8     -0.72      0.00
   -1    9    8     -0.29      0.00
    0    9    8      0.07      0.00
    1    9    8      0.63      0.00
    2    9    8      0.28      0.00
    3    9    8      0.39      0.00
   -5   10    8      1.03      0.00
   -4   10    8      0.12      0.00
   -3   10    8      1.17      0.00
   -2   10    8      1.41      0.00
   -1   10    8      0.89      0.00
    0   10    8      0.81      0.00
    1   10    8      0.29      0.00
    2   10    8      0.22      0.00
   -3   11    8     -0.53      0.00
   -2   11    8     -0.56      0.00
   -1   11    8      0.51      0.00
    0   11    8      0.70      0.00
    1   11    8      0.61      0.00
   -3  -11    9     -1.31      0.00
   -2  -11    9     -0.26      0.00
   -1  -11    9      0.83      0.00
    0  -11    9      0.39      0.00
    1  -11    9      0.39      0.00
   -5  -10    9      0.41      0.00
   -4  -10    9      1.03      0.00
   -3  -10    9      1.99      0.00
   -2  -10    9      1.55      0.00
   -1  -10    9     -0.32      0.00
    0  -10    9     -0.18      0.00
    1  -10    9      0.44      0.00
    2  -10    9      0.21      0.00
   -5   -9    9     -0.06      0.00
   -4   -9    9     -0.17      0.00
   -3   -9    9     -0.44      0.00
   -2   -9    9     -1.02      0.00
   -1   -9    9      0.55      0.00
    0   -9    9      1.27      0.00
    1   -9    9      0.89      0.00
    2   -9    9      0.36      0.00
    3   -9    9      0.53      0.00
   -6   -8    9      0.12      0.00
   -5   -8    9      0.87      0.00
   -4   -8    9      1.08      0.00
   -3   -8    9      0.51      0.00
   -2   -8    9      1.22      0.00
   -1   -8    9      0.23      0.00
    0   -8    9     -0.72      0.00
    1   -8    9     -0.76      0.00
    2   -8    9     -0.08      0.00
    3   -8    9     -0.30      0.00
    4   -8    9     -0.33      0.00
   -7   -7    9     -0.81      0.00
   -6   -7    9      0.56      0.00
   -5   -7    9      1.24      0.00
   -4   -7    9      1.01      0.00
   -3   -7    9      1.34      0.00
   -2   -7    9      0.03      0.00
   -1   -7    9      0.26      0.00
    0   -7    9      1.19      0.00
    1   -7    9      0.83      0.00
    2   -7    9     -1.09      0.00
    3   -7    9     -1.35      0.00
    4   -7    9     -0.38      0.00
   -7   -6    9     -0.12      0.00
   -6   -6    9     -1.07      0.00
   -5   -6    9     -1.53      0.00
   -4   -6    9     -0.67      0.00
   -3   -6    9     -1.17      0.00
   -2   -6    9     -0.33      0.00
   -1   -6    9      0.21      0.00
    0   -6    9     -0.98      0.00
    1   -6    9     -2.25      0.00
    2   -6    9     -0.84      0.00
    3   -6    9      0.90      0.00
    4   -6    9      0.66      0.00
   -7   -5    9     -0.37      0.00
   -6   -5    9     -0.11      0.00
   -5   -5    9      0.32      0.00
   -4   -5    9     -0.87      0.00
   -3   -5    9     -0.99      0.00
   -2   -5    9     -1.54      0.00
   -1   -5    9     -3.05      0.00
    0   -5    9     -3.05      0.00
    1   -5    9     -0.92      0.00
    2   -5    9      0.15      0.00
    3   -5    9     -0.47      0.00
    4   -5    9     -0.30      0.00
    5   -5    9     -1.59      0.00
   -7   -4    9     -0.66      0.00
   -6   -4    9     -0.65      0.00
   -5   -4    9     -1.04      0.00
   -4   -4    9     -0.51      0.00
   -3   -4    9     -0.58      0.00
   -2   -4    9     -1.31      0.00
   -1   -4    9     -0.75      0.00
    0   -4    9     -0.47      0.00
    1   -4    9     -1.36      0.00
    2   -4    9     -1.13      0.00
    3   -4    9      0.42      0.00
    4   -4    9     -0.54      0.00
    5   -4    9      0.10      0.00
   -8   -3    9     -0.32      0.00
   -7   -3    9      0.33      0.00
   -6   -3    9      0.43      0.00
   -5   -3    9      0.50      0.00
   -4   -3    9      0.00      0.00
   -3   -3    9     -0.43      0.00
   -2   -3    9      0.91      0.00
   -1   -3    9      1.10      0.00
    0   -3    9      0.87      0.00
    1   -3    9      2.11      0.00
    2   -3    9      2.48      0.00
    3   -3    9      0.19      0.00
    4   -3    9      0.43      0.00
    5   -3    9      0.44      0.00
   -8   -2    9      0.97      0.00
   -7   -2    9      0.61      0.00
   -6   -2    9      0.43      0.00
   -5   -2    9      0.76      0.00
   -4   -2    9      1.00      0.00
   -3   -2    9      1.84      0.00
   -2   -2    9      1.08      0.00
   -1   -2    9      1.38      0.00
    0   -2    9      2.78      0.00
    1   -2    9      1.93      0.00
    2   -2    9     -0.01      0.00
    3   -2    9      0.68      0.00
    4   -2    9      0.25      0.00
    5   -2    9     -0.08      0.00
   -8   -1    9     -0.94      0.00
   -7   -1    9     -0.63      0.00
   -6   -1    9      0.58      0.00
   -5   -1    9      0.61      0.00
   -4   -1    9      0.80      0.00
   -3   -1    9      0.60      0.00
   -2   -1    9      1.93      0.00
   -1   -1    9      2.43      0.00
    0   -1    9      0.74      0.00
    1   -1    9      0.48      0.00
    2   -1    9      1.48      0.00
    3   -1    9      0.10      0.00
    4   -1    9     -0.51      0.00
    5   -1    9     -0.17      0.00
   -8    0    9     -0.16      0.00
   -7    0    9      0.81      0.00
   -6    0    9      0.08      0.00
   -5    0    9     -0.22      0.00
   -4    0    9     -0.31      0.00
   -3    0    9      0.50      0.00
   -2    0    9     -0.03      0.00
   -1    0    9     -1.19      0.00
    0    0    9     -0.35      0.00
    1    0    9     -0.44      0.00
    2    0    9     -1.94      0.00
    3    0    9     -1.35      0.00
    4    0    9     -0.42      0.00
    5    0    9     -0.20      0.00
   -8    1    9      0.86      0.00
   -7    1    9      0.37      0.00
   -6    1    9      0.55      0.00
   -5    1    9      0.33      0.00
   -4    1    9      0.07      0.00
   -3    1    9     -0.63      0.00
   -2    1    9     -1.05      0.00
   -1    1    9     -0.78      0.00
    0    1    9     -2.08      0.00
    1    1    9     -2.29      0.00
    2    1    9     -0.51      0.00
    3    1    9      0.27      0.00
    4    1    9      0.97      0.00
    5    1    9      2.05      0.00
   -8    2    9      0.02      0.00
   -7    2    9      0.44      0.00
   -6    2    9      0.11      0.00
   -5    2    9     -0.50      0.00
   -4    2    9     -0.54      0.00
   -3    2    9     -0.38      0.00
   -2    2    9     -0.27      0.00
   -1    2    9     -0.78      0.00
    0    2    9      0.43      0.00
    1    2    9      1.19      0.00
    2    2    9      0.05      0.00
    3    2    9     -0.12      0.00
    4    2    9     -0.26      0.00
    5    2    9     -1.25      0.00
   -8    3    9     -0.06      0.00
   -7    3    9     -0.78      0.00
   -6    3    9     -1.14      0.00
   -5    3    9     -0.21      0.00
   -4    3    9      0.03      0.00
   -3    3    9     -0.42      0.00
   -2    3    9     -0.88      0.00
   -1    3    9      0.15      0.00
    0    3    9      0.19      0.00
    1    3    9     -0.43      0.00
    2    3    9      0.35      0.00
    3    3    9      0.10      0.00
    4    3    9     -0.48      0.00
    5    3    9      0.03      0.00
   -7    4    9      0.30      0.00
   -6    4    9      0.61      0.00
   -5    4    9      0.03      0.00
   -4    4    9      0.05      0.00
   -3    4    9      0.61      0.00
   -2    4    9      1.24      0.00
   -1    4    9      0.67      0.00
    0    4    9      0.41      0.00
    1    4    9      1.35      0.00
    2    4    9      0.82      0.00
    3    4    9      0.70      0.00
    4    4    9      1.10      0.00
    5    4    9      0.26      0.00
   -7    5    9      0.86      0.00
   -6    5    9      0.39      0.00
   -5    5    9      0.48      0.00
   -4    5    9      0.45      0.00
   -3    5    9      0.31      0.00
   -2    5    9      0.23      0.00
   -1    5    9      0.65      0.00
    0    5    9      1.25      0.00
    1    5    9      0.19      0.00
    2    5    9      0.13      0.00
    3    5    9      0.31      0.00
    4    5    9     -0.31      0.00
   -7    6    9     -0.12      0.00
   -6    6    9      0.19      0.00
   -5    6    9     -0.24      0.00
   -4    6    9     -0.72      0.00
   -3    6    9     -0.74      0.00
   -2    6    9     -0.72      0.00
   -1    6    9     -0.41      0.00
    0    6    9     -1.01      0.00
    1    6    9     -0.69      0.00
    2    6    9     -0.83      0.00
    3    6    9     -1.32      0.00
    4    6    9     -0.43      0.00
   -6    7    9     -0.66      0.00
   -5    7    9     -0.14      0.00
   -4    7    9      0.34      0.00
   -3    7    9      0.14      0.00
   -2    7    9      0.58      0.00
   -1    7    9      0.19      0.00
    0    7    9      0.22      0.00
    1    7    9     -0.26      0.00
    2    7    9     -0.53      0.00
    3    7    9      0.32      0.00
    4    7    9      0.29      0.00
   -6    8    9      0.56      0.00
   -5    8    9      0.15      0.00
   -4    8    9     -0.24      0.00
   -3    8    9      0.55      0.00
   -2    8    9      0.12      0.00
   -1    8    9      0.04      0.00
    0    8    9     -0.17      0.00
    1    8    9     -0.28      0.00
    2    8    9      0.17      0.00
    3    8    9     -0.05      0.00
   -5    9    9     -0.80      0.00
   -4    9    9     -0.08      0.00
   -3    9    9     -1.19      0.00
   -2    9    9     -1.31      0.00
   -1    9    9     -1.08      0.00
    0    9    9     -0.94      0.00
    1    9    9     -0.38      0.00
    2    9    9     -0.24      0.00
   -4   10    9     -0.36      0.00
   -3   10    9      0.56      0.00
   -2   10    9      0.45      0.00
   -1   10    9     -0.51      0.00
    0   10    9     -0.63      0.00
    1   10    9     -0.40      0.00
   -2   11    9     -0.44      0.00
   -1   11    9      0.33      0.00
   -2  -11   10     -1.13      0.00
   -1  -11   10      0.33      0.00
   -4  -10   10     -0.54      0.00
   -3  -10   10      0.41      0.00
   -2  -10   10      0.92      0.00
   -1  -10   10     -0.39      0.00
    0  -10   10     -0.45      0.00
    1  -10   10      0.00      0.00
   -5   -9   10     -0.45      0.00
   -4   -9   10     -0.15      0.00
   -3   -9   10     -0.17      0.00
   -2   -9   10     -0.90      0.00
   -1   -9   10      0.20      0.00
    0   -9   10      0.59      0.00
    1   -9   10      0.32      0.00
    2   -9   10      0.03      0.00
   -6   -8   10     -0.59      0.00
   -5   -8   10     -0.97      0.00
   -4   -8   10     -0.98      0.00
   -3   -8   10     -0.77      0.00
   -2   -8   10      0.58      0.00
   -1   -8   10     -0.21      0.00
    0   -8   10     -0.61      0.00
    1   -8   10      0.22      0.00
    2   -8   10      1.38      0.00
    3   -8   10      0.93      0.00
   -6   -7   10      1.18      0.00
   -5   -7   10      1.58      0.00
   -4   -7   10      0.99      0.00
   -3   -7   10      0.99      0.00
   -2   -7   10     -0.31      0.00
   -1   -7   10      0.16      0.00
    0   -7   10      1.35      0.00
    1   -7   10      1.58      0.00
    2   -7   10     -0.06      0.00
    3   -7   10     -0.90      0.00
   -7   -6   10      0.15      0.00
   -6   -6   10     -0.08      0.00
   -5   -6   10     -0.27      0.00
   -4   -6   10      0.91      0.00
   -3   -6   10      0.83      0.00
   -2   -6   10      1.55      0.00
   -1   -6   10      1.94      0.00
    0   -6   10      1.40      0.00
    1   -6   10     -0.19      0.00
    2   -6   10     -0.63      0.00
    3   -6   10     -0.11      0.00
    4   -6   10      0.14      0.00
   -7   -5   10      0.43      0.00
   -6   -5   10      0.05      0.00
   -5   -5   10      0.73      0.00
   -4   -5   10      0.25      0.00
   -3   -5   10      0.42      0.00
   -2   -5   10      0.47      0.00
   -1   -5   10      0.40      0.00
    0   -5   10      0.45      0.00
    1   -5   10      0.99      0.00
    2   -5   10      0.84      0.00
    3   -5   10      0.17      0.00
    4   -5   10      0.77      0.00
   -7   -4   10     -1.05      0.00
   -6   -4   10     -0.57      0.00
   -5   -4   10     -0.78      0.00
   -4   -4   10     -0.24      0.00
   -3   -4   10     -0.18      0.00
   -2   -4   10     -1.00      0.00
   -1   -4   10     -1.43      0.00
    0   -4   10     -1.62      0.00
    1   -4   10     -2.25      0.00
    2   -4   10     -2.02      0.00
    3   -4   10     -0.24      0.00
    4   -4   10     -0.78      0.00
   -7   -3   10     -0.43      0.00
   -6   -3   10     -0.62      0.00
   -5   -3   10     -0.38      0.00
   -4   -3   10     -0.60      0.00
   -3   -3   10     -1.31      0.00
   -2   -3   10     -0.90      0.00
   -1   -3   10     -1.19      0.00
    0   -3   10     -2.16      0.00
    1   -3   10     -1.53      0.00
    2   -3   10      0.33      0.00
    3   -3   10      0.14      0.00
    4   -3   10      0.80      0.00
   -8   -2   10      1.22      0.00
   -7   -2   10      0.44      0.00
   -6   -2   10     -0.04      0.00
   -5   -2   10     -0.26      0.00
   -4   -2   10     -0.67      0.00
   -3   -2   10     -0.29      0.00
   -2   -2   10     -1.02      0.00
   -1   -2   10     -1.31      0.00
    0   -2   10     -0.35      0.00
    1   -2   10     -0.02      0.00
    2   -2   10     -0.93      0.00
    3   -2   10     -0.20      0.00
    4   -2   10     -0.61      0.00
    5   -2   10     -0.78      0.00
   -8   -1   10     -0.20      0.00
   -7   -1   10     -0.56      0.00
   -6   -1   10     -0.01      0.00
   -5   -1   10      0.43      0.00
   -4   -1   10      0.97      0.00
   -3   -1   10      0.09      0.00
   -2   -1   10      0.16      0.00
   -1   -1   10      0.76      0.00
    0   -1   10      0.57      0.00
    1   -1   10      0.81      0.00
    2   -1   10      1.92      0.00
    3   -1   10      0.95      0.00
    4   -1   10      0.21      0.00
    5   -1   10      0.20      0.00
   -8    0   10     -1.02      0.00
   -7    0   10     -0.29      0.00
   -6    0   10      0.08      0.00
   -5    0   10      0.53      0.00
   -4    0   10      0.18      0.00
   -3    0   10      0.77      0.00
   -2    0   10      1.23      0.00
   -1    0   10      1.25      0.00
    0    0   10      1.86      0.00
    1    0   10      1.64      0.00
    2    0   10     -0.07      0.00
    3    0   10     -0.57      0.00
    4    0   10     -0.64      0.00
    5    0   10     -1.01      0.00
   -8    1   10      0.43      0.00
   -7    1   10      0.07      0.00
   -6    1   10      0.21      0.00
   -5    1   10      0.02      0.00
   -4    1   10      0.30      0.00
   -3    1   10      0.41      0.00
   -2    1   10      0.34      0.00
   -1    1   10      0.29      0.00
    0    1   10     -0.71      0.00
    1    1   10     -0.92      0.00
    2    1   10      0.23      0.00
    3    1   10      0.52      0.00
    4    1   10      0.46      0.00
    5    1   10      0.88      0.00
   -7    2   10      0.66      0.00
   -6    2   10      0.76      0.00
   -5    2   10      0.19      0.00
   -4    2   10     -0.21      0.00
   -3    2   10     -0.02      0.00
   -2    2   10      0.30      0.00
   -1    2   10     -0.19      0.00
    0    2   10      0.16      0.00
    1    2   10      0.44      0.00
    2    2   10     -0.33      0.00
    3    2   10     -0.39      0.00
    4    2   10      0.02      0.00
   -7    3   10     -0.04      0.00
   -6    3   10     -0.26      0.00
   -5    3   10      0.06      0.00
   -4    3   10      0.03      0.00
   -3    3   10     -0.34      0.00
   -2    3   10     -0.80      0.00
   -1    3   10     -0.27      0.00
    0    3   10     -0.39      0.00
    1    3   10     -1.08      0.00
    2    3   10     -0.73      0.00
    3    3   10     -0.63      0.00
    4    3   10     -0.64      0.00
   -7    4   10     -0.32      0.00
   -6    4   10     -0.24      0.00
   -5    4   10     -0.46      0.00
   -4    4   10     -0.37      0.00
   -3    4   10     -0.29      0.00
   -2    4   10     -0.04      0.00
   -1    4   10     -0.35      0.00
    0    4   10     -0.34      0.00
    1    4   10      0.57      0.00
    2    4   10      0.45      0.00
    3    4   10      0.29      0.00
    4    4   10      0.43      0.00
   -7    5   10      0.02      0.00
   -6    5   10     -0.17      0.00
   -5    5   10      0.22      0.00
   -4    5   10      0.59      0.00
   -3    5   10      0.89      0.00
   -2    5   10      0.82      0.00
   -1    5   10      0.73      0.00
    0    5   10      1.09      0.00
    1    5   10      0.58      0.00
    2    5   10      0.69      0.00
    3    5   10      0.86      0.00
    4    5   10      0.24      0.00
   -6    6   10      0.80      0.00
   -5    6   10      0.33      0.00
   -4    6   10      0.09      0.00
   -3    6   10      0.11      0.00
   -2    6   10      0.02      0.00
   -1    6   10      0.38      0.00
    0    6   10      0.10      0.00
    1    6   10      0.38      0.00
    2    6   10      0.23      0.00
    3    6   10     -0.50      0.00
   -6    7   10     -0.01      0.00
   -5    7   10      0.30      0.00
   -4    7   10      0.31      0.00
   -3    7   10     -0.22      0.00
   -2    7   10      0.06      0.00
   -1    7   10     -0.17      0.00
    0    7   10      0.03      0.00
    1    7   10     -0.15      0.00
    2    7   10     -0.60      0.00
    3    7   10     -0.26      0.00
   -5    8   10      0.08      0.00
   -4    8   10     -0.27      0.00
   -3    8   10      0.63      0.00
   -2    8   10      0.57      0.00
   -1    8   10      0.63      0.00
    0    8   10      0.46      0.00
    1    8   10      0.08      0.00
    2    8   10      0.20      0.00
   -4    9   10      0.22      0.00
   -3    9   10     -0.72      0.00
   -2    9   10     -0.44      0.00
   -1    9   10      0.33      0.00
    0    9   10      0.42      0.00
    1    9   10      0.23      0.00
   -3   10   10      0.20      0.00
   -2   10   10      0.10      0.00
   -1   10   10     -0.82      0.00
    0   10   10     -0.97      0.00
   -3  -10   11     -0.24      0.00
   -2  -10   11      0.40      0.00
   -1  -10   11     -0.32      0.00
    0  -10   11     -0.25      0.00
   -4   -9   11      0.57      0.00
   -3   -9   11      0.30      0.00
   -2   -9   11     -0.46      0.00
   -1   -9   11      0.45      0.00
    0   -9   11      0.32      0.00
    1   -9   11     -0.45      0.00
   -5   -8   11     -1.12      0.00
   -4   -8   11     -0.93      0.00
   -3   -8   11     -0.69      0.00
   -2   -8   11      0.38      0.00
   -1   -8   11     -0.62      0.00
    0   -8   11     -1.26      0.00
    1   -8   11     -0.77      0.00
    2   -8   11      0.37      0.00
   -6   -7   11      0.29      0.00
   -5   -7   11     -0.08      0.00
   -4   -7   11     -1.15      0.00
   -3   -7   11     -0.94      0.00
   -2   -7   11     -1.42      0.00
   -1   -7   11     -0.84      0.00
    0   -7   11     -0.16      0.00
    1   -7   11      0.70      0.00
    2   -7   11      0.66      0.00
    3   -7   11      0.41      0.00
   -6   -6   11      0.27      0.00
   -5   -6   11     -0.34      0.00
   -4   -6   11      0.19      0.00
   -3   -6   11     -0.07      0.00
   -2   -6   11      0.09      0.00
   -1   -6   11     -0.30      0.00
    0   -6   11     -0.32      0.00
    1   -6   11     -0.62      0.00
    2   -6   11     -0.68      0.00
    3   -6   11     -0.69      0.00
   -7   -5   11      1.13      0.00
   -6   -5   11      0.35      0.00
   -5   -5   11      0.72      0.00
   -4   -5   11      0.21      0.00
   -3   -5   11      0.36      0.00
   -2   -5   11      0.71      0.00
   -1   -5   11      1.43      0.00
    0   -5   11      1.73      0.00
    1   -5   11      1.90      0.00
    2   -5   11      1.34      0.00
    3   -5   11      0.28      0.00
   -7   -4   11      0.03      0.00
   -6   -4   11      0.42      0.00
   -5   -4   11     -0.21      0.00
   -4   -4   11      0.24      0.00
   -3   -4   11      0.78      0.00
   -2   -4   11      0.60      0.00
   -1   -4   11      0.74      0.00
    0   -4   11      1.54      0.00
    1   -4   11      1.09      0.00
    2   -4   11     -0.50      0.00
    3   -4   11     -0.60      0.00
    4   -4   11     -1.11      0.00
   -7   -3   11     -0.43      0.00
   -6   -3   11     -0.61      0.00
   -5   -3   11      0.21      0.00
   -4   -3   11      0.68      0.00
   -3   -3   11      0.11      0.00
   -2   -3   11      0.39      0.00
   -1   -3   11      0.67      0.00
    0   -3   11     -0.11      0.00
    1   -3   11     -0.65      0.00
    2   -3   11      0.37      0.00
    3   -3   11      0.48      0.00
    4   -3   11      1.38      0.00
   -7   -2   11     -0.11      0.00
   -6   -2   11     -0.06      0.00
   -5   -2   11     -0.73      0.00
   -4   -2   11     -1.52      0.00
   -3   -2   11     -0.51      0.00
   -2   -2   11     -0.23      0.00
   -1   -2   11     -0.80      0.00
    0   -2   11     -1.10      0.00
    1   -2   11     -1.07      0.00
    2   -2   11     -1.54      0.00
    3   -2   11     -0.35      0.00
    4   -2   11     -0.12      0.00
   -7   -1   11      0.27      0.00
   -6   -1   11     -0.60      0.00
   -5   -1   11     -0.75      0.00
   -4   -1   11      0.26      0.00
   -3   -1   11     -0.44      0.00
   -2   -1   11     -1.14      0.00
   -1   -1   11     -1.25      0.00
    0   -1   11     -1.31      0.00
    1   -1   11     -1.02      0.00
    2   -1   11      0.47      0.00
    3   -1   11      0.47      0.00
    4   -1   11      0.00      0.00
   -7    0   11     -0.49      0.00
   -6    0   11      0.03      0.00
   -5    0   11      0.75      0.00
   -4    0   11     -0.08      0.00
   -3    0   11     -0.33      0.00
   -2    0   11     -0.26      0.00
   -1    0   11     -0.03      0.00
    0    0   11      0.53      0.00
    1    0   11      0.67      0.00
    2    0   11     -0.37      0.00
    3    0   11     -0.68      0.00
    4    0   11     -0.32      0.00
   -7    1   11     -0.57      0.00
   -6    1   11     -0.44      0.00
   -5    1   11     -0.11      0.00
   -4    1   11      0.73      0.00
   -3    1   11      0.60      0.00
   -2    1   11      0.12      0.00
   -1    1   11      0.01      0.00
    0    1   11     -0.43      0.00
    1    1   11     -0.57      0.00
    2    1   11      0.19      0.00
    3    1   11      0.67      0.00
    4    1   11      0.32      0.00
   -7    2   11      0.10      0.00
   -6    2   11      0.22      0.00
   -5    2   11      0.07      0.00
   -4    2   11     -0.32      0.00
   -3    2   11     -0.06      0.00
   -2    2   11      0.38      0.00
   -1    2   11      0.04      0.00
    0    2   11      0.33      0.00
    1    2   11      1.01      0.00
    2    2   11      1.02      0.00
    3    2   11      0.50      0.00
    4    2   11      0.05      0.00
   -7    3   11      0.11      0.00
   -6    3   11      0.38      0.00
   -5    3   11      0.47      0.00
   -4    3   11      0.48      0.00
   -3    3   11      0.38      0.00
   -2    3   11      0.02      0.00
   -1    3   11      0.24      0.00
    0    3   11     -0.05      0.00
    1    3   11     -0.83      0.00
    2    3   11     -1.02      0.00
    3    3   11     -0.76      0.00
    4    3   11     -0.26      0.00
   -7    4   11      0.12      0.00
   -6    4   11     -0.03      0.00
   -5    4   11     -0.31      0.00
   -4    4   11     -0.58      0.00
   -3    4   11     -0.85      0.00
   -2    4   11     -0.57      0.00
   -1    4   11     -0.60      0.00
    0    4   11     -0.68      0.00
    1    4   11     -0.15      0.00
    2    4   11      0.01      0.00
    3    4   11     -0.03      0.00
   -6    5   11     -0.44      0.00
   -5    5   11     -0.23      0.00
   -4    5   11     -0.32      0.00
   -3    5   11     -0.36      0.00
   -2    5   11     -0.50      0.00
   -1    5   11     -0.39      0.00
    0    5   11      0.22      0.00
    1    5   11      0.13      0.00
    2    5   11      0.14      0.00
    3    5   11      0.40      0.00
   -6    6   11     -0.41      0.00
   -5    6   11     -0.66      0.00
   -4    6   11     -0.26      0.00
   -3    6   11      0.30      0.00
   -2    6   11      0.45      0.00
   -1    6   11      0.61      0.00
    0    6   11      0.11      0.00
    1    6   11      0.21      0.00
    2    6   11      0.56      0.00
   -5    7   11      0.84      0.00
   -4    7   11      0.89      0.00
   -3    7   11      0.35      0.00
   -2    7   11      0.42      0.00
   -1    7   11      0.18      0.00
    0    7   11      0.38      0.00
    1    7   11      0.45      0.00
    2    7   11     -0.11      0.00
   -5    8   11     -0.05      0.00
   -4    8   11     -0.02      0.00
   -3    8   11      0.70      0.00
   -2    8   11      0.26      0.00
   -1    8   11     -0.27      0.00
    0    8   11     -0.45      0.00
    1    8   11     -0.37      0.00
   -3    9   11     -0.43      0.00
   -2    9   11      0.10      0.00
   -1    9   11      1.06      0.00
    0    9   11      1.14      0.00
   -3   -9   12      0.22      0.00
   -2   -9   12     -0.23      0.00
   -1   -9   12      0.77      0.00
    0   -9   12      0.79      0.00
   -4   -8   12      1.07      0.00
   -3   -8   12      0.84      0.00
   -2   -8   12      0.99      0.00
   -1   -8   12      0.05      0.00
    0   -8   12     -0.34      0.00
    1   -8   12     -0.59      0.00
   -5   -7   12     -0.01      0.00
   -4   -7   12     -0.62      0.00
   -3   -7   12     -0.26      0.00
   -2   -7   12     -0.28      0.00
   -1   -7   12      0.34      0.00
    0   -7   12      0.15      0.00
    1   -7   12      0.21      0.00
    2   -7   12      0.36      0.00
   -6   -6   12     -0.10      0.00
   -5   -6   12     -0.58      0.00
   -4   -6   12     -0.22      0.00
   -3   -6   12     -0.47      0.00
   -2   -6   12     -0.48      0.00
   -1   -6   12     -1.26      0.00
    0   -6   12     -1.38      0.00
    1   -6   12     -1.24      0.00
    2   -6   12     -0.64      0.00
   -6   -5   12     -0.10      0.00
   -5   -5   12      0.53      0.00
   -4   -5   12     -0.16      0.00
   -3   -5   12     -0.39      0.00
   -2   -5   12     -0.33      0.00
   -1   -5   12     -0.29      0.00
    0   -5   12     -0.91      0.00
    1   -5   12     -0.53      0.00
    2   -5   12      0.50      0.00
    3   -5   12      0.48      0.00
   -6   -4   12      0.86      0.00
   -5   -4   12     -0.54      0.00
   -4   -4   12     -0.77      0.00
   -3   -4   12     -0.21      0.00
   -2   -4   12     -0.30      0.00
   -1   -4   12     -0.49      0.00
    0   -4   12      0.47      0.00
    1   -4   12      0.99      0.00
    2   -4   12     -0.18      0.00
    3   -4   12     -0.77      0.00
   -7   -3   12      0.55      0.00
   -6   -3   12     -0.11      0.00
   -5   -3   12      0.91      0.00
   -4   -3   12      1.60      0.00
   -3   -3   12      0.59      0.00
   -2   -3   12      0.26      0.00
   -1   -3   12      0.99      0.00
    0   -3   12      1.38      0.00
    1   -3   12      1.00      0.00
    2   -3   12      0.94      0.00
    3   -3   12     -0.10      0.00
   -7   -2   12     -0.42      0.00
   -6   -2   12      0.72      0.00
   -5   -2   12      0.22      0.00
   -4   -2   12     -1.00      0.00
   -3   -2   12     -0.09      0.00
   -2   -2   12      0.70      0.00
   -1   -2   12      0.76      0.00
    0   -2   12      0.59      0.00
    1   -2   12      0.41      0.00
    2   -2   12     -0.66      0.00
    3   -2   12     -0.12      0.00
   -7   -1   12      0.41      0.00
   -6   -1   12     -0.83      0.00
   -5   -1   12     -1.35      0.00
   -4   -1   12      0.01      0.00
   -3   -1   12      0.19      0.00
   -2   -1   12      0.17      0.00
   -1   -1   12      0.01      0.00
    0   -1   12     -0.34      0.00
    1   -1   12     -0.69      0.00
    2   -1   12      0.25      0.00
    3   -1   12      0.48      0.00
   -7    0   12      0.40      0.00
   -6    0   12      0.34      0.00
   -5    0   12      0.09      0.00
   -4    0   12     -1.19      0.00
   -3    0   12     -0.94      0.00
   -2    0   12     -0.39      0.00
   -1    0   12     -0.04      0.00
    0    0   12      0.29      0.00
    1    0   12      0.59      0.00
    2    0   12     -0.04      0.00
    3    0   12     -0.63      0.00
   -7    1   12     -0.54      0.00
   -6    1   12     -0.47      0.00
   -5    1   12     -0.13      0.00
   -4    1   12      0.86      0.00
   -3    1   12      0.36      0.00
   -2    1   12     -0.26      0.00
   -1    1   12     -0.13      0.00
    0    1   12     -0.33      0.00
    1    1   12     -1.08      0.00
    2    1   12     -1.29      0.00
    3    1   12     -0.38      0.00
   -7    2   12     -0.14      0.00
   -6    2   12     -0.46      0.00
   -5    2   12     -0.33      0.00
   -4    2   12     -0.63      0.00
   -3    2   12     -0.38      0.00
   -2    2   12     -0.05      0.00
   -1    2   12     -0.39      0.00
    0    2   12     -0.24      0.00
    1    2   12      0.52      0.00
    2    2   12      1.30      0.00
    3    2   12      0.95      0.00
   -6    3   12      0.38      0.00
   -5    3   12      0.48      0.00
   -4    3   12      0.77      0.00
   -3    3   12      0.72      0.00
   -2    3   12      0.16      0.00
   -1    3   12      0.18      0.00
    0    3   12      0.17      0.00
    1    3   12     -0.11      0.00
    2    3   12     -0.57      0.00
    3    3   12     -0.55      0.00
   -6    4   12     -0.02      0.00
   -5    4   12      0.14      0.00
   -4    4   12      0.40      0.00
   -3    4   12      0.53      0.00
   -2    4   12      0.72      0.00
   -1    4   12      0.13      0.00
    0    4   12     -0.67      0.00
    1    4   12     -0.77      0.00
    2    4   12     -0.36      0.00
   -6    5   12      0.60      0.00
   -5    5   12      0.70      0.00
   -4    5   12     -0.01      0.00
   -3    5   12     -0.72      0.00
   -2    5   12     -1.14      0.00
   -1    5   12     -0.81      0.00
    0    5   12      0.12      0.00
    1    5   12      0.36      0.00
    2    5   12      0.04      0.00
   -5    6   12     -1.45      0.00
   -4    6   12     -1.39      0.00
   -3    6   12     -1.10      0.00
   -2    6   12     -0.95      0.00
   -1    6   12     -0.67      0.00
    0    6   12     -0.90      0.00
    1    6   12     -0.78      0.00
    2    6   12      0.00      0.00
   -4    7   12      0.11      0.00
   -3    7   12     -0.19      0.00
   -2    7   12      0.29      0.00
   -1    7   12      0.58      0.00
    0    7   12      0.80      0.00
    1    7   12      0.74      0.00
   -3    8   12      0.81      0.00
   -2    8   12      0.07      0.00
   -1    8   12     -0.75      0.00
    0    8   12     -0.85      0.00
   -3   -8   13      0.30      0.00
   -2   -8   13      0.14      0.00
   -1   -8   13     -0.37      0.00
   -4   -7   13      0.32      0.00
   -3   -7   13      0.58      0.00
   -2   -7   13      0.44      0.00
   -1   -7   13      1.04      0.00
    0   -7   13      0.88      0.00
   -5   -6   13     -0.40      0.00
   -4   -6   13      0.25      0.00
   -3   -6   13      0.15      0.00
   -2   -6   13      0.18      0.00
   -1   -6   13     -0.01      0.00
    0   -6   13      0.32      0.00
    1   -6   13     -0.04      0.00
   -5   -5   13      0.80      0.00
   -4   -5   13      0.62      0.00
   -3   -5   13      0.36      0.00
   -2   -5   13      0.45      0.00
   -1   -5   13      0.48      0.00
    0   -5   13     -0.55      0.00
    1   -5   13     -0.75      0.00
    2   -5   13      0.36      0.00
   -6   -4   13      0.38      0.00
   -5   -4   13     -0.90      0.00
   -4   -4   13     -1.25      0.00
   -3   -4   13     -0.48      0.00
   -2   -4   13     -0.27      0.00
   -1   -4   13     -0.97      0.00
    0   -4   13     -1.14      0.00
    1   -4   13     -0.67      0.00
    2   -4   13     -0.48      0.00
   -6   -3   13     -0.53      0.00
   -5   -3   13      0.47      0.00
   -4   -3   13      1.32      0.00
   -3   -3   13      0.40      0.00
   -2   -3   13     -0.24      0.00
   -1   -3   13     -0.24      0.00
    0   -3   13     -0.08      0.00
    1   -3   13      0.02      0.00
    2   -3   13      0.59      0.00
   -6   -2   13      1.54      0.00
   -5   -2   13      1.27      0.00
   -4   -2   13     -0.21      0.00
   -3   -2   13     -0.19      0.00
   -2   -2   13     -0.31      0.00
   -1   -2   13     -0.20      0.00
    0   -2   13      0.28      0.00
    1   -2   13      0.80      0.00
    2   -2   13     -0.07      0.00
   -6   -1   13     -0.63      0.00
   -5   -1   13     -0.27      0.00
   -4   -1   13      1.14      0.00
   -3   -1   13      0.77      0.00
   -2   -1   13      0.53      0.00
   -1   -1   13      0.33      0.00
    0   -1   13      0.08      0.00
    1   -1   13     -0.51      0.00
    2   -1   13     -0.15      0.00
   -6    0   13      0.62      0.00
   -5    0   13     -0.14      0.00
   -4    0   13     -1.42      0.00
   -3    0   13     -0.41      0.00
   -2    0   13      0.32      0.00
   -1    0   13      0.23      0.00
    0    0   13      0.19      0.00
    1    0   13      0.90      0.00
    2    0   13      1.12      0.00
   -6    1   13      0.19      0.00
   -5    1   13      0.00      0.00
   -4    1   13      0.64      0.00
   -3    1   13      0.03      0.00
   -2    1   13     -0.19      0.00
   -1    1   13      0.44      0.00
    0    1   13      0.70      0.00
    1    1   13     -0.02      0.00
    2    1   13     -1.16      0.00
   -6    2   13     -0.71      0.00
   -5    2   13     -0.59      0.00
   -4    2   13     -1.03      0.00
   -3    2   13     -0.58      0.00
   -2    2   13      0.12      0.00
   -1    2   13      0.14      0.00
    0    2   13      0.01      0.00
    1    2   13     -0.11      0.00
    2    2   13      0.54      0.00
   -6    3   13      0.22      0.00
   -5    3   13     -0.21      0.00
   -4    3   13     -0.27      0.00
   -3    3   13     -0.50      0.00
   -2    3   13     -0.77      0.00
   -1    3   13     -0.13      0.00
    0    3   13      0.57      0.00
    1    3   13      0.99      0.00
    2    3   13      0.36      0.00
   -5    4   13     -0.33      0.00
   -4    4   13      0.39      0.00
   -3    4   13      1.06      0.00
   -2    4   13      1.35      0.00
   -1    4   13      0.49      0.00
    0    4   13     -0.60      0.00
    1    4   13     -1.17      0.00
   -5    5   13      1.47      0.00
   -4    5   13      1.44      0.00
   -3    5   13      1.19      0.00
   -2    5   13      0.75      0.00
   -1    5   13      0.58      0.00
    0    5   13      0.75      0.00
    1    5   13      0.75      0.00
   -4    6   13     -0.48      0.00
   -3    6   13     -0.61      0.00
   -2    6   13     -0.94      0.00
   -1    6   13     -1.01      0.00
    0    6   13     -1.03      0.00
   -3    7   13     -1.04      0.00
   -2    7   13     -0.42      0.00
   -1    7   13      0.16      0.00
   -3   -6   14     -0.33      0.00
   -2   -6   14     -0.42      0.00
   -1   -6   14     -0.36      0.00
   -4   -5   14      0.77      0.00
   -3   -5   14      0.39      0.00
   -2   -5   14      0.27      0.00
   -1   -5   14      0.71      0.00
    0   -5   14      0.64      0.00
   -5   -4   14     -0.72      0.00
   -4   -4   14     -0.97      0.00
   -3   -4   14     -0.34      0.00
   -2   -4   14      0.07      0.00
   -1   -4   14      0.11      0.00
    0   -4   14     -0.02      0.00
    1   -4   14     -0.15      0.00
   -5   -3   14     -0.58      0.00
   -4   -3   14      0.47      0.00
   -3   -3   14      0.40      0.00
   -2   -3   14      0.69      0.00
   -1   -3   14      0.42      0.00
    0   -3   14     -0.29      0.00
    1   -3   14     -0.74      0.00
   -5   -2   14      0.46      0.00
   -4   -2   14     -0.67      0.00
   -3   -2   14     -0.34      0.00
   -2   -2   14     -0.63      0.00
   -1   -2   14     -0.66      0.00
    0   -2   14     -0.33      0.00
    1   -2   14      0.44      0.00
   -5   -1   14      0.53      0.00
   -4   -1   14      1.57      0.00
   -3   -1   14      0.20      0.00
   -2   -1   14     -0.28      0.00
   -1   -1   14     -0.11      0.00
    0   -1   14      0.13      0.00
    1   -1   14     -0.41      0.00
   -5    0   14      0.17      0.00
   -4    0   14     -0.55      0.00
   -3    0   14      0.57      0.00
   -2    0   14      0.61      0.00
   -1    0   14     -0.23      0.00
    0    0   14     -0.87      0.00
    1    0   14     -0.32      0.00
   -5    1   14      0.43      0.00
   -4    1   14      1.04      0.00
   -3    1   14      0.30      0.00
   -2    1   14     -0.24      0.00
   -1    1   14     -0.24      0.00
    0    1   14      0.11      0.00
    1    1   14      0.49      0.00
   -5    2   14      0.28      0.00
   -4    2   14     -0.15      0.00
   -3    2   14      0.22      0.00
   -2    2   14      0.63      0.00
   -1    2   14      0.47      0.00
    0    2   14      0.09      0.00
    1    2   14     -0.68      0.00
   -5    3   14     -0.32      0.00
   -4    3   14     -0.67      0.00
   -3    3   14     -1.08      0.00
   -2    3   14     -1.01      0.00
   -1    3   14     -0.01      0.00
    0    3   14      0.76      0.00
    1    3   14      1.47      0.00
   -4    4   14     -1.02      0.00
   -3    4   14     -0.75      0.00
   -2    4   14     -0.31      0.00
   -1    4   14     -0.32      0.00
    0    4   14     -0.28      0.00
   -3    5   14      1.11      0.00
   -2    5   14      1.21      0.00
   -1    5   14      1.09      0.00
   -3   -4   15     -0.57      0.00
   -2   -4   15     -0.91      0.00
   -1   -4   15     -0.45      0.00
   -4   -3   15      0.21      0.00
   -3   -3   15      0.09      0.00
   -2   -3   15      0.76      0.00
   -1   -3   15      0.79      0.00
   -4   -2   15     -1.11      0.00
   -3   -2   15      0.14      0.00
   -2   -2   15      0.13      0.00
   -1   -2   15     -0.08      0.00
    0   -2   15     -0.35      0.00
   -4   -1   15      0.45      0.00
   -3   -1   15     -0.99      0.00
   -2   -1   15     -0.81      0.00
   -1   -1   15     -0.02      0.00
    0   -1   15      0.68      0.00
   -4    0   15     -0.71      0.00
   -3    0   15      0.18      0.00
   -2    0   15      0.31      0.00
   -1    0   15      0.25      0.00
   -4    1   15      0.63      0.00
   -3    1   15      0.15      0.00
   -2    1   15     -0.29      0.00
   -1    1   15     -0.74      0.00
    0    1   15     -0.74      0.00
   -4    2   15      0.63      0.00
   -3    2   15      0.81      0.00
   -2    2   15      0.49      0.00
   -1    2   15     -0.12      0.00
   -3    3   15      0.21      0.00
   -2    3   15      0.12      0.00
    0    2    0     -2.77      0.00
    1    2    0     -6.13      0.00
   -1    4    0    -10.31      0.00
    8    5    0     -2.72      0.00
   -8    6    0      0.72      0.00
    6   10    0      0.53      0.00
   -2   14    0      0.19      0.00
    1   14    0      0.45      0.00
   -2  -14    1     -0.21      0.00
    2  -14    1      0.02      0.00
   -8   -6    1      1.59      0.00
    1   -5    1      7.15      0.00
    8   -5    1      0.57      0.00
   -3   -3    1      6.80      0.00
    1   -1    1    -18.62      0.00
   -1    1    1     15.26      0.00
    2    1    1     17.21      0.00
    3    1    1      7.68      0.00
   -1    3    1     12.14      0.00
   -8    6    1      1.70      0.00
    7    8    1      0.11      0.00
   -7    9    1     -0.91      0.00
    6   10    1      0.17      0.00
   -5   12    1      0.66      0.00
    3   13    1      0.19      0.00
   -2   14    1      0.41      0.00
    1   14    1      0.06      0.00
   -2  -14    2      0.39      0.00
    1  -14    2      0.13      0.00
    6  -10    2      0.16      0.00
   -7   -9    2      0.27      0.00
    7   -8    2      0.59      0.00
   -8   -6    2      1.24      0.00
    1   -5    2      2.69      0.00
    8   -4    2      0.37      0.00
    0   -3    2     -3.53      0.00
   -3   -2    2      8.23      0.00
   -2   -2    2      9.13      0.00
   -1   -2    2     22.16      0.00
    0   -2    2     25.86      0.00
    0    0    2     -9.77      0.00
    1    0    2    -16.73      0.00
    2    0    2    -16.82      0.00
    8    3    2     -2.38      0.00
    7    7    2     -0.17      0.00
   -7    9    2      0.67      0.00
    5   11    2     -0.79      0.00
   -5   12    2      0.73      0.00
    4   12    2      0.41      0.00
    3   13    2     -0.18      0.00
   -1   14    2     -0.43      0.00
    0   14    2     -0.68      0.00
    1   14    2     -0.58      0.00
   -1  -14    3      0.37      0.00
    0  -14    3     -0.11      0.00
    1  -14    3     -0.09      0.00
    3  -13    3      1.09      0.00
   -5  -12    3     -0.27      0.00
    5  -11    3      0.44      0.00
   -7   -9    3      0.65      0.00
    7   -7    3      0.16      0.00
   -1   -3    3    -14.99      0.00
    0   -3    3    -13.50      0.00
    8   -3    3      0.35      0.00
    8   -2    3     -0.51      0.00
   -1   -1    3     14.57      0.00
    8   -1    3      0.53      0.00
    8    0    3      0.27      0.00
    1    1    3     -7.65      0.00
    8    1    3     -0.08      0.00
    8    2    3      1.25      0.00
    0    3    3     -6.29      0.00
    7    6    3      0.20      0.00
   -7    9    3      1.10      0.00
    6    9    3     -0.03      0.00
   -1   14    3     -0.14      0.00
   -1  -14    4     -0.03      0.00
    0  -14    4     -0.21      0.00
    4  -12    4      0.45      0.00
   -7   -9    4      0.70      0.00
    6   -9    4      0.31      0.00
    7   -6    4      0.72      0.00
    0   -2    4     -8.95      0.00
    1   -2    4    -13.36      0.00
   -1    1    4      7.99      0.00
    0    2    4      5.64      0.00
    6    8    4     -0.08      0.00
   -7    9    4      0.09      0.00
    5   10    4      0.80      0.00
   -3   13    4      0.27      0.00
    2   13    4      0.38      0.00
   -3  -13    5     -0.34      0.00
    2  -13    5     -0.48      0.00
    5  -10    5     -0.90      0.00
   -7   -9    5     -0.05      0.00
    6   -8    5     -0.89      0.00
    7   -5    5      1.93      0.00
   -1   -4    5      2.95      0.00
   -2   -3    5      9.49      0.00
    7    4    5      0.23      0.00
   -3   13    5     -0.49      0.00
    1   13    5     -0.07      0.00
   -3  -13    6      0.02      0.00
    1  -13    6      0.27      0.00
    3  -12    6      0.54      0.00
    4  -11    6      0.34      0.00
    6   -7    6      0.13      0.00
   -8   -6    6     -0.28      0.00
    7   -3    6      1.23      0.00
    7   -2    6     -0.62      0.00
    7    2    6      1.30      0.00
   -8    6    6      0.81      0.00
   -6   10    6     -0.78      0.00
    4   10    6     -0.36      0.00
   -5   11    6      0.30      0.00
   -4   12    6     -0.04      0.00
    2   12    6      0.01      0.00
   -2   13    6     -0.74      0.00
   -1   13    6      0.06      0.00
   -2  -13    7      1.36      0.00
   -1  -13    7      0.53      0.00
    0  -13    7     -0.31      0.00
   -4  -12    7      0.72      0.00
    2  -12    7      0.25      0.00
   -5  -11    7      0.14      0.00
   -6  -10    7      0.08      0.00
    4  -10    7      0.46      0.00
   -8   -6    7      0.46      0.00
    6   -6    7     -1.22      0.00
    6   -4    7     -0.13      0.00
    6    5    7      0.38      0.00
   -7    8    7     -0.34      0.00
   -5   11    7     -0.85      0.00
   -3   12    7      0.56      0.00
    1   12    7     -0.57      0.00
    1  -12    8      0.35      0.00
   -5  -11    8     -0.05      0.00
   -7   -8    8     -0.63      0.00
   -8   -5    8     -1.21      0.00
    6   -4    8      1.20      0.00
    6    3    8      1.01      0.00
   -8    5    8     -0.58      0.00
   -4   11    8      0.31      0.00
   -2   12    8      0.60      0.00
   -1   12    8     -0.05      0.00
   -2  -12    9     -0.84      0.00
   -1  -12    9     -0.79      0.00
    0  -12    9     -0.02      0.00
   -4  -11    9     -0.92      0.00
    2  -11    9      0.68      0.00
    3  -10    9     -0.24      0.00
   -6   -9    9      1.09      0.00
    5   -6    9      0.88      0.00
   -8   -4    9      0.24      0.00
   -8    4    9      0.32      0.00
    5    5    9     -0.02      0.00
   -7    7    9     -0.53      0.00
    3    9    9      0.05      0.00
    2   10    9      0.18      0.00
   -3   11    9     -0.13      0.00
    0   11    9      0.56      0.00
   -3  -11   10     -1.85      0.00
    0  -11   10      0.06      0.00
    2  -10   10      0.02      0.00
    3   -9   10      0.22      0.00
    4   -7   10     -0.58      0.00
    5   -4   10     -0.30      0.00
   -8   -3   10     -1.09      0.00
    5   -3   10      0.29      0.00
   -8    2   10     -0.24      0.00
    5    2   10      0.13      0.00
   -8    3   10      0.22      0.00
   -7    6   10      0.74      0.00
    4    6   10     -0.35      0.00
   -6    8   10      0.52      0.00
   -5    9   10      0.00      0.00
    2    9   10     -0.26      0.00
   -4   10   10     -0.42      0.00
   -4  -10   11     -0.67      0.00
    1  -10   11     -0.08      0.00
   -5   -9   11      0.29      0.00
    2   -9   11     -0.84      0.00
    4   -5   11      0.74      0.00
    4    4   11     -0.03      0.00
   -7    5   11     -0.55      0.00
    3    6   11      0.29      0.00
   -6    7   11      0.34      0.00
    2    8   11      0.09      0.00
   -4    9   11      0.10      0.00
   -4   -9   12      0.45      0.00
   -5   -8   12      0.35      0.00
   -7   -4   12      0.53      0.00
    4   -1   12      0.04      0.00
   -7    3   12     -0.10      0.00
    3    4   12     -0.11      0.00
   -6    6   12     -0.85      0.00
   -5    7   12      0.20      0.00
   -4    8   12      0.41      0.00
   -2    9   12      0.17      0.00
   -4   -8   13      0.67      0.00
    0   -8   13      0.03      0.00
   -5   -7   13      0.47      0.00
    1   -7   13      0.60      0.00
   -6   -5   13     -0.62      0.00
    3   -2   13     -0.19      0.00
   -7   -1   13     -0.23      0.00
    3   -1   13      0.24      0.00
   -7    0   13      0.82      0.00
    3    0   13      0.26      0.00
    3    1   13     -0.82      0.00
   -6    4   13     -0.57      0.00
    2    4   13     -0.74      0.00
   -5    6   13     -0.41      0.00
    1    6   13     -0.87      0.00
   -4    7   13     -0.79      0.00
    0    7   13      0.32      0.00
   -3   -7   14      0.01      0.00
   -2   -7   14     -0.15      0.00
   -1   -7   14      0.10      0.00
   -4   -6   14     -0.21      0.00
    0   -6   14      0.40      0.00
   -5   -5   14      0.76      0.00
    1   -5   14      0.32      0.00
   -6   -3   14     -1.56      0.00
   -6   -2   14      1.06      0.00
    2   -2   14      0.31      0.00
   -6   -1   14     -0.48      0.00
    2   -1   14     -0.59      0.00
   -6    0   14      0.23      0.00
    2    0   14      0.70      0.00
   -6    1   14      0.73      0.00
    2    1   14     -0.15      0.00
   -6    2   14     -0.17      0.00
   -5    4   14     -1.00      0.00
    1    4   14     -0.54      0.00
   -4    5   14      0.77      0.00
    0    5   14      0.69      0.00
   -3    6   14      0.91      0.00
   -2    6   14      0.53      0.00
   -1    6   14      0.15      0.00
   -3   -5   15      0.14      0.00
   -2   -5   15     -0.18      0.00
   -1   -5   15     -0.26      0.00
   -4   -4   15     -0.46      0.00
    0   -4   15      0.27      0.00
    0   -3   15      0.34      0.00
   -5   -2   15     -0.70      0.00
   -5   -1   15      0.03      0.00
   -5    0   15     -0.07      0.00
    0    0   15     -0.16      0.00
   -5    1   15     -0.23      0.00
    0    2   15     -0.33      0.00
   -4    3   15      0.44      0.00
   -1    3   15      0.29      0.00
   -3    4   15     -1.00      0.00
   -2    4   15     -0.94      0.00
    0    0    0      0.00      0.00
# SQUEEZE RESULTS (Version = 260217)
# Note: Data are Listed for all Voids in the P1 Unit Cell
# i.e. Centre of Gravity, Solvent Accessible Volume,
# Recovered number of Electrons in the Void and
# Details about the Squeezed Material
loop_
  _platon_squeeze_void_nr
  _platon_squeeze_void_average_x
  _platon_squeeze_void_average_y
  _platon_squeeze_void_average_z
  _platon_squeeze_void_volume
  _platon_squeeze_void_count_electrons
  _platon_squeeze_void_content
   1  0.000  0.500  1.000       134        38 ' '
# Missing Reflections Below sin(th)/lambda = 0.25
loop_
  _platon_missing_refln_index_h
  _platon_missing_refln_index_k
  _platon_missing_refln_index_l
  _platon_missing_refln_theta
    0    2    0     3.698
    1    2    0     4.827
   -1    4    0     7.972
    1   -5    1     9.943
    1   -1    1     4.231
   -1    1    1     3.610
    2    1    1     7.049
    3    1    1     9.973
   -1    3    1     6.384
    0   -3    2     6.403
   -3   -2    2     9.639
   -2   -2    2     7.162
   -1   -2    2     5.344
    0   -2    2     4.943
    0    0    2     3.457
    1    0    2     5.168
    2    0    2     7.755
   -1   -3    3     7.531
    0   -3    3     7.426
   -1   -1    3     5.535
    1    1    3     7.004
    0    3    3     7.793
    0   -2    4     7.701
    1   -2    4     8.911
   -1    1    4     7.124
    0    2    4     8.018
_platon_squeeze_void_probe_radius                  1.20
_platon_squeeze_details
)
TITL RN45_a.res in P-1
CELL    6.9450   11.0309   12.2212     92.61    105.10     90.21
SPGR P-1
# Solvent Accessible Volume =       136
# Electrons Found in S.A.V. =        38
# Note: Atoms in Void as Cxxx and Qxxx all others
C101 0.962 0.840 0.301 !       4.19 eA-3
C102 0.046 0.655 0.185 !       3.06 eA-3
Q103 0.699 0.581 0.012 !       2.95 eA-3
C104 0.026 0.738 0.246 !       2.03 eA-3
Q105 0.713 0.561 0.299 !       1.16 eA-3
Q106 0.480 0.578 0.360 !       1.16 eA-3
Q107 0.920 0.082 0.282 !       1.12 eA-3
Q108 0.524 0.614 0.389 !       1.02 eA-3
Q109 0.438 0.390 0.017 !       0.94 eA-3
Q110 0.137 0.691 0.170 !       0.93 eA-3
Q111 0.514 0.378 0.309 !       0.93 eA-3
C112 0.963 0.599 0.075 !       0.89 eA-3
Q113 0.857 0.531 0.092 !       0.88 eA-3
Q114 0.963 0.591 0.308 !       0.87 eA-3
Q115 0.305 0.644 0.195 !       0.87 eA-3
Q116 0.716 0.575 0.422 !       0.85 eA-3
Q117 0.156 0.313 0.472 !       0.83 eA-3
Q118 0.352 0.328 0.029 !       0.82 eA-3
Q119 0.650 0.658 0.074 !       0.82 eA-3
Q120 0.344 0.580 0.314 !       0.81 eA-3
Q121 0.438 0.581 0.221 !       0.78 eA-3
Q122 0.462 0.203 0.217 !       0.78 eA-3
Q123 0.023 0.834 0.217 !       0.77 eA-3
Q124 0.522 0.219 0.157 !       0.76 eA-3
Q125 0.871 0.647 0.327 !       0.75 eA-3
Q126 0.825 0.606 0.173 !       0.74 eA-3
Q127 0.968 0.219 0.095 !       0.73 eA-3
Q128 0.206 0.575 0.104 !       0.71 eA-3
Q129 0.652 0.987 0.093 !       0.71 eA-3
Q130 0.579 0.171 0.436 !       0.71 eA-3
Q131 0.891 0.683 0.080 !       0.71 eA-3
Q132 0.803 0.800 0.264 !       0.70 eA-3
Q133 0.757 0.046 0.071 !       0.69 eA-3
Q134 0.821 0.404 0.155 !       0.69 eA-3
Q135 0.845 0.566 0.313 !       0.69 eA-3
Q136 0.996 0.500 0.044 !       0.69 eA-3
Q137 0.619 0.469 0.232 !       0.69 eA-3
Q138 0.083 0.569 0.060 !       0.69 eA-3
Q139 0.488 0.280 0.062 !       0.68 eA-3
Q140 0.208 0.577 0.283 !       0.68 eA-3
Q141 0.766 0.565 0.380 !       0.67 eA-3
C142 0.892 0.619 0.107 !       0.66 eA-3
Q143 0.695 0.263 0.484 !       0.66 eA-3
Q144 0.811 0.747 0.357 !       0.65 eA-3
Q145 0.508 0.135 0.300 !       0.65 eA-3
Q146 0.041 0.370 0.474 !       0.65 eA-3
Q147 0.306 0.059 0.152 !       0.65 eA-3
Q148 0.367 0.515 0.264 !       0.64 eA-3
Q149 0.031 0.737 0.107 !       0.64 eA-3
Q150 0.030 0.263 0.278 !       0.64 eA-3
Q151 0.600 0.050 0.115 !       0.64 eA-3
Q152 0.523 0.660 0.247 !       0.64 eA-3
Q153 0.304 0.534 0.328 !       0.63 eA-3
Q154 0.456 0.060 0.312 !       0.63 eA-3
Q155 0.884 0.016 0.016 !       0.63 eA-3
Q156 0.252 0.621 0.065 !       0.63 eA-3
Q157 0.842 0.299-0.001 !       0.63 eA-3
Q158 0.525 0.702 0.173 !       0.63 eA-3
Q159 0.972 0.254 0.015 !       0.62 eA-3
Q160 0.804 0.832 0.295 !       0.62 eA-3
Q161 0.795 0.703 0.110 !       0.62 eA-3
Q162 0.753 0.952 0.031 !       0.61 eA-3
Q163 0.625 0.030 0.219 !       0.61 eA-3
Q164 0.473 0.631 0.108 !       0.61 eA-3
Q165 0.364 0.022 0.216 !       0.61 eA-3
Q166 0.104 0.444 0.271 !       0.60 eA-3
Q167 0.774 0.357 0.362 !       0.60 eA-3
Q168 0.832 0.444 0.500 !       0.60 eA-3
Q169 0.583 0.255 0.096 !       0.60 eA-3
Q170 0.251 0.971 0.356 !       0.60 eA-3
Q171 0.232 0.539 0.191 !       0.60 eA-3
Q172 0.393 0.719 0.046 !       0.60 eA-3
Q173 0.368 0.957 0.277 !       0.60 eA-3
Q174 0.117 0.527 0.324 !       0.60 eA-3
Q175 0.330 0.215 0.236 !       0.60 eA-3
Q176 0.244 0.101 0.205 !       0.59 eA-3
Q177 0.975 0.501 0.113 !       0.59 eA-3
Q178 0.039 0.411 0.001 !       0.59 eA-3
Q179 0.576 0.559 0.251 !       0.59 eA-3
Q180 0.067 0.354 0.275 !       0.59 eA-3
Q181 0.313 0.141 0.374 !       0.59 eA-3
Q182 0.184 0.218 0.236 !       0.58 eA-3
Q183 0.731 0.938 0.268 !       0.58 eA-3
Q184 0.062 0.201 0.392 !       0.58 eA-3
Q185 0.875 0.645 0.235 !       0.58 eA-3
Q186 0.782 0.759 0.048 !       0.58 eA-3
Q187 0.695 0.568 0.201 !       0.58 eA-3
Q188 0.130 0.452 0.486 !       0.58 eA-3
Q189 0.662 0.441 0.325 !       0.57 eA-3
Q190 0.700 0.157 0.486 !       0.57 eA-3
Q191 0.840 0.378 0.061 !       0.57 eA-3
Q192 0.644 0.437 0.153 !       0.57 eA-3
Q193 0.251 0.339 0.096 !       0.57 eA-3
Q194 0.581 0.645 0.197 !       0.57 eA-3
Q195 0.216 0.076 0.408 !       0.57 eA-3
Q196 0.701 0.207 0.129 !       0.57 eA-3
Q197 0.504 0.466 0.356 !       0.57 eA-3
Q198 0.274 0.470 0.110 !       0.57 eA-3
Q199 0.633 0.513 0.340 !       0.57 eA-3
)
;
_shelx_fab_checksum              39638
loop_
_space_group_symop_operation_xyz
'x, y, z'
'-x, -y, -z'
loop_
_atom_site_label
_atom_site_type_symbol
_atom_site_fract_x
_atom_site_fract_y
_atom_site_fract_z
_atom_site_U_iso_or_equiv
_atom_site_adp_type
_atom_site_occupancy
_atom_site_site_symmetry_order
_atom_site_calc_flag
_atom_site_refinement_flags_posn
_atom_site_refinement_flags_adp
_atom_site_refinement_flags_occupancy
_atom_site_disorder_assembly
_atom_site_disorder_group
Pd1 Pd 0.61732(7) 0.58464(3) 0.34282(4) 0.04539(17) Uani 1 1 d . . . . .
Cl1 Cl 0.4756(4) 0.66180(15) 0.16972(16) 0.1149(9) Uani 1 1 d . . . . .
O1 O 0.7051(6) 0.7465(3) 0.4109(3) 0.0531(10) Uani 1 1 d . . . . .
O2 O 0.5313(5) 0.4186(3) 0.2781(3) 0.0445(9) Uani 1 1 d . . . . .
O3 O 0.6250(6) 0.1010(3) 0.4410(3) 0.0528(10) Uani 1 1 d . . . . .
N1 N 0.7489(6) 0.5290(3) 0.4949(3) 0.0381(10) Uani 1 1 d . . . . .
C1 C 0.8077(8) 0.7397(4) 0.5192(5) 0.0415(12) Uani 1 1 d . . . . .
C2 C 0.8888(8) 0.8445(5) 0.5847(5) 0.0498(14) Uani 1 1 d . . . . .
H2 H 0.873562 0.920034 0.552911 0.060 Uiso 1 1 calc R U . . .
C3 C 0.9904(8) 0.8344(5) 0.6961(5) 0.0540(15) Uani 1 1 d . . . . .
H3 H 1.044448 0.904293 0.738600 0.065 Uiso 1 1 calc R U . . .
C4 C 1.0163(8) 0.7237(5) 0.7483(5) 0.0497(14) Uani 1 1 d . . . . .
C5 C 1.1239(10) 0.7143(6) 0.8721(5) 0.0678(18) Uani 1 1 d . . . . .
H5A H 1.168172 0.793553 0.904851 0.102 Uiso 1 1 calc R U . . .
H5B H 1.034773 0.680590 0.911499 0.102 Uiso 1 1 calc R U . . .
H5C H 1.236896 0.662638 0.878738 0.102 Uiso 1 1 calc R U . . .
C6 C 0.9385(8) 0.6204(5) 0.6829(5) 0.0444(13) Uani 1 1 d . . . . .
H6 H 0.955794 0.545070 0.715075 0.053 Uiso 1 1 calc R U . . .
C7 C 0.8346(7) 0.6279(4) 0.5696(4) 0.0388(12) Uani 1 1 d . . . . .
C8 C 0.7573(7) 0.4182(4) 0.5243(4) 0.0393(12) Uani 1 1 d . . . . .
H8 H 0.824933 0.402290 0.598354 0.047 Uiso 1 1 calc R U . . .
C9 C 0.6669(7) 0.3160(4) 0.4481(4) 0.0383(12) Uani 1 1 d . . . . .
C10 C 0.5631(7) 0.3230(4) 0.3314(4) 0.0369(12) Uani 1 1 d . . . . .
C11 C 0.4924(7) 0.2089(4) 0.2706(4) 0.0392(12) Uani 1 1 d . . . . .
C12 C 0.3927(8) 0.2024(4) 0.1561(5) 0.0446(13) Uani 1 1 d . . . . .
H12 H 0.367481 0.273287 0.116777 0.054 Uiso 1 1 calc R U . . .
C13 C 0.3308(8) 0.0924(5) 0.1001(5) 0.0489(14) Uani 1 1 d . . . . .
C14 C 0.2256(10) 0.0857(5) -0.0248(5) 0.0675(18) Uani 1 1 d . . . . .
H14A H 0.193281 0.002614 -0.049804 0.101 Uiso 1 1 calc R U . . .
H14B H 0.105293 0.131671 -0.037480 0.101 Uiso 1 1 calc R U . . .
H14C H 0.311302 0.118670 -0.066674 0.101 Uiso 1 1 calc R U . . .
C15 C 0.3697(9) -0.0125(5) 0.1607(6) 0.0568(16) Uani 1 1 d . . . . .
H15 H 0.327133 -0.086821 0.123059 0.068 Uiso 1 1 calc R U . . .
C16 C 0.4681(9) -0.0107(4) 0.2736(5) 0.0527(15) Uani 1 1 d . . . . .
H16 H 0.493824 -0.081943 0.312410 0.063 Uiso 1 1 calc R U . . .
C17 C 0.5275(8) 0.1013(4) 0.3276(5) 0.0428(13) Uani 1 1 d . . . . .
C18 C 0.6903(8) 0.2043(5) 0.4947(5) 0.0478(14) Uani 1 1 d . . . . .
H18 H 0.758290 0.202020 0.570984 0.057 Uiso 1 1 calc R U . . .
loop_
_atom_site_aniso_label
_atom_site_aniso_U_11
_atom_site_aniso_U_22
_atom_site_aniso_U_33
_atom_site_aniso_U_23
_atom_site_aniso_U_13
_atom_site_aniso_U_12
Pd1 0.0575(3) 0.0286(2) 0.0469(3) 0.00440(16) 0.0077(2) -0.00099(17)
Cl1 0.201(3) 0.0453(9) 0.0646(12) 0.0166(8) -0.0283(14) -0.0088(12)
O1 0.066(3) 0.0320(19) 0.055(2) 0.0000(16) 0.005(2) -0.0025(17)
O2 0.052(2) 0.0297(18) 0.049(2) 0.0048(15) 0.0076(18) 0.0008(16)
O3 0.062(3) 0.0305(19) 0.063(3) 0.0111(17) 0.009(2) -0.0016(17)
N1 0.033(2) 0.034(2) 0.048(3) -0.0018(18) 0.012(2) -0.0005(18)
C1 0.038(3) 0.033(3) 0.053(3) -0.001(2) 0.011(3) 0.004(2)
C2 0.045(3) 0.040(3) 0.062(4) -0.006(3) 0.010(3) -0.001(2)
C3 0.046(4) 0.047(3) 0.069(4) -0.018(3) 0.019(3) -0.005(3)
C4 0.034(3) 0.062(4) 0.049(3) -0.015(3) 0.007(3) -0.004(3)
C5 0.061(4) 0.082(5) 0.057(4) -0.009(3) 0.012(3) -0.004(3)
C6 0.039(3) 0.040(3) 0.054(3) 0.002(2) 0.013(3) 0.000(2)
C7 0.036(3) 0.039(3) 0.041(3) -0.004(2) 0.009(2) -0.004(2)
C8 0.035(3) 0.040(3) 0.041(3) 0.007(2) 0.003(2) 0.001(2)
C9 0.034(3) 0.034(3) 0.046(3) 0.005(2) 0.008(2) 0.002(2)
C10 0.032(3) 0.027(2) 0.053(3) 0.003(2) 0.013(2) 0.002(2)
C11 0.034(3) 0.032(3) 0.051(3) 0.002(2) 0.012(3) -0.001(2)
C12 0.041(3) 0.035(3) 0.058(4) 0.004(2) 0.013(3) -0.007(2)
C13 0.049(4) 0.036(3) 0.060(4) -0.007(2) 0.013(3) -0.007(2)
C14 0.092(5) 0.052(4) 0.053(4) -0.006(3) 0.012(4) -0.012(3)
C15 0.058(4) 0.036(3) 0.075(4) -0.009(3) 0.017(3) -0.008(3)
C16 0.054(4) 0.025(3) 0.079(4) 0.002(3) 0.018(3) -0.005(2)
C17 0.042(3) 0.031(3) 0.056(4) 0.009(2) 0.012(3) 0.000(2)
C18 0.048(4) 0.039(3) 0.054(3) 0.008(2) 0.009(3) 0.001(2)
loop_
_atom_type_symbol
_atom_type_description
_atom_type_scat_dispersion_real
_atom_type_scat_dispersion_imag
_atom_type_scat_source
C C 0.0033 0.0016 'International Tables Vol C Tables 4.2.6.8 and 6.1.1.4'
H H 0.0000 0.0000 'International Tables Vol C Tables 4.2.6.8 and 6.1.1.4'
Cl Cl 0.1484 0.1585 'International Tables Vol C Tables 4.2.6.8 and 6.1.1.4'
N N 0.0061 0.0033 'International Tables Vol C Tables 4.2.6.8 and 6.1.1.4'
O O 0.0106 0.0060 'International Tables Vol C Tables 4.2.6.8 and 6.1.1.4'
Pd Pd -0.9988 1.0072 'International Tables Vol C Tables 4.2.6.8 and 6.1.1.4'
loop_
_geom_angle_atom_site_label_1
_geom_angle_atom_site_label_2
_geom_angle_atom_site_label_3
_geom_angle
_geom_angle_site_symmetry_1
_geom_angle_site_symmetry_3
_geom_angle_publ_flag
O1 Pd1 N1 84.31(16) . . ?
O1 Pd1 O2 178.36(15) . . ?
N1 Pd1 O2 94.06(15) . . ?
O1 Pd1 Cl1 91.89(12) . . ?
N1 Pd1 Cl1 176.08(12) . . ?
O2 Pd1 Cl1 89.75(11) . . ?
C1 O1 Pd1 110.8(3) . . ?
C10 O2 Pd1 125.4(3) . . ?
C18 O3 C17 118.6(4) . . ?
C8 N1 C7 123.6(4) . . ?
C8 N1 Pd1 125.5(3) . . ?
C7 N1 Pd1 110.9(3) . . ?
O1 C1 C7 120.4(4) . . ?
O1 C1 C2 120.9(5) . . ?
C7 C1 C2 118.8(5) . . ?
C3 C2 C1 119.3(5) . . ?
C3 C2 H2 120.4 . . ?
C1 C2 H2 120.4 . . ?
C2 C3 C4 122.7(5) . . ?
C2 C3 H3 118.6 . . ?
C4 C3 H3 118.6 . . ?
C6 C4 C3 117.8(5) . . ?
C6 C4 C5 120.0(6) . . ?
C3 C4 C5 122.2(5) . . ?
C4 C5 H5A 109.5 . . ?
C4 C5 H5B 109.5 . . ?
H5A C5 H5B 109.5 . . ?
C4 C5 H5C 109.5 . . ?
H5A C5 H5C 109.5 . . ?
H5B C5 H5C 109.5 . . ?
C7 C6 C4 120.7(5) . . ?
C7 C6 H6 119.6 . . ?
C4 C6 H6 119.6 . . ?
C6 C7 N1 125.7(5) . . ?
C6 C7 C1 120.7(5) . . ?
N1 C7 C1 113.6(4) . . ?
N1 C8 C9 123.8(5) . . ?
N1 C8 H8 118.1 . . ?
C9 C8 H8 118.1 . . ?
C18 C9 C10 118.8(5) . . ?
C18 C9 C8 115.5(5) . . ?
C10 C9 C8 125.7(4) . . ?
O2 C10 C9 125.5(4) . . ?
O2 C10 C11 118.3(5) . . ?
C9 C10 C11 116.3(4) . . ?
C17 C11 C12 118.4(5) . . ?
C17 C11 C10 119.4(5) . . ?
C12 C11 C10 122.2(5) . . ?
C13 C12 C11 120.9(5) . . ?
C13 C12 H12 119.6 . . ?
C11 C12 H12 119.6 . . ?
C12 C13 C15 118.6(5) . . ?
C12 C13 C14 120.6(5) . . ?
C15 C13 C14 120.8(5) . . ?
C13 C14 H14A 109.5 . . ?
C13 C14 H14B 109.5 . . ?
H14A C14 H14B 109.5 . . ?
C13 C14 H14C 109.5 . . ?
H14A C14 H14C 109.5 . . ?
H14B C14 H14C 109.5 . . ?
C16 C15 C13 122.7(5) . . ?
C16 C15 H15 118.6 . . ?
C13 C15 H15 118.6 . . ?
C15 C16 C17 117.3(5) . . ?
C15 C16 H16 121.3 . . ?
C17 C16 H16 121.3 . . ?
O3 C17 C11 121.5(4) . . ?
O3 C17 C16 116.4(5) . . ?
C11 C17 C16 122.2(5) . . ?
O3 C18 C9 125.5(5) . . ?
O3 C18 H18 117.2 . . ?
C9 C18 H18 117.2 . . ?
loop_
_geom_bond_atom_site_label_1
_geom_bond_atom_site_label_2
_geom_bond_distance
_geom_bond_site_symmetry_2
_geom_bond_publ_flag
Pd1 O1 1.961(3) . ?
Pd1 N1 1.972(4) . ?
Pd1 O2 1.988(3) . ?
Pd1 Cl1 2.2921(18) . ?
O1 C1 1.335(6) . ?
O2 C10 1.255(6) . ?
O3 C18 1.307(6) . ?
O3 C17 1.376(6) . ?
N1 C8 1.287(6) . ?
N1 C7 1.414(6) . ?
C1 C7 1.395(7) . ?
C1 C2 1.405(7) . ?
C2 C3 1.370(8) . ?
C2 H2 0.9300 . ?
C3 C4 1.394(8) . ?
C3 H3 0.9300 . ?
C4 C6 1.385(7) . ?
C4 C5 1.512(8) . ?
C5 H5A 0.9600 . ?
C5 H5B 0.9600 . ?
C5 H5C 0.9600 . ?
C6 C7 1.391(7) . ?
C6 H6 0.9300 . ?
C8 C9 1.458(6) . ?
C8 H8 0.9300 . ?
C9 C18 1.374(7) . ?
C9 C10 1.425(7) . ?
C10 C11 1.449(6) . ?
C11 C17 1.394(7) . ?
C11 C12 1.389(7) . ?
C12 C13 1.375(7) . ?
C12 H12 0.9300 . ?
C13 C15 1.392(8) . ?
C13 C14 1.509(8) . ?
C14 H14A 0.9600 . ?
C14 H14B 0.9600 . ?
C14 H14C 0.9600 . ?
C15 C16 1.370(8) . ?
C15 H15 0.9300 . ?
C16 C17 1.382(7) . ?
C16 H16 0.9300 . ?
C18 H18 0.9300 . ?
