#------------------------------------------------------------------------------
#$Date: 2022-05-05 23:50:32 +0300 (Thu, 05 May 2022) $
#$Revision: 275047 $
#$URL: file:///home/coder/svn-repositories/cod/cif/7/06/12/7061268.cif $
#------------------------------------------------------------------------------
#
# This file is available in the Crystallography Open Database (COD),
# http://www.crystallography.net/
#
# All data on this site have been placed in the public domain by the
# contributors.
#
data_7061268
loop_
_publ_author_name
'Ibrahim, Mukaila A.'
'Boer\'e, Ren\'e T.'
_publ_section_title
;
 The copper sulfate hydration cycle. Crystal structures of CuSO4
 (Chalcocyanite), CuSO4&#x00B7;H2O (Poitevinite), CuSO4&#x00B7;3H2O
 (Bonattite) and CuSO4&#x00B7;5H2O (Chalcanthite) at low temperature using
 non-spherical atomic scattering factors
;
_journal_issue                   12
_journal_name_full               'New Journal of Chemistry'
_journal_page_first              5479
_journal_page_last               5488
_journal_paper_doi               10.1039/D2NJ00169A
_journal_volume                  46
_journal_year                    2022
_chemical_formula_moiety         'Cu H2 O5 S'
_chemical_formula_sum            'Cu H2 O5 S'
_chemical_formula_weight         177.625
_space_group_crystal_system      triclinic
_space_group_IT_number           2
_space_group_name_Hall           '-P 1'
_space_group_name_H-M_alt        'P -1'
_symmetry_Int_Tables_number      2
_atom_sites_solution_primary     dual
_audit_creation_date             2022-01-28
_audit_creation_method
;
Olex2 1.5
(compiled 2021.12.09 svn.r5202d8cf for OlexSys, GUI svn.r6439)
;
_audit_update_record
;
2022-01-28 deposited with the CCDC.	2022-02-02 downloaded from the CCDC.
;
_cell_angle_alpha                108.592(12)
_cell_angle_beta                 108.382(12)
_cell_angle_gamma                91.359(10)
_cell_formula_units_Z            2
_cell_length_a                   5.0281(5)
_cell_length_b                   5.1502(5)
_cell_length_c                   7.5607(9)
_cell_measurement_reflns_used    2958
_cell_measurement_temperature    100.01(10)
_cell_measurement_theta_max      79.9930
_cell_measurement_theta_min      9.1490
_cell_volume                     174.41(4)
_computing_cell_refinement       'CrysAlisPro 1.171.41.116a (Rigaku OD, 2021)'
_computing_data_collection       'CrysAlisPro 1.171.41.116a (Rigaku OD, 2021)'
_computing_data_reduction        'CrysAlisPro 1.171.41.116a (Rigaku OD, 2021)'
_computing_molecular_graphics    'Olex2 1.5 (Dolomanov et al., 2009)'
_computing_publication_material  'Olex2 1.5 (Dolomanov et al., 2009)'
_computing_structure_refinement  'olex2.refine 1.5 (Bourhis et al., 2015)'
_computing_structure_solution    'SHELXT 2018/2 (Sheldrick, 2018)'
_diffrn_ambient_environment      N~2~
_diffrn_ambient_temperature      100.01(10)
_diffrn_detector                 'Hybrid Pixel Array Detector'
_diffrn_detector_area_resol_mean 5.8140
_diffrn_detector_type            'Pilatus 200K'
_diffrn_measured_fraction_theta_full 0.9857
_diffrn_measured_fraction_theta_max 0.9690
_diffrn_measurement_details
;
List of Runs (angles in degrees, time in seconds):

  # Type    Start    End  Width  t~exp~   \w     \q     \k     \f   Frames
#--------------------------------------------------------------------------
  1  \w   -102.00 -20.00   0.50    0.50    --  -38.50 -70.00 -29.11  164
  2  \w    -50.00  25.00   0.50    0.50    --  -38.50  57.00-120.00  150
  3  \w    -50.00  25.00   0.50    0.50    --  -38.50  57.00 120.00  150
  4  \w     27.00  99.00   0.50    0.50    --   47.56-125.00  30.00  144
  5  \w     36.00 111.00   0.50    0.50    --   47.56  57.00   0.00  150
  6  \w     47.00 117.00   0.50    0.50    --  111.00 -50.00  30.00  140
  7  \w     41.00 109.00   0.50    0.50    --  111.00-111.00 120.00  136
  8  \w    107.00 178.00   0.50    0.50    --  111.00  25.00  30.00  142
  9  \w     41.00 109.00   0.50    0.50    --  111.00-111.00-120.00  136
 10  \w    103.00 176.00   0.50    0.50    --  111.00  77.00 -30.00  146
 11  \w    105.00 175.00   0.50    0.50    --  111.00  50.00-120.00  140
 12  \w     41.00 107.00   0.50    0.50    --  111.00 -91.00 -90.00  132
 13  \w    103.00 176.00   0.50    0.50    --  111.00  77.00 -60.00  146
 14  \w     41.00 109.00   0.50    0.50    --  111.00-111.00 -90.00  136
 15  \w     41.00 107.00   0.50    0.50    --  111.00 -91.00 -30.00  132
 16  \w     41.00 107.00   0.50    0.50    --  111.00 -91.00 150.00  132
 17  \w    105.00 175.00   0.50    0.50    --  111.00  50.00   0.00  140
 18  \w    107.00 177.00   0.50    0.50    --  111.00  38.00  30.00  140
 19  \w    107.00 177.00   0.50    0.50    --  111.00  38.00  60.00  140
 20  \w     41.00 107.00   0.50    0.50    --  111.00 -91.00 -60.00  132
 21  \w     41.00 107.00   0.50    0.50    --  111.00 -91.00  30.00  132
 22  \w    107.00 177.00   0.50    0.50    --  111.00  38.00 -90.00  140
 23  \w     61.00 146.00   0.50    0.50    --  111.00 178.00 -90.00  170
 24  \w    107.00 178.00   0.50    0.50    --  111.00  25.00  90.00  142
 25  \w     46.00 134.00   0.50    0.50    --  111.00 -77.00-180.00  176
 26  \w     47.00 117.00   0.50    0.50    --  111.00 -50.00 -60.00  140
 27  \w     46.00 134.00   0.50    0.50    --  111.00 -77.00 -60.00  176
 28  \w     41.00 107.00   0.50    0.50    --  111.00 -91.00  90.00  132
 29  \w     45.00 115.00   0.50    0.50    --  111.00 -38.00-124.90  140
 30  \w   -102.00 -27.00   0.50    0.50    --  -38.50 -57.00-120.00  150
 31  \w   -102.00 -20.00   0.50    0.50    --  -38.50 -71.00-122.76  164
 32  \w     36.00 111.00   0.50    0.50    --   47.56  57.00 120.00  150
 33  \w     36.00 111.00   0.50    0.50    --   47.56  57.00  60.00  150
 34  \w     36.00 111.00   0.50    0.50    --   47.56  57.00-150.00  150
 35  \w     36.00 111.00   0.50    0.50    --   47.56  57.00 150.00  150
 36  \w     42.00 117.00   0.50    0.50    --   47.56  19.00-120.00  150
 37  \w    105.00 175.00   0.50    0.50    --  111.00  50.00 120.00  140
 38  \w     41.00 115.00   0.50    0.50    --  111.00 -25.00 -60.00  148
 39  \w    107.00 177.00   0.50    0.50    --  111.00  38.00 150.00  140
 40  \w    105.00 175.00   0.50    0.50    --  111.00  50.00 -60.00  140
 41  \w    107.00 177.00   0.50    0.50    --  111.00  38.00-150.00  140
 42  \w    107.00 178.00   0.50    0.50    --  111.00  25.00 120.00  142
 43  \w     99.00 174.00   0.50    0.50    --  111.00  57.00 -77.00  150
 44  \w     96.00 174.00   0.50    0.50    --  111.00  63.00 -30.00  156
 45  \w     96.00 174.00   0.50    0.50    --  111.00  63.00-150.00  156
 46  \w     96.00 174.00   0.50    0.50    --  111.00  63.00  30.00  156
 47  \w    107.00 178.00   0.50    0.50    --  111.00  25.00-180.00  142
;
_diffrn_measurement_device       'four-circle diffractometer'
_diffrn_measurement_device_type
'SuperNova, Dual, Cu at home/near, Pilatus 200K'
_diffrn_measurement_method       '\w scans'
_diffrn_orient_matrix_type
'CrysAlisPro convention (1999,Acta A55,543-557)'
_diffrn_orient_matrix_UB_11      0.0717360000
_diffrn_orient_matrix_UB_12      0.1446468000
_diffrn_orient_matrix_UB_13      -0.1321430000
_diffrn_orient_matrix_UB_21      0.1502716000
_diffrn_orient_matrix_UB_22      -0.2442468000
_diffrn_orient_matrix_UB_23      -0.0812762000
_diffrn_orient_matrix_UB_31      -0.2802666000
_diffrn_orient_matrix_UB_32      -0.1446397000
_diffrn_orient_matrix_UB_33      -0.1679531000
_diffrn_radiation_monochromator  mirror
_diffrn_radiation_probe          x-ray
_diffrn_radiation_type           'Cu K\a'
_diffrn_radiation_wavelength     1.54184
_diffrn_reflns_av_R_equivalents  0.0399
_diffrn_reflns_av_unetI/netI     0.0243
_diffrn_reflns_Laue_measured_fraction_full 0.9857
_diffrn_reflns_Laue_measured_fraction_max 0.9690
_diffrn_reflns_limit_h_max       6
_diffrn_reflns_limit_h_min       -6
_diffrn_reflns_limit_k_max       6
_diffrn_reflns_limit_k_min       -6
_diffrn_reflns_limit_l_max       9
_diffrn_reflns_limit_l_min       -9
_diffrn_reflns_number            3078
_diffrn_reflns_point_group_measured_fraction_full 0.9857
_diffrn_reflns_point_group_measured_fraction_max 0.9690
_diffrn_reflns_theta_full        67.6840
_diffrn_reflns_theta_max         80.33
_diffrn_reflns_theta_min         6.57
_diffrn_source                   'micro-focus sealed X-ray tube'
_diffrn_source_type              'SuperNova (Cu) X-ray Source'
_exptl_absorpt_coefficient_mu    13.717
_exptl_absorpt_correction_T_max  0.822
_exptl_absorpt_correction_T_min  0.302
_exptl_absorpt_correction_type   gaussian
_exptl_absorpt_process_details
;
CrysAlisPro 1.171.41.116a (Rigaku Oxford Diffraction, 2021)
Numerical absorption correction based on gaussian integration over
a multifaceted crystal model
Empirical absorption correction using spherical harmonics,
implemented in SCALE3 ABSPACK scaling algorithm.
;
_exptl_crystal_colour            'clear light blue'
_exptl_crystal_colour_lustre     clear
_exptl_crystal_colour_modifier   light
_exptl_crystal_colour_primary    blue
_exptl_crystal_density_diffrn    3.382
_exptl_crystal_description       prism
_exptl_crystal_F_000             171.290
_exptl_crystal_size_max          0.14
_exptl_crystal_size_mid          0.06
_exptl_crystal_size_min          0.027
_refine_diff_density_max         2.4945
_refine_diff_density_min         -1.4795
_refine_diff_density_rms         0.4254
_refine_ls_d_res_high            0.7820
_refine_ls_d_res_low             6.7372
_refine_ls_goodness_of_fit_ref   1.0366
_refine_ls_hydrogen_treatment    constr
_refine_ls_matrix_type           full
_refine_ls_number_constraints    2
_refine_ls_number_parameters     73
_refine_ls_number_reflns         751
_refine_ls_number_restraints     32
_refine_ls_restrained_S_all      1.0130
_refine_ls_R_factor_all          0.0759
_refine_ls_R_factor_gt           0.0753
_refine_ls_shift/su_max          0.0001
_refine_ls_shift/su_mean         0.0000
_refine_ls_structure_factor_coef Fsqd
_refine_ls_weighting_details
'w=1/[\s^2^(Fo^2^)+(0.1207P)^2^+6.9086P] where P=(Fo^2^+2Fc^2^)/3'
_refine_ls_weighting_scheme      calc
_refine_ls_wR_factor_gt          0.2174
_refine_ls_wR_factor_ref         0.2178
_reflns_Friedel_coverage         0.0
_reflns_limit_h_max              6
_reflns_limit_h_min              -6
_reflns_limit_k_max              6
_reflns_limit_k_min              -6
_reflns_limit_l_max              9
_reflns_limit_l_min              0
_reflns_number_gt                736
_reflns_number_total             751
_reflns_threshold_expression     I>=2u(I)
_iucr_refine_instructions_details
;
TITL rb21080ai2f_a.res in P-1
REM Old TITL RB21080ai2f in P-1
REM SHELXT solution in P-1: R1 0.085, Rweak 0.011, Alpha 0.055
REM <I/s> 0.000 for 0 systematic absences, Orientation as input
REM Formula found by SHELXT: O5 S Cu
CELL 1.54184 5.0281 5.1502 7.5607 108.592 108.382 91.359
ZERR 2 0.0005 0.0005 0.0009 0.012 0.012 0.01
LATT 1
SFAC Cu H O S
UNIT 2 4 10 2
EQIV $1 1-X,2-Y,1-Z
EQIV $2 -X,1-Y,1-Z
EQIV $3 -X,2-Y,1-Z
DFIX 0.989 O1 H1a O1 H1b
ISOR 0.05 0.001 O1 O2 O5 O3 O4
RIGU S1 Cu2 Cu1

L.S. 10
PLAN  5
SIZE 0.027 0.06 0.14
TEMP -173
CONF
HTAB O1 O2_$2
HTAB O1 O3_$1
HTAB O1 O5_$3
BOND 
list 4
MORE -1
BOND $H
fmap 2
acta 
WGHT 0.120727 6.908592
FVAR 1.36956
REM <olex2.extras>
REM <HklSrc "%.\\RB21080ai2f.hkl">
REM </olex2.extras>

Cu1   1     0.50000  0.50000  0.50000  10.50000  0.01375  0.01172  0.00726 =
 0.00300  0.00093  0.00192 
Cu2   1     0.00000  0.00000  0.00000  10.50000  0.01374  0.01132  0.00625 =
 0.00354  0.00061  0.00237 
S1    4     0.39162  1.07446  0.75256  11.00000  0.01359  0.00918  0.00677 =
 0.00242  0.00065  0.00153 
O1    3     0.13736  0.43969  0.27021  11.00000  0.01536  0.01530  0.00565 =
 0.00280  0.00100  0.00281 
H1a   2     0.21009  0.58191  0.22781  11.00000 -1.20000 
H1b   2    -0.04499  0.43100  0.29415  11.00000 -1.20000 
O2    3     0.33614  0.77035  0.67113  11.00000  0.01730  0.01118  0.01351 =
 0.00294  0.00628  0.00322 
O3    3     0.70426  1.16346  0.85175  11.00000  0.01330  0.01290  0.01276 =
 0.00447  0.00431  0.00168 
O4    3     0.25283  1.17100  0.90262  11.00000  0.01463  0.01391  0.01394 =
 0.00452  0.00490  0.00184 
O5    3     0.29367  1.19685  0.59927  11.00000  0.01439  0.01404  0.01359 =
 0.00495  0.00459  0.00195 
HKLF 4

END
Q1 1 0 0.5 0.5 11 0.05 2.49
Q4 1 0.22222 1.05556 0.76 11 0.05 1.86
Q2 1 0.22222 0 0 11 0.05 2.24
Q3 1 0.72222 0.5 0.48 11 0.05 2.21
Q5 1 -0.05556 1.16667 0.84 11 0.05 1.28

  REM The information below was added by Olex2.
  REM
  REM R1 = 0.0753 for 736 Fo > 4sig(Fo) and 0.0759 for all 751 data
  REM 73 parameters refined using 32 restraints
  REM Highest difference peak 2.4945, deepest hole -1.4795
  REM Mean Shift 0.0000, Max Shift 0.0001.

  REM +++ Tabular Listing of Refinement Information +++
  REM R1_all = 0.0759
  REM R1_gt = 0.0753
  REM wR_ref = 0.2178
  REM GOOF = 1.0366
  REM Shift_max = 0.0001
  REM Shift_mean = 0.0000
  REM Reflections_all = 751
  REM Reflections_gt = 736
  REM Parameters = 73
  REM Hole = -1.4795
  REM Peak = 2.4945
  REM Flack = n/a

  
;
_cod_data_source_file            d2nj00169a2.cif
_cod_data_source_block           RB21080ai2f
_cod_depositor_comments
'Adding full bibliography for 7061267--7061270.cif.'
_cod_database_code               7061268
_chemical_oxdiff_formula         'Cu H2 O5 S'
_chemical_oxdiff_usercomment     'Prism from H2SO4'
_olex2_refinement_description
;
1. Fixed Uiso
 At 1.2 times of:
  All O(H,H) groups
2. Restrained distances
 O1-H1a = O1-H1b
 0.989 with sigma of 0.02
3. Uiso/Uaniso restraints and constraints
Uanis(O1) \\sim Ueq, Uanis(O2) \\sim Ueq, Uanis(O5) \\sim Ueq, Uanis(O3) \\sim
Ueq, Uanis(O4) \\sim Ueq: with sigma of 0.05 and sigma for terminal atoms of
0.001
4. Rigid body (RIGU) restrains
 S1, Cu2, Cu1
 with sigma for 1-2 distances of 0.004 and sigma for 1-3 distances of 0.004
;
_smtbx_masks_void_probe_radius   1.2
_smtbx_masks_void_truncation_radius 1.2
_iucr_refine_fcf_details
;
data_RB21080ai2f_CCDC1
_computing_structure_refinement   'olex2.refine 1.5 (Bourhis et al., 2015)'
_shelx_refln_list_code            4
loop_
  _space_group_symop_id
  _space_group_symop_operation_xyz
  1  x,y,z
  2  -x,-y,-z

_space_group_crystal_system       triclinic
_space_group_IT_number            2
_space_group_name_H-M_alt         'P -1'
_space_group_name_Hall            '-P 1'
_symmetry_space_group_name_H-M    'P -1'
_symmetry_space_group_name_Hall   '-P 1'
_symmetry_Int_Tables_number       2
_cell_length_a                    5.0281(5)
_cell_length_b                    5.1502(5)
_cell_length_c                    7.5607(9)
_cell_angle_alpha                 108.592(12)
_cell_angle_beta                  108.382(12)
_cell_angle_gamma                 91.359(10)
_cell_volume                      174.41(4)
loop_
  _refln_index_h
  _refln_index_k
  _refln_index_l
  _refln_F_squared_calc
  _refln_F_squared_meas
  _refln_F_squared_sigma
  _refln_F_squared_weight
  _refln_observed_status
-6 -2 3 6.737 5.061 0.719 175.741 o
-6 -2 4 22.287 23.607 2.122 45.489 o
-6 -1 1 62.205 65.947 3.529 15.092 o
-6 -1 2 32.973 41.674 3.025 27.887 o
-6 -1 3 378.310 478.460 9.005 1.425 o
-6 -1 4 1.990 5.145 1.439 331.177 o
-6 -1 5 152.682 165.309 5.571 5.218 o
-6 -1 6 7.612 10.247 1.210 125.711 o
-6 0 1 168.334 202.195 5.194 4.424 o
-6 0 2 93.209 138.474 4.730 8.167 o
-6 0 3 208.305 195.901 6.451 3.733 o
-6 0 4 64.342 65.662 14.904 10.522 o
-6 0 5 24.908 42.528 3.156 32.524 o
-6 1 1 17.870 23.974 1.890 52.360 o
-6 1 2 1.735 0.405 0.805 801.401 o
-6 1 3 210.409 272.491 8.727 3.137 o
-6 1 4 18.958 19.665 2.014 54.143 o
-6 1 5 52.429 43.000 7.107 18.034 o
-6 2 1 29.688 32.996 2.458 33.063 o
-6 2 2 77.300 84.758 4.116 11.634 o
-6 2 3 0.872 2.175 0.784 795.585 o
-5 -3 1 68.514 50.959 2.125 15.546 o
-5 -3 2 61.032 64.115 2.372 15.677 o
-5 -3 3 118.023 137.870 5.827 6.857 o
-5 -3 4 267.827 294.701 10.865 2.444 o
-5 -3 5 71.649 90.207 7.882 11.174 o
-5 -3 6 40.269 49.770 2.066 23.172 o
-5 -3 7 95.411 103.529 2.669 9.318 o
-5 -2 1 49.255 51.462 2.687 19.767 o
-5 -2 2 2.988 2.987 0.940 355.114 o
-5 -2 3 684.014 780.205 23.543 0.593 o
-5 -2 4 1.067 0.956 0.966 953.236 o
-5 -2 5 184.559 228.556 6.210 3.858 o
-5 -2 6 11.415 17.174 1.413 79.511 o
-5 -2 7 178.297 167.991 6.115 4.547 o
-5 -2 8 79.981 72.970 2.431 12.202 o
-5 -1 1 6.205 8.533 1.195 152.667 o
-5 -1 2 15.328 17.169 1.717 65.844 o
-5 -1 3 2.010 4.298 0.870 384.054 o
-5 -1 4 918.355 1000.720 18.692 0.386 o
-5 -1 5 0.039 0.708 0.485 3759.470 o
-5 -1 6 5.445 5.523 0.780 197.961 o
-5 -1 7 0.046 0.691 0.312 4039.010 o
-5 0 1 357.526 408.404 8.516 1.635 o
-5 0 3 180.378 185.447 6.971 4.297 o
-5 0 4 213.412 226.601 8.477 3.390 o
-5 0 5 147.074 177.110 5.159 5.226 o
-5 0 6 44.430 52.693 2.328 21.134 o
-5 0 7 156.218 170.553 4.316 5.097 o
-5 1 1 53.727 51.374 3.785 18.268 o
-5 1 2 36.991 38.344 2.451 26.970 o
-5 1 3 160.328 163.179 6.829 4.993 o
-5 1 4 738.372 712.226 21.021 0.581 o
-5 1 5 35.147 47.611 2.101 25.766 o
-5 1 6 22.622 28.792 1.335 42.448 o
-5 1 7 43.941 44.321 1.010 23.039 o
-5 2 1 316.999 347.911 30.026 1.628 o
-5 2 2 2.491 3.881 1.541 335.631 o
-5 2 3 89.288 97.824 2.638 10.023 o
-5 2 4 2.881 3.087 0.643 367.583 o
-5 2 5 496.625 517.253 20.578 1.012 o
-5 2 6 4.924 5.349 0.568 215.437 o
-5 3 1 186.159 192.874 11.169 3.956 o
-5 3 2 385.817 417.826 8.168 1.509 o
-5 3 3 121.336 129.891 4.319 6.982 o
-5 4 1 577.573 418.407 42.184 0.817 o
-5 4 2 4.568 3.067 0.661 267.172 o
-4 -5 4 20.359 12.305 1.306 59.905 o
-4 -5 5 150.848 89.753 8.016 6.335 o
-4 -4 1 41.988 37.481 5.211 23.249 o
-4 -4 2 168.145 156.426 5.888 4.921 o
-4 -4 3 33.323 34.926 2.197 30.104 o
-4 -4 4 524.405 477.050 9.509 1.043 o
-4 -4 5 312.056 311.528 10.800 2.084 o
-4 -4 6 0.325 0.453 0.481 2771.600 o
-4 -4 7 193.516 186.983 4.191 4.105 o
-4 -3 1 540.166 551.833 19.165 0.911 o
-4 -3 2 139.858 155.595 8.933 5.536 o
-4 -3 3 158.997 154.535 4.990 5.214 o
-4 -3 4 97.222 106.241 4.564 8.945 o
-4 -3 5 896.225 1013.020 36.962 0.374 o
-4 -3 6 2.497 4.241 0.691 351.407 o
-4 -3 7 48.851 52.389 1.519 20.003 o
-4 -3 8 1.009 0.486 0.264 1315.280 o
-4 -2 1 176.010 185.951 7.227 4.370 o
-4 -2 2 132.326 146.792 5.369 6.149 o
-4 -2 3 305.079 292.218 6.238 2.238 o
-4 -2 4 290.820 323.907 16.405 2.088 o
-4 -2 5 148.850 165.043 3.410 5.400 o
-4 -2 6 1192.740 1242.410 14.562 0.257 o
-4 -2 7 85.640 96.328 2.973 10.376 o
-4 -2 8 75.508 85.153 2.437 12.013 o
-4 -2 9 121.804 60.650 2.399 8.980 o
-4 -1 1 930.019 877.627 14.710 0.412 o
-4 -1 2 9.175 12.511 1.332 103.371 o
-4 -1 3 23.458 30.346 1.558 40.468 o
-4 -1 4 161.826 158.784 3.042 5.136 o
-4 -1 5 434.963 486.273 9.342 1.242 o
-4 -1 6 144.329 144.688 4.460 5.817 o
-4 -1 7 239.478 250.807 4.908 2.995 o
-4 -1 8 13.986 17.371 0.761 70.986 o
-4 -1 9 450.998 278.201 5.209 1.538 o
-4 0 1 36.059 39.104 1.560 27.602 o
-4 0 2 3224.400 2846.730 41.493 0.047 o
-4 0 3 157.433 145.403 2.740 5.452 o
-4 0 4 13.957 12.636 0.792 79.545 o
-4 0 5 8.497 9.561 0.988 121.534 o
-4 0 6 525.137 577.892 12.222 0.939 o
-4 0 7 8.352 14.848 0.876 102.475 o
-4 0 8 41.343 43.258 1.619 24.155 o
-4 1 1 1047.170 966.496 13.665 0.343 o
-4 1 2 411.361 371.453 7.715 1.502 o
-4 1 3 689.964 669.569 8.836 0.663 o
-4 1 4 62.078 58.716 2.023 16.041 o
-4 1 5 313.057 328.112 9.158 2.047 o
-4 1 6 21.520 18.440 1.377 51.402 o
-4 1 7 220.222 236.537 3.149 3.327 o
-4 1 8 24.223 24.929 3.433 40.583 o
-4 2 1 61.106 67.824 2.142 15.358 o
-4 2 2 927.154 887.760 8.710 0.414 o
-4 2 3 492.705 448.866 6.455 1.152 o
-4 2 4 156.928 168.922 4.362 5.098 o
-4 2 5 60.459 68.969 2.015 15.387 o
-4 2 6 610.552 635.750 9.594 0.773 o
-4 2 7 3.761 3.842 0.559 288.107 o
-4 3 1 49.505 51.384 2.688 19.707 o
-4 3 2 9.522 8.936 1.030 115.174 o
-4 3 3 821.020 891.971 15.717 0.467 o
-4 3 4 0.996 1.696 0.393 886.815 o
-4 3 5 84.202 92.315 4.230 10.557 o
-4 3 6 100.695 69.073 2.762 10.268 o
-4 4 1 359.319 348.864 48.483 1.156 o
-4 4 2 183.588 196.049 5.725 4.171 o
-4 4 3 34.687 40.512 1.924 27.830 o
-4 4 4 116.779 77.207 4.705 8.600 o
-4 5 1 42.393 32.937 2.042 25.829 o
-3 -5 1 14.722 14.161 1.237 73.217 o
-3 -5 2 493.250 415.902 21.685 1.117 o
-3 -5 3 7.351 5.199 0.875 162.797 o
-3 -5 4 0.050 1.024 1.205 1903.820 o
-3 -5 5 4.291 7.200 0.926 204.497 o
-3 -5 6 778.767 762.988 35.788 0.501 o
-3 -5 7 0.017 0.840 0.331 3621.070 o
-3 -4 1 283.189 288.830 10.989 2.348 o
-3 -4 2 39.524 40.759 2.352 25.239 o
-3 -4 3 606.961 571.119 20.834 0.792 o
-3 -4 4 144.314 143.074 3.821 5.867 o
-3 -4 5 179.888 185.757 4.699 4.368 o
-3 -4 6 212.019 238.106 4.677 3.407 o
-3 -4 7 231.300 236.721 7.992 3.118 o
-3 -4 8 2.123 3.484 0.338 426.885 o
-3 -3 1 197.750 178.884 5.236 4.081 o
-3 -3 2 1391.080 1328.790 17.017 0.207 o
-3 -3 3 71.143 81.698 2.503 12.746 o
-3 -3 4 96.311 89.957 3.424 9.712 o
-3 -3 5 173.937 164.232 3.678 4.754 o
-3 -3 6 968.277 999.895 18.565 0.365 o
-3 -3 7 57.066 62.287 1.822 16.717 o
-3 -3 8 101.546 98.326 2.049 9.095 o
-3 -3 9 1.773 2.021 0.358 591.571 o
-3 -2 1 255.662 254.412 3.499 2.822 o
-3 -2 2 113.273 124.675 3.238 7.546 o
-3 -2 3 537.593 533.396 10.770 0.960 o
-3 -2 4 12.362 13.663 1.000 83.776 o
-3 -2 5 201.666 205.210 7.440 3.739 o
-3 -2 6 53.224 41.487 1.568 20.312 o
-3 -2 7 845.562 859.564 12.460 0.464 o
-3 -2 8 7.919 9.529 0.755 128.095 o
-3 -2 9 82.853 66.512 3.379 12.138 o
-3 -1 1 504.801 456.012 8.235 1.111 o
-3 -1 2 578.967 515.872 5.679 0.913 o
-3 -1 3 437.732 459.585 7.901 1.277 o
-3 -1 4 1124.090 1042.800 11.516 0.305 o
-3 -1 5 328.018 327.222 6.975 1.983 o
-3 -1 6 218.672 215.009 4.026 3.483 o
-3 -1 7 291.899 297.340 3.865 2.329 o
-3 -1 8 84.621 85.074 2.128 11.065 o
-3 -1 9 200.112 179.461 3.790 4.061 o
-3 0 1 390.795 345.432 6.080 1.640 o
-3 0 2 75.665 60.882 2.044 13.591 o
-3 0 3 2762.220 2387.040 25.900 0.064 o
-3 0 4 7.021 7.306 0.748 152.393 o
-3 0 5 448.679 385.619 7.322 1.355 o
-3 0 6 0.165 1.324 0.442 1918.550 o
-3 0 7 422.015 419.835 4.855 1.393 o
-3 0 8 6.504 8.525 0.897 150.355 o
-3 0 9 16.850 9.019 0.674 75.546 o
-3 1 1 70.232 70.841 2.674 13.584 o
-3 1 2 115.574 105.294 3.242 7.939 o
-3 1 3 284.396 252.847 4.403 2.559 o
-3 1 4 1273.680 1131.620 13.046 0.252 o
-3 1 5 34.918 32.644 1.424 30.152 o
-3 1 6 216.639 188.751 3.591 3.711 o
-3 1 7 23.792 22.614 1.185 44.958 o
-3 1 8 748.524 759.269 10.553 0.567 o
-3 2 1 969.399 840.928 30.281 0.388 o
-3 2 2 29.753 29.131 1.390 35.149 o
-3 2 3 323.563 304.357 6.010 2.082 o
-3 2 4 133.466 142.583 3.814 6.256 o
-3 2 5 331.646 353.209 5.661 1.900 o
-3 2 6 47.536 55.009 2.136 19.888 o
-3 2 7 258.268 317.829 8.072 2.469 o
-3 3 1 54.947 59.567 1.972 17.451 o
-3 3 2 37.304 36.597 2.425 27.268 o
-3 3 3 122.011 135.139 2.914 6.900 o
-3 3 4 1395.000 1306.320 14.882 0.209 o
-3 3 5 1.568 2.719 0.681 549.276 o
-3 3 6 3.624 1.083 0.677 389.227 o
-3 4 1 386.895 394.392 13.423 1.514 o
-3 4 2 36.994 38.992 2.115 26.951 o
-3 4 3 148.078 141.248 3.965 5.769 o
-3 4 4 11.437 9.883 1.104 98.095 o
-3 4 5 270.650 165.704 4.633 3.127 o
-3 5 1 71.184 69.984 4.950 13.110 o
-3 5 2 94.162 95.925 4.297 9.565 o
-3 5 3 39.613 21.795 5.995 26.971 o
-2 -6 2 63.026 36.733 2.095 18.214 o
-2 -6 3 240.993 145.434 4.510 3.657 o
-2 -6 4 264.326 235.378 19.667 2.487 o
-2 -6 5 16.541 16.608 0.904 64.487 o
-2 -5 1 51.088 46.390 2.884 19.912 o
-2 -5 2 115.001 101.176 3.528 8.071 o
-2 -5 3 299.078 304.717 11.311 2.180 o
-2 -5 4 83.887 83.221 2.631 11.194 o
-2 -5 5 188.289 202.801 4.859 4.044 o
-2 -5 6 0.324 0.540 0.340 2694.970 o
-2 -5 7 429.327 419.567 11.359 1.345 o
-2 -5 8 46.503 38.742 1.152 23.104 o
-2 -4 1 3.522 4.339 0.822 283.773 o
-2 -4 2 3.661 3.979 0.976 282.851 o
-2 -4 3 36.284 33.767 1.509 28.967 o
-2 -4 4 1494.570 1478.570 18.791 0.179 o
-2 -4 5 180.746 182.869 3.043 4.412 o
-2 -4 6 86.357 92.518 3.360 10.448 o
-2 -4 7 256.265 292.191 4.837 2.629 o
-2 -4 8 618.857 613.689 10.194 0.775 o
-2 -4 9 8.292 6.575 0.412 141.430 o
-2 -3 1 712.449 686.500 8.682 0.633 o
-2 -3 2 18.620 16.345 1.919 58.374 o
-2 -3 3 562.893 582.371 7.571 0.882 o
-2 -3 4 3.220 2.796 0.437 356.060 o
-2 -3 5 262.084 245.675 5.468 2.784 o
-2 -3 6 112.995 119.139 2.928 7.718 o
-2 -3 7 505.408 513.103 6.458 1.052 o
-2 -3 8 52.523 52.455 1.828 18.930 o
-2 -3 9 511.908 472.545 5.431 1.083 o
-2 -2 1 161.036 144.876 8.029 5.151 o
-2 -2 2 1244.660 890.451 90.020 0.224 o
-2 -2 3 7.628 7.682 0.633 142.198 o
-2 -2 4 1230.490 1138.640 15.979 0.260 o
-2 -2 5 94.712 95.323 2.480 9.695 o
-2 -2 6 4.637 6.419 0.574 208.576 o
-2 -2 7 161.013 165.350 3.096 5.070 o
-2 -2 8 1207.010 1142.340 8.986 0.267 o
-2 -2 9 37.815 31.034 1.419 28.901 o
-2 -1 1 2534.060 1953.390 54.374 0.078 o
-2 -1 2 30.827 29.018 1.024 34.456 o
-2 -1 3 2247.430 1956.410 16.233 0.093 o
-2 -1 4 126.359 121.837 3.918 6.958 o
-2 -1 5 2112.370 1833.790 30.664 0.103 o
-2 -1 6 128.370 127.853 3.167 6.774 o
-2 -1 7 8.741 10.558 0.809 115.634 o
-2 -1 8 37.986 37.024 1.528 27.150 o
-2 -1 9 336.577 282.274 4.924 2.077 o
-2 0 1 1203.870 1021.870 9.516 0.284 o
-2 0 2 229.584 177.654 2.818 3.608 o
-2 0 3 499.959 444.959 7.948 1.136 o
-2 0 4 3808.010 3446.830 58.847 0.034 o
-2 0 5 516.259 430.974 6.098 1.118 o
-2 0 6 580.515 535.049 6.453 0.894 o
-2 0 7 267.530 273.616 4.520 2.614 o
-2 0 8 279.829 319.684 7.088 2.311 o
-2 0 9 74.726 38.265 5.110 14.918 o
-2 1 1 1215.210 1021.100 12.721 0.281 o
-2 1 2 470.565 435.001 7.134 1.223 o
-2 1 3 230.505 246.333 5.675 3.111 o
-2 1 4 31.523 46.414 1.827 27.982 o
-2 1 5 1022.820 982.488 14.805 0.349 o
-2 1 6 244.707 243.082 5.965 2.967 o
-2 1 7 227.056 239.052 4.405 3.212 o
-2 1 8 108.618 91.905 5.697 8.552 o
-2 2 1 25.515 20.578 1.020 44.131 o
-2 2 2 2152.190 1957.110 19.730 0.098 o
-2 2 3 849.534 754.813 14.345 0.493 o
-2 2 4 3.876 4.453 1.009 261.851 o
-2 2 5 213.501 195.384 4.612 3.694 o
-2 2 6 927.912 921.239 13.503 0.403 o
-2 2 7 41.938 45.375 2.117 23.360 o
-2 3 1 1106.090 957.932 34.160 0.311 o
-2 3 2 385.965 312.555 11.158 1.699 o
-2 3 3 256.017 227.726 8.442 2.890 o
-2 3 4 441.068 403.338 5.831 1.356 o
-2 3 5 375.702 304.260 7.462 1.792 o
-2 3 6 10.320 4.169 1.141 129.386 o
-2 4 1 127.653 100.860 3.522 7.408 o
-2 4 2 1583.380 1385.420 29.584 0.171 o
-2 4 3 17.979 17.974 1.500 58.629 o
-2 4 4 2.060 5.492 0.739 336.859 o
-2 4 5 7.393 10.595 0.789 127.917 o
-2 5 1 244.628 220.409 8.157 3.056 o
-2 5 2 18.679 12.836 1.815 62.535 o
-2 5 3 652.462 487.192 7.405 0.820 o
-1 -6 1 374.026 359.750 16.002 1.604 o
-1 -6 2 50.532 51.353 1.636 19.652 o
-1 -6 3 74.209 81.526 2.483 12.376 o
-1 -6 4 17.318 21.387 1.338 56.590 o
-1 -6 5 170.898 163.441 3.187 4.845 o
-1 -6 6 1.521 4.215 0.547 449.793 o
-1 -5 1 81.240 97.429 3.900 10.634 o
-1 -5 2 562.449 537.778 15.804 0.899 o
-1 -5 3 277.439 278.476 10.045 2.445 o
-1 -5 4 295.402 317.633 5.066 2.226 o
-1 -5 5 173.686 194.355 3.618 4.430 o
-1 -5 6 154.792 152.271 3.771 5.403 o
-1 -5 7 223.928 224.802 5.460 3.327 o
-1 -5 8 200.826 147.912 5.674 4.303 o
-1 -4 1 778.575 698.736 14.301 0.564 o
-1 -4 2 144.357 163.780 5.507 5.477 o
-1 -4 3 172.438 170.080 2.639 4.740 o
-1 -4 4 20.394 20.470 0.960 51.934 o
-1 -4 5 1384.840 1405.940 22.407 0.200 o
-1 -4 6 19.860 24.159 1.097 49.636 o
-1 -4 7 71.472 64.033 2.182 13.961 o
-1 -4 8 46.742 51.571 1.539 20.756 o
-1 -4 9 283.918 179.192 4.281 2.910 o
-1 -3 1 422.715 535.852 52.642 0.850 o
-1 -3 2 1973.740 1929.360 45.122 0.108 o
-1 -3 3 131.659 141.182 5.827 6.250 o
-1 -3 4 305.242 290.071 4.153 2.259 o
-1 -3 5 461.113 502.334 8.813 1.157 o
-1 -3 6 1134.810 1051.840 16.962 0.298 o
-1 -3 7 132.280 132.372 3.059 6.524 o
-1 -3 8 17.668 13.933 0.859 65.096 o
-1 -3 9 0.164 18.525 1.131 169.862 o
-1 -2 1 3132.270 2532.100 140.380 0.047 o
-1 -2 2 157.738 199.610 4.790 4.692 o
-1 -2 3 2227.770 2035.820 43.534 0.090 o
-1 -2 4 57.038 65.115 2.632 16.306 o
-1 -2 5 716.632 627.186 9.397 0.657 o
-1 -2 6 620.104 625.835 6.850 0.770 o
-1 -2 7 578.552 504.937 13.048 0.908 o
-1 -2 8 131.003 136.372 2.824 6.503 o
-1 -2 9 96.982 83.144 3.460 9.929 o
-1 -1 1 155.291 128.292 4.464 5.728 o
-1 -1 2 5530.510 4356.620 39.749 0.018 o
-1 -1 3 27.272 85.165 14.952 13.329 o
-1 -1 4 14.504 32.566 1.690 50.995 o
-1 -1 5 94.783 107.658 2.836 9.203 o
-1 -1 6 3534.200 3175.090 31.143 0.040 o
-1 -1 7 22.342 44.161 4.988 31.741 o
-1 -1 8 46.437 100.177 10.588 12.462 o
-1 -1 9 10.134 25.121 1.162 70.409 o
-1 0 1 854.569 656.389 6.627 0.528 o
-1 0 2 1009.280 912.260 19.040 0.366 o
-1 0 3 855.742 623.692 31.639 0.506 o
-1 0 4 133.607 246.399 64.789 1.324 o
-1 0 5 335.052 304.944 5.011 2.018 o
-1 0 6 0.569 137.989 11.971 15.533 o
-1 0 7 1117.940 1106.430 13.335 0.296 o
-1 0 8 1.296 18.675 2.810 133.482 o
-1 1 1 1340.470 1250.650 24.548 0.222 o
-1 1 2 5137.950 4256.960 28.484 0.020 o
-1 1 3 249.993 446.002 15.514 1.988 o
-1 1 4 404.015 425.656 12.097 1.410 o
-1 1 5 306.404 374.810 4.882 1.983 o
-1 1 6 261.661 239.264 3.615 2.836 o
-1 1 7 221.054 563.021 13.299 1.863 o
-1 1 8 100.663 85.333 28.696 4.756 o
-1 2 1 1028.550 928.728 10.678 0.359 o
-1 2 3 2630.540 2654.240 29.717 0.064 o
-1 2 4 46.456 161.904 8.290 10.109 o
-1 2 5 129.306 148.372 3.478 6.316 o
-1 2 6 74.978 108.310 4.318 10.659 o
-1 2 7 415.528 453.894 7.329 1.352 o
-1 3 1 416.910 367.309 8.228 1.487 o
-1 3 2 97.661 137.220 5.419 7.893 o
-1 3 3 766.756 1109.140 14.784 0.437 o
-1 3 4 747.345 693.046 10.427 0.596 o
-1 3 5 145.255 148.718 7.229 5.588 o
-1 3 6 245.641 233.379 8.925 2.959 o
-1 4 1 310.559 284.462 8.409 2.207 o
-1 4 2 79.799 104.000 7.204 9.968 o
-1 4 3 354.592 329.623 7.245 1.834 o
-1 4 4 82.637 265.683 14.101 5.154 o
-1 4 5 201.365 193.077 3.729 3.922 o
-1 5 1 3.853 32.016 2.674 76.001 o
-1 5 2 24.924 29.189 2.483 38.779 o
-1 5 3 28.122 36.195 2.202 33.208 o
0 -6 1 0.604 0.675 0.441 1694.870 o
0 -6 2 830.378 916.064 30.357 0.437 o
0 -6 3 9.025 19.337 0.916 86.207 o
0 -6 4 0.529 1.259 0.350 1405.930 o
0 -6 5 42.031 48.792 1.320 22.867 o
0 -6 6 414.375 456.075 11.892 1.332 o
0 -5 1 371.375 524.995 15.617 1.334 o
0 -5 2 92.026 130.503 3.642 8.564 o
0 -5 3 1005.450 1225.650 30.721 0.303 o
0 -5 4 76.684 104.452 2.505 10.867 o
0 -5 5 33.955 44.108 1.712 27.344 o
0 -5 6 0.409 2.215 0.350 1079.470 o
0 -5 7 584.773 775.187 10.487 0.718 o
0 -4 1 365.724 474.055 7.581 1.482 o
0 -4 2 1254.060 1630.500 27.148 0.202 o
0 -4 3 1504.080 1897.110 22.295 0.151 o
0 -4 4 232.176 287.928 5.942 2.865 o
0 -4 5 295.953 393.958 5.973 1.982 o
0 -4 6 694.500 866.855 10.522 0.568 o
0 -4 7 36.186 35.288 1.694 28.526 o
0 -4 8 152.175 179.470 4.594 5.078 o
0 -3 1 213.471 265.717 33.772 2.189 o
0 -3 2 0.560 2.665 0.760 825.175 o
0 -3 3 2532.330 3422.740 59.157 0.055 o
0 -3 4 186.697 248.103 3.744 3.713 o
0 -3 5 573.897 676.490 13.937 0.786 o
0 -3 6 2.068 3.261 0.532 441.812 o
0 -3 7 432.254 498.073 6.464 1.243 o
0 -3 8 56.943 65.564 2.279 16.340 o
0 -3 9 47.434 40.881 1.989 22.198 o
0 -2 1 1411.240 1961.490 15.509 0.159 o
0 -2 2 94.324 143.266 4.145 8.011 o
0 -2 3 4.505 5.712 2.239 195.831 o
0 -2 4 4414.090 5152.420 161.106 0.021 o
0 -2 5 146.667 186.566 6.512 5.057 o
0 -2 6 303.840 406.582 6.558 1.901 o
0 -2 7 339.038 404.381 7.636 1.729 o
0 -2 8 529.922 605.085 31.578 0.825 o
0 -2 9 108.492 137.117 4.137 7.425 o
0 -1 1 1341.430 1817.250 51.962 0.168 o
0 -1 2 949.481 1293.790 65.722 0.273 o
0 -1 3 197.574 265.790 4.110 3.423 o
0 -1 4 192.494 271.293 5.339 3.437 o
0 -1 5 809.076 909.554 24.562 0.458 o
0 -1 6 109.008 137.652 2.575 7.462 o
0 -1 7 1010.100 1255.210 26.156 0.300 o
0 -1 8 46.459 48.743 2.650 21.025 o
0 0 1 0.203 1.312 0.808 1667.130 o
0 0 2 16.894 15.811 1.125 64.365 o
0 0 3 16.336 16.723 1.073 64.699 o
0 0 4 1440.610 1611.780 118.087 0.135 o
0 0 5 39.446 49.590 2.099 23.515 o
0 0 6 41.334 51.605 1.962 22.467 o
0 0 7 15.757 13.794 1.652 69.658 o
0 0 8 844.308 1189.530 11.105 0.381 o
0 1 0 887.794 1015.760 31.175 0.384 o
0 1 1 5046.100 4450.310 32.593 0.020 o
0 1 2 132.171 183.941 12.982 5.038 o
0 1 3 1649.920 1910.670 27.803 0.136 o
0 1 4 88.531 97.231 2.469 10.123 o
0 1 5 1083.410 1240.020 9.895 0.288 o
0 1 6 71.037 111.341 2.571 11.077 o
0 1 7 7.927 11.448 1.021 118.080 o
0 1 8 113.341 92.654 3.034 8.453 o
0 2 0 966.586 1024.810 100.595 0.247 o
0 2 2 770.443 1202.930 22.904 0.404 o
0 2 3 84.291 97.108 2.842 10.473 o
0 2 4 1947.990 2213.780 24.978 0.102 o
0 2 5 112.982 134.463 3.561 7.302 o
0 2 6 24.508 42.601 1.982 33.652 o
0 2 7 152.289 180.882 4.468 5.060 o
0 3 0 591.481 793.737 12.117 0.697 o
0 3 1 1619.990 1824.590 22.149 0.143 o
0 3 2 0.212 1.356 0.626 1710.320 o
0 3 3 140.081 199.269 17.495 4.314 o
0 3 4 117.588 138.158 4.161 6.973 o
0 3 5 629.252 864.005 12.230 0.623 o
0 3 6 3.546 4.267 0.522 288.667 o
0 4 0 420.830 548.363 9.395 1.198 o
0 4 1 30.922 31.041 1.689 33.328 o
0 4 2 283.345 346.489 9.588 2.169 o
0 4 3 244.778 342.915 6.570 2.495 o
0 4 4 251.909 335.736 6.607 2.466 o
0 5 0 3.659 4.047 1.057 279.619 o
0 5 1 184.751 233.007 7.906 3.773 o
0 5 2 28.729 21.424 12.707 21.771 o
0 5 3 48.202 76.025 2.964 16.937 o
0 6 0 35.055 43.343 2.951 26.441 o
1 -6 0 65.833 70.817 5.686 13.610 o
1 -6 1 54.291 54.049 1.694 18.299 o
1 -6 2 25.847 24.597 0.991 41.322 o
1 -6 3 417.525 427.526 4.675 1.395 o
1 -6 4 35.366 35.697 1.309 29.001 o
1 -6 5 386.827 340.849 5.513 1.669 o
1 -5 0 774.398 765.352 19.587 0.535 o
1 -5 1 39.756 88.148 3.796 17.240 o
1 -5 2 0.314 14.035 2.275 195.729 o
1 -5 3 9.931 19.308 1.602 80.728 o
1 -5 4 1366.750 1371.830 23.124 0.206 o
1 -5 5 50.409 57.782 1.937 18.768 o
1 -5 6 36.148 42.725 1.657 26.603 o
1 -5 7 1.101 3.631 0.592 555.713 o
1 -4 0 14.867 89.848 4.951 23.803 o
1 -4 1 1471.120 1363.530 21.652 0.190 o
1 -4 2 271.861 260.296 6.961 2.609 o
1 -4 3 119.792 100.681 2.995 7.846 o
1 -4 4 146.441 193.828 6.495 4.972 o
1 -4 5 580.963 599.826 8.387 0.840 o
1 -4 6 5.588 9.476 0.835 157.097 o
1 -4 7 243.073 231.536 3.940 3.073 o
1 -4 8 26.340 20.909 1.003 42.901 o
1 -3 0 2421.330 2307.280 23.238 0.077 o
1 -3 1 365.856 440.739 7.906 1.541 o
1 -3 2 410.631 392.271 7.608 1.468 o
1 -3 3 611.098 580.537 11.223 0.806 o
1 -3 4 1197.940 1287.780 14.281 0.251 o
1 -3 5 41.248 70.060 4.077 18.957 o
1 -3 6 231.399 231.482 3.833 3.212 o
1 -3 7 25.043 20.826 1.102 44.536 o
1 -3 8 545.494 550.234 10.839 0.931 o
1 -2 0 214.027 286.063 4.190 3.091 o
1 -2 1 1146.750 1337.890 69.142 0.223 o
1 -2 2 513.224 644.312 13.070 0.901 o
1 -2 3 682.719 755.427 20.265 0.611 o
1 -2 4 287.416 336.947 8.256 2.188 o
1 -2 5 1332.160 1370.870 16.575 0.214 o
1 -2 6 14.983 71.040 2.470 30.129 o
1 -2 7 57.595 75.412 2.763 15.215 o
1 -2 8 0.135 14.297 1.434 213.906 o
1 -1 0 744.572 781.009 6.332 0.565 o
1 -1 1 1216.160 1284.680 44.080 0.234 o
1 -1 2 4656.790 5136.780 86.709 0.020 o
1 -1 3 324.264 338.895 7.667 1.966 o
1 -1 4 471.943 459.478 9.788 1.180 o
1 -1 5 647.871 812.902 23.131 0.611 o
1 -1 6 271.754 241.687 4.161 2.723 o
1 -1 7 416.637 418.777 7.739 1.403 o
1 -1 8 191.250 172.307 2.889 4.309 o
1 0 0 687.569 471.934 17.292 0.763 o
1 0 1 4541.600 3584.370 47.414 0.026 o
1 0 2 15.277 24.220 2.810 55.365 o
1 0 3 1867.450 1723.310 28.182 0.125 o
1 0 4 2.624 39.027 3.335 66.142 o
1 0 5 917.171 824.058 13.438 0.433 o
1 0 6 128.143 247.722 8.245 4.689 o
1 0 7 109.361 96.339 2.870 8.596 o
1 0 8 163.254 97.617 3.050 6.020 o
1 1 0 13.001 5.286 0.245 104.345 o
1 1 1 229.604 280.092 14.605 2.745 o
1 1 2 1921.670 1539.100 16.375 0.129 o
1 1 3 48.393 130.261 7.197 11.684 o
1 1 4 328.667 298.674 4.954 2.075 o
1 1 5 23.161 35.790 3.418 36.324 o
1 1 6 1745.390 1614.630 57.003 0.134 o
1 1 7 10.040 25.081 3.127 65.680 o
1 2 0 25.206 72.666 4.569 23.384 o
1 2 2 89.741 361.487 12.086 4.121 o
1 2 3 673.485 593.223 7.999 0.724 o
1 2 4 149.037 160.862 4.330 5.428 o
1 2 5 159.393 169.110 3.331 5.058 o
1 2 6 205.968 204.294 6.051 3.714 o
1 3 0 224.701 190.817 6.184 3.533 o
1 3 1 279.394 261.320 4.932 2.561 o
1 3 2 2202.460 2054.560 28.826 0.092 o
1 3 3 1.048 124.291 8.741 19.550 o
1 3 4 2.051 30.029 2.834 86.870 o
1 3 5 24.860 75.731 21.675 9.806 o
1 4 0 0.436 14.777 2.078 188.674 o
1 4 1 228.364 224.830 11.633 3.130 o
1 4 2 11.108 24.973 3.218 62.705 o
1 4 3 636.989 653.621 9.457 0.729 o
1 4 4 8.484 25.936 1.451 74.019 o
1 5 0 262.210 294.408 6.958 2.546 o
1 5 1 69.537 73.429 3.283 13.414 o
2 -6 0 4.735 5.711 0.524 215.963 o
2 -6 1 105.816 92.898 2.813 8.948 o
2 -6 2 285.541 263.791 3.161 2.512 o
2 -6 3 12.471 12.458 1.149 85.713 o
2 -6 4 123.538 98.329 10.884 6.946 o
2 -5 0 155.819 160.740 3.515 5.261 o
2 -5 1 169.083 175.270 3.438 4.743 o
2 -5 2 44.296 38.838 2.578 23.559 o
2 -5 3 179.105 192.016 8.804 4.191 o
2 -5 4 24.538 24.555 1.965 42.204 o
2 -5 5 389.437 365.860 18.445 1.508 o
2 -5 6 155.676 155.257 4.526 5.312 o
2 -4 0 19.636 19.185 1.336 54.177 o
2 -4 1 41.432 42.074 2.740 23.992 o
2 -4 2 1742.150 1654.270 34.519 0.138 o
2 -4 3 205.089 235.947 4.782 3.516 o
2 -4 4 15.665 22.201 1.886 58.489 o
2 -4 5 72.337 87.335 3.157 12.178 o
2 -4 6 771.462 760.823 10.721 0.549 o
2 -3 0 23.952 18.593 0.998 47.676 o
2 -3 1 971.975 887.502 27.262 0.380 o
2 -3 2 40.356 47.470 1.612 23.705 o
2 -3 3 559.934 606.357 9.116 0.866 o
2 -3 4 156.354 183.695 7.246 4.822 o
2 -3 5 230.227 278.369 4.848 2.947 o
2 -3 6 11.087 16.260 1.943 81.223 o
2 -3 7 753.018 684.460 61.487 0.463 o
2 -2 0 1357.750 1192.600 35.040 0.220 o
2 -2 1 1.763 6.753 0.776 314.547 o
2 -2 2 2070.320 2353.950 35.443 0.091 o
2 -2 3 636.606 666.088 18.209 0.706 o
2 -2 4 27.101 24.775 1.258 39.727 o
2 -2 5 302.800 318.298 4.561 2.178 o
2 -2 6 976.343 911.810 15.835 0.382 o
2 -2 7 64.573 56.311 1.648 15.839 o
2 -1 0 25.374 18.434 0.686 45.897 o
2 -1 1 1331.240 936.539 46.260 0.245 o
2 -1 2 23.881 24.792 6.603 35.080 o
2 -1 3 3372.340 2821.390 29.200 0.045 o
2 -1 4 0.641 1.394 0.519 1193.550 o
2 -1 5 39.203 28.534 1.341 28.845 o
2 -1 6 6.909 8.569 0.969 144.252 o
2 -1 7 438.282 382.770 9.447 1.384 o
2 0 0 62.343 60.959 1.882 15.794 o
2 0 2 2018.740 1733.330 135.574 0.090 o
2 0 3 483.707 440.720 7.349 1.182 o
2 0 4 1103.770 1018.690 24.117 0.309 o
2 0 5 181.816 168.882 3.813 4.523 o
2 0 6 285.346 267.438 6.436 2.473 o
2 0 7 99.216 63.300 2.428 10.687 o
2 1 0 89.017 81.810 4.526 10.560 o
2 1 3 490.936 421.282 8.877 1.183 o
2 1 4 326.530 305.052 5.778 2.064 o
2 1 5 318.327 305.091 5.253 2.117 o
2 1 6 156.965 166.397 5.822 5.080 o
2 2 0 3865.090 2437.750 62.036 0.039 o
2 2 1 310.164 307.856 7.588 2.142 o
2 2 2 0.107 0.954 0.509 2605.740 o
2 2 3 29.735 23.314 1.234 37.831 o
2 2 4 857.192 824.877 20.994 0.460 o
2 2 5 30.597 31.507 1.454 33.505 o
2 3 0 727.239 667.798 10.965 0.625 o
2 3 1 782.174 767.400 20.714 0.527 o
2 3 2 258.393 259.737 7.564 2.725 o
2 3 3 264.172 251.090 12.182 2.627 o
2 3 4 6.479 3.163 0.986 199.630 o
2 4 0 1247.980 1164.470 32.551 0.247 o
2 4 1 118.486 110.629 5.412 7.499 o
2 4 2 42.926 53.189 2.492 21.497 o
2 4 3 6.478 7.924 0.822 155.453 o
2 5 0 14.176 5.560 9.365 45.867 o
2 5 1 624.541 446.561 5.702 0.895 o
3 -5 0 611.075 500.668 12.275 0.862 o
3 -5 1 125.086 120.155 5.318 6.970 o
3 -5 2 179.943 184.409 5.019 4.373 o
3 -5 3 159.026 139.331 4.007 5.461 o
3 -5 4 221.138 193.549 19.923 3.056 o
3 -5 5 240.631 177.225 4.089 3.440 o
3 -4 0 170.813 152.484 19.681 4.004 o
3 -4 1 146.412 148.104 4.716 5.686 o
3 -4 2 17.894 20.921 1.238 55.991 o
3 -4 3 1077.330 1257.910 14.646 0.286 o
3 -4 4 16.741 17.288 1.707 62.011 o
3 -4 5 115.104 122.416 3.020 7.520 o
3 -3 0 1213.840 1167.500 13.098 0.262 o
3 -3 1 64.689 69.874 2.519 14.523 o
3 -3 2 77.701 85.682 4.167 11.534 o
3 -3 3 217.388 234.910 9.508 3.260 o
3 -3 4 1215.130 1245.150 15.970 0.251 o
3 -3 5 0.339 1.142 0.401 1765.140 o
3 -3 6 17.277 14.789 1.426 64.291 o
3 -2 0 48.984 37.928 1.453 22.291 o
3 -2 1 1159.020 1131.010 42.411 0.265 o
3 -2 2 186.159 182.971 5.962 4.240 o
3 -2 3 184.436 174.015 4.177 4.407 o
3 -2 4 379.427 396.072 6.880 1.580 o
3 -2 5 765.062 720.511 11.925 0.568 o
3 -2 6 22.159 22.588 1.485 47.023 o
3 -1 0 2465.830 2065.330 23.250 0.080 o
3 -1 1 86.805 91.228 3.247 10.476 o
3 -1 2 1.754 2.252 0.537 565.081 o
3 -1 3 333.260 337.773 6.885 1.926 o
3 -1 4 1608.120 1597.930 20.548 0.157 o
3 -1 5 35.196 35.487 1.791 28.997 o
3 -1 6 84.551 90.974 4.444 10.560 o
3 0 0 387.185 371.016 7.310 1.597 o
3 0 1 1205.740 1059.710 10.739 0.278 o
3 0 2 4.555 5.670 0.521 221.855 o
3 0 3 51.948 52.268 2.319 19.010 o
3 0 4 44.791 46.233 2.275 22.108 o
3 0 6 0.606 1.216 0.522 1309.430 o
3 1 0 1913.310 1763.620 18.940 0.120 o
3 1 1 302.020 304.018 4.847 2.229 o
3 1 2 703.228 662.151 17.036 0.642 o
3 1 3 128.608 126.821 2.751 6.800 o
3 1 4 92.568 77.861 2.876 10.593 o
3 1 5 106.786 79.176 3.231 9.339 o
3 2 0 189.901 171.274 4.110 4.325 o
3 2 1 1393.980 1312.390 14.390 0.209 o
3 2 2 150.271 157.473 5.304 5.405 o
3 2 3 198.757 198.340 8.343 3.813 o
3 2 4 51.526 49.541 3.308 19.221 o
3 3 0 0.017 0.801 0.512 3522.500 o
3 3 1 213.482 233.262 7.880 3.360 o
3 3 2 524.688 545.568 10.079 0.974 o
3 3 3 32.607 32.357 1.712 31.640 o
3 4 0 109.466 106.177 4.453 8.183 o
3 4 1 86.508 85.352 4.576 10.621 o
3 4 2 29.937 15.365 1.216 41.811 o
4 -5 0 16.831 9.651 0.662 74.496 o
4 -5 1 660.330 523.697 20.250 0.756 o
4 -5 2 0.131 0.563 0.293 3865.150 o
4 -4 0 167.542 210.394 8.894 4.232 o
4 -4 1 517.569 518.620 10.683 1.012 o
4 -4 2 215.420 234.128 8.232 3.321 o
4 -4 3 82.596 91.796 8.410 9.993 o
4 -4 4 265.218 206.573 3.517 2.970 o
4 -3 0 119.309 115.101 4.077 7.438 o
4 -3 1 565.650 602.184 12.048 0.854 o
4 -3 2 62.334 60.133 2.938 15.709 o
4 -3 3 211.155 222.834 4.278 3.531 o
4 -3 4 8.674 10.479 0.872 116.341 o
4 -3 5 225.461 153.746 3.759 3.847 o
4 -2 0 20.078 23.236 2.052 49.073 o
4 -2 1 7.075 8.736 1.473 138.000 o
4 -2 2 1188.080 1186.580 11.298 0.266 o
4 -2 3 83.061 80.903 3.264 11.336 o
4 -2 4 46.869 47.927 1.816 21.240 o
4 -2 5 98.879 89.786 2.210 9.601 o
4 -1 0 85.802 92.624 4.025 10.423 o
4 -1 1 113.537 122.816 3.905 7.544 o
4 -1 2 105.314 114.922 3.111 8.260 o
4 -1 3 276.612 272.233 8.003 2.506 o
4 -1 4 130.364 139.497 2.928 6.464 o
4 -1 5 258.041 249.124 5.577 2.805 o
4 0 0 163.726 149.268 3.531 5.202 o
4 0 1 10.877 7.383 1.050 110.523 o
4 0 2 726.548 755.637 32.317 0.548 o
4 0 3 1.308 1.964 0.574 704.720 o
4 0 4 5.029 7.319 1.230 183.005 o
4 1 0 4.685 6.308 1.162 203.157 o
4 1 1 375.131 384.508 7.527 1.617 o
4 1 2 0.196 1.763 0.482 1478.500 o
4 2 0 142.844 150.509 6.209 5.691 o
4 2 1 92.416 93.226 3.331 9.901 o
4 2 2 558.661 599.492 10.004 0.871 o
4 3 0 1.307 1.819 0.496 733.194 o
4 3 1 4.199 7.903 0.915 198.148 o
4 4 0 190.910 130.117 4.478 4.737 o
5 -4 0 32.966 28.759 1.253 32.840 o
5 -4 1 3.764 2.298 0.618 331.906 o
5 -3 0 207.573 206.503 7.954 3.626 o
5 -3 1 113.578 106.597 3.765 7.984 o
5 -3 2 237.413 227.705 4.985 3.149 o
5 -2 0 191.457 198.468 4.395 4.035 o
5 -2 1 158.196 181.348 5.455 4.875 o
5 -2 2 39.596 44.792 2.035 24.446 o
5 -2 3 443.034 441.241 5.883 1.294 o
5 -1 0 727.859 794.153 47.598 0.492 o
5 -1 1 41.481 50.116 2.173 22.626 o
5 -1 2 100.519 105.717 3.425 8.833 o
5 0 0 1.714 4.354 0.907 408.116 o
5 0 1 252.042 310.668 7.844 2.552 o
5 0 2 26.856 26.051 1.290 39.303 o
5 1 0 356.409 483.475 21.949 1.384 o
5 1 1 8.366 5.501 0.882 145.702 o
5 2 0 47.078 50.246 3.128 20.446 o
6 -1 0 17.456 18.018 1.208 60.129 o
6 0 0 67.934 68.907 3.687 13.904 o
;
_olex2_submission_special_instructions 'No special instructions were received'
_oxdiff_exptl_absorpt_empirical_details
;
Empirical correction (ABSPACK) includes:
- Absorption correction using spherical harmonics
- Frame scaling
;
_oxdiff_exptl_absorpt_empirical_full_max 1.403
_oxdiff_exptl_absorpt_empirical_full_min 0.760
loop_
_space_group_symop_id
_space_group_symop_operation_xyz
1 x,y,z
2 -x,-y,-z
loop_
_atom_site_label
_atom_site_type_symbol
_atom_site_fract_x
_atom_site_fract_y
_atom_site_fract_z
_atom_site_U_iso_or_equiv
_atom_site_adp_type
_atom_site_occupancy
_atom_site_site_symmetry_order
_atom_site_refinement_flags_posn
_atom_site_refinement_flags_adp
_atom_site_refinement_flags_occupancy
Cu1 Cu 0.5 0.5 0.5 0.0116(6) Uani 1.000000 2 S TU P
Cu2 Cu 0.0 0.0 0.0 0.0110(6) Uani 1.000000 2 S TU P
S1 S 0.3916(4) 1.0745(4) 0.7526(3) 0.0106(6) Uani 1.000000 1 . U .
O1 O 0.1374(14) 0.4397(14) 0.2702(9) 0.0129(13) Uani 1.000000 1 D U .
H1a H 0.21(3) 0.58(2) 0.23(2) 0.0155(16) Uiso 1.000000 1 DR . .
H1b H -0.045(18) 0.43(3) 0.29(2) 0.0155(16) Uiso 1.000000 1 DR . .
O2 O 0.3361(14) 0.7703(13) 0.6711(10) 0.0140(13) Uani 1.000000 1 . U .
O3 O 0.7043(13) 1.1635(13) 0.8517(10) 0.0130(13) Uani 1.000000 1 . U .
O4 O 0.2528(14) 1.1710(14) 0.9026(10) 0.0142(13) Uani 1.000000 1 . U .
O5 O 0.2937(14) 1.1969(14) 0.5993(10) 0.0140(13) Uani 1.000000 1 . U .
loop_
_atom_site_aniso_label
_atom_site_aniso_U_11
_atom_site_aniso_U_22
_atom_site_aniso_U_33
_atom_site_aniso_U_12
_atom_site_aniso_U_13
_atom_site_aniso_U_23
Cu1 0.0138(10) 0.0117(10) 0.0073(9) 0.0019(7) 0.0009(7) 0.0030(7)
Cu2 0.0137(10) 0.0113(10) 0.0062(9) 0.0024(7) 0.0006(7) 0.0035(7)
S1 0.0136(11) 0.0092(10) 0.0068(10) 0.0015(7) 0.0006(8) 0.0024(8)
O1 0.015(3) 0.015(3) 0.006(3) 0.003(2) 0.001(2) 0.003(2)
O2 0.017(3) 0.011(3) 0.014(3) 0.003(2) 0.006(3) 0.003(3)
O3 0.0133(15) 0.0129(15) 0.0128(14) 0.0017(5) 0.0043(5) 0.0045(5)
O4 0.0146(15) 0.0139(15) 0.0139(14) 0.0018(5) 0.0049(5) 0.0045(5)
O5 0.0144(15) 0.0140(15) 0.0136(14) 0.0019(5) 0.0046(5) 0.0050(5)
loop_
_atom_type_symbol
_atom_type_scat_dispersion_real
_atom_type_scat_dispersion_imag
_atom_type_scat_source
_atom_type_scat_dispersion_source
Cu -1.96878 0.60861 'NoSpherA2: Chem.Sci. 2021, DOI:10.1039/D0SC05526C'
'Henke, Gullikson and Davis, At. Data and Nucl. Data Tables, 1993, 54, 2'
H 0.00000 0.00000 'NoSpherA2: Chem.Sci. 2021, DOI:10.1039/D0SC05526C'
'Henke, Gullikson and Davis, At. Data and Nucl. Data Tables, 1993, 54, 2'
O 0.05239 0.03377 'NoSpherA2: Chem.Sci. 2021, DOI:10.1039/D0SC05526C'
'Henke, Gullikson and Davis, At. Data and Nucl. Data Tables, 1993, 54, 2'
S 0.33537 0.55136 'NoSpherA2: Chem.Sci. 2021, DOI:10.1039/D0SC05526C'
'Henke, Gullikson and Davis, At. Data and Nucl. Data Tables, 1993, 54, 2'
loop_
_diffrn_refln_index_h
_diffrn_refln_index_k
_diffrn_refln_index_l
_diffrn_refln_intensity_net
_diffrn_refln_intensity_u
0 0 1 4.33 1.22
0 0 -1 1.3 0.64
0 0 -2 28.29 1.98
0 0 2 26.65 2.73
0 0 -2 34.24 2.76
0 0 -3 32.83 3.32
0 0 -3 30.45 2.53
0 0 -4 3239.41 47.49
0 0 4 2796.42 45.19
0 0 5 108.63 8.53
0 0 -5 95.54 7.83
0 0 -5 91.27 6.98
0 0 -5 102.05 8.08
0 0 -5 80.85 6.85
0 0 -5 81.29 7.46
0 0 -6 100.69 8.92
0 0 -6 104.57 8.81
0 0 -6 88.75 7.85
0 0 -6 97.96 8.6
0 0 -6 93.73 7.32
0 0 -7 26.23 4.46
0 0 -7 25.53 4.31
0 0 -8 2246.15 36.1
0 0 -8 2250.03 35.7
0 0 -8 2195.49 36.45
0 1 -8 96.41 6.86
0 1 -8 86.47 6.48
0 1 -7 2400.41 43.63
0 1 -7 2302.29 45.46
0 -1 6 284.53 15.35
0 1 -6 245.25 13.25
0 1 -6 244.07 13.14
0 1 -6 257.24 13.74
0 1 -6 258.18 13.11
0 1 -6 248.4 13.94
0 1 -6 274.41 14.1
0 1 -6 256.65 13.08
0 -1 5 1769.86 38.68
0 1 -5 1583.7 34.01
0 1 -5 1681.77 35.58
0 1 -5 1932.04 37.94
0 1 -5 1719.14 36.51
0 1 -5 1537.46 36.37
0 -1 4 499.95 17.67
0 -1 4 508.25 17.63
0 1 -4 517.18 16.78
0 1 -3 503.35 10.57
0 1 -3 492.96 11.27
0 -1 2 2555.33 32.95
0 1 -2 2308.78 30
0 -1 1 3490.76 42.09
0 -1 1 3295.83 47.92
0 -1 0 1972.5 24.58
0 -1 0 1855.55 20.5
0 1 1 8339.77 84.84
0 1 1 8355.66 88.17
0 -1 -2 323.19 10.3
0 -1 -2 371.89 12.26
0 -1 -3 3583.84 52.15
0 -1 -4 186.61 10.41
0 -1 -4 181.2 10.87
0 -1 -4 190.56 10.29
0 -1 -4 178.48 10.12
0 -1 -4 174.48 10.13
0 1 5 2368.89 45.43
0 -1 -5 2307.13 46.34
0 -1 -5 2357.76 42.62
0 -1 -5 2215.05 47.54
0 -1 -5 2336.23 45.83
0 -1 -5 2349.35 45.48
0 -1 -6 208.65 11.22
0 -1 -6 212.66 12.88
0 -1 -6 212.85 12.38
0 -1 -6 192.83 10.34
0 -1 -6 211.37 12.31
0 -1 -6 219.45 12.37
0 -1 -7 19.18 2.88
0 -1 -7 21.73 3.49
0 -1 -7 24.32 3.78
0 -1 -8 173.79 5.69
0 2 -9 257.19 7.76
0 2 -8 1082.71 23.2
0 2 -8 1201.17 27.51
0 2 -7 790.79 24.58
0 2 -7 729.55 22.19
0 2 -7 725.3 23.27
0 2 -7 801.75 25.64
0 2 -7 752.95 23.32
0 -2 6 753.77 26.24
0 2 -6 781.61 26.26
0 2 -6 760.3 25.6
0 2 -6 703.28 22.36
0 -2 6 797.55 28.23
0 2 -6 824.15 26.69
0 2 -6 737.67 24.06
0 2 -5 377.98 15.98
0 2 -5 320.31 11.72
0 2 -5 374.03 16.95
0 2 -5 347.08 16.23
0 -2 4 9999 126.26
0 2 -4 9394.63 109.88
0 -2 3 17.43 4.05
0 2 -3 9.03 1.46
0 2 -2 269.75 9.87
0 -2 2 267.03 12.62
0 2 -1 3714.79 49.37
0 -2 1 3650.71 49.7
0 -2 1 3670.05 52.23
0 -2 0 1791.72 20.91
0 -2 0 2169.09 31.64
0 -2 -2 2256.32 42.96
0 -2 -3 200.83 11.57
0 -2 -3 181.23 10.04
0 -2 -3 170.55 10.4
0 -2 -3 176.79 10.81
0 -2 -4 4347.44 68.14
0 -2 -4 4223.76 64.25
0 -2 -4 4183.68 65.23
0 -2 -4 3950.91 68.27
0 -2 -4 4034.65 67.3
0 -2 -4 4140.75 66.61
0 -2 -5 257.95 14.1
0 -2 -5 245.08 13.35
0 -2 -5 248.07 12.88
0 -2 -5 257.98 13.19
0 -2 -6 78.59 6.45
0 -2 -6 77.68 6.34
0 -2 -6 83.38 6.53
0 -2 -7 339.28 8.38
0 3 -9 76.68 3.73
0 3 -8 130.09 8.11
0 3 -8 132.55 7.96
0 3 -8 110.28 6.36
0 3 -8 123.21 7.4
0 3 -7 953.66 27.91
0 3 -7 944.17 28.21
0 3 -7 909 25.5
0 -3 7 959.59 27.44
0 3 -7 908.52 26.76
0 3 -6 4.65 2.53
0 3 -6 5.36 2.56
0 3 -6 6.42 2.94
0 -3 6 8.68 3.34
0 3 -6 6.27 2.5
0 3 -6 5.49 2.63
0 3 -6 6.54 2.32
0 3 -5 1218.79 28.5
0 3 -5 1271.71 35.42
0 3 -5 1326.88 32.62
0 -3 4 466.54 20.73
0 3 -4 466.48 17.4
0 3 -4 477.01 18.76
0 3 -4 441.74 16.4
0 3 -4 458.73 18.77
0 3 -4 499.46 19.45
0 3 -4 451.5 19.57
0 -3 3 6300.37 92.3
0 3 -3 6522.29 86.83
0 -3 2 4.29 1.95
0 3 -2 5.76 2.09
0 3 -1 580.49 18.55
0 -3 1 453.8 12.09
0 3 0 1488.69 31.93
0 -3 0 1488.93 32.36
0 -3 -1 3381.61 56.32
0 -3 -1 3464.7 58.09
0 -3 -2 1.47 2.28
0 3 2 3.59 2.38
0 -3 -2 3.18 2.53
0 -3 -2 2.05 2.23
0 -3 -3 348.51 15.47
0 3 3 414.14 21.32
0 -3 -4 268.81 14.46
0 -3 -4 254.34 13.55
0 -3 -4 255.49 12.71
0 -3 -5 1634.76 33
0 -3 -5 1607.15 31.91
0 -3 -6 8.02 1.42
0 -3 -6 7.99 1.35
0 4 -8 324.02 10.76
0 4 -8 329.03 11.02
0 -4 8 362.46 11.32
0 4 -8 352.13 11.72
0 -4 8 312 11.62
0 4 -7 65.81 6.65
0 4 -7 64.72 6.27
0 4 -7 68.84 6.68
0 4 -7 65.6 5.92
0 4 -6 1585.73 39.04
0 4 -6 1700.43 40.46
0 4 -6 1513.56 33.03
0 4 -6 1654.18 40.54
0 -4 6 1652.31 41.14
0 -4 6 1636.36 39.02
0 4 -6 1672.29 37.5
0 -4 5 757.6 27.46
0 4 -5 774.72 27.06
0 4 -5 774.3 26.86
0 4 -5 704.08 22.7
0 4 -5 682.77 25.44
0 -4 5 717.31 24.52
0 4 -5 757.15 24.86
0 -4 5 755.42 28
0 -4 4 567.71 22.67
0 -4 4 505.27 21.99
0 4 -4 604.67 23.31
0 -4 4 524.98 21
0 4 -4 494.36 21.24
0 4 -4 494.99 21.29
0 4 -4 553.85 22.23
0 4 -4 538.68 19.93
0 -4 4 575.7 23.35
0 -4 3 3451.9 61.61
0 4 -3 3435 62.39
0 4 -3 3577.18 62.13
0 -4 3 3545.14 66.47
0 -4 3 3372.85 62.02
0 4 -3 3781.16 66.22
0 4 -3 3748.15 61.31
0 -4 3 3533.27 67.36
0 -4 2 3180.6 64.01
0 -4 2 2993.72 58.71
0 -4 2 3018.52 56.79
0 -4 2 2938.13 59.83
0 -4 2 2833.23 50.04
0 4 -2 3286.51 58.57
0 4 -2 2877.8 55.14
0 4 -2 3137.45 56.59
0 -4 2 3294.76 58.64
0 4 -1 865 27.38
0 -4 1 876.4 27.24
0 -4 1 910.33 30.55
0 -4 1 909.81 28.96
0 4 0 1015.71 31.57
0 -4 0 974.03 27.73
0 -4 0 1014.88 28
0 -4 0 1088.85 32.4
0 -4 0 1063.43 31.51
0 4 1 51.24 6.98
0 -4 -1 58.55 7
0 -4 -1 62.76 6.69
0 -4 -1 52.19 6.7
0 4 1 66.37 8.43
0 -4 -2 649.51 25.29
0 4 2 689.85 27.64
0 4 2 613.95 24.88
0 -4 -3 657.78 21.47
0 -4 -3 636.2 20.71
0 -4 -3 635.34 21.91
0 -4 -4 632.86 18.07
0 -4 -4 626.94 17.03
0 5 -7 1445.71 27.2
0 -5 7 1463.01 28.48
0 5 -6 3.11 1.9
0 5 -6 4.88 1.94
0 -5 6 5.95 2.35
0 5 -6 2.62 1.5
0 -5 6 4.04 1.68
0 -5 6 5.47 2.27
0 5 -6 4.63 1.77
0 5 -6 3.51 1.87
0 -5 5 77.48 7.47
0 5 -5 86.37 8.09
0 -5 5 87.44 8.83
0 -5 5 84.66 7.19
0 -5 5 79.54 8.12
0 5 -5 81.17 7.79
0 -5 4 185.06 11.14
0 5 -4 201.27 12.93
0 -5 4 216.96 14.8
0 -5 4 194.65 12.59
0 5 -4 204.33 13.01
0 -5 4 192.45 12.96
0 -5 4 186.02 10.83
0 5 -3 2383.52 49.32
0 -5 3 2148.95 40.67
0 5 -3 2382.75 51.04
0 -5 3 2302.83 47.34
0 -5 3 2043.37 42.22
0 -5 3 2392.95 51.99
0 5 -3 2048.38 45.72
0 -5 3 2556.48 53.28
0 -5 3 2585.83 53.97
0 -5 2 275.25 15.55
0 -5 2 276.67 16.32
0 -5 2 232.22 12.11
0 5 -2 231.5 13.92
0 -5 2 258.63 15.12
0 5 -2 231.79 14.48
0 -5 2 246.31 14.54
0 5 -2 216.77 13.15
0 -5 1 1043.58 28.42
0 -5 1 1048.96 31.11
0 5 -1 912.85 28.05
0 -5 1 1011.85 27.15
0 -5 1 913.89 25.51
0 -5 0 6.45 2.79
0 -5 0 8.71 2.82
0 -5 -1 437.05 14.83
0 -5 -2 15.93 2.45
0 -5 -2 63.6 4.81
0 -5 -3 142.6 5.56
0 6 -6 834.1 15.36
0 -6 6 878.71 16.45
0 6 -5 90.61 5
0 -6 5 97.13 6.48
0 -6 5 97.45 5.21
0 6 -5 82.05 5.6
0 -6 5 89.24 5.72
0 6 -4 2.33 1.32
0 6 -4 4.53 1.72
0 -6 4 0.87 1.2
0 -6 4 1.44 1.42
0 -6 4 1.11 1.29
0 6 -4 5.31 1.81
0 -6 3 39.29 4.39
0 6 -3 34.01 4.15
0 6 -3 37.05 4.3
0 -6 3 38.93 4.19
0 6 -3 28.3 3.67
0 -6 3 40.57 4.79
0 6 -2 1655.55 30.73
0 -6 2 1769.43 28.7
0 -6 1 1.43 1.2
0 -6 1 1.11 1.14
0 -6 0 74.69 4.93
0 -6 0 85.76 4.34
1 -6 0 141.72 6.08
-1 6 0 120.39 6.63
-1 6 -1 98.62 6.73
-1 6 -1 95.01 6.12
1 -6 1 110.76 6.45
1 -6 1 100.31 6.18
1 -6 2 48.67 4.93
-1 6 -2 47.86 4.44
-1 6 -2 39.66 4.46
-1 6 -2 41.69 4.43
1 -6 2 46.83 4.55
1 -6 2 50.85 4.56
1 -6 3 818.36 20.4
-1 6 -3 781.94 20.28
-1 6 -3 822.19 20.92
-1 6 -3 797.89 18.6
1 -6 3 792.11 18.28
1 -6 4 66.09 4.77
1 -6 4 75.28 5.44
-1 6 -4 70.75 5.32
-1 6 -4 57.81 3.95
1 -6 4 69.38 5.41
-1 6 -5 633.9 14.52
-1 6 -5 644.82 14.73
1 -5 -3 67.89 4.13
1 -5 -2 71.48 5.82
1 -5 -2 64.4 6.62
-1 5 2 50.93 4.95
1 -5 -2 46.04 4.48
1 -5 -2 47.09 4.09
1 -5 -1 55.6 5.69
1 -5 -1 65.63 6.92
-1 5 0 1341 32.52
1 -5 0 1532.96 36.49
1 -5 0 1339.42 36.68
1 -5 0 1483.04 32.29
-1 5 0 1467.38 36.02
1 -5 1 179.06 11.31
1 -5 1 151.62 11.27
1 -5 1 162.57 12.61
-1 5 -2 16.14 4.3
-1 5 -2 36.36 6.04
1 -5 2 30.22 5.66
-1 5 -2 14.58 4.09
1 -5 2 33.13 6.43
1 -5 3 36.28 6.35
1 -5 3 51.5 7.3
1 -5 3 34.37 5.21
1 -5 3 21.59 4.3
1 -5 3 43.24 7.14
-1 5 -3 34.74 6.12
-1 5 -4 2501.54 45.42
-1 5 -4 2560 48.77
-1 5 -4 2663.45 50.86
1 -5 4 2414.41 47.23
1 -5 4 2755.6 55.53
-1 5 -4 2518.29 49.79
1 -5 4 2435.41 49.39
-1 5 -4 2782.37 52.66
1 -5 5 116.45 9.42
-1 5 -5 98.62 6.79
1 -5 5 106.86 7.86
1 -5 5 108.14 8.73
-1 5 -5 116.82 8.62
-1 5 -6 85.47 6.26
-1 5 -6 81.42 6.14
1 -5 6 72.56 5.97
1 -5 6 80.69 6.53
1 -5 7 5.57 1.38
-1 5 -7 7.79 1.45
1 -4 -5 364.99 10.3
1 -4 -5 359.69 9.53
1 -4 -4 524.92 17.04
1 -4 -4 472.02 16.08
1 -4 -3 626.99 21.33
1 -4 -3 639.43 21.28
1 -4 -3 590.49 19.79
1 -4 -2 260.05 16.38
1 -4 -2 203.16 13.39
1 -4 -2 203.72 12.38
1 -4 -2 204.21 12.97
-1 4 2 166.9 13.51
-1 4 2 132.81 10.95
-1 4 1 512.09 20.47
1 -4 -1 587.45 22.75
1 -4 -1 503.12 19.08
1 -4 -1 486.99 18.74
-1 4 1 563.94 23.63
1 -4 -1 589.96 23.98
-1 4 1 483.76 20.2
1 -4 -1 578.44 24.79
1 -4 0 193.98 12
1 -4 0 163.08 14.66
1 -4 0 152.01 13.25
-1 4 0 151.61 12.72
-1 4 -1 2581.68 51.12
1 -4 1 2717.47 59.93
1 -4 1 2687.17 52.68
1 -4 1 2486.09 50.54
1 -4 1 2468.82 53.85
-1 4 -1 2606.01 49.38
-1 4 -1 2383.5 48.42
-1 4 -2 506.51 21.2
-1 4 -2 524.84 20.93
-1 4 -2 517.11 20.17
-1 4 -2 439.5 17.17
-1 4 -2 441.7 17.1
1 -4 2 495.85 20.97
1 -4 2 525.47 24.27
-1 4 -3 210.39 13.71
1 -4 3 222.59 14.66
-1 4 -3 189.43 12.6
-1 4 -3 170.07 10.09
-1 4 -3 186.79 12.47
1 -4 3 184.05 13.02
1 -4 3 174.02 11.16
1 -4 4 338.36 17.77
1 -4 4 406.16 20.15
1 -4 4 405.81 20.28
-1 4 -4 353.83 15.89
-1 4 -4 319.96 17.89
-1 4 -4 363.5 18.57
-1 4 -5 1098.32 27.76
-1 4 -5 1111.17 33.39
-1 4 -5 1151.7 33.88
-1 4 -5 1147.72 32.02
-1 4 -6 19.1 4.2
-1 4 -6 14.72 2.8
-1 4 -6 17.52 3.68
-1 4 -6 14.25 3.48
-1 4 -6 23.39 3.87
1 -4 7 419.85 14.75
-1 4 -7 445.24 14.92
-1 4 -7 426.93 14.4
-1 4 -7 445.08 15.08
-1 4 -8 38.68 2.75
1 -4 8 39.68 2.58
1 -3 -6 420.55 12.72
1 -3 -6 454.03 12.86
1 -3 -5 278.95 13.56
1 -3 -4 1233.62 33.75
1 -3 -4 1310.07 33.64
-1 3 4 1330.43 39.86
1 -3 -4 1328.51 33.13
1 -3 -3 2001.95 44.86
-1 3 3 2112.71 51.37
1 -3 -3 2118.59 46
1 -3 -3 2146.76 51.35
1 -3 -3 1981.7 42.92
1 -3 -3 2138.45 43.33
1 -3 -2 250.35 13.99
1 -3 -2 280.06 15.26
1 -3 -2 243.97 13.38
-1 3 1 677.35 20.64
-1 3 1 703.14 23.24
1 -3 0 4285.49 62.91
-1 3 0 4366.05 60.45
1 -3 1 816.07 15.9
-1 3 -1 845.73 21.67
-1 3 -2 714.16 19.48
1 -3 2 769 27.99
1 -3 2 741.48 22.87
-1 3 -3 1052.52 24.06
-1 3 -3 1107.66 32.13
-1 3 -3 1123.08 28.87
-1 3 -4 2432.35 47.86
-1 3 -4 2388.76 43.5
-1 3 -4 2430.68 48.3
-1 3 -5 153.17 10.35
-1 3 -5 132.84 11.89
1 -3 5 143.76 12.41
-1 3 -5 113.39 10.11
-1 3 -5 108.5 10.18
-1 3 -6 450.05 17.64
-1 3 -6 426.05 19.46
-1 3 -6 447.84 17.66
-1 3 -6 409.53 14.96
-1 3 -6 447.94 18.34
-1 3 -6 428.8 18.75
-1 3 -7 36.57 4.32
-1 3 -7 39.04 5.13
-1 3 -7 39 4.33
-1 3 -7 42.25 4.64
-1 3 -7 38.33 4.83
-1 3 -8 1032.07 20.33
1 -2 -7 838.45 18.77
1 -2 -7 865.84 20.19
1 -2 -6 195.69 9.97
1 -2 -6 211.89 11.22
-1 2 5 259.7 14.43
1 -2 -5 282.12 14.13
1 -2 -5 266.52 14.9
1 -2 -5 288.84 13.86
1 -2 -5 292.18 15.87
1 -2 -4 321.49 16.55
1 -2 -4 290.39 13.59
1 -2 -3 5038.37 78.12
-1 2 3 4926.89 71.78
1 -2 -1 1721.59 30.97
1 -2 -1 1756.4 26.26
1 -2 0 537.2 14.95
-1 2 0 535.96 13.25
1 -2 0 536.67 12.89
1 -2 1 2364.54 38.84
-1 2 -1 2623.92 36.36
1 -2 2 1236.95 26.18
-1 2 -2 1187.92 21.85
1 -2 3 1416.95 38.01
-1 2 -4 663.36 22.68
1 -2 4 599.91 21.25
1 -2 4 634.26 25.38
-1 2 -5 2663.24 48.9
-1 2 -5 2486.32 47.97
1 -2 5 2539.57 55.28
-1 2 -5 2602.91 49.57
-1 2 -5 2578.92 48.36
-1 2 -5 2835.08 53.76
-1 2 -5 2412.17 46.66
-1 2 -5 2314.92 48.17
1 -2 5 2644.45 53.44
-1 2 -5 2609.57 50.95
-1 2 -5 2614.25 52.08
-1 2 -6 150.6 10.3
-1 2 -6 122.43 10
-1 2 -6 133.44 11.21
-1 2 -6 121.2 10.02
-1 2 -6 135.61 10.41
-1 2 -7 144.22 9.36
-1 2 -7 130.63 8.37
-1 2 -7 149.85 8.98
-1 2 -8 24.44 2.65
-1 2 -8 29.82 3.29
1 -1 -8 116.15 5.19
1 -1 -8 223.8 8.68
1 -1 -7 1030.99 24.73
1 -1 -7 1080.88 25.2
1 -1 -6 447.88 17.56
1 -1 -6 442.09 19.23
1 -1 -6 448.15 17.45
1 -1 -6 429.82 16.76
1 -1 -6 438.29 16.35
-1 1 6 467.86 19.62
1 -1 -6 475.56 19.55
-1 1 5 710.15 23.43
1 -1 -5 673.78 23.01
1 -1 -5 740.79 24.67
1 -1 -5 697.1 20.96
1 -1 -5 710.39 23.9
1 -1 -5 733.02 23.46
1 -1 -5 663.42 21.35
-1 1 4 798.4 22.69
1 -1 -3 807.16 22.27
1 -1 -3 865.36 22.82
-1 1 2 8015.52 89.89
1 -1 -2 7871.04 88.14
1 -1 -2 8066.95 88.48
1 -1 -1 2386.45 30.18
1 -1 -1 2294.36 33.32
-1 1 0 1454.13 21.54
-1 1 0 1459.75 18.81
1 -1 0 1482.61 21.78
-1 1 -1 2482.71 29.38
-1 1 -1 2317.35 31.91
-1 1 -2 9468.66 111.25
1 -1 2 9793.94 110.58
1 -1 3 635.5 22.38
-1 1 -3 635.78 18.77
1 -1 4 854.95 27.35
-1 1 -4 867.41 24.77
-1 1 -5 1368.51 33.01
-1 1 -5 1620.09 38.43
-1 1 -5 1510.96 37.44
-1 1 -5 1397.14 36.87
1 -1 5 1551.48 40.17
-1 1 -5 1590.76 37.76
-1 1 -5 1362.43 37.03
-1 1 -5 1795.05 40.24
-1 1 -6 437.46 18.47
-1 1 -6 472.78 19.27
-1 1 -6 452.3 18.87
-1 1 -6 454.49 18.23
-1 1 -6 446.34 20.28
1 -1 6 455.83 19.82
-1 1 -7 820.35 22.53
-1 1 -7 808.01 22.54
-1 1 -7 742.7 21.5
-1 1 -7 800.2 23
-1 1 -7 755.2 22.4
-1 1 -8 325.4 9.56
-1 1 -8 328.81 9.01
-1 1 -8 304.86 9.29
-1 1 -8 334.59 10.56
1 0 -8 46.31 5.28
1 0 -8 23.02 3.65
1 0 -8 41.57 4.16
1 0 -8 28.34 3.72
1 0 -7 2118.13 43.53
1 0 -7 2003.77 40.31
1 0 -7 2062.26 41.32
1 0 -7 2121.19 41.62
1 0 -6 310.08 16.26
-1 0 6 187.34 12.71
1 0 -6 173.99 11.45
1 0 -6 298.61 14.52
1 0 -6 302.66 13.76
1 0 -6 307.56 15.48
1 0 -6 213.74 13.41
1 0 -5 586.01 19.55
1 0 -5 568.98 17.73
1 0 -5 554.17 19.24
1 0 -5 578.47 18.83
1 0 -4 585.22 18.62
-1 0 4 342.17 14.06
1 0 -3 1116.7 19.36
1 0 -3 1235.39 22.61
-1 0 2 1737.76 26.07
1 0 -2 1771.04 26.04
1 0 -2 1612.14 24.75
1 0 -2 1628.95 24.88
1 0 -2 1800.54 25.27
1 0 -1 1229.86 17.64
1 0 -1 1232.49 17.52
1 0 0 857.61 9.98
1 0 0 922.48 12.03
-1 0 -1 6639.47 70.65
-1 0 -1 6817.34 75.93
-1 0 -2 45.43 5.27
1 0 3 3285.65 51.88
-1 0 -3 3179.93 50.66
-1 0 -4 64.5 7.16
-1 0 -4 86.02 8.38
-1 0 -4 68.18 8.49
1 0 5 1355.08 38.34
-1 0 -5 1561.33 36.65
-1 0 -5 1526.43 35.01
-1 0 -5 1496.18 35.53
-1 0 -5 1535.42 36.92
-1 0 -5 1711.82 41.1
-1 0 -5 1538.82 38.98
1 0 5 1620.92 36.75
-1 0 -6 480.85 19.6
-1 0 -6 449.92 18.08
-1 0 -7 183.78 9.93
-1 0 -7 182.81 8.69
-1 0 -7 175.14 9.48
-1 0 -8 183.1 5.72
-1 -1 9 47.77 3.76
1 1 -9 44.09 3.54
1 1 -9 49.94 4.08
1 1 -8 209.29 11.58
1 1 -8 169.57 9.65
1 1 -7 70.01 7.04
1 1 -7 100.39 9.36
1 1 -7 100.14 8.78
1 1 -7 65.7 6.78
1 1 -6 5922.88 84.38
1 1 -6 5985.19 80.95
1 1 -5 196.74 10.27
-1 -1 5 216.47 12.36
1 1 -5 202.67 10.53
1 1 -5 195.85 9.86
1 1 -4 59.28 5.08
-1 -1 4 65.53 5.9
1 1 -4 58.84 5.59
-1 -1 3 199.1 11.78
-1 -1 3 143.01 6.51
1 1 -2 7955.61 91.55
1 1 -2 8212.59 90.13
-1 -1 2 8001.7 89.19
1 1 -2 8362.62 90.03
-1 -1 2 8299.35 87.71
-1 -1 1 241.27 6.83
1 1 -1 259.12 6.51
1 1 -1 281.85 7.78
-1 -1 1 221 6.98
1 1 -1 211.94 5.69
-1 -1 1 236.97 5.27
1 1 0 9.95 0.56
1 1 0 9.84 0.8
-1 -1 -1 549.83 13.8
-1 -1 -1 495.04 14.58
-1 -1 -2 2915.66 47.39
1 1 2 2865.68 40.33
-1 -1 -3 244.33 13.5
-1 -1 -4 577.53 20.33
-1 -1 -4 542 18.19
-1 -1 -4 545.58 22.5
-1 -1 -4 562.58 20.01
-1 -1 -4 544.01 20.8
-1 -1 -4 616.98 21.27
-1 -1 -4 526.38 21.4
-1 -1 -5 78.48 7.3
-1 -1 -5 57.3 6.79
-1 -1 -5 55.75 6.34
-1 -1 -5 78.99 9.11
-1 -1 -6 3214.6 53.85
-1 -1 -6 2825.25 43.94
-1 -1 -6 3439.36 53.72
-1 -1 -6 2813.34 43.06
-1 -1 -6 2974.72 47.21
-1 -1 -7 41.12 3.84
-1 -1 -7 52.85 4.31
1 2 -9 143.41 6.5
1 2 -9 169.79 7.68
1 2 -9 167.12 7.53
-1 -2 9 148.54 6.04
1 2 -8 254.03 10.74
1 2 -8 279.98 13.22
1 2 -8 254.82 12.7
-1 -2 8 249.72 11.49
-1 -2 8 243.8 11.57
-1 -2 7 887.86 29.98
1 2 -7 970.69 28.23
1 2 -7 968.11 26.12
1 2 -6 1175.05 31.53
1 2 -6 1197.34 30.1
-1 -2 6 1186 32
1 2 -6 1218.44 31.29
1 2 -6 1205.33 32.63
-1 -2 6 1157.52 34.26
1 2 -6 1119.9 31.39
-1 -2 6 1261.23 32.71
1 2 -6 1167.79 32.1
1 2 -6 1064.95 27.26
-1 -2 5 1153.96 28.63
1 2 -5 1084.84 23.77
1 2 -5 1165.46 27.51
1 2 -5 1134.69 30.23
1 2 -5 1226.75 29.78
1 2 -5 1213.9 31.18
-1 -2 5 1257.01 34.18
1 2 -5 1148.86 27.88
1 2 -5 1262.41 30.91
-1 -2 4 118.98 10.11
1 2 -4 127.37 8.18
1 2 -4 118.89 7.83
-1 -2 3 3842.87 61.16
-1 -2 3 3586.06 51.28
-1 -2 3 3968.42 52.87
1 2 -3 4056.55 54.1
1 2 -3 3646.64 50.03
-1 -2 2 380.54 11.67
1 2 -2 388.16 13.18
1 2 -2 356.17 11.65
-1 -2 1 4976.27 56.95
1 2 -1 4449.65 61.91
1 2 0 136.3 8.57
-1 -2 -2 678.04 22.67
-1 -2 -3 1034.35 28.42
-1 -2 -3 1112.85 32.15
-1 -2 -3 1093.73 27.61
-1 -2 -3 1160.69 30.72
-1 -2 -3 1153.17 29.99
-1 -2 -3 1128.07 32.4
-1 -2 -4 270.55 14.16
-1 -2 -4 302.52 15.77
-1 -2 -4 292.77 15.3
-1 -2 -4 328.55 16.1
-1 -2 -4 315.19 15.22
-1 -2 -5 340.89 15.88
-1 -2 -5 314.72 14
-1 -2 -5 327.38 14.37
-1 -2 -5 302.96 12.14
-1 -2 -5 307.34 14.25
-1 -2 -6 394.12 10.35
-1 -2 -6 371.42 10.43
1 3 -9 33.12 3.03
-1 -3 9 36.18 2.97
-1 -3 8 29.93 4.39
1 3 -8 25.17 3.95
1 3 -8 24.79 3.33
1 3 -8 24.13 3.87
1 3 -8 29.59 4.5
-1 -3 8 24.06 3.98
-1 -3 7 241.14 15.35
-1 -3 7 242.37 14.26
1 3 -7 238.39 12.56
1 3 -7 263.66 14.88
1 3 -7 257.66 13.67
1 3 -7 246.76 14.13
1 3 -6 1939.96 41.6
-1 -3 6 1994.31 46.84
1 3 -6 2080.96 44.97
1 3 -6 2087.24 46.88
-1 -3 6 1820.98 46.71
1 3 -6 1940.87 45.01
1 3 -6 1949.7 40.65
1 3 -6 2137.85 46.04
-1 -3 6 1811.89 39.87
-1 -3 5 926.18 29.71
-1 -3 5 949.79 31.85
-1 -3 5 860.28 30.44
1 3 -5 1012.77 28.37
1 3 -5 894.31 28.56
1 3 -5 935.11 26.44
1 3 -5 994.52 29.66
-1 -3 4 510.39 21.33
-1 -3 4 510.09 20.01
-1 -3 4 533.51 23.41
1 3 -4 567.82 19.4
1 3 -4 574.52 19.73
1 3 -4 580.93 20.74
-1 -3 4 540.18 18.06
-1 -3 4 550.24 23.42
1 3 -4 525.12 16.02
-1 -3 3 279.72 12.46
-1 -3 3 236.06 11.79
1 3 -3 287.94 13.26
1 3 -3 255.88 11.99
-1 -3 2 3543.07 49.88
1 3 -2 3712.34 56.68
-1 -3 1 1102.35 26.66
1 3 -1 904.87 24.52
1 3 0 369.44 15.94
1 3 0 346.24 15.53
-1 -3 -1 460.24 19.38
-1 -3 -1 517.28 22.51
-1 -3 -1 497.28 20.6
1 3 1 531.72 21.12
-1 -3 -1 457.86 18.72
1 3 1 476.59 20.03
-1 -3 -1 497.18 19.28
-1 -3 -2 3765.07 69.29
1 3 2 3821.75 70.33
-1 -3 -2 3689.56 70.02
-1 -3 -2 3980.06 69.04
-1 -3 -2 3983.29 67.8
-1 -3 -3 216.34 14.35
-1 -3 -3 249.13 15.03
-1 -3 -4 54.88 6.35
-1 -3 -4 65.67 6.43
-1 -3 -4 44.56 6.38
-1 -3 -5 100.45 6.14
-1 -3 -5 181.76 8.07
1 4 -9 343.99 7.69
-1 -4 9 327.93 7.65
1 4 -8 88.82 5.18
1 4 -8 101.77 6.9
-1 -4 8 101.16 6.91
-1 -4 8 101.27 7.34
-1 -4 8 95.56 6.7
1 4 -7 126.17 9.2
-1 -4 7 112.6 9.43
1 4 -7 120.34 9.06
-1 -4 7 120.28 10.02
1 4 -7 120.06 8.3
1 4 -6 45.87 6.19
-1 -4 6 37.83 5.9
-1 -4 6 47.32 6.86
1 4 -6 39.41 5.44
-1 -4 6 46.35 5.92
1 4 -6 46.83 6.17
1 4 -6 44.9 6.11
1 4 -6 46.63 6.62
1 4 -6 53.22 6.77
-1 -4 5 2568.57 55.39
1 4 -5 2796.74 53.41
1 4 -5 2579.03 50.98
1 4 -5 2776.93 55.39
-1 -4 5 2433.5 51.81
-1 -4 5 2514.37 56.8
1 4 -5 2627.56 52.11
1 4 -5 2764.7 53.88
-1 -4 4 38.69 7.09
1 4 -4 37.5 4.58
-1 -4 4 41.21 6.72
1 4 -4 37.46 5.82
-1 -4 4 35.02 5.92
1 4 -4 45.43 6.16
-1 -4 4 42.23 5.91
1 4 -4 32.29 5.11
1 4 -4 38.71 5.79
-1 -4 4 36.44 5.17
-1 -4 3 284.34 15.82
-1 -4 3 327.05 16.5
1 4 -3 333.2 16.45
-1 -4 3 316.38 18.33
-1 -4 3 308.57 18
1 4 -3 323.77 16.23
1 4 -3 333.71 16.31
-1 -4 3 307.89 14.62
-1 -4 3 312.5 18.33
-1 -4 3 329.29 15.54
-1 -4 3 325.5 15.72
-1 -4 2 312.05 15.04
-1 -4 2 375.94 17.06
1 4 -2 256.55 14.57
-1 -4 2 297.18 17.19
-1 -4 2 295.6 17.98
-1 -4 2 303.57 17.36
1 4 -2 347.71 17.85
-1 -4 2 324.24 17.64
1 4 -2 251.3 13.98
-1 -4 1 1416.53 35.39
-1 -4 1 1311.12 36.71
-1 -4 1 1320.4 37.09
-1 -4 1 1425.69 34.96
-1 -4 1 1160.71 31.03
1 4 -1 1312.16 35.93
1 4 -1 1233.39 33.52
-1 -4 0 26.16 5.28
-1 -4 0 29.38 5.78
-1 -4 -1 441.03 18.73
1 4 1 397.39 19.95
-1 -4 -2 34.23 5.69
-1 -4 -2 54.13 7.2
-1 -4 -2 52.55 7.24
-1 -4 -3 1232.52 28.46
-1 -4 -3 1258.31 27.88
-1 -4 -3 1189.58 26.38
-1 -4 -4 47.7 3.67
-1 -4 -4 49.76 4.06
1 5 -8 298.07 7.97
-1 -5 8 312.99 9.06
1 5 -8 260.4 7.58
-1 -5 8 268.51 8.63
-1 -5 8 253.16 7.07
-1 -5 7 381.89 12.47
-1 -5 7 393.06 12.68
1 5 -7 407.57 12.42
-1 -5 7 435.76 15.39
1 5 -7 473.17 14.58
-1 -5 7 425.9 13.3
1 5 -7 444.94 13.85
-1 -5 6 267.17 13.59
-1 -5 6 296.04 12.79
-1 -5 6 305.64 14.58
-1 -5 6 271.52 12.52
1 5 -6 300.32 13.49
1 5 -6 297.95 13.43
1 5 -6 307.23 14.1
-1 -5 6 247.53 11.24
-1 -5 5 354.2 16.63
-1 -5 5 339.59 15.67
1 5 -5 393.93 17.2
1 5 -5 383.57 16.55
-1 -5 5 360.52 16.2
-1 -5 5 390.32 18.03
-1 -5 5 357.27 18.28
-1 -5 5 341.7 14.81
-1 -5 4 524.16 18.35
-1 -5 4 600.43 21.48
-1 -5 4 601.72 24.8
-1 -5 4 575.04 22.82
-1 -5 4 594.52 23.48
1 5 -4 642.03 22.42
1 5 -4 645.16 22.45
1 5 -4 597.09 21.87
-1 -5 3 533.92 22.31
-1 -5 3 557.93 23.77
-1 -5 3 489.58 18.36
-1 -5 2 908.04 29.74
1 5 -2 950.78 28.75
-1 -5 2 1053.79 29.43
-1 -5 2 1056.02 30.09
-1 -5 2 1054.16 28.27
-1 -5 1 184.63 10.63
-1 -5 1 181.02 10.08
-1 -5 0 556.58 19.62
-1 -5 0 548.71 17.48
-1 -5 -1 133.97 8.81
-1 -5 -1 141.14 8.61
-1 -6 6 6.03 1.51
-1 -6 6 9.78 1.61
1 6 -6 7.3 1.45
1 6 -5 320.39 10.56
-1 -6 5 309.23 11.81
-1 -6 5 280.52 9.96
-1 -6 5 302.86 10.89
1 6 -5 320.1 10.75
-1 -6 4 38.36 4.46
1 6 -4 40.8 4.12
-1 -6 4 40.97 4.49
-1 -6 3 161.32 8.99
-1 -6 3 155.12 7.65
-1 -6 3 149.78 7.64
1 6 -3 164.69 8.37
-1 -6 3 131.85 8.11
-1 -6 2 94.63 6.85
-1 -6 2 94.52 6.16
-1 -6 2 103.81 5.94
1 6 -2 91.2 5.75
-1 -6 1 640.43 16.18
-1 -6 1 700.46 14.63
2 -6 0 12.61 1.8
-2 6 0 10.31 1.75
-2 6 0 9.05 1.58
2 -6 1 187.11 7.51
-2 6 -1 179.09 7.35
-2 6 -1 165.2 7.45
-2 6 -1 164.45 7.12
2 -6 2 480.03 12.81
2 -6 2 506.86 13.93
2 -6 2 488.18 12.21
-2 6 -2 489.71 13.67
-2 6 -2 512.52 13.96
2 -6 3 25.41 2.76
2 -6 3 21.1 2.65
2 -6 4 163.6 5.89
2 -6 4 204.43 6.45
2 -5 -3 926.31 16.57
-2 5 3 898.53 18.06
2 -5 -2 20.04 3.7
2 -5 -2 26.85 3.55
2 -5 -1 413.42 15.3
-2 5 0 284.68 14.74
2 -5 0 320.85 15.92
2 -5 0 309.96 15.74
2 -5 0 287.36 13.82
-2 5 0 318.49 14.91
-2 5 0 288.8 15.09
-2 5 -1 333.6 15.89
2 -5 1 354.04 17.84
2 -5 1 308.64 15.64
2 -5 1 331.14 16.66
-2 5 -1 334.44 13.93
-2 5 -1 311.71 15.61
-2 5 -2 85.88 8.1
2 -5 2 72.25 8
2 -5 2 57.66 6.35
2 -5 2 77.53 8.25
-2 5 -3 400.17 17.36
-2 5 -3 384.97 16.18
2 -5 3 366.4 16.52
-2 5 -3 449.18 18.2
-2 5 -3 338.82 15.04
-2 5 -3 271.95 10.85
2 -5 3 373.68 17.2
-2 5 -4 53.76 5.89
2 -5 4 38.59 4.4
-2 5 -4 51.87 5.39
2 -5 4 41.51 5.04
-2 5 -5 766.97 19.89
-2 5 -5 634.68 16.23
-2 5 -5 632.42 16.29
2 -5 5 739.82 20.32
-2 5 -6 299.28 9.01
2 -5 6 282.3 9.2
2 -4 -5 22.85 2.33
2 -4 -5 19.97 2.58
-2 4 5 16.67 2.04
2 -4 -4 11.09 3.3
2 -4 -4 10.92 2.79
-2 4 4 9.56 2.58
2 -4 -4 9.89 2.58
2 -4 -3 36.07 4.99
-2 4 3 29.34 4.94
2 -4 -3 38.92 5.38
2 -4 -3 40.91 6.41
2 -4 -3 24.71 4.25
2 -4 -2 2562.45 47.69
-2 4 2 2511.94 51.31
2 -4 -2 2767.76 51.67
2 -4 -2 2574.73 55.88
2 -4 -2 2788.27 55.67
-2 4 2 2359.67 52.73
-2 4 1 179.49 10.82
2 -4 -1 215.52 15.14
2 -4 -1 197.66 14.29
2 -4 -1 169.06 13.11
-2 4 1 190.61 12.69
-2 4 0 32.99 4.85
2 -4 0 38.26 6.13
-2 4 0 39.23 5.87
2 -4 0 41.95 6.92
-2 4 0 30.21 4.98
2 -4 1 73.85 8.59
-2 4 -1 78.19 8.01
2 -4 1 86.78 10.7
-2 4 -2 3155.64 60.41
-2 4 -2 3298.91 59.14
-2 4 -2 3331.52 61.96
-2 4 -2 3258.77 58.21
2 -4 2 3165.4 67.3
2 -4 2 2806.37 56.32
-2 4 -2 2874.25 53.53
-2 4 -2 2953.38 58.11
-2 4 -3 425.34 20.28
-2 4 -3 448.15 20.82
2 -4 3 411.96 20.24
-2 4 -3 467.22 19.45
-2 4 -3 453.03 19.58
-2 4 -4 42.51 6.81
-2 4 -4 45.43 5.94
-2 4 -4 36.46 5.77
-2 4 -5 159.91 9.52
-2 4 -5 161.16 9.92
-2 4 -5 172.69 11.68
-2 4 -6 1447.87 28.17
-2 4 -6 1407.65 26.84
2 -3 -6 7.82 2.14
2 -3 -5 582.35 19.7
2 -3 -5 558.31 19.89
2 -3 -4 761.1 24.74
2 -3 -4 740.7 23.47
2 -3 -4 781.75 25.08
-2 3 4 741.39 21.77
-2 3 4 765.17 28.75
2 -3 -3 449.98 18.65
2 -3 -3 356.76 19.14
2 -3 -3 485.65 21.69
-2 3 3 446.56 17.21
2 -3 -3 388.39 17.7
-2 3 3 424.59 20.34
2 -3 -2 545.08 19.99
2 -3 -2 601.29 23.48
-2 3 2 490.04 17.93
2 -3 -2 574.25 20.29
2 -3 -2 625.4 25.27
2 -3 -2 651.01 25.66
-2 3 2 676.79 24.65
2 -3 -1 1691.25 33.38
-2 3 1 1649.56 35.86
-2 3 1 2031.02 40.53
2 -3 -1 2017.67 47.42
2 -3 -1 1755.53 35.22
2 -3 -1 2028.03 45.91
-2 3 1 1516.48 32.12
-2 3 1 1892.3 40.69
2 -3 0 31.86 4.47
-2 3 0 39.39 5.24
2 -3 0 36.52 6.05
-2 3 0 28.29 4.05
-2 3 0 28.91 3.68
-2 3 0 40.65 5.13
2 -3 0 39.47 3.91
-2 3 -1 1849.9 42.13
2 -3 1 1600.85 38.71
-2 3 -1 1495.35 32.56
2 -3 1 1496.86 29.74
-2 3 -1 1745.57 37.06
2 -3 1 1820.27 35.58
-2 3 -1 1718.8 36.07
-2 3 -2 89.47 9.33
2 -3 2 88.91 8.18
-2 3 -2 89.65 7.81
-2 3 -2 76.89 6.91
-2 3 -2 97.07 8.28
-2 3 -2 92.19 8.31
-2 3 -2 90.91 7.76
-2 3 -3 1157.13 29.64
-2 3 -3 1148.31 30.34
-2 3 -3 1161.05 32.06
-2 3 -3 1073.35 32.13
-2 3 -4 361.75 17.35
2 -3 4 290.1 19.25
-2 3 -4 345.75 17.22
-2 3 -4 383.38 16.37
-2 3 -4 320.32 14.9
-2 3 -5 499.47 18.99
-2 3 -5 566.82 22.73
-2 3 -5 522.01 20.63
-2 3 -5 512.85 21.01
-2 3 -5 517.47 19
-2 3 -6 27.99 4.27
-2 3 -6 38.64 4.98
-2 3 -6 25.69 3.74
-2 3 -7 1397.19 24.27
-2 3 -7 1166.53 22.56
2 -2 -7 85.66 5.61
2 -2 -7 84.55 5.62
2 -2 -6 1754.02 37.19
-2 2 6 1704.77 34.59
2 -2 -5 347.69 17.9
2 -2 -5 369.53 18.11
2 -2 -5 378.85 17.73
-2 2 5 367.87 15.79
2 -2 -4 8.53 3.6
2 -2 -4 7.91 3.34
2 -2 -4 8.6 2.98
2 -2 -3 1473.11 34.66
2 -2 -3 1521.94 35.89
2 -2 -3 1325.43 32.01
-2 2 3 1434.78 30.94
2 -2 -3 1422.64 32.2
2 -2 -3 1334.44 30.51
2 -2 -2 3644.04 53.44
2 -2 -2 3695.39 51.3
2 -2 -1 45.24 4.18
-2 2 1 33.41 3.1
-2 2 1 38.58 4.21
2 -2 -1 39 4.25
2 -2 0 2261.49 35.97
2 -2 0 2403.04 35.74
-2 2 0 2083.74 30.76
-2 2 0 2095.74 30.1
-2 2 0 2409.14 36.66
-2 2 -1 9.97 2.12
-2 2 -1 14.61 2.88
2 -2 1 14.08 2.79
-2 2 -2 4415.3 66.48
-2 2 -3 1226.13 31.99
-2 2 -3 1348.73 35.31
2 -2 3 1141.04 30.83
-2 2 -3 1214.32 31.34
-2 2 -3 1324.92 32.67
-2 2 -4 45 6.38
2 -2 4 58.21 7.32
-2 2 -4 40.89 5.64
-2 2 -4 41.59 6.17
-2 2 -4 44.63 6.74
-2 2 -4 48.08 6.44
-2 2 -4 47.33 5.54
-2 2 -5 580.6 21.77
-2 2 -5 546.68 22.23
-2 2 -5 594.24 22
-2 2 -5 603.73 22.61
-2 2 -5 645.16 22.52
2 -2 5 595.88 25.84
-2 2 -5 606.05 22.15
-2 2 -6 1749.14 33.31
-2 2 -6 1736.65 36.83
-2 2 -6 1893.27 38.64
-2 2 -6 1680.76 35.51
-2 2 -6 1536.83 29.98
-2 2 -6 1685.77 35.89
-2 2 -6 1743.84 37.82
-2 2 -7 104.84 6.48
-2 2 -7 116.84 6.9
-2 2 -7 99.84 5.49
-2 2 -7 103.29 6.12
-2 1 8 162.48 6.65
2 -1 -8 183.85 7.61
2 -1 -7 449.42 17.58
2 -1 -7 453.74 15.79
2 -1 -7 441.85 16.01
2 -1 -7 448.41 16.91
2 -1 -6 458.41 20.18
2 -1 -6 473.97 20.27
-2 1 6 438.62 17.96
2 -1 -5 1828 43.83
2 -1 -5 1729.18 40.34
2 -1 -5 1912.86 43.02
-2 1 5 1792.65 36
2 -1 -5 1954.14 43.08
2 -1 -5 1855.4 39.68
2 -1 -4 81.07 7.35
2 -1 -4 94.64 7.92
2 -1 -4 80.62 7.21
2 -1 -4 85.11 7.3
2 -1 -4 80.21 6.97
2 -1 -4 104.23 9.03
2 -1 -3 457.15 15.17
2 -1 -3 428.72 15.71
2 -1 -3 479.21 15.47
-2 1 3 480.41 16.29
2 -1 -2 807.99 19.87
2 -1 -2 822.4 18.1
2 -1 -1 1917.18 30.03
-2 1 1 1956.95 27.65
2 -1 -1 1857.63 31.09
2 -1 0 34.29 3.02
-2 1 0 38.03 2.86
2 -1 0 33.05 2.73
2 -1 0 37.17 3.86
-2 1 0 31.88 2.42
2 -1 1 1673.96 30.09
-2 1 -1 1847.5 33.13
2 -1 2 35.1 4.13
-2 1 -2 59.87 5.84
-2 1 -3 5268.94 76.09
2 -1 3 5316.69 78.9
-2 1 -4 7.2 4
-2 1 -4 6.64 2.74
-2 1 -4 0.26 2.43
-2 1 -4 0.41 1.9
2 -1 4 5.43 2.96
-2 1 -4 10.07 3.94
-2 1 -4 0.67 1.96
-2 1 -4 2.35 2.35
-2 1 -4 0.71 1.59
2 -1 4 0.94 1.63
-2 1 -5 57.21 7.01
-2 1 -5 51.17 5.98
-2 1 -5 57.72 7.62
-2 1 -5 62.28 7
-2 1 -5 45.62 6.95
-2 1 -5 47.22 5.76
-2 1 -5 53.69 6.86
-2 1 -6 22.68 4.16
-2 1 -6 18.68 3.9
-2 1 -6 13.74 2.88
-2 1 -6 11.88 3.43
-2 1 -6 13.64 2.97
-2 1 -7 717.96 17.72
-2 0 9 62.36 3.11
-2 0 9 81.53 3.62
2 0 -8 585.55 19.08
-2 0 8 612.14 18.39
2 0 -7 530.57 20.46
2 0 -7 499.14 17.6
2 0 -7 516.23 19.6
-2 0 7 510.25 17.68
2 0 -7 514.39 20.03
2 0 -6 1014.42 28.32
2 0 -6 974.74 27.67
2 0 -6 1037.2 29.53
-2 0 6 976.59 26.67
2 0 -6 1042.66 27.76
-2 0 6 980.56 26.26
2 0 -5 798.45 23.64
2 0 -5 717.06 23.02
2 0 -5 877.46 25
-2 0 5 837.45 23.39
2 0 -5 770.74 23.06
2 0 -5 799 23.63
2 0 -5 816.28 22.99
2 0 -5 809.27 23.43
2 0 -5 844.35 24.48
2 0 -4 6354.75 85.4
-2 0 4 6575.51 86.81
2 0 -3 867.16 20.29
2 0 -3 789.09 19.56
2 0 -3 804.01 19.23
-2 0 3 873.9 19.58
2 0 -3 835.72 20.23
2 0 -2 320.28 10.25
2 0 -2 332.29 10.91
2 0 -2 334.09 10.33
2 0 -2 346.57 10.84
2 0 -1 1904.49 29.37
2 0 -1 1977.7 28.83
2 0 -1 1885.23 27.97
2 0 -1 1897.75 29.2
-2 0 0 128.54 5.97
2 0 0 108.59 4.19
-2 0 0 101.64 5.76
2 0 0 114.29 4.9
2 0 0 110.14 5.8
2 0 0 124.8 5.92
2 0 2 3486.19 54.29
-2 0 -2 2977.6 54.14
-2 0 -3 748.45 22.23
-2 0 -3 942.19 32.24
-2 0 -3 820.94 23.36
-2 0 -3 842.11 28.27
-2 0 -3 820.95 23.62
-2 0 -3 880.17 25.95
-2 0 -3 771.66 26.07
-2 0 -3 792.55 23.29
2 0 3 849.75 26.18
-2 0 -3 853.89 28.75
-2 0 -4 1976.25 47.96
-2 0 -4 1954.43 41.19
-2 0 -4 1833.64 37.92
-2 0 -4 2087.06 49.02
-2 0 -4 1954.98 41.09
-2 0 -4 1710.66 40.13
-2 0 -5 266.9 16.92
-2 0 -5 332.18 15.82
-2 0 -5 329.57 17.64
-2 0 -5 325.48 15.41
-2 0 -5 321.28 15.18
-2 0 -5 312.11 15.93
-2 0 -6 499.17 17.82
-2 0 -6 503.7 16.41
-2 0 -7 113.63 5.73
-2 0 -7 122.74 5.28
2 1 -9 519.53 13.97
2 1 -9 536.92 12.31
2 1 -8 69.13 6.58
2 1 -8 70.82 6.7
2 1 -8 67.07 6.5
-2 -1 8 68.07 6.05
-2 -1 8 71.99 6.27
2 1 -7 15.93 3.99
-2 -1 7 30.27 5.21
2 1 -7 17.55 3.72
2 1 -7 14.9 4.19
2 1 -7 21.37 4.82
2 1 -7 21.7 4.55
-2 -1 7 13.55 3.97
-2 -1 7 20.72 4.03
2 1 -6 249.07 13.25
2 1 -6 234.55 12.87
2 1 -6 255.05 13.06
2 1 -6 230.68 13.31
2 1 -6 218.49 12.38
2 1 -6 226.71 12.96
-2 -1 6 276.23 14.83
-2 -1 6 251.04 13.76
2 1 -6 252.77 13.09
-2 -1 6 195.53 13.4
-2 -1 5 3340.05 64.36
-2 -1 5 3568.35 59.89
2 1 -5 3508.59 57.11
2 1 -5 3377.94 56.21
2 1 -5 3335.58 56.39
2 1 -5 3191.84 54.81
2 1 -5 3715.06 56.87
-2 -1 4 239.92 13.33
-2 -1 4 210.88 9.35
-2 -1 4 226.58 10.45
2 1 -4 248.46 12.59
2 1 -3 3725.57 52.59
-2 -1 3 3528.48 50.63
2 1 -3 3662.53 52.93
2 1 -3 3715.12 51.27
-2 -1 3 3710.97 46.92
2 1 -3 3557.35 52.2
-2 -1 3 3788.38 56.54
2 1 -2 58.6 4.15
2 1 -2 50.56 4.25
-2 -1 2 55.49 4.55
2 1 -2 51.12 4.36
2 1 -2 55.29 4.2
2 1 -1 3529.69 43.24
2 1 -1 3891.63 48.62
2 1 -1 3461.57 44.81
-2 -1 1 3806.23 48.78
-2 -1 0 163.4 7.93
2 1 0 146.42 6.31
-2 -1 -3 735.64 22.93
-2 -1 -3 720.1 23.05
-2 -1 -3 820.89 26.01
-2 -1 -3 898.32 30.68
-2 -1 -3 743.21 21.86
-2 -1 -3 791.24 25.44
-2 -1 -3 921.99 29.11
-2 -1 -3 779.98 26.08
-2 -1 -3 804.93 25.31
-2 -1 -3 723.93 23.03
-2 -1 -3 834.86 29.46
-2 -1 -4 591.26 20.25
-2 -1 -4 528.48 19.16
-2 -1 -4 609.96 22.14
-2 -1 -4 579.11 21.22
-2 -1 -4 601.91 22.1
-2 -1 -4 538.69 20.82
-2 -1 -4 557.05 23.31
-2 -1 -5 548.88 15.53
-2 -1 -5 608.23 19.07
-2 -1 -5 559.36 17.83
-2 -1 -5 564.22 20.75
-2 -1 -5 590.51 20.26
-2 -1 -6 324.6 11.92
-2 -1 -6 302.76 9.96
2 2 -9 52.43 4.05
-2 -2 9 53.17 4.05
2 2 -9 56.71 4.03
2 2 -9 66.1 5
-2 -2 9 64.61 4.64
2 2 -8 2059.77 39.36
-2 -2 8 2125.68 41.02
2 2 -8 2159.1 40.78
2 2 -8 2165.6 43.21
2 2 -8 2186.46 42.11
-2 -2 8 2166.5 41.55
2 2 -7 293.15 14.55
2 2 -7 316.39 14.04
2 2 -7 329.84 16.49
2 2 -7 316.96 15.82
-2 -2 7 318.72 16.35
-2 -2 7 283.35 14.7
-2 -2 7 315.05 16.18
2 2 -6 9.36 3.29
2 2 -6 11.98 3.35
-2 -2 6 11.96 3.86
-2 -2 6 12.69 3.66
2 2 -6 12.71 3.4
2 2 -6 16.13 3.66
2 2 -6 10.49 2.8
-2 -2 6 10.59 3.09
-2 -2 6 13.48 3.98
-2 -2 6 10.59 3.5
-2 -2 5 185.45 15.56
2 2 -5 172.98 10.81
-2 -2 5 191.27 13.53
2 2 -5 164.59 10.53
2 2 -5 166.84 9.67
-2 -2 5 195.27 15.02
-2 -2 5 190.98 11.17
-2 -2 4 2058.61 37.56
2 2 -4 2156.87 40.68
2 2 -4 2058.67 37.9
2 2 -4 2234.1 38.92
-2 -2 4 2161.78 33.4
-2 -2 3 12.2 2.68
2 2 -3 13.55 2.93
2 2 -3 18.03 2.93
2 2 -3 15.88 2.95
2 2 -3 12.05 2.95
-2 -2 3 13.06 3.04
-2 -2 2 1533.88 25.58
-2 -2 2 1871.58 34.34
-2 -2 1 288.13 12.94
2 2 -1 258.01 11.21
-2 -2 0 4461.9 60.94
2 2 0 4694.62 65.7
-2 -2 -1 600.99 21.67
-2 -2 -1 546.77 21.61
-2 -2 -1 583.61 24.96
-2 -2 -2 1.1 1.74
-2 -2 -2 1.94 2.55
-2 -2 -2 1.95 2.24
-2 -2 -2 1.35 2.61
-2 -2 -2 2.63 1.93
-2 -2 -3 37.35 5.32
-2 -2 -3 46.3 6.19
-2 -2 -3 42.84 6.14
-2 -2 -3 51.52 7.12
-2 -2 -3 42.47 5.59
-2 -2 -3 41.26 6.17
-2 -2 -3 46.64 6.96
-2 -2 -4 1474.09 35.37
-2 -2 -4 1631.36 34.93
-2 -2 -4 1487.82 30.73
-2 -2 -4 1603.37 36.59
-2 -2 -5 56.97 4.1
-2 -2 -5 59.5 4.79
-2 -2 -5 62.26 5.65
2 3 -9 875.34 16.5
2 3 -9 903.44 18.66
-2 -3 9 883.07 17.99
-2 -3 8 85.91 6.99
2 3 -8 104.89 7.52
2 3 -8 103.77 7.94
-2 -3 8 97.9 8.03
-2 -3 8 99.53 8.02
-2 -3 7 915.77 29.46
2 3 -7 1038.36 29.41
2 3 -7 956.21 28.01
2 3 -7 932.77 26.73
-2 -3 7 963.03 31.44
-2 -3 7 965.87 29.7
2 3 -6 224.93 14.32
-2 -3 6 180.04 14.8
-2 -3 6 227.8 15.71
2 3 -6 231.68 13.7
2 3 -6 231.4 13.78
2 3 -6 228.04 13.74
-2 -3 6 229.01 16.31
-2 -3 5 397.42 21.16
-2 -3 5 452.47 21.34
-2 -3 5 506.2 25.03
2 3 -5 443.1 19.46
2 3 -5 450.77 18.89
-2 -3 5 433.63 18.95
2 3 -5 498.49 19.62
2 3 -5 465.78 19.49
-2 -3 5 507.17 24.48
-2 -3 4 5.96 3.6
-2 -3 4 7.82 3.03
-2 -3 4 2.72 2.39
2 3 -4 4.58 2.1
-2 -3 4 3.64 2.29
2 3 -4 4.56 2.36
2 3 -4 8.14 2.67
2 3 -4 3.04 1.86
-2 -3 4 9.49 3.1
-2 -3 3 1100.2 33.88
-2 -3 3 1082.64 30.81
-2 -3 3 1023.89 34.17
-2 -3 3 1085.67 29.81
-2 -3 3 1145.84 36.24
2 3 -3 1056.95 27.87
-2 -3 3 1154.24 31.23
-2 -3 2 21.77 3.28
-2 -3 2 35.62 6.45
-2 -3 2 33.89 5.49
2 3 -2 38.51 5.47
-2 -3 1 1303.48 33.6
-2 -3 1 1283.69 31.07
-2 -3 1 1332.7 35.56
-2 -3 1 1241.67 30.74
-2 -3 0 1217.45 32.89
-2 -3 0 1305.67 33.51
-2 -3 0 1181.26 31.44
-2 -3 0 1308.65 32.86
-2 -3 0 1217.9 34.75
-2 -3 0 1278.22 33
-2 -3 -1 1394.77 39.35
-2 -3 -1 1532.79 40.38
-2 -3 -1 1322.45 37.58
-2 -3 -1 1466.13 40.8
-2 -3 -1 1335.42 36.06
-2 -3 -1 1575 38.35
-2 -3 -2 425.79 19.5
-2 -3 -2 474.73 20.97
-2 -3 -2 546.25 21.83
-2 -3 -2 483.25 21.72
-2 -3 -2 517.98 19.71
-2 -3 -2 464.48 21.64
-2 -3 -3 407.49 14.98
-2 -3 -3 523.75 19.04
-2 -3 -3 496.67 19.4
-2 -3 -3 514.26 19.22
-2 -3 -3 427.73 18.31
-2 -3 -4 4.17 1.65
-2 -3 -4 7.87 2.18
-2 -4 9 10.79 1.48
-2 -4 9 13.94 1.72
2 4 -9 13.17 1.48
-2 -4 9 11.28 1.54
2 4 -8 1147.97 23.8
-2 -4 8 1126.7 25.86
2 4 -8 1227.89 25.56
2 4 -8 1084.93 23.49
-2 -4 8 1171.83 27.06
-2 -4 7 554.2 21.65
2 4 -7 569.5 19.71
-2 -4 7 554.56 22.25
-2 -4 7 526.04 19.55
2 4 -7 537.67 18.89
-2 -4 6 152.46 11.64
2 4 -6 187.24 12.04
-2 -4 6 179.82 13.85
2 4 -6 156.93 11.18
-2 -4 6 152.24 10.79
2 4 -6 213.16 12.75
-2 -4 6 163.68 13.44
-2 -4 6 178.47 12.33
-2 -4 5 331.89 19.39
-2 -4 5 327.81 17
-2 -4 5 328.95 17.68
2 4 -5 381.47 17.49
2 4 -5 346.28 17.6
2 4 -5 336.57 16.37
-2 -4 5 376.64 20.01
2 4 -5 323.41 14.29
-2 -4 5 341.21 16.32
-2 -4 4 2868.5 53.19
-2 -4 4 2906.69 63.68
-2 -4 4 2587.56 58.21
-2 -4 4 2875.08 58.67
-2 -4 4 2612.43 59.94
2 4 -4 2876.82 54.14
2 4 -4 2856.15 58.47
2 4 -4 2664.48 52.57
-2 -4 4 2741.39 56.2
2 4 -4 2720.01 50.81
-2 -4 3 55.59 8.74
-2 -4 3 69.95 8.83
-2 -4 3 64.57 7.29
-2 -4 3 61.99 7.01
2 4 -3 51.38 6.56
2 4 -3 69.22 7.37
-2 -4 3 68.7 7.43
-2 -4 2 6.8 3.11
-2 -4 2 6 3.03
-2 -4 2 9.84 3.41
-2 -4 1 9.24 2.9
-2 -4 1 6.74 2.94
-2 -4 1 6.14 3.06
2 4 -1 10.71 3.56
-2 -4 0 2266.5 53.04
-2 -4 0 2303.72 45.76
-2 -4 0 2080.51 43.28
-2 -4 0 1982.54 46.32
-2 -4 0 2287.58 47.77
-2 -4 -1 227.76 12.79
-2 -4 -1 203.55 12.34
-2 -4 -1 188.65 12.46
-2 -4 -2 95.78 6.99
-2 -4 -2 110 7.62
-2 -4 -2 87.91 6.75
-2 -4 -2 106.07 7.69
-2 -4 -3 15.99 2.21
-2 -4 -3 13.61 2.15
2 5 -8 69.97 3.35
2 5 -8 76.04 3.81
-2 -5 8 72.46 4.22
2 5 -7 839.71 19.05
-2 -5 7 704.5 17.42
-2 -5 7 769.54 15.92
-2 -5 7 785.86 19.47
-2 -5 7 839.12 21.61
2 5 -7 905.58 19.89
-2 -5 7 678.79 16.37
-2 -5 7 805.24 20.91
2 5 -6 -0.15 1.46
-2 -5 6 1.93 1.73
-2 -5 6 0.37 1.65
-2 -5 6 0.62 1.44
2 5 -6 2.31 1.61
-2 -5 6 1.2 1.53
-2 -5 5 419.45 19.26
2 5 -5 398.44 16.06
-2 -5 5 373.12 16.41
-2 -5 5 359.97 16.53
-2 -5 5 377.04 17.21
2 5 -5 404 15.86
-2 -5 5 335.89 14.75
-2 -5 4 151.18 11.82
-2 -5 4 161.52 11.9
-2 -5 4 146.28 9.42
-2 -5 4 141.13 9.85
-2 -5 4 152.36 11.33
2 5 -4 183.44 10.99
-2 -5 3 479.33 21.96
-2 -5 3 546.32 21.84
-2 -5 3 491.49 18.92
-2 -5 3 580.8 23.48
-2 -5 3 623.85 21.85
-2 -5 3 614.55 20.53
2 5 -3 633.28 20.87
-2 -5 2 194.14 13.57
-2 -5 2 184.03 11.46
-2 -5 2 163.9 10.39
-2 -5 2 180.12 10.2
-2 -5 2 207.54 11.74
-2 -5 2 215.15 12.92
-2 -5 1 92.57 8.8
-2 -5 1 83.26 6.86
-2 -5 0 0.09 0.6
-2 -5 0 35.22 4.11
-2 -5 -1 843.24 16.38
-2 -5 -1 833.38 14.12
-2 -6 5 30.47 3.22
2 6 -5 32.64 2.7
-2 -6 5 29.78 2.96
-2 -6 4 398.84 11.83
2 6 -4 472.62 11
-2 -6 3 272.79 8.46
-2 -6 2 68.9 3.93
-3 5 3 51.73 3.21
3 -5 -3 29.24 2.5
-3 5 2 193.82 8.45
3 -5 -2 163.31 7.61
-3 5 2 183.61 8.6
-3 5 1 144.61 8.46
3 -5 -1 114.81 7.1
-3 5 1 102.65 6.39
3 -5 -1 143.61 8.71
-3 5 1 153.36 7.57
3 -5 0 962.74 25.63
3 -5 0 916.69 24.35
-3 5 -1 221.84 11.27
-3 5 -1 261.35 12.42
3 -5 1 243.2 13.05
3 -5 1 198.22 10.32
-3 5 -1 210.12 10.39
-3 5 -2 355.17 14.81
3 -5 2 339.56 14.72
-3 5 -2 323.77 12.34
3 -5 2 373.38 15.64
3 -5 3 262.51 10.2
3 -5 3 259.94 11.12
-3 5 -4 406.48 12.48
3 -5 4 331.74 9.57
-3 5 -5 332.42 7.67
-3 4 5 310.81 8.69
3 -4 -4 17.96 2.71
-3 4 4 19.29 3.21
-3 4 3 264.72 13.64
3 -4 -3 247.66 13.09
-3 4 3 278.18 12.07
3 -4 -2 68.38 7.66
3 -4 -2 63 7.72
-3 4 2 75.78 6.97
-3 4 2 83.08 8.25
3 -4 -1 667.28 27.55
-3 4 1 819.9 26.46
3 -4 -1 780.27 28.58
3 -4 -1 703.74 25.66
-3 4 1 717.13 23.13
3 -4 0 328.81 18.07
-3 4 0 254.98 13.55
-3 4 -1 253.34 14.39
-3 4 -1 310.45 15.44
-3 4 -1 279.31 14.2
3 -4 1 255.89 14.74
-3 4 -1 285.73 14.28
-3 4 -2 47.53 6.61
-3 4 -2 39.85 6.13
3 -4 2 35.25 6.51
-3 4 -2 33.28 4.64
-3 4 -2 34.43 5.12
-3 4 -2 46.4 6.01
-3 4 -3 2370.6 49.02
-3 4 -3 2409.76 49.13
-3 4 -3 2305.79 44.96
-3 4 -4 32.51 4.98
-3 4 -4 32.37 4.18
-3 4 -5 234.93 10.23
-3 4 -5 223.37 9.57
-3 4 -5 230.95 9.67
-3 3 6 4.74 1.6
3 -3 -6 -0.23 0.53
3 -3 -6 3.79 1.56
3 -3 -6 4.1 1.43
3 -3 -5 9.99 2.91
3 -3 -5 3.83 2.8
3 -3 -5 3.59 2.8
-3 3 5 6.94 2.76
3 -3 -5 1.84 2.04
-3 3 4 2451.48 44.68
3 -3 -4 2390.49 46.23
3 -3 -4 2507.69 46.95
-3 3 3 279.65 14.47
-3 3 3 256.1 15.06
3 -3 -3 228.61 12.76
3 -3 -3 236.47 13.06
3 -3 -3 257.16 16.34
3 -3 -3 248.64 16.31
-3 3 3 268.01 13.44
3 -3 -2 44.66 5.72
-3 3 2 80.11 8.03
-3 3 2 68.4 6.48
-3 3 2 84.64 8.56
3 -3 -2 63 6.51
3 -3 -2 59.83 8.22
-3 3 2 80.48 7.57
3 -3 -1 102.93 8.74
-3 3 1 129.23 10.2
3 -3 -1 115.52 10.71
-3 3 1 101.86 8.45
-3 3 1 116.02 9.02
-3 3 1 108.28 8.07
-3 3 0 2142.38 41.51
-3 3 0 2230.53 43.74
3 -3 0 2199.46 42.5
-3 3 -1 122.01 8.8
-3 3 -1 135.26 9.41
3 -3 1 124.97 9.09
3 -3 1 144.46 10.65
-3 3 -2 180.42 13.83
-3 3 -2 160.58 10.77
-3 3 -2 147.39 10.33
-3 3 -3 457.07 17.97
-3 3 -3 421.4 18.65
-3 3 -4 2340.07 49.22
-3 3 -4 2271.53 45.84
-3 3 -4 2394.06 46.52
-3 3 -5 0.87 1.26
-3 3 -5 2.36 1.96
-3 3 -5 0.58 1.21
-3 3 -5 3.4 1.77
-3 3 -5 5.35 2.17
-3 3 -6 30.69 3.21
-3 3 -6 25.34 2.63
3 -2 -7 596.15 15.14
3 -2 -6 102.91 8.21
3 -2 -6 106.43 8.27
3 -2 -6 96.24 7.89
-3 2 6 106.58 7.72
-3 2 5 680.78 21.96
3 -2 -5 623.08 25.21
3 -2 -5 659.4 23.28
-3 2 5 692.93 23.08
-3 2 5 647.56 20.56
3 -2 -4 256.44 14.22
3 -2 -4 261.72 14.55
-3 2 4 260.76 14.18
-3 2 4 288.46 14.29
3 -2 -3 532.09 20.34
3 -2 -3 613.5 25.02
3 -2 -3 553.44 20.3
-3 2 3 564.44 19.9
3 -2 -3 540.32 20.02
-3 2 3 626.03 20.94
3 -2 -3 573.16 20.26
3 -2 -2 57.14 6.27
-3 2 2 64.23 6.72
-3 2 2 51.73 5.52
3 -2 -2 46.12 5.4
-3 2 2 50.15 5.53
-3 2 2 48.95 5.61
3 -2 -2 65.64 6.45
-3 2 1 1545.43 33.55
-3 2 1 1497.52 31.49
-3 2 1 1726.54 35.07
-3 2 1 1406.34 31.77
3 -2 -1 1713.4 34.75
-3 2 0 67.85 6.33
-3 2 0 85.51 9.08
-3 2 0 67.83 6.12
-3 2 0 62.92 5.89
3 -2 0 75.15 6.73
3 -2 0 74.46 7.08
-3 2 -1 2207.71 50.02
3 -2 1 2048.61 44.27
-3 2 -2 381.32 19.78
-3 2 -2 326.65 16.38
-3 2 -2 369.02 18.3
-3 2 -2 317.2 14.37
3 -2 2 337.86 18.06
-3 2 -3 326.79 16.91
-3 2 -3 323.91 17.49
-3 2 -3 340.53 18
-3 2 -3 312.17 15.64
3 -2 3 333.41 20.63
-3 2 -4 748.53 24.41
-3 2 -4 738.95 26.07
-3 2 -4 744.33 25.54
-3 2 -4 738.43 27.5
-3 2 -5 1362.66 32.23
-3 2 -5 1340.88 31.07
-3 2 -6 40.84 3.94
-3 2 -6 48.13 4.21
-3 2 -6 37.84 3.84
3 -1 -8 1403.36 24.68
-3 1 8 1442.95 23.79
-3 1 7 42.05 4.97
3 -1 -7 45.05 5.28
3 -1 -7 44.17 5.36
-3 1 7 41.21 4.99
-3 1 7 40.31 4.43
3 -1 -6 358.67 17
3 -1 -6 348.1 16.85
3 -1 -6 334.23 15.56
3 -1 -6 346.03 17.37
3 -1 -6 384.99 17.33
-3 1 6 352.97 15.28
-3 1 5 58.94 6.88
3 -1 -5 61.67 7.26
3 -1 -5 55.73 6.68
-3 1 5 56.98 6.84
3 -1 -5 66.08 7.52
3 -1 -5 61.48 7.28
-3 1 5 67.55 7.12
3 -1 -4 2135.06 43.35
-3 1 4 2249.4 44.29
3 -1 -4 2086.78 43.84
3 -1 -4 1978.5 40.82
-3 1 4 2265.12 44.43
3 -1 -4 1988.66 42.28
3 -1 -4 2122.58 45.85
-3 1 4 2138.31 42.52
-3 1 4 2187.34 43.6
3 -1 -4 2064.61 45.63
3 -1 -3 481.09 18.15
-3 1 3 495.69 17.39
-3 1 3 466.87 17.1
3 -1 -3 454.56 17.28
3 -1 -3 527.02 19.57
-3 1 3 419.81 15.54
3 -1 -3 465.89 17.34
-3 1 3 448.77 16.23
-3 1 3 473.48 17.5
3 -1 -3 524.79 18.63
3 -1 -2 198.33 10.79
3 -1 -2 207.34 11
3 -1 -2 187.95 9.91
-3 1 1 137.31 9.02
3 -1 -1 131.49 8.43
3 -1 -1 130.05 8.64
3 -1 0 3830.05 59.4
3 -1 0 3917.27 59.71
-3 1 -1 192.41 13.27
-3 1 -1 150.16 9.11
-3 1 -1 177.87 10.94
-3 1 -1 160.61 7.82
3 -1 1 182.41 11.13
3 -1 1 182.02 11.29
3 -1 2 4.23 2.66
-3 1 -2 4.08 2.93
-3 1 -2 5.43 2.44
-3 1 -2 4.98 2.72
-3 1 -2 2.34 2.47
-3 1 -2 4.24 2.72
-3 1 -2 4.31 2.83
-3 1 -3 702.22 28.84
-3 1 -3 619.2 24.63
-3 1 -3 630.85 26.13
-3 1 -3 622.57 26.47
-3 1 -3 601.13 25.06
-3 1 -4 2881.72 53.07
-3 1 -4 3031.95 61.41
-3 1 -4 3094.44 61.48
-3 1 -4 2877.01 53.98
-3 1 -4 3012.87 56.58
-3 1 -4 3131.02 60.44
-3 1 -5 68.44 7.02
-3 1 -5 64.88 6.24
-3 1 -5 67.85 7.19
-3 1 -5 65.59 6.55
-3 1 -6 163.07 7.08
-3 1 -6 179.74 8.15
3 0 -9 17.56 1.89
-3 0 9 16.36 1.7
3 0 -8 13.81 2.64
3 0 -8 16.09 3.16
-3 0 8 18.09 3.02
3 0 -7 814.45 25.28
-3 0 7 788.99 23.44
3 0 -7 795.3 25.26
3 0 -7 779.61 23.88
3 0 -7 744.3 22.93
3 0 -7 804.54 24.7
-3 0 7 789.66 23.5
3 0 -6 1.04 1.85
-3 0 6 4.44 2.52
3 0 -6 1.04 2.01
3 0 -6 2.36 2.2
-3 0 6 2.22 2.28
-3 0 6 3.98 2.7
-3 0 6 3.21 2.14
-3 0 5 763.59 24.73
3 0 -5 741.48 24.72
-3 0 5 669.09 22.1
3 0 -5 632.99 21.95
3 0 -5 687.9 22.47
3 0 -5 682.12 23.25
3 0 -5 723.02 24.58
3 0 -5 729.42 24.6
-3 0 5 768.19 24.91
-3 0 5 839.37 28.35
-3 0 5 754.11 25.07
3 0 -4 15.55 3.42
-3 0 4 15.98 3.93
3 0 -4 20.47 3.91
3 0 -4 8.57 2.84
3 0 -4 11.91 3.14
-3 0 4 10.89 3.2
3 0 -4 10.28 3.29
3 0 -3 4411.18 65.24
-3 0 3 4505.93 67.83
3 0 -3 4540.22 67.16
3 0 -3 4303.93 63.91
3 0 -3 4632.13 66.92
3 0 -2 120.18 7.66
-3 0 2 115.7 7.97
3 0 -2 109.73 7.31
3 0 -2 100.58 6.71
3 0 -2 126.97 8.12
-3 0 1 654.17 19.03
3 0 -1 626.37 16.35
3 0 -1 668.51 18.73
-3 0 0 689.27 18.8
3 0 0 703.31 20.04
-3 0 -1 1932.89 42.37
-3 0 -1 2046.49 45.31
-3 0 -1 1967.02 39.71
-3 0 -1 2033.35 41.81
3 0 1 1966.18 39.6
-3 0 -2 10.24 3.54
-3 0 -2 7.45 3.57
-3 0 -2 19.4 3.68
-3 0 -2 9.15 2.71
-3 0 -2 11.5 2.95
-3 0 -2 8.58 3.51
-3 0 -2 6.29 2.93
-3 0 -2 8.93 3.42
-3 0 -2 10.15 3.48
-3 0 -2 10.93 3.19
3 0 2 9.54 3.18
-3 0 -3 115.97 12.35
-3 0 -3 90.33 7.78
-3 0 -3 82.27 8.56
-3 0 -3 88.38 8.18
-3 0 -3 110.97 10.95
-3 0 -3 91.35 8.61
-3 0 -3 104.34 11.01
-3 0 -3 113.12 9.43
-3 0 -4 86.51 7.76
-3 0 -4 76.33 6.92
-3 0 -4 95.73 9.2
-3 0 -4 79.58 7.83
-3 0 -4 102.65 10.13
-3 0 -6 2.28 0.98
3 1 -9 340.38 10.5
-3 -1 9 333.36 9.66
-3 -1 8 155.44 9.23
3 1 -8 165.47 10
3 1 -8 166.44 8.2
3 1 -8 163.82 8.85
-3 -1 8 145.12 8.64
-3 -1 7 584.39 21.09
3 1 -7 553.3 19.89
3 1 -7 519.9 19.99
3 1 -7 583.48 21.32
3 1 -7 543.94 20.27
3 1 -7 569.5 20.18
-3 -1 7 545.21 20.41
-3 -1 7 561.98 21.04
-3 -1 6 405.53 18.51
3 1 -6 368.79 16.92
-3 -1 6 455.74 22.4
3 1 -6 394.58 17.3
3 1 -6 387.62 16.92
3 1 -6 444.21 18.96
3 1 -6 370.02 16.84
3 1 -6 430.24 19.01
-3 -1 6 398.15 18.25
-3 -1 6 396.59 20.64
-3 -1 5 639.05 23.34
3 1 -5 565.96 20.2
3 1 -5 611.81 22.26
-3 -1 5 568.66 19.98
-3 -1 5 673.68 25.92
3 1 -5 642.4 22.1
-3 -1 5 587.54 20.67
3 1 -5 655.77 25.71
3 1 -4 2045.56 41.78
-3 -1 4 2007.2 40.89
-3 -1 4 1963.38 40.38
3 1 -4 1965.08 40.89
-3 -1 4 2042.14 45.54
3 1 -4 1897.75 38.55
-3 -1 4 1836.67 37.6
3 1 -4 1919.82 40.83
3 1 -3 864.48 22.72
-3 -1 3 893.13 24.65
3 1 -3 882.11 24.72
3 1 -3 812.96 22.51
3 1 -2 964.94 22.39
3 1 -2 1002.14 25.09
3 1 -2 937.37 23.55
-3 -1 2 969.17 25.05
3 1 -2 967.01 23.36
3 1 -1 849.95 22.15
3 1 -1 860.38 21.55
-3 -1 0 3449.75 62.87
-3 -1 0 3212.29 57.55
-3 -1 0 3300.92 54.43
-3 -1 0 3171.55 58.45
-3 -1 0 3314.29 54.95
-3 -1 0 3204.66 59.89
-3 -1 0 3276.14 56.93
-3 -1 0 3537.42 60.54
-3 -1 -1 570.81 22.98
-3 -1 -1 555.39 21.23
-3 -1 -1 565.87 23.45
-3 -1 -1 603.04 22.38
-3 -1 -1 593.24 23.62
-3 -1 -1 537.58 20.51
-3 -1 -2 1167.83 29.08
-3 -1 -2 1358.66 35.54
-3 -1 -2 1219.75 39.86
-3 -1 -2 1347.84 36.84
-3 -1 -2 1301.5 35.09
-3 -1 -2 1146.77 32.08
-3 -1 -2 1125.17 28.84
-3 -1 -2 1327.87 35.57
-3 -1 -3 227.53 12.24
-3 -1 -3 251.6 16.22
-3 -1 -3 231.34 13.4
-3 -1 -3 269.29 15.73
-3 -1 -3 246.62 14.11
-3 -1 -3 212.56 12
-3 -1 -3 259.95 16.57
-3 -1 -3 225.72 13.01
-3 -1 -3 236.83 13.78
-3 -1 -4 148.4 10.46
-3 -1 -4 146.24 8.83
-3 -1 -4 144.05 8.98
-3 -1 -5 148.51 6.06
-3 -2 9 121.27 6.17
-3 -2 9 120.06 5.73
3 2 -9 146.11 6.78
-3 -2 9 136.3 6.47
-3 -2 9 102.46 5.44
-3 -2 8 18.94 3.62
3 2 -8 15.91 3.4
3 2 -8 15.42 3.17
3 2 -8 20.49 3.6
-3 -2 8 20.7 3.81
-3 -2 8 15.56 3.33
-3 -2 7 1752.51 39.5
3 2 -7 1613.5 37.44
-3 -2 7 1491.79 37.11
3 2 -7 1634.78 35.15
3 2 -7 1628.17 36.14
3 2 -7 1678.7 37.42
3 2 -7 1589.13 36.35
-3 -2 7 1443.76 38.16
-3 -2 7 1648.79 40.16
3 2 -6 74.91 7.76
-3 -2 6 82.96 8.38
-3 -2 6 76.56 9.07
3 2 -6 69.48 7.12
3 2 -6 68.65 7.8
-3 -2 6 86.64 10.11
3 2 -6 79.78 7.82
-3 -2 6 89.22 9.87
-3 -2 5 393.33 19.63
3 2 -5 342.17 16.12
-3 -2 5 427.85 23.38
3 2 -5 373.8 17.97
-3 -2 5 419.26 23.12
-3 -2 4 21.3 4.13
-3 -2 4 33.45 6.21
-3 -2 4 21.94 4.23
-3 -2 4 29.7 6.1
-3 -2 4 27.45 5.33
3 2 -4 21.49 4.48
-3 -2 4 28.46 5.61
-3 -2 3 918.88 27.21
-3 -2 3 1053.76 33.74
-3 -2 3 1053.58 28.62
-3 -2 3 1053.04 33.3
3 2 -3 1063.63 30.3
-3 -2 3 1012.91 30.94
3 2 -3 936 26.8
-3 -2 3 953.49 25.58
-3 -2 2 230.74 11.86
-3 -2 2 225.93 13.21
-3 -2 2 225.08 14.44
-3 -2 2 244.41 13.26
-3 -2 2 261.58 14.57
-3 -2 2 200.02 12.75
3 2 -2 246.05 13.05
-3 -2 1 512.2 24.18
-3 -2 1 487.41 19.89
-3 -2 1 481.05 18.58
-3 -2 1 464.14 18.39
-3 -2 1 474.78 19.9
-3 -2 1 475.37 19.27
-3 -2 1 468.53 19.29
-3 -2 1 482.31 20.08
3 2 -1 460.8 19.13
-3 -2 0 339.21 19.12
-3 -2 0 330.48 16.96
-3 -2 0 310.58 16.66
-3 -2 0 316.39 16.71
-3 -2 0 349.37 18.44
-3 -2 0 288.65 15.6
-3 -2 -1 2505.75 55.03
-3 -2 -1 2435.04 54.3
-3 -2 -1 2457.55 56.2
-3 -2 -1 2449.67 50.86
-3 -2 -2 256.55 15.1
-3 -2 -2 264.25 13.56
-3 -2 -2 314.65 16.74
-3 -2 -2 341.45 18.57
-3 -2 -2 323.63 18.02
-3 -2 -2 294.71 16.16
-3 -2 -2 289.01 17.11
-3 -2 -3 400.66 15.4
-3 -2 -3 424.02 18.55
-3 -2 -3 401.99 17.04
-3 -2 -3 347.91 15.42
-3 -2 -3 326.67 14.84
-3 -2 -3 342.13 14.11
-3 -2 -4 88.07 4.54
-3 -2 -4 100.48 6.05
3 3 -9 3.8 1.07
-3 -3 9 4.42 1.3
-3 -3 9 3.15 1.15
3 3 -8 185.5 9.83
3 3 -8 191.98 8.79
3 3 -8 195.78 9.91
3 3 -8 183.96 8.97
-3 -3 8 165.35 10.01
-3 -3 8 179.28 9.21
-3 -3 7 119.67 9.42
3 3 -7 124.05 9.34
3 3 -7 119.17 7.65
-3 -3 7 107.87 9.94
3 3 -7 127.74 9.09
-3 -3 7 110.81 10.43
-3 -3 7 103.49 8.35
3 3 -6 1839.74 41.32
-3 -3 6 1893.8 43.63
-3 -3 6 1945.79 51.27
-3 -3 6 1627.09 40.5
3 3 -6 1976.9 41.23
3 3 -6 1809.33 43.74
-3 -3 6 2045.59 54.11
3 3 -6 1822.02 39.32
-3 -3 6 1998.04 48.63
-3 -3 5 311.28 18.93
3 3 -5 316.96 16.11
-3 -3 5 313.85 16.31
-3 -3 5 336.18 21.35
-3 -3 5 297.05 17.03
-3 -3 5 274.93 16.9
3 3 -5 292.4 16.72
-3 -3 5 357.66 20.93
-3 -3 5 287.89 16.14
-3 -3 4 167.35 15.27
3 3 -4 157.36 11.22
-3 -3 4 182.79 12.96
3 3 -4 168.64 12.85
-3 -3 3 150.18 9.51
-3 -3 3 166.57 14.32
-3 -3 3 158.98 10.88
3 3 -3 147.8 12.6
-3 -3 3 150.85 12.14
3 3 -3 148.17 11.24
-3 -3 2 2443.72 49.93
-3 -3 2 2438.78 47.05
-3 -3 2 2366.03 50.2
-3 -3 2 2509.86 52.97
-3 -3 2 2693.91 54.04
-3 -3 2 2609.49 49.55
-3 -3 2 2391.27 51.31
3 3 -2 2482.7 52.89
-3 -3 1 328.97 16.47
-3 -3 1 337.24 18.49
-3 -3 1 340.44 16.32
-3 -3 0 1.22 2.54
-3 -3 0 1 2.38
-3 -3 0 0.96 2.1
-3 -3 0 0.93 2.03
-3 -3 0 3.82 2.78
-3 -3 0 1.57 2.54
-3 -3 -1 451.86 20
-3 -3 -1 422.3 19.93
-3 -3 -2 1032.92 26.28
-3 -3 -2 980.75 28.11
-3 -3 -2 1051.36 27.68
-3 -3 -3 61.43 4.38
-3 -3 -3 59.81 4.72
3 4 -8 8.63 1.93
-3 -4 8 5.84 1.79
-3 -4 8 6.38 1.59
3 4 -8 5.51 1.38
3 4 -8 6.48 1.53
-3 -4 8 6.03 2.04
-3 -4 8 6.83 1.75
-3 -4 7 414.65 14.25
3 4 -7 475.08 16.29
3 4 -7 463.99 15.24
-3 -4 7 471.66 19.28
-3 -4 7 402.15 15.44
-3 -4 6 427.36 19.02
-3 -4 6 435.36 15.46
3 4 -6 452.8 17.76
-3 -4 6 484.25 22.52
-3 -4 6 482.71 20.2
-3 -4 6 450.12 18.78
3 4 -6 466 16.91
-3 -4 6 394.25 16.03
-3 -4 5 359.62 20.23
3 4 -5 375.31 16.89
-3 -4 5 326.07 18.44
-3 -4 5 357.79 17.83
-3 -4 5 305.84 18
-3 -4 5 354.29 18.81
-3 -4 4 256.7 17.57
3 4 -4 262.95 14.33
-3 -4 4 276.03 15.83
-3 -4 4 283.81 17.67
-3 -4 4 263.02 15.49
-3 -4 3 1177.39 36.99
-3 -4 3 1086.07 32.66
-3 -4 3 1167.25 34.34
-3 -4 3 1013.47 29.34
-3 -4 3 955.21 28.82
-3 -4 2 77.89 6.84
-3 -4 2 66.38 8.27
-3 -4 2 82.28 8.06
-3 -4 1 565.18 24.32
-3 -4 1 564.56 19.39
-3 -4 1 500.53 19.09
-3 -4 0 204.81 12.82
-3 -4 0 194.77 11.01
-3 -4 -1 148 8.64
-3 -4 -1 176.17 8.7
-3 -4 -1 139.15 8.52
-3 -4 -1 170.45 8.13
-3 -4 -2 28.82 2.28
3 5 -7 0.45 0.83
-3 -5 7 2.5 1.12
-3 -5 7 2.16 1.1
-3 -5 6 1276.37 28.38
3 5 -6 1615.62 27.08
-3 -5 6 1340.38 28.64
-3 -5 6 1549.96 29.8
-3 -5 6 1308.69 26.97
3 5 -5 17.56 2.94
-3 -5 5 14.33 3.63
-3 -5 5 14.83 2.8
-3 -5 5 7.68 1.96
-3 -5 4 1.92 2.26
-3 -5 3 11.28 3.05
-3 -5 3 8.26 2.73
-3 -5 3 9.59 2.78
-3 -5 2 823.72 22.83
-3 -5 2 742.37 20.16
-3 -5 1 28.8 3.7
-3 -5 1 24.88 2.98
4 -5 -1 61.78 3.83
-4 5 0 16.15 1.99
4 -5 0 21.03 2.67
4 -5 0 19.72 2.22
4 -5 0 16 2.17
-4 5 -1 1069.02 19.79
-4 5 -1 904.74 16.4
4 -5 1 930.16 19.1
4 -5 1 910.39 19
-4 5 -1 1073.81 17.04
-4 5 -2 1.42 0.81
4 -5 2 0.72 0.75
4 -4 -4 138.13 5.06
4 -4 -4 155.78 6.88
-4 4 3 76.01 6.21
4 -4 -3 67.61 5.8
-4 4 3 82.9 5.84
4 -4 -2 373.82 15.86
4 -4 -2 362.41 14.59
-4 4 1 580.15 17.4
4 -4 -1 762.03 24.02
4 -4 0 406.7 19.82
4 -4 0 359.63 15.49
-4 4 0 418.34 15.75
-4 4 -1 988.98 27.36
4 -4 1 953.32 29.43
-4 4 -2 455.46 17.08
-4 4 -2 476.53 16.61
4 -4 2 399.79 15.9
-4 4 -2 425.23 14.6
-4 4 -3 157.19 7.45
-4 4 -3 188.74 8.58
-4 4 -4 382.94 8.7
-4 4 -4 393.43 10.12
-4 3 6 129.56 5.18
4 -3 -5 173.42 7.75
-4 3 5 197.15 9.82
4 -3 -5 154.85 7.52
4 -3 -5 155.25 7.66
-4 3 5 192.03 8.72
-4 3 4 2.7 1.73
4 -3 -4 1.49 1.53
4 -3 -4 4.1 2.57
4 -3 -4 3.4 1.92
4 -3 -4 3.48 2.5
-4 3 4 3.23 2.06
-4 3 4 4.7 1.97
-4 3 3 1758.05 35.17
-4 3 3 1703.8 39.34
4 -3 -3 1555.37 41.23
4 -3 -3 1559.96 40.3
-4 3 3 1695.19 36.96
-4 3 3 1699.93 36.52
-4 3 2 16.84 3.58
-4 3 2 21.46 4.33
4 -3 -2 14.55 4.28
-4 3 2 13.37 3.49
-4 3 1 100.27 8.19
-4 3 1 96.87 8.38
4 -3 -1 89.24 9.91
-4 3 0 224.24 14.31
4 -3 0 210.15 13.65
-4 3 0 214.08 12.08
-4 3 -1 1147.79 34.53
-4 3 -1 1115.42 29.89
-4 3 -2 109.03 9.3
-4 3 -2 125.55 10.65
-4 3 -2 105.93 8.8
-4 3 -3 418.34 16.59
-4 3 -3 399.04 14.53
-4 3 -3 411.65 16.56
-4 3 -3 446.46 16.87
-4 3 -4 20.23 2.72
-4 3 -4 18.6 2.74
-4 3 -4 20.15 3.08
-4 3 -5 288.38 7.05
4 -2 -7 10.44 1.69
-4 2 7 6.53 1.56
4 -2 -7 5.67 1.37
-4 2 7 5.39 1.35
4 -2 -6 1207.45 26.27
4 -2 -6 1153.39 25.13
-4 2 6 1214.76 24.48
-4 2 5 128.82 9.42
-4 2 5 138.31 9.54
4 -2 -5 113.23 8.32
4 -2 -5 128.47 9.67
-4 2 5 135.64 9.67
-4 2 5 132.98 9.17
-4 2 4 336.13 16.81
-4 2 4 327.45 15.77
4 -2 -4 278.75 14.07
4 -2 -4 320.24 18.24
-4 2 4 327.28 15.92
-4 2 3 876.42 27.55
-4 2 3 841.19 25.67
-4 2 3 803.29 26.06
4 -2 -3 870.66 30.95
-4 2 3 826.07 26.08
-4 2 2 1617.12 42.57
-4 2 2 1697.72 37.35
-4 2 2 1672.21 37.46
4 -2 -2 1757.96 45.11
-4 2 2 1676.1 36.95
-4 2 2 1601.86 37.62
4 -2 -2 1639.73 39.25
-4 2 1 118.25 9.32
-4 2 1 133.03 9.68
-4 2 1 120.16 9.75
-4 2 1 128.18 9.24
4 -2 -1 132.82 10.61
4 -2 -1 131.47 10.77
-4 2 0 49.98 7.88
4 -2 0 44.12 6.34
4 -2 0 37.87 6.14
-4 2 -1 20.56 5.34
-4 2 -1 19.23 4.46
-4 2 -1 11.68 3.09
-4 2 -2 2182.92 45.79
-4 2 -2 2210.43 42.74
-4 2 -2 2202.92 48.46
-4 2 -2 2298.18 52.13
-4 2 -2 2250.61 49.48
-4 2 -3 125.39 8.5
-4 2 -3 151.72 10.68
-4 2 -3 162.11 10.46
-4 2 -3 159.97 12.27
-4 2 -3 168.01 11.22
-4 2 -4 92.71 6.48
-4 2 -4 88.71 6.74
-4 2 -4 92.65 7.39
-4 2 -4 85.35 6.73
-4 2 -5 166.08 5.31
-4 2 -5 171.92 6.63
-4 1 8 40.15 2.51
4 -1 -8 53.03 2.81
-4 1 7 466.72 14.72
4 -1 -7 448.6 14.98
4 -1 -7 422.52 14.15
4 -1 -7 446.8 14.67
-4 1 7 438.79 14.45
-4 1 7 438.77 13.92
4 -1 -6 31.39 4.89
4 -1 -6 35.3 5.68
4 -1 -6 37.23 5.22
-4 1 6 34.45 4.98
-4 1 5 658.79 23.83
4 -1 -5 570.31 21.63
4 -1 -5 577.6 20.38
4 -1 -5 587.97 22.12
-4 1 5 640.85 23.28
-4 1 5 666.71 23.81
-4 1 4 116.03 9.94
4 -1 -4 101.06 8.98
4 -1 -4 108.03 8.71
-4 1 4 117.17 9.32
-4 1 4 116.87 9.76
-4 1 4 101.45 9.24
4 -1 -3 1277.59 35.26
-4 1 3 1229.62 31.58
4 -1 -3 1237.95 31.6
-4 1 3 1326.35 37.74
-4 1 3 1226.55 32.93
4 -1 -2 743.25 25.12
-4 1 2 709.54 22.47
-4 1 2 667.84 24.32
-4 1 2 655.5 21.6
4 -1 -2 711.99 24.73
-4 1 1 1746.85 36.64
-4 1 1 1826.79 48.94
-4 1 1 1849.64 38.31
-4 1 1 1852.09 40.36
-4 1 1 1678.12 36.49
4 -1 -1 1921.04 43.08
4 -1 -1 1853.45 42.28
-4 1 0 159.55 13.94
4 -1 0 176.59 12.65
4 -1 0 181.35 12.75
-4 1 -1 248.38 17.04
-4 1 -1 231.87 14.8
-4 1 -1 226.51 13
-4 1 -1 218.9 14.56
-4 1 -2 197.15 10.81
-4 1 -2 220.14 12.34
-4 1 -2 215.56 14.83
-4 1 -2 224.67 13.63
-4 1 -2 229.1 15.21
-4 1 -3 546.88 23.31
-4 1 -3 476.6 16.84
-4 1 -3 481.68 20.06
-4 1 -3 552.22 23.19
-4 1 -3 519.92 19.56
-4 1 -4 270.46 10.1
-4 1 -4 252.91 9.56
-4 1 -4 273.13 12.74
-4 1 -4 252.63 11.11
-4 1 -5 467.28 10.46
4 0 -8 82.95 5.27
4 0 -8 78.27 5.2
-4 0 8 82.13 5.31
4 0 -7 29.55 4.46
-4 0 7 29.84 4.83
4 0 -7 26.81 4.18
4 0 -7 26.7 4.33
4 0 -7 24.67 4.01
-4 0 7 29.87 4.41
-4 0 7 27.81 4.35
-4 0 6 1179.57 32.18
4 0 -6 1037.27 29.17
4 0 -6 1093.46 30.94
4 0 -6 1026.76 28.42
4 0 -6 1130.14 30.86
-4 0 6 1089.05 31.98
-4 0 6 1174.05 32.31
-4 0 6 949.11 29.04
4 0 -5 19.43 4.06
4 0 -5 20.21 4.55
4 0 -5 17.82 4.13
4 0 -5 18.65 4.41
4 0 -5 13.13 3.72
-4 0 4 26.98 4.98
-4 0 4 19.31 4.95
4 0 -4 21.72 4.26
-4 0 4 28.92 5.45
4 0 -4 27.15 5.22
-4 0 4 22.73 4.03
-4 0 4 19.18 4.26
4 0 -4 23.3 4.57
-4 0 4 24.07 4.98
4 0 -4 23.68 4.92
4 0 -3 278.96 14.78
-4 0 3 279.67 13.54
-4 0 3 276.73 15.76
-4 0 3 259.72 16.08
4 0 -3 269.04 14.66
-4 0 3 252.98 12.79
4 0 -3 274.23 14.11
4 0 -3 291.91 15.54
4 0 -2 5511.75 80.86
-4 0 2 5196.66 81.52
-4 0 2 5035.32 73.3
-4 0 2 5271.45 75.23
-4 0 2 5315.18 88.51
-4 0 2 5864.63 85.69
-4 0 2 5404.51 74.83
-4 0 2 5095 78.51
4 0 -2 5736.97 83.35
-4 0 2 4948.57 83.71
-4 0 1 81.21 8.39
-4 0 1 85.38 9.07
-4 0 1 65.22 8.8
-4 0 1 60.28 6
-4 0 1 85.07 9.36
-4 0 1 67.57 6.92
4 0 -1 76.5 7.99
-4 0 1 73.52 8.99
-4 0 0 277.7 16.25
-4 0 0 277.65 17.95
-4 0 0 292.64 16.06
-4 0 0 248.62 12.38
4 0 0 298.39 15.83
-4 0 0 301.81 18.62
-4 0 -1 12.51 4.27
-4 0 -1 13.02 4.27
-4 0 -1 18.29 4.48
-4 0 -1 11.65 3.19
-4 0 -2 1518.8 44.71
-4 0 -2 1257.37 37.15
-4 0 -2 1510 41.51
-4 0 -2 1221.14 31.07
-4 0 -2 1522.45 39.09
-4 0 -2 1575.21 43.58
-4 0 -3 3.86 2.73
-4 0 -3 6.81 2.47
-4 0 -3 3.76 2.3
-4 0 -3 1.46 1.63
-4 0 -4 13.32 3
-4 0 -4 8.24 2.15
-4 0 -4 17.62 2.57
-4 -1 9 521.82 9.77
-4 -1 8 35.42 4.15
4 1 -8 31.78 4.07
4 1 -8 30.03 3.53
4 1 -8 33.3 3.65
-4 -1 8 32.76 3.64
-4 -1 8 40.39 4.31
-4 -1 8 24.56 3.37
-4 -1 7 499.71 18.9
4 1 -7 455.56 17.41
-4 -1 7 474.24 19.33
4 1 -7 454.61 17.53
4 1 -6 262.33 13.8
-4 -1 6 289.85 16.02
4 1 -6 293.56 15.56
-4 -1 6 228.12 14.49
4 1 -6 273.71 14.21
-4 -1 6 298.72 16.97
-4 -1 6 250.57 16.26
-4 -1 5 1015.64 30.83
-4 -1 5 861.73 26.35
4 1 -5 874.72 26.73
-4 -1 5 825.69 32.21
4 1 -5 867.12 29.12
-4 -1 5 941.17 34.21
4 1 -5 921.2 28.69
-4 -1 5 929.54 28.69
-4 -1 5 979.85 33.5
-4 -1 4 287.43 14.41
-4 -1 4 328.4 20.39
-4 -1 4 296.67 18.72
4 1 -4 303.38 16.78
-4 -1 4 294.09 14.02
4 1 -4 288.76 15.07
-4 -1 4 305.35 16.31
4 1 -4 292.28 16.12
-4 -1 3 58.78 8.45
-4 -1 3 52.86 7.8
4 1 -3 59.41 6.64
-4 -1 3 57.47 6.88
-4 -1 3 58.19 7.09
4 1 -3 54.1 6.6
-4 -1 2 22.81 5.07
-4 -1 2 24.95 5.96
-4 -1 2 29.62 6.05
-4 -1 2 19.15 3.9
-4 -1 1 1616.82 40.01
-4 -1 1 1671.89 38.1
-4 -1 0 12.57 4.29
-4 -1 0 12.09 3.8
-4 -1 0 11.07 3.39
-4 -1 -1 774.11 29.68
-4 -1 -1 707.92 29.04
-4 -1 -1 703.85 25.13
-4 -1 -1 706.97 25.13
-4 -1 -2 4.56 2.46
-4 -1 -2 3.22 2.04
-4 -1 -2 1.89 2.8
-4 -1 -2 1.4 1.86
-4 -1 -2 1.76 1.96
-4 -1 -2 8.14 2.66
-4 -2 9 113.76 4.5
4 2 -8 157.61 8.44
4 2 -8 155.26 7.09
-4 -2 8 167.62 8.47
-4 -2 7 187.76 11.49
4 2 -7 194.48 10.83
4 2 -7 195.23 10.89
-4 -2 7 157.35 11.05
4 2 -7 193.97 10.87
-4 -2 7 150.41 10.82
-4 -2 7 169.91 10.86
-4 -2 7 185.62 12.6
4 2 -6 2310.61 45.31
-4 -2 6 2254.42 55.69
-4 -2 6 2390.91 57.86
-4 -2 6 2363.36 47.73
-4 -2 5 310.61 15.33
-4 -2 5 319.14 21.66
4 2 -5 305.49 17.1
-4 -2 5 339.95 21.84
-4 -2 5 290.81 13.57
4 2 -5 293.01 15.53
-4 -2 5 334.33 18.39
-4 -2 4 538.52 26.71
-4 -2 4 641.24 29.22
-4 -2 4 687.32 29.6
4 2 -4 576.85 22.25
-4 -2 3 519.36 20.72
-4 -2 3 541.58 26.89
-4 -2 3 551.1 21.7
-4 -2 3 589.86 26.09
-4 -2 2 284.08 19.24
-4 -2 2 309.53 19.14
-4 -2 2 259.47 16.55
-4 -2 2 242.2 16.26
4 2 -2 284.1 15.95
-4 -2 1 398.07 23
-4 -2 1 368.18 18.09
-4 -2 1 331.76 17.26
-4 -2 1 352.41 17.97
-4 -2 1 302.56 17.85
-4 -2 0 265.5 16.51
-4 -2 0 277.79 16.62
-4 -2 0 245.99 16.03
-4 -2 0 300.95 16.85
-4 -2 0 322.48 18.99
-4 -2 -1 182.82 11.58
-4 -2 -1 154.46 10.86
-4 -2 -1 175.92 12.15
-4 -2 -1 188.73 13.38
-4 -2 -2 1140.53 24.01
-4 -2 -2 1103 27.29
4 3 -8 2.1 1.34
-4 -3 8 1.3 1.1
-4 -3 8 1.6 1.12
-4 -3 8 -0.46 0.49
-4 -3 8 2.22 1.38
-4 -3 7 91.47 6.72
4 3 -7 103.05 7.21
4 3 -7 103.43 6.83
-4 -3 7 98.67 8.84
4 3 -7 103.39 7.38
-4 -3 7 91.43 8.65
-4 -3 7 92.07 7.94
4 3 -6 13.45 3.13
-4 -3 6 4.78 2.14
-4 -3 6 6.48 3.62
-4 -3 6 7.51 3.8
-4 -3 6 6.55 2.78
-4 -3 5 1792.4 47.6
-4 -3 5 2046.44 53.3
-4 -3 5 1789.04 42.76
-4 -3 5 2015.33 51.22
-4 -3 4 213.26 17.5
-4 -3 4 206.91 15.29
-4 -3 4 184.64 12.8
-4 -3 3 292.72 17.94
-4 -3 3 287.38 16.15
-4 -3 3 321.55 19.9
-4 -3 3 265.81 16.15
-4 -3 3 319.77 17.03
-4 -3 3 255.27 16.1
-4 -3 2 311.99 20.76
-4 -3 2 278.48 15.98
-4 -3 1 1158.72 36.38
-4 -3 1 925.08 28.24
-4 -3 1 1102.3 30.17
-4 -3 1 908.93 30.37
-4 -3 1 1046.85 27.67
-4 -3 1 1078.58 31.9
-4 -3 0 3.77 2.64
-4 -3 0 3.67 2.24
-4 -3 0 2.83 2.43
-4 -3 0 1.93 1.69
-4 -3 0 4.38 2.54
-4 -3 0 4.71 2.68
-4 -3 -1 12.7 2.86
-4 -3 -1 15.57 2.84
-4 -3 -1 16.06 3.27
-4 -4 7 321.95 10.67
-4 -4 7 360.79 13.66
-4 -4 7 372.84 12.13
4 4 -7 345.03 10.78
-4 -4 7 362.69 13.81
-4 -4 6 0.62 1.42
-4 -4 6 1.9 1.74
-4 -4 6 0.15 1.58
-4 -4 5 515.24 16.82
-4 -4 5 658.17 23.83
-4 -4 5 569.7 20.91
-4 -4 5 627.43 20.91
-4 -4 5 582.41 21.02
-4 -4 4 889.15 24.92
-4 -4 4 900.66 25.54
-4 -4 3 61.18 6.86
-4 -4 3 65.26 7.49
-4 -4 3 69.79 7.1
-4 -4 2 305.36 15.14
-4 -4 2 283.27 13.43
-4 -4 1 79.72 6.48
-4 -4 1 60.17 5.84
-4 -4 0 244.06 8.4
-4 -5 5 151.87 6.6
-4 -5 5 181.94 6.56
-4 -5 4 23.08 2.45
-5 4 2 4.48 1.12
5 -4 -2 6.96 1.36
-5 4 1 860.4 17.87
5 -4 -1 702.15 16.88
-5 4 0 53.15 4.14
5 -4 0 51.28 4.19
-5 4 0 56.69 3.9
-5 4 -1 4.31 1.16
5 -3 -3 242.7 11.94
5 -3 -3 244.43 11.03
-5 3 2 793.62 20.32
5 -3 -2 770.27 23.32
-5 3 1 384.39 14.56
-5 3 1 342.49 12.69
-5 3 0 372.38 14.14
-5 3 0 402.22 14.66
-5 3 -1 197.05 9.7
-5 3 -1 203.11 10.3
-5 3 -2 437.33 13.37
-5 3 -2 418.63 11.91
-5 2 6 11.24 1.65
5 -2 -6 9.11 1.3
-5 2 5 1112.62 24.15
-5 2 5 1077.09 23.1
-5 2 5 767.57 19.64
5 -2 -5 901.85 19.03
5 -2 -5 889.27 23.47
5 -2 -5 913.2 23.88
-5 2 5 1042.19 23.41
-5 2 5 1056.97 23.15
-5 2 4 10.04 3.07
-5 2 4 8.46 2.74
-5 2 4 1.7 1.46
5 -2 -4 5.07 2.62
-5 2 4 4.48 2.22
-5 2 4 8.94 2.85
-5 2 3 198.83 11.77
-5 2 3 188.98 10.97
5 -2 -3 167.59 11.91
-5 2 3 176.53 10.05
-5 2 3 183.68 10.94
-5 2 2 7.28 2.89
-5 2 1 588.23 22.46
-5 2 1 700.87 21.24
-5 2 0 367.63 16
-5 2 0 358.14 17.93
-5 2 0 390.53 17.36
-5 2 0 371.48 15.11
-5 2 -1 333.77 15.29
-5 2 -1 345.16 13.77
-5 2 -2 80.29 6.71
-5 2 -2 85.7 7.22
-5 2 -2 85.68 6.06
-5 2 -3 838.86 16.79
-5 2 -3 818.89 14.64
-5 1 7 84.44 4.48
-5 1 7 76.84 4.12
5 -1 -7 90.09 4.45
5 -1 -7 82.47 3.96
-5 1 7 81.99 4.25
-5 1 6 56.08 5.33
-5 1 6 54.13 5.27
5 -1 -6 48.29 4.26
-5 1 6 59.53 5.5
-5 1 5 93.09 8.27
5 -1 -5 78.43 6.66
5 -1 -5 93.84 8.87
-5 1 5 95.55 8.3
5 -1 -4 1375.84 31.14
-5 1 4 1296.98 29.86
-5 1 3 318.8 14.96
-5 1 3 293.18 14.44
-5 1 2 81.44 8.78
-5 1 2 64.76 8.39
-5 1 2 69.44 7.05
-5 1 1 104.11 8.42
-5 1 1 89.91 7.14
-5 1 0 1599.94 42.63
-5 1 0 1421.38 31.59
-5 1 -1 101.2 9.42
-5 1 -1 98.58 9.2
-5 1 -1 87.77 6.78
-5 1 -1 92.85 8.07
-5 1 -2 208.9 11.6
-5 1 -2 187.84 8.19
-5 1 -2 204.49 9.95
-5 0 7 326.9 11.42
5 0 -7 312.51 11.48
-5 0 6 105.39 8.79
5 0 -6 97.91 7.52
5 0 -6 95.31 6.77
-5 0 5 296.93 14.67
5 0 -5 336.3 15.31
5 0 -5 346.68 14.05
-5 0 5 345.4 16.2
-5 0 4 386.53 16.59
-5 0 4 466.54 17.69
5 0 -4 456.28 18.53
-5 0 4 387.15 20.37
-5 0 4 415.18 17.11
-5 0 3 361.21 15.1
-5 0 3 335.06 14.22
-5 0 1 785.04 27.24
-5 0 1 766.86 30.96
-5 0 1 747.88 25.58
-5 0 0 9.05 3.67
-5 0 0 10.75 3.81
-5 0 0 5.34 3.14
-5 0 0 8.11 3.15
-5 0 -1 597.02 23.99
-5 0 -1 554.19 20.28
-5 0 -1 602.31 22.36
-5 0 -2 54.71 5.66
-5 0 -2 42.43 4.41
-5 0 -2 49.39 4.36
-5 0 -2 50.37 5.31
-5 -1 7 0.16 0.95
5 1 -7 3.75 1.77
5 1 -7 1.41 1.44
-5 -1 7 2.08 1.71
-5 -1 7 0.4 1.23
-5 -1 6 9.43 3.23
-5 -1 6 8.55 2.42
5 1 -6 13.12 3.24
-5 -1 6 10.41 3.09
-5 -1 5 1.48 1.54
5 1 -5 1.12 1.93
-5 -1 5 0.59 1.6
-5 -1 5 2.64 2.78
-5 -1 4 1859.67 48.02
-5 -1 4 1896.49 51.31
-5 -1 3 11.92 4.03
-5 -1 3 7.75 3.99
-5 -1 3 4.48 2.25
-5 -1 3 11.13 4.31
-5 -1 2 35.6 6.96
-5 -1 2 29.08 4.37
-5 -1 2 34.96 6.53
-5 -1 1 22.16 5.2
-5 -1 1 11.61 3.82
-5 -1 1 11.92 4.33
-5 -1 1 16.9 3.43
-5 -1 0 948.56 30.1
-5 -1 0 866.22 28.39
-5 -1 -1 11.58 3.33
-5 -1 -1 9.97 2.87
-5 -1 -1 9.72 2.55
5 2 -8 136.87 4.56
-5 -2 7 315.1 11.47
5 2 -6 32.88 4.5
5 2 -6 32.6 4.13
-5 -2 6 30.48 5.39
-5 -2 5 445.51 19.88
5 2 -5 410.4 15.54
-5 -2 5 443.01 22.84
-5 -2 4 3.13 2.72
-5 -2 4 0.6 2.43
-5 -2 3 1414.75 40.27
-5 -2 3 1503.07 37.46
-5 -2 2 9.96 4.04
-5 -2 2 5.22 2.86
-5 -2 2 3.06 2.69
-5 -2 1 94.08 7.75
-5 -2 1 94.49 8.95
-5 -2 1 102.48 9.89
-5 -2 0 82.83 6.62
-5 -2 0 96.53 7.89
-5 -2 0 105.44 8.09
-5 -3 7 199.06 8.22
5 3 -7 191.2 6.31
-5 -3 6 90.14 7.01
5 3 -6 92.27 5.62
-5 -3 6 99.59 8.28
-5 -3 5 154.1 11.06
-5 -3 5 183.67 11.82
-5 -3 4 552.77 20.38
-5 -3 3 246.98 11.99
-5 -3 3 268.84 11.74
-5 -3 2 113.75 7.4
-5 -3 2 112.26 8.3
-5 -3 2 121.85 7.37
-5 -3 2 134.99 9.3
-5 -3 1 95.27 5.06
-5 -3 1 96.09 6.47
-6 2 3 4.08 1.47
-6 2 2 158.98 7.72
-6 2 1 61.89 4.61
-6 1 5 67.16 4.3
6 -1 -5 93.82 5.02
-6 1 4 29.46 3.3
-6 1 4 38.69 4.42
6 -1 -4 43.68 4.24
-6 1 3 511.11 16.37
-6 1 2 0.76 1.51
-6 1 1 41.22 4.5
-6 1 1 48.31 4.6
-6 1 0 33.28 3.33
-6 1 0 34.23 3.09
6 0 -5 79.77 5.92
-6 0 4 101.34 5.98
6 0 -4 157.25 9.31
-6 0 3 367.45 12.1
-6 0 2 257.99 12.24
-6 0 2 261.64 12.88
-6 0 1 387.95 14.38
-6 0 1 394.81 14.27
-6 0 1 362.17 11.54
-6 0 0 136.15 6.16
-6 0 0 122.32 5.85
6 1 -6 19.22 2.27
-6 -1 5 310.07 10.45
-6 -1 4 9.65 2.7
-6 -1 3 899.2 22.92
-6 -1 3 895.35 24.99
-6 -1 2 80.8 5.85
-6 -1 2 65.12 5.97
-6 -1 2 86.56 6.42
-6 -1 1 116.71 6.24
-6 -1 1 129.95 6.23
-6 -2 4 44.28 3.98
-6 -2 3 8.16 1.85
-6 -2 3 10.65 1.97
loop_
_exptl_crystal_face_index_h
_exptl_crystal_face_index_k
_exptl_crystal_face_index_l
_exptl_crystal_face_perp_dist
0 1 -1 0.0341
0 -1 1 0.0261
-3 0 4 0.0447
1 0 -1 0.0684
-1 0 0 0.0489
1 0 0 0.0653
0 0 -1 0.0154
0 0 1 0.0120
0 1 0 0.0262
0 -1 0 0.0264
loop_
_geom_angle_atom_site_label_1
_geom_angle_atom_site_label_2
_geom_angle_atom_site_label_3
_geom_angle
_geom_angle_site_symmetry_1
_geom_angle_site_symmetry_3
_geom_angle_publ_flag
O1 Cu1 O1 180.0 2_666 . ?
O2 Cu1 O1 89.0(3) . . ?
O2 Cu1 O1 91.0(3) . 2_666 ?
O2 Cu1 O1 91.0(3) 2_666 . ?
O2 Cu1 O1 89.0(3) 2_666 2_666 ?
O2 Cu1 O2 180.0 2_666 . ?
O5 Cu1 O1 89.1(2) 1_545 . ?
O5 Cu1 O1 89.1(2) 2_676 2_666 ?
O5 Cu1 O1 90.9(2) 2_676 . ?
O5 Cu1 O1 90.9(2) 1_545 2_666 ?
O5 Cu1 O2 82.5(3) 1_545 . ?
O5 Cu1 O2 82.5(3) 2_676 2_666 ?
O5 Cu1 O2 97.5(3) 2_676 . ?
O5 Cu1 O2 97.5(3) 1_545 2_666 ?
O5 Cu1 O5 180.0 2_676 1_545 ?
O1 Cu2 O1 180.0 2 . ?
O3 Cu2 O1 91.4(2) 2_666 . ?
O3 Cu2 O1 88.6(2) 2_666 2 ?
O3 Cu2 O1 88.6(2) 1_444 . ?
O3 Cu2 O1 91.4(2) 1_444 2 ?
O3 Cu2 O3 180.0 2_666 1_444 ?
O4 Cu2 O1 83.0(2) 1_544 . ?
O4 Cu2 O1 97.0(2) 1_544 2 ?
O4 Cu2 O1 97.0(2) 2_566 . ?
O4 Cu2 O1 83.0(2) 2_566 2 ?
O4 Cu2 O3 85.5(3) 1_544 1_444 ?
O4 Cu2 O3 85.5(3) 2_566 2_666 ?
O4 Cu2 O3 94.5(3) 1_544 2_666 ?
O4 Cu2 O3 94.5(3) 2_566 1_444 ?
O4 Cu2 O4 180.0 2_566 1_544 ?
O3 S1 O2 109.1(4) . . ?
O4 S1 O2 108.2(4) . . ?
O4 S1 O3 108.8(4) . . ?
O5 S1 O2 112.1(4) . . ?
O5 S1 O3 107.8(4) . . ?
O5 S1 O4 110.9(4) . . ?
Cu2 O1 Cu1 119.4(3) . . ?
H1a O1 Cu1 92(9) . . ?
H1a O1 Cu2 110(9) . . ?
H1b O1 Cu1 119(10) . . ?
H1b O1 Cu2 93(10) . . ?
H1b O1 H1a 125(13) . . ?
S1 O2 Cu1 130.9(4) . . ?
S1 O3 Cu2 131.6(4) . 2_666 ?
S1 O4 Cu2 136.3(4) . 1_566 ?
S1 O5 Cu1 134.7(4) . 1_565 ?
loop_
_geom_bond_atom_site_label_1
_geom_bond_atom_site_label_2
_geom_bond_distance
_geom_bond_site_symmetry_2
_geom_bond_publ_flag
Cu1 O1 2.018(6) 2_666 ?
Cu1 O1 2.018(6) . ?
Cu1 O2 1.967(6) . ?
Cu1 O2 1.967(6) 2_666 ?
Cu1 O5 2.289(6) 2_676 ?
Cu1 O5 2.289(6) 1_545 ?
Cu2 O1 2.422(7) 2 ?
Cu2 O1 2.422(7) . ?
Cu2 O3 1.946(6) 2_666 ?
Cu2 O3 1.946(6) 1_444 ?
Cu2 O4 1.971(6) 2_566 ?
Cu2 O4 1.971(6) 1_544 ?
S1 O2 1.472(7) . ?
S1 O3 1.499(7) . ?
S1 O4 1.476(7) . ?
S1 O5 1.450(7) . ?
O1 H1a 0.992(19) . ?
O1 H1b 0.992(19) . ?
loop_
_geom_hbond_atom_site_label_D
_geom_hbond_atom_site_label_H
_geom_hbond_atom_site_label_A
_geom_hbond_distance_DH
_geom_hbond_distance_HA
_geom_hbond_distance_DA
_geom_hbond_angle_DHA
_geom_hbond_site_symmetry_A
O1 H1a O3 0.992(19) 1.70(3) 2.692(9) 173(14) 2_676
O1 H1b O2 0.992(19) 1.91(9) 2.808(9) 150(14) 2_566
O1 H1b O5 0.992(19) 2.38(13) 3.088(9) 128(12) 2_576
loop_
_geom_torsion_atom_site_label_1
_geom_torsion_atom_site_label_2
_geom_torsion_atom_site_label_3
_geom_torsion_atom_site_label_4
_geom_torsion
_geom_torsion_site_symmetry_1
_geom_torsion_site_symmetry_2
_geom_torsion_site_symmetry_3
_geom_torsion_site_symmetry_4
_geom_torsion_publ_flag
Cu1 O2 S1 O3 -50.9(6) . . . . ?
Cu1 O2 S1 O3 -50.9(6) 2_666 . . . ?
Cu1 O2 S1 O4 -169.0(5) . . . . ?
Cu1 O2 S1 O4 -169.0(5) 2_666 . . . ?
Cu1 O2 S1 O5 68.4(6) . . . . ?
Cu1 O2 S1 O5 68.4(6) 2_666 . . . ?
Cu1 O5 S1 O2 -124.8(5) 1_565 . . . ?
Cu1 O5 S1 O2 -124.8(5) 2_676 . . . ?
Cu1 O5 S1 O3 -4.8(6) 1_565 . . . ?
Cu1 O5 S1 O3 -4.8(6) 2_676 . . . ?
Cu1 O5 S1 O4 114.2(6) 1_565 . . . ?
Cu1 O5 S1 O4 114.2(6) 2_676 . . . ?
Cu2 O3 S1 O2 -34.5(6) 1_666 . . . ?
Cu2 O3 S1 O2 -34.5(6) 2_666 . . . ?
Cu2 O3 S1 O4 83.2(6) 1_666 . . . ?
Cu2 O3 S1 O4 83.2(6) 2_666 . . . ?
Cu2 O3 S1 O5 -156.4(5) 1_666 . . . ?
Cu2 O3 S1 O5 -156.4(5) 2_666 . . . ?
Cu2 O4 S1 O2 -5.6(7) 1_566 . . . ?
Cu2 O4 S1 O2 -5.6(7) 2_566 . . . ?
Cu2 O4 S1 O3 -123.9(6) 2_566 . . . ?
Cu2 O4 S1 O3 -123.9(6) 1_566 . . . ?
Cu2 O4 S1 O5 117.8(6) 2_566 . . . ?
Cu2 O4 S1 O5 117.8(6) 1_566 . . . ?
loop_
_restr_distance_atom_site_label_1
_restr_distance_atom_site_label_2
_restr_distance_site_symmetry_2
_restr_distance_target
_restr_distance_target_weight_param
_restr_distance_diff
O1 H1a 1 0.9890 0.0200 -0.0029
O1 H1b 1 0.9890 0.0200 -0.0026
loop_
_restr_U_iso_atom_site_label
_restr_U_iso_weight_param
O1 0.0500
O2 0.0500
O3 0.0010
O4 0.0010
O5 0.0010
loop_
_exptl_oxdiff_crystal_face_indexfrac_h
_exptl_oxdiff_crystal_face_indexfrac_k
_exptl_oxdiff_crystal_face_indexfrac_l
_exptl_oxdiff_crystal_face_x
_exptl_oxdiff_crystal_face_y
_exptl_oxdiff_crystal_face_z
0.0002 0.9989 -0.9993 0.2765 -0.1627 0.0233
-0.0002 -0.9989 0.9993 -0.2765 0.1627 -0.0233
-2.8135 -0.0051 3.5821 -0.6759 -0.7127 0.1876
1.0013 0.0010 -1.0016 0.2043 0.2316 -0.1126
-0.6680 -0.3336 0.3344 -0.1404 -0.0461 0.1793
0.6680 0.3336 -0.3344 0.1404 0.0461 -0.1793
-0.0006 0.0001 -0.9996 0.1321 0.0811 0.1680
0.0006 -0.0001 0.9996 -0.1321 -0.0811 -0.1680
0.0008 0.9988 0.0003 0.1445 -0.2438 -0.1447
-0.0008 -0.9988 -0.0003 -0.1445 0.2438 0.1447
