#------------------------------------------------------------------------------
#$Date: 2022-09-06 13:11:54 +0300 (Tue, 06 Sep 2022) $
#$Revision: 277669 $
#$URL: file:///home/coder/svn-repositories/cod/cif/7/06/16/7061696.cif $
#------------------------------------------------------------------------------
#
# This file is available in the Crystallography Open Database (COD),
# http://www.crystallography.net/
#
# All data on this site have been placed in the public domain by the
# contributors.
#
data_7061696
loop_
_publ_author_name
'Vatsa, Aditi'
'Padhi, Sumanta Kumar'
_publ_section_title
;
 Formic acid dehydrogenation by [Ru(\h6-benzene)(L)Cl] catalysts: L =
 2-methylquinolin-8-olate and quinolin-8-olate
;
_journal_issue                   32
_journal_name_full               'New Journal of Chemistry'
_journal_page_first              15723
_journal_page_last               15731
_journal_paper_doi               10.1039/D2NJ03121C
_journal_volume                  46
_journal_year                    2022
_chemical_formula_moiety         '2(C16 H14 Cl N O Ru)'
_chemical_formula_sum            'C32 H28 Cl2 N2 O2 Ru2'
_chemical_formula_weight         745.63
_space_group_crystal_system      triclinic
_space_group_IT_number           2
_space_group_name_Hall           '-P 1'
_space_group_name_H-M_alt        'P -1'
_symmetry_Int_Tables_number      2
_atom_sites_solution_primary     iterative
_audit_block_doi                 10.5517/ccdc.csd.cc28xgzn
_audit_creation_date             2021-09-28
_audit_creation_method
;
Olex2 1.2
(compiled 2018.05.29 svn.r3508 for OlexSys, GUI svn.r5506)
;
_audit_update_record
;
2021-09-28 deposited with the CCDC.	2022-07-26 downloaded from the CCDC.
;
_cell_angle_alpha                91.151(7)
_cell_angle_beta                 91.017(7)
_cell_angle_gamma                98.196(7)
_cell_formula_units_Z            1
_cell_length_a                   7.5620(7)
_cell_length_b                   9.2366(8)
_cell_length_c                   9.7047(8)
_cell_measurement_reflns_used    5381
_cell_measurement_temperature    293(2)
_cell_measurement_theta_max      29.1400
_cell_measurement_theta_min      2.6860
_cell_volume                     670.64(10)
_computing_cell_refinement
;
'CrysAlisPro 1.171.39.29c (Rigaku OD, 2017)'
;
_computing_data_collection
;
'CrysAlisPro 1.171.39.29c (Rigaku OD, 2017)'
;
_computing_data_reduction
;
'CrysAlisPro 1.171.39.29c (Rigaku OD, 2017)'
;
_computing_molecular_graphics    'Olex2 (Dolomanov et al., 2009)'
_computing_publication_material  'Olex2 (Dolomanov et al., 2009)'
_computing_structure_refinement  'olex2.refine (Bourhis et al., 2015)'
_computing_structure_solution    'olex2.solve (Bourhis et al., 2015)'
_diffrn_ambient_temperature      293.15
_diffrn_detector                 'CCD plate'
_diffrn_detector_area_resol_mean 16.0606
_diffrn_detector_type            EosS2
_diffrn_measured_fraction_theta_full 0.9902
_diffrn_measured_fraction_theta_max 0.9902
_diffrn_measurement_details
;
List of Runs (angles in degrees, time in seconds):

  # Type    Start    End  Width  t~exp~   \w     \q     \k     \f   Frames
#--------------------------------------------------------------------------
  1  \w     -1.00  67.00   1.00   15.91    --   13.76  57.00   0.00   68
  2  \w    -52.00  18.00   1.00   15.91    --   13.76 -57.00 -60.00   70
  3  \w    -79.00  -1.00   1.00   15.91    --  -15.95 -57.00 150.00   78
  4  \w    -41.00  51.00   1.00   15.91    --  -15.95  77.00-180.00   92
  5  \w    -84.00  -3.00   1.00   15.91    --  -15.95 -19.00-150.00   81
  6  \w    -80.00   7.00   1.00   15.91    --  -15.95 -77.00  60.00   87
  7  \w    -71.00 -21.00   1.00   15.91    --  -15.95 129.00-147.41   50
  8  \w    -79.00 -37.00   1.00   15.91    --  -15.95-178.00 -90.00   42
  9  \w    -67.00 -37.00   1.00   15.91    --  -15.95 123.00 -62.15   30
 10  \w    -76.00 -22.00   1.00   15.91    --  -15.95 137.00  37.29   54
;
_diffrn_measurement_device       'four-circle diffractometer'
_diffrn_measurement_device_type  'SuperNova, Single source at offset/far, EosS2'
_diffrn_measurement_method       \w-scans
_diffrn_measurement_specimen_support 'Mitegen 50um'
_diffrn_orient_matrix_type
'CrysAlisPro convention (1999,Acta A55,543-557)'
_diffrn_orient_matrix_UB_11      0.0457895000
_diffrn_orient_matrix_UB_12      0.0538743000
_diffrn_orient_matrix_UB_13      0.0459807000
_diffrn_orient_matrix_UB_21      -0.0692544000
_diffrn_orient_matrix_UB_22      -0.0150828000
_diffrn_orient_matrix_UB_23      0.0482140000
_diffrn_orient_matrix_UB_31      0.0457349000
_diffrn_orient_matrix_UB_32      -0.0537827000
_diffrn_orient_matrix_UB_33      0.0301261000
_diffrn_radiation_collimation    0.3
_diffrn_radiation_monochromator  mirror
_diffrn_radiation_probe          x-ray
_diffrn_radiation_type           'Mo K\a'
_diffrn_radiation_wavelength     0.71073
_diffrn_reflns_av_R_equivalents  0.0671
_diffrn_reflns_av_unetI/netI     0.0690
_diffrn_reflns_limit_h_max       10
_diffrn_reflns_limit_h_min       -10
_diffrn_reflns_limit_k_max       12
_diffrn_reflns_limit_k_min       -12
_diffrn_reflns_limit_l_max       13
_diffrn_reflns_limit_l_min       -12
_diffrn_reflns_number            10363
_diffrn_reflns_theta_full        24.9971
_diffrn_reflns_theta_max         25.00
_diffrn_reflns_theta_min         2.10
_diffrn_source                   'micro-focus sealed X-ray tube'
_diffrn_source_current           24.0
_diffrn_source_power             1.2
_diffrn_source_target            Mo
_diffrn_source_type              'SuperNova (Mo) X-ray Source'
_diffrn_source_voltage           50.0
_exptl_absorpt_coefficient_mu    1.361
_exptl_absorpt_correction_T_max  0.741
_exptl_absorpt_correction_T_min  0.691
_exptl_absorpt_correction_type   multi-scan
_exptl_absorpt_process_details
;
CrysAlisPro 1.171.39.29c (Rigaku Oxford Diffraction, 2017)
Empirical absorption correction using spherical harmonics,
 implemented in SCALE3 ABSPACK scaling algorithm.
;
_exptl_crystal_colour            Orange
_exptl_crystal_density_diffrn    1.8461
_exptl_crystal_description       block
_exptl_crystal_F_000             369.9242
_exptl_crystal_size_max          0.28
_exptl_crystal_size_mid          0.26
_exptl_crystal_size_min          0.22
_refine_diff_density_max         0.7957
_refine_diff_density_min         -0.6459
_refine_diff_density_rms         0.1354
_refine_ls_d_res_high            0.8410
_refine_ls_d_res_low             9.7006
_refine_ls_goodness_of_fit_ref   0.9893
_refine_ls_hydrogen_treatment    constr
_refine_ls_matrix_type           full
_refine_ls_number_constraints    26
_refine_ls_number_parameters     182
_refine_ls_number_reflns         2331
_refine_ls_number_restraints     0
_refine_ls_restrained_S_all      0.9893
_refine_ls_R_factor_all          0.0404
_refine_ls_R_factor_gt           0.0331
_refine_ls_shift/su_max          0.0000
_refine_ls_shift/su_mean         0.0000
_refine_ls_structure_factor_coef Fsqd
_refine_ls_weighting_details
'w=1/[\s^2^(Fo^2^)+(0.0330P)^2^] where P=(Fo^2^+2Fc^2^)/3'
_refine_ls_weighting_scheme      calc
_refine_ls_wR_factor_gt          0.0661
_refine_ls_wR_factor_ref         0.0680
_reflns_Friedel_coverage         0.0
_reflns_limit_h_max              8
_reflns_limit_h_min              -8
_reflns_limit_k_max              10
_reflns_limit_k_min              -10
_reflns_limit_l_max              11
_reflns_limit_l_min              0
_reflns_number_gt                2064
_reflns_number_total             2331
_reflns_threshold_expression     I>=2u(I)
_iucr_refine_instructions_details
;
TITL 
CELL 0.71073 7.562 9.2366 9.7047 91.151 91.017 98.196
ZERR 1 0.0007 0.0008 0.0008 0.007 0.007 0.007
LATT 1
SFAC C H N O Cl Ru
UNIT 16 14 1 1 1 1

L.S. 20
PLAN  3
fmap 2
acta 
OMIT -3 50
OMIT 1 -10 0
OMIT -1 10 0
OMIT 2 0 1
OMIT 1 -9 1
OMIT 0 5 7
OMIT -2 1 4
OMIT -1 -3 3
OMIT -1 -2 3
OMIT 2 1 0
OMIT -1 0 2
OMIT 0 4 3
OMIT -1 0 1
OMIT -2 0 2
OMIT 1 -1 5
OMIT 1 -7 2
OMIT 2 -1 1
OMIT -1 9 4
OMIT 1 -3 4
OMIT 2 -3 2
OMIT -3 -1 3
OMIT 0 -1 1
OMIT 1 -8 2
OMIT -2 1 2
OMIT 2 -3 5
OMIT 0 6 11
WGHT 0.032974 0
FVAR 0.709452
REM <olex2.extras>
REM <HklSrc "%.\\R2M8HQ.hkl">
REM </olex2.extras>

Ru1   6     0.27714  0.25140  0.34541  11.00000  0.02148  0.02639  0.02041 =
 0.00611  0.00373  0.00511 
N1    3     0.27246  0.35833  0.15183  11.00000  0.01908  0.02815  0.01955 =
 0.00377  0.00302  0.00063 
O1    4     0.18634  0.44135  0.40557  11.00000  0.04825  0.03299  0.02065 =
 0.00418  0.00628  0.01605 
C16   1     0.39922  0.04749  0.33597  11.00000  0.03277  0.02612  0.04295 =
 0.00400 -0.00448  0.01269 
AFIX 43
H16   2     0.38534 -0.03156  0.27392  11.00000 -1.20000 
AFIX 0
C11   1     0.29002  0.04730  0.45194  11.00000  0.03322  0.03102  0.03504 =
 0.01756 -0.00255  0.00599 
AFIX 43
H11   2     0.20046 -0.03107  0.46474  11.00000 -1.20000 
AFIX 0
C12   1     0.31465  0.16394  0.54850  11.00000  0.03459  0.04832  0.01989 =
 0.01403  0.00150  0.01343 
AFIX 43
H12   2     0.24308  0.16234  0.62556  11.00000 -1.20000 
AFIX 0
C5    1     0.14352  0.72629  0.08594  11.00000  0.03229  0.03165  0.04235 =
 0.01762 -0.00472 -0.00038 
AFIX 43
H5    2     0.13621  0.79158  0.01504  11.00000 -1.20000 
AFIX 0
C7    1     0.10493  0.66502  0.32565  11.00000  0.03426  0.03313  0.03304 =
 -0.00268 -0.00304  0.00624 
AFIX 43
H7    2     0.06828  0.69048  0.41271  11.00000 -1.20000 
AFIX 0
C8    1     0.16962  0.53223  0.30512  11.00000  0.02497  0.02689  0.02539 =
 0.00262 -0.00442  0.00073 
C13   1     0.44979  0.28444  0.52753  11.00000  0.03543  0.04389  0.02668 =
 -0.00181 -0.01148  0.00828 
AFIX 43
H13   2     0.46571  0.36236  0.59083  11.00000 -1.20000 
AFIX 0
C3    1     0.24715  0.54149 -0.07244  11.00000  0.03586  0.04614  0.02768 =
 0.01644  0.00329 -0.00623 
AFIX 43
H3    2     0.24216  0.60080 -0.14832  11.00000 -1.20000 
AFIX 0
C14   1     0.55931  0.28713  0.41252  11.00000  0.02139  0.03743  0.03989 =
 0.00784 -0.00679 -0.00070 
AFIX 43
H14   2     0.64981  0.36489  0.40012  11.00000 -1.20000 
AFIX 0
C1    1     0.30504  0.31332  0.02612  11.00000  0.02368  0.04168  0.02652 =
 0.00114  0.00689 -0.00062 
C4    1     0.20507  0.59179  0.05926  11.00000  0.02447  0.03273  0.03081 =
 0.01158 -0.00209 -0.00713 
C9    1     0.21893  0.49634  0.16988  11.00000  0.01882  0.02701  0.02430 =
 0.00478  0.00105 -0.00216 
C15   1     0.52973  0.16938  0.31555  11.00000  0.02182  0.04121  0.03823 =
 0.00929  0.00563  0.01218 
AFIX 43
H15   2     0.59800  0.17258  0.23661  11.00000 -1.20000 
AFIX 0
C2    1     0.29509  0.40587 -0.08817  11.00000  0.03730  0.05715  0.01521 =
 0.00399  0.00736 -0.00685 
AFIX 43
H2    2     0.32192  0.37297 -0.17548  11.00000 -1.20000 
AFIX 0
C10   1     0.34074  0.15964  0.00017  11.00000  0.05166  0.04874  0.03197 =
 -0.00905  0.00330  0.01097 
AFIX 137
H10a  2     0.46732  0.15753  0.00236  11.00000 -1.50000 
H10b  2     0.28560  0.09753  0.07014  11.00000 -1.50000 
H10c  2     0.29216  0.12548 -0.08861  11.00000 -1.50000 
AFIX 0
C6    1     0.09472  0.76072  0.21561  11.00000  0.03023  0.02633  0.05394 =
 0.00659 -0.00626  0.00272 
AFIX 43
H6    2     0.05364  0.84962  0.23187  11.00000 -1.20000 
AFIX 0
Cl1   5    -0.02894  0.15685  0.28228  11.00000  0.02091  0.04859  0.04405 =
 0.01712  0.00225  0.00218 
HKLF 4

END
Q1 1 0.166667 0.259259 0.3 11 0.05 0.8
Q2 1 0.375 0.222222 0.4 11 0.05 0.76
Q3 1 0.25 0.148148 0.3 11 0.05 0.63

  REM The information below was added by Olex2.
  REM
  REM R1 = 0.0331 for 2064 Fo > 4sig(Fo) and 0.0404 for all 2331 data
  REM 182 parameters refined using 0 restraints
  REM Highest difference peak 0.7957, deepest hole -0.6459
  REM Mean Shift 0.0000, Max Shift 0.0000.

  REM +++ Tabular Listing of Refinement Information +++
  REM R1_all = 0.0404
  REM R1_gt = 0.0331
  REM wR_ref = 0.0680
  REM GOOF = 0.9893
  REM Shift_max = 0.0000
  REM Shift_mean = 0.0000
  REM Reflections_all = 2331
  REM Reflections_gt = 2064
  REM Parameters = 182
  REM Hole = -0.6459
  REM Peak = 0.7957
  REM Flack = n/a

  
;
_cod_data_source_file            d2nj03121c2.cif
_cod_data_source_block           R2M8HQ
_cod_depositor_comments
'Adding full bibliography for 7061695--7061696.cif.'
_cod_database_code               7061696
_chemical_oxdiff_formula         'C33 H30 N3 O3 Br1 '
_reflns_odcompleteness_completeness 100.00
_reflns_odcompleteness_iscentric 1
_reflns_odcompleteness_theta     26.32
_olex2_refinement_description
;
1. Fixed Uiso
 At 1.2 times of:
  All C(H) groups
 At 1.5 times of:
  All C(H,H,H) groups
2.a Aromatic/amide H refined with riding coordinates:
 C16(H16), C11(H11), C12(H12), C5(H5), C7(H7), C13(H13), C3(H3), C14(H14),
 C15(H15), C2(H2), C6(H6)
2.b Idealised Me refined as rotating group:
 C10(H10a,H10b,H10c)
;
_iucr_refine_fcf_details
;
data_R2M8HQ_CCDC1
_computing_structure_refinement   'olex2.refine (Bourhis et al., 2015)'
_shelx_refln_list_code            4
loop_
  _space_group_symop_id
  _space_group_symop_operation_xyz
  1  x,y,z
  2  -x,-y,-z

_space_group_crystal_system       triclinic
_space_group_IT_number            2
_space_group_name_H-M_alt         'P -1'
_space_group_name_Hall            '-P 1'
_symmetry_space_group_name_H-M    'P -1'
_symmetry_space_group_name_Hall   '-P 1'
_symmetry_Int_Tables_number       2
_cell_length_a                    7.5620(7)
_cell_length_b                    9.2366(8)
_cell_length_c                    9.7047(8)
_cell_angle_alpha                 91.151(7)
_cell_angle_beta                  91.017(7)
_cell_angle_gamma                 98.196(7)
_cell_volume                      670.64(10)
loop_
  _refln_index_h
  _refln_index_k
  _refln_index_l
  _refln_F_squared_calc
  _refln_F_squared_meas
  _refln_F_squared_sigma
  _refln_F_squared_weight
  _refln_observed_status
-8 -3 1 53.656 55.262 15.631 130.622 o
-8 -3 2 48.462 45.700 14.562 150.727 o
-8 -2 1 81.059 99.897 18.615 91.119 o
-8 -2 2 122.846 133.224 20.906 71.150 o
-8 -2 3 164.208 155.735 21.962 63.314 o
-8 -2 4 36.137 43.651 14.869 145.160 o
-8 -1 1 194.162 183.748 23.106 56.380 o
-8 -1 2 14.943 11.297 10.692 282.282 o
-8 -1 3 124.926 113.182 19.261 83.559 o
-8 -1 4 557.945 541.036 38.992 17.456 o
-8 0 1 248.756 250.240 25.410 45.331 o
-8 0 2 1153.650 1093.590 78.278 4.297 o
-8 0 3 366.687 341.681 29.355 32.288 o
-8 0 4 44.284 51.475 15.450 134.116 o
-8 0 5 1022.760 952.764 63.814 6.268 o
-8 1 1 424.327 444.835 31.896 26.512 o
-8 1 2 5.555 15.355 8.936 404.405 o
-8 1 3 943.873 890.887 55.163 8.132 o
-8 1 4 865.199 839.079 66.657 6.169 o
-8 1 5 15.847 15.743 14.900 145.441 o
-8 2 1 402.092 385.016 22.198 48.718 o
-8 2 2 1072.810 1049.560 54.549 7.681 o
-8 2 3 407.502 372.894 25.971 38.263 o
-8 2 4 104.461 89.027 22.381 63.188 o
-8 2 5 807.468 784.288 56.683 8.272 o
-8 3 1 565.604 536.682 25.858 32.179 o
-8 3 2 28.776 37.011 9.771 334.813 o
-8 3 3 888.193 811.586 41.589 12.735 o
-8 3 4 79.956 65.890 19.800 81.188 o
-8 3 5 10.444 -2.904 14.430 155.236 o
-8 4 1 521.627 528.150 28.313 29.393 o
-8 4 2 945.879 971.607 38.168 13.210 o
-8 4 3 257.235 278.182 27.933 37.762 o
-8 4 4 677.605 660.517 47.793 11.650 o
-8 5 1 410.779 417.833 25.428 38.851 o
-8 5 2 52.278 45.937 13.003 188.181 o
-8 5 3 596.752 595.355 37.831 17.785 o
-8 6 1 440.299 479.780 31.902 26.046 o
-8 6 2 401.721 428.874 31.084 28.121 o
-7 -5 1 46.342 53.052 18.868 90.165 o
-7 -5 2 522.744 492.411 35.171 21.232 o
-7 -5 3 113.031 103.003 23.924 55.225 o
-7 -4 1 148.669 153.165 24.998 49.783 o
-7 -4 2 62.578 62.447 15.060 139.928 o
-7 -4 3 350.282 345.503 29.430 32.386 o
-7 -4 4 573.032 580.135 38.791 17.337 o
-7 -3 1 39.306 51.304 20.271 78.289 o
-7 -3 2 656.863 686.491 38.919 16.181 o
-7 -3 3 582.388 547.921 35.333 20.171 o
-7 -3 4 12.523 28.151 12.023 223.132 o
-7 -3 5 1178.500 1147.760 51.159 7.883 o
-7 -2 1 801.865 757.868 34.997 17.028 o
-7 -2 2 312.731 297.283 26.363 40.519 o
-7 -2 3 214.674 221.186 23.348 54.220 o
-7 -2 4 1192.530 1217.960 55.204 7.004 o
-7 -2 5 74.761 78.337 15.857 125.444 o
-7 -2 6 699.091 651.336 39.716 15.508 o
-7 -1 1 56.496 50.767 9.066 378.419 o
-7 -1 2 1418.200 1415.670 91.292 3.074 o
-7 -1 3 408.542 421.711 30.314 29.275 o
-7 -1 4 4.280 8.012 10.358 301.232 o
-7 -1 5 1405.770 1355.650 127.443 1.763 o
-7 -1 6 426.279 422.893 42.926 15.854 o
-7 -1 7 116.400 117.756 26.425 45.337 o
-7 0 1 2036.200 2147.140 118.394 1.730 o
-7 0 2 91.790 83.703 16.120 120.413 o
-7 0 3 1214.840 1254.910 77.356 4.241 o
-7 0 4 914.485 881.098 84.588 4.020 o
-7 0 5 0.632 13.068 14.325 157.540 o
-7 0 6 669.995 616.832 75.926 5.192 o
-7 0 7 543.491 551.011 54.240 9.899 o
-7 1 1 1076.160 1109.200 50.856 8.351 o
-7 1 2 2584.280 2510.950 179.382 0.823 o
-7 1 3 420.482 395.994 27.120 35.129 o
-7 1 4 270.107 253.402 19.162 72.937 o
-7 1 5 951.760 878.818 71.575 5.337 o
-7 1 6 280.114 292.577 52.770 11.255 o
-7 1 7 120.160 110.670 24.986 50.579 o
-7 2 1 1295.690 1231.130 35.335 10.727 o
-7 2 2 22.847 32.410 10.203 308.360 o
-7 2 3 976.956 916.812 36.655 13.821 o
-7 2 4 629.559 601.615 29.671 24.895 o
-7 2 5 2.596 7.265 12.893 194.481 o
-7 2 6 286.951 256.744 34.175 25.838 o
-7 2 7 539.910 471.009 45.328 13.786 o
-7 3 1 606.877 591.503 27.811 27.700 o
-7 3 2 619.512 610.813 42.154 14.760 o
-7 3 3 14.960 14.712 8.380 458.831 o
-7 3 4 27.460 28.037 14.938 144.338 o
-7 3 5 144.679 141.952 25.006 49.910 o
-7 3 6 226.700 204.785 29.776 34.433 o
-7 3 7 7.196 2.512 13.374 180.717 o
-7 4 1 481.857 477.528 24.885 37.152 o
-7 4 2 2.041 4.031 6.811 696.756 o
-7 4 3 692.112 655.566 38.566 16.247 o
-7 4 4 68.232 57.826 16.681 114.317 o
-7 4 5 0.605 -5.638 13.092 188.626 o
-7 4 6 112.351 106.583 23.673 56.358 o
-7 5 1 202.703 201.320 16.872 98.222 o
-7 5 2 346.963 351.155 26.328 39.183 o
-7 5 3 363.614 393.142 29.242 32.113 o
-7 5 4 89.484 105.590 18.556 91.295 o
-7 5 5 290.022 289.761 39.855 19.246 o
-7 5 6 417.988 452.431 41.056 17.141 o
-7 6 1 90.123 82.057 13.463 170.553 o
-7 6 2 14.019 10.897 8.891 408.049 o
-7 6 3 297.261 286.268 24.248 47.427 o
-7 6 4 572.310 587.231 35.967 19.524 o
-7 6 5 65.523 102.059 26.087 47.054 o
-7 7 1 126.391 137.665 21.865 65.118 o
-7 7 2 144.800 154.690 27.040 42.820 o
-7 7 3 150.721 164.738 25.809 46.697 o
-6 -7 1 220.043 193.157 38.822 20.783 o
-6 -6 1 18.707 24.121 10.927 269.728 o
-6 -6 2 364.068 325.298 40.474 18.243 o
-6 -6 3 280.192 216.268 36.041 23.567 o
-6 -6 4 0.043 -2.632 13.842 168.744 o
-6 -5 1 1096.390 1063.210 43.665 10.143 o
-6 -5 2 317.258 250.808 30.171 32.170 o
-6 -5 3 564.467 528.989 52.425 10.495 o
-6 -5 4 926.979 872.505 48.953 9.814 o
-6 -5 5 153.152 163.530 26.911 43.058 o
-6 -5 6 460.928 471.572 48.772 12.372 o
-6 -4 1 85.734 67.102 16.936 110.073 o
-6 -4 2 1280.380 1175.810 53.703 7.073 o
-6 -4 3 892.458 874.398 58.578 7.544 o
-6 -4 4 129.163 178.790 26.523 44.497 o
-6 -4 5 888.357 919.628 39.115 13.424 o
-6 -4 6 258.493 238.731 30.609 32.140 o
-6 -3 1 1624.130 1470.130 105.394 2.343 o
-6 -3 2 44.310 48.685 12.025 220.127 o
-6 -3 3 1303.040 1367.330 60.950 5.750 o
-6 -3 4 939.243 939.476 60.405 7.016 o
-6 -3 5 9.978 22.551 11.130 260.551 o
-6 -3 6 837.902 798.190 37.817 14.902 o
-6 -3 7 14.081 24.077 19.008 89.403 o
-6 -2 1 160.984 193.959 19.654 77.264 o
-6 -2 2 1259.850 1211.330 57.845 6.430 o
-6 -2 3 266.164 273.635 14.014 117.625 o
-6 -2 4 566.418 567.610 31.009 24.663 o
-6 -2 5 832.348 826.380 40.228 13.653 o
-6 -2 6 261.751 256.990 30.580 32.050 o
-6 -2 7 46.325 70.303 30.915 33.715 o
-6 -2 8 108.359 117.350 30.825 33.549 o
-6 -1 1 838.280 885.748 29.182 19.656 o
-6 -1 2 0.000 1.667 4.845 1377.110 o
-6 -1 3 106.177 115.367 11.730 214.721 o
-6 -1 4 295.994 328.500 30.907 30.569 o
-6 -1 5 1.949 94.663 46.419 14.996 o
-6 -1 6 317.938 444.726 48.524 12.955 o
-6 -1 7 275.628 300.422 41.812 17.610 o
-6 -1 8 185.821 203.927 102.102 3.089 o
-6 0 1 516.021 496.371 30.126 27.173 o
-6 0 2 1316.080 1368.860 47.389 7.735 o
-6 0 3 2.425 10.956 6.385 792.512 o
-6 0 4 35.224 30.150 7.396 578.082 o
-6 0 5 518.661 501.335 37.900 18.770 o
-6 0 6 477.327 558.871 51.800 10.922 o
-6 0 7 89.845 118.878 32.673 29.983 o
-6 0 8 194.741 214.473 47.057 14.315 o
-6 1 1 645.686 787.889 44.770 12.796 o
-6 1 2 2.911 6.763 11.445 246.786 o
-6 1 3 412.243 359.652 17.835 66.318 o
-6 1 4 557.838 523.002 23.235 37.407 o
-6 1 5 308.685 276.532 49.323 12.782 o
-6 1 6 133.006 269.604 43.571 16.725 o
-6 1 7 659.448 665.101 143.844 1.527 o
-6 1 8 460.641 395.444 128.188 1.943 o
-6 2 1 520.759 553.660 27.266 30.766 o
-6 2 2 851.165 814.165 41.882 12.834 o
-6 2 3 511.301 472.472 17.152 57.300 o
-6 2 4 0.692 19.330 13.805 169.597 o
-6 2 5 583.585 551.642 55.696 9.347 o
-6 2 6 1311.840 1228.160 73.883 4.459 o
-6 2 7 43.080 74.926 23.530 58.066 o
-6 2 8 318.991 299.479 41.418 17.748 o
-6 3 1 683.139 680.188 22.249 32.299 o
-6 3 2 124.247 129.992 11.682 210.231 o
-6 3 3 50.467 47.886 6.788 663.233 o
-6 3 4 623.785 559.511 40.748 15.733 o
-6 3 5 682.909 689.891 37.921 16.592 o
-6 3 6 154.760 126.134 21.314 67.745 o
-6 3 7 1267.530 1140.640 113.168 2.239 o
-6 3 8 267.741 299.521 41.255 18.099 o
-6 4 1 7.316 10.780 4.697 1460.350 o
-6 4 2 343.142 340.710 15.423 88.502 o
-6 4 3 760.380 827.542 94.305 3.382 o
-6 4 4 163.217 152.810 18.482 87.534 o
-6 4 5 123.281 119.461 19.005 85.670 o
-6 4 6 937.308 814.642 44.415 11.358 o
-6 4 7 3.137 34.285 22.401 64.399 o
-6 4 8 626.319 738.730 62.467 7.379 o
-6 5 1 1031.520 1055.330 32.241 14.601 o
-6 5 2 222.237 222.913 16.235 101.864 o
-6 5 3 367.987 368.482 21.846 51.759 o
-6 5 4 2358.890 2207.110 56.374 3.604 o
-6 5 5 66.609 62.675 15.671 129.200 o
-6 5 6 273.762 242.316 26.096 42.743 o
-6 5 7 951.815 916.276 52.468 8.706 o
-6 6 1 28.437 28.865 7.615 549.180 o
-6 6 2 1076.680 1075.100 34.596 13.163 o
-6 6 3 858.841 835.216 32.321 17.647 o
-6 6 4 59.005 68.804 13.104 183.763 o
-6 6 5 957.372 899.928 38.111 13.417 o
-6 6 6 605.787 573.824 40.468 15.983 o
-6 7 1 571.682 579.152 25.127 32.663 o
-6 7 2 3.940 -3.448 9.959 325.976 o
-6 7 3 746.668 754.339 38.574 15.408 o
-6 7 4 1159.000 1074.980 48.883 8.552 o
-6 7 5 102.979 101.305 19.000 86.811 o
-6 8 1 94.510 94.197 14.575 145.561 o
-6 8 2 591.558 596.215 34.346 20.696 o
-6 8 3 139.475 128.635 23.983 54.311 o
-6 8 4 100.288 88.757 16.108 119.923 o
-6 9 1 379.131 454.274 43.187 15.827 o
-5 -8 1 541.807 560.730 37.705 18.492 o
-5 -8 2 107.490 163.258 26.688 44.318 o
-5 -7 1 0.919 11.252 11.473 245.568 o
-5 -7 2 773.715 793.696 102.956 2.871 o
-5 -7 3 428.583 402.000 37.096 20.623 o
-5 -7 4 39.559 46.998 15.568 132.346 o
-5 -7 5 701.253 640.463 42.716 13.882 o
-5 -6 1 990.504 1005.930 50.297 8.962 o
-5 -6 2 26.032 31.278 11.582 239.494 o
-5 -6 3 314.079 728.032 187.255 0.916 o
-5 -6 4 677.252 583.427 72.998 5.591 o
-5 -6 5 1.082 0.538 12.372 211.230 o
-5 -6 6 333.628 318.049 32.388 27.720 o
-5 -5 1 30.292 33.409 11.134 258.568 o
-5 -5 2 1902.230 1830.930 79.519 3.182 o
-5 -5 3 183.237 208.914 18.258 86.592 o
-5 -5 4 165.207 234.598 31.937 30.543 o
-5 -5 5 858.708 849.325 79.986 4.494 o
-5 -5 6 248.905 283.204 37.297 22.072 o
-5 -5 7 35.717 63.888 54.041 11.062 o
-5 -4 1 932.388 919.330 32.730 16.103 o
-5 -4 2 126.869 114.564 13.836 155.570 o
-5 -4 3 1491.620 1497.000 86.673 3.253 o
-5 -4 4 801.171 804.129 40.919 13.618 o
-5 -4 5 229.461 285.015 23.188 53.479 o
-5 -4 6 6.791 34.992 61.551 8.533 o
-5 -4 7 730.694 681.322 94.075 3.438 o
-5 -4 8 306.538 271.427 41.339 17.927 o
-5 -3 1 539.630 530.702 20.217 44.787 o
-5 -3 2 1010.170 955.638 60.408 6.851 o
-5 -3 3 387.909 398.160 19.813 57.830 o
-5 -3 4 293.978 309.506 19.770 66.230 o
-5 -3 5 950.329 1030.990 41.583 11.682 o
-5 -3 6 214.761 213.108 20.925 66.285 o
-5 -3 7 408.668 395.062 44.755 14.826 o
-5 -3 8 118.594 129.643 30.901 33.290 o
-5 -2 1 612.396 562.855 47.971 12.031 o
-5 -2 2 1.015 4.120 10.418 297.865 o
-5 -2 3 600.261 644.433 23.645 33.320 o
-5 -2 4 843.736 854.537 47.628 10.603 o
-5 -2 5 438.057 457.922 43.211 15.527 o
-5 -2 6 276.314 260.073 35.011 24.763 o
-5 -2 7 257.694 262.875 36.997 22.421 o
-5 -2 8 660.576 669.635 58.872 8.196 o
-5 -2 9 75.586 75.491 40.630 19.511 o
-5 -1 1 18.970 13.438 8.402 455.896 o
-5 -1 2 171.346 191.456 10.969 208.880 o
-5 -1 3 95.017 101.852 13.200 175.189 o
-5 -1 4 59.757 72.755 14.683 146.925 o
-5 -1 5 974.283 829.544 63.731 6.474 o
-5 -1 6 1206.440 1286.300 71.047 4.825 o
-5 -1 7 59.571 96.514 46.958 14.624 o
-5 -1 8 209.013 223.838 45.021 15.568 o
-5 -1 9 1119.770 1116.940 78.708 4.279 o
-5 0 1 341.041 323.275 15.094 92.388 o
-5 0 2 210.709 207.529 10.932 193.242 o
-5 0 3 248.982 228.231 16.427 96.924 o
-5 0 4 441.241 397.554 16.325 69.610 o
-5 0 5 1088.310 1167.550 50.680 8.248 o
-5 0 6 110.164 127.648 67.213 7.133 o
-5 0 7 1395.420 1426.120 78.261 3.908 o
-5 0 8 558.269 655.559 58.876 8.407 o
-5 0 9 66.503 62.423 24.698 52.602 o
-5 1 1 6.949 -1.820 10.225 309.138 o
-5 1 2 1319.710 1351.550 51.368 7.085 o
-5 1 3 1894.380 1841.980 40.540 5.906 o
-5 1 4 37.488 33.362 8.675 421.679 o
-5 1 5 1500.600 1529.450 59.465 5.374 o
-5 1 6 2082.290 2117.000 88.568 2.564 o
-5 1 7 156.658 145.590 29.428 36.268 o
-5 1 8 270.241 319.053 42.877 16.771 o
-5 1 9 878.254 832.392 69.677 5.707 o
-5 2 1 1735.640 1664.780 31.367 7.752 o
-5 2 2 356.418 335.853 12.296 113.819 o
-5 2 3 883.266 923.268 25.313 21.343 o
-5 2 4 2938.670 2902.840 102.707 1.628 o
-5 2 5 1032.320 1054.700 55.686 7.560 o
-5 2 6 160.590 139.262 73.760 5.915 o
-5 2 7 1740.820 1727.100 268.675 0.428 o
-5 2 8 132.362 100.450 86.952 4.267 o
-5 2 9 0.461 7.041 18.148 98.162 o
-5 3 1 3.510 10.213 4.713 1452.890 o
-5 3 2 1961.040 1860.240 29.835 6.559 o
-5 3 3 2274.530 2241.940 50.770 3.967 o
-5 3 4 29.797 39.777 14.353 156.036 o
-5 3 5 1342.100 1268.990 60.628 5.811 o
-5 3 6 1264.380 1232.480 134.288 1.638 o
-5 3 7 35.278 44.921 19.762 82.448 o
-5 3 8 519.347 466.447 48.492 12.315 o
-5 3 9 270.559 298.822 43.314 16.484 o
-5 4 1 2049.120 1963.820 29.199 6.109 o
-5 4 2 232.577 221.843 16.474 98.448 o
-5 4 3 686.888 634.100 44.888 12.922 o
-5 4 4 721.646 681.835 34.266 18.799 o
-5 4 5 203.057 209.153 22.866 56.859 o
-5 4 6 63.389 76.095 20.808 73.825 o
-5 4 7 735.364 706.368 54.428 9.146 o
-5 4 8 167.554 178.880 32.538 29.643 o
-5 4 9 3.563 9.897 21.060 72.887 o
-5 5 1 48.721 42.005 7.558 543.557 o
-5 5 2 1581.860 1551.130 38.269 7.790 o
-5 5 3 1886.210 1813.650 44.781 5.598 o
-5 5 4 235.650 215.861 20.811 65.961 o
-5 5 5 490.714 470.241 31.325 26.161 o
-5 5 6 320.904 329.919 28.817 34.229 o
-5 5 7 1.567 12.523 24.487 53.914 o
-5 5 8 284.364 298.487 71.465 6.220 o
-5 6 1 1166.130 1163.170 37.449 11.232 o
-5 6 2 76.765 63.744 9.257 353.743 o
-5 6 3 628.110 610.728 26.236 29.141 o
-5 6 4 1813.280 1708.360 46.609 5.762 o
-5 6 5 301.184 269.964 21.831 56.867 o
-5 6 6 9.137 14.053 12.055 222.293 o
-5 6 7 485.493 490.339 47.921 12.657 o
-5 7 1 505.403 509.003 21.474 43.679 o
-5 7 2 791.683 791.426 26.975 22.946 o
-5 7 3 758.898 721.414 36.553 16.649 o
-5 7 4 1.178 12.040 15.557 133.574 o
-5 7 5 452.002 424.967 32.494 25.472 o
-5 7 6 340.843 316.102 29.999 31.690 o
-5 7 7 36.354 46.670 22.703 62.517 o
-5 8 1 854.182 854.058 38.337 14.287 o
-5 8 2 0.467 -4.753 8.194 481.528 o
-5 8 3 256.943 261.151 23.836 50.459 o
-5 8 4 444.123 417.228 35.145 22.434 o
-5 8 5 228.117 226.368 25.247 46.605 o
-5 9 1 5.654 -0.654 10.958 269.193 o
-5 9 2 227.956 203.433 23.392 53.911 o
-5 9 3 197.881 222.237 24.610 49.602 o
-5 9 4 15.899 12.875 12.212 216.444 o
-4 -9 1 1177.810 1280.740 90.440 3.307 o
-4 -8 1 4.143 11.659 10.382 299.820 o
-4 -8 2 1272.660 1252.510 95.153 2.994 o
-4 -8 3 232.129 213.643 25.190 46.852 o
-4 -8 4 0.022 8.513 16.317 121.424 o
-4 -7 1 791.491 754.834 65.947 6.454 o
-4 -7 2 3.187 1.631 11.975 225.433 o
-4 -7 3 525.206 463.262 77.257 5.177 o
-4 -7 4 474.083 465.451 34.242 22.865 o
-4 -7 5 39.437 26.635 14.021 163.348 o
-4 -7 6 1.683 -0.230 17.504 105.522 o
-4 -6 1 89.700 93.932 14.815 141.484 o
-4 -6 2 433.497 422.354 26.314 36.193 o
-4 -6 3 167.173 162.907 23.019 57.758 o
-4 -6 4 0.029 0.285 11.035 265.514 o
-4 -6 5 219.828 204.964 60.965 8.583 o
-4 -6 6 284.724 316.810 43.680 16.142 o
-4 -6 7 153.203 157.292 28.865 37.629 o
-4 -5 1 673.037 683.028 31.067 22.106 o
-4 -5 2 0.971 3.410 9.300 373.810 o
-4 -5 3 314.577 299.649 20.521 61.541 o
-4 -5 4 335.767 333.353 21.996 53.366 o
-4 -5 5 410.724 420.545 34.261 23.769 o
-4 -5 6 2.315 11.184 15.091 141.938 o
-4 -5 7 464.414 511.913 46.734 13.278 o
-4 -5 8 785.285 809.234 60.717 7.397 o
-4 -4 1 0.478 1.730 7.817 529.034 o
-4 -4 2 447.668 482.969 22.447 44.083 o
-4 -4 3 1694.710 1749.090 79.040 3.426 o
-4 -4 4 176.783 190.443 20.444 71.258 o
-4 -4 5 243.979 266.608 19.796 70.179 o
-4 -4 6 1837.950 1925.310 65.702 3.988 o
-4 -4 7 662.930 691.514 52.956 9.809 o
-4 -4 8 595.243 556.680 145.513 1.501 o
-4 -4 9 1252.990 1267.320 191.707 0.840 o
-4 -3 1 963.104 972.174 36.219 13.895 o
-4 -3 2 550.428 574.285 22.827 37.590 o
-4 -3 3 196.382 184.342 13.748 141.029 o
-4 -3 4 2762.600 2803.150 115.984 1.481 o
-4 -3 5 2720.630 2504.190 136.545 1.231 o
-4 -3 6 26.830 34.515 59.674 9.077 o
-4 -3 7 326.807 320.961 49.154 12.775 o
-4 -3 8 2232.450 2192.180 278.719 0.389 o
-4 -3 9 49.729 57.780 21.403 70.118 o
-4 -2 1 221.019 253.417 12.069 158.419 o
-4 -2 2 1240.740 1285.660 38.659 10.075 o
-4 -2 3 3434.820 3618.620 156.075 0.859 o
-4 -2 4 171.755 144.226 20.820 69.950 o
-4 -2 5 1480.880 1343.370 87.064 3.293 o
-4 -2 6 3270.750 3388.220 166.564 0.815 o
-4 -2 7 0.212 -4.187 13.905 167.200 o
-4 -2 8 212.571 230.197 35.527 24.604 o
-4 -2 9 1206.230 1234.160 134.497 1.641 o
-4 -2 10 41.437 37.952 29.136 38.004 o
-4 -1 1 2416.560 2432.720 45.138 3.842 o
-4 -1 2 2455.550 2616.070 76.592 2.543 o
-4 -1 3 125.369 115.938 16.008 118.640 o
-4 -1 4 4322.750 4528.290 156.618 0.711 o
-4 -1 5 1403.580 1532.480 54.716 6.136 o
-4 -1 6 270.240 294.772 36.035 23.381 o
-4 -1 7 1587.890 1682.950 80.882 3.442 o
-4 -1 8 342.304 341.029 43.237 16.193 o
-4 -1 9 174.382 173.517 34.371 26.624 o
-4 -1 10 577.389 600.128 61.092 7.877 o
-4 0 1 45.432 41.200 6.776 673.286 o
-4 0 2 2347.090 2589.900 56.932 3.350 o
-4 0 3 1491.410 1623.830 46.905 6.787 o
-4 0 4 315.878 338.769 20.668 59.765 o
-4 0 5 2041.920 2146.340 65.827 3.583 o
-4 0 6 1642.350 1738.790 91.929 2.811 o
-4 0 7 3.125 22.275 61.521 8.542 o
-4 0 8 646.949 736.092 60.072 7.873 o
-4 0 9 646.606 703.845 61.934 7.488 o
-4 0 10 67.467 76.056 27.068 43.803 o
-4 1 1 5692.320 5612.000 241.311 0.347 o
-4 1 2 1572.780 1627.910 42.002 7.157 o
-4 1 3 2373.030 2445.440 75.071 2.721 o
-4 1 4 3022.760 3184.910 75.733 2.017 o
-4 1 5 786.256 892.519 47.154 10.931 o
-4 1 6 372.448 400.045 40.282 18.152 o
-4 1 7 911.867 957.333 63.660 6.483 o
-4 1 8 313.614 371.728 47.167 13.785 o
-4 1 9 0.533 -6.825 19.034 89.237 o
-4 1 10 359.253 336.121 48.001 13.258 o
-4 2 1 822.639 845.515 17.319 30.806 o
-4 2 2 6278.320 6314.270 79.298 0.656 o
-4 2 3 3176.010 3360.530 96.412 1.562 o
-4 2 4 1.411 23.372 13.413 179.620 o
-4 2 5 1251.890 1230.280 137.983 1.560 o
-4 2 6 1360.010 1410.810 38.173 9.188 o
-4 2 7 35.758 57.653 28.106 40.822 o
-4 2 8 75.588 64.065 42.498 17.846 o
-4 2 9 162.858 170.418 43.342 16.942 o
-4 2 10 179.187 141.857 64.124 7.805 o
-4 3 1 6731.070 6607.250 61.702 0.616 o
-4 3 2 187.505 146.733 12.354 174.287 o
-4 3 3 1165.130 1125.000 36.507 11.650 o
-4 3 4 2028.790 2021.940 110.518 1.938 o
-4 3 5 261.574 270.257 30.515 32.099 o
-4 3 6 38.508 65.553 50.753 12.539 o
-4 3 7 769.178 789.875 56.703 8.354 o
-4 3 8 238.873 234.842 76.452 5.474 o
-4 3 9 29.527 0.148 66.478 7.315 o
-4 3 10 192.194 171.418 70.005 6.547 o
-4 4 1 59.554 51.209 7.051 607.445 o
-4 4 2 1464.600 1382.830 29.421 10.389 o
-4 4 3 772.685 754.077 24.572 26.019 o
-4 4 4 3.613 9.770 5.899 928.188 o
-4 4 5 13.307 27.033 13.437 178.715 o
-4 4 6 481.197 459.037 30.305 27.811 o
-4 4 7 81.652 81.590 24.154 54.737 o
-4 4 8 123.776 104.498 26.172 46.190 o
-4 4 9 313.636 286.185 41.941 17.383 o
-4 5 1 1071.280 1032.710 23.426 18.299 o
-4 5 2 41.685 62.774 9.283 364.249 o
-4 5 3 40.532 30.370 13.550 174.671 o
-4 5 4 747.795 751.261 41.591 13.818 o
-4 5 5 69.717 85.714 26.494 45.660 o
-4 5 6 65.770 87.898 21.996 66.027 o
-4 5 7 407.960 414.298 44.227 15.116 o
-4 5 8 420.456 379.292 45.192 14.549 o
-4 5 9 7.719 -0.942 25.580 49.407 o
-4 6 1 23.742 15.657 5.192 1178.070 o
-4 6 2 484.866 478.484 19.508 50.998 o
-4 6 3 946.600 945.914 29.463 17.553 o
-4 6 4 447.722 447.333 24.020 40.678 o
-4 6 5 263.776 247.074 20.397 66.180 o
-4 6 6 509.925 569.408 47.080 12.821 o
-4 6 7 150.758 166.449 45.875 15.171 o
-4 6 8 96.149 76.525 40.700 19.415 o
-4 7 1 240.609 235.232 15.825 103.473 o
-4 7 2 261.726 258.256 12.846 135.365 o
-4 7 3 28.346 21.457 5.693 975.491 o
-4 7 4 845.149 795.521 39.249 14.136 o
-4 7 5 691.629 630.192 37.740 16.891 o
-4 7 6 12.850 4.029 12.116 220.063 o
-4 7 7 439.577 436.658 36.682 20.795 o
-4 8 1 8.645 -3.718 9.743 340.438 o
-4 8 2 278.899 281.894 24.467 47.280 o
-4 8 3 701.880 682.986 38.104 16.345 o
-4 8 4 171.890 186.915 28.392 38.483 o
-4 8 5 201.191 170.317 21.888 62.326 o
-4 8 6 584.422 578.128 38.605 17.391 o
-4 9 1 619.238 675.424 38.911 16.523 o
-4 9 2 440.365 447.916 32.512 25.450 o
-4 9 3 6.416 4.147 11.184 258.404 o
-4 9 4 364.172 384.462 31.160 28.853 o
-4 9 5 196.371 189.606 23.710 53.602 o
-4 10 1 52.158 52.820 14.693 147.724 o
-4 10 2 179.578 201.501 24.086 52.306 o
-3 -9 1 243.077 258.128 29.665 34.143 o
-3 -9 2 489.169 509.332 41.969 15.936 o
-3 -9 3 87.395 86.844 17.027 108.419 o
-3 -9 4 36.804 40.865 17.932 100.047 o
-3 -8 1 797.621 784.482 66.175 6.385 o
-3 -8 2 140.510 142.450 18.577 88.147 o
-3 -8 3 113.202 102.781 17.317 103.300 o
-3 -8 4 506.304 492.248 36.557 20.081 o
-3 -8 5 635.367 650.970 91.801 3.643 o
-3 -8 6 51.330 -2.779 91.154 3.890 o
-3 -7 1 0.326 -7.645 10.636 285.775 o
-3 -7 2 571.100 595.847 38.825 17.268 o
-3 -7 3 541.077 540.582 48.347 12.175 o
-3 -7 4 344.796 345.379 32.953 26.603 o
-3 -7 5 98.632 123.728 21.961 65.351 o
-3 -7 6 703.035 705.482 64.454 6.889 o
-3 -7 7 707.939 667.947 152.825 1.354 o
-3 -6 1 727.015 691.215 39.964 15.015 o
-3 -6 2 636.207 641.488 38.266 16.955 o
-3 -6 3 2.090 5.058 11.711 235.699 o
-3 -6 4 887.120 880.698 101.615 2.893 o
-3 -6 5 761.829 805.864 91.323 3.594 o
-3 -6 6 1.723 -18.965 14.573 152.228 o
-3 -6 7 786.793 801.281 143.566 1.518 o
-3 -6 8 692.281 701.911 45.805 12.321 o
-3 -5 1 157.353 155.389 11.756 196.052 o
-3 -5 2 597.795 602.069 26.954 28.945 o
-3 -5 3 1058.090 1173.290 52.592 7.937 o
-3 -5 4 519.757 548.628 30.202 26.568 o
-3 -5 5 276.416 291.485 46.160 14.584 o
-3 -5 6 790.384 855.137 86.038 3.982 o
-3 -5 7 58.662 76.848 20.101 79.122 o
-3 -5 8 613.189 648.420 51.015 10.680 o
-3 -5 9 975.661 1098.300 85.870 3.805 o
-3 -4 1 974.926 933.754 38.632 12.948 o
-3 -4 2 2431.730 2578.160 129.414 1.379 o
-3 -4 3 624.925 694.492 50.902 10.608 o
-3 -4 4 2324.550 2464.810 114.020 1.691 o
-3 -4 5 1827.320 1985.030 116.081 1.867 o
-3 -4 6 55.601 50.346 6.892 638.234 o
-3 -4 7 1392.650 1438.260 108.956 2.305 o
-3 -4 8 435.111 481.325 68.962 6.497 o
-3 -4 9 2.856 -23.404 51.766 12.065 o
-3 -3 1 174.498 183.298 11.850 185.111 o
-3 -3 2 854.922 832.046 23.836 23.971 o
-3 -3 3 6856.820 7462.730 165.478 0.396 o
-3 -3 4 275.425 277.141 29.885 33.127 o
-3 -3 5 638.650 592.606 20.871 37.680 o
-3 -3 6 1404.830 1316.340 97.755 2.784 o
-3 -3 7 635.169 668.188 48.801 11.402 o
-3 -3 8 413.001 378.582 103.284 2.982 o
-3 -3 9 873.657 843.826 88.174 3.766 o
-3 -3 10 250.698 219.128 47.614 13.877 o
-3 -2 1 3542.550 3778.230 88.712 1.461 o
-3 -2 2 2039.140 2172.410 52.161 4.345 o
-3 -2 3 706.485 718.841 39.881 15.111 o
-3 -2 4 4865.810 4859.130 249.110 0.368 o
-3 -2 5 1777.720 1642.750 93.856 2.678 o
-3 -2 6 459.271 485.015 28.420 30.917 o
-3 -2 7 90.185 84.223 22.279 64.041 o
-3 -2 8 645.492 635.052 66.101 6.711 o
-3 -2 9 5.292 9.566 16.142 124.055 o
-3 -2 10 107.341 103.511 33.309 28.822 o
-3 -1 1 2.214 -0.278 6.590 744.339 o
-3 -1 2 3368.010 3677.590 95.494 1.455 o
-3 -1 4 71.503 58.965 9.698 326.637 o
-3 -1 5 1175.070 1296.260 78.237 4.184 o
-3 -1 6 1419.590 1592.410 140.606 1.460 o
-3 -1 7 17.849 18.954 20.206 79.118 o
-3 -1 8 94.893 87.600 22.841 60.883 o
-3 -1 9 1037.990 1005.640 76.055 4.664 o
-3 -1 10 258.137 246.922 39.477 19.849 o
-3 0 1 3857.370 3799.430 152.969 0.820 o
-3 0 2 1789.350 1947.190 42.755 5.860 o
-3 0 3 308.011 294.525 10.555 152.814 o
-3 0 4 250.210 213.357 24.241 49.803 o
-3 0 5 826.119 977.733 44.553 11.462 o
-3 0 6 177.653 231.569 30.669 32.915 o
-3 0 7 667.041 681.676 52.440 9.976 o
-3 0 8 357.628 413.515 44.748 14.993 o
-3 0 9 61.512 73.753 54.419 10.900 o
-3 0 10 374.136 285.734 43.178 16.218 o
-3 1 1 509.076 529.053 13.303 69.354 o
-3 1 2 2815.890 2843.090 77.754 2.196 o
-3 1 3 1470.450 1533.950 37.929 8.381 o
-3 1 4 17.453 37.616 7.533 563.358 o
-3 1 5 127.879 132.352 12.087 196.775 o
-3 1 6 1072.210 1146.430 34.776 12.841 o
-3 1 7 468.544 517.650 27.224 32.434 o
-3 1 8 119.392 133.796 15.756 121.992 o
-3 1 9 990.509 993.038 42.116 11.374 o
-3 1 10 562.736 570.651 59.417 8.337 o
-3 2 1 3090.480 2981.390 38.309 2.785 o
-3 2 2 758.104 778.107 18.182 33.450 o
-3 2 3 149.191 145.553 9.749 272.037 o
-3 2 4 1552.200 1588.670 65.464 4.654 o
-3 2 5 1324.840 1361.160 31.607 10.987 o
-3 2 6 19.867 14.127 22.951 61.335 o
-3 2 7 996.274 1033.680 23.690 19.387 o
-3 2 8 972.299 981.436 53.845 8.219 o
-3 2 9 359.962 343.966 31.247 29.045 o
-3 2 10 383.249 338.514 97.413 3.355 o
-3 3 1 356.050 382.717 10.762 124.046 o
-3 3 2 2410.560 2431.880 37.826 4.152 o
-3 3 3 2207.540 2150.090 40.992 4.694 o
-3 3 4 371.405 379.923 19.161 62.242 o
-3 3 5 387.789 383.499 24.818 41.543 o
-3 3 6 1853.300 1762.420 70.070 3.793 o
-3 3 7 1058.100 1022.440 108.397 2.498 o
-3 3 8 316.681 347.959 120.387 2.213 o
-3 3 9 385.540 431.067 84.113 4.460 o
-3 3 10 323.179 284.959 112.374 2.539 o
-3 4 1 3214.620 3144.310 39.996 2.551 o
-3 4 2 1238.060 1196.090 22.474 15.148 o
-3 4 3 159.285 163.695 13.974 144.737 o
-3 4 4 628.453 653.533 27.787 26.651 o
-3 4 5 1019.950 1001.740 35.338 13.662 o
-3 4 6 0.104 2.624 13.289 183.080 o
-3 4 7 1398.340 1329.690 71.168 4.540 o
-3 4 8 1142.980 1040.860 68.996 5.302 o
-3 4 9 10.979 76.192 45.486 15.617 o
-3 4 10 331.503 327.735 48.242 13.218 o
-3 5 1 131.067 120.720 7.820 409.983 o
-3 5 2 382.671 382.984 14.094 90.320 o
-3 5 3 1503.880 1465.580 35.297 8.825 o
-3 5 4 25.217 59.221 19.943 80.989 o
-3 5 5 23.331 32.270 33.587 28.640 o
-3 5 6 521.040 539.249 44.376 14.234 o
-3 5 7 174.752 181.656 30.533 33.457 o
-3 5 8 255.156 208.959 34.750 25.455 o
-3 5 9 503.729 471.867 45.254 13.982 o
-3 6 1 824.550 818.738 25.570 23.266 o
-3 6 2 756.767 744.416 22.540 28.764 o
-3 6 3 14.573 25.277 7.453 578.351 o
-3 6 4 2149.880 2114.380 49.574 4.353 o
-3 6 5 271.056 262.769 25.140 45.519 o
-3 6 6 60.159 73.580 30.985 33.516 o
-3 6 7 928.378 956.218 47.426 10.087 o
-3 6 8 478.250 489.235 46.278 13.504 o
-3 6 9 9.256 -3.233 15.787 129.693 o
-3 7 1 18.426 7.647 7.496 572.906 o
-3 7 2 369.516 400.264 26.459 37.730 o
-3 7 3 1600.370 1565.140 54.121 5.699 o
-3 7 4 247.120 250.308 13.280 132.857 o
-3 7 5 455.743 462.930 31.275 26.800 o
-3 7 6 856.445 857.689 43.497 12.017 o
-3 7 7 247.892 279.723 29.442 34.413 o
-3 7 8 31.314 29.797 17.553 104.582 o
-3 8 1 1243.420 1260.720 48.411 8.002 o
-3 8 2 226.258 245.421 22.502 57.201 o
-3 8 3 41.900 48.636 13.132 185.197 o
-3 8 4 967.623 946.608 44.042 10.985 o
-3 8 5 526.896 531.599 45.553 13.591 o
-3 8 6 27.461 -0.084 12.686 200.433 o
-3 8 7 291.585 300.848 28.947 34.675 o
-3 9 1 66.102 71.604 15.101 138.715 o
-3 9 2 579.160 581.210 36.274 19.228 o
-3 9 3 491.872 511.864 34.705 21.924 o
-3 9 4 12.107 21.836 11.414 247.677 o
-3 9 5 163.297 169.204 23.095 57.419 o
-3 10 1 475.513 523.532 36.950 19.859 o
-3 10 2 209.272 212.995 25.124 47.587 o
-3 10 3 14.885 19.172 12.009 223.719 o
-2 -10 1 72.793 83.519 20.423 76.349 o
-2 -10 2 14.136 1.050 14.201 160.224 o
-2 -9 1 387.035 383.810 34.084 24.424 o
-2 -9 2 24.613 17.827 13.944 165.817 o
-2 -9 3 169.692 151.322 19.158 81.619 o
-2 -9 4 356.026 311.503 30.464 30.656 o
-2 -9 5 458.840 446.869 94.407 3.538 o
-2 -8 1 436.212 450.093 40.297 17.617 o
-2 -8 2 1341.520 1334.190 87.554 3.362 o
-2 -8 3 678.792 670.239 63.998 7.040 o
-2 -8 4 669.645 699.028 61.503 7.546 o
-2 -8 5 293.634 263.549 42.516 17.060 o
-2 -8 6 1274.810 1147.210 176.587 0.985 o
-2 -8 7 160.763 108.600 77.545 5.357 o
-2 -7 1 816.844 747.758 49.599 10.279 o
-2 -7 2 1867.140 1739.240 118.560 1.829 o
-2 -7 3 17.165 23.731 14.909 145.191 o
-2 -7 4 1184.190 1234.670 99.139 2.837 o
-2 -7 5 1226.090 1244.520 107.418 2.451 o
-2 -7 6 24.022 24.572 23.247 59.752 o
-2 -7 7 1342.990 1175.220 175.454 0.992 o
-2 -7 8 578.146 545.699 142.950 1.555 o
-2 -6 1 631.543 605.570 34.560 20.003 o
-2 -6 2 1398.490 1283.980 86.703 3.393 o
-2 -6 3 2765.880 2944.710 220.770 0.563 o
-2 -6 4 244.258 283.667 40.945 18.490 o
-2 -6 5 840.100 856.213 74.824 5.071 o
-2 -6 6 705.553 736.476 94.350 3.418 o
-2 -6 7 120.294 142.698 36.355 24.137 o
-2 -6 8 361.390 371.891 32.277 27.247 o
-2 -6 9 413.765 403.969 57.438 9.284 o
-2 -5 1 2962.840 2818.250 127.206 1.272 o
-2 -5 2 1186.310 1295.140 91.641 3.225 o
-2 -5 3 178.893 191.109 18.554 84.936 o
-2 -5 4 1453.020 1369.390 119.140 1.971 o
-2 -5 5 270.066 261.855 55.206 10.344 o
-2 -5 6 382.796 320.797 49.650 12.398 o
-2 -5 7 1023.700 1060.340 47.484 9.449 o
-2 -5 8 485.171 520.655 37.103 19.651 o
-2 -5 9 0.135 22.678 45.043 15.934 o
-2 -4 1 3.985 8.477 4.416 1655.020 o
-2 -4 2 3702.310 4120.050 109.270 1.155 o
-2 -4 3 2997.130 3304.500 85.438 1.822 o
-2 -4 4 95.591 128.353 11.583 220.694 o
-2 -4 5 579.408 590.079 41.461 15.480 o
-2 -4 6 442.350 420.545 30.019 29.206 o
-2 -4 7 0.525 17.657 73.263 6.023 o
-2 -4 8 199.454 224.639 92.436 3.763 o
-2 -4 9 635.419 643.007 43.750 13.719 o
-2 -4 10 257.671 218.516 49.230 12.991 o
-2 -3 1 2323.180 2312.570 87.632 2.390 o
-2 -3 2 319.193 342.304 19.235 66.502 o
-2 -3 3 510.920 548.323 15.832 58.942 o
-2 -3 4 2681.820 2980.740 138.246 1.175 o
-2 -3 5 814.290 801.174 51.579 9.583 o
-2 -3 6 18.604 43.789 20.883 74.004 o
-2 -3 7 290.451 296.904 46.490 14.341 o
-2 -3 8 1840.340 1873.080 239.867 0.528 o
-2 -3 9 175.633 198.151 73.283 5.979 o
-2 -3 10 61.070 64.221 37.779 22.586 o
-2 -2 1 51.887 59.720 6.300 753.270 o
-2 -2 2 2043.740 2228.100 33.557 5.438 o
-2 -2 3 2189.800 2491.870 90.565 2.325 o
-2 -2 4 87.304 96.230 5.906 739.107 o
-2 -2 5 137.636 152.002 11.096 222.709 o
-2 -2 6 1181.330 1217.400 53.032 7.414 o
-2 -2 7 283.413 313.765 32.910 27.474 o
-2 -2 8 731.615 730.867 34.706 18.101 o
-2 -2 9 1389.320 1342.330 75.242 4.192 o
-2 -2 10 750.891 707.363 86.674 3.990 o
-2 -2 11 31.742 60.962 19.797 82.104 o
-2 -1 1 1173.220 1203.760 36.106 11.439 o
-2 -1 2 1257.740 1421.110 78.072 4.058 o
-2 -1 3 28.501 28.579 4.075 1848.430 o
-2 -1 4 1113.060 1178.720 38.074 11.343 o
-2 -1 5 1262.600 1307.460 43.265 8.866 o
-2 -1 6 145.394 147.594 23.704 55.255 o
-2 -1 7 1061.200 1096.440 72.081 5.014 o
-2 -1 8 768.212 797.004 56.614 8.369 o
-2 -1 9 425.484 433.735 45.953 13.989 o
-2 -1 10 269.582 274.440 40.832 18.504 o
-2 -1 11 854.335 749.691 68.099 6.023 o
-2 0 1 11.988 2.157 5.903 925.633 o
-2 0 3 303.867 308.939 15.932 90.981 o
-2 0 4 1730.680 1915.890 42.909 6.061 o
-2 0 5 252.637 278.506 13.605 124.675 o
-2 0 6 1825.770 2030.940 47.849 5.222 o
-2 0 7 987.889 1091.870 39.136 12.116 o
-2 0 8 65.472 68.738 17.054 109.351 o
-2 0 9 1612.280 1554.240 54.325 5.662 o
-2 0 10 800.455 769.788 41.650 13.394 o
-2 0 11 0.757 6.444 16.993 111.964 o
-2 1 1 661.006 603.820 22.825 33.363 o
-2 1 3 1.594 2.283 6.449 777.372 o
-2 1 5 2827.510 3023.770 56.769 2.624 o
-2 1 6 117.823 132.310 17.537 99.815 o
-2 1 7 1332.050 1342.630 46.812 7.827 o
-2 1 8 1741.380 1814.050 57.820 4.802 o
-2 1 9 96.359 107.105 17.707 99.666 o
-2 1 10 561.141 563.729 37.132 18.772 o
-2 1 11 804.399 714.062 68.515 6.047 o
-2 2 1 1064.580 1075.700 18.618 20.366 o
-2 2 2 497.610 464.503 17.270 58.180 o
-2 2 3 4438.450 4824.880 105.638 0.955 o
-2 2 4 1038.870 950.857 35.571 13.622 o
-2 2 5 759.257 759.241 45.862 11.842 o
-2 2 6 4397.560 4626.320 258.801 0.364 o
-2 2 7 1774.240 1833.520 60.121 4.545 o
-2 2 8 23.743 49.618 20.875 74.000 o
-2 2 9 801.084 774.502 44.387 12.188 o
-2 2 10 640.225 692.231 109.494 2.595 o
-2 2 11 11.246 -34.948 98.029 3.364 o
-2 3 1 5154.850 5110.550 50.527 1.034 o
-2 3 2 4003.570 4013.210 51.234 1.610 o
-2 3 3 19.107 24.456 7.307 600.169 o
-2 3 4 3530.520 3567.600 87.243 1.521 o
-2 3 5 3345.690 3329.750 90.344 1.593 o
-2 3 6 125.468 119.177 119.784 2.251 o
-2 3 7 1988.640 2037.670 87.960 2.670 o
-2 3 8 1237.200 1255.650 235.148 0.567 o
-2 3 9 91.913 109.675 27.560 41.990 o
-2 3 10 129.879 142.096 70.502 6.479 o
-2 4 1 3401.590 3472.230 36.105 2.300 o
-2 4 2 2555.300 2729.940 34.470 3.753 o
-2 4 3 5401.360 5434.520 71.770 0.874 o
-2 4 4 1086.040 1042.050 49.447 8.754 o
-2 4 5 1037.580 1065.060 55.079 7.652 o
-2 4 6 2781.720 2864.300 110.079 1.562 o
-2 4 7 901.566 914.700 60.014 7.194 o
-2 4 8 208.518 203.520 22.646 57.796 o
-2 4 9 346.428 356.938 37.807 20.691 o
-2 4 10 184.008 227.363 32.662 29.136 o
-2 5 1 3731.800 3592.360 60.830 1.751 o
-2 5 2 2757.490 2699.960 42.265 3.253 o
-2 5 3 27.144 33.076 6.939 658.810 o
-2 5 4 1779.040 1779.860 51.726 5.284 o
-2 5 5 119.127 141.154 77.694 5.341 o
-2 5 6 78.210 53.874 16.885 111.313 o
-2 5 7 920.256 863.968 53.282 8.685 o
-2 5 8 482.297 443.161 40.880 16.922 o
-2 5 9 13.045 11.889 30.418 34.935 o
-2 5 10 98.671 94.654 26.038 46.972 o
-2 6 1 71.285 65.955 9.158 362.784 o
-2 6 2 1648.040 1680.690 52.057 5.670 o
-2 6 3 1878.600 1806.610 63.075 4.189 o
-2 6 4 162.083 143.646 17.631 95.856 o
-2 6 5 1491.210 1377.000 59.530 5.536 o
-2 6 6 154.851 169.177 22.862 58.743 o
-2 6 7 140.024 164.491 24.149 53.258 o
-2 6 8 35.534 40.787 47.495 14.323 o
-2 6 9 271.130 260.522 37.614 21.659 o
-2 7 1 1473.450 1501.640 37.935 8.442 o
-2 7 2 528.852 508.670 29.284 28.017 o
-2 7 3 106.991 122.382 16.410 114.256 o
-2 7 4 1000.510 961.136 44.451 10.649 o
-2 7 5 853.754 828.918 39.455 13.852 o
-2 7 6 3.333 0.614 10.256 307.360 o
-2 7 7 299.376 288.162 26.633 40.194 o
-2 7 8 331.917 343.944 41.506 17.519 o
-2 8 1 28.247 25.327 8.248 469.661 o
-2 8 2 402.513 424.359 28.572 32.364 o
-2 8 3 770.411 809.847 39.704 14.408 o
-2 8 4 88.711 76.978 15.238 134.696 o
-2 8 5 142.254 141.577 29.488 36.266 o
-2 8 6 453.196 444.568 32.046 25.918 o
-2 8 7 254.140 241.076 37.246 22.218 o
-2 9 1 1261.170 1207.590 65.046 5.469 o
-2 9 2 170.699 173.411 21.255 66.829 o
-2 9 3 44.135 47.301 13.003 188.725 o
-2 9 4 281.777 317.375 27.739 37.453 o
-2 9 5 376.007 424.740 32.006 27.130 o
-2 9 6 34.926 22.020 58.442 9.463 o
-2 10 1 43.635 38.827 33.209 29.264 o
-2 10 2 77.673 94.058 25.497 49.161 o
-2 10 3 220.462 267.870 27.556 39.426 o
-2 10 4 80.316 110.468 28.210 40.179 o
-1 -10 1 464.274 508.977 40.346 17.220 o
-1 -10 2 637.488 686.321 64.208 7.048 o
-1 -10 3 4.823 -4.377 13.563 175.744 o
-1 -10 4 267.127 278.844 33.623 26.711 o
-1 -9 1 27.544 45.501 15.515 133.634 o
-1 -9 2 106.888 122.764 21.375 68.707 o
-1 -9 3 581.477 592.380 42.578 14.795 o
-1 -9 4 184.343 181.270 26.328 44.306 o
-1 -9 5 202.267 135.695 37.004 23.018 o
-1 -9 6 584.770 516.564 63.361 7.418 o
-1 -8 1 1793.610 1717.980 138.694 1.428 o
-1 -8 2 469.628 467.372 26.154 35.025 o
-1 -8 3 261.170 246.273 27.463 39.159 o
-1 -8 4 609.059 666.766 50.259 10.940 o
-1 -8 5 544.494 459.191 57.999 8.849 o
-1 -8 6 13.620 3.293 16.660 116.431 o
-1 -8 7 337.129 280.968 106.125 2.843 o
-1 -7 1 267.673 255.360 14.997 107.611 o
-1 -7 2 1243.730 1158.360 89.396 3.369 o
-1 -7 3 1733.010 1773.590 134.242 1.515 o
-1 -7 4 296.194 316.635 27.577 37.578 o
-1 -7 5 301.412 297.944 35.050 24.372 o
-1 -7 6 901.396 808.526 75.376 4.970 o
-1 -7 7 855.531 708.211 103.483 2.832 o
-1 -7 8 0.049 -9.282 19.461 85.368 o
-1 -6 1 2709.540 2629.470 116.508 1.511 o
-1 -6 2 1415.790 1349.500 115.804 2.083 o
-1 -6 3 72.018 73.083 12.718 193.074 o
-1 -6 4 545.668 585.902 74.663 5.466 o
-1 -6 5 487.748 539.305 44.375 14.392 o
-1 -6 6 23.041 27.612 10.081 316.086 o
-1 -6 7 175.053 182.652 30.016 34.568 o
-1 -6 8 1362.200 1247.010 187.008 0.877 o
-1 -6 9 423.182 401.421 55.220 9.987 o
-1 -5 1 167.120 174.392 10.422 231.126 o
-1 -5 2 1156.400 1167.250 62.600 6.007 o
-1 -5 3 1730.080 1829.150 54.498 5.091 o
-1 -5 4 484.736 525.856 28.846 29.332 o
-1 -5 5 107.925 110.211 15.674 125.066 o
-1 -5 6 670.984 656.215 48.653 11.346 o
-1 -5 7 613.826 679.109 48.056 11.762 o
-1 -5 8 1.239 14.508 22.721 62.623 o
-1 -5 9 625.937 611.202 39.388 16.405 o
-1 -5 10 671.677 595.307 141.997 1.568 o
-1 -4 1 2400.490 2429.170 61.441 3.204 o
-1 -4 2 758.499 703.766 37.956 15.876 o
-1 -4 3 225.687 271.259 15.145 110.542 o
-1 -4 4 286.054 248.262 13.492 122.776 o
-1 -4 5 697.184 673.995 54.319 9.324 o
-1 -4 6 54.513 48.276 11.225 250.660 o
-1 -4 7 566.391 579.357 20.157 42.515 o
-1 -4 8 1647.900 1642.310 58.696 5.059 o
-1 -4 9 449.992 449.511 57.877 9.057 o
-1 -4 10 348.784 345.099 42.237 16.880 o
-1 -3 1 257.500 282.912 9.845 185.984 o
-1 -3 2 160.793 164.664 7.767 363.678 o
-1 -3 4 539.647 554.604 18.046 49.879 o
-1 -3 5 13.909 12.429 5.017 1274.560 o
-1 -3 6 2897.780 2979.910 126.941 1.272 o
-1 -3 7 2074.110 2187.950 46.405 4.616 o
-1 -3 8 35.145 32.299 26.750 45.100 o
-1 -3 9 1197.600 1195.680 84.699 3.703 o
-1 -3 10 838.372 757.329 47.598 10.844 o
-1 -3 11 18.204 35.084 28.139 40.801 o
-1 -2 1 1464.050 1552.010 39.623 8.093 o
-1 -2 2 734.902 759.847 16.564 36.950 o
-1 -2 4 3752.730 4033.240 149.242 0.843 o
-1 -2 5 4881.890 5062.740 318.206 0.253 o
-1 -2 6 897.511 901.564 36.828 14.467 o
-1 -2 7 145.321 165.037 14.136 143.744 o
-1 -2 8 3607.340 3683.960 89.066 1.451 o
-1 -2 9 574.468 591.338 59.189 8.356 o
-1 -2 10 179.092 195.573 26.786 42.849 o
-1 -2 11 449.353 444.096 74.614 5.588 o
-1 -1 1 35.859 50.092 5.145 1143.720 o
-1 -1 2 33.853 29.625 5.764 940.746 o
-1 -1 3 5977.150 6688.690 152.982 0.494 o
-1 -1 4 2760.260 2905.270 98.136 1.776 o
-1 -1 5 460.081 515.322 13.755 73.789 o
-1 -1 6 6272.270 6783.880 198.162 0.383 o
-1 -1 7 429.368 445.049 16.335 68.468 o
-1 -1 8 33.463 25.801 6.217 814.599 o
-1 -1 9 1113.940 1142.060 32.293 13.388 o
-1 -1 10 276.916 282.659 31.487 30.048 o
-1 -1 11 0.026 46.713 25.448 49.903 o
-1 0 3 349.783 386.777 14.212 93.829 o
-1 0 4 2724.840 3074.390 80.355 2.122 o
-1 0 5 5528.650 5966.410 131.072 0.619 o
-1 0 6 71.853 75.195 14.900 141.929 o
-1 0 7 1819.720 1961.950 55.133 4.733 o
-1 0 8 741.479 787.432 49.134 10.646 o
-1 0 9 52.053 59.157 8.790 401.656 o
-1 0 10 504.063 463.827 75.081 5.481 o
-1 0 11 541.107 547.735 39.613 17.104 o
-1 1 1 1503.580 1628.600 18.810 10.959 o
-1 1 2 46.254 51.365 7.995 486.730 o
-1 1 3 4133.570 4461.150 178.207 0.630 o
-1 1 4 378.909 345.615 18.652 65.313 o
-1 1 5 141.625 141.894 23.733 55.258 o
-1 1 6 3571.790 3903.280 77.599 1.557 o
-1 1 7 476.421 504.441 33.170 23.828 o
-1 1 8 202.076 209.575 23.939 52.263 o
-1 1 9 416.290 436.421 33.371 24.714 o
-1 1 10 324.608 329.406 40.184 18.683 o
-1 1 11 26.384 38.756 14.525 152.507 o
-1 2 1 8055.060 8115.740 116.865 0.382 o
-1 2 2 5208.670 5586.210 147.971 0.612 o
-1 2 3 293.980 351.603 37.776 21.080 o
-1 2 4 4572.300 4883.120 152.891 0.686 o
-1 2 5 1832.910 1721.730 61.349 4.447 o
-1 2 6 70.352 59.542 20.104 79.046 o
-1 2 7 370.012 473.634 76.449 5.368 o
-1 2 8 591.037 648.496 103.419 2.913 o
-1 2 9 102.740 95.731 15.973 121.501 o
-1 2 10 103.935 98.364 58.730 9.343 o
-1 2 11 414.745 425.128 146.487 1.493 o
-1 3 1 965.422 934.463 19.420 23.616 o
-1 3 2 2131.930 2253.630 56.451 3.887 o
-1 3 3 3408.650 3494.150 76.192 1.733 o
-1 3 4 631.544 652.993 27.472 26.981 o
-1 3 5 753.423 801.629 97.155 3.206 o
-1 3 6 2122.500 2142.740 56.307 3.991 o
-1 3 7 1369.240 1244.850 95.058 2.952 o
-1 3 8 15.970 -2.910 35.584 25.531 o
-1 3 9 2.415 34.220 61.957 8.422 o
-1 3 10 552.330 544.122 102.684 2.974 o
-1 3 11 39.968 2.022 27.913 41.452 o
-1 4 1 11736.700 12357.200 308.451 0.129 o
-1 4 2 3818.270 4091.670 66.986 1.532 o
-1 4 3 8.636 16.601 8.391 458.234 o
-1 4 4 1728.920 1679.520 57.867 4.946 o
-1 4 5 1279.320 1270.550 100.483 2.724 o
-1 4 6 198.206 196.740 34.034 26.924 o
-1 4 7 128.795 160.840 64.501 7.732 o
-1 4 8 863.820 865.765 52.901 8.953 o
-1 4 9 63.951 116.610 53.256 11.370 o
-1 4 10 12.747 80.574 56.338 10.182 o
-1 5 1 1784.100 1853.360 27.525 7.504 o
-1 5 2 849.784 866.099 22.218 25.084 o
-1 5 3 1385.420 1410.660 34.593 9.770 o
-1 5 4 595.812 573.858 18.424 45.153 o
-1 5 5 8.138 20.203 22.417 64.316 o
-1 5 6 469.677 433.429 38.195 19.170 o
-1 5 7 805.808 846.257 53.477 9.007 o
-1 5 8 7.924 2.057 16.688 116.071 o
-1 5 9 274.258 261.390 35.750 23.819 o
-1 5 10 373.503 385.088 44.186 15.342 o
-1 6 1 1366.580 1359.540 28.323 11.441 o
-1 6 2 622.709 610.916 23.521 33.346 o
-1 6 3 71.622 68.454 14.628 147.359 o
-1 6 4 801.530 777.740 19.865 29.952 o
-1 6 5 26.704 28.140 5.815 934.011 o
-1 6 6 170.060 167.787 14.478 134.271 o
-1 6 7 36.311 57.110 24.246 54.807 o
-1 6 8 322.713 346.848 40.809 18.119 o
-1 6 9 100.505 100.954 29.067 37.773 o
-1 7 1 76.174 79.225 10.614 271.347 o
-1 7 2 95.049 101.596 14.551 145.630 o
-1 7 3 642.726 699.392 39.480 15.890 o
-1 7 4 887.075 905.310 43.290 11.793 o
-1 7 5 111.914 106.788 16.095 118.750 o
-1 7 6 480.770 473.908 30.106 27.985 o
-1 7 7 430.280 477.032 47.032 13.315 o
-1 7 8 0.629 34.867 24.930 52.005 o
-1 8 1 348.045 398.314 37.911 20.437 o
-1 8 2 230.866 268.263 23.218 53.575 o
-1 8 3 126.818 152.287 18.990 84.964 o
-1 8 4 379.464 492.014 35.168 22.674 o
-1 8 5 934.658 1002.930 44.135 10.980 o
-1 8 6 226.361 211.311 36.496 23.339 o
-1 8 7 72.524 81.280 28.531 39.417 o
-1 9 1 281.873 288.200 35.403 24.108 o
-1 9 2 126.732 119.501 26.378 45.369 o
-1 9 3 446.327 566.316 50.912 11.347 o
-1 9 5 1.166 17.015 42.766 17.677 o
-1 9 6 474.493 538.541 54.671 9.929 o
-1 10 1 355.486 351.431 45.279 14.786 o
-1 10 2 679.828 744.125 120.291 2.155 o
-1 10 3 12.325 -0.612 25.640 49.174 o
-1 10 4 219.684 300.443 44.031 16.126 o
0 -10 1 155.757 162.360 24.212 52.711 o
0 -10 2 240.257 250.856 29.729 34.087 o
0 -10 3 501.316 510.382 54.165 10.070 o
0 -10 4 112.856 133.602 24.443 52.737 o
0 -9 1 787.754 798.918 66.824 6.282 o
0 -9 2 400.933 445.009 35.044 22.833 o
0 -9 3 35.089 28.939 14.301 157.177 o
0 -9 4 307.231 326.983 32.611 27.619 o
0 -9 5 235.935 193.583 32.633 28.908 o
0 -9 6 23.725 13.065 19.123 88.304 o
0 -8 1 7.061 6.956 4.568 1545.610 o
0 -8 2 1475.650 1549.760 92.762 2.925 o
0 -8 3 10.039 9.209 6.152 851.952 o
0 -8 4 244.431 229.890 26.279 42.935 o
0 -8 5 55.362 38.629 17.148 108.955 o
0 -8 6 378.850 324.967 45.430 14.659 o
0 -8 7 448.375 409.651 49.056 12.374 o
0 -8 8 106.895 65.596 25.543 48.845 o
0 -7 1 526.830 513.199 35.636 20.638 o
0 -7 2 1987.450 1898.770 150.193 1.210 o
0 -7 3 101.060 100.171 10.707 257.246 o
0 -7 4 103.355 114.563 15.295 131.199 o
0 -7 5 1218.710 1309.560 117.791 2.076 o
0 -7 6 601.412 527.089 39.795 16.621 o
0 -7 7 160.349 87.656 34.670 26.454 o
0 -7 8 699.377 628.065 90.986 3.684 o
0 -6 1 332.359 341.088 22.279 52.264 o
0 -6 2 6.583 0.989 5.613 1025.270 o
0 -6 3 1032.110 1136.820 47.954 9.139 o
0 -6 4 1349.110 1430.350 83.953 3.550 o
0 -6 5 73.108 76.321 8.234 438.200 o
0 -6 6 774.375 794.934 47.689 11.005 o
0 -6 7 3055.820 2714.370 225.085 0.538 o
0 -6 8 130.493 103.133 31.141 32.797 o
0 -6 9 353.194 318.558 48.197 13.197 o
0 -5 1 925.578 906.575 26.369 20.030 o
0 -5 2 4315.810 4480.080 201.622 0.526 o
0 -5 3 1580.070 1715.760 58.047 5.180 o
0 -5 4 278.469 256.147 16.596 90.993 o
0 -5 5 2110.360 2183.320 103.624 2.060 o
0 -5 6 428.447 455.794 40.629 17.392 o
0 -5 7 350.717 381.389 36.818 21.594 o
0 -5 8 1800.180 1687.280 169.732 1.004 o
0 -5 9 310.247 307.169 45.844 14.658 o
0 -5 10 155.752 117.738 41.852 18.226 o
0 -4 1 2658.790 2789.380 71.639 2.473 o
0 -4 2 38.859 31.610 5.363 1070.170 o
0 -4 3 2892.160 2948.560 52.806 2.694 o
0 -4 4 2608.060 2529.820 90.489 2.094 o
0 -4 5 3.326 10.658 4.597 1527.320 o
0 -4 6 1963.980 1910.910 109.184 2.016 o
0 -4 7 1221.670 1195.200 50.173 7.853 o
0 -4 8 56.874 111.403 48.875 13.499 o
0 -4 9 1211.560 1051.350 200.905 0.773 o
0 -4 10 290.369 206.608 50.375 12.375 o
0 -3 1 1522.900 1552.720 25.341 10.113 o
0 -3 2 6493.060 6800.650 131.924 0.500 o
0 -3 3 646.441 660.045 14.550 48.078 o
0 -3 4 5236.540 5465.590 108.779 0.760 o
0 -3 5 3566.780 3518.000 98.545 1.381 o
0 -3 6 275.465 279.761 11.117 156.220 o
0 -3 7 1160.510 1211.510 34.689 11.926 o
0 -3 8 1397.340 1383.840 72.263 4.410 o
0 -3 9 90.483 79.496 39.757 20.348 o
0 -3 10 324.076 277.107 87.976 4.122 o
0 -3 11 259.919 197.370 40.601 18.900 o
0 -2 1 5504.790 5786.590 124.418 0.652 o
0 -2 2 109.721 118.979 11.068 237.132 o
0 -2 3 8758.690 9216.500 222.548 0.238 o
0 -2 4 4538.190 4913.310 105.198 0.931 o
0 -2 5 262.633 282.265 8.933 203.876 o
0 -2 6 3628.800 3730.000 91.885 1.404 o
0 -2 7 1317.550 1327.300 41.114 9.013 o
0 -2 8 184.980 219.435 16.630 101.499 o
0 -2 9 1371.930 1303.680 47.049 7.711 o
0 -2 10 322.682 268.105 43.649 16.116 o
0 -2 11 26.610 14.972 53.356 11.354 o
0 -1 2 11345.000 12455.800 177.374 0.179 o
0 -1 3 118.827 125.839 5.437 710.139 o
0 -1 4 6697.900 7077.380 182.673 0.385 o
0 -1 5 4697.770 4976.000 133.593 0.755 o
0 -1 6 392.753 427.580 14.474 83.482 o
0 -1 7 648.062 639.603 22.230 34.145 o
0 -1 8 30.758 31.366 4.899 1291.110 o
0 -1 9 888.215 869.762 32.246 17.144 o
0 -1 10 38.327 24.039 14.569 151.443 o
0 -1 11 228.652 189.316 24.621 49.229 o
0 0 1 2372.040 2493.400 72.729 2.783 o
0 0 2 354.102 397.034 11.069 119.700 o
0 0 3 9246.760 9787.680 199.326 0.237 o
0 0 4 1644.870 1684.640 28.788 8.468 o
0 0 5 532.825 681.832 101.268 3.043 o
0 0 6 1558.860 1584.570 46.500 6.689 o
0 0 7 424.380 423.640 46.311 13.815 o
0 0 8 170.688 210.950 21.924 62.474 o
0 0 9 411.889 396.046 25.020 40.124 o
0 0 10 495.747 488.547 35.473 21.229 o
0 0 11 112.864 118.766 20.253 76.156 o
0 1 0 879.147 928.221 33.068 16.449 o
0 1 1 14519.100 14685.600 337.792 0.094 o
0 1 2 5856.840 6303.080 74.609 0.722 o
0 1 3 184.850 213.593 17.694 91.279 o
0 1 4 333.554 290.360 18.909 69.035 o
0 1 5 2610.070 2658.010 57.721 2.985 o
0 1 6 75.891 168.686 173.211 1.077 o
0 1 7 109.784 141.901 55.061 10.609 o
0 1 8 303.278 306.522 25.276 43.713 o
0 1 9 113.431 176.099 18.987 85.053 o
0 1 10 140.089 157.553 22.609 60.506 o
0 1 11 684.289 613.979 72.916 5.582 o
0 2 0 8463.210 8633.260 116.274 0.350 o
0 2 1 73.810 71.417 4.489 1246.020 o
0 2 2 1487.270 1451.510 59.858 5.434 o
0 2 3 1654.000 1611.530 33.665 7.969 o
0 2 4 319.965 380.801 32.328 27.610 o
0 2 5 1.420 5.276 5.918 922.916 o
0 2 6 715.050 696.326 39.418 15.395 o
0 2 7 658.286 674.618 110.260 2.559 o
0 2 8 14.437 33.620 19.547 84.507 o
0 2 9 377.720 416.510 24.066 43.391 o
0 2 10 773.412 603.022 60.925 7.571 o
0 2 11 92.463 157.797 36.809 23.614 o
0 3 0 484.717 499.110 15.632 64.031 o
0 3 1 1043.570 1016.470 23.141 19.027 o
0 3 2 744.018 698.531 15.229 39.938 o
0 3 3 29.303 36.925 5.478 1039.280 o
0 3 4 878.200 913.510 30.815 17.855 o
0 3 5 1591.370 1457.770 54.368 5.817 o
0 3 6 679.118 817.094 101.088 2.996 o
0 3 7 30.700 145.294 176.825 1.034 o
0 3 8 691.537 666.821 64.046 7.014 o
0 3 9 413.468 471.336 112.692 2.506 o
0 3 10 0.294 45.015 78.508 5.245 o
0 3 11 581.755 442.314 172.087 1.080 o
0 4 0 2466.010 2426.490 58.832 3.232 o
0 4 1 1056.460 1029.950 16.313 22.152 o
0 4 2 540.090 627.759 50.186 11.261 o
0 4 4 964.441 893.856 24.997 20.366 o
0 4 5 3.207 2.644 5.345 1131.090 o
0 4 6 662.790 682.557 44.487 13.109 o
0 4 7 1849.880 1910.790 76.262 3.361 o
0 4 8 15.841 69.379 28.292 40.328 o
0 4 9 237.270 269.353 36.273 23.384 o
0 4 10 535.092 716.945 71.740 5.844 o
0 5 0 6.024 5.084 3.555 2551.590 o
0 5 1 448.731 459.322 14.513 74.659 o
0 5 2 3135.740 3268.370 99.459 1.548 o
0 5 3 1020.090 978.118 25.506 18.462 o
0 5 4 178.058 177.547 9.252 269.384 o
0 5 5 1268.330 1170.620 32.072 12.023 o
0 5 6 825.065 744.096 38.137 15.059 o
0 5 8 1011.060 1009.640 63.646 6.264 o
0 5 9 156.482 198.263 34.850 25.945 o
0 5 10 67.142 67.576 46.918 14.654 o
0 6 0 660.207 616.203 18.434 40.774 o
0 6 1 537.428 504.451 24.150 36.550 o
0 6 2 0.368 22.770 8.692 427.547 o
0 6 3 579.023 627.335 39.987 16.295 o
0 6 4 1297.850 1245.690 40.246 9.502 o
0 6 5 28.984 35.934 10.166 309.638 o
0 6 6 11.909 18.366 7.191 622.620 o
0 6 7 801.434 921.287 62.819 6.856 o
0 6 8 6.209 126.916 48.488 13.738 o
0 6 9 337.472 305.488 43.351 16.202 o
0 7 0 290.109 278.061 12.820 127.612 o
0 7 1 154.437 165.516 12.472 176.923 o
0 7 2 771.988 823.698 135.867 1.689 o
0 7 3 182.574 157.184 29.196 36.516 o
0 7 4 420.372 447.801 19.512 55.617 o
0 7 5 1312.310 1343.250 44.735 8.283 o
0 7 6 2.238 -6.846 20.038 80.519 o
0 7 7 159.172 168.042 35.039 25.734 o
0 7 8 334.896 385.363 48.539 12.981 o
0 8 0 602.109 600.854 37.105 18.261 o
0 8 1 435.520 465.493 30.900 27.618 o
0 8 2 0.165 -14.867 18.100 98.684 o
0 8 3 862.841 908.121 94.552 3.306 o
0 8 4 670.217 737.516 57.766 8.379 o
0 8 5 2.044 -13.256 24.635 53.273 o
0 8 6 538.685 534.912 54.235 9.931 o
0 8 7 371.976 399.233 49.953 12.185 o
0 9 0 230.857 228.618 36.020 23.859 o
0 9 1 411.249 416.049 32.277 26.346 o
0 9 2 366.662 360.544 41.311 17.465 o
0 9 3 77.820 89.234 45.329 15.679 o
0 9 4 297.936 396.966 46.872 13.959 o
0 9 5 563.620 685.378 61.495 7.737 o
0 9 6 63.526 28.993 50.266 12.781 o
0 10 0 1041.150 1130.690 84.949 3.820 o
0 10 1 472.969 480.479 71.177 6.086 o
0 10 2 141.682 118.242 30.681 33.648 o
0 10 3 611.305 722.880 61.953 7.527 o
0 10 4 191.284 251.457 40.263 19.364 o
1 -10 1 450.800 542.633 40.344 17.200 o
1 -10 2 456.691 487.675 38.753 18.592 o
1 -10 3 184.072 193.713 26.345 44.156 o
1 -10 4 36.731 52.715 18.357 95.397 o
1 -9 0 933.231 989.197 51.379 8.919 o
1 -9 2 12.233 22.267 13.150 186.668 o
1 -9 3 486.427 468.222 38.650 18.530 o
1 -9 4 503.464 523.996 43.477 14.875 o
1 -9 5 57.734 45.861 17.313 106.743 o
1 -9 6 698.083 700.252 81.538 4.503 o
1 -8 0 27.684 31.166 8.714 420.758 o
1 -8 1 545.746 570.111 23.687 36.138 o
1 -8 3 185.128 193.798 22.702 58.375 o
1 -8 4 57.449 46.703 16.928 111.588 o
1 -8 5 1207.870 1133.640 147.389 1.391 o
1 -8 6 337.873 313.700 46.296 14.295 o
1 -8 7 145.187 90.969 56.028 10.242 o
1 -8 8 559.635 553.231 83.605 4.412 o
1 -7 0 803.558 846.450 28.178 21.252 o
1 -7 1 1182.300 1182.690 78.143 4.239 o
1 -7 3 1498.470 1503.500 124.779 1.794 o
1 -7 4 553.610 586.091 80.336 4.754 o
1 -7 5 43.213 57.183 16.599 116.282 o
1 -7 6 1567.700 1335.990 104.104 2.439 o
1 -7 7 1111.420 989.262 171.630 1.053 o
1 -7 8 0.194 0.598 23.547 58.307 o
1 -7 9 290.772 332.623 49.290 12.776 o
1 -6 0 305.434 328.756 12.469 123.333 o
1 -6 1 525.789 525.762 18.872 49.229 o
1 -6 2 3848.070 4042.120 154.768 0.796 o
1 -6 3 681.803 759.728 73.341 5.458 o
1 -6 4 508.889 477.161 32.825 23.993 o
1 -6 5 2475.710 2174.580 227.532 0.558 o
1 -6 6 463.550 391.035 63.760 7.562 o
1 -6 7 170.759 128.487 37.759 22.259 o
1 -6 8 1247.300 1089.780 75.540 4.454 o
1 -6 9 65.221 67.874 55.909 10.327 o
1 -5 0 2132.530 1973.410 57.387 4.044 o
1 -5 1 5172.710 5297.130 175.127 0.537 o
1 -5 2 21.055 191.370 92.500 3.776 o
1 -5 3 3184.270 3285.090 428.320 0.166 o
1 -5 4 1483.290 1365.930 56.264 5.950 o
1 -5 5 54.611 61.267 16.840 112.612 o
1 -5 6 1001.250 915.979 105.624 2.653 o
1 -5 7 545.199 544.482 49.415 11.694 o
1 -5 8 18.160 17.654 51.389 12.241 o
1 -5 9 292.193 289.964 42.757 16.834 o
1 -5 10 319.323 207.025 80.545 4.918 o
1 -4 0 28.710 18.758 3.407 2626.210 o
1 -4 1 2309.610 2291.020 52.783 3.779 o
1 -4 2 5620.960 5543.390 170.791 0.511 o
1 -4 3 672.372 1218.820 182.184 0.951 o
1 -4 4 805.697 711.636 46.087 11.646 o
1 -4 5 1462.040 1269.300 64.504 5.144 o
1 -4 6 16.651 64.414 15.663 131.159 o
1 -4 7 394.734 406.984 22.766 46.772 o
1 -4 8 561.084 659.370 186.926 0.915 o
1 -4 9 114.942 108.798 27.662 41.499 o
1 -4 10 34.947 28.029 14.762 147.583 o
1 -3 0 5011.020 5008.300 47.126 1.095 o
1 -3 1 2225.840 2229.620 31.890 5.044 o
1 -3 2 1194.710 1228.710 25.029 14.642 o
1 -3 3 5717.230 5544.780 83.589 0.773 o
1 -3 5 108.587 92.689 7.681 457.997 o
1 -3 6 591.997 609.906 30.114 24.953 o
1 -3 7 163.676 196.345 32.511 29.658 o
1 -3 8 0.260 6.244 7.067 647.299 o
1 -3 9 267.475 437.011 135.249 1.756 o
1 -3 10 734.005 713.802 40.833 14.417 o
1 -3 11 66.693 44.720 23.653 57.395 o
1 -2 0 371.876 385.196 5.714 173.237 o
1 -2 1 1377.640 1336.150 17.119 13.963 o
1 -2 2 16.728 21.727 2.573 4626.940 o
1 -2 3 284.127 300.939 6.494 242.277 o
1 -2 4 4760.580 5160.610 109.462 0.850 o
1 -2 5 1471.050 1421.150 51.010 6.595 o
1 -2 6 798.391 775.113 25.064 24.720 o
1 -2 7 27.064 42.947 10.088 314.152 o
1 -2 8 1350.590 1320.650 54.807 6.521 o
1 -2 9 786.657 827.207 59.040 7.731 o
1 -2 10 10.824 12.859 28.085 40.981 o
1 -2 11 444.760 358.653 47.524 13.214 o
1 -1 0 6040.930 6113.520 42.974 0.773 o
1 -1 1 1183.070 1159.090 20.969 16.656 o
1 -1 2 8.109 8.398 2.945 3697.600 o
1 -1 3 615.962 593.255 12.156 58.759 o
1 -1 4 2127.690 2191.280 62.822 3.605 o
1 -1 6 569.547 591.542 22.816 36.639 o
1 -1 7 537.995 571.003 42.778 14.984 o
1 -1 8 1523.220 1490.120 86.834 3.224 o
1 -1 9 443.754 441.505 54.514 10.150 o
1 -1 10 1414.480 1397.540 59.425 5.683 o
1 -1 11 502.174 465.572 37.049 19.790 o
1 0 0 46.033 45.564 12.791 194.890 o
1 0 1 6567.560 7057.230 82.751 0.576 o
1 0 2 525.427 510.493 10.274 80.810 o
1 0 3 504.430 453.630 14.031 71.014 o
1 0 4 430.633 409.008 11.526 98.633 o
1 0 5 2522.690 2577.810 41.705 3.691 o
1 0 6 1989.360 1961.090 30.366 6.236 o
1 0 7 389.768 422.841 24.814 40.904 o
1 0 8 469.199 562.347 52.300 10.750 o
1 0 9 1190.600 1244.420 51.822 7.565 o
1 0 10 20.200 51.961 70.681 6.470 o
1 0 11 500.873 532.758 55.781 9.520 o
1 1 0 10642.000 11554.900 94.577 0.232 o
1 1 1 7611.920 7763.870 88.522 0.451 o
1 1 2 439.864 467.059 11.894 89.658 o
1 1 3 2803.080 2782.820 51.313 2.903 o
1 1 4 2616.570 2571.560 77.768 2.411 o
1 1 5 1092.900 1123.010 40.696 10.853 o
1 1 6 1298.850 1251.430 37.547 10.104 o
1 1 7 1471.580 1406.040 52.389 6.428 o
1 1 8 0.340 5.817 11.336 251.576 o
1 1 9 1026.050 990.953 45.691 10.083 o
1 1 10 1598.610 1598.830 87.512 3.098 o
1 1 11 161.254 187.295 38.358 21.514 o
1 2 0 35.463 35.444 4.633 1416.290 o
1 2 1 94.718 86.465 5.822 750.327 o
1 2 2 440.737 416.933 11.019 99.450 o
1 2 3 248.069 210.268 10.829 182.090 o
1 2 4 599.053 571.814 17.837 46.409 o
1 2 5 1847.320 1751.820 29.787 7.231 o
1 2 6 1915.900 1926.500 40.514 5.725 o
1 2 7 242.428 255.998 22.656 55.779 o
1 2 8 1557.100 1529.590 43.915 7.131 o
1 2 9 268.740 280.223 20.077 66.815 o
1 2 10 86.150 63.138 36.696 23.890 o
1 2 11 533.299 742.103 71.160 5.922 o
1 3 0 298.047 261.958 10.584 160.877 o
1 3 1 1969.530 1970.840 24.177 6.730 o
1 3 2 2.351 6.962 2.615 4717.420 o
1 3 3 2248.360 2176.440 33.148 4.990 o
1 3 4 1898.770 1778.340 49.261 5.229 o
1 3 5 78.693 98.790 17.127 107.315 o
1 3 6 1831.390 1647.840 157.742 1.143 o
1 3 7 1582.550 1529.710 104.105 2.395 o
1 3 8 20.255 12.104 28.337 40.244 o
1 3 9 444.691 516.675 75.383 5.460 o
1 3 10 812.165 782.160 170.507 1.086 o
1 4 0 556.271 579.150 17.679 49.112 o
1 4 1 1002.190 1000.260 15.533 24.273 o
1 4 2 2825.990 2678.940 44.670 3.115 o
1 4 3 502.820 465.232 17.246 57.855 o
1 4 4 810.227 772.628 21.688 27.817 o
1 4 5 2930.870 2791.100 38.684 3.067 o
1 4 6 648.795 660.851 54.488 9.419 o
1 4 7 219.956 235.099 52.770 11.385 o
1 4 8 1335.480 1319.320 72.965 4.461 o
1 4 9 105.225 119.029 30.841 33.529 o
1 4 10 33.609 93.903 47.109 14.548 o
1 5 0 1329.840 1255.120 41.561 9.034 o
1 5 1 5076.960 5044.980 219.366 0.425 o
1 5 2 327.487 317.571 10.850 139.355 o
1 5 3 2864.890 2672.740 56.592 2.756 o
1 5 4 2375.020 2235.550 99.101 2.057 o
1 5 5 15.918 20.837 23.030 60.920 o
1 5 6 943.496 859.278 50.335 9.385 o
1 5 7 832.174 784.155 59.277 7.629 o
1 5 8 7.739 27.855 26.713 45.294 o
1 5 9 335.864 346.001 47.629 13.507 o
1 6 0 28.695 25.537 5.472 1050.600 o
1 6 1 600.556 542.063 17.587 47.796 o
1 6 2 2949.430 2758.990 118.912 1.394 o
1 6 3 416.720 408.608 25.503 38.638 o
1 6 4 471.290 482.710 28.152 31.148 o
1 6 5 458.468 464.211 29.447 29.456 o
1 6 6 214.204 243.681 38.489 21.049 o
1 6 7 86.136 101.549 30.503 34.413 o
1 6 8 445.233 516.891 66.339 6.967 o
1 6 9 159.954 181.985 58.998 9.208 o
1 7 0 994.142 937.750 23.011 20.673 o
1 7 1 266.899 276.591 13.235 127.030 o
1 7 2 432.665 437.757 21.298 49.077 o
1 7 3 1072.410 1122.660 66.747 5.628 o
1 7 4 734.885 719.327 56.174 8.657 o
1 7 5 360.898 339.414 43.260 16.105 o
1 7 6 71.447 73.921 29.438 37.063 o
1 7 7 102.990 153.117 56.435 10.102 o
1 7 8 2.806 21.406 40.789 19.431 o
1 8 0 32.685 29.586 6.706 701.953 o
1 8 1 522.633 508.569 18.260 51.719 o
1 8 2 336.892 361.719 27.047 37.546 o
1 8 3 24.561 30.980 26.502 45.981 o
1 8 4 164.431 146.892 31.694 31.332 o
1 8 5 568.596 557.037 73.303 5.652 o
1 8 6 50.146 43.666 28.974 38.398 o
1 8 7 60.254 39.728 28.432 39.842 o
1 9 0 379.656 410.056 32.748 26.122 o
1 9 1 130.413 136.921 20.177 75.850 o
1 9 2 124.083 135.739 19.439 81.707 o
1 9 3 195.903 226.708 39.190 20.436 o
1 9 4 301.773 364.408 46.507 14.204 o
1 9 5 16.926 68.283 28.494 39.757 o
1 10 0 1.148 7.811 11.689 236.615 o
1 10 1 328.891 342.145 46.824 13.976 o
1 10 2 390.290 451.048 52.575 10.969 o
1 10 3 15.014 36.415 24.281 54.788 o
2 -10 0 453.709 488.864 45.618 13.956 o
2 -10 1 696.042 725.377 98.903 3.132 o
2 -10 2 133.175 130.510 22.157 63.398 o
2 -10 3 248.204 303.595 30.753 31.601 o
2 -10 4 716.210 673.434 94.661 3.404 o
2 -9 0 341.560 380.365 38.247 20.213 o
2 -9 1 221.286 248.076 26.456 42.677 o
2 -9 2 1442.540 1426.570 116.298 2.050 o
2 -9 3 491.887 486.059 35.499 21.253 o
2 -9 4 151.109 167.971 28.065 39.701 o
2 -9 5 1152.120 1196.810 126.323 1.854 o
2 -9 6 274.257 258.464 39.660 19.575 o
2 -8 0 1281.680 1363.150 47.900 7.777 o
2 -8 1 1037.280 1061.270 59.108 6.906 o
2 -8 2 0.255 11.512 12.983 191.784 o
2 -8 3 491.381 470.754 45.935 13.669 o
2 -8 4 1230.370 1175.260 229.635 0.595 o
2 -8 5 33.038 58.232 17.764 101.853 o
2 -8 6 772.985 789.701 67.981 6.123 o
2 -8 7 402.085 436.705 51.990 11.191 o
2 -7 0 207.838 220.460 14.322 127.279 o
2 -7 1 940.295 882.652 48.304 9.930 o
2 -7 2 2849.080 2661.620 186.841 0.746 o
2 -7 3 489.170 453.021 32.242 25.120 o
2 -7 4 480.509 421.228 33.589 23.788 o
2 -7 5 1623.790 1458.460 73.909 3.973 o
2 -7 6 95.816 80.280 32.468 30.410 o
2 -7 7 176.689 143.765 59.087 9.182 o
2 -7 8 258.921 280.127 51.528 11.834 o
2 -6 0 2306.280 2391.850 72.227 2.901 o
2 -6 1 1071.200 1032.620 29.723 15.386 o
2 -6 2 10.584 17.068 6.042 881.397 o
2 -6 3 3676.250 3435.200 142.748 0.939 o
2 -6 4 353.927 337.241 33.900 25.235 o
2 -6 5 70.508 67.207 9.529 336.622 o
2 -6 6 818.631 666.338 62.084 7.192 o
2 -6 7 1204.140 1090.410 191.677 0.846 o
2 -6 8 49.752 56.618 39.617 20.561 o
2 -6 9 26.516 63.496 88.919 4.088 o
2 -5 0 152.152 156.249 6.882 442.996 o
2 -5 1 1431.390 1338.090 31.932 10.258 o
2 -5 2 2481.800 2391.360 95.847 2.056 o
2 -5 3 131.836 131.496 8.959 326.114 o
2 -5 4 288.766 274.896 14.437 109.146 o
2 -5 5 641.489 613.673 50.360 10.883 o
2 -5 6 223.738 207.627 13.913 131.740 o
2 -5 7 57.981 48.721 10.130 305.328 o
2 -5 8 826.621 886.799 47.263 10.729 o
2 -5 9 679.665 722.475 62.186 7.363 o
2 -5 10 53.479 36.969 14.594 150.025 o
2 -4 0 4210.700 4162.210 69.561 1.349 o
2 -4 1 1046.700 994.009 16.014 22.962 o
2 -4 2 257.926 240.197 8.273 235.141 o
2 -4 3 1993.300 1885.630 57.430 4.331 o
2 -4 4 1366.350 1309.520 60.009 5.799 o
2 -4 5 107.553 104.289 6.593 579.493 o
2 -4 6 210.484 171.479 17.944 88.724 o
2 -4 7 593.735 572.936 48.195 11.987 o
2 -4 8 203.328 215.946 24.215 51.058 o
2 -4 9 213.994 195.808 38.459 21.185 o
2 -4 10 802.113 805.291 97.068 3.194 o
2 -3 0 37.063 33.154 3.138 2876.350 o
2 -3 1 1266.420 1186.350 16.729 16.571 o
2 -3 3 3.693 3.479 2.809 4091.360 o
2 -3 4 323.944 322.427 8.749 169.899 o
2 -3 6 670.867 656.498 30.398 22.988 o
2 -3 7 17.397 22.395 5.682 989.278 o
2 -3 8 1137.090 1080.850 105.706 2.579 o
2 -3 9 1113.060 1125.210 108.033 2.482 o
2 -3 10 9.284 8.201 9.075 392.184 o
2 -2 0 80.660 67.957 4.561 1190.750 o
2 -2 1 547.939 603.591 12.653 63.513 o
2 -2 2 540.644 547.486 10.492 75.086 o
2 -2 3 2243.580 2189.570 50.892 4.054 o
2 -2 4 3232.620 3175.170 59.799 2.184 o
2 -2 5 56.752 52.011 5.177 1073.610 o
2 -2 6 765.199 743.448 29.526 21.605 o
2 -2 7 1916.480 1767.390 80.882 3.129 o
2 -2 8 340.116 318.890 27.933 35.888 o
2 -2 9 615.180 606.291 33.039 21.567 o
2 -2 10 961.742 951.458 40.242 12.349 o
2 -2 11 98.628 91.582 21.006 71.634 o
2 -1 0 745.639 729.281 16.408 37.379 o
2 -1 2 25.711 16.554 3.114 3151.680 o
2 -1 3 958.506 907.534 18.833 24.520 o
2 -1 4 161.424 156.930 6.413 468.966 o
2 -1 5 3195.370 2965.170 76.750 1.964 o
2 -1 6 2772.110 2613.530 77.940 2.291 o
2 -1 7 33.935 49.116 12.522 204.031 o
2 -1 8 1143.410 1186.090 75.636 4.504 o
2 -1 9 3148.400 3083.020 116.863 1.331 o
2 -1 10 0.257 -6.134 11.236 256.096 o
2 -1 11 153.879 159.796 55.154 10.537 o
2 0 0 9529.660 9917.260 275.427 0.182 o
2 0 2 1648.930 1749.220 19.639 9.336 o
2 0 3 2809.440 2836.190 34.888 3.281 o
2 0 4 6477.400 6173.310 104.742 0.586 o
2 0 5 922.105 907.548 20.416 24.279 o
2 0 6 998.167 942.578 27.242 18.106 o
2 0 7 1893.440 1850.370 99.886 2.340 o
2 0 8 5.439 37.851 40.362 19.842 o
2 0 9 37.432 51.073 19.620 83.573 o
2 0 10 921.721 915.794 47.757 10.101 o
2 0 11 207.263 208.960 38.033 21.647 o
2 1 1 8882.490 9456.130 141.059 0.295 o
2 1 2 6279.970 6267.640 64.167 0.689 o
2 1 3 4343.660 4356.560 46.869 1.421 o
2 1 4 260.940 243.678 8.552 224.619 o
2 1 5 5094.940 4715.830 85.929 0.945 o
2 1 6 1544.100 1455.830 52.026 6.216 o
2 1 7 195.386 175.118 12.934 156.966 o
2 1 8 1478.050 1410.490 35.149 9.136 o
2 1 9 370.651 382.660 29.058 32.427 o
2 1 10 12.402 68.179 30.763 34.126 o
2 1 11 188.228 250.070 62.227 8.248 o
2 2 0 376.117 348.512 10.509 125.888 o
2 2 1 5704.980 5985.340 109.902 0.665 o
2 2 2 273.824 302.798 11.082 153.809 o
2 2 3 4180.530 4202.910 44.842 1.534 o
2 2 4 2297.430 2197.770 24.991 5.216 o
2 2 5 811.563 796.785 24.825 24.423 o
2 2 6 1625.970 1509.640 77.745 3.681 o
2 2 7 942.432 943.741 80.364 4.354 o
2 2 8 7.457 16.534 9.337 370.319 o
2 2 9 298.541 310.167 53.233 11.022 o
2 2 10 457.646 481.984 60.599 8.273 o
2 3 0 943.362 1018.970 30.897 16.373 o
2 3 1 1467.110 1474.940 23.273 11.186 o
2 3 2 4467.210 4409.280 66.384 1.247 o
2 3 3 355.024 358.581 13.938 97.309 o
2 3 4 2129.610 2177.290 39.941 4.898 o
2 3 5 1483.770 1393.530 68.197 4.653 o
2 3 6 428.586 441.646 49.307 12.270 o
2 3 7 88.392 90.935 13.614 166.660 o
2 3 8 635.505 773.893 149.408 1.416 o
2 3 9 270.276 336.198 101.337 3.120 o
2 3 10 22.274 56.787 96.857 3.446 o
2 4 0 2232.230 2169.980 49.193 4.178 o
2 4 1 2100.730 1995.380 33.546 5.608 o
2 4 2 116.250 111.079 8.644 363.374 o
2 4 3 2174.890 1928.890 43.886 4.834 o
2 4 4 1393.330 1372.330 47.239 7.482 o
2 4 5 9.783 17.632 26.670 45.442 o
2 4 6 746.406 760.578 59.246 7.840 o
2 4 7 896.194 875.427 65.572 6.266 o
2 4 8 117.072 143.530 37.141 23.148 o
2 4 9 3.235 84.035 41.535 18.730 o
2 4 10 191.443 342.185 89.138 4.037 o
2 5 0 143.449 145.110 13.669 154.411 o
2 5 1 2062.710 1999.740 56.737 4.171 o
2 5 2 4789.000 4486.680 72.181 1.111 o
2 5 3 313.040 305.121 15.470 93.961 o
2 5 4 231.065 262.403 31.162 31.253 o
2 5 5 792.391 852.106 80.018 4.541 o
2 5 6 255.159 333.704 79.422 5.056 o
2 5 7 3.168 12.843 30.875 33.914 o
2 5 8 516.818 518.809 60.081 8.288 o
2 5 9 201.743 220.501 45.923 14.996 o
2 6 0 2065.670 2001.540 75.769 3.143 o
2 6 1 957.769 934.914 34.713 14.786 o
2 6 2 3.977 12.939 8.112 490.963 o
2 6 3 1033.010 1017.870 26.690 17.370 o
2 6 4 1177.250 1148.560 47.988 8.541 o
2 6 5 35.502 57.070 29.772 36.394 o
2 6 6 24.975 31.106 27.302 43.328 o
2 6 7 784.526 833.304 71.237 5.601 o
2 6 8 137.930 204.023 58.303 9.434 o
2 7 0 1.826 -2.870 5.211 1190.720 o
2 7 1 904.957 880.388 34.912 15.445 o
2 7 2 816.438 796.152 33.549 17.587 o
2 7 3 163.137 206.976 38.107 21.749 o
2 7 4 7.711 8.170 30.837 33.997 o
2 7 5 315.910 329.084 45.054 15.097 o
2 7 6 0.776 13.047 27.137 43.901 o
2 7 7 71.632 105.059 36.959 23.539 o
2 8 0 412.544 393.785 22.268 47.873 o
2 8 1 116.232 139.433 13.560 161.186 o
2 8 2 25.378 25.018 10.093 315.248 o
2 8 3 269.040 343.506 44.411 15.647 o
2 8 4 383.216 402.116 50.560 11.881 o
2 8 5 43.974 25.954 32.259 31.020 o
2 8 6 335.012 287.140 47.706 13.547 o
2 9 0 94.111 88.314 18.386 93.099 o
2 9 1 98.273 96.926 17.804 98.751 o
2 9 2 146.712 157.247 34.398 26.768 o
2 9 3 258.537 304.849 44.836 15.455 o
2 9 4 0.308 37.408 28.362 40.182 o
2 9 5 167.181 238.958 45.381 15.402 o
2 10 0 204.159 239.827 28.477 37.519 o
2 10 1 290.330 343.679 49.384 12.719 o
2 10 2 0.029 -9.174 26.897 44.690 o
3 -10 0 181.857 229.969 32.036 30.246 o
3 -10 1 133.268 142.758 26.567 44.529 o
3 -10 2 510.441 576.054 66.429 6.848 o
3 -10 3 101.903 103.294 19.381 83.539 o
3 -10 4 181.693 206.865 54.120 10.892 o
3 -9 0 1134.970 1215.590 60.988 6.233 o
3 -9 1 791.437 838.400 103.840 2.814 o
3 -9 2 2.666 12.221 15.438 135.640 o
3 -9 3 403.665 453.697 33.765 24.269 o
3 -9 4 423.865 409.098 56.842 9.448 o
3 -9 5 108.500 63.383 25.699 48.259 o
3 -9 6 231.630 215.254 43.183 16.835 o
3 -8 0 133.658 153.466 19.573 79.925 o
3 -8 1 301.455 322.815 25.302 43.472 o
3 -8 2 823.298 859.183 58.054 7.830 o
3 -8 3 257.467 273.234 24.362 48.358 o
3 -8 4 81.511 81.405 11.631 226.866 o
3 -8 5 502.257 471.988 36.640 20.133 o
3 -8 6 582.930 564.130 54.953 9.561 o
3 -8 7 4.385 -11.588 25.391 50.145 o
3 -7 0 850.880 900.664 29.663 19.039 o
3 -7 1 184.488 190.497 10.234 226.784 o
3 -7 2 403.711 400.947 22.098 48.636 o
3 -7 3 340.057 318.115 18.068 72.356 o
3 -7 4 194.335 208.241 16.179 106.063 o
3 -7 5 156.327 142.290 13.081 164.853 o
3 -7 6 200.006 166.130 48.021 13.788 o
3 -7 7 736.044 700.649 142.483 1.549 o
3 -7 8 353.739 326.439 47.102 13.771 o
3 -6 0 3.244 0.602 4.718 1452.180 o
3 -6 1 186.942 182.131 14.307 133.574 o
3 -6 2 1841.250 1755.190 82.054 3.137 o
3 -6 3 116.778 103.137 9.349 319.761 o
3 -6 4 229.392 222.771 15.920 104.433 o
3 -6 5 1009.410 945.744 29.637 16.664 o
3 -6 6 1078.030 989.933 85.159 3.827 o
3 -6 7 33.158 42.975 9.908 324.555 o
3 -6 8 869.782 908.347 51.906 9.130 o
3 -6 9 735.366 845.086 52.330 9.547 o
3 -5 0 306.268 295.891 11.376 141.113 o
3 -5 1 893.830 901.938 20.551 24.941 o
3 -5 2 200.603 189.205 8.658 276.135 o
3 -5 3 597.678 563.472 19.733 42.367 o
3 -5 4 2020.770 2029.260 102.944 2.148 o
3 -5 5 1022.710 913.878 54.612 8.002 o
3 -5 6 246.239 227.177 13.601 130.590 o
3 -5 7 2039.980 1936.990 119.649 1.730 o
3 -5 8 1124.640 1022.510 55.953 7.308 o
3 -5 9 203.076 195.971 27.792 39.612 o
3 -4 0 3.672 10.539 3.088 3376.550 o
3 -4 1 5.067 7.187 2.666 4525.030 o
3 -4 2 4542.200 4365.680 108.517 0.961 o
3 -4 3 4052.970 3879.490 52.242 1.610 o
3 -4 4 72.947 74.680 15.191 136.611 o
3 -4 5 1468.370 1366.180 41.400 8.183 o
3 -4 6 1309.430 1200.330 39.909 9.637 o
3 -4 7 1.445 11.145 29.942 36.062 o
3 -4 8 1054.110 979.741 72.226 5.077 o
3 -4 9 931.883 903.555 57.464 7.648 o
3 -4 10 0.937 -0.521 9.852 333.108 o
3 -3 0 2539.190 2555.310 30.737 4.049 o
3 -3 1 2490.370 2416.520 32.490 4.217 o
3 -3 2 102.815 91.837 6.082 678.081 o
3 -3 3 2875.070 2768.510 51.317 2.836 o
3 -3 4 5248.250 5091.560 127.421 0.709 o
3 -3 5 1118.510 1134.710 34.097 12.748 o
3 -3 6 819.476 809.321 29.555 20.236 o
3 -3 7 1704.380 1606.840 80.964 3.370 o
3 -3 8 125.878 123.319 15.708 122.580 o
3 -3 9 395.860 392.669 32.549 26.308 o
3 -3 10 486.446 522.660 38.891 18.135 o
3 -2 0 1855.620 1767.480 25.640 7.547 o
3 -2 1 290.974 266.613 9.204 188.299 o
3 -2 2 4399.050 4118.740 58.840 1.369 o
3 -2 3 3396.470 3254.060 42.459 2.310 o
3 -2 4 1939.420 2007.500 48.627 4.935 o
3 -2 5 2335.970 2109.380 63.214 3.385 o
3 -2 6 778.222 724.843 30.396 20.823 o
3 -2 7 467.080 489.596 27.141 32.939 o
3 -2 8 1212.270 1148.740 77.875 4.250 o
3 -2 9 429.207 410.530 37.196 20.487 o
3 -2 10 0.039 4.127 12.640 202.336 o
3 -1 0 3352.270 3233.200 93.301 1.567 o
3 -1 1 3024.790 2920.850 39.562 2.864 o
3 -1 2 151.156 151.441 7.260 416.689 o
3 -1 3 2360.240 2319.730 35.976 4.440 o
3 -1 4 6904.280 6700.100 126.487 0.484 o
3 -1 5 2.320 10.230 4.601 1524.990 o
3 -1 6 1166.280 1092.560 36.388 11.793 o
3 -1 7 1284.840 1277.220 45.351 8.409 o
3 -1 8 383.086 335.772 24.689 42.752 o
3 -1 9 224.889 224.404 25.843 44.732 o
3 -1 10 245.588 253.646 28.153 37.609 o
3 0 0 1408.710 1434.250 48.266 7.163 o
3 0 1 2208.010 2227.020 27.793 5.297 o
3 0 2 4488.780 4398.280 63.598 1.260 o
3 0 3 1683.530 1630.540 20.567 9.397 o
3 0 4 250.888 246.168 10.716 177.237 o
3 0 5 1614.860 1469.150 31.299 8.865 o
3 0 6 526.800 479.980 23.525 38.600 o
3 0 7 256.283 243.660 22.687 55.378 o
3 0 8 3.991 9.445 16.393 120.289 o
3 0 9 956.000 965.414 79.499 4.416 o
3 0 10 164.496 180.781 37.489 22.502 o
3 1 0 16058.000 17215.500 419.746 0.069 o
3 1 1 7746.700 7937.900 169.100 0.341 o
3 1 2 342.596 385.763 11.998 114.434 o
3 1 3 3284.160 3115.950 32.812 2.606 o
3 1 4 2162.160 2006.080 44.310 4.751 o
3 1 5 289.997 280.638 26.489 40.865 o
3 1 6 193.003 185.262 13.652 143.169 o
3 1 7 575.526 547.239 27.224 29.672 o
3 1 8 0.335 -31.322 28.008 41.215 o
3 1 9 0.079 47.832 61.690 8.495 o
3 1 10 242.237 298.739 55.183 10.364 o
3 2 0 1270.340 1356.220 25.544 12.999 o
3 2 1 1420.530 1543.250 25.149 10.942 o
3 2 2 4557.650 4379.300 54.037 1.297 o
3 2 3 1170.710 1150.500 19.844 17.318 o
3 2 4 119.859 118.897 8.662 356.968 o
3 2 5 398.294 378.953 24.888 41.114 o
3 2 6 907.052 885.960 59.825 7.249 o
3 2 7 3.335 11.837 47.184 14.521 o
3 2 8 226.166 205.749 72.594 6.075 o
3 2 9 312.281 262.982 118.940 2.270 o
3 2 10 61.780 21.168 55.710 10.409 o
3 3 0 3030.440 3088.080 89.733 1.780 o
3 3 1 872.549 838.849 21.606 25.387 o
3 3 2 96.390 98.043 9.021 352.971 o
3 3 3 393.705 413.630 19.634 57.755 o
3 3 4 183.609 177.690 12.426 169.915 o
3 3 5 15.932 11.856 17.581 104.521 o
3 3 6 10.354 23.763 34.370 27.363 o
3 3 7 612.815 637.249 61.349 7.729 o
3 3 8 349.116 474.572 84.875 4.387 o
3 3 9 22.025 96.598 42.686 17.720 o
3 3 10 281.083 352.154 58.074 9.307 o
3 4 0 0.580 -0.020 5.401 1108.300 o
3 4 1 315.185 323.934 14.581 100.210 o
3 4 2 935.610 884.603 30.513 17.489 o
3 4 3 295.664 303.352 21.595 57.418 o
3 4 4 0.729 11.254 12.733 199.398 o
3 4 5 542.799 581.805 55.474 9.472 o
3 4 6 429.418 427.551 51.685 11.260 o
3 4 7 61.473 72.929 34.627 26.860 o
3 4 8 290.104 322.201 49.509 12.681 o
3 4 9 325.860 546.079 104.089 2.937 o
3 5 0 786.816 785.763 25.814 24.147 o
3 5 1 1189.330 1144.810 54.150 7.295 o
3 5 2 46.411 44.288 10.940 265.123 o
3 5 3 35.081 26.255 11.041 262.806 o
3 5 4 528.067 517.012 33.675 22.561 o
3 5 5 250.953 305.799 53.733 10.900 o
3 5 6 66.052 96.515 35.567 25.431 o
3 5 7 846.259 880.657 74.593 5.080 o
3 5 8 440.966 498.801 62.119 7.907 o
3 6 0 27.948 20.913 8.795 414.128 o
3 6 1 10.544 16.143 6.967 663.812 o
3 6 2 1948.570 1859.040 77.287 3.241 o
3 6 3 1272.330 1295.850 44.628 8.568 o
3 6 4 130.111 143.117 34.940 26.063 o
3 6 5 489.090 544.613 57.897 8.901 o
3 6 6 648.725 756.767 69.906 5.991 o
3 6 7 30.693 53.256 35.277 25.946 o
3 6 8 317.111 318.932 55.331 10.194 o
3 7 0 405.335 399.681 24.155 42.515 o
3 7 1 523.040 546.048 30.334 26.361 o
3 7 2 339.768 343.975 19.895 61.891 o
3 7 3 83.369 82.593 15.795 125.805 o
3 7 4 863.186 859.916 69.350 5.755 o
3 7 5 49.618 23.995 32.637 30.300 o
3 7 6 7.852 0.730 31.968 31.635 o
3 7 7 484.379 573.648 68.008 6.581 o
3 8 0 197.502 195.529 18.906 80.912 o
3 8 1 18.178 7.806 7.334 598.452 o
3 8 2 508.785 461.919 30.686 26.807 o
3 8 3 350.277 361.765 28.705 33.667 o
3 8 4 0.694 4.215 25.312 50.459 o
3 8 5 718.252 751.355 72.118 5.594 o
3 9 0 274.636 264.030 28.913 35.300 o
3 9 1 587.015 610.261 61.477 7.764 o
3 9 2 44.080 29.446 22.629 62.932 o
3 9 3 80.362 63.005 42.180 18.110 o
4 -10 0 437.632 461.830 35.152 22.271 o
4 -10 1 318.193 404.113 59.793 8.724 o
4 -10 2 10.011 12.351 13.626 174.006 o
4 -10 3 234.588 265.629 53.763 10.938 o
4 -9 0 39.040 49.375 13.633 172.129 o
4 -9 1 146.526 152.985 20.217 74.706 o
4 -9 2 367.313 375.197 35.357 23.110 o
4 -9 3 355.118 332.630 41.743 17.253 o
4 -9 4 48.354 64.551 23.107 60.199 o
4 -9 5 272.782 288.809 69.280 6.620 o
4 -8 0 698.387 681.314 36.343 17.546 o
4 -8 1 682.735 690.938 36.048 17.858 o
4 -8 2 192.436 192.510 20.373 71.003 o
4 -8 3 146.737 128.328 25.650 47.587 o
4 -8 4 900.787 838.155 35.105 15.587 o
4 -8 5 608.721 571.403 35.983 19.229 o
4 -8 6 23.713 30.984 42.110 18.224 o
4 -7 0 204.639 200.353 13.539 141.673 o
4 -7 1 50.237 51.644 7.387 563.569 o
4 -7 2 674.230 651.361 41.332 14.752 o
4 -7 3 313.121 307.047 19.797 65.029 o
4 -7 4 286.034 270.220 19.201 71.153 o
4 -7 5 985.095 934.018 32.615 15.523 o
4 -7 6 957.687 910.199 74.151 5.002 o
4 -7 7 30.937 22.271 22.167 65.679 o
4 -6 0 271.518 261.850 17.858 81.401 o
4 -6 1 886.454 882.591 34.466 15.850 o
4 -6 2 385.966 369.314 15.418 81.833 o
4 -6 3 1818.770 1600.070 188.173 0.835 o
4 -6 4 391.536 419.920 24.668 41.272 o
4 -6 5 310.136 297.813 20.648 61.214 o
4 -6 6 640.885 665.922 35.984 18.441 o
4 -6 7 1376.610 1330.670 92.429 3.062 o
4 -6 8 189.827 223.087 29.081 36.343 o
4 -5 0 721.284 700.052 18.758 35.665 o
4 -5 1 14.836 12.079 4.369 1674.970 o
4 -5 2 2122.200 2018.740 72.618 3.229 o
4 -5 3 3703.420 3629.480 107.952 1.226 o
4 -5 4 0.214 1.362 3.974 2047.520 o
4 -5 5 1187.130 1166.850 32.566 12.553 o
4 -5 6 885.842 859.486 29.113 19.199 o
4 -5 7 13.601 25.409 17.593 104.338 o
4 -5 8 978.601 913.566 68.507 5.683 o
4 -5 9 292.350 296.857 47.806 13.588 o
4 -4 0 769.253 707.711 17.307 35.564 o
4 -4 1 3738.880 3579.760 56.602 1.799 o
4 -4 2 1020.810 1011.840 22.174 19.981 o
4 -4 3 933.553 912.345 21.687 23.033 o
4 -4 4 2348.920 2425.610 121.533 1.547 o
4 -4 5 380.413 357.933 30.559 29.796 o
4 -4 6 300.654 314.100 14.618 102.662 o
4 -4 7 551.922 590.920 30.875 24.864 o
4 -4 8 430.044 402.623 38.502 19.301 o
4 -4 9 15.312 16.662 9.986 323.305 o
4 -3 0 1842.160 1824.160 23.862 7.634 o
4 -3 1 548.746 531.396 14.350 61.409 o
4 -3 2 5440.800 5210.960 73.495 0.881 o
4 -3 3 3965.580 3961.300 55.925 1.599 o
4 -3 4 14.743 23.528 6.803 693.443 o
4 -3 5 934.738 933.009 68.379 5.748 o
4 -3 6 436.354 418.986 34.802 22.884 o
4 -3 7 29.538 33.762 11.145 258.108 o
4 -3 8 316.667 318.978 32.433 27.836 o
4 -3 9 279.098 273.227 24.257 48.117 o
4 -3 10 9.666 27.457 30.387 35.002 o
4 -2 0 2074.120 2033.860 26.404 6.084 o
4 -2 1 4211.160 3910.740 51.551 1.537 o
4 -2 2 29.321 27.402 4.606 1462.350 o
4 -2 3 2251.370 2210.320 32.973 4.950 o
4 -2 4 1718.620 1671.690 51.209 5.598 o
4 -2 5 8.232 11.346 10.506 292.669 o
4 -2 6 295.929 317.858 19.094 69.595 o
4 -2 7 617.940 601.005 37.828 17.584 o
4 -2 8 227.817 196.578 24.756 48.672 o
4 -2 9 0.354 8.248 34.583 27.032 o
4 -2 10 300.083 302.416 44.490 15.560 o
4 -1 0 1321.940 1266.190 35.281 10.457 o
4 -1 1 1219.780 1173.630 18.511 16.840 o
4 -1 2 1533.770 1521.810 29.760 9.425 o
4 -1 3 770.669 742.396 21.058 30.116 o
4 -1 4 247.112 246.576 11.934 154.891 o
4 -1 5 1168.670 1090.560 32.333 13.116 o
4 -1 6 316.847 340.678 23.398 48.826 o
4 -1 7 20.911 30.867 14.662 149.935 o
4 -1 8 361.238 360.195 33.682 25.335 o
4 -1 9 1017.210 921.504 84.826 3.918 o
4 -1 10 48.817 8.184 23.213 59.848 o
4 0 0 3792.020 3780.950 82.029 1.448 o
4 0 1 1094.220 1029.720 21.333 18.948 o
4 0 2 113.938 105.464 8.030 414.991 o
4 0 3 409.108 369.772 13.765 89.812 o
4 0 4 677.918 621.714 18.058 40.486 o
4 0 5 204.050 203.573 18.516 83.319 o
4 0 6 27.304 54.076 20.020 80.378 o
4 0 7 700.958 651.630 40.590 14.988 o
4 0 8 441.819 514.099 73.755 5.696 o
4 0 9 211.708 207.870 40.727 18.942 o
4 0 10 824.345 929.542 209.578 0.723 o
4 1 0 1869.560 1878.030 64.245 4.072 o
4 1 1 4639.770 4970.460 56.502 1.166 o
4 1 2 224.247 202.743 12.326 159.133 o
4 1 3 1011.770 977.846 24.875 18.939 o
4 1 4 26.227 29.610 7.108 629.759 o
4 1 5 339.304 329.352 33.813 25.535 o
4 1 6 835.682 808.574 31.899 18.364 o
4 1 7 61.091 54.922 20.631 75.287 o
4 1 8 312.683 317.809 41.332 17.805 o
4 1 9 248.836 318.307 111.380 2.589 o
4 1 10 176.300 220.215 85.552 4.393 o
4 2 0 426.853 402.283 17.541 64.886 o
4 2 1 6605.840 6501.870 193.968 0.382 o
4 2 2 213.004 191.320 13.639 139.323 o
4 2 3 199.092 191.393 12.593 161.182 o
4 2 4 906.702 882.269 28.122 19.374 o
4 2 5 1150.960 1150.190 113.382 2.262 o
4 2 6 112.692 176.788 46.835 14.609 o
4 2 7 810.102 889.552 176.150 1.017 o
4 2 8 426.518 376.354 184.663 0.943 o
4 2 9 105.781 66.759 73.194 6.024 o
4 3 0 97.989 98.580 11.557 224.425 o
4 3 1 58.583 74.517 12.308 207.338 o
4 3 2 316.361 308.384 23.672 48.444 o
4 3 3 741.357 741.032 19.522 33.039 o
4 3 4 1.664 2.865 4.894 1349.590 o
4 3 5 237.772 233.533 14.651 117.395 o
4 3 6 1535.630 1554.160 68.334 4.457 o
4 3 7 49.481 86.806 27.151 43.609 o
4 3 8 379.513 482.637 55.784 9.803 o
4 3 9 329.576 468.242 59.903 8.640 o
4 4 0 182.062 187.478 15.560 115.933 o
4 4 1 1052.160 1030.090 35.402 13.249 o
4 4 2 409.978 414.430 29.448 30.754 o
4 4 3 94.829 90.178 14.834 140.876 o
4 4 4 717.868 768.358 23.405 28.492 o
4 4 5 16.747 38.334 21.735 68.348 o
4 4 6 287.299 303.455 36.647 22.511 o
4 4 7 728.147 696.959 71.296 5.729 o
4 4 8 231.437 318.209 91.393 3.837 o
4 5 0 433.000 435.906 28.399 31.969 o
4 5 1 16.168 6.578 10.100 316.390 o
4 5 2 693.088 665.147 31.460 21.581 o
4 5 3 526.373 503.922 28.766 28.860 o
4 5 4 5.763 7.260 10.668 283.956 o
4 5 5 759.225 687.919 72.707 5.504 o
4 5 6 551.544 596.372 63.974 7.279 o
4 5 7 22.912 73.514 37.845 22.546 o
4 5 8 294.083 384.931 60.684 8.515 o
4 6 0 229.807 238.765 20.522 67.342 o
4 6 1 1467.560 1487.040 62.433 5.164 o
4 6 2 566.835 551.882 30.105 25.874 o
4 6 3 326.480 316.302 28.034 35.946 o
4 6 4 734.982 749.584 42.556 13.436 o
4 6 5 76.370 98.174 35.623 25.324 o
4 6 6 117.230 108.871 36.903 23.494 o
4 6 7 397.081 460.957 62.682 7.848 o
4 7 0 427.690 461.451 32.428 25.637 o
4 7 1 8.335 16.117 10.510 292.335 o
4 7 2 630.178 636.738 39.307 16.330 o
4 7 3 610.831 598.009 37.853 17.639 o
4 7 4 3.201 9.103 11.102 262.234 o
4 7 5 476.859 457.594 57.655 9.070 o
4 7 6 158.373 126.499 39.629 20.280 o
4 8 0 205.951 213.239 20.462 69.390 o
4 8 1 542.845 517.948 35.919 20.195 o
4 8 2 6.579 10.071 10.266 306.557 o
4 8 3 202.454 198.798 24.236 51.203 o
4 8 4 273.064 325.443 50.016 12.466 o
4 9 0 200.228 215.262 41.971 17.888 o
5 -9 0 205.094 192.458 23.383 54.738 o
5 -9 1 781.281 781.614 42.531 13.075 o
5 -9 2 351.886 361.462 30.026 31.127 o
5 -9 3 59.811 69.557 15.008 140.832 o
5 -9 4 769.326 676.249 47.887 11.203 o
5 -8 0 784.449 801.310 35.094 16.924 o
5 -8 1 2.847 1.943 9.602 350.607 o
5 -8 2 1134.370 1088.810 69.945 5.169 o
5 -8 3 1001.700 977.684 71.635 5.210 o
5 -8 4 17.844 14.642 8.846 411.536 o
5 -8 5 427.887 472.521 72.657 5.887 o
5 -7 0 496.564 495.514 26.600 33.149 o
5 -7 1 1496.960 1511.850 43.334 7.466 o
5 -7 2 435.694 431.812 55.193 9.943 o
5 -7 3 223.330 234.315 25.180 46.851 o
5 -7 4 949.917 902.869 37.135 13.887 o
5 -7 5 152.500 178.373 16.389 108.914 o
5 -7 6 249.146 269.872 32.486 28.695 o
5 -7 7 544.137 619.654 112.771 2.474 o
5 -6 0 779.994 793.202 26.221 23.833 o
5 -6 1 152.830 145.145 12.468 179.614 o
5 -6 2 2120.790 2156.040 91.684 2.422 o
5 -6 3 80.676 81.418 10.584 271.371 o
5 -6 4 302.383 321.127 21.768 55.993 o
5 -6 5 518.950 511.433 35.184 21.160 o
5 -6 6 308.475 298.531 36.451 22.610 o
5 -6 7 2.260 6.225 19.351 86.331 o
5 -5 0 1336.590 1318.330 26.320 12.351 o
5 -5 1 1489.960 1492.540 32.926 9.235 o
5 -5 2 300.132 299.088 17.008 83.542 o
5 -5 3 952.604 971.975 27.870 18.196 o
5 -5 4 462.722 516.320 22.629 42.362 o
5 -5 5 26.667 16.020 6.560 741.216 o
5 -5 6 404.844 386.557 29.529 30.942 o
5 -5 7 537.997 532.679 35.965 20.130 o
5 -5 8 381.738 370.531 58.512 9.033 o
5 -4 0 68.422 70.703 6.426 695.401 o
5 -4 1 177.645 177.735 11.725 188.197 o
5 -4 2 1602.550 1589.640 27.889 9.094 o
5 -4 3 583.645 590.856 20.708 40.299 o
5 -4 4 27.947 31.806 9.293 370.417 o
5 -4 5 58.578 79.966 21.102 71.847 o
5 -4 6 266.857 329.491 27.504 38.193 o
5 -4 7 234.140 252.201 33.154 27.825 o
5 -4 8 9.244 21.694 12.527 205.750 o
5 -3 0 2462.890 2503.480 35.736 4.069 o
5 -3 1 499.407 485.833 22.221 42.537 o
5 -3 2 236.932 224.626 10.863 182.716 o
5 -3 3 86.573 98.985 9.435 330.013 o
5 -3 4 531.540 569.379 23.547 36.890 o
5 -3 5 300.516 307.089 31.378 29.820 o
5 -3 6 0.050 5.471 12.108 220.505 o
5 -3 7 393.709 408.190 40.325 17.973 o
5 -3 8 627.349 617.685 41.440 15.102 o
5 -3 9 75.325 101.093 20.036 79.027 o
5 -2 0 1002.980 1016.110 26.524 17.893 o
5 -2 1 114.349 108.138 8.031 413.382 o
5 -2 2 524.222 501.805 20.422 45.702 o
5 -2 3 638.274 654.499 20.584 36.983 o
5 -2 4 57.803 39.068 7.872 498.415 o
5 -2 5 95.380 92.837 12.044 208.884 o
5 -2 6 1067.430 1065.180 57.507 7.115 o
5 -2 7 306.535 306.119 30.090 32.089 o
5 -2 8 169.825 156.712 26.256 44.958 o
5 -2 9 807.633 835.410 67.059 6.190 o
5 -1 0 274.851 252.254 14.093 117.009 o
5 -1 1 306.760 285.957 15.981 91.551 o
5 -1 2 170.874 168.472 9.908 249.424 o
5 -1 3 6.324 11.318 6.834 691.258 o
5 -1 4 1846.370 1861.370 41.619 5.922 o
5 -1 5 161.144 179.968 16.905 102.230 o
5 -1 6 64.069 60.969 18.730 91.034 o
5 -1 7 1534.850 1650.110 81.548 3.461 o
5 -1 8 808.191 841.523 52.616 9.242 o
5 -1 9 4.778 0.517 17.906 100.830 o
5 0 0 1113.230 1071.150 32.194 13.756 o
5 0 1 41.848 95.365 19.899 80.857 o
5 0 2 154.237 159.455 15.250 124.813 o
5 0 3 717.244 709.130 29.754 22.444 o
5 0 4 407.322 338.348 30.633 29.418 o
5 0 5 1058.570 1048.850 57.947 7.076 o
5 0 6 1698.640 1761.220 85.454 3.074 o
5 0 7 107.847 131.311 23.728 55.978 o
5 0 8 244.267 267.143 37.955 21.417 o
5 0 9 1508.840 1472.640 119.003 1.948 o
5 1 0 383.176 402.799 23.485 45.110 o
5 1 1 1138.490 1136.740 50.896 8.086 o
5 1 2 670.177 640.146 20.776 35.703 o
5 1 3 14.796 25.591 10.464 294.296 o
5 1 4 1721.610 1718.180 34.500 7.333 o
5 1 5 1103.890 1116.670 35.335 12.513 o
5 1 6 43.533 20.868 17.774 101.881 o
5 1 7 1191.230 1222.470 93.390 3.141 o
5 1 8 65.232 90.770 48.640 13.631 o
5 1 9 35.565 47.834 21.435 70.104 o
5 2 0 3830.010 3792.860 125.909 1.020 o
5 2 1 29.202 24.512 8.351 458.157 o
5 2 2 2181.180 2054.670 65.453 3.492 o
5 2 3 1817.620 1784.950 39.171 6.360 o
5 2 4 2.137 2.828 5.152 1217.860 o
5 2 5 1137.660 1135.560 57.082 6.932 o
5 2 6 1696.080 1766.680 118.241 1.880 o
5 2 7 51.115 34.735 20.640 75.492 o
5 2 8 439.890 490.759 43.612 15.186 o
5 3 0 136.955 147.022 14.761 135.101 o
5 3 1 2212.880 2066.020 97.995 2.200 o
5 3 2 1180.250 1136.110 47.185 8.730 o
5 3 3 381.300 358.062 17.198 72.246 o
5 3 4 1817.640 1793.460 56.819 4.762 o
5 3 5 411.351 465.504 58.299 8.982 o
5 3 6 72.030 136.428 53.544 11.240 o
5 3 7 735.121 820.409 73.409 5.368 o
5 3 8 145.036 180.605 31.745 31.252 o
5 4 0 1406.410 1366.630 47.699 7.372 o
5 4 1 6.779 4.263 10.050 319.990 o
5 4 2 1181.910 1129.430 96.814 2.981 o
5 4 3 335.296 358.773 23.894 46.257 o
5 4 4 234.247 225.609 23.420 53.290 o
5 4 5 968.112 964.229 47.875 9.772 o
5 4 6 307.080 330.097 43.539 16.138 o
5 4 7 38.342 95.615 37.644 22.758 o
5 5 0 757.606 783.271 47.493 11.172 o
5 5 1 1183.560 1169.970 60.879 6.196 o
5 5 2 89.422 101.591 15.035 137.248 o
5 5 3 400.521 407.941 27.792 34.069 o
5 5 4 529.697 539.824 33.038 23.085 o
5 5 5 46.602 31.480 13.629 172.319 o
5 5 6 145.243 132.609 41.091 18.906 o
5 5 7 175.622 181.847 47.303 14.231 o
5 6 0 281.950 303.927 31.525 29.803 o
5 6 1 51.140 45.210 11.783 228.553 o
5 6 2 1138.480 1128.890 45.252 9.373 o
5 6 3 133.103 147.785 19.298 82.239 o
5 6 4 7.940 11.525 10.885 272.656 o
5 6 5 217.863 164.697 37.670 22.105 o
5 7 0 566.089 564.107 33.093 22.408 o
5 7 1 217.582 227.249 22.102 59.702 o
5 7 2 144.904 148.076 21.677 65.568 o
5 7 3 154.700 141.484 21.965 63.764 o
5 7 4 346.359 330.017 32.224 27.757 o
5 8 0 77.717 67.402 17.092 108.445 o
5 8 1 64.356 54.007 15.826 127.031 o
6 -9 0 416.087 470.689 44.060 15.063 o
6 -9 1 0.158 3.103 9.917 328.761 o
6 -8 0 543.236 604.767 45.954 13.156 o
6 -8 1 917.921 985.580 59.148 7.249 o
6 -8 2 163.320 175.693 40.908 18.973 o
6 -8 3 99.748 101.846 13.928 157.743 o
6 -8 4 345.429 336.281 26.443 39.108 o
6 -7 0 913.250 963.224 31.845 16.543 o
6 -7 1 11.232 19.089 9.200 381.020 o
6 -7 2 542.913 623.121 68.823 6.352 o
6 -7 3 388.362 377.248 29.112 32.062 o
6 -7 4 7.463 7.339 9.871 331.628 o
6 -7 5 328.167 332.929 32.575 27.414 o
6 -6 0 457.589 458.624 21.608 46.522 o
6 -6 1 685.467 674.695 26.982 26.209 o
6 -6 2 87.902 91.843 10.896 253.810 o
6 -6 3 289.143 315.458 22.443 53.866 o
6 -6 4 6.264 7.127 11.097 262.456 o
6 -6 5 362.680 443.036 32.260 26.816 o
6 -6 6 38.599 26.552 11.429 245.054 o
6 -5 0 157.670 169.569 12.015 187.129 o
6 -5 1 63.858 59.138 9.063 374.401 o
6 -5 2 472.134 485.906 19.110 52.800 o
6 -5 3 742.006 789.012 27.253 23.652 o
6 -5 4 268.050 232.904 16.170 97.110 o
6 -5 5 262.831 276.057 22.711 54.478 o
6 -5 6 840.701 944.832 47.609 10.430 o
6 -5 7 260.358 280.464 29.334 34.466 o
6 -4 0 483.380 477.959 20.246 48.833 o
6 -4 1 585.581 609.414 19.848 41.611 o
6 -4 2 355.974 352.694 16.350 79.977 o
6 -4 3 8.781 5.706 5.446 1087.600 o
6 -4 4 707.818 790.081 34.418 18.241 o
6 -4 5 632.325 692.879 36.492 18.016 o
6 -4 6 1.006 -1.229 9.689 344.366 o
6 -4 7 561.157 579.514 46.788 12.733 o
6 -3 0 49.832 57.690 7.036 615.927 o
6 -3 1 16.608 14.006 5.930 912.417 o
6 -3 2 439.982 447.636 16.015 68.874 o
6 -3 3 1431.730 1483.760 38.511 8.584 o
6 -3 4 338.238 374.520 24.376 44.431 o
6 -3 5 271.749 291.599 22.199 56.029 o
6 -3 6 1082.870 1197.090 53.622 7.622 o
6 -3 7 312.962 336.411 36.348 22.561 o
6 -3 8 17.372 26.528 14.396 155.653 o
6 -2 0 217.741 245.402 16.654 96.981 o
6 -2 1 1209.580 1215.220 36.574 11.021 o
6 -2 2 651.969 665.498 21.072 35.426 o
6 -2 3 20.411 23.875 6.729 706.132 o
6 -2 4 1650.690 1668.230 41.861 6.826 o
6 -2 5 1084.310 1139.680 41.289 10.680 o
6 -2 6 1.096 7.239 23.590 58.097 o
6 -2 7 841.924 942.783 51.225 9.351 o
6 -2 8 411.438 431.060 39.570 18.414 o
6 -1 0 1596.180 1638.400 56.578 5.370 o
6 -1 1 285.611 250.699 16.387 92.329 o
6 -1 2 625.945 642.030 26.048 29.078 o
6 -1 3 1728.070 1737.690 34.880 7.224 o
6 -1 4 16.054 11.334 7.678 546.337 o
6 -1 5 1132.010 1124.440 40.350 10.722 o
6 -1 6 810.344 865.066 47.080 10.911 o
6 -1 7 55.201 42.455 15.462 133.651 o
6 -1 8 182.531 183.116 28.716 37.554 o
6 0 0 222.429 221.167 17.377 90.932 o
6 0 1 1666.330 1645.480 53.592 5.511 o
6 0 2 341.000 305.693 15.950 86.851 o
6 0 3 197.494 194.764 14.195 132.769 o
6 0 4 1950.540 1916.660 42.990 5.445 o
6 0 5 584.587 614.297 26.698 29.470 o
6 0 6 117.333 154.599 25.364 48.863 o
6 0 7 665.467 733.104 47.451 11.687 o
6 0 8 171.263 198.911 30.828 32.796 o
6 1 0 2056.950 2048.490 84.320 2.764 o
6 1 1 44.105 37.514 11.931 224.113 o
6 1 2 476.361 441.837 17.637 59.213 o
6 1 3 1256.880 1228.690 32.626 11.729 o
6 1 4 3.885 12.228 9.943 326.876 o
6 1 5 361.137 352.041 25.826 40.090 o
6 1 6 463.752 542.705 39.820 17.507 o
6 1 7 47.700 60.871 19.953 80.606 o
6 1 8 22.817 60.901 21.946 66.934 o
6 2 0 353.135 439.202 29.306 31.778 o
6 2 1 4346.950 4116.140 169.051 0.668 o
6 2 2 6.563 8.479 8.011 503.277 o
6 2 3 272.986 242.893 15.427 103.229 o
6 2 4 1056.750 1032.690 33.511 13.942 o
6 2 5 491.811 545.629 32.736 23.874 o
6 2 6 9.499 -10.689 18.261 96.935 o
6 2 7 80.243 66.883 21.966 66.148 o
6 3 0 867.933 798.052 47.635 10.618 o
6 3 1 258.028 244.224 19.828 69.832 o
6 3 2 1342.130 1268.670 53.346 6.830 o
6 3 3 775.281 749.522 27.497 23.172 o
6 3 4 0.967 14.107 26.862 44.804 o
6 3 5 83.992 105.245 21.288 69.949 o
6 3 6 688.467 727.982 50.063 10.629 o
6 3 7 135.043 211.288 37.817 22.173 o
6 4 0 611.161 586.774 38.716 17.067 o
6 4 1 533.621 867.062 116.976 2.287 o
6 4 2 83.842 96.153 12.247 204.119 o
6 4 3 61.700 64.989 14.625 148.186 o
6 4 4 355.884 350.560 28.449 34.187 o
6 4 5 122.953 152.532 47.350 14.298 o
6 4 6 93.601 140.164 42.370 17.880 o
6 5 0 233.951 243.237 22.161 58.547 o
6 5 1 0.556 16.725 10.784 277.925 o
6 5 2 273.750 289.326 26.600 40.813 o
6 5 3 198.759 202.086 22.155 60.511 o
6 5 4 30.257 27.111 14.828 146.419 o
6 5 5 145.124 112.767 20.202 75.581 o
6 6 0 251.269 233.288 23.163 53.712 o
6 6 1 303.131 297.851 25.663 42.690 o
6 6 2 152.571 156.045 20.305 73.815 o
6 6 3 13.384 11.427 11.710 235.481 o
6 7 0 79.282 84.243 20.050 79.023 o
7 -8 0 123.331 172.713 44.782 15.952 o
7 -7 0 84.330 106.743 18.708 90.017 o
7 -7 1 385.214 421.858 59.425 8.731 o
7 -7 2 436.129 467.558 40.888 17.118 o
7 -7 3 4.679 -1.396 8.599 437.211 o
7 -6 0 608.165 617.289 32.099 22.506 o
7 -6 1 223.052 240.204 20.940 65.263 o
7 -6 2 40.746 53.022 12.321 209.948 o
7 -6 3 471.063 535.166 34.367 22.378 o
7 -6 4 326.791 377.253 29.988 31.460 o
7 -6 5 144.602 178.486 22.020 63.229 o
7 -5 0 43.085 38.564 9.179 375.345 o
7 -5 1 756.705 773.818 28.382 22.490 o
7 -5 2 1153.960 1194.420 35.108 11.910 o
7 -5 3 131.001 150.380 15.423 125.107 o
7 -5 4 637.913 711.097 39.225 16.040 o
7 -5 5 417.311 484.561 33.605 24.136 o
7 -4 0 925.056 940.336 34.190 15.325 o
7 -4 1 194.704 206.409 15.036 120.196 o
7 -4 2 485.210 519.202 23.553 39.292 o
7 -4 3 2100.820 2251.730 49.493 4.322 o
7 -4 4 175.446 205.153 18.021 89.279 o
7 -4 5 646.324 704.085 39.283 15.967 o
7 -4 6 891.673 989.281 57.611 7.611 o
7 -3 0 251.267 237.723 16.245 97.939 o
7 -3 1 1025.210 1053.690 32.715 14.470 o
7 -3 2 1220.950 1289.960 41.847 9.416 o
7 -3 3 95.085 136.571 14.915 137.368 o
7 -3 4 1114.770 1199.240 41.849 10.193 o
7 -3 5 555.072 603.794 35.707 19.836 o
7 -3 6 0.225 8.628 13.511 177.105 o
7 -2 0 2293.550 2274.720 74.168 2.889 o
7 -2 1 1.275 -4.666 8.084 494.734 o
7 -2 2 918.110 927.282 41.103 12.377 o
7 -2 3 1500.960 1591.420 53.887 5.929 o
7 -2 4 115.772 116.134 14.855 137.410 o
7 -2 5 300.430 306.408 25.083 44.373 o
7 -2 6 355.981 420.350 38.155 20.073 o
7 -2 7 38.537 24.892 22.739 62.375 o
7 -1 0 143.299 161.202 17.325 99.672 o
7 -1 1 1941.260 1900.950 68.404 3.708 o
7 -1 2 313.357 317.796 20.279 62.291 o
7 -1 3 255.265 251.765 18.708 76.941 o
7 -1 4 1026.230 1051.930 37.998 12.396 o
7 -1 5 75.164 67.282 12.330 204.952 o
7 -1 6 2.355 -7.097 14.613 151.394 o
7 -1 7 122.362 137.198 25.237 49.395 o
7 0 0 1438.410 1423.930 71.532 4.398 o
7 0 1 30.101 22.790 8.429 449.790 o
7 0 2 601.540 592.258 27.272 28.531 o
7 0 3 311.191 330.329 21.338 57.223 o
7 0 4 96.599 88.095 13.656 164.915 o
7 0 5 321.090 339.906 22.926 50.348 o
7 0 6 75.032 132.551 25.582 48.684 o
7 1 0 311.463 317.427 22.296 53.531 o
7 1 1 761.268 752.842 31.251 20.180 o
7 1 2 20.375 9.128 10.076 317.474 o
7 1 3 56.410 43.508 13.202 182.403 o
7 1 4 135.368 156.812 15.920 117.341 o
7 1 5 308.194 372.089 32.800 27.080 o
7 1 6 70.730 99.046 31.252 32.866 o
7 2 0 449.035 398.098 26.970 34.750 o
7 2 1 88.595 69.998 14.493 148.700 o
7 2 2 184.605 174.874 16.934 100.242 o
7 2 3 109.484 118.686 14.213 149.825 o
7 2 4 168.447 179.833 22.203 61.557 o
7 2 5 17.176 15.968 13.443 178.590 o
7 2 6 132.295 170.799 53.385 11.254 o
7 3 0 3.030 23.346 21.153 72.237 o
7 3 1 517.761 519.120 35.851 20.498 o
7 3 2 345.490 356.622 31.791 28.280 o
7 3 3 1.870 30.901 14.839 146.735 o
7 3 4 238.479 229.385 26.737 41.709 o
7 3 5 463.610 514.468 51.041 11.319 o
7 4 0 237.925 239.431 30.342 32.908 o
7 4 1 207.522 181.502 27.006 41.863 o
7 4 2 5.029 19.748 43.177 17.341 o
7 4 3 349.932 423.810 57.873 9.232 o
7 4 4 276.109 329.744 44.140 15.830 o
7 5 0 5.794 11.606 15.173 140.398 o
7 5 1 210.004 236.823 31.199 31.527 o
7 5 2 361.873 374.335 67.452 6.885 o
8 -6 0 27.310 19.068 9.198 379.189 o
8 -6 1 561.997 592.472 31.724 23.732 o
8 -5 0 896.971 942.956 33.977 15.699 o
8 -5 1 169.578 161.467 14.688 131.409 o
8 -5 2 220.282 233.634 17.785 87.095 o
8 -5 3 589.174 672.264 34.197 20.421 o
8 -4 0 162.864 150.150 14.460 136.727 o
8 -4 1 816.966 891.160 34.340 16.584 o
8 -4 2 449.500 475.422 24.770 38.408 o
8 -4 3 9.605 22.404 8.310 466.806 o
8 -4 4 757.408 860.470 38.173 15.116 o
8 -3 0 514.624 503.998 25.083 35.404 o
8 -3 1 4.328 1.119 6.932 672.588 o
8 -3 2 334.986 358.583 21.654 54.181 o
8 -3 3 390.999 430.422 23.870 43.259 o
8 -3 4 172.001 184.680 16.767 102.668 o
8 -2 0 230.810 214.987 17.207 92.008 o
8 -2 1 261.085 277.837 18.910 74.335 o
8 -2 2 121.487 129.205 15.080 132.427 o
8 -2 3 2.912 13.232 10.098 316.949 o
8 -2 4 145.233 153.080 20.225 74.699 o
8 -2 5 219.106 243.005 30.471 32.837 o
8 -1 0 712.873 710.425 35.242 18.028 o
8 -1 1 39.975 37.390 10.374 295.814 o
8 -1 2 141.224 120.409 17.959 94.499 o
8 -1 3 281.977 278.838 21.054 61.108 o
8 -1 4 274.994 298.001 22.073 56.314 o
8 -1 5 0.919 -10.999 11.507 244.167 o
8 0 0 0.581 1.023 10.201 310.652 o
8 0 1 140.900 138.357 14.739 135.516 o
8 0 2 209.112 198.530 17.788 89.219 o
8 0 3 80.230 71.966 11.811 221.389 o
8 0 4 258.225 274.021 26.039 42.905 o
8 1 0 390.803 389.207 31.674 27.660 o
8 1 1 69.200 66.631 11.851 222.182 o
8 1 2 37.192 39.400 9.932 322.608 o
8 1 3 377.556 402.127 30.168 30.162 o
8 1 4 390.798 394.383 31.595 27.744 o
8 2 0 47.086 42.405 16.901 112.294 o
8 2 1 387.466 380.095 24.790 41.679 o
8 2 2 64.348 121.961 25.862 47.795 o
8 2 3 83.032 111.720 24.680 52.280 o
8 3 0 288.433 280.308 37.819 21.284 o
8 3 1 524.777 470.125 65.406 7.095 o
8 3 2 532.798 439.223 33.330 23.352 o
;
_olex2_submission_special_instructions 'No special instructions were received'
_oxdiff_exptl_absorpt_empirical_details
;
Empirical correction (ABSPACK) includes:
- Absorption correction using spherical harmonics
- Frame scaling
;
_oxdiff_exptl_absorpt_empirical_full_max 2.602
_oxdiff_exptl_absorpt_empirical_full_min 0.560
loop_
_space_group_symop_id
_space_group_symop_operation_xyz
1 x,y,z
2 -x,-y,-z
loop_
_atom_site_label
_atom_site_type_symbol
_atom_site_fract_x
_atom_site_fract_y
_atom_site_fract_z
_atom_site_U_iso_or_equiv
_atom_site_adp_type
_atom_site_occupancy
_atom_site_refinement_flags_posn
Ru1 Ru 0.27714(3) 0.25140(3) 0.34541(3) 0.02248(11) Uani 1.000000 .
N1 N 0.2725(3) 0.3583(3) 0.1518(3) 0.0224(6) Uani 1.000000 .
O1 O 0.1863(3) 0.4414(3) 0.4056(2) 0.0329(6) Uani 1.000000 .
C16 C 0.3992(4) 0.0475(4) 0.3360(4) 0.0331(9) Uani 1.000000 .
H16 H 0.3853(4) -0.0316(4) 0.2739(4) 0.0398(11) Uiso 1.000000 R
C11 C 0.2900(5) 0.0473(4) 0.4519(4) 0.0328(9) Uani 1.000000 .
H11 H 0.2005(5) -0.0311(4) 0.4647(4) 0.0393(11) Uiso 1.000000 R
C12 C 0.3146(5) 0.1639(4) 0.5485(4) 0.0333(9) Uani 1.000000 .
H12 H 0.2431(5) 0.1623(4) 0.6256(4) 0.0400(11) Uiso 1.000000 R
C5 C 0.1435(4) 0.7263(4) 0.0859(4) 0.0357(10) Uani 1.000000 .
H5 H 0.1362(4) 0.7916(4) 0.0150(4) 0.0429(12) Uiso 1.000000 R
C7 C 0.1049(4) 0.6650(4) 0.3257(4) 0.0334(9) Uani 1.000000 .
H7 H 0.0683(4) 0.6905(4) 0.4127(4) 0.0401(11) Uiso 1.000000 R
C8 C 0.1696(4) 0.5322(4) 0.3051(4) 0.0261(8) Uani 1.000000 .
C13 C 0.4498(5) 0.2844(4) 0.5275(4) 0.0353(9) Uani 1.000000 .
H13 H 0.4657(5) 0.3624(4) 0.5908(4) 0.0423(11) Uiso 1.000000 R
C3 C 0.2472(5) 0.5415(4) -0.0724(4) 0.0375(10) Uani 1.000000 .
H3 H 0.2422(5) 0.6008(4) -0.1483(4) 0.0450(11) Uiso 1.000000 R
C14 C 0.5593(4) 0.2871(4) 0.4125(4) 0.0334(9) Uani 1.000000 .
H14 H 0.6498(4) 0.3649(4) 0.4001(4) 0.0401(11) Uiso 1.000000 R
C1 C 0.3050(4) 0.3133(4) 0.0261(4) 0.0311(9) Uani 1.000000 .
C4 C 0.2051(4) 0.5918(4) 0.0593(4) 0.0303(9) Uani 1.000000 .
C9 C 0.2189(4) 0.4963(4) 0.1699(4) 0.0238(8) Uani 1.000000 .
C15 C 0.5297(4) 0.1694(4) 0.3155(4) 0.0328(9) Uani 1.000000 .
H15 H 0.5980(4) 0.1726(4) 0.2366(4) 0.0394(11) Uiso 1.000000 R
C2 C 0.2951(5) 0.4059(4) -0.0882(4) 0.0377(10) Uani 1.000000 .
H2 H 0.3219(5) 0.3730(4) -0.1755(4) 0.0453(11) Uiso 1.000000 R
C10 C 0.3407(5) 0.1596(4) 0.0002(4) 0.0439(10) Uani 1.000000 .
H10a H 0.4673(5) 0.1575(6) 0.002(3) 0.0658(16) Uiso 1.000000 GR
H10b H 0.286(3) 0.0975(7) 0.0701(16) 0.0658(16) Uiso 1.000000 GR
H10c H 0.292(3) 0.1255(11) -0.0886(12) 0.0658(16) Uiso 1.000000 GR
C6 C 0.0947(4) 0.7607(4) 0.2156(4) 0.0370(10) Uani 1.000000 .
H6 H 0.0536(4) 0.8496(4) 0.2319(4) 0.0444(12) Uiso 1.000000 R
Cl1 Cl -0.02894(10) 0.15685(10) 0.28228(10) 0.0379(2) Uani 1.000000 .
loop_
_atom_site_aniso_label
_atom_site_aniso_U_11
_atom_site_aniso_U_22
_atom_site_aniso_U_33
_atom_site_aniso_U_12
_atom_site_aniso_U_13
_atom_site_aniso_U_23
Ru1 0.02148(16) 0.02639(18) 0.02041(18) 0.00511(11) 0.00373(11) 0.00611(13)
N1 0.0191(13) 0.0281(16) 0.0196(16) 0.0006(11) 0.0030(12) 0.0038(13)
O1 0.0482(15) 0.0330(14) 0.0206(14) 0.0160(11) 0.0063(12) 0.0042(12)
C16 0.0328(19) 0.026(2) 0.043(3) 0.0127(15) -0.0045(18) 0.0040(18)
C11 0.0332(19) 0.031(2) 0.035(2) 0.0060(15) -0.0026(18) 0.0176(19)
C12 0.0346(19) 0.048(2) 0.020(2) 0.0134(17) 0.0015(17) 0.0140(19)
C5 0.0323(19) 0.032(2) 0.042(3) -0.0004(16) -0.0047(19) 0.018(2)
C7 0.0343(19) 0.033(2) 0.033(2) 0.0062(15) -0.0030(17) -0.0027(19)
C8 0.0250(17) 0.0269(19) 0.025(2) 0.0007(14) -0.0044(15) 0.0026(17)
C13 0.035(2) 0.044(2) 0.027(2) 0.0083(17) -0.0115(18) -0.0018(19)
C3 0.036(2) 0.046(2) 0.028(2) -0.0062(17) 0.0033(18) 0.016(2)
C14 0.0214(17) 0.037(2) 0.040(3) -0.0007(15) -0.0068(17) 0.008(2)
C1 0.0237(17) 0.042(2) 0.027(2) -0.0006(15) 0.0069(16) 0.0011(19)
C4 0.0245(17) 0.033(2) 0.031(2) -0.0071(15) -0.0021(16) 0.0116(18)
C9 0.0188(15) 0.0270(19) 0.024(2) -0.0022(13) 0.0011(15) 0.0048(16)
C15 0.0218(17) 0.041(2) 0.038(2) 0.0122(15) 0.0056(16) 0.0093(19)
C2 0.037(2) 0.057(3) 0.015(2) -0.0069(18) 0.0074(17) 0.004(2)
C10 0.052(2) 0.049(3) 0.032(3) 0.011(2) 0.003(2) -0.009(2)
C6 0.0302(19) 0.026(2) 0.054(3) 0.0027(15) -0.0063(19) 0.007(2)
Cl1 0.0209(4) 0.0486(6) 0.0440(6) 0.0022(4) 0.0023(4) 0.0171(5)
loop_
_atom_type_symbol
_atom_type_scat_dispersion_real
_atom_type_scat_dispersion_imag
_atom_type_scat_Cromer_Mann_a1
_atom_type_scat_Cromer_Mann_a2
_atom_type_scat_Cromer_Mann_a3
_atom_type_scat_Cromer_Mann_a4
_atom_type_scat_Cromer_Mann_b1
_atom_type_scat_Cromer_Mann_b2
_atom_type_scat_Cromer_Mann_b3
_atom_type_scat_Cromer_Mann_b4
_atom_type_scat_Cromer_Mann_c
_atom_type_scat_source
_atom_type_scat_dispersion_source
Ru -1.23940 0.83517 19.26740 12.91820 4.86337 1.56756 0.80852 8.43467 24.79970
94.29280 5.37873983383
'International Tables Volume C Table 6.1.1.4 (pp. 500-502)'
'Henke, Gullikson and Davis, At. Data and Nucl. Data Tables, 1993, 54, 2'
C 0.00347 0.00161 2.31000 1.02000 1.58860 0.86500 20.84390 10.20750 0.56870
51.65120 0.215599998832
'International Tables Volume C Table 6.1.1.4 (pp. 500-502)'
'Henke, Gullikson and Davis, At. Data and Nucl. Data Tables, 1993, 54, 2'
Cl 0.14873 0.16029 11.46040 7.19640 6.25560 1.64550 0.01040 1.16620 18.51940
47.77840 -9.55739974976
'International Tables Volume C Table 6.1.1.4 (pp. 500-502)'
'Henke, Gullikson and Davis, At. Data and Nucl. Data Tables, 1993, 54, 2'
H 0.00000 0.00000 0.49300 0.32291 0.14019 0.04081 10.51090 26.12570 3.14236
57.79970 0.0030380000826
'International Tables Volume C Table 6.1.1.4 (pp. 500-502)'
'Henke, Gullikson and Davis, At. Data and Nucl. Data Tables, 1993, 54, 2'
O 0.01158 0.00611 3.04850 2.28680 1.54630 0.86700 13.27710 5.70110 0.32390
32.90890 0.250800013542
'International Tables Volume C Table 6.1.1.4 (pp. 500-502)'
'Henke, Gullikson and Davis, At. Data and Nucl. Data Tables, 1993, 54, 2'
N 0.00653 0.00323 12.21260 3.13220 2.01250 1.16630 0.00570 9.89330 28.99750
0.58260 -11.5290002823
'International Tables Volume C Table 6.1.1.4 (pp. 500-502)'
'Henke, Gullikson and Davis, At. Data and Nucl. Data Tables, 1993, 54, 2'
loop_
_geom_angle_atom_site_label_1
_geom_angle_atom_site_label_2
_geom_angle_atom_site_label_3
_geom_angle
_geom_angle_site_symmetry_1
_geom_angle_site_symmetry_3
_geom_angle_publ_flag
O1 Ru1 N1 79.54(10) . . ?
C16 Ru1 N1 113.60(13) . . ?
C16 Ru1 O1 165.34(12) . . ?
C11 Ru1 N1 146.99(13) . . ?
C11 Ru1 O1 131.80(13) . . ?
C11 Ru1 C16 37.35(14) . . ?
C12 Ru1 N1 172.15(11) . . ?
C12 Ru1 O1 98.39(12) . . ?
C12 Ru1 C16 67.70(14) . . ?
C12 Ru1 C11 37.59(13) . . ?
C13 Ru1 N1 133.98(12) . . ?
C13 Ru1 O1 85.92(12) . . ?
C13 Ru1 C16 80.17(14) . . ?
C13 Ru1 C11 68.17(14) . . ?
C13 Ru1 C12 38.17(13) . . ?
C14 Ru1 N1 104.78(12) . . ?
C14 Ru1 O1 103.45(12) . . ?
C14 Ru1 C16 67.82(13) . . ?
C14 Ru1 C11 80.33(13) . . ?
C14 Ru1 C12 68.20(14) . . ?
C14 Ru1 C13 37.40(14) . . ?
C15 Ru1 N1 96.20(12) . . ?
C15 Ru1 O1 138.99(12) . . ?
C15 Ru1 C16 37.39(12) . . ?
C15 Ru1 C11 67.59(13) . . ?
C15 Ru1 C12 80.34(14) . . ?
C15 Ru1 C13 67.78(14) . . ?
C15 Ru1 C14 37.75(13) . . ?
Cl1 Ru1 N1 83.42(7) . . ?
Cl1 Ru1 O1 87.21(7) . . ?
Cl1 Ru1 C16 100.34(9) . . ?
Cl1 Ru1 C11 87.65(9) . . ?
Cl1 Ru1 C12 104.10(10) . . ?
Cl1 Ru1 C13 139.47(11) . . ?
Cl1 Ru1 C14 167.46(9) . . ?
Cl1 Ru1 C15 133.19(10) . . ?
C1 N1 Ru1 130.9(2) . . ?
C9 N1 Ru1 110.3(2) . . ?
C9 N1 C1 118.8(3) . . ?
C8 O1 Ru1 114.5(2) . . ?
C11 C16 Ru1 70.09(19) . . ?
C15 C16 Ru1 69.81(18) . . ?
C15 C16 C11 118.8(4) . . ?
C16 C11 Ru1 72.56(19) . . ?
C12 C11 Ru1 70.9(2) . . ?
C12 C11 C16 120.8(3) . . ?
C11 C12 Ru1 71.5(2) . . ?
C13 C12 Ru1 70.71(19) . . ?
C13 C12 C11 119.4(3) . . ?
C6 C5 C4 120.0(3) . . ?
C6 C7 C8 120.5(4) . . ?
C7 C8 O1 122.7(3) . . ?
C9 C8 O1 119.7(3) . . ?
C9 C8 C7 117.7(3) . . ?
C12 C13 Ru1 71.12(19) . . ?
C14 C13 Ru1 72.4(2) . . ?
C14 C13 C12 120.7(3) . . ?
C2 C3 C4 119.7(4) . . ?
C13 C14 Ru1 70.21(19) . . ?
C15 C14 Ru1 70.27(18) . . ?
C15 C14 C13 118.8(3) . . ?
C2 C1 N1 120.8(3) . . ?
C10 C1 N1 120.4(3) . . ?
C10 C1 C2 118.7(4) . . ?
C3 C4 C5 124.4(3) . . ?
C9 C4 C5 118.7(4) . . ?
C9 C4 C3 116.8(3) . . ?
C8 C9 N1 115.9(3) . . ?
C4 C9 N1 122.5(3) . . ?
C4 C9 C8 121.5(3) . . ?
C16 C15 Ru1 72.80(18) . . ?
C14 C15 Ru1 71.98(18) . . ?
C14 C15 C16 121.4(4) . . ?
C1 C2 C3 121.3(4) . . ?
C7 C6 C5 121.6(3) . . ?
loop_
_geom_bond_atom_site_label_1
_geom_bond_atom_site_label_2
_geom_bond_distance
_geom_bond_site_symmetry_2
_geom_bond_publ_flag
Ru1 N1 2.142(3) . ?
Ru1 O1 2.051(2) . ?
Ru1 C16 2.214(3) . ?
Ru1 C11 2.182(3) . ?
Ru1 C12 2.174(3) . ?
Ru1 C13 2.169(3) . ?
Ru1 C14 2.197(3) . ?
Ru1 C15 2.175(3) . ?
Ru1 Cl1 2.4180(9) . ?
N1 C1 1.320(4) . ?
N1 C9 1.400(4) . ?
O1 C8 1.315(4) . ?
C16 C11 1.408(5) . ?
C16 C15 1.407(5) . ?
C11 C12 1.403(5) . ?
C12 C13 1.420(5) . ?
C5 C4 1.408(5) . ?
C5 C6 1.362(5) . ?
C7 C8 1.396(5) . ?
C7 C6 1.408(5) . ?
C8 C9 1.417(5) . ?
C13 C14 1.400(5) . ?
C3 C4 1.408(5) . ?
C3 C2 1.359(5) . ?
C14 C15 1.414(5) . ?
C1 C2 1.421(5) . ?
C1 C10 1.499(5) . ?
C4 C9 1.415(5) . ?
